# CIF file generated by openbabel 3.1.0, see https://openbabel.org
data_I
_chemical_name_common 'image0'
_cell_length_a 15.0089
_cell_length_b 15.3987
_cell_length_c 15.5691
_cell_angle_alpha 67.873
_cell_angle_beta 64.609
_cell_angle_gamma 68.959
_space_group_name_H-M_alt 'P 1'
_space_group_name_Hall 'P 1'
loop_
    _symmetry_equiv_pos_as_xyz
    x,y,z
loop_
    _atom_site_label
    _atom_site_type_symbol
    _atom_site_fract_x
    _atom_site_fract_y
    _atom_site_fract_z
    _atom_site_occupancy
    C1       C        0.66637    0.52342    0.13609    1.000
    Co1      Co       0.25468    0.92503    0.97640    1.000
    B1       B        0.64147    0.63903    0.06644    1.000
    H1       H        0.57380    0.67320    0.04180    1.000
    B2       B        0.74264    0.55095    0.01404    1.000
    H2       H        0.74200    0.52590    0.95550    1.000
    B3       B        0.79465    0.47008    0.10639    1.000
    H3       H        0.82860    0.39190    0.10830    1.000
    B4       B        0.72377    0.50856    0.21660    1.000
    H4       H        0.71070    0.45570    0.29110    1.000
    B5       B        0.62932    0.61420    0.19168    1.000
    H5       H        0.55400    0.63240    0.24930    1.000
    B6       B        0.76046    0.66685    0.99092    1.000
    H6       H        0.77160    0.72020    0.91680    1.000
    B7       B        0.85634    0.56207    0.01488    1.000
    H7       H        0.93140    0.54550    0.95620    1.000
    B8       B        0.84424    0.53485    0.14120    1.000
    H8       H        0.91180    0.49960    0.16610    1.000
    B9       B        0.74218    0.62382    0.19401    1.000
    H9       H        0.74190    0.64850    0.25320    1.000
    C2       C        0.69349    0.69726    0.10177    1.000
    B10      B        0.82362    0.65696    0.06992    1.000
    H10      H        0.87660    0.70360    0.04770    1.000
    C3       C        0.64877    0.80677    0.09694    1.000
    H11      H        0.70100    0.84310    0.04640    1.000
    O1       O        0.62528    0.82106    0.18941    1.000
    H12      H        0.64500    0.86920    0.18110    1.000
    C4       C        0.55466    0.84416    0.06724    1.000
    C5       C        0.46012    0.83674    0.13842    1.000
    H13      H        0.45250    0.81440    0.20640    1.000
    C6       C        0.37711    0.86226    0.10922    1.000
    H14      H        0.31290    0.85600    0.15840    1.000
    N1       N        0.38370    0.89580    0.01351    1.000
    C7       C        0.47440    0.90787    0.94562    1.000
    H15      H        0.47920    0.93440    0.87840    1.000
    C8       C        0.56148    0.88347    0.96880    1.000
    H16      H        0.62420    0.89340    0.91860    1.000
    C9       C        0.58585    0.46523    0.17095    1.000
    H17      H        0.56360    0.44420    0.24460    1.000
    O2       O        0.49950    0.52160    0.14690    1.000
    H18      H        0.44900    0.49960    0.18840    1.000
    C10      C        0.62638    0.37360    0.13629    1.000
    C11      C        0.61731    0.37261    0.05171    1.000
    H19      H        0.58920    0.43060    0.01150    1.000
    C12      C        0.64946    0.28638    0.02618    1.000
    H20      H        0.64230    0.28730    0.96810    1.000
    N2       N        0.68994    0.20209    0.07908    1.000
    C13      C        0.69995    0.20338    0.16029    1.000
    H21      H        0.73000    0.14470    0.19830    1.000
    C14      C        0.66840    0.28663    0.19132    1.000
    H22      H        0.67570    0.28380    0.25010    1.000
    O3       O        0.18301    0.83981    0.10824    1.000
    C15      C        0.10582    0.81473    0.12029    1.000
    O4       O        0.04271    0.86144    0.07678    1.000
    C16      C        0.08975    0.71873    0.19084    1.000
    C17      C        0.01405    0.68250    0.19749    1.000
    H23      H        0.96930    0.72070    0.16150    1.000
    C18      C        0.00328    0.59073    0.25645    1.000
    H24      H        0.95120    0.56660    0.26040    1.000
    C19      C        0.06856    0.53324    0.31020    1.000
    C20      C        0.14107    0.57252    0.30715    1.000
    H25      H        0.18290    0.53630    0.34650    1.000
    C21      C        0.15243    0.66388    0.24710    1.000
    H26      H        0.20310    0.68910    0.24430    1.000
    C22      C        0.06799    0.43000    0.35961    1.000
    C23      C        0.05661    0.37783    0.30960    1.000
    H27      H        0.04130    0.41080    0.25050    1.000
    C24      C        0.06743    0.27818    0.34538    1.000
    C25      C        0.08679    0.23148    0.43391    1.000
    H28      H        0.09380    0.16370    0.45900    1.000
    C26      C        0.09611    0.28184    0.48644    1.000
    C27      C        0.08744    0.38176    0.44828    1.000
    H29      H        0.09480    0.41680    0.48280    1.000
    C28      C        0.07001    0.22211    0.28435    1.000
    C29      C        0.00143    0.25354    0.23420    1.000
    H30      H        0.94900    0.31040    0.24160    1.000
    C30      C        0.00933    0.20217    0.17349    1.000
    H31      H        0.96060    0.22220    0.14200    1.000
    C31      C        0.08912    0.12094    0.15882    1.000
    C32      C        0.15753    0.08887    0.20886    1.000
    H32      H        0.21160    0.03350    0.19930    1.000
    C33      C        0.14659    0.13810    0.27290    1.000
    H33      H        0.19150    0.11440    0.30920    1.000
    C34      C        0.10471    0.06838    0.08710    1.000
    O5       O        0.02699    0.05857    0.08369    1.000
    O6       O        0.19627    0.03887    0.03741    1.000
    C35      C        0.12152    0.22621    0.57728    1.000
    C36      C        0.07580    0.15004    0.64202    1.000
    H34      H        0.02450    0.13860    0.63020    1.000
    C37      C        0.10429    0.09076    0.72357    1.000
    H35      H        0.07220    0.03960    0.76720    1.000
    C38      C        0.18028    0.10686    0.74082    1.000
    C39      C        0.22609    0.18326    0.67692    1.000
    H36      H        0.27780    0.19440    0.68850    1.000
    C40      C        0.19623    0.24270    0.59671    1.000
    H37      H        0.22670    0.29520    0.55440    1.000
    C41      C        0.21196    0.04063    0.82621    1.000
    O7       O        0.15347    0.98778    0.89536    1.000
    O8       O        0.29733    0.03210    0.82994    1.000
    H38      H        0.53270    0.50790    0.14080    1.000
    O9       O        0.53910    0.44810    0.27010    1.000
    H39      H        0.47720    0.45310    0.28420    1.000
    C42      C        0.33363    0.47658    0.86391    1.000
    Co2      Co       0.74532    0.07497    0.02360    1.000
    B11      B        0.35853    0.36097    0.93356    1.000
    H40      H        0.42620    0.32680    0.95820    1.000
    B12      B        0.25736    0.44905    0.98596    1.000
    H41      H        0.25800    0.47410    0.04450    1.000
    B13      B        0.20535    0.52992    0.89361    1.000
    H42      H        0.17140    0.60810    0.89170    1.000
    B14      B        0.27623    0.49144    0.78340    1.000
    H43      H        0.28930    0.54430    0.70890    1.000
    B15      B        0.37068    0.38580    0.80832    1.000
    H44      H        0.44600    0.36760    0.75070    1.000
    B16      B        0.23954    0.33315    0.00908    1.000
    H45      H        0.22840    0.27980    0.08320    1.000
    B17      B        0.14366    0.43793    0.98512    1.000
    H46      H        0.06860    0.45450    0.04380    1.000
    B18      B        0.15576    0.46515    0.85880    1.000
    H47      H        0.08820    0.50040    0.83390    1.000
    B19      B        0.25782    0.37618    0.80599    1.000
    H48      H        0.25810    0.35150    0.74680    1.000
    C43      C        0.30651    0.30274    0.89823    1.000
    B20      B        0.17638    0.34304    0.93008    1.000
    H49      H        0.12340    0.29640    0.95230    1.000
    C44      C        0.35123    0.19323    0.90306    1.000
    H50      H        0.29900    0.15690    0.95360    1.000
    O10      O        0.37472    0.17894    0.81059    1.000
    H51      H        0.35500    0.13080    0.81890    1.000
    C45      C        0.44534    0.15584    0.93276    1.000
    C46      C        0.53988    0.16326    0.86158    1.000
    H52      H        0.54750    0.18560    0.79360    1.000
    C47      C        0.62289    0.13774    0.89078    1.000
    H53      H        0.68710    0.14400    0.84160    1.000
    N3       N        0.61630    0.10420    0.98649    1.000
    C48      C        0.52560    0.09213    0.05438    1.000
    H54      H        0.52080    0.06560    0.12160    1.000
    C49      C        0.43852    0.11653    0.03120    1.000
    H55      H        0.37580    0.10660    0.08140    1.000
    C50      C        0.41415    0.53477    0.82905    1.000
    H56      H        0.43640    0.55580    0.75540    1.000
    O11      O        0.50050    0.47840    0.85310    1.000
    H57      H        0.55100    0.50040    0.81160    1.000
    C51      C        0.37362    0.62640    0.86371    1.000
    C52      C        0.38269    0.62739    0.94829    1.000
    H58      H        0.41080    0.56940    0.98850    1.000
    C53      C        0.35054    0.71362    0.97382    1.000
    H59      H        0.35770    0.71270    0.03190    1.000
    N4       N        0.31006    0.79791    0.92092    1.000
    C54      C        0.30005    0.79662    0.83971    1.000
    H60      H        0.27000    0.85530    0.80170    1.000
    C55      C        0.33160    0.71337    0.80868    1.000
    H61      H        0.32430    0.71620    0.74990    1.000
    O12      O        0.81699    0.16019    0.89176    1.000
    C56      C        0.89418    0.18527    0.87971    1.000
    O13      O        0.95729    0.13856    0.92322    1.000
    C57      C        0.91025    0.28127    0.80916    1.000
    C58      C        0.98595    0.31750    0.80251    1.000
    H62      H        0.03070    0.27930    0.83850    1.000
    C59      C        0.99672    0.40927    0.74355    1.000
    H63      H        0.04880    0.43340    0.73960    1.000
    C60      C        0.93144    0.46676    0.68980    1.000
    C61      C        0.85893    0.42748    0.69285    1.000
    H64      H        0.81710    0.46370    0.65350    1.000
    C62      C        0.84757    0.33612    0.75290    1.000
    H65      H        0.79690    0.31090    0.75570    1.000
    C63      C        0.93201    0.57000    0.64039    1.000
    C64      C        0.94339    0.62217    0.69040    1.000
    H66      H        0.95870    0.58920    0.74950    1.000
    C65      C        0.93257    0.72182    0.65462    1.000
    C66      C        0.91321    0.76852    0.56609    1.000
    H67      H        0.90620    0.83630    0.54100    1.000
    C67      C        0.90389    0.71816    0.51356    1.000
    C68      C        0.91256    0.61824    0.55172    1.000
    H68      H        0.90520    0.58320    0.51720    1.000
    C69      C        0.92999    0.77789    0.71565    1.000
    C70      C        0.99857    0.74646    0.76580    1.000
    H69      H        0.05100    0.68960    0.75840    1.000
    C71      C        0.99067    0.79783    0.82651    1.000
    H70      H        0.03940    0.77780    0.85800    1.000
    C72      C        0.91088    0.87906    0.84118    1.000
    C73      C        0.84247    0.91113    0.79114    1.000
    H71      H        0.78840    0.96650    0.80070    1.000
    C74      C        0.85341    0.86190    0.72710    1.000
    H72      H        0.80850    0.88560    0.69080    1.000
    C75      C        0.89529    0.93162    0.91290    1.000
    O14      O        0.97301    0.94143    0.91631    1.000
    O15      O        0.80373    0.96113    0.96259    1.000
    C76      C        0.87848    0.77379    0.42272    1.000
    C77      C        0.92420    0.84996    0.35798    1.000
    H73      H        0.97550    0.86140    0.36980    1.000
    C78      C        0.89571    0.90924    0.27643    1.000
    H74      H        0.92780    0.96040    0.23280    1.000
    C79      C        0.81972    0.89314    0.25918    1.000
    C80      C        0.77391    0.81674    0.32308    1.000
    H75      H        0.72220    0.80560    0.31150    1.000
    C81      C        0.80377    0.75730    0.40329    1.000
    H76      H        0.77330    0.70480    0.44560    1.000
    C82      C        0.78804    0.95937    0.17379    1.000
    O16      O        0.84653    0.01222    0.10464    1.000
    O17      O        0.70267    0.96790    0.17006    1.000
    H77      H        0.46730    0.49210    0.85920    1.000
    O18      O        0.46090    0.55190    0.72990    1.000
    H78      H        0.52280    0.54690    0.71580    1.000
    Co3      Co       0.00000    0.00000    0.00000    1.000
