# CIF file generated by openbabel 3.1.0, see https://openbabel.org
data_I
_chemical_name_common 'KALGEL_clean'
_cell_length_a 14.0495
_cell_length_b 14.0495
_cell_length_c 18.0525
_cell_angle_alpha 103.549
_cell_angle_beta 103.549
_cell_angle_gamma 113.449
_space_group_name_H-M_alt 'P 1'
_space_group_name_Hall 'P 1'
loop_
    _symmetry_equiv_pos_as_xyz
    x,y,z
loop_
    _atom_site_label
    _atom_site_type_symbol
    _atom_site_fract_x
    _atom_site_fract_y
    _atom_site_fract_z
    _atom_site_occupancy
    Ni1      Ni       0.60849    0.08909    0.97406    1.000
    Ni2      Ni       0.36557    0.88497    0.97406    1.000
    Ni3      Ni       0.83909    0.85849    0.47406    1.000
    Ni4      Ni       0.63497    0.61557    0.47406    1.000
    H1       H        0.52900    0.97900    0.06600    1.000
    H2       H        0.85570    0.22930    0.06540    1.000
    H3       H        0.01080    0.22400    0.13740    1.000
    H4       H        0.81330    0.89610    0.08840    1.000
    H5       H        0.66390    0.91490    0.01780    1.000
    H6       H        0.00950    0.97610    0.16480    1.000
    H7       H        0.07080    0.19340    0.27680    1.000
    H8       H        0.88950    0.08910    0.29660    1.000
    H9       H        0.79870    0.97970    0.36240    1.000
    H10      H        0.05460    0.93240    0.44280    1.000
    H11      H        0.14480    0.02800    0.36900    1.000
    H12      H        0.37410    0.61890    0.82160    1.000
    H13      H        0.34700    0.47900    0.70920    1.000
    H14      H        0.44790    0.51690    0.62520    1.000
    H15      H        0.59440    0.84760    0.76040    1.000
    H16      H        0.53700    0.08700    0.06600    1.000
    H17      H        0.20970    0.83610    0.06540    1.000
    H18      H        0.12660    0.91340    0.13740    1.000
    H19      H        0.27510    0.19230    0.08840    1.000
    H20      H        0.35390    0.10290    0.01780    1.000
    H21      H        0.15530    0.18870    0.16480    1.000
    H22      H        0.20600    0.08340    0.27680    1.000
    H23      H        0.40710    0.20750    0.29660    1.000
    H24      H        0.56370    0.38270    0.36240    1.000
    H25      H        0.38820    0.51040    0.44280    1.000
    H26      H        0.22420    0.34100    0.36900    1.000
    H27      H        0.44750    0.20270    0.82160    1.000
    H28      H        0.36220    0.23020    0.70920    1.000
    H29      H        0.17730    0.10830    0.62520    1.000
    H30      H        0.16600    0.91280    0.76040    1.000
    H31      H        0.72900    0.77900    0.56600    1.000
    H32      H        0.97930    0.10570    0.56540    1.000
    H33      H        0.97400    0.26080    0.63740    1.000
    H34      H        0.64610    0.06330    0.58840    1.000
    H35      H        0.66490    0.91390    0.51780    1.000
    H36      H        0.72610    0.25950    0.66480    1.000
    H37      H        0.94340    0.32080    0.77680    1.000
    H38      H        0.83910    0.13950    0.79660    1.000
    H39      H        0.72970    0.04870    0.86240    1.000
    H40      H        0.68240    0.30460    0.94280    1.000
    H41      H        0.77800    0.39480    0.86900    1.000
    H42      H        0.36890    0.62410    0.32160    1.000
    H43      H        0.22900    0.59700    0.20920    1.000
    H44      H        0.26690    0.69790    0.12520    1.000
    H45      H        0.59760    0.84440    0.26040    1.000
    H46      H        0.83700    0.78700    0.56600    1.000
    H47      H        0.58610    0.45970    0.56540    1.000
    H48      H        0.66340    0.37660    0.63740    1.000
    H49      H        0.94230    0.52510    0.58840    1.000
    H50      H        0.85290    0.60390    0.51780    1.000
    H51      H        0.93870    0.40530    0.66480    1.000
    H52      H        0.83340    0.45600    0.77680    1.000
    H53      H        0.95750    0.65710    0.79660    1.000
    H54      H        0.13270    0.81370    0.86240    1.000
    H55      H        0.26040    0.63820    0.94280    1.000
    H56      H        0.09100    0.47420    0.86900    1.000
    H57      H        0.95270    0.69750    0.32160    1.000
    H58      H        0.98020    0.61220    0.20920    1.000
    H59      H        0.85830    0.42730    0.12520    1.000
    H60      H        0.66280    0.41600    0.26040    1.000
    C1       C        0.84720    0.16160    0.07060    1.000
    C2       C        0.94070    0.15950    0.11380    1.000
    C3       C        0.92870    0.05890    0.12180    1.000
    C4       C        0.82410    0.96510    0.08500    1.000
    C5       C        0.73500    0.97800    0.04260    1.000
    C6       C        0.02810    0.05470    0.17380    1.000
    C7       C        0.07530    0.12330    0.26720    1.000
    C8       C        0.02530    0.06190    0.32040    1.000
    C9       C        0.92200    0.05280    0.32260    1.000
    C10      C        0.86930    0.98970    0.36360    1.000
    C11      C        0.01850    0.95970    0.40980    1.000
    C12      C        0.07390    0.01870    0.36620    1.000
    C13      C        0.48120    0.74820    0.80020    1.000
    C14      C        0.41160    0.63700    0.78600    1.000
    C15      C        0.39760    0.55320    0.71980    1.000
    C16      C        0.45590    0.57530    0.66860    1.000
    C17      C        0.52910    0.68930    0.68320    1.000
    C18      C        0.54330    0.77310    0.74900    1.000
    C19      C        0.49300    0.84160    0.87120    1.000
    C20      C        0.59470    0.71510    0.62680    1.000
    C21      C        0.22340    0.90900    0.07060    1.000
    C22      C        0.17310    0.95430    0.11380    1.000
    C23      C        0.19310    0.06290    0.12180    1.000
    C24      C        0.26090    0.11990    0.08500    1.000
    C25      C        0.30760    0.06460    0.04260    1.000
    C26      C        0.14570    0.11910    0.17380    1.000
    C27      C        0.19190    0.14390    0.26720    1.000
    C28      C        0.29510    0.25850    0.32040    1.000
    C29      C        0.40060    0.26980    0.32260    1.000
    C30      C        0.49430    0.37390    0.36360    1.000
    C31      C        0.39130    0.45010    0.40980    1.000
    C32      C        0.29230    0.34750    0.36620    1.000
    C33      C        0.31900    0.05200    0.80020    1.000
    C34      C        0.37440    0.14900    0.78600    1.000
    C35      C        0.32220    0.16660    0.71980    1.000
    C36      C        0.21270    0.09330    0.66860    1.000
    C37      C        0.15410    0.99390    0.68320    1.000
    C38      C        0.20570    0.97590    0.74900    1.000
    C39      C        0.37820    0.02960    0.87120    1.000
    C40      C        0.03210    0.91170    0.62680    1.000
    C41      C        0.91160    0.09720    0.57060    1.000
    C42      C        0.90950    0.19070    0.61380    1.000
    C43      C        0.80890    0.17870    0.62180    1.000
    C44      C        0.71510    0.07410    0.58500    1.000
    C45      C        0.72800    0.98500    0.54260    1.000
    C46      C        0.80470    0.27810    0.67380    1.000
    C47      C        0.87330    0.32530    0.76720    1.000
    C48      C        0.81190    0.27530    0.82040    1.000
    C49      C        0.80280    0.17200    0.82260    1.000
    C50      C        0.73970    0.11930    0.86360    1.000
    C51      C        0.70970    0.26850    0.90980    1.000
    C52      C        0.76870    0.32390    0.86620    1.000
    C53      C        0.49820    0.73120    0.30020    1.000
    C54      C        0.38700    0.66160    0.28600    1.000
    C55      C        0.30320    0.64760    0.21980    1.000
    C56      C        0.32530    0.70590    0.16860    1.000
    C57      C        0.43930    0.77910    0.18320    1.000
    C58      C        0.52310    0.79330    0.24900    1.000
    C59      C        0.59160    0.74300    0.37120    1.000
    C60      C        0.46510    0.84470    0.12680    1.000
    C61      C        0.65900    0.47340    0.57060    1.000
    C62      C        0.70430    0.42310    0.61380    1.000
    C63      C        0.81290    0.44310    0.62180    1.000
    C64      C        0.86990    0.51090    0.58500    1.000
    C65      C        0.81460    0.55760    0.54260    1.000
    C66      C        0.86910    0.39570    0.67380    1.000
    C67      C        0.89390    0.44190    0.76720    1.000
    C68      C        0.00850    0.54510    0.82040    1.000
    C69      C        0.01980    0.65060    0.82260    1.000
    C70      C        0.12390    0.74430    0.86360    1.000
    C71      C        0.20010    0.64130    0.90980    1.000
    C72      C        0.09750    0.54230    0.86620    1.000
    C73      C        0.80200    0.56900    0.30020    1.000
    C74      C        0.89900    0.62440    0.28600    1.000
    C75      C        0.91660    0.57220    0.21980    1.000
    C76      C        0.84330    0.46270    0.16860    1.000
    C77      C        0.74390    0.40410    0.18320    1.000
    C78      C        0.72590    0.45570    0.24900    1.000
    C79      C        0.77960    0.62820    0.37120    1.000
    C80      C        0.66170    0.28210    0.12680    1.000
    N1       N        0.74430    0.07330    0.03500    1.000
    N2       N        0.91800    0.94180    0.40540    1.000
    N3       N        0.29070    0.96170    0.03500    1.000
    N4       N        0.48740    0.46360    0.40540    1.000
    N5       N        0.82330    0.99430    0.53500    1.000
    N6       N        0.69180    0.16800    0.90540    1.000
    N7       N        0.71170    0.54070    0.53500    1.000
    N8       N        0.21360    0.73740    0.90540    1.000
    O1       O        0.55286    0.94046    0.88052    1.000
    O2       O        0.44193    0.80953    0.91806    1.000
    O3       O        0.66940    0.81140    0.64460    1.000
    O4       O        0.56459    0.63099    0.56138    1.000
    O5       O        0.32766    0.94006    0.88052    1.000
    O6       O        0.47613    0.10853    0.91806    1.000
    O7       O        0.97520    0.83320    0.64460    1.000
    O8       O        0.99679    0.93039    0.56138    1.000
    O9       O        0.69046    0.80286    0.38052    1.000
    O10      O        0.55953    0.69193    0.41806    1.000
    O11      O        0.56140    0.91940    0.14460    1.000
    O12      O        0.38099    0.81459    0.06138    1.000
    O13      O        0.69006    0.57766    0.38052    1.000
    O14      O        0.85853    0.72613    0.41806    1.000
    O15      O        0.58320    0.22520    0.14460    1.000
    O16      O        0.68039    0.24679    0.06138    1.000
    O17      O        0.52330    0.02330    0.04660    1.000
    O18      O        0.77330    0.77330    0.54660    1.000
