# CIF file generated by openbabel 3.1.0, see https://openbabel.org
data_I
_chemical_name_common 'image0'
_cell_length_a 8.3343
_cell_length_b 11.753
_cell_length_c 8.9111
_cell_angle_alpha 90
_cell_angle_beta 90
_cell_angle_gamma 90
_space_group_name_H-M_alt 'P 1'
_space_group_name_Hall 'P 1'
loop_
    _symmetry_equiv_pos_as_xyz
    x,y,z
loop_
    _atom_site_label
    _atom_site_type_symbol
    _atom_site_fract_x
    _atom_site_fract_y
    _atom_site_fract_z
    _atom_site_occupancy
    O1       O        0.25671    0.40566    0.36555    1.000
    O2       O        0.40688    0.18273    0.41332    1.000
    O3       O        0.56460    0.19227    0.61190    1.000
    C1       C        0.52340    0.22225    0.48350    1.000
    H1       H        0.58410    0.27830    0.43660    1.000
    O4       O        0.24329    0.59434    0.36555    1.000
    O5       O        0.09312    0.81727    0.41332    1.000
    O6       O        0.93540    0.80773    0.61190    1.000
    C2       C        0.97660    0.77775    0.48350    1.000
    H2       H        0.91590    0.72170    0.43660    1.000
    O7       O        0.24329    0.90566    0.13445    1.000
    O8       O        0.09312    0.68273    0.08668    1.000
    O9       O        0.93540    0.69227    0.88810    1.000
    C3       C        0.97660    0.72225    0.01650    1.000
    H3       H        0.91590    0.77830    0.06340    1.000
    O10      O        0.25671    0.09434    0.13445    1.000
    O11      O        0.40688    0.31727    0.08668    1.000
    O12      O        0.56460    0.30773    0.88810    1.000
    C4       C        0.52340    0.27775    0.01650    1.000
    H4       H        0.58410    0.22170    0.06340    1.000
    O13      O        0.74329    0.59434    0.63445    1.000
    O14      O        0.59312    0.81727    0.58668    1.000
    O15      O        0.43540    0.80773    0.38810    1.000
    C5       C        0.47660    0.77775    0.51650    1.000
    H5       H        0.41590    0.72170    0.56340    1.000
    O16      O        0.75671    0.40566    0.63445    1.000
    O17      O        0.90688    0.18273    0.58668    1.000
    O18      O        0.06460    0.19227    0.38810    1.000
    C6       C        0.02340    0.22225    0.51650    1.000
    H6       H        0.08410    0.27830    0.56340    1.000
    O19      O        0.75671    0.09434    0.86555    1.000
    O20      O        0.90688    0.31727    0.91332    1.000
    O21      O        0.06460    0.30773    0.11190    1.000
    C7       C        0.02340    0.27775    0.98350    1.000
    H7       H        0.08410    0.22170    0.93660    1.000
    O22      O        0.74329    0.90566    0.86555    1.000
    O23      O        0.59312    0.68273    0.91332    1.000
    O24      O        0.43540    0.69227    0.11190    1.000
    C8       C        0.47660    0.72225    0.98350    1.000
    H8       H        0.41590    0.77830    0.93660    1.000
    Co1      Co       0.25371    0.25000    0.25000    1.000
    Co2      Co       0.24629    0.75000    0.25000    1.000
    Co3      Co       0.74629    0.75000    0.75000    1.000
    Co4      Co       0.75371    0.25000    0.75000    1.000
    C9       C        0.25000    0.50000    0.30300    1.000
    H9       H        0.25000    0.50000    0.19860    1.000
    C10      C        0.25000    0.00000    0.19700    1.000
    H10      H        0.25000    0.00000    0.30140    1.000
    C11      C        0.75000    0.50000    0.69700    1.000
    H11      H        0.75000    0.50000    0.80140    1.000
    C12      C        0.75000    0.00000    0.80300    1.000
    H12      H        0.75000    0.00000    0.69860    1.000
