data_functionalizedCrystal
_audit_creation_method	'EQeq! by Chris Wilmer'
_symmetry_space_group_name_H-M	'P1'
_symmetry_Int_Tables_number	1
_symmetry_cell_setting	triclinic
loop_
_symmetry_equiv_pos_as_xyz
  x,y,z
_cell_length_a	10.92
_cell_length_b	19.792
_cell_length_c	20.369
_cell_angle_alpha	90
_cell_angle_beta	90
_cell_angle_gamma	99.59
loop_
_atom_site_label
_atom_site_type_symbol
_atom_site_fract_x
_atom_site_fract_y
_atom_site_fract_z
_atom_site_charge
Mof_Pr	Pr	0.46276	0.65484	0.87247	1.994
Mof_Pr	Pr	0.66062	0.41876	0.62635	1.571
Mof_Pr	Pr	0.03724	0.84516	0.37247	1.981
Mof_Pr	Pr	0.83938	0.08124	0.12635	1.568
Mof_Pr	Pr	0.53724	0.34516	0.12753	1.995
Mof_Pr	Pr	0.33938	0.58124	0.37365	1.572
Mof_Pr	Pr	0.96276	0.15484	0.62753	1.981
Mof_Pr	Pr	0.16062	0.91876	0.87365	1.568
Mof_Cu	Cu	0.42145	0.66975	0.67338	0.878
Mof_Cu	Cu	0.70493	0.41089	0.8269	0.917
Mof_Cu	Cu	0.07855	0.83025	0.17338	0.876
Mof_Cu	Cu	0.79507	0.08911	0.3269	0.916
Mof_Cu	Cu	0.57855	0.33025	0.32662	0.878
Mof_Cu	Cu	0.29507	0.58911	0.1731	0.917
Mof_Cu	Cu	0.92145	0.16975	0.82662	0.876
Mof_Cu	Cu	0.20493	0.91089	0.6731	0.916
Mof_H 	H 	0.2324	0.3254	0.6815	0.021
Mof_H 	H 	0.1312	0.5059	0.8036	0.038
Mof_H 	H 	0.0828	0.4353	0.0777	0.057
Mof_H 	H 	0.8936	0.7539	0.8114	0.033
Mof_H 	H 	0.9887	0.5733	0.6877	0.006
Mof_H 	H 	0.2676	0.1746	0.1815	0.02
Mof_H 	H 	0.3688	0.9941	0.3036	0.037
Mof_H 	H 	0.4172	0.0647	0.5777	0.057
Mof_H 	H 	0.6064	0.7461	0.3114	0.034
Mof_H 	H 	0.5113	0.9267	0.1877	0.006
Mof_H 	H 	0.7676	0.6746	0.3185	0.021
Mof_H 	H 	0.8688	0.4941	0.1964	0.038
Mof_H 	H 	0.9172	0.5647	0.9223	0.057
Mof_H 	H 	0.1064	0.2461	0.1886	0.033
Mof_H 	H 	0.0113	0.4267	0.3123	0.006
Mof_H 	H 	0.7324	0.8254	0.8185	0.02
Mof_H 	H 	0.6312	0.0059	0.6964	0.037
Mof_H 	H 	0.5828	0.9353	0.4223	0.057
Mof_H 	H 	0.3936	0.2539	0.6886	0.034
Mof_H 	H 	0.4887	0.0733	0.8123	0.006
Mof_C 	C 	0.2559	0.48002	0.73933	-0.1
Mof_C 	C 	0.2879	0.42505	0.70335	-0.058
Mof_C 	C 	0.2139	0.36119	0.70712	0.006
Mof_C 	C 	0.1118	0.35026	0.74914	-0.12
Mof_C 	C 	0.0798	0.40463	0.78532	-0.04
Mof_C 	C 	0.1524	0.46946	0.7798	0.001
Mof_C 	C 	0.3266	0.55121	0.73213	0.437
Mof_C 	C 	0.4104	0.43049	0.6687	0.306
Mof_C 	C 	0.0445	0.27885	0.7586	0.429
Mof_C 	C 	0.9656	0.39507	0.82831	0.324
Mof_C 	C 	0.127	0.51262	0.01263	-0.033
Mof_C 	C 	0.0773	0.5511	0.96576	-0.061
Mof_C 	C 	0.0494	0.46142	0.04653	0.004
Mof_C 	C 	0.2622	0.52339	0.03017	0.315
Mof_C 	C 	0.1576	0.6042	0.9253	0.379
Mof_C 	C 	0.0442	0.67387	0.70737	-0.07
Mof_C 	C 	0.0145	0.72886	0.74385	-0.083
Mof_C 	C 	0.9121	0.7179	0.786	-0.001
Mof_C 	C 	0.8374	0.65409	0.79044	-0.032
Mof_C 	C 	0.8671	0.59955	0.75304	-0.106
Mof_C 	C 	0.9694	0.60974	0.71225	0.022
Mof_C 	C 	0.0835	0.79996	0.73419	0.384
Mof_C 	C 	0.7165	0.64676	0.82807	0.32
Mof_C 	C 	0.7982	0.52756	0.76004	0.426
Mof_C 	C 	0.1599	0.67771	0.66653	0.347
Mof_C 	C 	0.2441	0.01998	0.23933	-0.096
Mof_C 	C 	0.2121	0.07495	0.20335	-0.06
Mof_C 	C 	0.2861	0.13881	0.20712	0.008
Mof_C 	C 	0.3882	0.14974	0.24914	-0.121
Mof_C 	C 	0.4202	0.09537	0.28532	-0.043
Mof_C 	C 	0.3476	0.03054	0.2798	0.003
Mof_C 	C 	0.1734	0.94879	0.23213	0.433
Mof_C 	C 	0.0896	0.06951	0.1687	0.312
Mof_C 	C 	0.4555	0.22115	0.2586	0.43
Mof_C 	C 	0.5344	0.10493	0.32831	0.327
Mof_C 	C 	0.373	0.98738	0.51263	-0.032
Mof_C 	C 	0.4227	0.9489	0.46576	-0.063
Mof_C 	C 	0.4506	0.03858	0.54653	0.007
Mof_C 	C 	0.2378	0.97661	0.53017	0.31
Mof_C 	C 	0.3424	0.8958	0.4253	0.379
Mof_C 	C 	0.4558	0.82613	0.20737	-0.07
Mof_C 	C 	0.4855	0.77114	0.24385	-0.08
Mof_C 	C 	0.5879	0.7821	0.286	-0.005
Mof_C 	C 	0.6626	0.84591	0.29044	-0.03
Mof_C 	C 	0.6329	0.90045	0.25304	-0.107
Mof_C 	C 	0.5306	0.89026	0.21225	0.022
Mof_C 	C 	0.4165	0.70004	0.23419	0.384
Mof_C 	C 	0.7835	0.85324	0.32807	0.319
Mof_C 	C 	0.7018	0.97244	0.26004	0.431
Mof_C 	C 	0.3401	0.82229	0.16653	0.348
Mof_C 	C 	0.7441	0.51998	0.26067	-0.1
Mof_C 	C 	0.7121	0.57495	0.29665	-0.058
Mof_C 	C 	0.7861	0.63881	0.29288	0.006
Mof_C 	C 	0.8882	0.64974	0.25086	-0.12
Mof_C 	C 	0.9202	0.59537	0.21468	-0.04
Mof_C 	C 	0.8476	0.53054	0.2202	0.001
Mof_C 	C 	0.6734	0.44879	0.26787	0.437
Mof_C 	C 	0.5896	0.56951	0.3313	0.306
Mof_C 	C 	0.9555	0.72115	0.2414	0.429
Mof_C 	C 	0.0344	0.60493	0.17169	0.324
Mof_C 	C 	0.873	0.48738	0.98737	-0.033
Mof_C 	C 	0.9227	0.4489	0.03424	-0.061
Mof_C 	C 	0.9506	0.53858	0.95347	0.004
Mof_C 	C 	0.7378	0.47661	0.96983	0.315
Mof_C 	C 	0.8424	0.3958	0.0747	0.379
Mof_C 	C 	0.9558	0.32613	0.29263	-0.07
Mof_C 	C 	0.9855	0.27114	0.25615	-0.083
Mof_C 	C 	0.0879	0.2821	0.214	-0.001
Mof_C 	C 	0.1626	0.34591	0.20956	-0.032
Mof_C 	C 	0.1329	0.40045	0.24696	-0.106
Mof_C 	C 	0.0306	0.39026	0.28775	0.022
Mof_C 	C 	0.9165	0.20004	0.26581	0.384
Mof_C 	C 	0.2835	0.35324	0.17193	0.32
Mof_C 	C 	0.2018	0.47244	0.23996	0.426
Mof_C 	C 	0.8401	0.32229	0.33347	0.347
Mof_C 	C 	0.7559	0.98002	0.76067	-0.096
Mof_C 	C 	0.7879	0.92505	0.79665	-0.06
Mof_C 	C 	0.7139	0.86119	0.79288	0.008
Mof_C 	C 	0.6118	0.85026	0.75086	-0.121
Mof_C 	C 	0.5798	0.90463	0.71468	-0.043
Mof_C 	C 	0.6524	0.96946	0.7202	0.003
Mof_C 	C 	0.8266	0.05121	0.76787	0.433
Mof_C 	C 	0.9104	0.93049	0.8313	0.312
Mof_C 	C 	0.5445	0.77885	0.7414	0.43
Mof_C 	C 	0.4656	0.89507	0.67169	0.327
Mof_C 	C 	0.627	0.01262	0.48737	-0.032
Mof_C 	C 	0.5773	0.0511	0.53424	-0.063
Mof_C 	C 	0.5494	0.96142	0.45347	0.007
Mof_C 	C 	0.7622	0.02339	0.46983	0.31
Mof_C 	C 	0.6576	0.1042	0.5747	0.379
Mof_C 	C 	0.5442	0.17387	0.79263	-0.07
Mof_C 	C 	0.5145	0.22886	0.75615	-0.08
Mof_C 	C 	0.4121	0.2179	0.714	-0.005
Mof_C 	C 	0.3374	0.15409	0.70956	-0.03
Mof_C 	C 	0.3671	0.09955	0.74696	-0.107
Mof_C 	C 	0.4694	0.10974	0.78775	0.022
Mof_C 	C 	0.5835	0.29996	0.76581	0.384
Mof_C 	C 	0.2165	0.14676	0.67193	0.319
Mof_C 	C 	0.2982	0.02756	0.73996	0.431
Mof_C 	C 	0.6599	0.17771	0.83347	0.348
Mof_O 	O 	0.3607	0.5856	0.7821	-0.538
Mof_O 	O 	0.343	0.57359	0.67417	-0.461
Mof_O 	O 	0.5032	0.46838	0.69414	-0.414
Mof_O 	O 	0.4211	0.39481	0.61869	-0.452
Mof_O 	O 	0.038	0.23777	0.71161	-0.573
Mof_O 	O 	0.0019	0.26385	0.81471	-0.441
Mof_O 	O 	0.8638	0.38669	0.79559	-0.384
Mof_O 	O 	0.9755	0.39822	0.8878	-0.264
Mof_O 	O 	0.3083	0.5748	0.06429	-0.357
Mof_O 	O 	0.3236	0.47831	0.01061	-0.285
Mof_O 	O 	0.2738	0.6036	0.92495	-0.532
Mof_O 	O 	0.107	0.6457	0.8927	-0.322
Mof_O 	O 	0.2608	0.69632	0.69737	-0.396
Mof_O 	O 	0.1514	0.65907	0.60862	-0.344
Mof_O 	O 	0.1254	0.81496	0.67749	-0.412
Mof_O 	O 	0.0924	0.84136	0.78115	-0.507
Mof_O 	O 	0.7078	0.6776	0.88029	-0.437
Mof_O 	O 	0.6228	0.61105	0.8005	-0.432
Mof_O 	O 	0.7707	0.49272	0.70909	-0.536
Mof_O 	O 	0.7782	0.5065	0.81769	-0.419
Mof_O 	O 	0.1393	0.9144	0.2821	-0.537
Mof_O 	O 	0.157	0.92641	0.17417	-0.462
Mof_O 	O 	0.9968	0.03162	0.19414	-0.419
Mof_O 	O 	0.0789	0.10519	0.11869	-0.452
Mof_O 	O 	0.462	0.26223	0.21161	-0.577
Mof_O 	O 	0.4981	0.23615	0.31471	-0.444
Mof_O 	O 	0.6362	0.11331	0.29559	-0.385
Mof_O 	O 	0.5245	0.10178	0.3878	-0.263
Mof_O 	O 	0.1917	0.9252	0.56429	-0.357
Mof_O 	O 	0.1764	0.02169	0.51061	-0.28
Mof_O 	O 	0.2262	0.8964	0.42495	-0.531
Mof_O 	O 	0.393	0.8543	0.3927	-0.322
Mof_O 	O 	0.2392	0.80368	0.19737	-0.397
Mof_O 	O 	0.3486	0.84093	0.10862	-0.344
Mof_O 	O 	0.3746	0.68504	0.17749	-0.411
Mof_O 	O 	0.4076	0.65864	0.28115	-0.506
Mof_O 	O 	0.7922	0.8224	0.38029	-0.435
Mof_O 	O 	0.8772	0.88895	0.3005	-0.428
Mof_O 	O 	0.7293	0.00728	0.20909	-0.539
Mof_O 	O 	0.7218	0.9935	0.31769	-0.418
Mof_O 	O 	0.6393	0.4144	0.2179	-0.538
Mof_O 	O 	0.657	0.42641	0.32583	-0.461
Mof_O 	O 	0.4968	0.53162	0.30586	-0.414
Mof_O 	O 	0.5789	0.60519	0.38131	-0.452
Mof_O 	O 	0.962	0.76223	0.28839	-0.573
Mof_O 	O 	0.9981	0.73615	0.18529	-0.441
Mof_O 	O 	0.1362	0.61331	0.20441	-0.384
Mof_O 	O 	0.0245	0.60178	0.1122	-0.264
Mof_O 	O 	0.6917	0.4252	0.93571	-0.357
Mof_O 	O 	0.6764	0.52169	0.98939	-0.285
Mof_O 	O 	0.7262	0.3964	0.07505	-0.532
Mof_O 	O 	0.893	0.3543	0.1073	-0.322
Mof_O 	O 	0.7392	0.30368	0.30263	-0.396
Mof_O 	O 	0.8486	0.34093	0.39138	-0.344
Mof_O 	O 	0.8746	0.18504	0.32251	-0.412
Mof_O 	O 	0.9076	0.15864	0.21885	-0.507
Mof_O 	O 	0.2922	0.3224	0.11971	-0.437
Mof_O 	O 	0.3772	0.38895	0.1995	-0.432
Mof_O 	O 	0.2293	0.50728	0.29091	-0.536
Mof_O 	O 	0.2218	0.4935	0.18231	-0.419
Mof_O 	O 	0.8607	0.0856	0.7179	-0.537
Mof_O 	O 	0.843	0.07359	0.82583	-0.462
Mof_O 	O 	0.0032	0.96838	0.80586	-0.419
Mof_O 	O 	0.9211	0.89481	0.88131	-0.452
Mof_O 	O 	0.538	0.73777	0.78839	-0.577
Mof_O 	O 	0.5019	0.76385	0.68529	-0.444
Mof_O 	O 	0.3638	0.88669	0.70441	-0.385
Mof_O 	O 	0.4755	0.89822	0.6122	-0.263
Mof_O 	O 	0.8083	0.0748	0.43571	-0.357
Mof_O 	O 	0.8236	0.97831	0.48939	-0.28
Mof_O 	O 	0.7738	0.1036	0.57505	-0.531
Mof_O 	O 	0.607	0.1457	0.6073	-0.322
Mof_O 	O 	0.7608	0.19632	0.80263	-0.397
Mof_O 	O 	0.6514	0.15907	0.89138	-0.344
Mof_O 	O 	0.6254	0.31496	0.82251	-0.411
Mof_O 	O 	0.5924	0.34136	0.71885	-0.506
Mof_O 	O 	0.2078	0.1776	0.61971	-0.435
Mof_O 	O 	0.1228	0.11105	0.6995	-0.428
Mof_O 	O 	0.2707	0.99272	0.79091	-0.539
Mof_O 	O 	0.2782	0.0065	0.68231	-0.418
_end
