data_functionalizedCrystal
_audit_creation_method	'EQeq! by Chris Wilmer'
_symmetry_space_group_name_H-M	'P1'
_symmetry_Int_Tables_number	1
_symmetry_cell_setting	triclinic
loop_
_symmetry_equiv_pos_as_xyz
  x,y,z
_cell_length_a	37.4822
_cell_length_b	37.4822
_cell_length_c	17.2024
_cell_angle_alpha	90
_cell_angle_beta	90
_cell_angle_gamma	120
loop_
_atom_site_label
_atom_site_type_symbol
_atom_site_fract_x
_atom_site_fract_y
_atom_site_fract_z
_atom_site_charge
Mof_Ni	Ni	0.50708	0.30913	0.81054	1.055
Mof_Ni	Ni	0.43149	0.43934	0.51966	1.082
Mof_O 	O 	0.52342	0.34607	0.71266	-0.422
Mof_O 	O 	0.53769	0.31242	0.6227	-0.283
Mof_O 	O 	0.61591	0.39328	0.72227	-0.292
Mof_O 	O 	0.61005	0.44807	0.75486	-0.43
Mof_O 	O 	0.59982	0.52678	0.46543	-0.378
Mof_O 	O 	0.54657	0.50484	0.54239	-0.387
Mof_O 	O 	0.51327	0.4471	0.39996	-0.282
Mof_O 	O 	0.4709	0.41776	0.50098	-0.419
Mof_N 	N 	0.44548	0.27355	0.7769	-0.238
Mof_N 	N 	0.19003	0.16971	0.5344	-0.236
Mof_N 	N 	0.39483	0.40882	0.4255	-0.236
Mof_N 	N 	0.27118	0.33844	0.9362	-0.246
Mof_C 	C 	0.55461	0.38144	0.594	-0.127
Mof_H 	H 	0.5641	0.3741	0.5453	0.08
Mof_C 	C 	0.59163	0.42211	0.6259	-0.114
Mof_H 	H 	0.6155	0.4287	0.5909	0.07
Mof_C 	C 	0.51947	0.39022	0.5708	0.052
Mof_H 	H 	0.4939	0.3641	0.5565	0.023
Mof_C 	C 	0.53571	0.41984	0.5007	-0.13
Mof_H 	H 	0.5442	0.4065	0.46	0.077
Mof_C 	C 	0.57549	0.46051	0.5265	-0.118
Mof_H 	H 	0.5996	0.4624	0.4979	0.077
Mof_C 	C 	0.58207	0.45739	0.6155	0.039
Mof_H 	H 	0.6054	0.4839	0.6353	0.028
Mof_C 	C 	0.51109	0.41153	0.6364	-0.045
Mof_H 	H 	0.4847	0.4006	0.6599	0.049
Mof_C 	C 	0.54311	0.44648	0.6588	-0.033
Mof_H 	H 	0.5417	0.4633	0.6986	0.05
Mof_C 	C 	0.538	0.34404	0.6484	0.349
Mof_C 	C 	0.606	0.42039	0.7082	0.332
Mof_C 	C 	0.50394	0.42897	0.464	0.354
Mof_C 	C 	0.5736	0.49921	0.5106	0.308
Mof_C 	C 	0.43618	0.26351	0.7017	0.073
Mof_H 	H 	0.4581	0.2729	0.6652	-0.001
Mof_C 	C 	0.39634	0.24016	0.6751	-0.15
Mof_H 	H 	0.3913	0.2342	0.6212	0.079
Mof_C 	C 	0.36326	0.22515	0.7269	0.1
Mof_C 	C 	0.37286	0.23328	0.8058	-0.154
Mof_H 	H 	0.3516	0.2222	0.8438	0.08
Mof_C 	C 	0.41373	0.25774	0.8284	0.078
Mof_H 	H 	0.4197	0.2637	0.8821	0.002
Mof_C 	C 	0.31994	0.20474	0.7019	-0.086
Mof_H 	H 	0.2993	0.1945	0.7411	0.055
Mof_C 	C 	0.3075	0.19953	0.6279	-0.083
Mof_H 	H 	0.328	0.2053	0.5897	0.055
Mof_C 	C 	0.26575	0.18586	0.5986	0.103
Mof_C 	C 	0.26062	0.18874	0.5189	-0.151
Mof_H 	H 	0.2831	0.1961	0.4845	0.079
Mof_C 	C 	0.22317	0.18102	0.4899	0.08
Mof_H 	H 	0.2208	0.1839	0.4356	0.003
Mof_C 	C 	0.19402	0.16515	0.6106	0.08
Mof_H 	H 	0.1705	0.1563	0.6429	-0.005
Mof_C 	C 	0.23072	0.17271	0.6447	-0.155
Mof_H 	H 	0.232	0.1689	0.699	0.083
Mof_C 	C 	0.35525	0.39819	0.4227	0.093
Mof_H 	H 	0.3426	0.4008	0.4685	-0.008
Mof_C 	C 	0.33172	0.38346	0.3558	-0.159
Mof_H 	H 	0.3035	0.3761	0.3563	0.086
Mof_C 	C 	0.34956	0.3794	0.2878	0.111
Mof_C 	C 	0.39117	0.39021	0.2916	-0.148
Mof_H 	H 	0.4046	0.3875	0.247	0.081
Mof_C 	C 	0.41252	0.40486	0.3609	0.079
Mof_H 	H 	0.4408	0.4124	0.3627	0.011
Mof_C 	C 	0.32581	0.36499	0.2162	-0.083
Mof_H 	H 	0.297	0.3469	0.2205	0.059
Mof_C 	C 	0.34177	0.37546	0.1446	-0.084
Mof_H 	H 	0.3707	0.3929	0.1401	0.06
Mof_C 	C 	0.31758	0.36179	0.0729	0.108
Mof_C 	C 	0.33033	0.38713	0.0064	-0.162
Mof_H 	H 	0.3554	0.4127	0.0071	0.086
Mof_C 	C 	0.30631	0.37459	0.9404	0.088
Mof_H 	H 	0.315	0.3922	0.8963	-0.005
Mof_C 	C 	0.25981	0.31323	0.9986	0.069
Mof_H 	H 	0.2356	0.287	0.995	-0
Mof_C 	C 	0.28176	0.32387	0.0671	-0.15
Mof_H 	H 	0.2725	0.3054	0.11	0.081
Mof_Ni	Ni	0.17375	0.64246	0.14387	1.056
Mof_Ni	Ni	0.09816	0.77267	0.85299	1.083
Mof_O 	O 	0.19009	0.6794	0.04599	-0.42
Mof_O 	O 	0.20436	0.64575	0.95603	-0.282
Mof_O 	O 	0.28258	0.72661	0.0556	-0.291
Mof_O 	O 	0.27672	0.7814	0.08819	-0.429
Mof_O 	O 	0.26649	0.86011	0.79876	-0.377
Mof_O 	O 	0.21324	0.83817	0.87572	-0.386
Mof_O 	O 	0.17994	0.78043	0.73329	-0.281
Mof_O 	O 	0.13757	0.75109	0.83431	-0.418
Mof_N 	N 	0.11215	0.60688	0.11023	-0.237
Mof_N 	N 	0.8567	0.50304	0.86773	-0.235
Mof_N 	N 	0.0615	0.74215	0.75883	-0.236
Mof_N 	N 	0.93785	0.67177	0.26953	-0.246
Mof_C 	C 	0.22128	0.71477	0.92733	-0.127
Mof_H 	H 	0.23077	0.70743	0.87863	0.08
Mof_C 	C 	0.2583	0.75544	0.95923	-0.115
Mof_H 	H 	0.28217	0.76203	0.92423	0.07
Mof_C 	C 	0.18614	0.72355	0.90413	0.051
Mof_H 	H 	0.16057	0.69743	0.88983	0.023
Mof_C 	C 	0.20238	0.75317	0.83403	-0.13
Mof_H 	H 	0.21087	0.73983	0.79333	0.077
Mof_C 	C 	0.24216	0.79384	0.85983	-0.118
Mof_H 	H 	0.26627	0.79573	0.83123	0.077
Mof_C 	C 	0.24874	0.79072	0.94883	0.04
Mof_H 	H 	0.27207	0.81723	0.96863	0.028
Mof_C 	C 	0.17776	0.74486	0.96973	-0.044
Mof_H 	H 	0.15137	0.73393	0.99323	0.049
Mof_C 	C 	0.20978	0.77981	0.99213	-0.034
Mof_H 	H 	0.20837	0.79663	0.03193	0.05
Mof_C 	C 	0.20467	0.67737	0.98173	0.349
Mof_C 	C 	0.27267	0.75372	0.04153	0.333
Mof_C 	C 	0.17061	0.7623	0.79733	0.354
Mof_C 	C 	0.24027	0.83254	0.84393	0.308
Mof_C 	C 	0.10285	0.59684	0.03503	0.074
Mof_H 	H 	0.12477	0.60623	0.99853	-0.002
Mof_C 	C 	0.06301	0.57349	0.00843	-0.15
Mof_H 	H 	0.05797	0.56753	0.95453	0.079
Mof_C 	C 	0.02993	0.55848	0.06023	0.1
Mof_C 	C 	0.03953	0.56661	0.13913	-0.154
Mof_H 	H 	0.01827	0.55553	0.17713	0.08
Mof_C 	C 	0.0804	0.59107	0.16173	0.078
Mof_H 	H 	0.08637	0.59703	0.21543	0.002
Mof_C 	C 	0.98661	0.53807	0.03523	-0.086
Mof_H 	H 	0.96597	0.52783	0.07443	0.055
Mof_C 	C 	0.97417	0.53286	0.96123	-0.082
Mof_H 	H 	0.99467	0.53863	0.92303	0.055
Mof_C 	C 	0.93242	0.51919	0.93193	0.102
Mof_C 	C 	0.92729	0.52207	0.85223	-0.151
Mof_H 	H 	0.94977	0.52943	0.81783	0.079
Mof_C 	C 	0.88984	0.51435	0.82323	0.08
Mof_H 	H 	0.88747	0.51723	0.76893	0.003
Mof_C 	C 	0.86069	0.49848	0.94393	0.08
Mof_H 	H 	0.83717	0.48963	0.97623	-0.005
Mof_C 	C 	0.89739	0.50604	0.97803	-0.154
Mof_H 	H 	0.89867	0.50223	0.03233	0.082
Mof_C 	C 	0.02192	0.73152	0.75603	0.093
Mof_H 	H 	0.00927	0.73413	0.80183	-0.008
Mof_C 	C 	0.99839	0.71679	0.68913	-0.158
Mof_H 	H 	0.97017	0.70943	0.68963	0.086
Mof_C 	C 	0.01623	0.71273	0.62113	0.111
Mof_C 	C 	0.05784	0.72354	0.62493	-0.148
Mof_H 	H 	0.07127	0.72083	0.58033	0.081
Mof_C 	C 	0.07919	0.73819	0.69423	0.079
Mof_H 	H 	0.10747	0.74573	0.69603	0.011
Mof_C 	C 	0.99248	0.69832	0.54953	-0.083
Mof_H 	H 	0.96367	0.68023	0.55383	0.059
Mof_C 	C 	0.00844	0.70879	0.47793	-0.084
Mof_H 	H 	0.03737	0.72623	0.47343	0.06
Mof_C 	C 	0.98425	0.69512	0.40623	0.108
Mof_C 	C 	0.997	0.72046	0.33973	-0.162
Mof_H 	H 	0.02207	0.74603	0.34043	0.087
Mof_C 	C 	0.97298	0.70792	0.27373	0.088
Mof_H 	H 	0.98167	0.72553	0.22963	-0.005
Mof_C 	C 	0.92648	0.64656	0.33193	0.069
Mof_H 	H 	0.90227	0.62033	0.32833	-0
Mof_C 	C 	0.94843	0.6572	0.40043	-0.15
Mof_H 	H 	0.93917	0.63873	0.44333	0.081
Mof_Ni	Ni	0.84041	0.9758	0.47721	1.056
Mof_Ni	Ni	0.76482	0.10601	0.18633	1.083
Mof_O 	O 	0.85675	0.01274	0.37933	-0.421
Mof_O 	O 	0.87102	0.97909	0.28937	-0.282
Mof_O 	O 	0.94924	0.05995	0.38894	-0.291
Mof_O 	O 	0.94338	0.11474	0.42153	-0.429
Mof_O 	O 	0.93315	0.19345	0.1321	-0.377
Mof_O 	O 	0.8799	0.17151	0.20906	-0.386
Mof_O 	O 	0.8466	0.11377	0.06663	-0.281
Mof_O 	O 	0.80423	0.08443	0.16765	-0.418
Mof_N 	N 	0.77881	0.94022	0.44357	-0.237
Mof_N 	N 	0.52336	0.83638	0.20107	-0.235
Mof_N 	N 	0.72816	0.07549	0.09217	-0.236
Mof_N 	N 	0.60451	0.00511	0.60287	-0.246
Mof_C 	C 	0.88794	0.04811	0.26067	-0.127
Mof_H 	H 	0.89743	0.04077	0.21197	0.08
Mof_C 	C 	0.92496	0.08878	0.29257	-0.114
Mof_H 	H 	0.94883	0.09537	0.25757	0.07
Mof_C 	C 	0.8528	0.05689	0.23747	0.051
Mof_H 	H 	0.82723	0.03077	0.22317	0.023
Mof_C 	C 	0.86904	0.08651	0.16737	-0.13
Mof_H 	H 	0.87753	0.07317	0.12667	0.077
Mof_C 	C 	0.90882	0.12718	0.19317	-0.118
Mof_H 	H 	0.93293	0.12907	0.16457	0.077
Mof_C 	C 	0.9154	0.12406	0.28217	0.039
Mof_H 	H 	0.93873	0.15057	0.30197	0.028
Mof_C 	C 	0.84442	0.0782	0.30307	-0.045
Mof_H 	H 	0.81803	0.06727	0.32657	0.049
Mof_C 	C 	0.87644	0.11315	0.32547	-0.033
Mof_H 	H 	0.87503	0.12997	0.36527	0.05
Mof_C 	C 	0.87133	0.01071	0.31507	0.349
Mof_C 	C 	0.93933	0.08706	0.37487	0.332
Mof_C 	C 	0.83727	0.09564	0.13067	0.354
Mof_C 	C 	0.90693	0.16588	0.17727	0.308
Mof_C 	C 	0.76951	0.93018	0.36837	0.073
Mof_H 	H 	0.79143	0.93957	0.33187	-0.001
Mof_C 	C 	0.72967	0.90683	0.34177	-0.15
Mof_H 	H 	0.72463	0.90087	0.28787	0.079
Mof_C 	C 	0.69659	0.89182	0.39357	0.1
Mof_C 	C 	0.70619	0.89995	0.47247	-0.154
Mof_H 	H 	0.68493	0.88887	0.51047	0.08
Mof_C 	C 	0.74706	0.92441	0.49507	0.078
Mof_H 	H 	0.75303	0.93037	0.54877	0.002
Mof_C 	C 	0.65327	0.87141	0.36857	-0.086
Mof_H 	H 	0.63263	0.86117	0.40777	0.055
Mof_C 	C 	0.64083	0.8662	0.29457	-0.083
Mof_H 	H 	0.66133	0.87197	0.25637	0.055
Mof_C 	C 	0.59908	0.85253	0.26527	0.103
Mof_C 	C 	0.59395	0.85541	0.18557	-0.151
Mof_H 	H 	0.61643	0.86277	0.15117	0.079
Mof_C 	C 	0.5565	0.84769	0.15657	0.08
Mof_H 	H 	0.55413	0.85057	0.10227	0.003
Mof_C 	C 	0.52735	0.83182	0.27727	0.08
Mof_H 	H 	0.50383	0.82297	0.30957	-0.005
Mof_C 	C 	0.56405	0.83938	0.31137	-0.155
Mof_H 	H 	0.56533	0.83557	0.36567	0.083
Mof_C 	C 	0.68858	0.06486	0.08937	0.093
Mof_H 	H 	0.67593	0.06747	0.13517	-0.008
Mof_C 	C 	0.66505	0.05013	0.02247	-0.159
Mof_H 	H 	0.63683	0.04277	0.02297	0.086
Mof_C 	C 	0.68289	0.04607	0.95447	0.112
Mof_C 	C 	0.7245	0.05688	0.95827	-0.148
Mof_H 	H 	0.73793	0.05417	0.91367	0.081
Mof_C 	C 	0.74585	0.07153	0.02757	0.079
Mof_H 	H 	0.77413	0.07907	0.02937	0.011
Mof_C 	C 	0.65914	0.03166	0.88287	-0.083
Mof_H 	H 	0.63033	0.01357	0.88717	0.059
Mof_C 	C 	0.6751	0.04213	0.81127	-0.084
Mof_H 	H 	0.70403	0.05957	0.80677	0.06
Mof_C 	C 	0.65091	0.02846	0.73957	0.108
Mof_C 	C 	0.66366	0.0538	0.67307	-0.162
Mof_H 	H 	0.68873	0.07937	0.67377	0.087
Mof_C 	C 	0.63964	0.04126	0.60707	0.088
Mof_H 	H 	0.64833	0.05887	0.56297	-0.005
Mof_C 	C 	0.59314	0.9799	0.66527	0.069
Mof_H 	H 	0.56893	0.95367	0.66167	-0
Mof_C 	C 	0.61509	0.99054	0.73377	-0.15
Mof_H 	H 	0.60583	0.97207	0.77667	0.081
Mof_Ni	Ni	0.69087	0.19795	0.81054	1.056
Mof_Ni	Ni	0.56066	0.99215	0.51966	1.083
Mof_O 	O 	0.65393	0.17735	0.71266	-0.421
Mof_O 	O 	0.68758	0.22527	0.6227	-0.282
Mof_O 	O 	0.60672	0.22263	0.72227	-0.291
Mof_O 	O 	0.55193	0.16198	0.75486	-0.429
Mof_O 	O 	0.47322	0.07304	0.46543	-0.377
Mof_O 	O 	0.49516	0.04173	0.54239	-0.386
Mof_O 	O 	0.5529	0.06617	0.39996	-0.281
Mof_O 	O 	0.58224	0.05314	0.50098	-0.418
Mof_N 	N 	0.72645	0.17193	0.7769	-0.237
Mof_N 	N 	0.83029	0.02032	0.5344	-0.235
Mof_N 	N 	0.59118	0.98601	0.4255	-0.236
Mof_N 	N 	0.66156	0.93274	0.9362	-0.245
Mof_C 	C 	0.61856	0.17317	0.594	-0.127
Mof_H 	H 	0.6259	0.19	0.5453	0.08
Mof_C 	C 	0.57789	0.16952	0.6259	-0.114
Mof_H 	H 	0.5713	0.1868	0.5909	0.07
Mof_C 	C 	0.60978	0.12925	0.5708	0.052
Mof_H 	H 	0.6359	0.1298	0.5565	0.023
Mof_C 	C 	0.58016	0.11587	0.5007	-0.13
Mof_H 	H 	0.5935	0.1377	0.46	0.077
Mof_C 	C 	0.53949	0.11498	0.5265	-0.118
Mof_H 	H 	0.5376	0.1372	0.4979	0.077
Mof_C 	C 	0.54261	0.12468	0.6155	0.039
Mof_H 	H 	0.5161	0.1215	0.6353	0.028
Mof_C 	C 	0.58847	0.09956	0.6364	-0.045
Mof_H 	H 	0.5994	0.0841	0.6599	0.049
Mof_C 	C 	0.55352	0.09663	0.6588	-0.033
Mof_H 	H 	0.5367	0.0784	0.6986	0.05
Mof_C 	C 	0.65596	0.19396	0.6484	0.349
Mof_C 	C 	0.57961	0.18561	0.7082	0.332
Mof_C 	C 	0.57103	0.07497	0.464	0.354
Mof_C 	C 	0.50079	0.07439	0.5106	0.308
Mof_C 	C 	0.73649	0.17267	0.7017	0.073
Mof_H 	H 	0.7271	0.1852	0.6652	-0.001
Mof_C 	C 	0.75984	0.15618	0.6751	-0.15
Mof_H 	H 	0.7658	0.1571	0.6212	0.079
Mof_C 	C 	0.77485	0.13811	0.7269	0.1
Mof_C 	C 	0.76672	0.13958	0.8058	-0.154
Mof_H 	H 	0.7778	0.1294	0.8438	0.08
Mof_C 	C 	0.74226	0.15599	0.8284	0.078
Mof_H 	H 	0.7363	0.156	0.8821	0.002
Mof_C 	C 	0.79526	0.1152	0.7019	-0.086
Mof_H 	H 	0.8055	0.1048	0.7411	0.055
Mof_C 	C 	0.80047	0.10797	0.6279	-0.083
Mof_H 	H 	0.7947	0.1227	0.5897	0.055
Mof_C 	C 	0.81414	0.07989	0.5986	0.103
Mof_C 	C 	0.81126	0.07188	0.5189	-0.151
Mof_H 	H 	0.8039	0.087	0.4845	0.079
Mof_C 	C 	0.81898	0.04215	0.4899	0.08
Mof_H 	H 	0.8161	0.0369	0.4356	0.003
Mof_C 	C 	0.83485	0.02887	0.6106	0.08
Mof_H 	H 	0.8437	0.0142	0.6429	-0.005
Mof_C 	C 	0.82729	0.05801	0.6447	-0.155
Mof_H 	H 	0.8311	0.0631	0.699	0.083
Mof_C 	C 	0.60181	0.95706	0.4227	0.093
Mof_H 	H 	0.5992	0.9418	0.4685	-0.008
Mof_C 	C 	0.61654	0.94826	0.3558	-0.159
Mof_H 	H 	0.6239	0.9274	0.3563	0.086
Mof_C 	C 	0.6206	0.97016	0.2878	0.112
Mof_C 	C 	0.60979	0.00096	0.2916	-0.148
Mof_H 	H 	0.6125	0.0171	0.247	0.081
Mof_C 	C 	0.59514	0.00766	0.3609	0.079
Mof_H 	H 	0.5876	0.0284	0.3627	0.011
Mof_C 	C 	0.63501	0.96082	0.2162	-0.083
Mof_H 	H 	0.6531	0.9501	0.2205	0.059
Mof_C 	C 	0.62454	0.96631	0.1446	-0.084
Mof_H 	H 	0.6071	0.9778	0.1401	0.06
Mof_C 	C 	0.63821	0.95579	0.0729	0.108
Mof_C 	C 	0.61287	0.9432	0.0064	-0.161
Mof_H 	H 	0.5873	0.9427	0.0071	0.086
Mof_C 	C 	0.62541	0.93172	0.9404	0.087
Mof_H 	H 	0.6078	0.9228	0.8963	-0.005
Mof_C 	C 	0.68677	0.94658	0.9986	0.069
Mof_H 	H 	0.713	0.9486	0.995	-0
Mof_C 	C 	0.67613	0.95789	0.0671	-0.15
Mof_H 	H 	0.6946	0.9671	0.11	0.08
Mof_Ni	Ni	0.35754	0.53128	0.14387	1.056
Mof_Ni	Ni	0.22733	0.32548	0.85299	1.083
Mof_O 	O 	0.3206	0.51068	0.04599	-0.421
Mof_O 	O 	0.35425	0.5586	0.95603	-0.282
Mof_O 	O 	0.27339	0.55596	0.0556	-0.291
Mof_O 	O 	0.2186	0.49531	0.08819	-0.429
Mof_O 	O 	0.13989	0.40637	0.79876	-0.377
Mof_O 	O 	0.16183	0.37506	0.87572	-0.386
Mof_O 	O 	0.21957	0.3995	0.73329	-0.281
Mof_O 	O 	0.24891	0.38647	0.83431	-0.418
Mof_N 	N 	0.39312	0.50526	0.11023	-0.237
Mof_N 	N 	0.49696	0.35365	0.86773	-0.235
Mof_N 	N 	0.25785	0.31934	0.75883	-0.236
Mof_N 	N 	0.32823	0.26607	0.26953	-0.246
Mof_C 	C 	0.28523	0.5065	0.92733	-0.127
Mof_H 	H 	0.29257	0.52333	0.87863	0.08
Mof_C 	C 	0.24456	0.50285	0.95923	-0.114
Mof_H 	H 	0.23797	0.52013	0.92423	0.07
Mof_C 	C 	0.27645	0.46258	0.90413	0.051
Mof_H 	H 	0.30257	0.46313	0.88983	0.023
Mof_C 	C 	0.24683	0.4492	0.83403	-0.13
Mof_H 	H 	0.26017	0.47103	0.79333	0.077
Mof_C 	C 	0.20616	0.44831	0.85983	-0.118
Mof_H 	H 	0.20427	0.47053	0.83123	0.077
Mof_C 	C 	0.20928	0.45801	0.94883	0.04
Mof_H 	H 	0.18277	0.45483	0.96863	0.028
Mof_C 	C 	0.25514	0.43289	0.96973	-0.044
Mof_H 	H 	0.26607	0.41743	0.99323	0.049
Mof_C 	C 	0.22019	0.42996	0.99213	-0.033
Mof_H 	H 	0.20337	0.41173	0.03193	0.05
Mof_C 	C 	0.32263	0.52729	0.98173	0.349
Mof_C 	C 	0.24628	0.51894	0.04153	0.333
Mof_C 	C 	0.2377	0.4083	0.79733	0.354
Mof_C 	C 	0.16746	0.40772	0.84393	0.308
Mof_C 	C 	0.40316	0.506	0.03503	0.073
Mof_H 	H 	0.39377	0.51853	0.99853	-0.002
Mof_C 	C 	0.42651	0.48951	0.00843	-0.15
Mof_H 	H 	0.43247	0.49043	0.95453	0.079
Mof_C 	C 	0.44152	0.47144	0.06023	0.1
Mof_C 	C 	0.43339	0.47291	0.13913	-0.154
Mof_H 	H 	0.44447	0.46273	0.17713	0.08
Mof_C 	C 	0.40893	0.48932	0.16173	0.078
Mof_H 	H 	0.40297	0.48933	0.21543	0.002
Mof_C 	C 	0.46193	0.44853	0.03523	-0.086
Mof_H 	H 	0.47217	0.43813	0.07443	0.055
Mof_C 	C 	0.46714	0.4413	0.96123	-0.083
Mof_H 	H 	0.46137	0.45603	0.92303	0.055
Mof_C 	C 	0.48081	0.41322	0.93193	0.103
Mof_C 	C 	0.47793	0.40521	0.85223	-0.151
Mof_H 	H 	0.47057	0.42033	0.81783	0.079
Mof_C 	C 	0.48565	0.37548	0.82323	0.08
Mof_H 	H 	0.48277	0.37023	0.76893	0.003
Mof_C 	C 	0.50152	0.3622	0.94393	0.08
Mof_H 	H 	0.51037	0.34753	0.97623	-0.005
Mof_C 	C 	0.49396	0.39134	0.97803	-0.155
Mof_H 	H 	0.49777	0.39643	0.03233	0.082
Mof_C 	C 	0.26848	0.29039	0.75603	0.093
Mof_H 	H 	0.26587	0.27513	0.80183	-0.008
Mof_C 	C 	0.28321	0.28159	0.68913	-0.159
Mof_H 	H 	0.29057	0.26073	0.68963	0.086
Mof_C 	C 	0.28727	0.30349	0.62113	0.111
Mof_C 	C 	0.27646	0.33429	0.62493	-0.148
Mof_H 	H 	0.27917	0.35043	0.58033	0.081
Mof_C 	C 	0.26181	0.34099	0.69423	0.079
Mof_H 	H 	0.25427	0.36173	0.69603	0.011
Mof_C 	C 	0.30168	0.29415	0.54953	-0.083
Mof_H 	H 	0.31977	0.28343	0.55383	0.059
Mof_C 	C 	0.29121	0.29964	0.47793	-0.084
Mof_H 	H 	0.27377	0.31113	0.47343	0.06
Mof_C 	C 	0.30488	0.28912	0.40623	0.108
Mof_C 	C 	0.27954	0.27653	0.33973	-0.162
Mof_H 	H 	0.25397	0.27603	0.34043	0.087
Mof_C 	C 	0.29208	0.26505	0.27373	0.088
Mof_H 	H 	0.27447	0.25613	0.22963	-0.005
Mof_C 	C 	0.35344	0.27991	0.33193	0.069
Mof_H 	H 	0.37967	0.28193	0.32833	-0
Mof_C 	C 	0.3428	0.29122	0.40043	-0.15
Mof_H 	H 	0.36127	0.30043	0.44333	0.081
Mof_Ni	Ni	0.0242	0.86462	0.47721	1.056
Mof_Ni	Ni	0.89399	0.65882	0.18633	1.083
Mof_O 	O 	0.98726	0.84402	0.37933	-0.421
Mof_O 	O 	0.02091	0.89194	0.28937	-0.282
Mof_O 	O 	0.94005	0.8893	0.38894	-0.291
Mof_O 	O 	0.88526	0.82865	0.42153	-0.429
Mof_O 	O 	0.80655	0.73971	0.1321	-0.377
Mof_O 	O 	0.82849	0.7084	0.20906	-0.386
Mof_O 	O 	0.88623	0.73284	0.06663	-0.281
Mof_O 	O 	0.91557	0.71981	0.16765	-0.418
Mof_N 	N 	0.05978	0.8386	0.44357	-0.237
Mof_N 	N 	0.16362	0.68699	0.20107	-0.235
Mof_N 	N 	0.92451	0.65268	0.09217	-0.236
Mof_N 	N 	0.99489	0.59941	0.60287	-0.245
Mof_C 	C 	0.95189	0.83984	0.26067	-0.127
Mof_H 	H 	0.95923	0.85667	0.21197	0.08
Mof_C 	C 	0.91122	0.83619	0.29257	-0.114
Mof_H 	H 	0.90463	0.85347	0.25757	0.07
Mof_C 	C 	0.94311	0.79592	0.23747	0.051
Mof_H 	H 	0.96923	0.79647	0.22317	0.023
Mof_C 	C 	0.91349	0.78254	0.16737	-0.13
Mof_H 	H 	0.92683	0.80437	0.12667	0.077
Mof_C 	C 	0.87282	0.78165	0.19317	-0.118
Mof_H 	H 	0.87093	0.80387	0.16457	0.077
Mof_C 	C 	0.87594	0.79135	0.28217	0.039
Mof_H 	H 	0.84943	0.78817	0.30197	0.028
Mof_C 	C 	0.9218	0.76623	0.30307	-0.044
Mof_H 	H 	0.93273	0.75077	0.32657	0.049
Mof_C 	C 	0.88685	0.7633	0.32547	-0.033
Mof_H 	H 	0.87003	0.74507	0.36527	0.05
Mof_C 	C 	0.98929	0.86063	0.31507	0.349
Mof_C 	C 	0.91294	0.85228	0.37487	0.332
Mof_C 	C 	0.90436	0.74164	0.13067	0.354
Mof_C 	C 	0.83412	0.74106	0.17727	0.308
Mof_C 	C 	0.06982	0.83934	0.36837	0.073
Mof_H 	H 	0.06043	0.85187	0.33187	-0.001
Mof_C 	C 	0.09317	0.82285	0.34177	-0.15
Mof_H 	H 	0.09913	0.82377	0.28787	0.079
Mof_C 	C 	0.10818	0.80478	0.39357	0.1
Mof_C 	C 	0.10005	0.80625	0.47247	-0.154
Mof_H 	H 	0.11113	0.79607	0.51047	0.08
Mof_C 	C 	0.07559	0.82266	0.49507	0.078
Mof_H 	H 	0.06963	0.82267	0.54877	0.002
Mof_C 	C 	0.12859	0.78187	0.36857	-0.086
Mof_H 	H 	0.13883	0.77147	0.40777	0.055
Mof_C 	C 	0.1338	0.77464	0.29457	-0.083
Mof_H 	H 	0.12803	0.78937	0.25637	0.055
Mof_C 	C 	0.14747	0.74656	0.26527	0.103
Mof_C 	C 	0.14459	0.73855	0.18557	-0.151
Mof_H 	H 	0.13723	0.75367	0.15117	0.079
Mof_C 	C 	0.15231	0.70882	0.15657	0.08
Mof_H 	H 	0.14943	0.70357	0.10227	0.003
Mof_C 	C 	0.16818	0.69554	0.27727	0.08
Mof_H 	H 	0.17703	0.68087	0.30957	-0.005
Mof_C 	C 	0.16062	0.72468	0.31137	-0.155
Mof_H 	H 	0.16443	0.72977	0.36567	0.083
Mof_C 	C 	0.93514	0.62373	0.08937	0.093
Mof_H 	H 	0.93253	0.60847	0.13517	-0.008
Mof_C 	C 	0.94987	0.61493	0.02247	-0.159
Mof_H 	H 	0.95723	0.59407	0.02297	0.086
Mof_C 	C 	0.95393	0.63683	0.95447	0.112
Mof_C 	C 	0.94312	0.66763	0.95827	-0.148
Mof_H 	H 	0.94583	0.68377	0.91367	0.081
Mof_C 	C 	0.92847	0.67433	0.02757	0.079
Mof_H 	H 	0.92093	0.69507	0.02937	0.011
Mof_C 	C 	0.96834	0.62749	0.88287	-0.083
Mof_H 	H 	0.98643	0.61677	0.88717	0.059
Mof_C 	C 	0.95787	0.63298	0.81127	-0.084
Mof_H 	H 	0.94043	0.64447	0.80677	0.06
Mof_C 	C 	0.97154	0.62246	0.73957	0.108
Mof_C 	C 	0.9462	0.60987	0.67307	-0.162
Mof_H 	H 	0.92063	0.60937	0.67377	0.087
Mof_C 	C 	0.95874	0.59839	0.60707	0.088
Mof_H 	H 	0.94113	0.58947	0.56297	-0.005
Mof_C 	C 	0.0201	0.61325	0.66527	0.069
Mof_H 	H 	0.04633	0.61527	0.66167	-0
Mof_C 	C 	0.00946	0.62456	0.73377	-0.15
Mof_H 	H 	0.02793	0.63377	0.77667	0.081
Mof_Ni	Ni	0.80205	0.49292	0.81054	1.056
Mof_Ni	Ni	0.00785	0.56851	0.51966	1.083
Mof_O 	O 	0.82265	0.47658	0.71266	-0.421
Mof_O 	O 	0.77473	0.46231	0.6227	-0.282
Mof_O 	O 	0.77737	0.38409	0.72227	-0.291
Mof_O 	O 	0.83802	0.38995	0.75486	-0.429
Mof_O 	O 	0.92696	0.40018	0.46543	-0.377
Mof_O 	O 	0.95827	0.45343	0.54239	-0.386
Mof_O 	O 	0.93383	0.48673	0.39996	-0.281
Mof_O 	O 	0.94686	0.5291	0.50098	-0.418
Mof_N 	N 	0.82807	0.55452	0.7769	-0.237
Mof_N 	N 	0.97968	0.80997	0.5344	-0.235
Mof_N 	N 	0.01399	0.60517	0.4255	-0.236
Mof_N 	N 	0.06726	0.72882	0.9362	-0.245
Mof_C 	C 	0.82683	0.44539	0.594	-0.127
Mof_H 	H 	0.81	0.4359	0.5453	0.08
Mof_C 	C 	0.83048	0.40837	0.6259	-0.114
Mof_H 	H 	0.8132	0.3845	0.5909	0.07
Mof_C 	C 	0.87075	0.48053	0.5708	0.052
Mof_H 	H 	0.8702	0.5061	0.5565	0.023
Mof_C 	C 	0.88413	0.46429	0.5007	-0.13
Mof_H 	H 	0.8623	0.4558	0.46	0.077
Mof_C 	C 	0.88502	0.42451	0.5265	-0.118
Mof_H 	H 	0.8628	0.4004	0.4979	0.077
Mof_C 	C 	0.87532	0.41793	0.6155	0.039
Mof_H 	H 	0.8785	0.3946	0.6353	0.028
Mof_C 	C 	0.90044	0.48891	0.6364	-0.045
Mof_H 	H 	0.9159	0.5153	0.6599	0.049
Mof_C 	C 	0.90337	0.45689	0.6588	-0.033
Mof_H 	H 	0.9216	0.4583	0.6986	0.05
Mof_C 	C 	0.80604	0.462	0.6484	0.349
Mof_C 	C 	0.81439	0.394	0.7082	0.332
Mof_C 	C 	0.92503	0.49606	0.464	0.354
Mof_C 	C 	0.92561	0.4264	0.5106	0.308
Mof_C 	C 	0.82733	0.56382	0.7017	0.073
Mof_H 	H 	0.8148	0.5419	0.6652	-0.001
Mof_C 	C 	0.84382	0.60366	0.6751	-0.15
Mof_H 	H 	0.8429	0.6087	0.6212	0.079
Mof_C 	C 	0.86189	0.63674	0.7269	0.1
Mof_C 	C 	0.86042	0.62714	0.8058	-0.154
Mof_H 	H 	0.8706	0.6484	0.8438	0.08
Mof_C 	C 	0.84401	0.58627	0.8284	0.078
Mof_H 	H 	0.844	0.5803	0.8821	0.002
Mof_C 	C 	0.8848	0.68006	0.7019	-0.086
Mof_H 	H 	0.8952	0.7007	0.7411	0.055
Mof_C 	C 	0.89203	0.6925	0.6279	-0.083
Mof_H 	H 	0.8773	0.672	0.5897	0.055
Mof_C 	C 	0.92011	0.73425	0.5986	0.103
Mof_C 	C 	0.92812	0.73938	0.5189	-0.151
Mof_H 	H 	0.913	0.7169	0.4845	0.079
Mof_C 	C 	0.95785	0.77683	0.4899	0.08
Mof_H 	H 	0.9631	0.7792	0.4356	0.003
Mof_C 	C 	0.97113	0.80598	0.6106	0.08
Mof_H 	H 	0.9858	0.8295	0.6429	-0.005
Mof_C 	C 	0.94199	0.76928	0.6447	-0.155
Mof_H 	H 	0.9369	0.768	0.699	0.083
Mof_C 	C 	0.04294	0.64475	0.4227	0.093
Mof_H 	H 	0.0582	0.6574	0.4685	-0.008
Mof_C 	C 	0.05174	0.66828	0.3558	-0.159
Mof_H 	H 	0.0726	0.6965	0.3563	0.086
Mof_C 	C 	0.02984	0.65044	0.2878	0.112
Mof_C 	C 	0.99904	0.60883	0.2916	-0.148
Mof_H 	H 	0.9829	0.5954	0.247	0.081
Mof_C 	C 	0.99234	0.58748	0.3609	0.079
Mof_H 	H 	0.9716	0.5592	0.3627	0.011
Mof_C 	C 	0.03918	0.67419	0.2162	-0.083
Mof_H 	H 	0.0499	0.703	0.2205	0.059
Mof_C 	C 	0.03369	0.65823	0.1446	-0.084
Mof_H 	H 	0.0222	0.6293	0.1401	0.06
Mof_C 	C 	0.04421	0.68242	0.0729	0.108
Mof_C 	C 	0.0568	0.66967	0.0064	-0.161
Mof_H 	H 	0.0573	0.6446	0.0071	0.086
Mof_C 	C 	0.06828	0.69369	0.9404	0.087
Mof_H 	H 	0.0772	0.685	0.8963	-0.005
Mof_C 	C 	0.05342	0.74019	0.9986	0.069
Mof_H 	H 	0.0514	0.7644	0.995	-0
Mof_C 	C 	0.04211	0.71824	0.0671	-0.15
Mof_H 	H 	0.0329	0.7275	0.11	0.08
Mof_Ni	Ni	0.46872	0.82625	0.14387	1.056
Mof_Ni	Ni	0.67452	0.90184	0.85299	1.083
Mof_O 	O 	0.48932	0.80991	0.04599	-0.42
Mof_O 	O 	0.4414	0.79564	0.95603	-0.282
Mof_O 	O 	0.44404	0.71742	0.0556	-0.291
Mof_O 	O 	0.50469	0.72328	0.08819	-0.429
Mof_O 	O 	0.59363	0.73351	0.79876	-0.377
Mof_O 	O 	0.62494	0.78676	0.87572	-0.386
Mof_O 	O 	0.6005	0.82006	0.73329	-0.281
Mof_O 	O 	0.61353	0.86243	0.83431	-0.418
Mof_N 	N 	0.49474	0.88785	0.11023	-0.237
Mof_N 	N 	0.64635	0.1433	0.86773	-0.235
Mof_N 	N 	0.68066	0.9385	0.75883	-0.236
Mof_N 	N 	0.73393	0.06215	0.26953	-0.246
Mof_C 	C 	0.4935	0.77872	0.92733	-0.127
Mof_H 	H 	0.47667	0.76923	0.87863	0.08
Mof_C 	C 	0.49715	0.7417	0.95923	-0.114
Mof_H 	H 	0.47987	0.71783	0.92423	0.07
Mof_C 	C 	0.53742	0.81386	0.90413	0.051
Mof_H 	H 	0.53687	0.83943	0.88983	0.023
Mof_C 	C 	0.5508	0.79762	0.83403	-0.13
Mof_H 	H 	0.52897	0.78913	0.79333	0.077
Mof_C 	C 	0.55169	0.75784	0.85983	-0.118
Mof_H 	H 	0.52947	0.73373	0.83123	0.077
Mof_C 	C 	0.54199	0.75126	0.94883	0.04
Mof_H 	H 	0.54517	0.72793	0.96863	0.028
Mof_C 	C 	0.56711	0.82224	0.96973	-0.044
Mof_H 	H 	0.58257	0.84863	0.99323	0.049
Mof_C 	C 	0.57004	0.79022	0.99213	-0.033
Mof_H 	H 	0.58827	0.79163	0.03193	0.05
Mof_C 	C 	0.47271	0.79533	0.98173	0.349
Mof_C 	C 	0.48106	0.72733	0.04153	0.333
Mof_C 	C 	0.5917	0.82939	0.79733	0.354
Mof_C 	C 	0.59228	0.75973	0.84393	0.308
Mof_C 	C 	0.494	0.89715	0.03503	0.074
Mof_H 	H 	0.48147	0.87523	0.99853	-0.002
Mof_C 	C 	0.51049	0.93699	0.00843	-0.15
Mof_H 	H 	0.50957	0.94203	0.95453	0.079
Mof_C 	C 	0.52856	0.97007	0.06023	0.1
Mof_C 	C 	0.52709	0.96047	0.13913	-0.154
Mof_H 	H 	0.53727	0.98173	0.17713	0.08
Mof_C 	C 	0.51068	0.9196	0.16173	0.078
Mof_H 	H 	0.51067	0.91363	0.21543	0.002
Mof_C 	C 	0.55147	0.01339	0.03523	-0.086
Mof_H 	H 	0.56187	0.03403	0.07443	0.055
Mof_C 	C 	0.5587	0.02583	0.96123	-0.082
Mof_H 	H 	0.54397	0.00533	0.92303	0.055
Mof_C 	C 	0.58678	0.06758	0.93193	0.102
Mof_C 	C 	0.59479	0.07271	0.85223	-0.151
Mof_H 	H 	0.57967	0.05023	0.81783	0.079
Mof_C 	C 	0.62452	0.11016	0.82323	0.08
Mof_H 	H 	0.62977	0.11253	0.76893	0.003
Mof_C 	C 	0.6378	0.13931	0.94393	0.08
Mof_H 	H 	0.65247	0.16283	0.97623	-0.005
Mof_C 	C 	0.60866	0.10261	0.97803	-0.154
Mof_H 	H 	0.60357	0.10133	0.03233	0.082
Mof_C 	C 	0.70961	0.97808	0.75603	0.092
Mof_H 	H 	0.72487	0.99073	0.80183	-0.008
Mof_C 	C 	0.71841	0.00161	0.68913	-0.158
Mof_H 	H 	0.73927	0.02983	0.68963	0.086
Mof_C 	C 	0.69651	0.98377	0.62113	0.111
Mof_C 	C 	0.66571	0.94216	0.62493	-0.148
Mof_H 	H 	0.64957	0.92873	0.58033	0.081
Mof_C 	C 	0.65901	0.92081	0.69423	0.079
Mof_H 	H 	0.63827	0.89253	0.69603	0.011
Mof_C 	C 	0.70585	0.00752	0.54953	-0.083
Mof_H 	H 	0.71657	0.03633	0.55383	0.059
Mof_C 	C 	0.70036	0.99156	0.47793	-0.084
Mof_H 	H 	0.68887	0.96263	0.47343	0.06
Mof_C 	C 	0.71088	0.01575	0.40623	0.108
Mof_C 	C 	0.72347	0.003	0.33973	-0.162
Mof_H 	H 	0.72397	0.97793	0.34043	0.087
Mof_C 	C 	0.73495	0.02702	0.27373	0.088
Mof_H 	H 	0.74387	0.01833	0.22963	-0.005
Mof_C 	C 	0.72009	0.07352	0.33193	0.069
Mof_H 	H 	0.71807	0.09773	0.32833	-0
Mof_C 	C 	0.70878	0.05157	0.40043	-0.15
Mof_H 	H 	0.69957	0.06083	0.44333	0.081
Mof_Ni	Ni	0.13538	0.15959	0.47721	1.056
Mof_Ni	Ni	0.34118	0.23518	0.18633	1.083
Mof_O 	O 	0.15598	0.14325	0.37933	-0.421
Mof_O 	O 	0.10806	0.12898	0.28937	-0.282
Mof_O 	O 	0.1107	0.05076	0.38894	-0.291
Mof_O 	O 	0.17135	0.05662	0.42153	-0.429
Mof_O 	O 	0.26029	0.06685	0.1321	-0.377
Mof_O 	O 	0.2916	0.1201	0.20906	-0.386
Mof_O 	O 	0.26716	0.1534	0.06663	-0.281
Mof_O 	O 	0.28019	0.19577	0.16765	-0.418
Mof_N 	N 	0.1614	0.22119	0.44357	-0.237
Mof_N 	N 	0.31301	0.47664	0.20107	-0.235
Mof_N 	N 	0.34732	0.27184	0.09217	-0.236
Mof_N 	N 	0.40059	0.39549	0.60287	-0.246
Mof_C 	C 	0.16016	0.11206	0.26067	-0.127
Mof_H 	H 	0.14333	0.10257	0.21197	0.08
Mof_C 	C 	0.16381	0.07504	0.29257	-0.114
Mof_H 	H 	0.14653	0.05117	0.25757	0.07
Mof_C 	C 	0.20408	0.1472	0.23747	0.052
Mof_H 	H 	0.20353	0.17277	0.22317	0.023
Mof_C 	C 	0.21746	0.13096	0.16737	-0.13
Mof_H 	H 	0.19563	0.12247	0.12667	0.077
Mof_C 	C 	0.21835	0.09118	0.19317	-0.118
Mof_H 	H 	0.19613	0.06707	0.16457	0.077
Mof_C 	C 	0.20865	0.0846	0.28217	0.039
Mof_H 	H 	0.21183	0.06127	0.30197	0.028
Mof_C 	C 	0.23377	0.15558	0.30307	-0.045
Mof_H 	H 	0.24923	0.18197	0.32657	0.049
Mof_C 	C 	0.2367	0.12356	0.32547	-0.033
Mof_H 	H 	0.25493	0.12497	0.36527	0.05
Mof_C 	C 	0.13937	0.12867	0.31507	0.349
Mof_C 	C 	0.14772	0.06067	0.37487	0.332
Mof_C 	C 	0.25836	0.16273	0.13067	0.354
Mof_C 	C 	0.25894	0.09307	0.17727	0.308
Mof_C 	C 	0.16066	0.23049	0.36837	0.073
Mof_H 	H 	0.14813	0.20857	0.33187	-0.001
Mof_C 	C 	0.17715	0.27033	0.34177	-0.15
Mof_H 	H 	0.17623	0.27537	0.28787	0.079
Mof_C 	C 	0.19522	0.30341	0.39357	0.1
Mof_C 	C 	0.19375	0.29381	0.47247	-0.154
Mof_H 	H 	0.20393	0.31507	0.51047	0.08
Mof_C 	C 	0.17734	0.25294	0.49507	0.078
Mof_H 	H 	0.17733	0.24697	0.54877	0.002
Mof_C 	C 	0.21813	0.34673	0.36857	-0.086
Mof_H 	H 	0.22853	0.36737	0.40777	0.055
Mof_C 	C 	0.22536	0.35917	0.29457	-0.083
Mof_H 	H 	0.21063	0.33867	0.25637	0.055
Mof_C 	C 	0.25344	0.40092	0.26527	0.103
Mof_C 	C 	0.26145	0.40605	0.18557	-0.151
Mof_H 	H 	0.24633	0.38357	0.15117	0.079
Mof_C 	C 	0.29118	0.4435	0.15657	0.08
Mof_H 	H 	0.29643	0.44587	0.10227	0.003
Mof_C 	C 	0.30446	0.47265	0.27727	0.08
Mof_H 	H 	0.31913	0.49617	0.30957	-0.005
Mof_C 	C 	0.27532	0.43595	0.31137	-0.155
Mof_H 	H 	0.27023	0.43467	0.36567	0.083
Mof_C 	C 	0.37627	0.31142	0.08937	0.093
Mof_H 	H 	0.39153	0.32407	0.13517	-0.008
Mof_C 	C 	0.38507	0.33495	0.02247	-0.159
Mof_H 	H 	0.40593	0.36317	0.02297	0.086
Mof_C 	C 	0.36317	0.31711	0.95447	0.111
Mof_C 	C 	0.33237	0.2755	0.95827	-0.148
Mof_H 	H 	0.31623	0.26207	0.91367	0.081
Mof_C 	C 	0.32567	0.25415	0.02757	0.079
Mof_H 	H 	0.30493	0.22587	0.02937	0.011
Mof_C 	C 	0.37251	0.34086	0.88287	-0.083
Mof_H 	H 	0.38323	0.36967	0.88717	0.059
Mof_C 	C 	0.36702	0.3249	0.81127	-0.084
Mof_H 	H 	0.35553	0.29597	0.80677	0.06
Mof_C 	C 	0.37754	0.34909	0.73957	0.108
Mof_C 	C 	0.39013	0.33634	0.67307	-0.162
Mof_H 	H 	0.39063	0.31127	0.67377	0.087
Mof_C 	C 	0.40161	0.36036	0.60707	0.088
Mof_H 	H 	0.41053	0.35167	0.56297	-0.005
Mof_C 	C 	0.38675	0.40686	0.66527	0.069
Mof_H 	H 	0.38473	0.43107	0.66167	-0
Mof_C 	C 	0.37544	0.38491	0.73377	-0.15
Mof_H 	H 	0.36623	0.39417	0.77667	0.081
Mof_Ni	Ni	0.49292	0.69087	0.18946	1.056
Mof_Ni	Ni	0.56851	0.56066	0.48034	1.083
Mof_O 	O 	0.47658	0.65393	0.28734	-0.421
Mof_O 	O 	0.46231	0.68758	0.3773	-0.282
Mof_O 	O 	0.38409	0.60672	0.27773	-0.291
Mof_O 	O 	0.38995	0.55193	0.24514	-0.429
Mof_O 	O 	0.40018	0.47322	0.53457	-0.377
Mof_O 	O 	0.45343	0.49516	0.45761	-0.386
Mof_O 	O 	0.48673	0.5529	0.60004	-0.281
Mof_O 	O 	0.5291	0.58224	0.49902	-0.418
Mof_N 	N 	0.55452	0.72645	0.2231	-0.237
Mof_N 	N 	0.80997	0.83029	0.4656	-0.235
Mof_N 	N 	0.60517	0.59118	0.5745	-0.236
Mof_N 	N 	0.72882	0.66156	0.0638	-0.246
Mof_C 	C 	0.44539	0.61856	0.406	-0.127
Mof_H 	H 	0.4359	0.6259	0.4547	0.08
Mof_C 	C 	0.40837	0.57789	0.3741	-0.114
Mof_H 	H 	0.3845	0.5713	0.4091	0.07
Mof_C 	C 	0.48053	0.60978	0.4292	0.052
Mof_H 	H 	0.5061	0.6359	0.4435	0.023
Mof_C 	C 	0.46429	0.58016	0.4993	-0.13
Mof_H 	H 	0.4558	0.5935	0.54	0.077
Mof_C 	C 	0.42451	0.53949	0.4735	-0.118
Mof_H 	H 	0.4004	0.5376	0.5021	0.077
Mof_C 	C 	0.41793	0.54261	0.3845	0.039
Mof_H 	H 	0.3946	0.5161	0.3647	0.028
Mof_C 	C 	0.48891	0.58847	0.3636	-0.045
Mof_H 	H 	0.5153	0.5994	0.3401	0.049
Mof_C 	C 	0.45689	0.55352	0.3412	-0.033
Mof_H 	H 	0.4583	0.5367	0.3014	0.05
Mof_C 	C 	0.462	0.65596	0.3516	0.349
Mof_C 	C 	0.394	0.57961	0.2918	0.332
Mof_C 	C 	0.49606	0.57103	0.536	0.354
Mof_C 	C 	0.4264	0.50079	0.4894	0.308
Mof_C 	C 	0.56382	0.73649	0.2983	0.073
Mof_H 	H 	0.5419	0.7271	0.3348	-0.001
Mof_C 	C 	0.60366	0.75984	0.3249	-0.15
Mof_H 	H 	0.6087	0.7658	0.3788	0.079
Mof_C 	C 	0.63674	0.77485	0.2731	0.1
Mof_C 	C 	0.62714	0.76672	0.1942	-0.154
Mof_H 	H 	0.6484	0.7778	0.1562	0.08
Mof_C 	C 	0.58627	0.74226	0.1716	0.078
Mof_H 	H 	0.5803	0.7363	0.1179	0.002
Mof_C 	C 	0.68006	0.79526	0.2981	-0.086
Mof_H 	H 	0.7007	0.8055	0.2589	0.055
Mof_C 	C 	0.6925	0.80047	0.3721	-0.083
Mof_H 	H 	0.672	0.7947	0.4103	0.055
Mof_C 	C 	0.73425	0.81414	0.4014	0.103
Mof_C 	C 	0.73938	0.81126	0.4811	-0.151
Mof_H 	H 	0.7169	0.8039	0.5155	0.079
Mof_C 	C 	0.77683	0.81898	0.5101	0.08
Mof_H 	H 	0.7792	0.8161	0.5644	0.003
Mof_C 	C 	0.80598	0.83485	0.3894	0.08
Mof_H 	H 	0.8295	0.8437	0.3571	-0.005
Mof_C 	C 	0.76928	0.82729	0.3553	-0.155
Mof_H 	H 	0.768	0.8311	0.301	0.083
Mof_C 	C 	0.64475	0.60181	0.5773	0.093
Mof_H 	H 	0.6574	0.5992	0.5315	-0.008
Mof_C 	C 	0.66828	0.61654	0.6442	-0.159
Mof_H 	H 	0.6965	0.6239	0.6437	0.086
Mof_C 	C 	0.65044	0.6206	0.7122	0.111
Mof_C 	C 	0.60883	0.60979	0.7084	-0.148
Mof_H 	H 	0.5954	0.6125	0.753	0.081
Mof_C 	C 	0.58748	0.59514	0.6391	0.079
Mof_H 	H 	0.5592	0.5876	0.6373	0.011
Mof_C 	C 	0.67419	0.63501	0.7838	-0.083
Mof_H 	H 	0.703	0.6531	0.7795	0.059
Mof_C 	C 	0.65823	0.62454	0.8554	-0.084
Mof_H 	H 	0.6293	0.6071	0.8599	0.06
Mof_C 	C 	0.68242	0.63821	0.9271	0.108
Mof_C 	C 	0.66967	0.61287	0.9936	-0.162
Mof_H 	H 	0.6446	0.5873	0.9929	0.086
Mof_C 	C 	0.69369	0.62541	0.0596	0.088
Mof_H 	H 	0.685	0.6078	0.1037	-0.005
Mof_C 	C 	0.74019	0.68677	0.0014	0.069
Mof_H 	H 	0.7644	0.713	0.005	-0
Mof_C 	C 	0.71824	0.67613	0.9329	-0.15
Mof_H 	H 	0.7275	0.6946	0.89	0.081
Mof_Ni	Ni	0.15959	0.0242	0.52279	1.056
Mof_Ni	Ni	0.23518	0.89399	0.81367	1.083
Mof_O 	O 	0.14325	0.98726	0.62067	-0.421
Mof_O 	O 	0.12898	0.02091	0.71063	-0.282
Mof_O 	O 	0.05076	0.94005	0.61106	-0.291
Mof_O 	O 	0.05662	0.88526	0.57847	-0.429
Mof_O 	O 	0.06685	0.80655	0.8679	-0.377
Mof_O 	O 	0.1201	0.82849	0.79094	-0.386
Mof_O 	O 	0.1534	0.88623	0.93337	-0.281
Mof_O 	O 	0.19577	0.91557	0.83235	-0.418
Mof_N 	N 	0.22119	0.05978	0.55643	-0.237
Mof_N 	N 	0.47664	0.16362	0.79893	-0.235
Mof_N 	N 	0.27184	0.92451	0.90783	-0.236
Mof_N 	N 	0.39549	0.99489	0.39713	-0.246
Mof_C 	C 	0.11206	0.95189	0.73933	-0.127
Mof_H 	H 	0.10257	0.95923	0.78803	0.08
Mof_C 	C 	0.07504	0.91122	0.70743	-0.114
Mof_H 	H 	0.05117	0.90463	0.74243	0.07
Mof_C 	C 	0.1472	0.94311	0.76253	0.051
Mof_H 	H 	0.17277	0.96923	0.77683	0.023
Mof_C 	C 	0.13096	0.91349	0.83263	-0.13
Mof_H 	H 	0.12247	0.92683	0.87333	0.077
Mof_C 	C 	0.09118	0.87282	0.80683	-0.118
Mof_H 	H 	0.06707	0.87093	0.83543	0.077
Mof_C 	C 	0.0846	0.87594	0.71783	0.039
Mof_H 	H 	0.06127	0.84943	0.69803	0.028
Mof_C 	C 	0.15558	0.9218	0.69693	-0.045
Mof_H 	H 	0.18197	0.93273	0.67343	0.049
Mof_C 	C 	0.12356	0.88685	0.67453	-0.033
Mof_H 	H 	0.12497	0.87003	0.63473	0.05
Mof_C 	C 	0.12867	0.98929	0.68493	0.349
Mof_C 	C 	0.06067	0.91294	0.62513	0.332
Mof_C 	C 	0.16273	0.90436	0.86933	0.354
Mof_C 	C 	0.09307	0.83412	0.82273	0.308
Mof_C 	C 	0.23049	0.06982	0.63163	0.073
Mof_H 	H 	0.20857	0.06043	0.66813	-0.001
Mof_C 	C 	0.27033	0.09317	0.65823	-0.15
Mof_H 	H 	0.27537	0.09913	0.71213	0.079
Mof_C 	C 	0.30341	0.10818	0.60643	0.1
Mof_C 	C 	0.29381	0.10005	0.52753	-0.154
Mof_H 	H 	0.31507	0.11113	0.48953	0.08
Mof_C 	C 	0.25294	0.07559	0.50493	0.078
Mof_H 	H 	0.24697	0.06963	0.45123	0.002
Mof_C 	C 	0.34673	0.12859	0.63143	-0.086
Mof_H 	H 	0.36737	0.13883	0.59223	0.055
Mof_C 	C 	0.35917	0.1338	0.70543	-0.083
Mof_H 	H 	0.33867	0.12803	0.74363	0.055
Mof_C 	C 	0.40092	0.14747	0.73473	0.103
Mof_C 	C 	0.40605	0.14459	0.81443	-0.151
Mof_H 	H 	0.38357	0.13723	0.84883	0.079
Mof_C 	C 	0.4435	0.15231	0.84343	0.08
Mof_H 	H 	0.44587	0.14943	0.89773	0.003
Mof_C 	C 	0.47265	0.16818	0.72273	0.08
Mof_H 	H 	0.49617	0.17703	0.69043	-0.005
Mof_C 	C 	0.43595	0.16062	0.68863	-0.155
Mof_H 	H 	0.43467	0.16443	0.63433	0.083
Mof_C 	C 	0.31142	0.93514	0.91063	0.093
Mof_H 	H 	0.32407	0.93253	0.86483	-0.008
Mof_C 	C 	0.33495	0.94987	0.97753	-0.159
Mof_H 	H 	0.36317	0.95723	0.97703	0.086
Mof_C 	C 	0.31711	0.95393	0.04553	0.112
Mof_C 	C 	0.2755	0.94312	0.04173	-0.148
Mof_H 	H 	0.26207	0.94583	0.08633	0.081
Mof_C 	C 	0.25415	0.92847	0.97243	0.079
Mof_H 	H 	0.22587	0.92093	0.97063	0.011
Mof_C 	C 	0.34086	0.96834	0.11713	-0.083
Mof_H 	H 	0.36967	0.98643	0.11283	0.059
Mof_C 	C 	0.3249	0.95787	0.18873	-0.084
Mof_H 	H 	0.29597	0.94043	0.19323	0.06
Mof_C 	C 	0.34909	0.97154	0.26043	0.108
Mof_C 	C 	0.33634	0.9462	0.32693	-0.162
Mof_H 	H 	0.31127	0.92063	0.32623	0.087
Mof_C 	C 	0.36036	0.95874	0.39293	0.088
Mof_H 	H 	0.35167	0.94113	0.43703	-0.005
Mof_C 	C 	0.40686	0.0201	0.33473	0.069
Mof_H 	H 	0.43107	0.04633	0.33833	-0
Mof_C 	C 	0.38491	0.00946	0.26623	-0.15
Mof_H 	H 	0.39417	0.02793	0.22333	0.081
Mof_Ni	Ni	0.82625	0.35754	0.85613	1.056
Mof_Ni	Ni	0.90184	0.22733	0.14701	1.083
Mof_O 	O 	0.80991	0.3206	0.95401	-0.42
Mof_O 	O 	0.79564	0.35425	0.04397	-0.282
Mof_O 	O 	0.71742	0.27339	0.9444	-0.291
Mof_O 	O 	0.72328	0.2186	0.91181	-0.429
Mof_O 	O 	0.73351	0.13989	0.20124	-0.377
Mof_O 	O 	0.78676	0.16183	0.12428	-0.386
Mof_O 	O 	0.82006	0.21957	0.26671	-0.281
Mof_O 	O 	0.86243	0.24891	0.16569	-0.418
Mof_N 	N 	0.88785	0.39312	0.88977	-0.237
Mof_N 	N 	0.1433	0.49696	0.13227	-0.235
Mof_N 	N 	0.9385	0.25785	0.24117	-0.236
Mof_N 	N 	0.06215	0.32823	0.73047	-0.246
Mof_C 	C 	0.77872	0.28523	0.07267	-0.127
Mof_H 	H 	0.76923	0.29257	0.12137	0.08
Mof_C 	C 	0.7417	0.24456	0.04077	-0.115
Mof_H 	H 	0.71783	0.23797	0.07577	0.07
Mof_C 	C 	0.81386	0.27645	0.09587	0.051
Mof_H 	H 	0.83943	0.30257	0.11017	0.023
Mof_C 	C 	0.79762	0.24683	0.16597	-0.13
Mof_H 	H 	0.78913	0.26017	0.20667	0.077
Mof_C 	C 	0.75784	0.20616	0.14017	-0.118
Mof_H 	H 	0.73373	0.20427	0.16877	0.077
Mof_C 	C 	0.75126	0.20928	0.05117	0.04
Mof_H 	H 	0.72793	0.18277	0.03137	0.028
Mof_C 	C 	0.82224	0.25514	0.03027	-0.044
Mof_H 	H 	0.84863	0.26607	0.00677	0.049
Mof_C 	C 	0.79022	0.22019	0.00787	-0.034
Mof_H 	H 	0.79163	0.20337	0.96807	0.05
Mof_C 	C 	0.79533	0.32263	0.01827	0.349
Mof_C 	C 	0.72733	0.24628	0.95847	0.333
Mof_C 	C 	0.82939	0.2377	0.20267	0.354
Mof_C 	C 	0.75973	0.16746	0.15607	0.308
Mof_C 	C 	0.89715	0.40316	0.96497	0.074
Mof_H 	H 	0.87523	0.39377	0.00147	-0.002
Mof_C 	C 	0.93699	0.42651	0.99157	-0.15
Mof_H 	H 	0.94203	0.43247	0.04547	0.079
Mof_C 	C 	0.97007	0.44152	0.93977	0.1
Mof_C 	C 	0.96047	0.43339	0.86087	-0.154
Mof_H 	H 	0.98173	0.44447	0.82287	0.08
Mof_C 	C 	0.9196	0.40893	0.83827	0.078
Mof_H 	H 	0.91363	0.40297	0.78457	0.002
Mof_C 	C 	0.01339	0.46193	0.96477	-0.086
Mof_H 	H 	0.03403	0.47217	0.92557	0.055
Mof_C 	C 	0.02583	0.46714	0.03877	-0.082
Mof_H 	H 	0.00533	0.46137	0.07697	0.055
Mof_C 	C 	0.06758	0.48081	0.06807	0.102
Mof_C 	C 	0.07271	0.47793	0.14777	-0.151
Mof_H 	H 	0.05023	0.47057	0.18217	0.079
Mof_C 	C 	0.11016	0.48565	0.17677	0.08
Mof_H 	H 	0.11253	0.48277	0.23107	0.003
Mof_C 	C 	0.13931	0.50152	0.05607	0.08
Mof_H 	H 	0.16283	0.51037	0.02377	-0.005
Mof_C 	C 	0.10261	0.49396	0.02197	-0.154
Mof_H 	H 	0.10133	0.49777	0.96767	0.082
Mof_C 	C 	0.97808	0.26848	0.24397	0.093
Mof_H 	H 	0.99073	0.26587	0.19817	-0.008
Mof_C 	C 	0.00161	0.28321	0.31087	-0.158
Mof_H 	H 	0.02983	0.29057	0.31037	0.086
Mof_C 	C 	0.98377	0.28727	0.37887	0.111
Mof_C 	C 	0.94216	0.27646	0.37507	-0.148
Mof_H 	H 	0.92873	0.27917	0.41967	0.081
Mof_C 	C 	0.92081	0.26181	0.30577	0.079
Mof_H 	H 	0.89253	0.25427	0.30397	0.011
Mof_C 	C 	0.00752	0.30168	0.45047	-0.083
Mof_H 	H 	0.03633	0.31977	0.44617	0.059
Mof_C 	C 	0.99156	0.29121	0.52207	-0.084
Mof_H 	H 	0.96263	0.27377	0.52657	0.06
Mof_C 	C 	0.01575	0.30488	0.59377	0.108
Mof_C 	C 	0.003	0.27954	0.66027	-0.162
Mof_H 	H 	0.97793	0.25397	0.65957	0.087
Mof_C 	C 	0.02702	0.29208	0.72627	0.088
Mof_H 	H 	0.01833	0.27447	0.77037	-0.005
Mof_C 	C 	0.07352	0.35344	0.66807	0.069
Mof_H 	H 	0.09773	0.37967	0.67167	-0
Mof_C 	C 	0.05157	0.3428	0.59957	-0.15
Mof_H 	H 	0.06083	0.36127	0.55667	0.081
Mof_Ni	Ni	0.30913	0.80205	0.18946	1.056
Mof_Ni	Ni	0.43934	0.00785	0.48034	1.083
Mof_O 	O 	0.34607	0.82265	0.28734	-0.421
Mof_O 	O 	0.31242	0.77473	0.3773	-0.282
Mof_O 	O 	0.39328	0.77737	0.27773	-0.291
Mof_O 	O 	0.44807	0.83802	0.24514	-0.429
Mof_O 	O 	0.52678	0.92696	0.53457	-0.377
Mof_O 	O 	0.50484	0.95827	0.45761	-0.386
Mof_O 	O 	0.4471	0.93383	0.60004	-0.281
Mof_O 	O 	0.41776	0.94686	0.49902	-0.418
Mof_N 	N 	0.27355	0.82807	0.2231	-0.237
Mof_N 	N 	0.16971	0.97968	0.4656	-0.235
Mof_N 	N 	0.40882	0.01399	0.5745	-0.236
Mof_N 	N 	0.33844	0.06726	0.0638	-0.245
Mof_C 	C 	0.38144	0.82683	0.406	-0.127
Mof_H 	H 	0.3741	0.81	0.4547	0.08
Mof_C 	C 	0.42211	0.83048	0.3741	-0.114
Mof_H 	H 	0.4287	0.8132	0.4091	0.07
Mof_C 	C 	0.39022	0.87075	0.4292	0.052
Mof_H 	H 	0.3641	0.8702	0.4435	0.023
Mof_C 	C 	0.41984	0.88413	0.4993	-0.13
Mof_H 	H 	0.4065	0.8623	0.54	0.077
Mof_C 	C 	0.46051	0.88502	0.4735	-0.118
Mof_H 	H 	0.4624	0.8628	0.5021	0.077
Mof_C 	C 	0.45739	0.87532	0.3845	0.039
Mof_H 	H 	0.4839	0.8785	0.3647	0.028
Mof_C 	C 	0.41153	0.90044	0.3636	-0.045
Mof_H 	H 	0.4006	0.9159	0.3401	0.049
Mof_C 	C 	0.44648	0.90337	0.3412	-0.033
Mof_H 	H 	0.4633	0.9216	0.3014	0.05
Mof_C 	C 	0.34404	0.80604	0.3516	0.349
Mof_C 	C 	0.42039	0.81439	0.2918	0.332
Mof_C 	C 	0.42897	0.92503	0.536	0.354
Mof_C 	C 	0.49921	0.92561	0.4894	0.308
Mof_C 	C 	0.26351	0.82733	0.2983	0.073
Mof_H 	H 	0.2729	0.8148	0.3348	-0.001
Mof_C 	C 	0.24016	0.84382	0.3249	-0.15
Mof_H 	H 	0.2342	0.8429	0.3788	0.079
Mof_C 	C 	0.22515	0.86189	0.2731	0.1
Mof_C 	C 	0.23328	0.86042	0.1942	-0.154
Mof_H 	H 	0.2222	0.8706	0.1562	0.08
Mof_C 	C 	0.25774	0.84401	0.1716	0.078
Mof_H 	H 	0.2637	0.844	0.1179	0.002
Mof_C 	C 	0.20474	0.8848	0.2981	-0.086
Mof_H 	H 	0.1945	0.8952	0.2589	0.055
Mof_C 	C 	0.19953	0.89203	0.3721	-0.083
Mof_H 	H 	0.2053	0.8773	0.4103	0.055
Mof_C 	C 	0.18586	0.92011	0.4014	0.103
Mof_C 	C 	0.18874	0.92812	0.4811	-0.151
Mof_H 	H 	0.1961	0.913	0.5155	0.079
Mof_C 	C 	0.18102	0.95785	0.5101	0.08
Mof_H 	H 	0.1839	0.9631	0.5644	0.003
Mof_C 	C 	0.16515	0.97113	0.3894	0.08
Mof_H 	H 	0.1563	0.9858	0.3571	-0.005
Mof_C 	C 	0.17271	0.94199	0.3553	-0.155
Mof_H 	H 	0.1689	0.9369	0.301	0.083
Mof_C 	C 	0.39819	0.04294	0.5773	0.093
Mof_H 	H 	0.4008	0.0582	0.5315	-0.008
Mof_C 	C 	0.38346	0.05174	0.6442	-0.159
Mof_H 	H 	0.3761	0.0726	0.6437	0.086
Mof_C 	C 	0.3794	0.02984	0.7122	0.112
Mof_C 	C 	0.39021	0.99904	0.7084	-0.148
Mof_H 	H 	0.3875	0.9829	0.753	0.081
Mof_C 	C 	0.40486	0.99234	0.6391	0.079
Mof_H 	H 	0.4124	0.9716	0.6373	0.011
Mof_C 	C 	0.36499	0.03918	0.7838	-0.083
Mof_H 	H 	0.3469	0.0499	0.7795	0.059
Mof_C 	C 	0.37546	0.03369	0.8554	-0.084
Mof_H 	H 	0.3929	0.0222	0.8599	0.06
Mof_C 	C 	0.36179	0.04421	0.9271	0.108
Mof_C 	C 	0.38713	0.0568	0.9936	-0.161
Mof_H 	H 	0.4127	0.0573	0.9929	0.086
Mof_C 	C 	0.37459	0.06828	0.0596	0.087
Mof_H 	H 	0.3922	0.0772	0.1037	-0.005
Mof_C 	C 	0.31323	0.05342	0.0014	0.069
Mof_H 	H 	0.287	0.0514	0.005	-0
Mof_C 	C 	0.32387	0.04211	0.9329	-0.15
Mof_H 	H 	0.3054	0.0329	0.89	0.08
Mof_Ni	Ni	0.9758	0.13538	0.52279	1.056
Mof_Ni	Ni	0.10601	0.34118	0.81367	1.083
Mof_O 	O 	0.01274	0.15598	0.62067	-0.421
Mof_O 	O 	0.97909	0.10806	0.71063	-0.282
Mof_O 	O 	0.05995	0.1107	0.61106	-0.291
Mof_O 	O 	0.11474	0.17135	0.57847	-0.429
Mof_O 	O 	0.19345	0.26029	0.8679	-0.377
Mof_O 	O 	0.17151	0.2916	0.79094	-0.386
Mof_O 	O 	0.11377	0.26716	0.93337	-0.281
Mof_O 	O 	0.08443	0.28019	0.83235	-0.418
Mof_N 	N 	0.94022	0.1614	0.55643	-0.237
Mof_N 	N 	0.83638	0.31301	0.79893	-0.235
Mof_N 	N 	0.07549	0.34732	0.90783	-0.236
Mof_N 	N 	0.00511	0.40059	0.39713	-0.245
Mof_C 	C 	0.04811	0.16016	0.73933	-0.127
Mof_H 	H 	0.04077	0.14333	0.78803	0.08
Mof_C 	C 	0.08878	0.16381	0.70743	-0.114
Mof_H 	H 	0.09537	0.14653	0.74243	0.07
Mof_C 	C 	0.05689	0.20408	0.76253	0.051
Mof_H 	H 	0.03077	0.20353	0.77683	0.023
Mof_C 	C 	0.08651	0.21746	0.83263	-0.13
Mof_H 	H 	0.07317	0.19563	0.87333	0.077
Mof_C 	C 	0.12718	0.21835	0.80683	-0.118
Mof_H 	H 	0.12907	0.19613	0.83543	0.077
Mof_C 	C 	0.12406	0.20865	0.71783	0.039
Mof_H 	H 	0.15057	0.21183	0.69803	0.028
Mof_C 	C 	0.0782	0.23377	0.69693	-0.044
Mof_H 	H 	0.06727	0.24923	0.67343	0.049
Mof_C 	C 	0.11315	0.2367	0.67453	-0.033
Mof_H 	H 	0.12997	0.25493	0.63473	0.05
Mof_C 	C 	0.01071	0.13937	0.68493	0.349
Mof_C 	C 	0.08706	0.14772	0.62513	0.332
Mof_C 	C 	0.09564	0.25836	0.86933	0.354
Mof_C 	C 	0.16588	0.25894	0.82273	0.308
Mof_C 	C 	0.93018	0.16066	0.63163	0.073
Mof_H 	H 	0.93957	0.14813	0.66813	-0.001
Mof_C 	C 	0.90683	0.17715	0.65823	-0.15
Mof_H 	H 	0.90087	0.17623	0.71213	0.079
Mof_C 	C 	0.89182	0.19522	0.60643	0.1
Mof_C 	C 	0.89995	0.19375	0.52753	-0.154
Mof_H 	H 	0.88887	0.20393	0.48953	0.08
Mof_C 	C 	0.92441	0.17734	0.50493	0.078
Mof_H 	H 	0.93037	0.17733	0.45123	0.002
Mof_C 	C 	0.87141	0.21813	0.63143	-0.086
Mof_H 	H 	0.86117	0.22853	0.59223	0.055
Mof_C 	C 	0.8662	0.22536	0.70543	-0.083
Mof_H 	H 	0.87197	0.21063	0.74363	0.055
Mof_C 	C 	0.85253	0.25344	0.73473	0.103
Mof_C 	C 	0.85541	0.26145	0.81443	-0.151
Mof_H 	H 	0.86277	0.24633	0.84883	0.079
Mof_C 	C 	0.84769	0.29118	0.84343	0.08
Mof_H 	H 	0.85057	0.29643	0.89773	0.003
Mof_C 	C 	0.83182	0.30446	0.72273	0.08
Mof_H 	H 	0.82297	0.31913	0.69043	-0.005
Mof_C 	C 	0.83938	0.27532	0.68863	-0.155
Mof_H 	H 	0.83557	0.27023	0.63433	0.083
Mof_C 	C 	0.06486	0.37627	0.91063	0.093
Mof_H 	H 	0.06747	0.39153	0.86483	-0.008
Mof_C 	C 	0.05013	0.38507	0.97753	-0.159
Mof_H 	H 	0.04277	0.40593	0.97703	0.086
Mof_C 	C 	0.04607	0.36317	0.04553	0.112
Mof_C 	C 	0.05688	0.33237	0.04173	-0.148
Mof_H 	H 	0.05417	0.31623	0.08633	0.081
Mof_C 	C 	0.07153	0.32567	0.97243	0.079
Mof_H 	H 	0.07907	0.30493	0.97063	0.011
Mof_C 	C 	0.03166	0.37251	0.11713	-0.083
Mof_H 	H 	0.01357	0.38323	0.11283	0.059
Mof_C 	C 	0.04213	0.36702	0.18873	-0.084
Mof_H 	H 	0.05957	0.35553	0.19323	0.06
Mof_C 	C 	0.02846	0.37754	0.26043	0.108
Mof_C 	C 	0.0538	0.39013	0.32693	-0.162
Mof_H 	H 	0.07937	0.39063	0.32623	0.087
Mof_C 	C 	0.04126	0.40161	0.39293	0.088
Mof_H 	H 	0.05887	0.41053	0.43703	-0.005
Mof_C 	C 	0.9799	0.38675	0.33473	0.069
Mof_H 	H 	0.95367	0.38473	0.33833	-0
Mof_C 	C 	0.99054	0.37544	0.26623	-0.15
Mof_H 	H 	0.97207	0.36623	0.22333	0.081
Mof_Ni	Ni	0.64246	0.46872	0.85613	1.056
Mof_Ni	Ni	0.77267	0.67452	0.14701	1.083
Mof_O 	O 	0.6794	0.48932	0.95401	-0.421
Mof_O 	O 	0.64575	0.4414	0.04397	-0.282
Mof_O 	O 	0.72661	0.44404	0.9444	-0.291
Mof_O 	O 	0.7814	0.50469	0.91181	-0.429
Mof_O 	O 	0.86011	0.59363	0.20124	-0.377
Mof_O 	O 	0.83817	0.62494	0.12428	-0.386
Mof_O 	O 	0.78043	0.6005	0.26671	-0.281
Mof_O 	O 	0.75109	0.61353	0.16569	-0.418
Mof_N 	N 	0.60688	0.49474	0.88977	-0.237
Mof_N 	N 	0.50304	0.64635	0.13227	-0.235
Mof_N 	N 	0.74215	0.68066	0.24117	-0.236
Mof_N 	N 	0.67177	0.73393	0.73047	-0.246
Mof_C 	C 	0.71477	0.4935	0.07267	-0.127
Mof_H 	H 	0.70743	0.47667	0.12137	0.08
Mof_C 	C 	0.75544	0.49715	0.04077	-0.114
Mof_H 	H 	0.76203	0.47987	0.07577	0.07
Mof_C 	C 	0.72355	0.53742	0.09587	0.051
Mof_H 	H 	0.69743	0.53687	0.11017	0.023
Mof_C 	C 	0.75317	0.5508	0.16597	-0.13
Mof_H 	H 	0.73983	0.52897	0.20667	0.077
Mof_C 	C 	0.79384	0.55169	0.14017	-0.118
Mof_H 	H 	0.79573	0.52947	0.16877	0.077
Mof_C 	C 	0.79072	0.54199	0.05117	0.04
Mof_H 	H 	0.81723	0.54517	0.03137	0.028
Mof_C 	C 	0.74486	0.56711	0.03027	-0.044
Mof_H 	H 	0.73393	0.58257	0.00677	0.049
Mof_C 	C 	0.77981	0.57004	0.00787	-0.033
Mof_H 	H 	0.79663	0.58827	0.96807	0.05
Mof_C 	C 	0.67737	0.47271	0.01827	0.349
Mof_C 	C 	0.75372	0.48106	0.95847	0.333
Mof_C 	C 	0.7623	0.5917	0.20267	0.354
Mof_C 	C 	0.83254	0.59228	0.15607	0.308
Mof_C 	C 	0.59684	0.494	0.96497	0.073
Mof_H 	H 	0.60623	0.48147	0.00147	-0.002
Mof_C 	C 	0.57349	0.51049	0.99157	-0.15
Mof_H 	H 	0.56753	0.50957	0.04547	0.079
Mof_C 	C 	0.55848	0.52856	0.93977	0.1
Mof_C 	C 	0.56661	0.52709	0.86087	-0.154
Mof_H 	H 	0.55553	0.53727	0.82287	0.08
Mof_C 	C 	0.59107	0.51068	0.83827	0.078
Mof_H 	H 	0.59703	0.51067	0.78457	0.002
Mof_C 	C 	0.53807	0.55147	0.96477	-0.086
Mof_H 	H 	0.52783	0.56187	0.92557	0.055
Mof_C 	C 	0.53286	0.5587	0.03877	-0.083
Mof_H 	H 	0.53863	0.54397	0.07697	0.055
Mof_C 	C 	0.51919	0.58678	0.06807	0.103
Mof_C 	C 	0.52207	0.59479	0.14777	-0.151
Mof_H 	H 	0.52943	0.57967	0.18217	0.079
Mof_C 	C 	0.51435	0.62452	0.17677	0.08
Mof_H 	H 	0.51723	0.62977	0.23107	0.003
Mof_C 	C 	0.49848	0.6378	0.05607	0.08
Mof_H 	H 	0.48963	0.65247	0.02377	-0.005
Mof_C 	C 	0.50604	0.60866	0.02197	-0.155
Mof_H 	H 	0.50223	0.60357	0.96767	0.082
Mof_C 	C 	0.73152	0.70961	0.24397	0.093
Mof_H 	H 	0.73413	0.72487	0.19817	-0.008
Mof_C 	C 	0.71679	0.71841	0.31087	-0.159
Mof_H 	H 	0.70943	0.73927	0.31037	0.086
Mof_C 	C 	0.71273	0.69651	0.37887	0.111
Mof_C 	C 	0.72354	0.66571	0.37507	-0.148
Mof_H 	H 	0.72083	0.64957	0.41967	0.081
Mof_C 	C 	0.73819	0.65901	0.30577	0.079
Mof_H 	H 	0.74573	0.63827	0.30397	0.011
Mof_C 	C 	0.69832	0.70585	0.45047	-0.083
Mof_H 	H 	0.68023	0.71657	0.44617	0.059
Mof_C 	C 	0.70879	0.70036	0.52207	-0.084
Mof_H 	H 	0.72623	0.68887	0.52657	0.06
Mof_C 	C 	0.69512	0.71088	0.59377	0.108
Mof_C 	C 	0.72046	0.72347	0.66027	-0.162
Mof_H 	H 	0.74603	0.72397	0.65957	0.087
Mof_C 	C 	0.70792	0.73495	0.72627	0.088
Mof_H 	H 	0.72553	0.74387	0.77037	-0.005
Mof_C 	C 	0.64656	0.72009	0.66807	0.069
Mof_H 	H 	0.62033	0.71807	0.67167	-0
Mof_C 	C 	0.6572	0.70878	0.59957	-0.15
Mof_H 	H 	0.63873	0.69957	0.55667	0.081
Mof_Ni	Ni	0.19795	0.50708	0.18946	1.056
Mof_Ni	Ni	0.99215	0.43149	0.48034	1.083
Mof_O 	O 	0.17735	0.52342	0.28734	-0.421
Mof_O 	O 	0.22527	0.53769	0.3773	-0.282
Mof_O 	O 	0.22263	0.61591	0.27773	-0.291
Mof_O 	O 	0.16198	0.61005	0.24514	-0.429
Mof_O 	O 	0.07304	0.59982	0.53457	-0.377
Mof_O 	O 	0.04173	0.54657	0.45761	-0.386
Mof_O 	O 	0.06617	0.51327	0.60004	-0.281
Mof_O 	O 	0.05314	0.4709	0.49902	-0.418
Mof_N 	N 	0.17193	0.44548	0.2231	-0.237
Mof_N 	N 	0.02032	0.19003	0.4656	-0.235
Mof_N 	N 	0.98601	0.39483	0.5745	-0.236
Mof_N 	N 	0.93274	0.27118	0.0638	-0.245
Mof_C 	C 	0.17317	0.55461	0.406	-0.127
Mof_H 	H 	0.19	0.5641	0.4547	0.08
Mof_C 	C 	0.16952	0.59163	0.3741	-0.114
Mof_H 	H 	0.1868	0.6155	0.4091	0.07
Mof_C 	C 	0.12925	0.51947	0.4292	0.052
Mof_H 	H 	0.1298	0.4939	0.4435	0.023
Mof_C 	C 	0.11587	0.53571	0.4993	-0.13
Mof_H 	H 	0.1377	0.5442	0.54	0.077
Mof_C 	C 	0.11498	0.57549	0.4735	-0.118
Mof_H 	H 	0.1372	0.5996	0.5021	0.077
Mof_C 	C 	0.12468	0.58207	0.3845	0.039
Mof_H 	H 	0.1215	0.6054	0.3647	0.028
Mof_C 	C 	0.09956	0.51109	0.3636	-0.045
Mof_H 	H 	0.0841	0.4847	0.3401	0.049
Mof_C 	C 	0.09663	0.54311	0.3412	-0.033
Mof_H 	H 	0.0784	0.5417	0.3014	0.05
Mof_C 	C 	0.19396	0.538	0.3516	0.349
Mof_C 	C 	0.18561	0.606	0.2918	0.332
Mof_C 	C 	0.07497	0.50394	0.536	0.354
Mof_C 	C 	0.07439	0.5736	0.4894	0.308
Mof_C 	C 	0.17267	0.43618	0.2983	0.073
Mof_H 	H 	0.1852	0.4581	0.3348	-0.001
Mof_C 	C 	0.15618	0.39634	0.3249	-0.15
Mof_H 	H 	0.1571	0.3913	0.3788	0.079
Mof_C 	C 	0.13811	0.36326	0.2731	0.1
Mof_C 	C 	0.13958	0.37286	0.1942	-0.154
Mof_H 	H 	0.1294	0.3516	0.1562	0.08
Mof_C 	C 	0.15599	0.41373	0.1716	0.078
Mof_H 	H 	0.156	0.4197	0.1179	0.002
Mof_C 	C 	0.1152	0.31994	0.2981	-0.086
Mof_H 	H 	0.1048	0.2993	0.2589	0.055
Mof_C 	C 	0.10797	0.3075	0.3721	-0.083
Mof_H 	H 	0.1227	0.328	0.4103	0.055
Mof_C 	C 	0.07989	0.26575	0.4014	0.103
Mof_C 	C 	0.07188	0.26062	0.4811	-0.151
Mof_H 	H 	0.087	0.2831	0.5155	0.079
Mof_C 	C 	0.04215	0.22317	0.5101	0.08
Mof_H 	H 	0.0369	0.2208	0.5644	0.003
Mof_C 	C 	0.02887	0.19402	0.3894	0.08
Mof_H 	H 	0.0142	0.1705	0.3571	-0.005
Mof_C 	C 	0.05801	0.23072	0.3553	-0.155
Mof_H 	H 	0.0631	0.232	0.301	0.083
Mof_C 	C 	0.95706	0.35525	0.5773	0.093
Mof_H 	H 	0.9418	0.3426	0.5315	-0.008
Mof_C 	C 	0.94826	0.33172	0.6442	-0.159
Mof_H 	H 	0.9274	0.3035	0.6437	0.086
Mof_C 	C 	0.97016	0.34956	0.7122	0.112
Mof_C 	C 	0.00096	0.39117	0.7084	-0.148
Mof_H 	H 	0.0171	0.4046	0.753	0.081
Mof_C 	C 	0.00766	0.41252	0.6391	0.079
Mof_H 	H 	0.0284	0.4408	0.6373	0.011
Mof_C 	C 	0.96082	0.32581	0.7838	-0.083
Mof_H 	H 	0.9501	0.297	0.7795	0.059
Mof_C 	C 	0.96631	0.34177	0.8554	-0.084
Mof_H 	H 	0.9778	0.3707	0.8599	0.06
Mof_C 	C 	0.95579	0.31758	0.9271	0.108
Mof_C 	C 	0.9432	0.33033	0.9936	-0.161
Mof_H 	H 	0.9427	0.3554	0.9929	0.086
Mof_C 	C 	0.93172	0.30631	0.0596	0.087
Mof_H 	H 	0.9228	0.315	0.1037	-0.005
Mof_C 	C 	0.94658	0.25981	0.0014	0.069
Mof_H 	H 	0.9486	0.2356	0.005	-0
Mof_C 	C 	0.95789	0.28176	0.9329	-0.15
Mof_H 	H 	0.9671	0.2725	0.89	0.08
Mof_Ni	Ni	0.86462	0.84041	0.52279	1.056
Mof_Ni	Ni	0.65882	0.76482	0.81367	1.083
Mof_O 	O 	0.84402	0.85675	0.62067	-0.421
Mof_O 	O 	0.89194	0.87102	0.71063	-0.282
Mof_O 	O 	0.8893	0.94924	0.61106	-0.291
Mof_O 	O 	0.82865	0.94338	0.57847	-0.429
Mof_O 	O 	0.73971	0.93315	0.8679	-0.377
Mof_O 	O 	0.7084	0.8799	0.79094	-0.386
Mof_O 	O 	0.73284	0.8466	0.93337	-0.281
Mof_O 	O 	0.71981	0.80423	0.83235	-0.418
Mof_N 	N 	0.8386	0.77881	0.55643	-0.237
Mof_N 	N 	0.68699	0.52336	0.79893	-0.235
Mof_N 	N 	0.65268	0.72816	0.90783	-0.236
Mof_N 	N 	0.59941	0.60451	0.39713	-0.246
Mof_C 	C 	0.83984	0.88794	0.73933	-0.127
Mof_H 	H 	0.85667	0.89743	0.78803	0.08
Mof_C 	C 	0.83619	0.92496	0.70743	-0.114
Mof_H 	H 	0.85347	0.94883	0.74243	0.07
Mof_C 	C 	0.79592	0.8528	0.76253	0.052
Mof_H 	H 	0.79647	0.82723	0.77683	0.023
Mof_C 	C 	0.78254	0.86904	0.83263	-0.13
Mof_H 	H 	0.80437	0.87753	0.87333	0.077
Mof_C 	C 	0.78165	0.90882	0.80683	-0.118
Mof_H 	H 	0.80387	0.93293	0.83543	0.077
Mof_C 	C 	0.79135	0.9154	0.71783	0.039
Mof_H 	H 	0.78817	0.93873	0.69803	0.028
Mof_C 	C 	0.76623	0.84442	0.69693	-0.045
Mof_H 	H 	0.75077	0.81803	0.67343	0.049
Mof_C 	C 	0.7633	0.87644	0.67453	-0.033
Mof_H 	H 	0.74507	0.87503	0.63473	0.05
Mof_C 	C 	0.86063	0.87133	0.68493	0.349
Mof_C 	C 	0.85228	0.93933	0.62513	0.332
Mof_C 	C 	0.74164	0.83727	0.86933	0.354
Mof_C 	C 	0.74106	0.90693	0.82273	0.308
Mof_C 	C 	0.83934	0.76951	0.63163	0.073
Mof_H 	H 	0.85187	0.79143	0.66813	-0.001
Mof_C 	C 	0.82285	0.72967	0.65823	-0.15
Mof_H 	H 	0.82377	0.72463	0.71213	0.079
Mof_C 	C 	0.80478	0.69659	0.60643	0.1
Mof_C 	C 	0.80625	0.70619	0.52753	-0.154
Mof_H 	H 	0.79607	0.68493	0.48953	0.08
Mof_C 	C 	0.82266	0.74706	0.50493	0.078
Mof_H 	H 	0.82267	0.75303	0.45123	0.002
Mof_C 	C 	0.78187	0.65327	0.63143	-0.086
Mof_H 	H 	0.77147	0.63263	0.59223	0.055
Mof_C 	C 	0.77464	0.64083	0.70543	-0.083
Mof_H 	H 	0.78937	0.66133	0.74363	0.055
Mof_C 	C 	0.74656	0.59908	0.73473	0.103
Mof_C 	C 	0.73855	0.59395	0.81443	-0.151
Mof_H 	H 	0.75367	0.61643	0.84883	0.079
Mof_C 	C 	0.70882	0.5565	0.84343	0.08
Mof_H 	H 	0.70357	0.55413	0.89773	0.003
Mof_C 	C 	0.69554	0.52735	0.72273	0.08
Mof_H 	H 	0.68087	0.50383	0.69043	-0.005
Mof_C 	C 	0.72468	0.56405	0.68863	-0.155
Mof_H 	H 	0.72977	0.56533	0.63433	0.083
Mof_C 	C 	0.62373	0.68858	0.91063	0.093
Mof_H 	H 	0.60847	0.67593	0.86483	-0.008
Mof_C 	C 	0.61493	0.66505	0.97753	-0.159
Mof_H 	H 	0.59407	0.63683	0.97703	0.086
Mof_C 	C 	0.63683	0.68289	0.04553	0.111
Mof_C 	C 	0.66763	0.7245	0.04173	-0.148
Mof_H 	H 	0.68377	0.73793	0.08633	0.081
Mof_C 	C 	0.67433	0.74585	0.97243	0.079
Mof_H 	H 	0.69507	0.77413	0.97063	0.011
Mof_C 	C 	0.62749	0.65914	0.11713	-0.083
Mof_H 	H 	0.61677	0.63033	0.11283	0.059
Mof_C 	C 	0.63298	0.6751	0.18873	-0.084
Mof_H 	H 	0.64447	0.70403	0.19323	0.06
Mof_C 	C 	0.62246	0.65091	0.26043	0.108
Mof_C 	C 	0.60987	0.66366	0.32693	-0.162
Mof_H 	H 	0.60937	0.68873	0.32623	0.087
Mof_C 	C 	0.59839	0.63964	0.39293	0.088
Mof_H 	H 	0.58947	0.64833	0.43703	-0.005
Mof_C 	C 	0.61325	0.59314	0.33473	0.069
Mof_H 	H 	0.61527	0.56893	0.33833	-0
Mof_C 	C 	0.62456	0.61509	0.26623	-0.15
Mof_H 	H 	0.63377	0.60583	0.22333	0.081
Mof_Ni	Ni	0.53128	0.17375	0.85613	1.056
Mof_Ni	Ni	0.32548	0.09816	0.14701	1.083
Mof_O 	O 	0.51068	0.19009	0.95401	-0.42
Mof_O 	O 	0.5586	0.20436	0.04397	-0.282
Mof_O 	O 	0.55596	0.28258	0.9444	-0.291
Mof_O 	O 	0.49531	0.27672	0.91181	-0.429
Mof_O 	O 	0.40637	0.26649	0.20124	-0.377
Mof_O 	O 	0.37506	0.21324	0.12428	-0.386
Mof_O 	O 	0.3995	0.17994	0.26671	-0.281
Mof_O 	O 	0.38647	0.13757	0.16569	-0.418
Mof_N 	N 	0.50526	0.11215	0.88977	-0.237
Mof_N 	N 	0.35365	0.8567	0.13227	-0.235
Mof_N 	N 	0.31934	0.0615	0.24117	-0.236
Mof_N 	N 	0.26607	0.93785	0.73047	-0.246
Mof_C 	C 	0.5065	0.22128	0.07267	-0.127
Mof_H 	H 	0.52333	0.23077	0.12137	0.08
Mof_C 	C 	0.50285	0.2583	0.04077	-0.114
Mof_H 	H 	0.52013	0.28217	0.07577	0.07
Mof_C 	C 	0.46258	0.18614	0.09587	0.051
Mof_H 	H 	0.46313	0.16057	0.11017	0.023
Mof_C 	C 	0.4492	0.20238	0.16597	-0.13
Mof_H 	H 	0.47103	0.21087	0.20667	0.077
Mof_C 	C 	0.44831	0.24216	0.14017	-0.118
Mof_H 	H 	0.47053	0.26627	0.16877	0.077
Mof_C 	C 	0.45801	0.24874	0.05117	0.04
Mof_H 	H 	0.45483	0.27207	0.03137	0.028
Mof_C 	C 	0.43289	0.17776	0.03027	-0.044
Mof_H 	H 	0.41743	0.15137	0.00677	0.049
Mof_C 	C 	0.42996	0.20978	0.00787	-0.033
Mof_H 	H 	0.41173	0.20837	0.96807	0.05
Mof_C 	C 	0.52729	0.20467	0.01827	0.349
Mof_C 	C 	0.51894	0.27267	0.95847	0.333
Mof_C 	C 	0.4083	0.17061	0.20267	0.354
Mof_C 	C 	0.40772	0.24027	0.15607	0.308
Mof_C 	C 	0.506	0.10285	0.96497	0.074
Mof_H 	H 	0.51853	0.12477	0.00147	-0.002
Mof_C 	C 	0.48951	0.06301	0.99157	-0.15
Mof_H 	H 	0.49043	0.05797	0.04547	0.079
Mof_C 	C 	0.47144	0.02993	0.93977	0.1
Mof_C 	C 	0.47291	0.03953	0.86087	-0.154
Mof_H 	H 	0.46273	0.01827	0.82287	0.08
Mof_C 	C 	0.48932	0.0804	0.83827	0.078
Mof_H 	H 	0.48933	0.08637	0.78457	0.002
Mof_C 	C 	0.44853	0.98661	0.96477	-0.086
Mof_H 	H 	0.43813	0.96597	0.92557	0.055
Mof_C 	C 	0.4413	0.97417	0.03877	-0.082
Mof_H 	H 	0.45603	0.99467	0.07697	0.055
Mof_C 	C 	0.41322	0.93242	0.06807	0.102
Mof_C 	C 	0.40521	0.92729	0.14777	-0.151
Mof_H 	H 	0.42033	0.94977	0.18217	0.079
Mof_C 	C 	0.37548	0.88984	0.17677	0.08
Mof_H 	H 	0.37023	0.88747	0.23107	0.003
Mof_C 	C 	0.3622	0.86069	0.05607	0.08
Mof_H 	H 	0.34753	0.83717	0.02377	-0.005
Mof_C 	C 	0.39134	0.89739	0.02197	-0.154
Mof_H 	H 	0.39643	0.89867	0.96767	0.082
Mof_C 	C 	0.29039	0.02192	0.24397	0.092
Mof_H 	H 	0.27513	0.00927	0.19817	-0.008
Mof_C 	C 	0.28159	0.99839	0.31087	-0.158
Mof_H 	H 	0.26073	0.97017	0.31037	0.086
Mof_C 	C 	0.30349	0.01623	0.37887	0.111
Mof_C 	C 	0.33429	0.05784	0.37507	-0.148
Mof_H 	H 	0.35043	0.07127	0.41967	0.081
Mof_C 	C 	0.34099	0.07919	0.30577	0.079
Mof_H 	H 	0.36173	0.10747	0.30397	0.011
Mof_C 	C 	0.29415	0.99248	0.45047	-0.083
Mof_H 	H 	0.28343	0.96367	0.44617	0.059
Mof_C 	C 	0.29964	0.00844	0.52207	-0.084
Mof_H 	H 	0.31113	0.03737	0.52657	0.06
Mof_C 	C 	0.28912	0.98425	0.59377	0.108
Mof_C 	C 	0.27653	0.997	0.66027	-0.162
Mof_H 	H 	0.27603	0.02207	0.65957	0.087
Mof_C 	C 	0.26505	0.97298	0.72627	0.088
Mof_H 	H 	0.25613	0.98167	0.77037	-0.005
Mof_C 	C 	0.27991	0.92648	0.66807	0.069
Mof_H 	H 	0.28193	0.90227	0.67167	-0
Mof_C 	C 	0.29122	0.94843	0.59957	-0.15
Mof_H 	H 	0.30043	0.93917	0.55667	0.081
_end
