data_functionalizedCrystal
_audit_creation_method	'EQeq! by Chris Wilmer'
_symmetry_space_group_name_H-M	'P1'
_symmetry_Int_Tables_number	1
_symmetry_cell_setting	triclinic
loop_
_symmetry_equiv_pos_as_xyz
  x,y,z
_cell_length_a	15.3213
_cell_length_b	15.3213
_cell_length_c	32.571
_cell_angle_alpha	90
_cell_angle_beta	90
_cell_angle_gamma	120
loop_
_atom_site_label
_atom_site_type_symbol
_atom_site_fract_x
_atom_site_fract_y
_atom_site_fract_z
_atom_site_charge
Mof_In	In	0.42035	0.8407	0.40789	2.419
Mof_In	In	0.42035	0.57965	0.40789	2.415
Mof_In	In	0.1593	0.57965	0.40789	2.41
Mof_In	In	0.57965	0.1593	0.90789	2.418
Mof_In	In	0.57965	0.42035	0.90789	2.422
Mof_In	In	0.8407	0.42035	0.90789	2.427
Mof_In	In	0.57965	0.1593	0.59211	2.41
Mof_In	In	0.8407	0.42035	0.59211	2.419
Mof_In	In	0.57965	0.42035	0.59211	2.415
Mof_In	In	0.42035	0.8407	0.09211	2.41
Mof_In	In	0.1593	0.57965	0.09211	2.401
Mof_In	In	0.42035	0.57965	0.09211	2.405
Mof_In	In	0.5	0	0.5	2.805
Mof_In	In	0.5	0.5	0.5	2.945
Mof_In	In	7.18424e-18	0.5	0.5	2.799
Mof_In	In	0.5	0	-0	2.534
Mof_In	In	0.5	0.5	-0	2.665
Mof_In	In	-0	0.5	-0	2.517
Mof_In	In	0.07726	0.15452	0.25	2.217
Mof_In	In	0.07726	0.92274	0.25	2.327
Mof_In	In	0.84548	0.92274	0.25	2.505
Mof_In	In	0.92274	0.84548	0.75	2.506
Mof_In	In	0.92274	0.07726	0.75	2.332
Mof_In	In	0.15452	0.07726	0.75	2.223
Mof_H 	H 	0.2828	0.0102	0.3552	-0.081
Mof_H 	H 	0.7274	0.7172	0.3552	-0.069
Mof_H 	H 	0.9898	0.2726	0.3552	-0.059
Mof_H 	H 	0.7172	0.9898	0.8552	-0.052
Mof_H 	H 	0.2726	0.2828	0.8552	-0.067
Mof_H 	H 	0.0102	0.7274	0.8552	-0.074
Mof_H 	H 	0.2726	0.9898	0.6448	-0.06
Mof_H 	H 	0.0102	0.2828	0.6448	-0.081
Mof_H 	H 	0.7172	0.7274	0.6448	-0.069
Mof_H 	H 	0.7274	0.0102	0.1448	-0.079
Mof_H 	H 	0.9898	0.7172	0.1448	-0.057
Mof_H 	H 	0.2828	0.2726	0.1448	-0.073
Mof_H 	H 	0.7172	0.9898	0.6448	-0.058
Mof_H 	H 	0.2726	0.2828	0.6448	-0.073
Mof_H 	H 	0.0102	0.7274	0.6448	-0.08
Mof_H 	H 	0.2828	0.0102	0.1448	-0.081
Mof_H 	H 	0.7274	0.7172	0.1448	-0.069
Mof_H 	H 	0.9898	0.2726	0.1448	-0.059
Mof_H 	H 	0.7274	0.0102	0.3552	-0.079
Mof_H 	H 	0.9898	0.7172	0.3552	-0.057
Mof_H 	H 	0.2828	0.2726	0.3552	-0.073
Mof_H 	H 	0.2726	0.9898	0.8552	-0.054
Mof_H 	H 	0.0102	0.2828	0.8552	-0.075
Mof_H 	H 	0.7172	0.7274	0.8552	-0.063
Mof_H 	H 	0.4246	0.2123	0.4456	-0.044
Mof_H 	H 	0.7877	0.5754	0.4456	-0.045
Mof_H 	H 	0.7877	0.2123	0.4456	-0.043
Mof_H 	H 	0.5754	0.7877	0.9456	-0.023
Mof_H 	H 	0.2123	0.4246	0.9456	-0.021
Mof_H 	H 	0.2123	0.7877	0.9456	-0.021
Mof_H 	H 	0.2123	0.7877	0.5544	-0.043
Mof_H 	H 	0.2123	0.4246	0.5544	-0.043
Mof_H 	H 	0.5754	0.7877	0.5544	-0.045
Mof_H 	H 	0.7877	0.2123	0.0544	-0.053
Mof_H 	H 	0.7877	0.5754	0.0544	-0.055
Mof_H 	H 	0.4246	0.2123	0.0544	-0.054
Mof_C 	C 	0.3911	0.0318	0.4227	0.591
Mof_C 	C 	0.3588	0.0994	0.4031	-0.333
Mof_C 	C 	0.302	0.0721	0.3673	0.237
Mof_C 	C 	0.6407	0.6089	0.4227	0.648
Mof_C 	C 	0.7406	0.6412	0.4031	-0.342
Mof_C 	C 	0.7701	0.698	0.3673	0.253
Mof_C 	C 	0.9682	0.3593	0.4227	0.69
Mof_C 	C 	0.9006	0.2594	0.4031	-0.346
Mof_C 	C 	0.9279	0.2299	0.3673	0.252
Mof_C 	C 	0.6089	0.9682	0.9227	0.67
Mof_C 	C 	0.6412	0.9006	0.9031	-0.323
Mof_C 	C 	0.698	0.9279	0.8673	0.245
Mof_C 	C 	0.3593	0.3911	0.9227	0.62
Mof_C 	C 	0.2594	0.3588	0.9031	-0.317
Mof_C 	C 	0.2299	0.302	0.8673	0.231
Mof_C 	C 	0.0318	0.6407	0.9227	0.567
Mof_C 	C 	0.0994	0.7406	0.9031	-0.306
Mof_C 	C 	0.0721	0.7701	0.8673	0.228
Mof_C 	C 	0.3593	0.9682	0.5773	0.688
Mof_C 	C 	0.2594	0.9006	0.5969	-0.346
Mof_C 	C 	0.2299	0.9279	0.6327	0.252
Mof_C 	C 	0.0318	0.3911	0.5773	0.588
Mof_C 	C 	0.0994	0.3588	0.5969	-0.332
Mof_C 	C 	0.0721	0.302	0.6327	0.237
Mof_C 	C 	0.6089	0.6407	0.5773	0.648
Mof_C 	C 	0.6412	0.7406	0.5969	-0.342
Mof_C 	C 	0.698	0.7701	0.6327	0.253
Mof_C 	C 	0.6407	0.0318	0.0773	0.58
Mof_C 	C 	0.7406	0.0994	0.0969	-0.332
Mof_C 	C 	0.7701	0.0721	0.1327	0.239
Mof_C 	C 	0.9682	0.6089	0.0773	0.682
Mof_C 	C 	0.9006	0.6412	0.0969	-0.348
Mof_C 	C 	0.9279	0.698	0.1327	0.255
Mof_C 	C 	0.3911	0.3593	0.0773	0.63
Mof_C 	C 	0.3588	0.2594	0.0969	-0.343
Mof_C 	C 	0.302	0.2299	0.1327	0.241
Mof_C 	C 	0.6089	0.9682	0.5773	0.692
Mof_C 	C 	0.6412	0.9006	0.5969	-0.347
Mof_C 	C 	0.698	0.9279	0.6327	0.257
Mof_C 	C 	0.3593	0.3911	0.5773	0.643
Mof_C 	C 	0.2594	0.3588	0.5969	-0.342
Mof_C 	C 	0.2299	0.302	0.6327	0.243
Mof_C 	C 	0.0318	0.6407	0.5773	0.588
Mof_C 	C 	0.0994	0.7406	0.5969	-0.331
Mof_C 	C 	0.0721	0.7701	0.6327	0.24
Mof_C 	C 	0.3911	0.0318	0.0773	0.579
Mof_C 	C 	0.3588	0.0994	0.0969	-0.334
Mof_C 	C 	0.302	0.0721	0.1327	0.235
Mof_C 	C 	0.6407	0.6089	0.0773	0.635
Mof_C 	C 	0.7406	0.6412	0.0969	-0.342
Mof_C 	C 	0.7701	0.698	0.1327	0.25
Mof_C 	C 	0.9682	0.3593	0.0773	0.678
Mof_C 	C 	0.9006	0.2594	0.0969	-0.347
Mof_C 	C 	0.9279	0.2299	0.1327	0.25
Mof_C 	C 	0.6407	0.0318	0.4227	0.591
Mof_C 	C 	0.7406	0.0994	0.4031	-0.331
Mof_C 	C 	0.7701	0.0721	0.3673	0.24
Mof_C 	C 	0.9682	0.6089	0.4227	0.694
Mof_C 	C 	0.9006	0.6412	0.4031	-0.347
Mof_C 	C 	0.9279	0.698	0.3673	0.257
Mof_C 	C 	0.3911	0.3593	0.4227	0.643
Mof_C 	C 	0.3588	0.2594	0.4031	-0.342
Mof_C 	C 	0.302	0.2299	0.3673	0.243
Mof_C 	C 	0.3593	0.9682	0.9227	0.665
Mof_C 	C 	0.2594	0.9006	0.9031	-0.321
Mof_C 	C 	0.2299	0.9279	0.8673	0.239
Mof_C 	C 	0.0318	0.3911	0.9227	0.567
Mof_C 	C 	0.0994	0.3588	0.9031	-0.308
Mof_C 	C 	0.0721	0.302	0.8673	0.225
Mof_C 	C 	0.6089	0.6407	0.9227	0.625
Mof_C 	C 	0.6412	0.7406	0.9031	-0.317
Mof_C 	C 	0.698	0.7701	0.8673	0.24
Mof_C 	C 	0.2064	0.1032	0.3112	0.597
Mof_C 	C 	0.2736	0.1368	0.3494	-0.336
Mof_C 	C 	0.3872	0.1936	0.4215	0.228
Mof_C 	C 	0.8968	0.7936	0.3112	0.612
Mof_C 	C 	0.8632	0.7264	0.3494	-0.33
Mof_C 	C 	0.8064	0.6128	0.4215	0.246
Mof_C 	C 	0.8968	0.1032	0.3112	0.606
Mof_C 	C 	0.8632	0.1368	0.3494	-0.332
Mof_C 	C 	0.8064	0.1936	0.4215	0.234
Mof_C 	C 	0.7936	0.8968	0.8112	0.61
Mof_C 	C 	0.7264	0.8632	0.8494	-0.319
Mof_C 	C 	0.6128	0.8064	0.9215	0.228
Mof_C 	C 	0.1032	0.2064	0.8112	0.595
Mof_C 	C 	0.1368	0.2736	0.8494	-0.325
Mof_C 	C 	0.1936	0.3872	0.9215	0.21
Mof_C 	C 	0.1032	0.8968	0.8112	0.604
Mof_C 	C 	0.1368	0.8632	0.8494	-0.321
Mof_C 	C 	0.1936	0.8064	0.9215	0.216
Mof_C 	C 	0.1032	0.8968	0.6888	0.606
Mof_C 	C 	0.1368	0.8632	0.6506	-0.333
Mof_C 	C 	0.1936	0.8064	0.5785	0.234
Mof_C 	C 	0.1032	0.2064	0.6888	0.597
Mof_C 	C 	0.1368	0.2736	0.6506	-0.336
Mof_C 	C 	0.1936	0.3872	0.5785	0.227
Mof_C 	C 	0.7936	0.8968	0.6888	0.612
Mof_C 	C 	0.7264	0.8632	0.6506	-0.33
Mof_C 	C 	0.6128	0.8064	0.5785	0.245
Mof_C 	C 	0.8968	0.1032	0.1888	0.605
Mof_C 	C 	0.8632	0.1368	0.1506	-0.332
Mof_C 	C 	0.8064	0.1936	0.0785	0.231
Mof_C 	C 	0.8968	0.7936	0.1888	0.611
Mof_C 	C 	0.8632	0.7264	0.1506	-0.33
Mof_C 	C 	0.8064	0.6128	0.0785	0.242
Mof_C 	C 	0.2064	0.1032	0.1888	0.596
Mof_C 	C 	0.2736	0.1368	0.1506	-0.337
Mof_C 	C 	0.3872	0.1936	0.0785	0.224
Mof_O 	O 	0.1831	0.165	0.29715	-0.708
Mof_O 	O 	0.3799	0.9583	0.40149	-0.693
Mof_O 	O 	0.4277	0.0541	0.45822	-0.741
Mof_O 	O 	0.9819	0.8169	0.29715	-0.689
Mof_O 	O 	0.5784	0.6201	0.40149	-0.734
Mof_O 	O 	0.6264	0.5723	0.45822	-0.758
Mof_O 	O 	0.835	0.0181	0.29715	-0.748
Mof_O 	O 	0.0417	0.4216	0.40149	-0.778
Mof_O 	O 	0.9459	0.3736	0.45822	-0.736
Mof_O 	O 	0.8169	0.835	0.79715	-0.727
Mof_O 	O 	0.6201	0.0417	0.90149	-0.763
Mof_O 	O 	0.5723	0.9459	0.95822	-0.661
Mof_O 	O 	0.0181	0.1831	0.79715	-0.733
Mof_O 	O 	0.4216	0.3799	0.90149	-0.723
Mof_O 	O 	0.3736	0.4277	0.95822	-0.686
Mof_O 	O 	0.165	0.9819	0.79715	-0.686
Mof_O 	O 	0.9583	0.5784	0.90149	-0.676
Mof_O 	O 	0.0541	0.6264	0.95822	-0.661
Mof_O 	O 	0.0181	0.835	0.70285	-0.75
Mof_O 	O 	0.4216	0.0417	0.59851	-0.776
Mof_O 	O 	0.3736	0.9459	0.54178	-0.738
Mof_O 	O 	0.165	0.1831	0.70285	-0.71
Mof_O 	O 	0.9583	0.3799	0.59851	-0.691
Mof_O 	O 	0.0541	0.4277	0.54178	-0.74
Mof_O 	O 	0.8169	0.9819	0.70285	-0.692
Mof_O 	O 	0.6201	0.5784	0.59851	-0.734
Mof_O 	O 	0.5723	0.6264	0.54178	-0.759
Mof_O 	O 	0.9819	0.165	0.20285	-0.685
Mof_O 	O 	0.5784	0.9583	0.09851	-0.685
Mof_O 	O 	0.6264	0.0541	0.04178	-0.721
Mof_O 	O 	0.835	0.8169	0.20285	-0.728
Mof_O 	O 	0.0417	0.6201	0.09851	-0.773
Mof_O 	O 	0.9459	0.5723	0.04178	-0.715
Mof_O 	O 	0.1831	0.0181	0.20285	-0.734
Mof_O 	O 	0.3799	0.4216	0.09851	-0.731
Mof_O 	O 	0.4277	0.3736	0.04178	-0.744
Mof_O 	O 	0.8169	0.835	0.70285	-0.728
Mof_O 	O 	0.6201	0.0417	0.59851	-0.776
Mof_O 	O 	0.5723	0.9459	0.54178	-0.736
Mof_O 	O 	0.0181	0.1831	0.70285	-0.735
Mof_O 	O 	0.4216	0.3799	0.59851	-0.737
Mof_O 	O 	0.3736	0.4277	0.54178	-0.763
Mof_O 	O 	0.165	0.9819	0.70285	-0.688
Mof_O 	O 	0.9583	0.5784	0.59851	-0.688
Mof_O 	O 	0.0541	0.6264	0.54178	-0.738
Mof_O 	O 	0.1831	0.165	0.20285	-0.709
Mof_O 	O 	0.3799	0.9583	0.09851	-0.688
Mof_O 	O 	0.4277	0.0541	0.04178	-0.724
Mof_O 	O 	0.9819	0.8169	0.20285	-0.69
Mof_O 	O 	0.5784	0.6201	0.09851	-0.728
Mof_O 	O 	0.6264	0.5723	0.04178	-0.74
Mof_O 	O 	0.835	0.0181	0.20285	-0.749
Mof_O 	O 	0.0417	0.4216	0.09851	-0.773
Mof_O 	O 	0.9459	0.3736	0.04178	-0.717
Mof_O 	O 	0.9819	0.165	0.29715	-0.685
Mof_O 	O 	0.5784	0.9583	0.40149	-0.689
Mof_O 	O 	0.6264	0.0541	0.45822	-0.739
Mof_O 	O 	0.835	0.8169	0.29715	-0.727
Mof_O 	O 	0.0417	0.6201	0.40149	-0.778
Mof_O 	O 	0.9459	0.5723	0.45822	-0.735
Mof_O 	O 	0.1831	0.0181	0.29715	-0.733
Mof_O 	O 	0.3799	0.4216	0.40149	-0.737
Mof_O 	O 	0.4277	0.3736	0.45822	-0.763
Mof_O 	O 	0.0181	0.835	0.79715	-0.749
Mof_O 	O 	0.4216	0.0417	0.90149	-0.763
Mof_O 	O 	0.3736	0.9459	0.95822	-0.663
Mof_O 	O 	0.165	0.1831	0.79715	-0.708
Mof_O 	O 	0.9583	0.3799	0.90149	-0.68
Mof_O 	O 	0.0541	0.4277	0.95822	-0.664
Mof_O 	O 	0.8169	0.9819	0.79715	-0.69
Mof_O 	O 	0.6201	0.5784	0.90149	-0.72
Mof_O 	O 	0.5723	0.6264	0.95822	-0.682
Mof_O 	O 	0.4287	0.8574	0.4727	-0.879
Mof_O 	O 	0.4287	0.5713	0.4727	-0.91
Mof_O 	O 	0.1426	0.5713	0.4727	-0.897
Mof_O 	O 	0.5713	0.1426	0.9727	-0.821
Mof_O 	O 	0.5713	0.4287	0.9727	-0.832
Mof_O 	O 	0.8574	0.4287	0.9727	-0.801
Mof_O 	O 	0.5713	0.1426	0.5273	-0.897
Mof_O 	O 	0.8574	0.4287	0.5273	-0.878
Mof_O 	O 	0.5713	0.4287	0.5273	-0.91
Mof_O 	O 	0.4287	0.8574	0.0273	-0.868
Mof_O 	O 	0.1426	0.5713	0.0273	-0.884
Mof_O 	O 	0.4287	0.5713	0.0273	-0.897
Mof_O 	O 	3.81239e-33	0	0.25	-1.293
Mof_O 	O 	-3.04991e-32	0	0.75	-1.294
Mof_O 	O 	0.4711	0.73555	0.4062	-0.932
Mof_O 	O 	0.26445	0.5289	0.4062	-0.938
Mof_O 	O 	0.26445	0.73555	0.4062	-0.935
Mof_O 	O 	0.5289	0.26445	0.9062	-0.934
Mof_O 	O 	0.73555	0.4711	0.9062	-0.928
Mof_O 	O 	0.73555	0.26445	0.9062	-0.931
Mof_O 	O 	0.73555	0.26445	0.5938	-0.935
Mof_O 	O 	0.73555	0.4711	0.5938	-0.932
Mof_O 	O 	0.5289	0.26445	0.5938	-0.938
Mof_O 	O 	0.26445	0.73555	0.0938	-0.937
Mof_O 	O 	0.26445	0.5289	0.0938	-0.94
Mof_O 	O 	0.4711	0.73555	0.0938	-0.934
_end
