data_functionalizedCrystal
_audit_creation_method	'EQeq! by Chris Wilmer'
_symmetry_space_group_name_H-M	'P1'
_symmetry_Int_Tables_number	1
_symmetry_cell_setting	triclinic
loop_
_symmetry_equiv_pos_as_xyz
  x,y,z
_cell_length_a	18.057
_cell_length_b	18.057
_cell_length_c	13.4495
_cell_angle_alpha	90
_cell_angle_beta	90
_cell_angle_gamma	90
loop_
_atom_site_label
_atom_site_type_symbol
_atom_site_fract_x
_atom_site_fract_y
_atom_site_fract_z
_atom_site_charge
Mof_C 	C 	0.1442	0.1629	0.5249	0.771
Mof_O 	O 	0.25527	0.23307	0.85267	-0.431
Mof_C 	C 	0.92949	0.22031	0.73015	0.375
Mof_O 	O 	0.8876	0.19548	0.66253	-0.519
Mof_C 	C 	0.18675	0.24656	0.8629	0.357
Mof_C 	C 	0.13528	0.22584	0.78173	-0.14
Mof_C 	C 	0.05928	0.23503	0.79313	0.106
Mof_H 	H 	0.0404	0.2546	0.8518	0.056
Mof_O 	O 	0.16414	0.27841	0.93897	-0.4
Mof_O 	O 	0.90231	0.2484	0.80605	-0.452
Mof_C 	C 	0.1634	0.2192	0.6841	0.878
Mof_C 	C 	0.1174	0.2009	0.6065	-0.613
Mof_C 	C 	0.0403	0.2021	0.6174	-0.79
Mof_C 	C 	0.01188	0.2149	0.71686	-0.174
Mof_C 	C 	0.1458	0.1149	0.5424	-0.411
Mof_C 	C 	0.1635	0.1793	0.7032	-0.73
Mof_C 	C 	0.0373	0.1721	0.639	0.939
Mof_C 	C 	0.1139	0.1575	0.6289	0.409
Mof_O 	O 	0.1149	0.1458	0.4576	-0.363
Mof_C 	C 	0.8558	0.8371	0.0249	1.722
Mof_O 	O 	0.74473	0.76693	0.35267	-0.511
Mof_C 	C 	0.07051	0.77969	0.23015	0.412
Mof_O 	O 	0.1124	0.80452	0.16253	-0.552
Mof_C 	C 	0.81325	0.75344	0.3629	0.399
Mof_C 	C 	0.86472	0.77416	0.28173	-0.251
Mof_C 	C 	0.94072	0.76497	0.29313	0.203
Mof_H 	H 	0.9596	0.7454	0.3518	0.008
Mof_O 	O 	0.83586	0.72159	0.43897	-0.496
Mof_O 	O 	0.09769	0.7516	0.30605	-0.476
Mof_C 	C 	0.8366	0.7808	0.1841	2.126
Mof_C 	C 	0.8826	0.7991	0.1065	-1.477
Mof_C 	C 	0.9597	0.7979	0.1174	-1.987
Mof_C 	C 	0.98812	0.7851	0.21686	-0.31
Mof_C 	C 	0.8542	0.8851	0.0424	-0.979
Mof_C 	C 	0.8365	0.8207	0.2032	-1.891
Mof_C 	C 	0.9627	0.8279	0.139	2.196
Mof_C 	C 	0.8861	0.8425	0.1289	1.008
Mof_O 	O 	0.8851	0.8542	0.9576	-0.122
Mof_C 	C 	0.3371	0.6442	0.7749	0.723
Mof_O 	O 	0.26693	0.75527	0.10267	-0.53
Mof_C 	C 	0.27969	0.42949	0.98015	0.476
Mof_O 	O 	0.30452	0.3876	0.91253	-0.48
Mof_C 	C 	0.25344	0.68675	0.1129	0.385
Mof_C 	C 	0.27416	0.63528	0.03173	-0.246
Mof_C 	C 	0.26497	0.55928	0.04313	0.007
Mof_H 	H 	0.2454	0.5404	0.1018	0.06
Mof_O 	O 	0.22159	0.66414	0.18897	-0.491
Mof_O 	O 	0.2516	0.40231	0.05605	-0.533
Mof_C 	C 	0.2808	0.6634	0.9341	0.955
Mof_C 	C 	0.2991	0.6174	0.8565	-0.599
Mof_C 	C 	0.2979	0.5403	0.8674	-0.794
Mof_C 	C 	0.2851	0.51188	0.96686	-0.095
Mof_C 	C 	0.3851	0.6458	0.7924	-0.382
Mof_C 	C 	0.3207	0.6635	0.9532	-0.691
Mof_C 	C 	0.3279	0.5373	0.889	0.942
Mof_C 	C 	0.3425	0.6139	0.8789	0.401
Mof_O 	O 	0.3542	0.6149	0.7076	-0.363
Mof_C 	C 	0.6629	0.3558	0.2749	0.713
Mof_O 	O 	0.73307	0.24473	0.60267	-0.499
Mof_C 	C 	0.72031	0.57051	0.48015	0.372
Mof_O 	O 	0.69548	0.6124	0.41253	-0.532
Mof_C 	C 	0.74656	0.31325	0.6129	0.364
Mof_C 	C 	0.72584	0.36472	0.53173	-0.149
Mof_C 	C 	0.73503	0.44072	0.54313	0.103
Mof_H 	H 	0.7546	0.4596	0.6018	0.047
Mof_O 	O 	0.77841	0.33586	0.68897	-0.477
Mof_O 	O 	0.7484	0.59769	0.55605	-0.462
Mof_C 	C 	0.7192	0.3366	0.4341	0.87
Mof_C 	C 	0.7009	0.3826	0.3565	-0.596
Mof_C 	C 	0.7021	0.4597	0.3674	-0.786
Mof_C 	C 	0.7149	0.48812	0.46686	-0.178
Mof_C 	C 	0.6149	0.3542	0.2924	-0.409
Mof_C 	C 	0.6793	0.3365	0.4532	-0.737
Mof_C 	C 	0.6721	0.4627	0.389	0.92
Mof_C 	C 	0.6575	0.3861	0.3789	0.407
Mof_O 	O 	0.6458	0.3851	0.2076	-0.384
Mof_C 	C 	0.3558	0.6629	0.7251	-0.009
Mof_O 	O 	0.24473	0.73307	0.39733	-0.489
Mof_C 	C 	0.57051	0.72031	0.51985	0.35
Mof_O 	O 	0.6124	0.69548	0.58747	-0.501
Mof_C 	C 	0.31325	0.74656	0.3871	0.347
Mof_C 	C 	0.36472	0.72584	0.46827	-0.098
Mof_C 	C 	0.44072	0.73503	0.45687	0.047
Mof_H 	H 	0.4596	0.7546	0.3982	0.054
Mof_O 	O 	0.33586	0.77841	0.31103	-0.485
Mof_O 	O 	0.59769	0.7484	0.44395	-0.467
Mof_C 	C 	0.3366	0.7192	0.5659	0.34
Mof_C 	C 	0.3826	0.7009	0.6435	-0.146
Mof_C 	C 	0.4597	0.7021	0.6326	-0.352
Mof_C 	C 	0.48812	0.7149	0.53314	-0.113
Mof_C 	C 	0.3365	0.6793	0.5468	-0.281
Mof_C 	C 	0.4627	0.6721	0.611	0.428
Mof_C 	C 	0.3861	0.6575	0.6211	0.242
Mof_C 	C 	0.6442	0.3371	0.2251	0.009
Mof_O 	O 	0.75527	0.26693	0.89733	-0.457
Mof_C 	C 	0.42949	0.27969	0.01985	0.235
Mof_O 	O 	0.3876	0.30452	0.08747	-0.466
Mof_C 	C 	0.68675	0.25344	0.8871	0.328
Mof_C 	C 	0.63528	0.27416	0.96827	-0
Mof_C 	C 	0.55928	0.26497	0.95687	0.145
Mof_H 	H 	0.5404	0.2454	0.8982	0.041
Mof_O 	O 	0.66414	0.22159	0.81103	-0.469
Mof_O 	O 	0.40231	0.2516	0.94395	-0.322
Mof_C 	C 	0.6634	0.2808	0.0659	0.274
Mof_C 	C 	0.6174	0.2991	0.1435	-0.153
Mof_C 	C 	0.5403	0.2979	0.1326	-0.355
Mof_C 	C 	0.51188	0.2851	0.03314	-0.196
Mof_C 	C 	0.6635	0.3207	0.0468	-0.341
Mof_C 	C 	0.5373	0.3279	0.111	0.421
Mof_C 	C 	0.6139	0.3425	0.1211	0.246
Mof_C 	C 	0.1629	0.1442	0.4751	-0.049
Mof_O 	O 	0.23307	0.25527	0.14733	-0.472
Mof_C 	C 	0.22031	0.92949	0.26985	0.348
Mof_O 	O 	0.19548	0.8876	0.33747	-0.513
Mof_C 	C 	0.24656	0.18675	0.1371	0.343
Mof_C 	C 	0.22584	0.13528	0.21827	-0.105
Mof_C 	C 	0.23503	0.05928	0.20687	0.045
Mof_H 	H 	0.2546	0.0404	0.1482	0.045
Mof_O 	O 	0.27841	0.16414	0.06103	-0.484
Mof_O 	O 	0.2484	0.90231	0.19395	-0.478
Mof_C 	C 	0.2192	0.1634	0.3159	0.336
Mof_C 	C 	0.2009	0.1174	0.3935	-0.132
Mof_C 	C 	0.2021	0.0403	0.3826	-0.354
Mof_C 	C 	0.2149	0.01188	0.28314	-0.12
Mof_C 	C 	0.1793	0.1635	0.2968	-0.291
Mof_C 	C 	0.1721	0.0373	0.361	0.417
Mof_C 	C 	0.1575	0.1139	0.3711	0.238
Mof_C 	C 	0.8371	0.8558	0.9751	-0.726
Mof_O 	O 	0.76693	0.74473	0.64733	-0.477
Mof_C 	C 	0.77969	0.07051	0.76985	0.325
Mof_O 	O 	0.80452	0.1124	0.83747	-0.481
Mof_C 	C 	0.75344	0.81325	0.6371	0.323
Mof_C 	C 	0.77416	0.86472	0.71827	-0.021
Mof_C 	C 	0.76497	0.94072	0.70687	-0.022
Mof_H 	H 	0.7454	0.9596	0.6482	0.084
Mof_O 	O 	0.72159	0.83586	0.56103	-0.467
Mof_O 	O 	0.7516	0.09769	0.69395	-0.457
Mof_C 	C 	0.7808	0.8366	0.8159	-0.49
Mof_C 	C 	0.7991	0.8826	0.8935	0.46
Mof_C 	C 	0.7979	0.9597	0.8826	0.377
Mof_C 	C 	0.7851	0.98812	0.78314	-0.026
Mof_C 	C 	0.8207	0.8365	0.7968	0.465
Mof_C 	C 	0.8279	0.9627	0.861	-0.339
Mof_C 	C 	0.8425	0.8861	0.8711	-0.089
Mof_In	In	0.284	0.284	-0	2.199
Mof_In	In	0.716	0.716	0.5	2.519
Mof_In	In	0.216	0.784	0.25	2.512
Mof_In	In	0.784	0.216	0.75	2.528
_end
