data_functionalizedCrystal
_audit_creation_method	'EQeq! by Chris Wilmer'
_symmetry_space_group_name_H-M	'P1'
_symmetry_Int_Tables_number	1
_symmetry_cell_setting	triclinic
loop_
_symmetry_equiv_pos_as_xyz
  x,y,z
_cell_length_a	14.87
_cell_length_b	19.1101
_cell_length_c	30.659
_cell_angle_alpha	100.493
_cell_angle_beta	90
_cell_angle_gamma	112.896
loop_
_atom_site_label
_atom_site_type_symbol
_atom_site_fract_x
_atom_site_fract_y
_atom_site_fract_z
_atom_site_charge
Mof_Zn	Zn	0.96844	0.22208	0.1727	1.163
Mof_Zn	Zn	0.57909	0.41098	0.84847	1.16
Mof_Zn	Zn	0.50752	0.81804	0.0082	1.162
Mof_Zn	Zn	0.31052	0.81804	0.5082	1.163
Mof_Zn	Zn	0.83189	0.41098	0.34847	1.16
Mof_Zn	Zn	0.25364	0.22208	0.6727	1.163
Mof_H 	H 	0.6938	0.3358	0.4098	-0.013
Mof_H 	H 	0.3771	0.7202	0.072	-0.01
Mof_H 	H 	0.4571	0.0574	0.6242	0.073
Mof_H 	H 	0.2567	0.3636	0.6437	-0.018
Mof_H 	H 	0.7953	0.316	0.748	0.1
Mof_H 	H 	0.9515	0.2714	0.7116	0.088
Mof_H 	H 	0.6003	0.0574	0.1242	0.073
Mof_H 	H 	0.1718	0.285	0.2183	-0.01
Mof_H 	H 	0.7489	0.3852	0.8067	-0.011
Mof_H 	H 	0.5068	0.1824	0.726	0.085
Mof_H 	H 	0.344	0.2156	0.5813	-0.007
Mof_H 	H 	0.568	0.3474	0.4509	0.077
Mof_H 	H 	0.2302	0.611	0.0669	0.087
Mof_H 	H 	0.6534	0.9706	0.5775	0.081
Mof_H 	H 	0.8716	0.2156	0.0813	-0.007
Mof_H 	H 	0.6286	0.557	0.4199	0.07
Mof_H 	H 	0.3431	0.7202	0.572	-0.01
Mof_H 	H 	0.0655	0.1172	0.6139	-0.008
Mof_H 	H 	0.8605	0.2982	0.0372	0.088
Mof_H 	H 	0.3591	0.4618	0.6088	0.091
Mof_H 	H 	0.7895	0.5344	0.8753	-0.005
Mof_H 	H 	0.1849	0.6192	0.9389	0.08
Mof_H 	H 	0.3172	0.9706	0.0775	0.081
Mof_H 	H 	0.6363	0.3852	0.3067	-0.011
Mof_H 	H 	0.1069	0.3636	0.1437	-0.018
Mof_H 	H 	0.7449	0.5344	0.3753	-0.005
Mof_H 	H 	0.4377	0.2982	0.5372	0.092
Mof_H 	H 	0.3733	0.7164	0.4432	-0.011
Mof_H 	H 	0.3487	0.8786	0.0273	0.003
Mof_H 	H 	0.1788	0.0744	0.1208	0.088
Mof_H 	H 	0.7798	0.2522	0.2887	-0.016
Mof_H 	H 	0.3431	0.7164	0.9432	-0.01
Mof_H 	H 	0.1027	0.4618	0.1088	0.089
Mof_H 	H 	0.1132	0.285	0.7183	-0.012
Mof_H 	H 	0.8956	0.0744	0.6208	0.09
Mof_H 	H 	0.3199	0.2714	0.2116	0.087
Mof_H 	H 	0.3808	0.611	0.5669	0.089
Mof_H 	H 	0.5977	0.9328	0.0991	0.021
Mof_H 	H 	0.5299	0.8786	0.5273	0.004
Mof_H 	H 	0.0517	0.1172	0.1139	-0.007
Mof_H 	H 	0.9284	0.557	0.9199	0.07
Mof_H 	H 	0.4343	0.6192	0.4389	0.082
Mof_H 	H 	0.3351	0.9328	0.5991	0.021
Mof_H 	H 	0.5207	0.316	0.248	0.1
Mof_H 	H 	0.7794	0.3474	0.9509	0.078
Mof_H 	H 	0.4724	0.2522	0.7887	-0.016
Mof_H 	H 	0.642	0.3358	0.9098	-0.011
Mof_H 	H 	0.6756	0.1824	0.226	0.085
Mof_C 	C 	0.3982	0.9132	0.0496	0.064
Mof_C 	C 	0.3855	0.381	0.5623	0.077
Mof_C 	C 	0.8046	0.162	0.6649	0.1
Mof_C 	C 	0.6452	0.0918	0.6411	0.098
Mof_C 	C 	0.6529	0.2386	0.7314	0.074
Mof_C 	C 	0.3024	0.3528	0.6245	0.086
Mof_C 	C 	0.6422	0.341	0.2892	0.091
Mof_C 	C 	0.2657	0.1756	0.1612	0.065
Mof_C 	C 	0.2528	0.6336	0.0417	-0.126
Mof_C 	C 	0.5065	0.192	0.1956	0.096
Mof_C 	C 	0.8613	0.4592	0.9476	0.044
Mof_C 	C 	0.5889	0.9698	0.5782	-0.142
Mof_C 	C 	0.3402	0.6964	0.0442	0.076
Mof_C 	C 	0.3499	0.2678	0.5881	0.09
Mof_C 	C 	0.4567	0.0272	0.1088	0.056
Mof_C 	C 	0.786	0.5008	0.8952	0.062
Mof_C 	C 	0.1035	0.1442	0.1365	0.07
Mof_C 	C 	0.4096	0.6364	0.4654	-0.128
Mof_C 	C 	0.5705	0.0272	0.6088	0.057
Mof_C 	C 	0.0105	0.433	0.0301	0.107
Mof_C 	C 	0.6988	0.341	0.7892	0.091
Mof_C 	C 	0.4331	0.5382	0.5015	0.083
Mof_C 	C 	0.9955	0.381	0.0623	0.067
Mof_C 	C 	0.0693	0.2458	0.6955	0.074
Mof_C 	C 	0.4049	0.6048	0.5008	0.063
Mof_C 	C 	0.6449	0.5138	0.4205	-0.11
Mof_C 	C 	0.3985	0.313	0.5585	-0.132
Mof_C 	C 	0.3574	0.162	0.1649	0.101
Mof_C 	C 	0.5501	0.949	0.0888	-0.013
Mof_C 	C 	0.6986	0.383	0.9146	0.06
Mof_C 	C 	0.3185	0.6958	0.9688	0.072
Mof_C 	C 	0.4225	0.433	0.5301	0.102
Mof_C 	C 	0.3809	0.9698	0.0782	-0.142
Mof_C 	C 	0.9493	0.4682	0.9746	0.097
Mof_C 	C 	0.5979	0.4592	0.4476	0.044
Mof_C 	C 	0.7291	0.3016	0.7549	-0.139
Mof_C 	C 	0.2268	0.6364	0.9654	-0.116
Mof_C 	C 	0.9179	0.2678	0.0881	0.086
Mof_C 	C 	0.5725	0.3016	0.2549	-0.139
Mof_C 	C 	0.5432	0.0164	0.1092	-0.047
Mof_C 	C 	0.7148	0.5008	0.3952	0.061
Mof_C 	C 	0.1765	0.2458	0.1955	0.07
Mof_C 	C 	0.3506	0.4092	0.6003	-0.134
Mof_C 	C 	0.6855	0.192	0.6956	0.096
Mof_C 	C 	0.0586	0.4092	0.1003	-0.128
Mof_C 	C 	0.3808	0.6336	0.5417	-0.13
Mof_C 	C 	0.9145	0.313	0.0585	-0.128
Mof_C 	C 	0.5189	0.4682	0.4746	0.092
Mof_C 	C 	0.7795	0.3902	0.9393	-0.106
Mof_C 	C 	0.5374	0.2664	0.78	0.089
Mof_C 	C 	0.9407	0.123	0.6368	-0.127
Mof_C 	C 	0.8689	0.5138	0.9205	-0.109
Mof_C 	C 	0.1823	0.123	0.1368	-0.122
Mof_C 	C 	0.3773	0.6958	0.4688	0.068
Mof_C 	C 	0.729	0.2664	0.28	0.089
Mof_C 	C 	0.4466	0.0918	0.1411	0.097
Mof_C 	C 	0.9099	0.1756	0.6612	0.068
Mof_C 	C 	0.6107	0.3902	0.4393	-0.107
Mof_C 	C 	0.0407	0.1442	0.6365	0.074
Mof_C 	C 	0.6844	0.383	0.4146	0.059
Mof_C 	C 	0.2635	0.237	0.1927	-0.125
Mof_C 	C 	0.9735	0.237	0.6927	-0.13
Mof_C 	C 	0.0504	0.3528	0.1245	0.086
Mof_C 	C 	0.4732	0.0164	0.6092	-0.047
Mof_C 	C 	0.3989	0.949	0.5888	-0.012
Mof_C 	C 	0.1051	0.5382	0.0015	0.081
Mof_C 	C 	0.5595	0.2244	0.7438	-0.141
Mof_C 	C 	0.5857	0.2386	0.2314	0.074
Mof_C 	C 	0.515	0.9132	0.5496	0.065
Mof_C 	C 	0.6649	0.2244	0.2438	-0.141
Mof_C 	C 	0.3562	0.6964	0.5442	0.08
Mof_C 	C 	0.1999	0.6048	0.0008	0.052
Mof_I 	I 	0.42921	0.33788	0.88565	-0.371
Mof_I 	I 	0.63051	0.78322	0.0451	-0.399
Mof_I 	I 	0.60752	0.52444	0.81144	-0.36
Mof_I 	I 	0.52641	0.86382	0.93613	-0.386
Mof_I 	I 	0.32128	0.31436	0.74727	-0.4
Mof_I 	I 	0.33741	0.86382	0.43613	-0.392
Mof_I 	I 	0.81744	0.10028	0.14937	-0.367
Mof_I 	I 	0.91692	0.52444	0.31144	-0.361
Mof_I 	I 	0.15271	0.78322	0.5451	-0.392
Mof_I 	I 	0.28284	0.10028	0.64937	-0.366
Mof_I 	I 	0.99308	0.31436	0.24727	-0.403
Mof_I 	I 	0.90867	0.33788	0.38565	-0.374
Mof_N 	N 	0.7428	0.4422	0.3973	-0.255
Mof_N 	N 	0.6084	0.3258	0.8016	-0.269
Mof_N 	N 	0.031	0.529	0.9712	-0.142
Mof_N 	N 	0.3937	0.49	0.5289	-0.133
Mof_N 	N 	0.3732	0.7244	0.0076	-0.27
Mof_N 	N 	0.3637	0.101	0.1364	-0.134
Mof_N 	N 	0.9759	0.2858	0.1249	-0.286
Mof_N 	N 	0.3099	0.2858	0.6249	-0.285
Mof_N 	N 	0.6121	0.1264	0.675	-0.14
Mof_N 	N 	0.7174	0.3258	0.3016	-0.269
Mof_N 	N 	0.4293	0.2112	0.1954	-0.134
Mof_N 	N 	0.098	0.202	0.1674	-0.267
Mof_N 	N 	0.0963	0.49	0.0289	-0.134
Mof_N 	N 	0.6994	0.4422	0.8973	-0.255
Mof_N 	N 	0.3512	0.7244	0.5076	-0.267
Mof_N 	N 	0.5143	0.1264	0.175	-0.14
Mof_N 	N 	0.7373	0.101	0.6364	-0.133
Mof_N 	N 	0.7819	0.2112	0.6954	-0.134
Mof_N 	N 	0.9301	0.4228	0.0043	-0.139
Mof_N 	N 	0.4927	0.4228	0.5043	-0.132
Mof_N 	N 	0.4211	0.9056	0.5525	-0.254
Mof_N 	N 	0.4845	0.9056	0.0525	-0.255
Mof_N 	N 	0.498	0.529	0.4712	-0.146
Mof_N 	N 	0.104	0.202	0.6674	-0.268
Mof_Zn	Zn	0.9872	0.7236	0.04263	1.166
Mof_Zn	Zn	0.7364	0.7236	0.54263	1.167
Mof_Zn	Zn	0.6014	0.9144	0.7202	1.156
Mof_Zn	Zn	0.313	0.9144	0.2202	1.156
Mof_Zn	Zn	0.05827	0.31894	0.88044	1.169
Mof_Zn	Zn	0.26067	0.31894	0.38044	1.169
Mof_H 	H 	0.1646	0.8454	0.3611	0.081
Mof_H 	H 	0.2564	0.8642	0.6864	0.076
Mof_H 	H 	0.4319	0.6964	0.7932	0.077
Mof_H 	H 	0.1879	0.2352	0.8732	-0.003
Mof_H 	H 	0.9866	0.1064	0.7474	0.098
Mof_H 	H 	0.9236	0.738	0.5801	-0.004
Mof_H 	H 	0.7836	0.8746	0.6125	-0.015
Mof_H 	H 	0.9183	0.1486	0.3232	0.097
Mof_H 	H 	0.0546	0.9586	0.1658	0.067
Mof_H 	H 	0.8221	0.7628	0.4561	-0.008
Mof_H 	H 	0.1682	0.4132	0.451	0
Mof_H 	H 	0.1406	0.5258	0.4541	0.08
Mof_H 	H 	0.8094	0.5964	0.5122	-0.004
Mof_H 	H 	0.787	0.5964	0.0122	-0.018
Mof_H 	H 	0.3093	0.5252	0.8293	0.085
Mof_H 	H 	0.2645	0.6964	0.2932	0.077
Mof_H 	H 	0.091	0.8746	0.1125	-0.016
Mof_H 	H 	0.8144	0.738	0.0801	-0.004
Mof_H 	H 	0.245	0.4132	0.951	0.001
Mof_H 	H 	0.773	0.8192	0.1325	0.091
Mof_H 	H 	0.5099	0.0444	0.2654	-0.007
Mof_H 	H 	0.206	0.918	0.3045	-0.016
Mof_H 	H 	0.957	0.1942	0.8015	-0.011
Mof_H 	H 	0.6671	0.0474	0.2812	0.071
Mof_H 	H 	0.3943	0.8388	0.6891	-0.013
Mof_H 	H 	0.9407	0.7628	0.9561	-0.011
Mof_H 	H 	0.6443	0.5858	0.9716	0.079
Mof_H 	H 	0.8055	0.7624	0.9184	0.083
Mof_H 	H 	0.4851	0.7552	0.7301	-0.01
Mof_H 	H 	0.9415	0.5858	0.4716	0.071
Mof_H 	H 	0.6808	0.8454	0.8611	0.081
Mof_H 	H 	0.2159	0.5252	0.3293	0.085
Mof_H 	H 	0.3803	0.0474	0.7812	0.072
Mof_H 	H 	0.2701	0.7552	0.2301	-0.01
Mof_H 	H 	0.1198	0.1064	0.2474	0.102
Mof_H 	H 	0.4445	0.8388	0.1891	-0.013
Mof_H 	H 	0.2372	0.1942	0.3015	-0.011
Mof_H 	H 	0.5345	0.0444	0.7654	-0.007
Mof_H 	H 	0.168	0.4216	0.8318	-0.027
Mof_H 	H 	0.2536	0.4216	0.3318	-0.027
Mof_H 	H 	0.712	0.918	0.8045	-0.017
Mof_H 	H 	0.3852	0.5258	0.9541	0.081
Mof_H 	H 	0.9569	0.7624	0.4184	0.078
Mof_H 	H 	0.0473	0.2352	0.3732	-0.005
Mof_H 	H 	0.0462	0.8192	0.6325	0.094
Mof_H 	H 	0.6078	0.8642	0.1864	0.076
Mof_H 	H 	0.2303	0.1486	0.8232	0.093
Mof_H 	H 	0.904	0.9586	0.6658	0.067
Mof_C 	C 	0.6615	0.967	0.2281	0.016
Mof_C 	C 	0.847	0.636	0.497	0.056
Mof_C 	C 	0.8401	0.8322	0.1285	-0.118
Mof_C 	C 	0.2137	0.442	0.8572	0.075
Mof_C 	C 	0.2606	0.7772	0.2592	0.052
Mof_C 	C 	0.7979	0.729	0.9389	-0.129
Mof_C 	C 	0.1518	0.2134	0.845	0.081
Mof_C 	C 	0.5536	0.7032	0.8601	0.11
Mof_C 	C 	0.3125	0.9016	0.7044	-0.103
Mof_C 	C 	0.3855	0.0108	0.7569	-0.071
Mof_C 	C 	0.0665	0.9474	0.6937	0.072
Mof_C 	C 	0.9228	0.6276	0.4701	-0.11
Mof_C 	C 	0.8809	0.9474	0.1937	0.07
Mof_C 	C 	0.0061	0.1162	0.2811	0.074
Mof_C 	C 	0.9921	0.8322	0.6285	-0.123
Mof_C 	C 	0.9189	0.783	0.5972	0.069
Mof_C 	C 	0.3434	0.5036	0.9274	-0.126
Mof_C 	C 	0.1409	0.6038	0.3914	0.098
Mof_C 	C 	0.1715	0.1898	0.3035	0.094
Mof_C 	C 	0.8641	0.783	0.0972	0.066
Mof_C 	C 	0.1873	0.8266	0.3343	-0.107
Mof_C 	C 	0.1021	0.133	0.273	-0.148
Mof_C 	C 	0.6541	0.8722	0.8026	0.061
Mof_C 	C 	0.0309	0.133	0.773	-0.14
Mof_C 	C 	0.189	0.754	0.3272	0.057
Mof_C 	C 	0.2056	0.504	0.3555	-0.122
Mof_C 	C 	0.8771	0.7344	0.9642	0.075
Mof_C 	C 	0.4913	0.8868	0.2051	0.051
Mof_C 	C 	0.6253	0.0108	0.2569	-0.07
Mof_C 	C 	0.0183	0.1898	0.8035	0.093
Mof_C 	C 	0.9069	0.9	0.1553	0.056
Mof_C 	C 	0.2984	0.504	0.8555	-0.122
Mof_C 	C 	0.1253	0.0506	0.7515	0.087
Mof_C 	C 	0.9931	0.9	0.6553	0.059
Mof_C 	C 	0.4952	0.7364	0.7933	-0.101
Mof_C 	C 	0.2131	0.9808	0.7304	0.082
Mof_C 	C 	0.9311	0.729	0.4389	-0.116
Mof_C 	C 	0.9671	0.6748	0.4438	0.053
Mof_C 	C 	0.911	0.9144	0.6488	-0.135
Mof_C 	C 	0.0616	0.2134	0.345	0.088
Mof_C 	C 	0.4755	0.0034	0.7518	0.093
Mof_C 	C 	0.9842	0.1576	0.3173	-0.141
Mof_C 	C 	0.8573	0.7344	0.4642	0.061
Mof_C 	C 	0.0439	0.6674	0.4141	0.088
Mof_C 	C 	0.4629	0.6038	0.8914	0.098
Mof_C 	C 	0.1602	0.5036	0.4274	-0.126
Mof_C 	C 	0.789	0.636	0.997	0.085
Mof_C 	C 	0.2181	0.8722	0.3026	0.061
Mof_C 	C 	0.1496	0.7032	0.3601	0.11
Mof_C 	C 	0.7048	0.6276	0.9701	-0.128
Mof_C 	C 	0.1101	0.1162	0.7811	0.065
Mof_C 	C 	0.1681	0.5362	0.3907	0.053
Mof_C 	C 	0.3681	0.5362	0.8907	0.053
Mof_C 	C 	0.5279	0.0034	0.2518	0.092
Mof_C 	C 	0.5166	0.7772	0.7592	0.052
Mof_C 	C 	0.5891	0.9016	0.2044	-0.103
Mof_C 	C 	0.1811	0.4378	0.4261	0.091
Mof_C 	C 	0.2567	0.4378	0.9261	0.092
Mof_C 	C 	0.8393	0.8632	0.6167	0.078
Mof_C 	C 	0.3955	0.8868	0.7051	0.051
Mof_C 	C 	0.7077	0.6748	0.9438	0.068
Mof_C 	C 	0.2283	0.442	0.3572	0.075
Mof_C 	C 	0.9253	0.0506	0.2515	0.082
Mof_C 	C 	0.6235	0.6674	0.9141	0.082
Mof_C 	C 	0.3055	0.967	0.7281	0.017
Mof_C 	C 	0.1734	0.1576	0.8173	-0.13
Mof_C 	C 	0.0034	0.9144	0.1488	-0.131
Mof_C 	C 	0.7677	0.9808	0.2304	0.081
Mof_C 	C 	0.2412	0.7364	0.2933	-0.101
Mof_C 	C 	0.565	0.754	0.8272	0.057
Mof_C 	C 	0.6393	0.8266	0.8343	-0.107
Mof_C 	C 	0.0239	0.8632	0.1167	0.079
Mof_I 	I 	0.57765	0.8241	0.64478	-0.413
Mof_I 	I 	0.24645	0.8241	0.14478	-0.412
Mof_I 	I 	0.41919	0.35878	0.34068	-0.373
Mof_I 	I 	0.28813	0.03946	0.2448	-0.347
Mof_I 	I 	0.03653	0.27546	0.9535	-0.358
Mof_I 	I 	0.13779	0.79666	0.005	-0.387
Mof_I 	I 	0.75133	0.03946	0.7448	-0.347
Mof_I 	I 	0.65244	0.61008	0.58054	-0.352
Mof_I 	I 	0.93959	0.35878	0.84068	-0.375
Mof_I 	I 	0.23893	0.27546	0.4535	-0.365
Mof_I 	I 	0.65887	0.79666	0.505	-0.384
Mof_I 	I 	0.95764	0.61008	0.08054	-0.356
Mof_N 	N 	0.5852	0.8494	0.7693	-0.269
Mof_N 	N 	0.9525	0.0062	0.2204	-0.116
Mof_N 	N 	0.4696	0.645	0.8599	-0.137
Mof_N 	N 	0.8306	0.0386	0.2604	-0.118
Mof_N 	N 	0.8317	0.701	0.5002	-0.271
Mof_N 	N 	0.2176	0.4086	0.3919	-0.281
Mof_N 	N 	0.5362	0.6128	0.9176	-0.149
Mof_N 	N 	0.1754	0.645	0.3599	-0.137
Mof_N 	N 	0.9589	0.7996	0.0912	-0.275
Mof_N 	N 	0.8693	0.701	0.0002	-0.284
Mof_N 	N 	0.0537	0.0062	0.7204	-0.116
Mof_N 	N 	0.0836	0.239	0.8353	-0.285
Mof_N 	N 	0.1451	0.933	0.699	-0.131
Mof_N 	N 	0.0818	0.7174	0.3853	-0.133
Mof_N 	N 	0.1554	0.239	0.3353	-0.286
Mof_N 	N 	0.2642	0.8494	0.2693	-0.268
Mof_N 	N 	0.4773	0.9388	0.7279	-0.289
Mof_N 	N 	0.191	0.4086	0.8919	-0.281
Mof_N 	N 	0.6356	0.7174	0.8853	-0.132
Mof_N 	N 	0.208	0.0386	0.7604	-0.118
Mof_N 	N 	0.7879	0.933	0.199	-0.131
Mof_N 	N 	0.8407	0.7996	0.5912	-0.274
Mof_N 	N 	0.0766	0.6128	0.4176	-0.15
Mof_N 	N 	0.4615	0.9388	0.2279	-0.289
_end
