data_functionalizedCrystal
_audit_creation_method	'EQeq! by Chris Wilmer'
_symmetry_space_group_name_H-M	'P1'
_symmetry_Int_Tables_number	1
_symmetry_cell_setting	triclinic
loop_
_symmetry_equiv_pos_as_xyz
  x,y,z
_cell_length_a	7.7447
_cell_length_b	10.1935
_cell_length_c	12.1464
_cell_angle_alpha	80.751
_cell_angle_beta	80.287
_cell_angle_gamma	82.818
loop_
_atom_site_label
_atom_site_type_symbol
_atom_site_fract_x
_atom_site_fract_y
_atom_site_fract_z
_atom_site_charge
Mof_Pr	Pr	0.73908	0.00999	0.55898	2.498
Mof_Pr	Pr	0.26092	0.99001	0.44102	2.498
Mof_H 	H 	0.1356	0.5851	0.4553	0.083
Mof_H 	H 	0.0791	0.4828	0.3877	0.071
Mof_H 	H 	0.8087	0.7766	0.2386	0.175
Mof_H 	H 	0.9987	0.7087	0.2499	0.18
Mof_H 	H 	0.9563	0.8418	0.884	0.053
Mof_H 	H 	0.1571	0.816	0.894	0.042
Mof_H 	H 	0.8908	0.6899	0.0465	0.082
Mof_H 	H 	0.0914	0.6576	0.0555	0.084
Mof_H 	H 	0.9076	0.9123	0.079	-0.042
Mof_H 	H 	0.1044	0.8723	0.0962	-0.033
Mof_H 	H 	0.4604	0.4488	0.4237	0.182
Mof_H 	H 	0.3748	0.358	0.3593	0.174
Mof_H 	H 	0.2452	0.4145	0.5816	-0.048
Mof_H 	H 	0.1686	0.3076	0.5294	-0.056
Mof_H 	H 	0.1556	0.593	0.8617	-0.006
Mof_H 	H 	0.9574	0.6244	0.8457	0.009
Mof_H 	H 	0.1613	0.63	0.6735	0.132
Mof_H 	H 	0.2247	0.7587	0.7021	0.115
Mof_H 	H 	0.8644	0.4149	0.5447	0.083
Mof_H 	H 	0.9209	0.5172	0.6123	0.071
Mof_H 	H 	0.1913	0.2234	0.7614	0.175
Mof_H 	H 	0.0013	0.2913	0.7501	0.18
Mof_H 	H 	0.0437	0.1582	0.116	0.053
Mof_H 	H 	0.8429	0.184	0.106	0.042
Mof_H 	H 	0.1092	0.3101	0.9535	0.082
Mof_H 	H 	0.9086	0.3424	0.9445	0.084
Mof_H 	H 	0.0924	0.0877	0.921	-0.042
Mof_H 	H 	0.8956	0.1277	0.9038	-0.033
Mof_H 	H 	0.5396	0.5512	0.5763	0.182
Mof_H 	H 	0.6252	0.642	0.6407	0.174
Mof_H 	H 	0.7548	0.5855	0.4184	-0.048
Mof_H 	H 	0.8314	0.6924	0.4706	-0.056
Mof_H 	H 	0.8444	0.407	0.1383	-0.006
Mof_H 	H 	0.0426	0.3756	0.1543	0.009
Mof_H 	H 	0.8387	0.37	0.3265	0.132
Mof_H 	H 	0.7753	0.2413	0.2979	0.115
Mof_C 	C 	0.5068	0.2499	0.4819	0.532
Mof_C 	C 	0.9507	0.8885	0.3071	0.611
Mof_C 	C 	0.0912	0.4988	0.4625	-0.188
Mof_C 	C 	0.9315	0.793	0.2284	-0.553
Mof_C 	C 	0.0481	0.7744	0.9075	-0.094
Mof_C 	C 	0.0026	0.7278	0.0326	-0.227
Mof_C 	C 	0.9901	0.8391	0.1053	0.187
Mof_C 	C 	0.3971	0.3704	0.4329	-0.524
Mof_C 	C 	0.2216	0.3913	0.5116	0.184
Mof_C 	C 	0.0685	0.6627	0.8355	0.053
Mof_C 	C 	0.1238	0.7083	0.7108	-0.392
Mof_C 	C 	0.9825	0.7936	0.6516	0.483
Mof_C 	C 	0.4932	0.7501	0.5181	0.532
Mof_C 	C 	0.0493	0.1115	0.6929	0.611
Mof_C 	C 	0.9088	0.5012	0.5375	-0.188
Mof_C 	C 	0.0685	0.207	0.7716	-0.553
Mof_C 	C 	0.9519	0.2256	0.0925	-0.094
Mof_C 	C 	0.9974	0.2722	0.9674	-0.227
Mof_C 	C 	0.0099	0.1609	0.8947	0.187
Mof_C 	C 	0.6029	0.6296	0.5671	-0.524
Mof_C 	C 	0.7784	0.6087	0.4884	0.184
Mof_C 	C 	0.9315	0.3373	0.1645	0.053
Mof_C 	C 	0.8762	0.2917	0.2892	-0.392
Mof_C 	C 	0.0175	0.2064	0.3484	0.483
Mof_O 	O 	0.8115	0.9376	0.3634	-0.596
Mof_O 	O 	0.6128	0.2603	0.5452	-0.538
Mof_O 	O 	0.488	0.1351	0.458	-0.759
Mof_O 	O 	0.8237	0.7987	0.6956	-0.523
Mof_O 	O 	0.1031	0.9136	0.3121	-0.63
Mof_O 	O 	0.0291	0.8593	0.5544	-0.721
Mof_O 	O 	0.1885	0.0624	0.6366	-0.596
Mof_O 	O 	0.3872	0.7397	0.4548	-0.538
Mof_O 	O 	0.512	0.8649	0.542	-0.759
Mof_O 	O 	0.1763	0.2013	0.3044	-0.523
Mof_O 	O 	0.8969	0.0864	0.6879	-0.63
Mof_O 	O 	0.9709	0.1407	0.4456	-0.721
_end
