data_functionalizedCrystal
_audit_creation_method	'EQeq! by Chris Wilmer'
_symmetry_space_group_name_H-M	'P1'
_symmetry_Int_Tables_number	1
_symmetry_cell_setting	triclinic
loop_
_symmetry_equiv_pos_as_xyz
  x,y,z
_cell_length_a	13.543
_cell_length_b	19.3401
_cell_length_c	23.223
_cell_angle_alpha	90
_cell_angle_beta	123.452
_cell_angle_gamma	90
loop_
_atom_site_label
_atom_site_type_symbol
_atom_site_fract_x
_atom_site_fract_y
_atom_site_fract_z
_atom_site_charge
Mof_Fe	Fe	0.60984	0.23067	0.26542	0.741
Mof_O 	O 	0.932	0.6509	0.1922	-0.778
Mof_O 	O 	0.1076	0.6062	0.2536	-0.787
Mof_C 	C 	0.002	0.602	0.2271	0.509
Mof_Fe	Fe	0.12897	0.23704	0.28948	0.704
Mof_C 	C 	0.095	0.2295	0.1488	0.541
Mof_O 	O 	0.2425	0.251	0.9015	-0.631
Mof_O 	O 	0.4914	0.2549	0.1533	-0.537
Mof_O 	O 	0.3178	0.2667	0.8418	-0.973
Mof_O 	O 	0.9757	0.2951	0.2662	-0.884
Mof_O 	O 	0.6803	0.2504	0.2051	-0.877
Mof_O 	O 	0.1151	0.3484	0.2677	-0.516
Mof_O 	O 	0.519	0.6719	0.227	-0.905
Mof_C 	C 	0.8719	0.2633	0.9634	-0.291
Mof_C 	C 	0.8806	0.242	0.0802	0.105
Mof_H 	H 	0.8841	0.2334	0.1207	-0.039
Mof_C 	C 	0.5595	0.4304	0.2677	-0.232
Mof_C 	C 	0.0047	0.4754	0.2433	0.276
Mof_H 	H 	0.0731	0.4731	0.2431	-0.087
Mof_O 	O 	0.5739	0.3137	0.2981	-0.61
Mof_C 	C 	0.7688	0.2653	0.9621	0.082
Mof_H 	H 	0.6968	0.2738	0.9209	-0.023
Mof_C 	C 	0.9808	0.2412	0.0829	-0.299
Mof_O 	O 	0.963	0.2751	0.9025	-0.916
Mof_O 	O 	0.417	0.6217	0.2601	-0.485
Mof_O 	O 	0.7737	0.2845	0.8449	-0.761
Mof_C 	C 	0.5805	0.256	0.1516	0.674
Mof_C 	C 	0.3316	0.2578	0.898	0.713
Mof_C 	C 	0.8042	0.4825	0.2457	-0.166
Mof_C 	C 	0.8609	0.4209	0.2528	0.225
Mof_H 	H 	0.8303	0.3805	0.2588	-0.116
Mof_C 	C 	0.9586	0.4165	0.2514	-0.422
Mof_C 	C 	0.9522	0.5375	0.2356	-0.336
Mof_C 	C 	0.701	0.4866	0.2513	-0.074
Mof_C 	C 	0.9785	0.2514	0.0239	0.206
Mof_H 	H 	0.048	0.2502	0.0248	-0.093
Mof_C 	C 	0.462	0.2582	0.0245	0.404
Mof_H 	H 	0.3945	0.2573	0.0258	-0.181
Mof_C 	C 	0.5695	0.2597	0.0843	-0.486
Mof_C 	C 	0.6457	0.5475	0.2453	0.126
Mof_H 	H 	0.6735	0.5877	0.2369	-0.092
Mof_C 	C 	0.45	0.2578	0.9622	-0.525
Mof_C 	C 	0.6564	0.4286	0.262	0.064
Mof_H 	H 	0.692	0.3862	0.2657	-0.021
Mof_O 	O 	0.1878	0.2435	0.1532	-0.863
Mof_C 	C 	0.0203	0.3513	0.2622	0.646
Mof_C 	C 	0.8513	0.5402	0.236	0.156
Mof_H 	H 	0.8139	0.5825	0.2294	-0.06
Mof_C 	C 	0.4929	0.6192	0.2467	0.596
Mof_C 	C 	0.5509	0.5517	0.2512	-0.321
Mof_O 	O 	0.0927	0.2068	0.1983	-0.552
Mof_C 	C 	0.6684	0.2594	0.0818	0.278
Mof_H 	H 	0.7424	0.2607	0.1231	-0.138
Mof_C 	C 	0.5066	0.4932	0.2624	0.17
Mof_H 	H 	0.442	0.4958	0.2663	-0.035
Mof_O 	O 	0.4128	0.3682	0.2687	-0.817
Mof_C 	C 	0.5099	0.3656	0.2782	0.485
Mof_C 	C 	0.7725	0.2547	0.0215	-0.052
Mof_C 	C 	0.8697	0.2744	0.8998	0.539
Mof_C 	C 	0.6629	0.2573	0.0218	-0.236
Mof_C 	C 	0.5501	0.2561	0.9608	0.291
Mof_H 	H 	0.5427	0.2539	0.9186	-0.165
Mof_Na	Na	0.8719	0.21381	0.28198	3.15
Mof_Na	Na	0.3535	0.256	0.26014	3.33
Mof_Na	Na	0.8487	0.65999	0.05722	1.374
Mof_Fe	Fe	0.39016	0.73067	0.23458	0.742
Mof_O 	O 	0.068	0.1509	0.3078	-0.776
Mof_O 	O 	0.8924	0.1062	0.2464	-0.786
Mof_C 	C 	0.998	0.102	0.2729	0.504
Mof_Fe	Fe	0.87103	0.73704	0.21052	0.703
Mof_C 	C 	0.905	0.7295	0.3512	0.54
Mof_O 	O 	0.7575	0.751	0.5985	-0.63
Mof_O 	O 	0.5086	0.7549	0.3467	-0.537
Mof_O 	O 	0.6822	0.7667	0.6582	-0.973
Mof_O 	O 	0.0243	0.7951	0.2338	-0.879
Mof_O 	O 	0.3197	0.7504	0.2949	-0.876
Mof_O 	O 	0.8849	0.8484	0.2323	-0.513
Mof_O 	O 	0.481	0.1719	0.273	-0.905
Mof_C 	C 	0.1281	0.7633	0.5366	-0.295
Mof_C 	C 	0.1194	0.742	0.4198	0.107
Mof_H 	H 	0.1159	0.7334	0.3793	-0.04
Mof_C 	C 	0.4405	0.9304	0.2323	-0.234
Mof_C 	C 	0.9953	0.9754	0.2567	0.252
Mof_H 	H 	0.9269	0.9731	0.2569	-0.081
Mof_O 	O 	0.4261	0.8137	0.2019	-0.61
Mof_C 	C 	0.2312	0.7653	0.5379	0.083
Mof_H 	H 	0.3032	0.7738	0.5791	-0.024
Mof_C 	C 	0.0192	0.7412	0.4171	-0.3
Mof_O 	O 	0.037	0.7751	0.5975	-0.917
Mof_O 	O 	0.583	0.1217	0.2399	-0.485
Mof_O 	O 	0.2263	0.7845	0.6551	-0.761
Mof_C 	C 	0.4195	0.756	0.3484	0.674
Mof_C 	C 	0.6684	0.7578	0.602	0.712
Mof_C 	C 	0.1958	0.9825	0.2543	-0.153
Mof_C 	C 	0.1391	0.9209	0.2472	0.209
Mof_H 	H 	0.1697	0.8805	0.2412	-0.111
Mof_C 	C 	0.0414	0.9165	0.2486	-0.401
Mof_C 	C 	0.0478	0.0375	0.2644	-0.321
Mof_C 	C 	0.299	0.9866	0.2487	-0.081
Mof_C 	C 	0.0215	0.7514	0.4761	0.212
Mof_H 	H 	0.952	0.7502	0.4752	-0.096
Mof_C 	C 	0.538	0.7582	0.4755	0.402
Mof_H 	H 	0.6055	0.7573	0.4742	-0.18
Mof_C 	C 	0.4305	0.7597	0.4157	-0.485
Mof_C 	C 	0.3543	0.0475	0.2547	0.129
Mof_H 	H 	0.3265	0.0877	0.2631	-0.094
Mof_C 	C 	0.55	0.7578	0.5378	-0.524
Mof_C 	C 	0.3436	0.9286	0.238	0.069
Mof_H 	H 	0.308	0.8862	0.2343	-0.023
Mof_O 	O 	0.8122	0.7435	0.3468	-0.863
Mof_C 	C 	0.9797	0.8513	0.2378	0.633
Mof_C 	C 	0.1487	0.0402	0.264	0.141
Mof_H 	H 	0.1861	0.0825	0.2706	-0.055
Mof_C 	C 	0.5071	0.1192	0.2533	0.597
Mof_C 	C 	0.4491	0.0517	0.2488	-0.323
Mof_O 	O 	0.9073	0.7068	0.3017	-0.552
Mof_C 	C 	0.3316	0.7594	0.4182	0.277
Mof_H 	H 	0.2576	0.7607	0.3769	-0.138
Mof_C 	C 	0.4934	0.9932	0.2376	0.171
Mof_H 	H 	0.558	0.9958	0.2337	-0.036
Mof_O 	O 	0.5872	0.8682	0.2313	-0.817
Mof_C 	C 	0.4901	0.8656	0.2218	0.486
Mof_C 	C 	0.2275	0.7547	0.4785	-0.054
Mof_C 	C 	0.1303	0.7744	0.6002	0.54
Mof_C 	C 	0.3371	0.7573	0.4782	-0.235
Mof_C 	C 	0.4499	0.7561	0.5392	0.29
Mof_H 	H 	0.4573	0.7539	0.5814	-0.164
Mof_Na	Na	0.1281	0.71381	0.21802	3.148
Mof_Na	Na	0.6465	0.756	0.23986	3.329
Mof_Na	Na	0.1513	0.15999	0.44278	1.374
Mof_Fe	Fe	0.39016	0.76933	0.73458	0.742
Mof_O 	O 	0.068	0.3491	0.8078	-0.777
Mof_O 	O 	0.8924	0.3938	0.7464	-0.787
Mof_C 	C 	0.998	0.398	0.7729	0.509
Mof_Fe	Fe	0.87103	0.76296	0.71052	0.704
Mof_C 	C 	0.905	0.7705	0.8512	0.541
Mof_O 	O 	0.7575	0.749	0.0985	-0.631
Mof_O 	O 	0.5086	0.7451	0.8467	-0.537
Mof_O 	O 	0.6822	0.7333	0.1582	-0.973
Mof_O 	O 	0.0243	0.7049	0.7338	-0.884
Mof_O 	O 	0.3197	0.7496	0.7949	-0.877
Mof_O 	O 	0.8849	0.6516	0.7323	-0.516
Mof_O 	O 	0.481	0.3281	0.773	-0.905
Mof_C 	C 	0.1281	0.7367	0.0366	-0.291
Mof_C 	C 	0.1194	0.758	0.9198	0.105
Mof_H 	H 	0.1159	0.7666	0.8793	-0.039
Mof_C 	C 	0.4405	0.5696	0.7323	-0.232
Mof_C 	C 	0.9953	0.5246	0.7567	0.276
Mof_H 	H 	0.9269	0.5269	0.7569	-0.087
Mof_O 	O 	0.4261	0.6863	0.7019	-0.61
Mof_C 	C 	0.2312	0.7347	0.0379	0.082
Mof_H 	H 	0.3032	0.7262	0.0791	-0.023
Mof_C 	C 	0.0192	0.7588	0.9171	-0.299
Mof_O 	O 	0.037	0.7249	0.0975	-0.916
Mof_O 	O 	0.583	0.3783	0.7399	-0.485
Mof_O 	O 	0.2263	0.7155	0.1551	-0.761
Mof_C 	C 	0.4195	0.744	0.8484	0.674
Mof_C 	C 	0.6684	0.7422	0.102	0.713
Mof_C 	C 	0.1958	0.5175	0.7543	-0.166
Mof_C 	C 	0.1391	0.5791	0.7472	0.225
Mof_H 	H 	0.1697	0.6195	0.7412	-0.116
Mof_C 	C 	0.0414	0.5835	0.7486	-0.422
Mof_C 	C 	0.0478	0.4625	0.7644	-0.336
Mof_C 	C 	0.299	0.5134	0.7487	-0.074
Mof_C 	C 	0.0215	0.7486	0.9761	0.206
Mof_H 	H 	0.952	0.7498	0.9752	-0.093
Mof_C 	C 	0.538	0.7418	0.9755	0.404
Mof_H 	H 	0.6055	0.7427	0.9742	-0.181
Mof_C 	C 	0.4305	0.7403	0.9157	-0.486
Mof_C 	C 	0.3543	0.4525	0.7547	0.126
Mof_H 	H 	0.3265	0.4123	0.7631	-0.092
Mof_C 	C 	0.55	0.7422	0.0378	-0.525
Mof_C 	C 	0.3436	0.5714	0.738	0.064
Mof_H 	H 	0.308	0.6138	0.7343	-0.021
Mof_O 	O 	0.8122	0.7565	0.8468	-0.863
Mof_C 	C 	0.9797	0.6487	0.7378	0.646
Mof_C 	C 	0.1487	0.4598	0.764	0.156
Mof_H 	H 	0.1861	0.4175	0.7706	-0.06
Mof_C 	C 	0.5071	0.3808	0.7533	0.596
Mof_C 	C 	0.4491	0.4483	0.7488	-0.321
Mof_O 	O 	0.9073	0.7932	0.8017	-0.552
Mof_C 	C 	0.3316	0.7406	0.9182	0.278
Mof_H 	H 	0.2576	0.7393	0.8769	-0.138
Mof_C 	C 	0.4934	0.5068	0.7376	0.17
Mof_H 	H 	0.558	0.5042	0.7337	-0.035
Mof_O 	O 	0.5872	0.6318	0.7313	-0.817
Mof_C 	C 	0.4901	0.6344	0.7218	0.485
Mof_C 	C 	0.2275	0.7453	0.9785	-0.052
Mof_C 	C 	0.1303	0.7256	0.1002	0.539
Mof_C 	C 	0.3371	0.7427	0.9782	-0.236
Mof_C 	C 	0.4499	0.7439	0.0392	0.291
Mof_H 	H 	0.4573	0.7461	0.0814	-0.165
Mof_Na	Na	0.1281	0.78619	0.71802	3.15
Mof_Na	Na	0.6465	0.744	0.73986	3.33
Mof_Na	Na	0.1513	0.34001	0.94278	1.374
Mof_Fe	Fe	0.60984	0.26933	0.76542	0.742
Mof_O 	O 	0.932	0.8491	0.6922	-0.776
Mof_O 	O 	0.1076	0.8938	0.7536	-0.786
Mof_C 	C 	0.002	0.898	0.7271	0.504
Mof_Fe	Fe	0.12897	0.26296	0.78948	0.703
Mof_C 	C 	0.095	0.2705	0.6488	0.54
Mof_O 	O 	0.2425	0.249	0.4015	-0.63
Mof_O 	O 	0.4914	0.2451	0.6533	-0.537
Mof_O 	O 	0.3178	0.2333	0.3418	-0.973
Mof_O 	O 	0.9757	0.2049	0.7662	-0.879
Mof_O 	O 	0.6803	0.2496	0.7051	-0.876
Mof_O 	O 	0.1151	0.1516	0.7677	-0.513
Mof_O 	O 	0.519	0.8281	0.727	-0.905
Mof_C 	C 	0.8719	0.2367	0.4634	-0.295
Mof_C 	C 	0.8806	0.258	0.5802	0.107
Mof_H 	H 	0.8841	0.2666	0.6207	-0.04
Mof_C 	C 	0.5595	0.0696	0.7677	-0.234
Mof_C 	C 	0.0047	0.0246	0.7433	0.252
Mof_H 	H 	0.0731	0.0269	0.7431	-0.081
Mof_O 	O 	0.5739	0.1863	0.7981	-0.61
Mof_C 	C 	0.7688	0.2347	0.4621	0.083
Mof_H 	H 	0.6968	0.2262	0.4209	-0.024
Mof_C 	C 	0.9808	0.2588	0.5829	-0.3
Mof_O 	O 	0.963	0.2249	0.4025	-0.917
Mof_O 	O 	0.417	0.8783	0.7601	-0.485
Mof_O 	O 	0.7737	0.2155	0.3449	-0.761
Mof_C 	C 	0.5805	0.244	0.6516	0.674
Mof_C 	C 	0.3316	0.2422	0.398	0.712
Mof_C 	C 	0.8042	0.0175	0.7457	-0.153
Mof_C 	C 	0.8609	0.0791	0.7528	0.209
Mof_H 	H 	0.8303	0.1195	0.7588	-0.111
Mof_C 	C 	0.9586	0.0835	0.7514	-0.401
Mof_C 	C 	0.9522	0.9625	0.7356	-0.321
Mof_C 	C 	0.701	0.0134	0.7513	-0.081
Mof_C 	C 	0.9785	0.2486	0.5239	0.212
Mof_H 	H 	0.048	0.2498	0.5248	-0.096
Mof_C 	C 	0.462	0.2418	0.5245	0.402
Mof_H 	H 	0.3945	0.2427	0.5258	-0.18
Mof_C 	C 	0.5695	0.2403	0.5843	-0.485
Mof_C 	C 	0.6457	0.9525	0.7453	0.129
Mof_H 	H 	0.6735	0.9123	0.7369	-0.094
Mof_C 	C 	0.45	0.2422	0.4622	-0.524
Mof_C 	C 	0.6564	0.0714	0.762	0.069
Mof_H 	H 	0.692	0.1138	0.7657	-0.023
Mof_O 	O 	0.1878	0.2565	0.6532	-0.863
Mof_C 	C 	0.0203	0.1487	0.7622	0.633
Mof_C 	C 	0.8513	0.9598	0.736	0.141
Mof_H 	H 	0.8139	0.9175	0.7294	-0.055
Mof_C 	C 	0.4929	0.8808	0.7467	0.597
Mof_C 	C 	0.5509	0.9483	0.7512	-0.323
Mof_O 	O 	0.0927	0.2932	0.6983	-0.552
Mof_C 	C 	0.6684	0.2406	0.5818	0.277
Mof_H 	H 	0.7424	0.2393	0.6231	-0.138
Mof_C 	C 	0.5066	0.0068	0.7624	0.171
Mof_H 	H 	0.442	0.0042	0.7663	-0.036
Mof_O 	O 	0.4128	0.1318	0.7687	-0.817
Mof_C 	C 	0.5099	0.1344	0.7782	0.486
Mof_C 	C 	0.7725	0.2453	0.5215	-0.054
Mof_C 	C 	0.8697	0.2256	0.3998	0.54
Mof_C 	C 	0.6629	0.2427	0.5218	-0.235
Mof_C 	C 	0.5501	0.2439	0.4608	0.29
Mof_H 	H 	0.5427	0.2461	0.4186	-0.164
Mof_Na	Na	0.8719	0.28619	0.78198	3.148
Mof_Na	Na	0.3535	0.244	0.76014	3.329
Mof_Na	Na	0.8487	0.84001	0.55722	1.374
_end
