# CIF file generated by openbabel 3.1.0, see https://openbabel.org
data_I
_chemical_name_common 'image0'
_cell_length_a 13.871
_cell_length_b 13.871
_cell_length_c 12.663
_cell_angle_alpha 90
_cell_angle_beta 90
_cell_angle_gamma 120
_space_group_name_H-M_alt 'P 1'
_space_group_name_Hall 'P 1'
loop_
    _symmetry_equiv_pos_as_xyz
    x,y,z
loop_
    _atom_site_label
    _atom_site_type_symbol
    _atom_site_fract_x
    _atom_site_fract_y
    _atom_site_fract_z
    _atom_site_occupancy
    O1       O        0.80810    0.37860    0.10650    1.000
    O2       O        0.85220    0.54540    0.13560    1.000
    C1       C        0.88200    0.47540    0.11130    1.000
    C2       C        0.99120    0.50720    0.05820    1.000
    O3       O        0.62140    0.42950    0.10650    1.000
    O4       O        0.45460    0.30680    0.13560    1.000
    C3       C        0.52460    0.40660    0.11130    1.000
    C4       C        0.49280    0.48400    0.05820    1.000
    O5       O        0.57050    0.19190    0.10650    1.000
    O6       O        0.69320    0.14780    0.13560    1.000
    C5       C        0.59340    0.11800    0.11130    1.000
    C6       C        0.51600    0.00880    0.05820    1.000
    O7       O        0.80810    0.37860    0.39350    1.000
    O8       O        0.85220    0.54540    0.36440    1.000
    C7       C        0.88200    0.47540    0.38870    1.000
    C8       C        0.99120    0.50720    0.44180    1.000
    O9       O        0.62140    0.42950    0.39350    1.000
    O10      O        0.45460    0.30680    0.36440    1.000
    C9       C        0.52460    0.40660    0.38870    1.000
    C10      C        0.49280    0.48400    0.44180    1.000
    O11      O        0.57050    0.19190    0.39350    1.000
    O12      O        0.69320    0.14780    0.36440    1.000
    C11      C        0.59340    0.11800    0.38870    1.000
    C12      C        0.51600    0.00880    0.44180    1.000
    O13      O        0.37860    0.80810    0.89350    1.000
    O14      O        0.54540    0.85220    0.86440    1.000
    C13      C        0.47540    0.88200    0.88870    1.000
    C14      C        0.50720    0.99120    0.94180    1.000
    O15      O        0.42950    0.62140    0.89350    1.000
    O16      O        0.30680    0.45460    0.86440    1.000
    C15      C        0.40660    0.52460    0.88870    1.000
    C16      C        0.48400    0.49280    0.94180    1.000
    O17      O        0.19190    0.57050    0.89350    1.000
    O18      O        0.14780    0.69320    0.86440    1.000
    C17      C        0.11800    0.59340    0.88870    1.000
    C18      C        0.00880    0.51600    0.94180    1.000
    O19      O        0.37860    0.80810    0.60650    1.000
    O20      O        0.54540    0.85220    0.63560    1.000
    C19      C        0.47540    0.88200    0.61130    1.000
    C20      C        0.50720    0.99120    0.55820    1.000
    O21      O        0.42950    0.62140    0.60650    1.000
    O22      O        0.30680    0.45460    0.63560    1.000
    C21      C        0.40660    0.52460    0.61130    1.000
    C22      C        0.48400    0.49280    0.55820    1.000
    O23      O        0.19190    0.57050    0.60650    1.000
    O24      O        0.14780    0.69320    0.63560    1.000
    C23      C        0.11800    0.59340    0.61130    1.000
    C24      C        0.00880    0.51600    0.55820    1.000
    Fe1      Fe       0.77060    0.28660    0.25000    1.000
    Fe2      Fe       0.71340    0.48400    0.25000    1.000
    Fe3      Fe       0.51600    0.22940    0.25000    1.000
    Fe4      Fe       0.28660    0.77060    0.75000    1.000
    Fe5      Fe       0.48400    0.71340    0.75000    1.000
    Fe6      Fe       0.22940    0.51600    0.75000    1.000
    O25      O        0.66667    0.33333    0.25000    1.000
    O26      O        0.33333    0.66667    0.75000    1.000
