data_functionalizedCrystal
_audit_creation_method	'EQeq! by Chris Wilmer'
_symmetry_space_group_name_H-M	'P1'
_symmetry_Int_Tables_number	1
_symmetry_cell_setting	triclinic
loop_
_symmetry_equiv_pos_as_xyz
  x,y,z
_cell_length_a	35.3484
_cell_length_b	35.3484
_cell_length_c	20.0881
_cell_angle_alpha	90
_cell_angle_beta	90
_cell_angle_gamma	120
loop_
_atom_site_label
_atom_site_type_symbol
_atom_site_fract_x
_atom_site_fract_y
_atom_site_fract_z
_atom_site_charge
Mof_O 	O 	0.77935	0.6367	0.5916	-0.416
Mof_C 	C 	0.75574	0.61221	0.63696	0.368
Mof_O 	O 	0.76693	0.61195	0.69684	-0.409
Mof_C 	C 	0.70883	0.57978	0.62042	-0.126
Mof_C 	C 	0.68009	0.55206	0.66844	0.064
Mof_H 	H 	0.6901	0.5527	0.7125	0.022
Mof_C 	C 	0.63656	0.52328	0.65234	-0.148
Mof_H 	H 	0.6174	0.504	0.6854	0.091
Mof_C 	C 	0.62139	0.52233	0.59113	0.107
Mof_C 	C 	0.65053	0.54857	0.539	-0.136
Mof_H 	H 	0.6408	0.5462	0.4943	0.078
Mof_C 	C 	0.6942	0.57807	0.5568	0.057
Mof_H 	H 	0.7139	0.5971	0.5241	0.027
Mof_C 	C 	0.57404	0.49469	0.5733	-0.069
Mof_C 	C 	0.55452	0.51246	0.535	-0.04
Mof_H 	H 	0.5719	0.5418	0.5205	0.044
Mof_H 	H 	0.6117	0.4339	0.5587	-0.035
Mof_H 	H 	0.6293	0.416	0.6656	0.19
Mof_O 	O 	0.44602	0.97003	0.92493	-0.415
Mof_C 	C 	0.42241	0.94554	0.97029	0.369
Mof_O 	O 	0.4336	0.94528	0.03017	-0.409
Mof_C 	C 	0.3755	0.91311	0.95375	-0.124
Mof_C 	C 	0.34676	0.88539	0.00177	0.061
Mof_H 	H 	0.35677	0.88603	0.04583	0.023
Mof_C 	C 	0.30323	0.85661	0.98567	-0.146
Mof_H 	H 	0.28407	0.83733	0.01873	0.09
Mof_C 	C 	0.28806	0.85566	0.92446	0.106
Mof_C 	C 	0.3172	0.8819	0.87233	-0.135
Mof_H 	H 	0.30747	0.87953	0.82763	0.078
Mof_C 	C 	0.36087	0.9114	0.89013	0.056
Mof_H 	H 	0.38057	0.93043	0.85743	0.028
Mof_C 	C 	0.24071	0.82802	0.90663	-0.068
Mof_C 	C 	0.22119	0.84579	0.86833	-0.041
Mof_H 	H 	0.23857	0.87513	0.85383	0.045
Mof_H 	H 	0.27837	0.76723	0.89203	-0.035
Mof_H 	H 	0.29597	0.74933	0.99893	0.19
Mof_O 	O 	0.11268	0.30337	0.25827	-0.415
Mof_C 	C 	0.08907	0.27888	0.30363	0.369
Mof_O 	O 	0.10026	0.27862	0.36351	-0.409
Mof_C 	C 	0.04216	0.24645	0.28709	-0.126
Mof_C 	C 	0.01342	0.21873	0.33511	0.063
Mof_H 	H 	0.02343	0.21937	0.37917	0.022
Mof_C 	C 	0.96989	0.18995	0.31901	-0.148
Mof_H 	H 	0.95073	0.17067	0.35207	0.091
Mof_C 	C 	0.95472	0.189	0.2578	0.107
Mof_C 	C 	0.98386	0.21524	0.20567	-0.135
Mof_H 	H 	0.97413	0.21287	0.16097	0.078
Mof_C 	C 	0.02753	0.24474	0.22347	0.056
Mof_H 	H 	0.04723	0.26377	0.19077	0.028
Mof_C 	C 	0.90737	0.16136	0.23997	-0.069
Mof_C 	C 	0.88785	0.17913	0.20167	-0.04
Mof_H 	H 	0.90523	0.20847	0.18717	0.044
Mof_H 	H 	0.94503	0.10057	0.22537	-0.035
Mof_H 	H 	0.96263	0.08267	0.33227	0.19
Mof_O 	O 	0.3633	0.14265	0.5916	-0.415
Mof_C 	C 	0.38779	0.14353	0.63696	0.369
Mof_O 	O 	0.38805	0.15498	0.69684	-0.409
Mof_C 	C 	0.42022	0.12905	0.62042	-0.126
Mof_C 	C 	0.44794	0.12803	0.66844	0.064
Mof_H 	H 	0.4473	0.1374	0.7125	0.022
Mof_C 	C 	0.47672	0.11328	0.65234	-0.148
Mof_H 	H 	0.496	0.1134	0.6854	0.091
Mof_C 	C 	0.47767	0.09906	0.59113	0.107
Mof_C 	C 	0.45143	0.10196	0.539	-0.136
Mof_H 	H 	0.4538	0.0946	0.4943	0.078
Mof_C 	C 	0.42193	0.11613	0.5568	0.057
Mof_H 	H 	0.4029	0.1168	0.5241	0.027
Mof_C 	C 	0.50531	0.07935	0.5733	-0.069
Mof_C 	C 	0.48754	0.04206	0.535	-0.04
Mof_H 	H 	0.4582	0.0301	0.5205	0.044
Mof_H 	H 	0.5661	0.1778	0.5587	-0.035
Mof_H 	H 	0.584	0.2133	0.6656	0.19
Mof_O 	O 	0.02997	0.47598	0.92493	-0.415
Mof_C 	C 	0.05446	0.47686	0.97029	0.369
Mof_O 	O 	0.05472	0.48831	0.03017	-0.409
Mof_C 	C 	0.08689	0.46238	0.95375	-0.125
Mof_C 	C 	0.11461	0.46136	0.00177	0.062
Mof_H 	H 	0.11397	0.47073	0.04583	0.023
Mof_C 	C 	0.14339	0.44661	0.98567	-0.147
Mof_H 	H 	0.16267	0.44673	0.01873	0.09
Mof_C 	C 	0.14434	0.43239	0.92446	0.107
Mof_C 	C 	0.1181	0.43529	0.87233	-0.135
Mof_H 	H 	0.12047	0.42793	0.82763	0.078
Mof_C 	C 	0.0886	0.44946	0.89013	0.056
Mof_H 	H 	0.06957	0.45013	0.85743	0.028
Mof_C 	C 	0.17198	0.41268	0.90663	-0.069
Mof_C 	C 	0.15421	0.37539	0.86833	-0.04
Mof_H 	H 	0.12487	0.36343	0.85383	0.045
Mof_H 	H 	0.23277	0.51113	0.89203	-0.035
Mof_H 	H 	0.25067	0.54663	0.99893	0.19
Mof_O 	O 	0.69663	0.80932	0.25827	-0.415
Mof_C 	C 	0.72112	0.8102	0.30363	0.369
Mof_O 	O 	0.72138	0.82165	0.36351	-0.409
Mof_C 	C 	0.75355	0.79572	0.28709	-0.126
Mof_C 	C 	0.78127	0.7947	0.33511	0.064
Mof_H 	H 	0.78063	0.80407	0.37917	0.022
Mof_C 	C 	0.81005	0.77995	0.31901	-0.148
Mof_H 	H 	0.82933	0.78007	0.35207	0.091
Mof_C 	C 	0.811	0.76573	0.2578	0.107
Mof_C 	C 	0.78476	0.76863	0.20567	-0.136
Mof_H 	H 	0.78713	0.76127	0.16097	0.078
Mof_C 	C 	0.75526	0.7828	0.22347	0.057
Mof_H 	H 	0.73623	0.78347	0.19077	0.027
Mof_C 	C 	0.83864	0.74602	0.23997	-0.069
Mof_C 	C 	0.82087	0.70873	0.20167	-0.04
Mof_H 	H 	0.79153	0.69677	0.18717	0.044
Mof_H 	H 	0.89943	0.84447	0.22537	-0.035
Mof_H 	H 	0.91733	0.87997	0.33227	0.19
Mof_O 	O 	0.85735	0.22065	0.5916	-0.415
Mof_C 	C 	0.85647	0.24426	0.63696	0.369
Mof_O 	O 	0.84502	0.23307	0.69684	-0.409
Mof_C 	C 	0.87095	0.29117	0.62042	-0.126
Mof_C 	C 	0.87197	0.31991	0.66844	0.064
Mof_H 	H 	0.8626	0.3099	0.7125	0.022
Mof_C 	C 	0.88672	0.36344	0.65234	-0.148
Mof_H 	H 	0.8866	0.3826	0.6854	0.091
Mof_C 	C 	0.90094	0.37861	0.59113	0.107
Mof_C 	C 	0.89804	0.34947	0.539	-0.136
Mof_H 	H 	0.9054	0.3592	0.4943	0.078
Mof_C 	C 	0.88387	0.3058	0.5568	0.057
Mof_H 	H 	0.8832	0.2861	0.5241	0.027
Mof_C 	C 	0.92065	0.42596	0.5733	-0.069
Mof_C 	C 	0.95794	0.44548	0.535	-0.04
Mof_H 	H 	0.9699	0.4281	0.5205	0.044
Mof_H 	H 	0.8222	0.3883	0.5587	-0.035
Mof_H 	H 	0.7867	0.3707	0.6656	0.19
Mof_O 	O 	0.52402	0.55398	0.92493	-0.415
Mof_C 	C 	0.52314	0.57759	0.97029	0.369
Mof_O 	O 	0.51169	0.5664	0.03017	-0.409
Mof_C 	C 	0.53762	0.6245	0.95375	-0.126
Mof_C 	C 	0.53864	0.65324	0.00177	0.063
Mof_H 	H 	0.52927	0.64323	0.04583	0.022
Mof_C 	C 	0.55339	0.69677	0.98567	-0.148
Mof_H 	H 	0.55327	0.71593	0.01873	0.091
Mof_C 	C 	0.56761	0.71194	0.92446	0.107
Mof_C 	C 	0.56471	0.6828	0.87233	-0.136
Mof_H 	H 	0.57207	0.69253	0.82763	0.078
Mof_C 	C 	0.55054	0.63913	0.89013	0.057
Mof_H 	H 	0.54987	0.61943	0.85743	0.028
Mof_C 	C 	0.58732	0.75929	0.90663	-0.069
Mof_C 	C 	0.62461	0.77881	0.86833	-0.04
Mof_H 	H 	0.63657	0.76143	0.85383	0.044
Mof_H 	H 	0.48887	0.72163	0.89203	-0.035
Mof_H 	H 	0.45337	0.70403	0.99893	0.19
Mof_O 	O 	0.19068	0.88732	0.25827	-0.415
Mof_C 	C 	0.1898	0.91093	0.30363	0.369
Mof_O 	O 	0.17835	0.89974	0.36351	-0.409
Mof_C 	C 	0.20428	0.95784	0.28709	-0.126
Mof_C 	C 	0.2053	0.98658	0.33511	0.063
Mof_H 	H 	0.19593	0.97657	0.37917	0.022
Mof_C 	C 	0.22005	0.03011	0.31901	-0.148
Mof_H 	H 	0.21993	0.04927	0.35207	0.091
Mof_C 	C 	0.23427	0.04528	0.2578	0.107
Mof_C 	C 	0.23137	0.01614	0.20567	-0.135
Mof_H 	H 	0.23873	0.02587	0.16097	0.078
Mof_C 	C 	0.2172	0.97247	0.22347	0.056
Mof_H 	H 	0.21653	0.95277	0.19077	0.028
Mof_C 	C 	0.25398	0.09263	0.23997	-0.069
Mof_C 	C 	0.29127	0.11215	0.20167	-0.04
Mof_H 	H 	0.30323	0.09477	0.18717	0.044
Mof_H 	H 	0.15553	0.05497	0.22537	-0.035
Mof_H 	H 	0.12003	0.03737	0.33227	0.19
Mof_O 	O 	0.6367	0.77935	0.4084	-0.415
Mof_C 	C 	0.61221	0.75574	0.36304	0.369
Mof_O 	O 	0.61195	0.76693	0.30316	-0.409
Mof_C 	C 	0.57978	0.70883	0.37958	-0.126
Mof_C 	C 	0.55206	0.68009	0.33156	0.064
Mof_H 	H 	0.5527	0.6901	0.2875	0.022
Mof_C 	C 	0.52328	0.63656	0.34766	-0.148
Mof_H 	H 	0.504	0.6174	0.3146	0.091
Mof_C 	C 	0.52233	0.62139	0.40887	0.107
Mof_C 	C 	0.54857	0.65053	0.461	-0.136
Mof_H 	H 	0.5462	0.6408	0.5057	0.078
Mof_C 	C 	0.57807	0.6942	0.4432	0.057
Mof_H 	H 	0.5971	0.7139	0.4759	0.027
Mof_C 	C 	0.49469	0.57404	0.4267	-0.069
Mof_C 	C 	0.51246	0.55452	0.465	-0.04
Mof_H 	H 	0.5418	0.5719	0.4795	0.044
Mof_H 	H 	0.4339	0.6117	0.4413	-0.035
Mof_H 	H 	0.416	0.6293	0.3344	0.19
Mof_O 	O 	0.30337	0.11268	0.74173	-0.415
Mof_C 	C 	0.27888	0.08907	0.69637	0.369
Mof_O 	O 	0.27862	0.10026	0.63649	-0.409
Mof_C 	C 	0.24645	0.04216	0.71291	-0.126
Mof_C 	C 	0.21873	0.01342	0.66489	0.063
Mof_H 	H 	0.21937	0.02343	0.62083	0.022
Mof_C 	C 	0.18995	0.96989	0.68099	-0.148
Mof_H 	H 	0.17067	0.95073	0.64793	0.091
Mof_C 	C 	0.189	0.95472	0.7422	0.107
Mof_C 	C 	0.21524	0.98386	0.79433	-0.135
Mof_H 	H 	0.21287	0.97413	0.83903	0.078
Mof_C 	C 	0.24474	0.02753	0.77653	0.056
Mof_H 	H 	0.26377	0.04723	0.80923	0.028
Mof_C 	C 	0.16136	0.90737	0.76003	-0.069
Mof_C 	C 	0.17913	0.88785	0.79833	-0.04
Mof_H 	H 	0.20847	0.90523	0.81283	0.044
Mof_H 	H 	0.10057	0.94503	0.77463	-0.035
Mof_H 	H 	0.08267	0.96263	0.66773	0.19
Mof_O 	O 	0.97003	0.44602	0.07507	-0.415
Mof_C 	C 	0.94554	0.42241	0.02971	0.369
Mof_O 	O 	0.94528	0.4336	0.96983	-0.409
Mof_C 	C 	0.91311	0.3755	0.04625	-0.124
Mof_C 	C 	0.88539	0.34676	0.99823	0.061
Mof_H 	H 	0.88603	0.35677	0.95417	0.023
Mof_C 	C 	0.85661	0.30323	0.01433	-0.146
Mof_H 	H 	0.83733	0.28407	0.98127	0.09
Mof_C 	C 	0.85566	0.28806	0.07554	0.106
Mof_C 	C 	0.8819	0.3172	0.12767	-0.135
Mof_H 	H 	0.87953	0.30747	0.17237	0.078
Mof_C 	C 	0.9114	0.36087	0.10987	0.056
Mof_H 	H 	0.93043	0.38057	0.14257	0.028
Mof_C 	C 	0.82802	0.24071	0.09337	-0.068
Mof_C 	C 	0.84579	0.22119	0.13167	-0.041
Mof_H 	H 	0.87513	0.23857	0.14617	0.045
Mof_H 	H 	0.76723	0.27837	0.10797	-0.035
Mof_H 	H 	0.74933	0.29597	0.00107	0.19
Mof_O 	O 	0.14265	0.3633	0.4084	-0.415
Mof_C 	C 	0.14353	0.38779	0.36304	0.369
Mof_O 	O 	0.15498	0.38805	0.30316	-0.409
Mof_C 	C 	0.12905	0.42022	0.37958	-0.126
Mof_C 	C 	0.12803	0.44794	0.33156	0.064
Mof_H 	H 	0.1374	0.4473	0.2875	0.022
Mof_C 	C 	0.11328	0.47672	0.34766	-0.148
Mof_H 	H 	0.1134	0.496	0.3146	0.091
Mof_C 	C 	0.09906	0.47767	0.40887	0.107
Mof_C 	C 	0.10196	0.45143	0.461	-0.136
Mof_H 	H 	0.0946	0.4538	0.5057	0.078
Mof_C 	C 	0.11613	0.42193	0.4432	0.057
Mof_H 	H 	0.1168	0.4029	0.4759	0.027
Mof_C 	C 	0.07935	0.50531	0.4267	-0.069
Mof_C 	C 	0.04206	0.48754	0.465	-0.04
Mof_H 	H 	0.0301	0.4582	0.4795	0.044
Mof_H 	H 	0.1778	0.5661	0.4413	-0.035
Mof_H 	H 	0.2133	0.584	0.3344	0.19
Mof_O 	O 	0.80932	0.69663	0.74173	-0.415
Mof_C 	C 	0.8102	0.72112	0.69637	0.369
Mof_O 	O 	0.82165	0.72138	0.63649	-0.409
Mof_C 	C 	0.79572	0.75355	0.71291	-0.126
Mof_C 	C 	0.7947	0.78127	0.66489	0.064
Mof_H 	H 	0.80407	0.78063	0.62083	0.022
Mof_C 	C 	0.77995	0.81005	0.68099	-0.148
Mof_H 	H 	0.78007	0.82933	0.64793	0.091
Mof_C 	C 	0.76573	0.811	0.7422	0.107
Mof_C 	C 	0.76863	0.78476	0.79433	-0.136
Mof_H 	H 	0.76127	0.78713	0.83903	0.078
Mof_C 	C 	0.7828	0.75526	0.77653	0.057
Mof_H 	H 	0.78347	0.73623	0.80923	0.027
Mof_C 	C 	0.74602	0.83864	0.76003	-0.069
Mof_C 	C 	0.70873	0.82087	0.79833	-0.04
Mof_H 	H 	0.69677	0.79153	0.81283	0.044
Mof_H 	H 	0.84447	0.89943	0.77463	-0.035
Mof_H 	H 	0.87997	0.91733	0.66773	0.19
Mof_O 	O 	0.47598	0.02997	0.07507	-0.415
Mof_C 	C 	0.47686	0.05446	0.02971	0.369
Mof_O 	O 	0.48831	0.05472	0.96983	-0.409
Mof_C 	C 	0.46238	0.08689	0.04625	-0.125
Mof_C 	C 	0.46136	0.11461	0.99823	0.062
Mof_H 	H 	0.47073	0.11397	0.95417	0.023
Mof_C 	C 	0.44661	0.14339	0.01433	-0.147
Mof_H 	H 	0.44673	0.16267	0.98127	0.09
Mof_C 	C 	0.43239	0.14434	0.07554	0.107
Mof_C 	C 	0.43529	0.1181	0.12767	-0.135
Mof_H 	H 	0.42793	0.12047	0.17237	0.078
Mof_C 	C 	0.44946	0.0886	0.10987	0.056
Mof_H 	H 	0.45013	0.06957	0.14257	0.028
Mof_C 	C 	0.41268	0.17198	0.09337	-0.069
Mof_C 	C 	0.37539	0.15421	0.13167	-0.04
Mof_H 	H 	0.36343	0.12487	0.14617	0.045
Mof_H 	H 	0.51113	0.23277	0.10797	-0.035
Mof_H 	H 	0.54663	0.25067	0.00107	0.19
Mof_O 	O 	0.22065	0.85735	0.4084	-0.415
Mof_C 	C 	0.24426	0.85647	0.36304	0.369
Mof_O 	O 	0.23307	0.84502	0.30316	-0.409
Mof_C 	C 	0.29117	0.87095	0.37958	-0.126
Mof_C 	C 	0.31991	0.87197	0.33156	0.064
Mof_H 	H 	0.3099	0.8626	0.2875	0.022
Mof_C 	C 	0.36344	0.88672	0.34766	-0.148
Mof_H 	H 	0.3826	0.8866	0.3146	0.091
Mof_C 	C 	0.37861	0.90094	0.40887	0.107
Mof_C 	C 	0.34947	0.89804	0.461	-0.136
Mof_H 	H 	0.3592	0.9054	0.5057	0.078
Mof_C 	C 	0.3058	0.88387	0.4432	0.057
Mof_H 	H 	0.2861	0.8832	0.4759	0.027
Mof_C 	C 	0.42596	0.92065	0.4267	-0.069
Mof_C 	C 	0.44548	0.95794	0.465	-0.04
Mof_H 	H 	0.4281	0.9699	0.4795	0.044
Mof_H 	H 	0.3883	0.8222	0.4413	-0.035
Mof_H 	H 	0.3707	0.7867	0.3344	0.19
Mof_O 	O 	0.88732	0.19068	0.74173	-0.415
Mof_C 	C 	0.91093	0.1898	0.69637	0.369
Mof_O 	O 	0.89974	0.17835	0.63649	-0.409
Mof_C 	C 	0.95784	0.20428	0.71291	-0.126
Mof_C 	C 	0.98658	0.2053	0.66489	0.063
Mof_H 	H 	0.97657	0.19593	0.62083	0.022
Mof_C 	C 	0.03011	0.22005	0.68099	-0.148
Mof_H 	H 	0.04927	0.21993	0.64793	0.091
Mof_C 	C 	0.04528	0.23427	0.7422	0.107
Mof_C 	C 	0.01614	0.23137	0.79433	-0.135
Mof_H 	H 	0.02587	0.23873	0.83903	0.078
Mof_C 	C 	0.97247	0.2172	0.77653	0.056
Mof_H 	H 	0.95277	0.21653	0.80923	0.028
Mof_C 	C 	0.09263	0.25398	0.76003	-0.069
Mof_C 	C 	0.11215	0.29127	0.79833	-0.04
Mof_H 	H 	0.09477	0.30323	0.81283	0.044
Mof_H 	H 	0.05497	0.15553	0.77463	-0.035
Mof_H 	H 	0.03737	0.12003	0.66773	0.19
Mof_O 	O 	0.55398	0.52402	0.07507	-0.415
Mof_C 	C 	0.57759	0.52314	0.02971	0.369
Mof_O 	O 	0.5664	0.51169	0.96983	-0.409
Mof_C 	C 	0.6245	0.53762	0.04625	-0.126
Mof_C 	C 	0.65324	0.53864	0.99823	0.063
Mof_H 	H 	0.64323	0.52927	0.95417	0.022
Mof_C 	C 	0.69677	0.55339	0.01433	-0.148
Mof_H 	H 	0.71593	0.55327	0.98127	0.091
Mof_C 	C 	0.71194	0.56761	0.07554	0.107
Mof_C 	C 	0.6828	0.56471	0.12767	-0.136
Mof_H 	H 	0.69253	0.57207	0.17237	0.078
Mof_C 	C 	0.63913	0.55054	0.10987	0.057
Mof_H 	H 	0.61943	0.54987	0.14257	0.028
Mof_C 	C 	0.75929	0.58732	0.09337	-0.069
Mof_C 	C 	0.77881	0.62461	0.13167	-0.04
Mof_H 	H 	0.76143	0.63657	0.14617	0.044
Mof_H 	H 	0.72163	0.48887	0.10797	-0.035
Mof_H 	H 	0.70403	0.45337	0.00107	0.19
Mof_O 	O 	0.22065	0.3633	0.4084	-0.415
Mof_C 	C 	0.24426	0.38779	0.36304	0.369
Mof_O 	O 	0.23307	0.38805	0.30316	-0.409
Mof_C 	C 	0.29117	0.42022	0.37958	-0.126
Mof_C 	C 	0.31991	0.44794	0.33156	0.064
Mof_H 	H 	0.3099	0.4473	0.2875	0.022
Mof_C 	C 	0.36344	0.47672	0.34766	-0.148
Mof_H 	H 	0.3826	0.496	0.3146	0.091
Mof_C 	C 	0.37861	0.47767	0.40887	0.107
Mof_C 	C 	0.34947	0.45143	0.461	-0.136
Mof_H 	H 	0.3592	0.4538	0.5057	0.078
Mof_C 	C 	0.3058	0.42193	0.4432	0.057
Mof_H 	H 	0.2861	0.4029	0.4759	0.027
Mof_C 	C 	0.42596	0.50531	0.4267	-0.069
Mof_C 	C 	0.44548	0.48754	0.465	-0.04
Mof_H 	H 	0.4281	0.4582	0.4795	0.044
Mof_H 	H 	0.3883	0.5661	0.4413	-0.035
Mof_H 	H 	0.3707	0.584	0.3344	0.19
Mof_O 	O 	0.88732	0.69663	0.74173	-0.415
Mof_C 	C 	0.91093	0.72112	0.69637	0.369
Mof_O 	O 	0.89974	0.72138	0.63649	-0.409
Mof_C 	C 	0.95784	0.75355	0.71291	-0.126
Mof_C 	C 	0.98658	0.78127	0.66489	0.063
Mof_H 	H 	0.97657	0.78063	0.62083	0.022
Mof_C 	C 	0.03011	0.81005	0.68099	-0.148
Mof_H 	H 	0.04927	0.82933	0.64793	0.091
Mof_C 	C 	0.04528	0.811	0.7422	0.107
Mof_C 	C 	0.01614	0.78476	0.79433	-0.135
Mof_H 	H 	0.02587	0.78713	0.83903	0.078
Mof_C 	C 	0.97247	0.75526	0.77653	0.056
Mof_H 	H 	0.95277	0.73623	0.80923	0.028
Mof_C 	C 	0.09263	0.83864	0.76003	-0.069
Mof_C 	C 	0.11215	0.82087	0.79833	-0.04
Mof_H 	H 	0.09477	0.79153	0.81283	0.044
Mof_H 	H 	0.05497	0.89943	0.77463	-0.035
Mof_H 	H 	0.03737	0.91733	0.66773	0.19
Mof_O 	O 	0.55398	0.02997	0.07507	-0.415
Mof_C 	C 	0.57759	0.05446	0.02971	0.369
Mof_O 	O 	0.5664	0.05472	0.96983	-0.409
Mof_C 	C 	0.6245	0.08689	0.04625	-0.124
Mof_C 	C 	0.65324	0.11461	0.99823	0.061
Mof_H 	H 	0.64323	0.11397	0.95417	0.023
Mof_C 	C 	0.69677	0.14339	0.01433	-0.146
Mof_H 	H 	0.71593	0.16267	0.98127	0.09
Mof_C 	C 	0.71194	0.14434	0.07554	0.106
Mof_C 	C 	0.6828	0.1181	0.12767	-0.135
Mof_H 	H 	0.69253	0.12047	0.17237	0.078
Mof_C 	C 	0.63913	0.0886	0.10987	0.056
Mof_H 	H 	0.61943	0.06957	0.14257	0.028
Mof_C 	C 	0.75929	0.17198	0.09337	-0.068
Mof_C 	C 	0.77881	0.15421	0.13167	-0.041
Mof_H 	H 	0.76143	0.12487	0.14617	0.045
Mof_H 	H 	0.72163	0.23277	0.10797	-0.035
Mof_H 	H 	0.70403	0.25067	0.00107	0.19
Mof_O 	O 	0.6367	0.85735	0.4084	-0.415
Mof_C 	C 	0.61221	0.85647	0.36304	0.369
Mof_O 	O 	0.61195	0.84502	0.30316	-0.409
Mof_C 	C 	0.57978	0.87095	0.37958	-0.126
Mof_C 	C 	0.55206	0.87197	0.33156	0.064
Mof_H 	H 	0.5527	0.8626	0.2875	0.022
Mof_C 	C 	0.52328	0.88672	0.34766	-0.148
Mof_H 	H 	0.504	0.8866	0.3146	0.091
Mof_C 	C 	0.52233	0.90094	0.40887	0.107
Mof_C 	C 	0.54857	0.89804	0.461	-0.136
Mof_H 	H 	0.5462	0.9054	0.5057	0.078
Mof_C 	C 	0.57807	0.88387	0.4432	0.057
Mof_H 	H 	0.5971	0.8832	0.4759	0.027
Mof_C 	C 	0.49469	0.92065	0.4267	-0.069
Mof_C 	C 	0.51246	0.95794	0.465	-0.04
Mof_H 	H 	0.5418	0.9699	0.4795	0.044
Mof_H 	H 	0.4339	0.8222	0.4413	-0.035
Mof_H 	H 	0.416	0.7867	0.3344	0.19
Mof_O 	O 	0.30337	0.19068	0.74173	-0.415
Mof_C 	C 	0.27888	0.1898	0.69637	0.369
Mof_O 	O 	0.27862	0.17835	0.63649	-0.409
Mof_C 	C 	0.24645	0.20428	0.71291	-0.126
Mof_C 	C 	0.21873	0.2053	0.66489	0.064
Mof_H 	H 	0.21937	0.19593	0.62083	0.022
Mof_C 	C 	0.18995	0.22005	0.68099	-0.148
Mof_H 	H 	0.17067	0.21993	0.64793	0.091
Mof_C 	C 	0.189	0.23427	0.7422	0.107
Mof_C 	C 	0.21524	0.23137	0.79433	-0.136
Mof_H 	H 	0.21287	0.23873	0.83903	0.078
Mof_C 	C 	0.24474	0.2172	0.77653	0.057
Mof_H 	H 	0.26377	0.21653	0.80923	0.027
Mof_C 	C 	0.16136	0.25398	0.76003	-0.069
Mof_C 	C 	0.17913	0.29127	0.79833	-0.04
Mof_H 	H 	0.20847	0.30323	0.81283	0.044
Mof_H 	H 	0.10057	0.15553	0.77463	-0.035
Mof_H 	H 	0.08267	0.12003	0.66773	0.19
Mof_O 	O 	0.97003	0.52402	0.07507	-0.415
Mof_C 	C 	0.94554	0.52314	0.02971	0.369
Mof_O 	O 	0.94528	0.51169	0.96983	-0.409
Mof_C 	C 	0.91311	0.53762	0.04625	-0.125
Mof_C 	C 	0.88539	0.53864	0.99823	0.062
Mof_H 	H 	0.88603	0.52927	0.95417	0.023
Mof_C 	C 	0.85661	0.55339	0.01433	-0.147
Mof_H 	H 	0.83733	0.55327	0.98127	0.09
Mof_C 	C 	0.85566	0.56761	0.07554	0.107
Mof_C 	C 	0.8819	0.56471	0.12767	-0.135
Mof_H 	H 	0.87953	0.57207	0.17237	0.078
Mof_C 	C 	0.9114	0.55054	0.10987	0.056
Mof_H 	H 	0.93043	0.54987	0.14257	0.028
Mof_C 	C 	0.82802	0.58732	0.09337	-0.069
Mof_C 	C 	0.84579	0.62461	0.13167	-0.04
Mof_H 	H 	0.87513	0.63657	0.14617	0.045
Mof_H 	H 	0.76723	0.48887	0.10797	-0.035
Mof_H 	H 	0.74933	0.45337	0.00107	0.19
Mof_O 	O 	0.14265	0.77935	0.4084	-0.415
Mof_C 	C 	0.14353	0.75574	0.36304	0.369
Mof_O 	O 	0.15498	0.76693	0.30316	-0.409
Mof_C 	C 	0.12905	0.70883	0.37958	-0.126
Mof_C 	C 	0.12803	0.68009	0.33156	0.064
Mof_H 	H 	0.1374	0.6901	0.2875	0.022
Mof_C 	C 	0.11328	0.63656	0.34766	-0.148
Mof_H 	H 	0.1134	0.6174	0.3146	0.091
Mof_C 	C 	0.09906	0.62139	0.40887	0.107
Mof_C 	C 	0.10196	0.65053	0.461	-0.136
Mof_H 	H 	0.0946	0.6408	0.5057	0.078
Mof_C 	C 	0.11613	0.6942	0.4432	0.057
Mof_H 	H 	0.1168	0.7139	0.4759	0.027
Mof_C 	C 	0.07935	0.57404	0.4267	-0.069
Mof_C 	C 	0.04206	0.55452	0.465	-0.04
Mof_H 	H 	0.0301	0.5719	0.4795	0.044
Mof_H 	H 	0.1778	0.6117	0.4413	-0.035
Mof_H 	H 	0.2133	0.6293	0.3344	0.19
Mof_O 	O 	0.80932	0.11268	0.74173	-0.415
Mof_C 	C 	0.8102	0.08907	0.69637	0.369
Mof_O 	O 	0.82165	0.10026	0.63649	-0.409
Mof_C 	C 	0.79572	0.04216	0.71291	-0.126
Mof_C 	C 	0.7947	0.01342	0.66489	0.063
Mof_H 	H 	0.80407	0.02343	0.62083	0.022
Mof_C 	C 	0.77995	0.96989	0.68099	-0.148
Mof_H 	H 	0.78007	0.95073	0.64793	0.091
Mof_C 	C 	0.76573	0.95472	0.7422	0.107
Mof_C 	C 	0.76863	0.98386	0.79433	-0.135
Mof_H 	H 	0.76127	0.97413	0.83903	0.078
Mof_C 	C 	0.7828	0.02753	0.77653	0.056
Mof_H 	H 	0.78347	0.04723	0.80923	0.028
Mof_C 	C 	0.74602	0.90737	0.76003	-0.069
Mof_C 	C 	0.70873	0.88785	0.79833	-0.04
Mof_H 	H 	0.69677	0.90523	0.81283	0.044
Mof_H 	H 	0.84447	0.94503	0.77463	-0.035
Mof_H 	H 	0.87997	0.96263	0.66773	0.19
Mof_O 	O 	0.47598	0.44602	0.07507	-0.415
Mof_C 	C 	0.47686	0.42241	0.02971	0.369
Mof_O 	O 	0.48831	0.4336	0.96983	-0.409
Mof_C 	C 	0.46238	0.3755	0.04625	-0.126
Mof_C 	C 	0.46136	0.34676	0.99823	0.063
Mof_H 	H 	0.47073	0.35677	0.95417	0.022
Mof_C 	C 	0.44661	0.30323	0.01433	-0.148
Mof_H 	H 	0.44673	0.28407	0.98127	0.091
Mof_C 	C 	0.43239	0.28806	0.07554	0.107
Mof_C 	C 	0.43529	0.3172	0.12767	-0.136
Mof_H 	H 	0.42793	0.30747	0.17237	0.078
Mof_C 	C 	0.44946	0.36087	0.10987	0.057
Mof_H 	H 	0.45013	0.38057	0.14257	0.028
Mof_C 	C 	0.41268	0.24071	0.09337	-0.069
Mof_C 	C 	0.37539	0.22119	0.13167	-0.04
Mof_H 	H 	0.36343	0.23857	0.14617	0.044
Mof_H 	H 	0.51113	0.27837	0.10797	-0.035
Mof_H 	H 	0.54663	0.29597	0.00107	0.19
Mof_O 	O 	0.3633	0.22065	0.5916	-0.415
Mof_C 	C 	0.38779	0.24426	0.63696	0.369
Mof_O 	O 	0.38805	0.23307	0.69684	-0.409
Mof_C 	C 	0.42022	0.29117	0.62042	-0.126
Mof_C 	C 	0.44794	0.31991	0.66844	0.064
Mof_H 	H 	0.4473	0.3099	0.7125	0.022
Mof_C 	C 	0.47672	0.36344	0.65234	-0.148
Mof_H 	H 	0.496	0.3826	0.6854	0.091
Mof_C 	C 	0.47767	0.37861	0.59113	0.107
Mof_C 	C 	0.45143	0.34947	0.539	-0.136
Mof_H 	H 	0.4538	0.3592	0.4943	0.078
Mof_C 	C 	0.42193	0.3058	0.5568	0.057
Mof_H 	H 	0.4029	0.2861	0.5241	0.027
Mof_C 	C 	0.50531	0.42596	0.5733	-0.069
Mof_C 	C 	0.48754	0.44548	0.535	-0.04
Mof_H 	H 	0.4582	0.4281	0.5205	0.044
Mof_H 	H 	0.5661	0.3883	0.5587	-0.035
Mof_H 	H 	0.584	0.3707	0.6656	0.19
Mof_O 	O 	0.02997	0.55398	0.92493	-0.415
Mof_C 	C 	0.05446	0.57759	0.97029	0.369
Mof_O 	O 	0.05472	0.5664	0.03017	-0.409
Mof_C 	C 	0.08689	0.6245	0.95375	-0.124
Mof_C 	C 	0.11461	0.65324	0.00177	0.061
Mof_H 	H 	0.11397	0.64323	0.04583	0.023
Mof_C 	C 	0.14339	0.69677	0.98567	-0.146
Mof_H 	H 	0.16267	0.71593	0.01873	0.09
Mof_C 	C 	0.14434	0.71194	0.92446	0.106
Mof_C 	C 	0.1181	0.6828	0.87233	-0.135
Mof_H 	H 	0.12047	0.69253	0.82763	0.078
Mof_C 	C 	0.0886	0.63913	0.89013	0.056
Mof_H 	H 	0.06957	0.61943	0.85743	0.028
Mof_C 	C 	0.17198	0.75929	0.90663	-0.068
Mof_C 	C 	0.15421	0.77881	0.86833	-0.041
Mof_H 	H 	0.12487	0.76143	0.85383	0.045
Mof_H 	H 	0.23277	0.72163	0.89203	-0.035
Mof_H 	H 	0.25067	0.70403	0.99893	0.19
Mof_O 	O 	0.69663	0.88732	0.25827	-0.415
Mof_C 	C 	0.72112	0.91093	0.30363	0.369
Mof_O 	O 	0.72138	0.89974	0.36351	-0.409
Mof_C 	C 	0.75355	0.95784	0.28709	-0.126
Mof_C 	C 	0.78127	0.98658	0.33511	0.063
Mof_H 	H 	0.78063	0.97657	0.37917	0.022
Mof_C 	C 	0.81005	0.03011	0.31901	-0.148
Mof_H 	H 	0.82933	0.04927	0.35207	0.091
Mof_C 	C 	0.811	0.04528	0.2578	0.107
Mof_C 	C 	0.78476	0.01614	0.20567	-0.135
Mof_H 	H 	0.78713	0.02587	0.16097	0.078
Mof_C 	C 	0.75526	0.97247	0.22347	0.056
Mof_H 	H 	0.73623	0.95277	0.19077	0.028
Mof_C 	C 	0.83864	0.09263	0.23997	-0.069
Mof_C 	C 	0.82087	0.11215	0.20167	-0.04
Mof_H 	H 	0.79153	0.09477	0.18717	0.044
Mof_H 	H 	0.89943	0.05497	0.22537	-0.035
Mof_H 	H 	0.91733	0.03737	0.33227	0.19
Mof_O 	O 	0.85735	0.6367	0.5916	-0.415
Mof_C 	C 	0.85647	0.61221	0.63696	0.369
Mof_O 	O 	0.84502	0.61195	0.69684	-0.409
Mof_C 	C 	0.87095	0.57978	0.62042	-0.126
Mof_C 	C 	0.87197	0.55206	0.66844	0.064
Mof_H 	H 	0.8626	0.5527	0.7125	0.022
Mof_C 	C 	0.88672	0.52328	0.65234	-0.148
Mof_H 	H 	0.8866	0.504	0.6854	0.091
Mof_C 	C 	0.90094	0.52233	0.59113	0.107
Mof_C 	C 	0.89804	0.54857	0.539	-0.136
Mof_H 	H 	0.9054	0.5462	0.4943	0.078
Mof_C 	C 	0.88387	0.57807	0.5568	0.057
Mof_H 	H 	0.8832	0.5971	0.5241	0.027
Mof_C 	C 	0.92065	0.49469	0.5733	-0.069
Mof_C 	C 	0.95794	0.51246	0.535	-0.04
Mof_H 	H 	0.9699	0.5418	0.5205	0.044
Mof_H 	H 	0.8222	0.4339	0.5587	-0.035
Mof_H 	H 	0.7867	0.416	0.6656	0.19
Mof_O 	O 	0.52402	0.97003	0.92493	-0.415
Mof_C 	C 	0.52314	0.94554	0.97029	0.369
Mof_O 	O 	0.51169	0.94528	0.03017	-0.409
Mof_C 	C 	0.53762	0.91311	0.95375	-0.125
Mof_C 	C 	0.53864	0.88539	0.00177	0.062
Mof_H 	H 	0.52927	0.88603	0.04583	0.023
Mof_C 	C 	0.55339	0.85661	0.98567	-0.147
Mof_H 	H 	0.55327	0.83733	0.01873	0.09
Mof_C 	C 	0.56761	0.85566	0.92446	0.107
Mof_C 	C 	0.56471	0.8819	0.87233	-0.135
Mof_H 	H 	0.57207	0.87953	0.82763	0.078
Mof_C 	C 	0.55054	0.9114	0.89013	0.056
Mof_H 	H 	0.54987	0.93043	0.85743	0.028
Mof_C 	C 	0.58732	0.82802	0.90663	-0.069
Mof_C 	C 	0.62461	0.84579	0.86833	-0.04
Mof_H 	H 	0.63657	0.87513	0.85383	0.045
Mof_H 	H 	0.48887	0.76723	0.89203	-0.035
Mof_H 	H 	0.45337	0.74933	0.99893	0.19
Mof_O 	O 	0.19068	0.30337	0.25827	-0.415
Mof_C 	C 	0.1898	0.27888	0.30363	0.369
Mof_O 	O 	0.17835	0.27862	0.36351	-0.409
Mof_C 	C 	0.20428	0.24645	0.28709	-0.126
Mof_C 	C 	0.2053	0.21873	0.33511	0.064
Mof_H 	H 	0.19593	0.21937	0.37917	0.022
Mof_C 	C 	0.22005	0.18995	0.31901	-0.148
Mof_H 	H 	0.21993	0.17067	0.35207	0.091
Mof_C 	C 	0.23427	0.189	0.2578	0.107
Mof_C 	C 	0.23137	0.21524	0.20567	-0.136
Mof_H 	H 	0.23873	0.21287	0.16097	0.078
Mof_C 	C 	0.2172	0.24474	0.22347	0.057
Mof_H 	H 	0.21653	0.26377	0.19077	0.027
Mof_C 	C 	0.25398	0.16136	0.23997	-0.069
Mof_C 	C 	0.29127	0.17913	0.20167	-0.04
Mof_H 	H 	0.30323	0.20847	0.18717	0.044
Mof_H 	H 	0.15553	0.10057	0.22537	-0.035
Mof_H 	H 	0.12003	0.08267	0.33227	0.19
Mof_O 	O 	0.77935	0.14265	0.5916	-0.415
Mof_C 	C 	0.75574	0.14353	0.63696	0.369
Mof_O 	O 	0.76693	0.15498	0.69684	-0.409
Mof_C 	C 	0.70883	0.12905	0.62042	-0.126
Mof_C 	C 	0.68009	0.12803	0.66844	0.064
Mof_H 	H 	0.6901	0.1374	0.7125	0.022
Mof_C 	C 	0.63656	0.11328	0.65234	-0.148
Mof_H 	H 	0.6174	0.1134	0.6854	0.091
Mof_C 	C 	0.62139	0.09906	0.59113	0.107
Mof_C 	C 	0.65053	0.10196	0.539	-0.136
Mof_H 	H 	0.6408	0.0946	0.4943	0.078
Mof_C 	C 	0.6942	0.11613	0.5568	0.057
Mof_H 	H 	0.7139	0.1168	0.5241	0.027
Mof_C 	C 	0.57404	0.07935	0.5733	-0.069
Mof_C 	C 	0.55452	0.04206	0.535	-0.04
Mof_H 	H 	0.5719	0.0301	0.5205	0.044
Mof_H 	H 	0.6117	0.1778	0.5587	-0.035
Mof_H 	H 	0.6293	0.2133	0.6656	0.19
Mof_O 	O 	0.44602	0.47598	0.92493	-0.415
Mof_C 	C 	0.42241	0.47686	0.97029	0.369
Mof_O 	O 	0.4336	0.48831	0.03017	-0.409
Mof_C 	C 	0.3755	0.46238	0.95375	-0.126
Mof_C 	C 	0.34676	0.46136	0.00177	0.063
Mof_H 	H 	0.35677	0.47073	0.04583	0.022
Mof_C 	C 	0.30323	0.44661	0.98567	-0.148
Mof_H 	H 	0.28407	0.44673	0.01873	0.091
Mof_C 	C 	0.28806	0.43239	0.92446	0.107
Mof_C 	C 	0.3172	0.43529	0.87233	-0.136
Mof_H 	H 	0.30747	0.42793	0.82763	0.078
Mof_C 	C 	0.36087	0.44946	0.89013	0.057
Mof_H 	H 	0.38057	0.45013	0.85743	0.028
Mof_C 	C 	0.24071	0.41268	0.90663	-0.069
Mof_C 	C 	0.22119	0.37539	0.86833	-0.04
Mof_H 	H 	0.23857	0.36343	0.85383	0.044
Mof_H 	H 	0.27837	0.51113	0.89203	-0.035
Mof_H 	H 	0.29597	0.54663	0.99893	0.19
Mof_O 	O 	0.11268	0.80932	0.25827	-0.415
Mof_C 	C 	0.08907	0.8102	0.30363	0.369
Mof_O 	O 	0.10026	0.82165	0.36351	-0.409
Mof_C 	C 	0.04216	0.79572	0.28709	-0.126
Mof_C 	C 	0.01342	0.7947	0.33511	0.063
Mof_H 	H 	0.02343	0.80407	0.37917	0.022
Mof_C 	C 	0.96989	0.77995	0.31901	-0.148
Mof_H 	H 	0.95073	0.78007	0.35207	0.091
Mof_C 	C 	0.95472	0.76573	0.2578	0.107
Mof_C 	C 	0.98386	0.76863	0.20567	-0.135
Mof_H 	H 	0.97413	0.76127	0.16097	0.078
Mof_C 	C 	0.02753	0.7828	0.22347	0.056
Mof_H 	H 	0.04723	0.78347	0.19077	0.028
Mof_C 	C 	0.90737	0.74602	0.23997	-0.069
Mof_C 	C 	0.88785	0.70873	0.20167	-0.04
Mof_H 	H 	0.90523	0.69677	0.18717	0.044
Mof_H 	H 	0.94503	0.84447	0.22537	-0.035
Mof_H 	H 	0.96263	0.87997	0.33227	0.19
Mof_Cu	Cu	0.8262	0.6524	0.72831	0.904
Mof_Cu	Cu	0.49287	0.98573	0.06164	0.904
Mof_Cu	Cu	0.15953	0.31907	0.39498	0.904
Mof_Cu	Cu	0.3476	0.1738	0.72831	0.904
Mof_Cu	Cu	0.01427	0.50713	0.06164	0.904
Mof_Cu	Cu	0.68093	0.84047	0.39498	0.904
Mof_Cu	Cu	0.8262	0.1738	0.72831	0.904
Mof_Cu	Cu	0.49287	0.50713	0.06164	0.904
Mof_Cu	Cu	0.15953	0.84047	0.39498	0.904
Mof_Cu	Cu	0.6524	0.8262	0.27169	0.904
Mof_Cu	Cu	0.31907	0.15953	0.60502	0.904
Mof_Cu	Cu	0.98573	0.49287	0.93836	0.904
Mof_Cu	Cu	0.1738	0.3476	0.27169	0.904
Mof_Cu	Cu	0.84047	0.68093	0.60502	0.904
Mof_Cu	Cu	0.50713	0.01427	0.93836	0.904
Mof_Cu	Cu	0.1738	0.8262	0.27169	0.904
Mof_Cu	Cu	0.84047	0.15953	0.60502	0.904
Mof_Cu	Cu	0.50713	0.49287	0.93836	0.904
Mof_O 	O 	0.56898	0.43102	0.6278	-0.259
Mof_C 	C 	0.51036	0.48964	0.5162	0.004
Mof_C 	C 	0.54955	0.45045	0.5925	0.142
Mof_C 	C 	0.5884	0.4116	0.5873	0.24
Mof_C 	C 	0.60753	0.39247	0.6376	-0.551
Mof_H 	H 	0.6214	0.3786	0.6134	0.177
Mof_O 	O 	0.23565	0.76435	0.96113	-0.259
Mof_C 	C 	0.17703	0.82297	0.84953	0.005
Mof_C 	C 	0.21622	0.78378	0.92583	0.141
Mof_C 	C 	0.25507	0.74493	0.92063	0.239
Mof_C 	C 	0.2742	0.7258	0.97093	-0.551
Mof_H 	H 	0.28807	0.71193	0.94673	0.178
Mof_O 	O 	0.90231	0.09769	0.29447	-0.259
Mof_C 	C 	0.84369	0.15631	0.18287	0.004
Mof_C 	C 	0.88288	0.11712	0.25917	0.141
Mof_C 	C 	0.92173	0.07827	0.25397	0.24
Mof_C 	C 	0.94086	0.05914	0.30427	-0.551
Mof_H 	H 	0.95473	0.04527	0.28007	0.178
Mof_O 	O 	0.56898	0.13796	0.6278	-0.259
Mof_C 	C 	0.51036	0.02072	0.5162	0.004
Mof_C 	C 	0.54955	0.0991	0.5925	0.142
Mof_C 	C 	0.5884	0.1768	0.5873	0.239
Mof_C 	C 	0.60753	0.21506	0.6376	-0.55
Mof_H 	H 	0.6214	0.2428	0.6134	0.177
Mof_O 	O 	0.23565	0.47129	0.96113	-0.259
Mof_C 	C 	0.17703	0.35405	0.84953	0.005
Mof_C 	C 	0.21622	0.43243	0.92583	0.141
Mof_C 	C 	0.25507	0.51013	0.92063	0.24
Mof_C 	C 	0.2742	0.54839	0.97093	-0.551
Mof_H 	H 	0.28807	0.57613	0.94673	0.178
Mof_O 	O 	0.90231	0.80463	0.29447	-0.259
Mof_C 	C 	0.84369	0.68739	0.18287	0.004
Mof_C 	C 	0.88288	0.76577	0.25917	0.142
Mof_C 	C 	0.92173	0.84347	0.25397	0.24
Mof_C 	C 	0.94086	0.88173	0.30427	-0.551
Mof_H 	H 	0.95473	0.90947	0.28007	0.177
Mof_O 	O 	0.86204	0.43102	0.6278	-0.259
Mof_C 	C 	0.97928	0.48964	0.5162	0.004
Mof_C 	C 	0.9009	0.45045	0.5925	0.142
Mof_C 	C 	0.8232	0.4116	0.5873	0.239
Mof_C 	C 	0.78494	0.39247	0.6376	-0.55
Mof_H 	H 	0.7572	0.3786	0.6134	0.177
Mof_O 	O 	0.52871	0.76435	0.96113	-0.259
Mof_C 	C 	0.64595	0.82297	0.84953	0.005
Mof_C 	C 	0.56757	0.78378	0.92583	0.141
Mof_C 	C 	0.48987	0.74493	0.92063	0.24
Mof_C 	C 	0.45161	0.7258	0.97093	-0.551
Mof_H 	H 	0.42387	0.71193	0.94673	0.178
Mof_O 	O 	0.19537	0.09769	0.29447	-0.259
Mof_C 	C 	0.31261	0.15631	0.18287	0.004
Mof_C 	C 	0.23423	0.11712	0.25917	0.142
Mof_C 	C 	0.15653	0.07827	0.25397	0.24
Mof_C 	C 	0.11827	0.05914	0.30427	-0.551
Mof_H 	H 	0.09053	0.04527	0.28007	0.177
Mof_O 	O 	0.43102	0.56898	0.3722	-0.259
Mof_C 	C 	0.48964	0.51036	0.4838	0.004
Mof_C 	C 	0.45045	0.54955	0.4075	0.142
Mof_C 	C 	0.4116	0.5884	0.4127	0.24
Mof_C 	C 	0.39247	0.60753	0.3624	-0.551
Mof_H 	H 	0.3786	0.6214	0.3866	0.177
Mof_O 	O 	0.09769	0.90231	0.70553	-0.259
Mof_C 	C 	0.15631	0.84369	0.81713	0.004
Mof_C 	C 	0.11712	0.88288	0.74083	0.141
Mof_C 	C 	0.07827	0.92173	0.74603	0.24
Mof_C 	C 	0.05914	0.94086	0.69573	-0.551
Mof_H 	H 	0.04527	0.95473	0.71993	0.178
Mof_O 	O 	0.76435	0.23565	0.03887	-0.259
Mof_C 	C 	0.82297	0.17703	0.15047	0.005
Mof_C 	C 	0.78378	0.21622	0.07417	0.141
Mof_C 	C 	0.74493	0.25507	0.07937	0.239
Mof_C 	C 	0.7258	0.2742	0.02907	-0.551
Mof_H 	H 	0.71193	0.28807	0.05327	0.178
Mof_O 	O 	0.13796	0.56898	0.3722	-0.259
Mof_C 	C 	0.02072	0.51036	0.4838	0.004
Mof_C 	C 	0.0991	0.54955	0.4075	0.142
Mof_C 	C 	0.1768	0.5884	0.4127	0.239
Mof_C 	C 	0.21506	0.60753	0.3624	-0.55
Mof_H 	H 	0.2428	0.6214	0.3866	0.177
Mof_O 	O 	0.80463	0.90231	0.70553	-0.259
Mof_C 	C 	0.68739	0.84369	0.81713	0.004
Mof_C 	C 	0.76577	0.88288	0.74083	0.142
Mof_C 	C 	0.84347	0.92173	0.74603	0.24
Mof_C 	C 	0.88173	0.94086	0.69573	-0.551
Mof_H 	H 	0.90947	0.95473	0.71993	0.177
Mof_O 	O 	0.47129	0.23565	0.03887	-0.259
Mof_C 	C 	0.35405	0.17703	0.15047	0.005
Mof_C 	C 	0.43243	0.21622	0.07417	0.141
Mof_C 	C 	0.51013	0.25507	0.07937	0.24
Mof_C 	C 	0.54839	0.2742	0.02907	-0.551
Mof_H 	H 	0.57613	0.28807	0.05327	0.178
Mof_O 	O 	0.43102	0.86204	0.3722	-0.259
Mof_C 	C 	0.48964	0.97928	0.4838	0.004
Mof_C 	C 	0.45045	0.9009	0.4075	0.142
Mof_C 	C 	0.4116	0.8232	0.4127	0.239
Mof_C 	C 	0.39247	0.78494	0.3624	-0.55
Mof_H 	H 	0.3786	0.7572	0.3866	0.177
Mof_O 	O 	0.09769	0.19537	0.70553	-0.259
Mof_C 	C 	0.15631	0.31261	0.81713	0.004
Mof_C 	C 	0.11712	0.23423	0.74083	0.142
Mof_C 	C 	0.07827	0.15653	0.74603	0.24
Mof_C 	C 	0.05914	0.11827	0.69573	-0.551
Mof_H 	H 	0.04527	0.09053	0.71993	0.177
Mof_O 	O 	0.76435	0.52871	0.03887	-0.259
Mof_C 	C 	0.82297	0.64595	0.15047	0.005
Mof_C 	C 	0.78378	0.56757	0.07417	0.141
Mof_C 	C 	0.74493	0.48987	0.07937	0.24
Mof_C 	C 	0.7258	0.45161	0.02907	-0.551
Mof_H 	H 	0.71193	0.42387	0.05327	0.178
_end
