# CIF file generated by openbabel 3.1.0, see https://openbabel.org
data_I
_chemical_name_common 'ja406030p_si_009_clean'
_cell_length_a 19.2343
_cell_length_b 19.2343
_cell_length_c 36.009
_cell_angle_alpha 90
_cell_angle_beta 90
_cell_angle_gamma 120
_space_group_name_H-M_alt 'P 1'
_space_group_name_Hall 'P 1'
loop_
    _symmetry_equiv_pos_as_xyz
    x,y,z
loop_
    _atom_site_label
    _atom_site_type_symbol
    _atom_site_fract_x
    _atom_site_fract_y
    _atom_site_fract_z
    _atom_site_occupancy
    H1       H        0.28220    0.92240    0.91990    1.000
    H2       H        0.90990    0.55500    0.59300    1.000
    H3       H        0.23220    0.96460    0.88290    1.000
    H4       H        0.67480    0.14230    0.84770    1.000
    C5       C        0.10190    0.49310    0.39495    1.000
    C6       C        0.79410    0.07770    0.13540    1.000
    C7       C        0.56700    0.72130    0.95909    1.000
    C8       C        0.90213    0.35763    0.02344    1.000
    C9       C        0.37300    0.50550    0.14070    1.000
    C10      C        0.37880    0.12970    0.42920    1.000
    O11      O        0.63013    0.11332    0.99128    1.000
    O12      O        0.44493    0.40603    0.04242    1.000
    O13      O        0.34060    0.79788    0.21003    1.000
    H14      H        0.07760    0.35980    0.91990    1.000
    H15      H        0.44500    0.35490    0.59300    1.000
    H16      H        0.85770    0.53250    0.84770    1.000
    H17      H        0.24590    0.33030    0.85120    1.000
    C18      C        0.50690    0.60880    0.39495    1.000
    C19      C        0.92230    0.71640    0.13540    1.000
    C20      C        0.27870    0.84570    0.95909    1.000
    C21      C        0.64237    0.54450    0.02344    1.000
    C22      C        0.49450    0.86750    0.14070    1.000
    C23      C        0.87030    0.24910    0.42920    1.000
    O24      O        0.88668    0.51681    0.99128    1.000
    O25      O        0.59397    0.03890    0.04242    1.000
    O26      O        0.20212    0.54272    0.21003    1.000
    H27      H        0.93650    0.76020    0.34730    1.000
    H28      H        0.64020    0.71780    0.91990    1.000
    H29      H        0.64510    0.09010    0.59300    1.000
    H30      H        0.46750    0.32520    0.84770    1.000
    H31      H        0.66970    0.91560    0.85120    1.000
    C32      C        0.39120    0.89810    0.39495    1.000
    C33      C        0.28360    0.20590    0.13540    1.000
    C34      C        0.15430    0.43300    0.95909    1.000
    C35      C        0.45550    0.09787    0.02344    1.000
    C36      C        0.13250    0.62700    0.14070    1.000
    C37      C        0.75090    0.62120    0.42920    1.000
    O38      O        0.48319    0.36987    0.99128    1.000
    O39      O        0.96110    0.55507    0.04242    1.000
    O40      O        0.45728    0.65940    0.21003    1.000
    H41      H        0.71780    0.07760    0.41990    1.000
    H42      H        0.09010    0.44500    0.09300    1.000
    H43      H        0.32520    0.85770    0.34770    1.000
    H44      H        0.91560    0.24590    0.35120    1.000
    C45      C        0.89810    0.50690    0.89495    1.000
    C46      C        0.43300    0.27870    0.45909    1.000
    C47      C        0.09787    0.64237    0.52344    1.000
    C48      C        0.62700    0.49450    0.64070    1.000
    C49      C        0.62120    0.87030    0.92920    1.000
    O50      O        0.36987    0.88668    0.49128    1.000
    O51      O        0.55507    0.59397    0.54242    1.000
    O52      O        0.65940    0.20212    0.71003    1.000
    H53      H        0.17630    0.93650    0.84730    1.000
    H54      H        0.92240    0.64020    0.41990    1.000
    H55      H        0.55500    0.64510    0.09300    1.000
    H56      H        0.96460    0.73240    0.38290    1.000
    H57      H        0.14230    0.46750    0.34770    1.000
    C58      C        0.49310    0.39120    0.89495    1.000
    C59      C        0.07770    0.28360    0.63540    1.000
    C60      C        0.72130    0.15430    0.45909    1.000
    C61      C        0.35763    0.45550    0.52344    1.000
    C62      C        0.50550    0.13250    0.64070    1.000
    C63      C        0.12970    0.75090    0.92920    1.000
    O64      O        0.11332    0.48319    0.49128    1.000
    O65      O        0.40603    0.96110    0.54242    1.000
    O66      O        0.79788    0.45728    0.71003    1.000
    H67      H        0.35980    0.28220    0.41990    1.000
    H68      H        0.35490    0.90990    0.09300    1.000
    H69      H        0.53250    0.67480    0.34770    1.000
    H70      H        0.33030    0.08440    0.35120    1.000
    C71      C        0.60880    0.10190    0.89495    1.000
    C72      C        0.71640    0.79410    0.63540    1.000
    C73      C        0.84570    0.56700    0.45909    1.000
    C74      C        0.54450    0.90213    0.52344    1.000
    C75      C        0.86750    0.37300    0.64070    1.000
    C76      C        0.24910    0.37880    0.92920    1.000
    O77      O        0.51681    0.63013    0.49128    1.000
    O78      O        0.03890    0.44493    0.54242    1.000
    O79      O        0.54272    0.34060    0.71003    1.000
    H80      H        0.92240    0.28220    0.08010    1.000
    H81      H        0.55500    0.90990    0.40700    1.000
    H82      H        0.14230    0.67480    0.15230    1.000
    H83      H        0.75410    0.08440    0.14880    1.000
    C84      C        0.49310    0.10190    0.60505    1.000
    C85      C        0.72130    0.56700    0.04091    1.000
    C86      C        0.35763    0.90213    0.97656    1.000
    C87      C        0.50550    0.37300    0.85930    1.000
    C88      C        0.12970    0.37880    0.57080    1.000
    O89      O        0.11332    0.63013    0.00872    1.000
    O90      O        0.40603    0.44493    0.95758    1.000
    O91      O        0.79788    0.34060    0.78997    1.000
    H92      H        0.06350    0.82370    0.65270    1.000
    H93      H        0.35980    0.07760    0.08010    1.000
    H94      H        0.35490    0.44500    0.40700    1.000
    H95      H        0.53250    0.85770    0.15230    1.000
    H96      H        0.33030    0.24590    0.14880    1.000
    C97      C        0.60880    0.50690    0.60505    1.000
    C98      C        0.71640    0.92230    0.86460    1.000
    C99      C        0.84570    0.27870    0.04091    1.000
    C100     C        0.54450    0.64237    0.97656    1.000
    C101     C        0.86750    0.49450    0.85930    1.000
    C102     C        0.24910    0.87030    0.57080    1.000
    O103     O        0.51681    0.88668    0.00872    1.000
    O104     O        0.03890    0.59397    0.95758    1.000
    O105     O        0.54272    0.20212    0.78997    1.000
    H106     H        0.71780    0.64020    0.08010    1.000
    H107     H        0.09010    0.64510    0.40700    1.000
    H108     H        0.32520    0.46750    0.15230    1.000
    H109     H        0.91560    0.66970    0.14880    1.000
    C110     C        0.89810    0.39120    0.60505    1.000
    C111     C        0.20590    0.28360    0.86460    1.000
    C112     C        0.43300    0.15430    0.04091    1.000
    C113     C        0.09787    0.45550    0.97656    1.000
    C114     C        0.62700    0.13250    0.85930    1.000
    C115     C        0.62120    0.75090    0.57080    1.000
    O116     O        0.36987    0.48319    0.00872    1.000
    O117     O        0.55507    0.96110    0.95758    1.000
    O118     O        0.65940    0.45728    0.78997    1.000
    H119     H        0.07760    0.71780    0.58010    1.000
    H120     H        0.44500    0.09010    0.90700    1.000
    H121     H        0.03540    0.76780    0.61710    1.000
    H122     H        0.85770    0.32520    0.65230    1.000
    C123     C        0.50690    0.89810    0.10505    1.000
    C124     C        0.92230    0.20590    0.36460    1.000
    C125     C        0.27870    0.43300    0.54091    1.000
    C126     C        0.64237    0.09787    0.47656    1.000
    C127     C        0.49450    0.62700    0.35930    1.000
    C128     C        0.87030    0.62120    0.07080    1.000
    O129     O        0.88668    0.36987    0.50872    1.000
    O130     O        0.59397    0.55507    0.45758    1.000
    O131     O        0.20212    0.65940    0.28997    1.000
    H132     H        0.64020    0.92240    0.58010    1.000
    H133     H        0.64510    0.55500    0.90700    1.000
    H134     H        0.46750    0.14230    0.65230    1.000
    H135     H        0.66970    0.75410    0.64880    1.000
    C136     C        0.39120    0.49310    0.10505    1.000
    C137     C        0.28360    0.07770    0.36460    1.000
    C138     C        0.15430    0.72130    0.54091    1.000
    C139     C        0.45550    0.35763    0.47656    1.000
    C140     C        0.13250    0.50550    0.35930    1.000
    C141     C        0.75090    0.12970    0.07080    1.000
    O142     O        0.48319    0.11332    0.50872    1.000
    O143     O        0.96110    0.40603    0.45758    1.000
    O144     O        0.45728    0.79788    0.28997    1.000
    H145     H        0.28220    0.35980    0.58010    1.000
    H146     H        0.90990    0.35490    0.90700    1.000
    H147     H        0.67480    0.53250    0.65230    1.000
    H148     H        0.08440    0.33030    0.64880    1.000
    C149     C        0.10190    0.60880    0.10505    1.000
    C150     C        0.56700    0.84570    0.54091    1.000
    C151     C        0.90213    0.54450    0.47656    1.000
    C152     C        0.37300    0.86750    0.35930    1.000
    C153     C        0.37880    0.24910    0.07080    1.000
    O154     O        0.63013    0.51681    0.50872    1.000
    O155     O        0.44493    0.03890    0.45758    1.000
    O156     O        0.34060    0.54272    0.28997    1.000
    H157     H        0.76020    0.82370    0.65270    1.000
    H158     H        0.71780    0.07760    0.08010    1.000
    H159     H        0.09010    0.44500    0.40700    1.000
    H160     H        0.76780    0.03540    0.11710    1.000
    H161     H        0.32520    0.85770    0.15230    1.000
    C162     C        0.89810    0.50690    0.60505    1.000
    C163     C        0.20590    0.92230    0.86460    1.000
    C164     C        0.43300    0.27870    0.04091    1.000
    C165     C        0.09787    0.64237    0.97656    1.000
    C166     C        0.62700    0.49450    0.85930    1.000
    C167     C        0.62120    0.87030    0.57080    1.000
    O168     O        0.36987    0.88668    0.00872    1.000
    O169     O        0.55507    0.59397    0.95758    1.000
    O170     O        0.65940    0.20212    0.78997    1.000
    H171     H        0.92240    0.64020    0.08010    1.000
    H172     H        0.55500    0.64510    0.40700    1.000
    H173     H        0.96460    0.73240    0.11710    1.000
    H174     H        0.14230    0.46750    0.15230    1.000
    C175     C        0.49310    0.39120    0.60505    1.000
    C176     C        0.72130    0.15430    0.04091    1.000
    C177     C        0.35763    0.45550    0.97656    1.000
    C178     C        0.50550    0.13250    0.85930    1.000
    C179     C        0.12970    0.75090    0.57080    1.000
    O180     O        0.11332    0.48319    0.00872    1.000
    O181     O        0.40603    0.96110    0.95758    1.000
    O182     O        0.79788    0.45728    0.78997    1.000
    H183     H        0.06350    0.23980    0.65270    1.000
    H184     H        0.35980    0.28220    0.08010    1.000
    H185     H        0.35490    0.90990    0.40700    1.000
    H186     H        0.26760    0.23220    0.11710    1.000
    H187     H        0.53250    0.67480    0.15230    1.000
    C188     C        0.60880    0.10190    0.60505    1.000
    C189     C        0.84570    0.56700    0.04091    1.000
    C190     C        0.54450    0.90213    0.97656    1.000
    C191     C        0.86750    0.37300    0.85930    1.000
    C192     C        0.24910    0.37880    0.57080    1.000
    O193     O        0.51681    0.63013    0.00872    1.000
    O194     O        0.03890    0.44493    0.95758    1.000
    O195     O        0.54272    0.34060    0.78997    1.000
    H196     H        0.23980    0.17630    0.15270    1.000
    H197     H        0.28220    0.92240    0.58010    1.000
    H198     H        0.90990    0.55500    0.90700    1.000
    H199     H        0.67480    0.14230    0.65230    1.000
    H200     H        0.08440    0.75410    0.64880    1.000
    C201     C        0.10190    0.49310    0.10505    1.000
    C202     C        0.56700    0.72130    0.54091    1.000
    C203     C        0.90213    0.35763    0.47656    1.000
    C204     C        0.37300    0.50550    0.35930    1.000
    C205     C        0.37880    0.12970    0.07080    1.000
    O206     O        0.63013    0.11332    0.50872    1.000
    O207     O        0.44493    0.40603    0.45758    1.000
    O208     O        0.34060    0.79788    0.28997    1.000
    H209     H        0.82370    0.06350    0.15270    1.000
    H210     H        0.07760    0.35980    0.58010    1.000
    H211     H        0.44500    0.35490    0.90700    1.000
    H212     H        0.03540    0.26760    0.61710    1.000
    H213     H        0.85770    0.53250    0.65230    1.000
    C214     C        0.50690    0.60880    0.10505    1.000
    C215     C        0.92230    0.71640    0.36460    1.000
    C216     C        0.27870    0.84570    0.54091    1.000
    C217     C        0.64237    0.54450    0.47656    1.000
    C218     C        0.49450    0.86750    0.35930    1.000
    C219     C        0.87030    0.24910    0.07080    1.000
    O220     O        0.88668    0.51681    0.50872    1.000
    O221     O        0.59397    0.03890    0.45758    1.000
    O222     O        0.20212    0.54272    0.28997    1.000
    H223     H        0.93650    0.76020    0.15270    1.000
    H224     H        0.64020    0.71780    0.58010    1.000
    H225     H        0.64510    0.09010    0.90700    1.000
    H226     H        0.73240    0.76780    0.61710    1.000
    H227     H        0.46750    0.32520    0.65230    1.000
    C228     C        0.39120    0.89810    0.10505    1.000
    C229     C        0.15430    0.43300    0.54091    1.000
    C230     C        0.45550    0.09787    0.47656    1.000
    C231     C        0.13250    0.62700    0.35930    1.000
    C232     C        0.75090    0.62120    0.07080    1.000
    O233     O        0.48319    0.36987    0.50872    1.000
    O234     O        0.96110    0.55507    0.45758    1.000
    O235     O        0.45728    0.65940    0.28997    1.000
    H236     H        0.07760    0.71780    0.91990    1.000
    H237     H        0.44500    0.09010    0.59300    1.000
    H238     H        0.85770    0.32520    0.84770    1.000
    H239     H        0.24590    0.91560    0.85120    1.000
    C240     C        0.50690    0.89810    0.39495    1.000
    C241     C        0.27870    0.43300    0.95909    1.000
    C242     C        0.64237    0.09787    0.02344    1.000
    C243     C        0.49450    0.62700    0.14070    1.000
    C244     C        0.87030    0.62120    0.42920    1.000
    O245     O        0.88668    0.36987    0.99128    1.000
    O246     O        0.59397    0.55507    0.04242    1.000
    O247     O        0.20212    0.65940    0.21003    1.000
    H248     H        0.93650    0.17630    0.34730    1.000
    H249     H        0.64020    0.92240    0.91990    1.000
    H250     H        0.64510    0.55500    0.59300    1.000
    H251     H        0.73240    0.96460    0.88290    1.000
    H252     H        0.46750    0.14230    0.84770    1.000
    C253     C        0.39120    0.49310    0.39495    1.000
    C254     C        0.15430    0.72130    0.95909    1.000
    C255     C        0.45550    0.35763    0.02344    1.000
    C256     C        0.13250    0.50550    0.14070    1.000
    C257     C        0.75090    0.12970    0.42920    1.000
    O258     O        0.48319    0.11332    0.99128    1.000
    O259     O        0.96110    0.40603    0.04242    1.000
    O260     O        0.45728    0.79788    0.21003    1.000
    H261     H        0.23980    0.06350    0.34730    1.000
    H262     H        0.28220    0.35980    0.91990    1.000
    H263     H        0.90990    0.35490    0.59300    1.000
    H264     H        0.23220    0.26760    0.88290    1.000
    H265     H        0.67480    0.53250    0.84770    1.000
    C266     C        0.10190    0.60880    0.39495    1.000
    C267     C        0.56700    0.84570    0.95909    1.000
    C268     C        0.90213    0.54450    0.02344    1.000
    C269     C        0.37300    0.86750    0.14070    1.000
    C270     C        0.37880    0.24910    0.42920    1.000
    O271     O        0.63013    0.51681    0.99128    1.000
    O272     O        0.44493    0.03890    0.04242    1.000
    O273     O        0.34060    0.54272    0.21003    1.000
    H274     H        0.17630    0.23980    0.84730    1.000
    H275     H        0.92240    0.28220    0.41990    1.000
    H276     H        0.55500    0.90990    0.09300    1.000
    H277     H        0.96460    0.23220    0.38290    1.000
    H278     H        0.14230    0.67480    0.34770    1.000
    C279     C        0.49310    0.10190    0.89495    1.000
    C280     C        0.07770    0.79410    0.63540    1.000
    C281     C        0.72130    0.56700    0.45909    1.000
    C282     C        0.35763    0.90213    0.52344    1.000
    C283     C        0.50550    0.37300    0.64070    1.000
    C284     C        0.12970    0.37880    0.92920    1.000
    O285     O        0.11332    0.63013    0.49128    1.000
    O286     O        0.40603    0.44493    0.54242    1.000
    O287     O        0.79788    0.34060    0.71003    1.000
    H288     H        0.35980    0.07760    0.41990    1.000
    H289     H        0.35490    0.44500    0.09300    1.000
    H290     H        0.26760    0.03540    0.38290    1.000
    H291     H        0.53250    0.85770    0.34770    1.000
    C292     C        0.60880    0.50690    0.89495    1.000
    C293     C        0.84570    0.27870    0.45909    1.000
    C294     C        0.54450    0.64237    0.52344    1.000
    C295     C        0.86750    0.49450    0.64070    1.000
    C296     C        0.24910    0.87030    0.92920    1.000
    O297     O        0.51681    0.88668    0.49128    1.000
    O298     O        0.03890    0.59397    0.54242    1.000
    O299     O        0.54272    0.20212    0.71003    1.000
    H300     H        0.76020    0.93650    0.84730    1.000
    H301     H        0.71780    0.64020    0.41990    1.000
    H302     H        0.09010    0.64510    0.09300    1.000
    H303     H        0.32520    0.46750    0.34770    1.000
    H304     H        0.91560    0.66970    0.35120    1.000
    C305     C        0.89810    0.39120    0.89495    1.000
    C306     C        0.43300    0.15430    0.45909    1.000
    C307     C        0.09787    0.45550    0.52344    1.000
    C308     C        0.62700    0.13250    0.64070    1.000
    C309     C        0.62120    0.75090    0.92920    1.000
    O310     O        0.36987    0.48319    0.49128    1.000
    O311     O        0.55507    0.96110    0.54242    1.000
    O312     O        0.65940    0.45728    0.71003    1.000
    Zn313    Zn       0.04610    0.52305    0.03449    1.000
    Zn314    Zn       0.47695    0.52305    0.03449    1.000
    Zn315    Zn       0.47695    0.95390    0.03449    1.000
    Zn316    Zn       0.95390    0.47695    0.53449    1.000
    Zn317    Zn       0.52305    0.47695    0.53449    1.000
    Zn318    Zn       0.52305    0.04610    0.53449    1.000
    Zn319    Zn       0.52305    0.04610    0.96551    1.000
    Zn320    Zn       0.52305    0.47695    0.96551    1.000
    Zn321    Zn       0.95390    0.47695    0.96551    1.000
    Zn322    Zn       0.47695    0.95390    0.46551    1.000
    Zn323    Zn       0.47695    0.52305    0.46551    1.000
    Zn324    Zn       0.04610    0.52305    0.46551    1.000
    Cr325    Cr       0.44809    0.72404    0.25000    1.000
    Cr326    Cr       0.27596    0.72404    0.25000    1.000
    Cr327    Cr       0.27596    0.55191    0.25000    1.000
    Cr328    Cr       0.55191    0.27596    0.75000    1.000
    Cr329    Cr       0.72404    0.27596    0.75000    1.000
    Cr330    Cr       0.72404    0.44809    0.75000    1.000
    H331     H        0.76430    0.23570    0.99970    1.000
    C332     C        0.17575    0.82425    0.58750    1.000
    H333     H        0.76430    0.52860    0.99970    1.000
    C334     C        0.17575    0.35150    0.58750    1.000
    H335     H        0.47140    0.23570    0.99970    1.000
    C336     C        0.64850    0.82425    0.58750    1.000
    H337     H        0.23570    0.76430    0.49970    1.000
    C338     C        0.82425    0.17575    0.08750    1.000
    H339     H        0.23570    0.47140    0.49970    1.000
    C340     C        0.82425    0.64850    0.08750    1.000
    H341     H        0.52860    0.76430    0.49970    1.000
    C342     C        0.35150    0.17575    0.08750    1.000
    H343     H        0.23570    0.76430    0.00030    1.000
    C344     C        0.82425    0.17575    0.41250    1.000
    H345     H        0.52860    0.76430    0.00030    1.000
    C346     C        0.35150    0.17575    0.41250    1.000
    H347     H        0.23570    0.47140    0.00030    1.000
    C348     C        0.82425    0.64850    0.41250    1.000
    H349     H        0.76430    0.23570    0.50030    1.000
    C350     C        0.17575    0.82425    0.91250    1.000
    H351     H        0.47140    0.23570    0.50030    1.000
    C352     C        0.64850    0.82425    0.91250    1.000
    H353     H        0.76430    0.52860    0.50030    1.000
    C354     C        0.17575    0.35150    0.91250    1.000
    C355     C        0.85214    0.42607    0.84139    1.000
    C356     C        0.44900    0.22450    0.47635    1.000
    N357     N        0.91158    0.45579    0.91295    1.000
    O358     O        0.30290    0.15145    0.38290    1.000
    C359     C        0.57393    0.42607    0.84139    1.000
    C360     C        0.77550    0.22450    0.47635    1.000
    N361     N        0.54421    0.45579    0.91295    1.000
    O362     O        0.84855    0.15145    0.38290    1.000
    C363     C        0.57393    0.14786    0.84139    1.000
    C364     C        0.77550    0.55100    0.47635    1.000
    N365     N        0.54421    0.08842    0.91295    1.000
    O366     O        0.84855    0.69710    0.38290    1.000
    C367     C        0.14786    0.57393    0.34139    1.000
    C368     C        0.55100    0.77550    0.97635    1.000
    N369     N        0.08842    0.54421    0.41295    1.000
    O370     O        0.69710    0.84855    0.88290    1.000
    C371     C        0.42607    0.57393    0.34139    1.000
    C372     C        0.22450    0.77550    0.97635    1.000
    N373     N        0.45579    0.54421    0.41295    1.000
    O374     O        0.15145    0.84855    0.88290    1.000
    C375     C        0.42607    0.85214    0.34139    1.000
    C376     C        0.22450    0.44900    0.97635    1.000
    N377     N        0.45579    0.91158    0.41295    1.000
    O378     O        0.15145    0.30290    0.88290    1.000
    C379     C        0.42607    0.85214    0.15861    1.000
    C380     C        0.22450    0.44900    0.52365    1.000
    N381     N        0.45579    0.91158    0.08705    1.000
    O382     O        0.15145    0.30290    0.61710    1.000
    C383     C        0.42607    0.57393    0.15861    1.000
    C384     C        0.22450    0.77550    0.52365    1.000
    N385     N        0.45579    0.54421    0.08705    1.000
    O386     O        0.15145    0.84855    0.61710    1.000
    C387     C        0.14786    0.57393    0.15861    1.000
    C388     C        0.55100    0.77550    0.52365    1.000
    N389     N        0.08842    0.54421    0.08705    1.000
    O390     O        0.69710    0.84855    0.61710    1.000
    C391     C        0.57393    0.14786    0.65861    1.000
    C392     C        0.77550    0.55100    0.02365    1.000
    N393     N        0.54421    0.08842    0.58705    1.000
    O394     O        0.84855    0.69710    0.11710    1.000
    C395     C        0.57393    0.42607    0.65861    1.000
    C396     C        0.77550    0.22450    0.02365    1.000
    N397     N        0.54421    0.45579    0.58705    1.000
    O398     O        0.84855    0.15145    0.11710    1.000
    C399     C        0.85214    0.42607    0.65861    1.000
    C400     C        0.44900    0.22450    0.02365    1.000
    N401     N        0.91158    0.45579    0.58705    1.000
    O402     O        0.30290    0.15145    0.11710    1.000
    C403     C        0.40602    0.81204    0.19620    1.000
    C404     C        0.18796    0.59398    0.19620    1.000
    C405     C        0.40602    0.59398    0.19620    1.000
    C406     C        0.59398    0.18796    0.69620    1.000
    C407     C        0.81204    0.40602    0.69620    1.000
    C408     C        0.59398    0.40602    0.69620    1.000
    C409     C        0.81204    0.40602    0.80380    1.000
    C410     C        0.59398    0.18796    0.80380    1.000
    C411     C        0.59398    0.40602    0.80380    1.000
    C412     C        0.18796    0.59398    0.30380    1.000
    C413     C        0.40602    0.81204    0.30380    1.000
    C414     C        0.40602    0.59398    0.30380    1.000
    O415     O        0.33333    0.66667    0.25000    1.000
    O416     O        0.66667    0.33333    0.75000    1.000
