data_functionalizedCrystal
_audit_creation_method	'EQeq! by Chris Wilmer'
_symmetry_space_group_name_H-M	'P1'
_symmetry_Int_Tables_number	1
_symmetry_cell_setting	triclinic
loop_
_symmetry_equiv_pos_as_xyz
  x,y,z
_cell_length_a	15.1473
_cell_length_b	15.1473
_cell_length_c	15.4766
_cell_angle_alpha	90
_cell_angle_beta	90
_cell_angle_gamma	120
loop_
_atom_site_label
_atom_site_type_symbol
_atom_site_fract_x
_atom_site_fract_y
_atom_site_fract_z
_atom_site_charge
Mof_Dy	Dy	0.66667	0.33334	0.75	2.007
Mof_Dy	Dy	0.33333	0.66666	0.75	2.007
Mof_Dy	Dy	0.33333	0.66666	0.25	1.989
Mof_Dy	Dy	0.66667	0.33334	0.25	1.989
Mof_Co	Co	0.5	0.5	0.5	1.167
Mof_Co	Co	1.13738e-17	0.5	0.5	1.129
Mof_Co	Co	0.5	0	0.5	1.129
Mof_Co	Co	3.69686e-17	0.5	-0	1.064
Mof_Co	Co	0.5	0.5	-0	1.1
Mof_Co	Co	0.5	0	-0	1.064
Mof_H 	H 	0.2867	0.2331	0.655	0.043
Mof_H 	H 	0.9464	0.7133	0.655	0.076
Mof_H 	H 	0.7669	0.0536	0.655	0.036
Mof_H 	H 	0.7133	0.7669	0.655	0.06
Mof_H 	H 	0.0536	0.2867	0.655	0.027
Mof_H 	H 	0.2331	0.9464	0.655	0.067
Mof_H 	H 	0.0536	0.7669	0.845	0.056
Mof_H 	H 	0.2331	0.2867	0.845	0.064
Mof_H 	H 	0.7133	0.9464	0.845	0.096
Mof_H 	H 	0.9464	0.2331	0.845	0.088
Mof_H 	H 	0.7669	0.7133	0.845	0.08
Mof_H 	H 	0.2867	0.0536	0.845	0.049
Mof_H 	H 	0.7133	0.7669	0.345	0.057
Mof_H 	H 	0.0536	0.2867	0.345	0.024
Mof_H 	H 	0.2331	0.9464	0.345	0.064
Mof_H 	H 	0.2867	0.2331	0.345	0.039
Mof_H 	H 	0.9464	0.7133	0.345	0.073
Mof_H 	H 	0.7669	0.0536	0.345	0.032
Mof_H 	H 	0.9464	0.2331	0.155	0.046
Mof_H 	H 	0.7669	0.7133	0.155	0.038
Mof_H 	H 	0.2867	0.0536	0.155	0.005
Mof_H 	H 	0.0536	0.7669	0.155	0.014
Mof_H 	H 	0.2331	0.2867	0.155	0.02
Mof_H 	H 	0.7133	0.9464	0.155	0.054
Mof_H 	H 	0.1993	0.09965	0.75	0.015
Mof_H 	H 	0.90035	0.8007	0.75	0.067
Mof_H 	H 	0.90035	0.09965	0.75	0.04
Mof_H 	H 	0.8007	0.90035	0.75	0.067
Mof_H 	H 	0.09965	0.1993	0.75	0.015
Mof_H 	H 	0.09965	0.90035	0.75	0.04
Mof_H 	H 	0.8007	0.90035	0.25	0.062
Mof_H 	H 	0.09965	0.1993	0.25	0.009
Mof_H 	H 	0.09965	0.90035	0.25	0.035
Mof_H 	H 	0.1993	0.09965	0.25	0.009
Mof_H 	H 	0.90035	0.8007	0.25	0.062
Mof_H 	H 	0.90035	0.09965	0.25	0.035
Mof_C 	C 	0.4924	0.3544	0.6392	0.365
Mof_C 	C 	0.4266	0.2651	0.6961	-0.033
Mof_C 	C 	0.3214	0.2142	0.6936	-0.039
Mof_C 	C 	0.862	0.5076	0.6392	0.362
Mof_C 	C 	0.8385	0.5734	0.6961	-0.014
Mof_C 	C 	0.8928	0.6786	0.6936	-0.028
Mof_C 	C 	0.6456	0.138	0.6392	0.367
Mof_C 	C 	0.7349	0.1615	0.6961	-0.034
Mof_C 	C 	0.7858	0.1072	0.6936	-0.034
Mof_C 	C 	0.5076	0.6456	0.6392	0.367
Mof_C 	C 	0.5734	0.7349	0.6961	-0.022
Mof_C 	C 	0.6786	0.7858	0.6936	-0.027
Mof_C 	C 	0.138	0.4924	0.6392	0.366
Mof_C 	C 	0.1615	0.4266	0.6961	-0.04
Mof_C 	C 	0.1072	0.3214	0.6936	-0.039
Mof_C 	C 	0.3544	0.862	0.6392	0.361
Mof_C 	C 	0.2651	0.8385	0.6961	-0.019
Mof_C 	C 	0.2142	0.8928	0.6936	-0.034
Mof_C 	C 	0.138	0.6456	0.8608	0.361
Mof_C 	C 	0.1615	0.7349	0.8039	-0.019
Mof_C 	C 	0.1072	0.7858	0.8064	-0.036
Mof_C 	C 	0.3544	0.4924	0.8608	0.358
Mof_C 	C 	0.2651	0.4266	0.8039	-0.018
Mof_C 	C 	0.2142	0.3214	0.8064	-0.04
Mof_C 	C 	0.5076	0.862	0.8608	0.356
Mof_C 	C 	0.5734	0.8385	0.8039	0.001
Mof_C 	C 	0.6786	0.8928	0.8064	-0.029
Mof_C 	C 	0.862	0.3544	0.8608	0.355
Mof_C 	C 	0.8385	0.2651	0.8039	-0.005
Mof_C 	C 	0.8928	0.2142	0.8064	-0.035
Mof_C 	C 	0.6456	0.5076	0.8608	0.36
Mof_C 	C 	0.7349	0.5734	0.8039	-0.007
Mof_C 	C 	0.7858	0.6786	0.8064	-0.03
Mof_C 	C 	0.4924	0.138	0.8608	0.36
Mof_C 	C 	0.4266	0.1615	0.8039	-0.025
Mof_C 	C 	0.3214	0.1072	0.8064	-0.041
Mof_C 	C 	0.5076	0.6456	0.3608	0.368
Mof_C 	C 	0.5734	0.7349	0.3039	-0.029
Mof_C 	C 	0.6786	0.7858	0.3064	-0.018
Mof_C 	C 	0.138	0.4924	0.3608	0.368
Mof_C 	C 	0.1615	0.4266	0.3039	-0.048
Mof_C 	C 	0.1072	0.3214	0.3064	-0.03
Mof_C 	C 	0.3544	0.862	0.3608	0.363
Mof_C 	C 	0.2651	0.8385	0.3039	-0.027
Mof_C 	C 	0.2142	0.8928	0.3064	-0.024
Mof_C 	C 	0.4924	0.3544	0.3608	0.367
Mof_C 	C 	0.4266	0.2651	0.3039	-0.041
Mof_C 	C 	0.3214	0.2142	0.3064	-0.029
Mof_C 	C 	0.862	0.5076	0.3608	0.364
Mof_C 	C 	0.8385	0.5734	0.3039	-0.021
Mof_C 	C 	0.8928	0.6786	0.3064	-0.018
Mof_C 	C 	0.6456	0.138	0.3608	0.369
Mof_C 	C 	0.7349	0.1615	0.3039	-0.041
Mof_C 	C 	0.7858	0.1072	0.3064	-0.025
Mof_C 	C 	0.862	0.3544	0.1392	0.363
Mof_C 	C 	0.8385	0.2651	0.1961	-0.038
Mof_C 	C 	0.8928	0.2142	0.1936	-0.024
Mof_C 	C 	0.6456	0.5076	0.1392	0.369
Mof_C 	C 	0.7349	0.5734	0.1961	-0.041
Mof_C 	C 	0.7858	0.6786	0.1936	-0.017
Mof_C 	C 	0.4924	0.138	0.1392	0.368
Mof_C 	C 	0.4266	0.1615	0.1961	-0.059
Mof_C 	C 	0.3214	0.1072	0.1936	-0.029
Mof_C 	C 	0.138	0.6456	0.1392	0.369
Mof_C 	C 	0.1615	0.7349	0.1961	-0.053
Mof_C 	C 	0.1072	0.7858	0.1936	-0.024
Mof_C 	C 	0.3544	0.4924	0.1392	0.367
Mof_C 	C 	0.2651	0.4266	0.1961	-0.053
Mof_C 	C 	0.2142	0.3214	0.1936	-0.029
Mof_C 	C 	0.5076	0.862	0.1392	0.364
Mof_C 	C 	0.5734	0.8385	0.1961	-0.033
Mof_C 	C 	0.6786	0.8928	0.1936	-0.018
Mof_C 	C 	0.2702	0.1351	0.75	-0.037
Mof_C 	C 	0.8649	0.7298	0.75	-0.017
Mof_C 	C 	0.8649	0.1351	0.75	-0.027
Mof_C 	C 	0.7298	0.8649	0.75	-0.018
Mof_C 	C 	0.1351	0.2702	0.75	-0.037
Mof_C 	C 	0.1351	0.8649	0.75	-0.027
Mof_C 	C 	0.7298	0.8649	0.25	-0.04
Mof_C 	C 	0.1351	0.2702	0.25	-0.061
Mof_C 	C 	0.1351	0.8649	0.25	-0.05
Mof_C 	C 	0.2702	0.1351	0.25	-0.061
Mof_C 	C 	0.8649	0.7298	0.25	-0.04
Mof_C 	C 	0.8649	0.1351	0.25	-0.05
Mof_N 	N 	0.4781	0.23905	0.75	-0.198
Mof_N 	N 	0.76095	0.5219	0.75	-0.198
Mof_N 	N 	0.76095	0.23905	0.75	-0.198
Mof_N 	N 	0.5219	0.76095	0.75	-0.198
Mof_N 	N 	0.23905	0.4781	0.75	-0.198
Mof_N 	N 	0.23905	0.76095	0.75	-0.198
Mof_N 	N 	0.5219	0.76095	0.25	-0.193
Mof_N 	N 	0.23905	0.4781	0.25	-0.193
Mof_N 	N 	0.23905	0.76095	0.25	-0.193
Mof_N 	N 	0.4781	0.23905	0.25	-0.193
Mof_N 	N 	0.76095	0.5219	0.25	-0.193
Mof_N 	N 	0.76095	0.23905	0.25	-0.193
Mof_O 	O 	0.5877	0.3889	0.6436	-0.458
Mof_O 	O 	0.4484	0.3869	0.592	-0.429
Mof_O 	O 	0.8012	0.4123	0.6436	-0.444
Mof_O 	O 	0.9385	0.5516	0.592	-0.384
Mof_O 	O 	0.6111	0.1988	0.6436	-0.465
Mof_O 	O 	0.6131	0.0615	0.592	-0.45
Mof_O 	O 	0.4123	0.6111	0.6436	-0.456
Mof_O 	O 	0.5516	0.6131	0.592	-0.423
Mof_O 	O 	0.1988	0.5877	0.6436	-0.466
Mof_O 	O 	0.0615	0.4484	0.592	-0.453
Mof_O 	O 	0.3889	0.8012	0.6436	-0.445
Mof_O 	O 	0.3869	0.9385	0.592	-0.388
Mof_O 	O 	0.1988	0.6111	0.8564	-0.434
Mof_O 	O 	0.0615	0.6131	0.908	-0.385
Mof_O 	O 	0.3889	0.5877	0.8564	-0.427
Mof_O 	O 	0.3869	0.4484	0.908	-0.363
Mof_O 	O 	0.4123	0.8012	0.8564	-0.414
Mof_O 	O 	0.5516	0.9385	0.908	-0.321
Mof_O 	O 	0.8012	0.3889	0.8564	-0.414
Mof_O 	O 	0.9385	0.3869	0.908	-0.324
Mof_O 	O 	0.6111	0.4123	0.8564	-0.425
Mof_O 	O 	0.6131	0.5516	0.908	-0.358
Mof_O 	O 	0.5877	0.1988	0.8564	-0.435
Mof_O 	O 	0.4484	0.0615	0.908	-0.387
Mof_O 	O 	0.4123	0.6111	0.3564	-0.454
Mof_O 	O 	0.5516	0.6131	0.408	-0.423
Mof_O 	O 	0.1988	0.5877	0.3564	-0.465
Mof_O 	O 	0.0615	0.4484	0.408	-0.454
Mof_O 	O 	0.3889	0.8012	0.3564	-0.443
Mof_O 	O 	0.3869	0.9385	0.408	-0.387
Mof_O 	O 	0.5877	0.3889	0.3564	-0.456
Mof_O 	O 	0.4484	0.3869	0.408	-0.43
Mof_O 	O 	0.8012	0.4123	0.3564	-0.442
Mof_O 	O 	0.9385	0.5516	0.408	-0.384
Mof_O 	O 	0.6111	0.1988	0.3564	-0.464
Mof_O 	O 	0.6131	0.0615	0.408	-0.45
Mof_O 	O 	0.8012	0.3889	0.1436	-0.466
Mof_O 	O 	0.9385	0.3869	0.092	-0.425
Mof_O 	O 	0.6111	0.4123	0.1436	-0.478
Mof_O 	O 	0.6131	0.5516	0.092	-0.461
Mof_O 	O 	0.5877	0.1988	0.1436	-0.488
Mof_O 	O 	0.4484	0.0615	0.092	-0.492
Mof_O 	O 	0.1988	0.6111	0.1436	-0.487
Mof_O 	O 	0.0615	0.6131	0.092	-0.488
Mof_O 	O 	0.3889	0.5877	0.1436	-0.479
Mof_O 	O 	0.3869	0.4484	0.092	-0.468
Mof_O 	O 	0.4123	0.8012	0.1436	-0.465
Mof_O 	O 	0.5516	0.9385	0.092	-0.422
_end
