# CIF file generated by openbabel 3.1.0, see https://openbabel.org
data_I
_chemical_name_common 'image0'
_cell_length_a 8.356
_cell_length_b 14.164
_cell_length_c 8.424
_cell_angle_alpha 90
_cell_angle_beta 90
_cell_angle_gamma 90
_space_group_name_H-M_alt 'P 1'
_space_group_name_Hall 'P 1'
loop_
    _symmetry_equiv_pos_as_xyz
    x,y,z
loop_
    _atom_site_label
    _atom_site_type_symbol
    _atom_site_fract_x
    _atom_site_fract_y
    _atom_site_fract_z
    _atom_site_occupancy
    C1       C        0.44210    0.98930    0.27110    1.000
    C2       C        0.58190    0.92180    0.30180    1.000
    C3       C        0.73690    0.85140    0.52510    1.000
    C4       C        0.65830    0.76570    0.57430    1.000
    Nd1      Nd       0.34460    0.91450    0.63420    1.000
    N1       N        0.62110    0.92960    0.47870    1.000
    O1       O        0.33590    0.00020    0.37200    1.000
    O2       O        0.42890    0.01520    0.12450    1.000
    O3       O        0.72260    0.68440    0.56130    1.000
    O4       O        0.51390    0.77140    0.62710    1.000
    C5       C        0.05790    0.01070    0.77110    1.000
    C6       C        0.91810    0.07820    0.80180    1.000
    C7       C        0.76310    0.14860    0.02510    1.000
    C8       C        0.84170    0.23430    0.07430    1.000
    Nd2      Nd       0.15540    0.08550    0.13420    1.000
    N2       N        0.87890    0.07040    0.97870    1.000
    O5       O        0.16410    0.99980    0.87200    1.000
    O6       O        0.07110    0.98480    0.62450    1.000
    O7       O        0.77740    0.31560    0.06130    1.000
    O8       O        0.98610    0.22860    0.12710    1.000
    C9       C        0.55790    0.48930    0.22890    1.000
    C10      C        0.41810    0.42180    0.19820    1.000
    C11      C        0.26310    0.35140    0.97490    1.000
    C12      C        0.34170    0.26570    0.92570    1.000
    Nd3      Nd       0.65540    0.41450    0.86580    1.000
    N3       N        0.37890    0.42960    0.02130    1.000
    O9       O        0.66410    0.50020    0.12800    1.000
    O10      O        0.57110    0.51520    0.37550    1.000
    O11      O        0.27740    0.18440    0.93870    1.000
    O12      O        0.48610    0.27140    0.87290    1.000
    C13      C        0.94210    0.51070    0.72890    1.000
    C14      C        0.08190    0.57820    0.69820    1.000
    C15      C        0.23690    0.64860    0.47490    1.000
    C16      C        0.15830    0.73430    0.42570    1.000
    Nd4      Nd       0.84460    0.58550    0.36580    1.000
    N4       N        0.12110    0.57040    0.52130    1.000
    O13      O        0.83590    0.49980    0.62800    1.000
    O14      O        0.92890    0.48480    0.87550    1.000
    O15      O        0.22260    0.81560    0.43870    1.000
    O16      O        0.01390    0.72860    0.37290    1.000
