# CIF file generated by openbabel 3.1.0, see https://openbabel.org
data_I
_chemical_name_common 'image0'
_cell_length_a 8.7498
_cell_length_b 8.7498
_cell_length_c 19.029
_cell_angle_alpha 90
_cell_angle_beta 90
_cell_angle_gamma 120
_space_group_name_H-M_alt 'P 1'
_space_group_name_Hall 'P 1'
loop_
    _symmetry_equiv_pos_as_xyz
    x,y,z
loop_
    _atom_site_label
    _atom_site_type_symbol
    _atom_site_fract_x
    _atom_site_fract_y
    _atom_site_fract_z
    _atom_site_occupancy
    Fe1      Fe       0.00000    0.00000    0.50000    1.000
    Fe2      Fe       0.66667    0.33333    0.83333    1.000
    Fe3      Fe       0.33333    0.66667    0.16667    1.000
    K1       K        0.33333    0.66667    0.66667    1.000
    K2       K        0.00000    0.00000    0.00000    1.000
    K3       K        0.66667    0.33333    0.33333    1.000
    N1       N        0.17005    0.34010    0.58933    1.000
    C1       C        0.10600    0.21200    0.55711    1.000
    N2       N        0.83672    0.67343    0.92266    1.000
    C2       C        0.77267    0.54533    0.89044    1.000
    N3       N        0.50338    0.00677    0.25600    1.000
    C3       C        0.43933    0.87867    0.22378    1.000
    N4       N        0.65990    0.82995    0.58933    1.000
    C4       C        0.78800    0.89400    0.55711    1.000
    N5       N        0.32657    0.16328    0.92266    1.000
    C5       C        0.45467    0.22733    0.89044    1.000
    N6       N        0.99323    0.49662    0.25600    1.000
    C6       C        0.12133    0.56067    0.22378    1.000
    N7       N        0.17005    0.82995    0.58933    1.000
    C7       C        0.10600    0.89400    0.55711    1.000
    N8       N        0.83672    0.16328    0.92266    1.000
    C8       C        0.77267    0.22733    0.89044    1.000
    N9       N        0.50338    0.49662    0.25600    1.000
    C9       C        0.43933    0.56067    0.22378    1.000
    N10      N        0.34010    0.17005    0.41067    1.000
    C10      C        0.21200    0.10600    0.44289    1.000
    N11      N        0.00677    0.50338    0.74400    1.000
    C11      C        0.87867    0.43933    0.77622    1.000
    N12      N        0.67343    0.83672    0.07734    1.000
    C12      C        0.54533    0.77267    0.10956    1.000
    N13      N        0.82995    0.65990    0.41067    1.000
    C13      C        0.89400    0.78800    0.44289    1.000
    N14      N        0.49662    0.99323    0.74400    1.000
    C14      C        0.56067    0.12133    0.77622    1.000
    N15      N        0.16328    0.32657    0.07734    1.000
    C15      C        0.22733    0.45467    0.10956    1.000
    N16      N        0.82995    0.17005    0.41067    1.000
    C16      C        0.89400    0.10600    0.44289    1.000
    N17      N        0.49662    0.50338    0.74400    1.000
    C17      C        0.56067    0.43933    0.77622    1.000
    N18      N        0.16328    0.83672    0.07734    1.000
    C18      C        0.22733    0.77267    0.10956    1.000
