# CIF file generated by openbabel 3.1.0, see https://openbabel.org
data_I
_chemical_name_common 'image0'
_cell_length_a 16.295
_cell_length_b 16.295
_cell_length_c 28.946
_cell_angle_alpha 90
_cell_angle_beta 90
_cell_angle_gamma 90
_space_group_name_H-M_alt 'P 1'
_space_group_name_Hall 'P 1'
loop_
    _symmetry_equiv_pos_as_xyz
    x,y,z
loop_
    _atom_site_label
    _atom_site_type_symbol
    _atom_site_fract_x
    _atom_site_fract_y
    _atom_site_fract_z
    _atom_site_occupancy
    C1       C        0.76518    0.33240    0.57153    1.000
    C2       C        0.72626    0.29980    0.53324    1.000
    H1       H        0.74750    0.25340    0.51880    1.000
    C3       C        0.65577    0.33640    0.51636    1.000
    C4       C        0.62623    0.40650    0.53724    1.000
    H2       H        0.57830    0.43050    0.52620    1.000
    C5       C        0.66650    0.44180    0.57412    1.000
    C6       C        0.73540    0.40380    0.59158    1.000
    H3       H        0.76210    0.42620    0.61700    1.000
    C7       C        0.83920    0.29000    0.59169    1.000
    C8       C        0.61160    0.30570    0.47464    1.000
    C9       C        0.63550    0.52180    0.59296    1.000
    C10      C        0.90040    0.09570    0.76805    1.000
    C11      C        0.92903    0.02060    0.78223    1.000
    H4       H        0.97370    0.99710    0.76720    1.000
    C12      C        0.89223    0.97960    0.81857    1.000
    C13      C        0.82612    0.01570    0.84119    1.000
    H5       H        0.80120    0.98870    0.86580    1.000
    C14      C        0.79740    0.09120    0.82739    1.000
    C15      C        0.83441    0.13050    0.79074    1.000
    H6       H        0.81460    0.18130    0.78110    1.000
    C16      C        0.94090    0.13960    0.72901    1.000
    C17      C        0.92250    0.89730    0.83342    1.000
    C18      C        0.72680    0.13040    0.85213    1.000
    O1       O        0.87184    0.23552    0.56768    1.000
    O2       O        0.86264    0.31397    0.63058    1.000
    O3       O        0.64976    0.25944    0.44788    1.000
    O4       O        0.53918    0.32934    0.46956    1.000
    O5       O        0.57056    0.54736    0.57447    1.000
    O6       O        0.67374    0.55794    0.62306    1.000
    O7       O        0.91524    0.21258    0.72211    1.000
    O8       O        0.99505    0.10514    0.70684    1.000
    O9       O        0.98565    0.87005    0.81338    1.000
    O10      O        0.88317    0.86107    0.86430    1.000
    O11      O        0.71941    0.20737    0.84644    1.000
    O12      O        0.68018    0.09061    0.87645    1.000
    O13      O        0.02002    0.19730    0.63449    1.000
    H7       H        0.02460    0.16070    0.65880    1.000
    Zn1      Zn       0.95951    0.15787    0.58058    1.000
    Zn2      Zn       0.95001    0.27515    0.66967    1.000
    Zn3      Zn       0.62713    0.25505    0.38191    1.000
    C19      C        0.73482    0.66760    0.07153    1.000
    C20      C        0.77374    0.70020    0.03324    1.000
    H8       H        0.75250    0.74660    0.01880    1.000
    C21      C        0.84423    0.66360    0.01636    1.000
    C22      C        0.87377    0.59350    0.03724    1.000
    H9       H        0.92170    0.56950    0.02620    1.000
    C23      C        0.83350    0.55820    0.07412    1.000
    C24      C        0.76460    0.59620    0.09158    1.000
    H10      H        0.73790    0.57380    0.11700    1.000
    C25      C        0.66080    0.71000    0.09169    1.000
    C26      C        0.88840    0.69430    0.97464    1.000
    C27      C        0.86450    0.47820    0.09296    1.000
    C28      C        0.59960    0.90430    0.26805    1.000
    C29      C        0.57097    0.97940    0.28223    1.000
    H11      H        0.52630    0.00290    0.26720    1.000
    C30      C        0.60777    0.02040    0.31857    1.000
    C31      C        0.67388    0.98430    0.34119    1.000
    H12      H        0.69880    0.01130    0.36580    1.000
    C32      C        0.70260    0.90880    0.32739    1.000
    C33      C        0.66559    0.86950    0.29074    1.000
    H13      H        0.68540    0.81870    0.28110    1.000
    C34      C        0.55910    0.86040    0.22901    1.000
    C35      C        0.57750    0.10270    0.33342    1.000
    C36      C        0.77320    0.86960    0.35213    1.000
    O14      O        0.62816    0.76448    0.06768    1.000
    O15      O        0.63736    0.68603    0.13058    1.000
    O16      O        0.85024    0.74056    0.94788    1.000
    O17      O        0.96082    0.67066    0.96956    1.000
    O18      O        0.92944    0.45264    0.07447    1.000
    O19      O        0.82626    0.44206    0.12306    1.000
    O20      O        0.58476    0.78742    0.22211    1.000
    O21      O        0.50495    0.89486    0.20684    1.000
    O22      O        0.51435    0.12995    0.31338    1.000
    O23      O        0.61683    0.13893    0.36430    1.000
    O24      O        0.78059    0.79263    0.34644    1.000
    O25      O        0.81982    0.90939    0.37645    1.000
    O26      O        0.47998    0.80270    0.13449    1.000
    H14      H        0.47540    0.83930    0.15880    1.000
    Zn4      Zn       0.54049    0.84213    0.08058    1.000
    Zn5      Zn       0.54999    0.72485    0.16967    1.000
    Zn6      Zn       0.87287    0.74495    0.88191    1.000
    C37      C        0.23482    0.83240    0.92847    1.000
    C38      C        0.27374    0.79980    0.96676    1.000
    H15      H        0.25250    0.75340    0.98120    1.000
    C39      C        0.34423    0.83640    0.98364    1.000
    C40      C        0.37377    0.90650    0.96276    1.000
    H16      H        0.42170    0.93050    0.97380    1.000
    C41      C        0.33350    0.94180    0.92588    1.000
    C42      C        0.26460    0.90380    0.90842    1.000
    H17      H        0.23790    0.92620    0.88300    1.000
    C43      C        0.16080    0.79000    0.90831    1.000
    C44      C        0.38840    0.80570    0.02536    1.000
    C45      C        0.36450    0.02180    0.90704    1.000
    C46      C        0.09960    0.59570    0.73195    1.000
    C47      C        0.07097    0.52060    0.71777    1.000
    H18      H        0.02630    0.49710    0.73280    1.000
    C48      C        0.10777    0.47960    0.68143    1.000
    C49      C        0.17388    0.51570    0.65881    1.000
    H19      H        0.19880    0.48870    0.63420    1.000
    C50      C        0.20260    0.59120    0.67261    1.000
    C51      C        0.16559    0.63050    0.70926    1.000
    H20      H        0.18540    0.68130    0.71890    1.000
    C52      C        0.05910    0.63960    0.77099    1.000
    C53      C        0.07750    0.39730    0.66658    1.000
    C54      C        0.27320    0.63040    0.64787    1.000
    O27      O        0.12816    0.73552    0.93232    1.000
    O28      O        0.13736    0.81397    0.86942    1.000
    O29      O        0.35024    0.75944    0.05212    1.000
    O30      O        0.46082    0.82934    0.03044    1.000
    O31      O        0.42944    0.04736    0.92553    1.000
    O32      O        0.32626    0.05794    0.87694    1.000
    O33      O        0.08476    0.71258    0.77789    1.000
    O34      O        0.00495    0.60514    0.79316    1.000
    O35      O        0.01435    0.37005    0.68662    1.000
    O36      O        0.11683    0.36107    0.63570    1.000
    O37      O        0.28059    0.70737    0.65356    1.000
    O38      O        0.31982    0.59061    0.62355    1.000
    O39      O        0.97998    0.69730    0.86551    1.000
    H21      H        0.97540    0.66070    0.84120    1.000
    Zn7      Zn       0.04049    0.65787    0.91942    1.000
    Zn8      Zn       0.04999    0.77515    0.83033    1.000
    Zn9      Zn       0.37287    0.75505    0.11809    1.000
    C55      C        0.26518    0.16760    0.42847    1.000
    C56      C        0.22626    0.20020    0.46676    1.000
    H22      H        0.24750    0.24660    0.48120    1.000
    C57      C        0.15577    0.16360    0.48364    1.000
    C58      C        0.12623    0.09350    0.46276    1.000
    H23      H        0.07830    0.06950    0.47380    1.000
    C59      C        0.16650    0.05820    0.42588    1.000
    C60      C        0.23540    0.09620    0.40842    1.000
    H24      H        0.26210    0.07380    0.38300    1.000
    C61      C        0.33920    0.21000    0.40831    1.000
    C62      C        0.11160    0.19430    0.52536    1.000
    C63      C        0.13550    0.97820    0.40704    1.000
    C64      C        0.40040    0.40430    0.23195    1.000
    C65      C        0.42903    0.47940    0.21777    1.000
    H25      H        0.47370    0.50290    0.23280    1.000
    C66      C        0.39223    0.52040    0.18143    1.000
    C67      C        0.32612    0.48430    0.15881    1.000
    H26      H        0.30120    0.51130    0.13420    1.000
    C68      C        0.29740    0.40880    0.17261    1.000
    C69      C        0.33441    0.36950    0.20926    1.000
    H27      H        0.31460    0.31870    0.21890    1.000
    C70      C        0.44090    0.36040    0.27099    1.000
    C71      C        0.42250    0.60270    0.16658    1.000
    C72      C        0.22680    0.36960    0.14787    1.000
    O40      O        0.37184    0.26448    0.43232    1.000
    O41      O        0.36264    0.18603    0.36942    1.000
    O42      O        0.14976    0.24056    0.55212    1.000
    O43      O        0.03918    0.17066    0.53044    1.000
    O44      O        0.07056    0.95264    0.42553    1.000
    O45      O        0.17374    0.94206    0.37694    1.000
    O46      O        0.41524    0.28742    0.27789    1.000
    O47      O        0.49505    0.39486    0.29316    1.000
    O48      O        0.48565    0.62995    0.18662    1.000
    O49      O        0.38317    0.63893    0.13570    1.000
    O50      O        0.21941    0.29263    0.15356    1.000
    O51      O        0.18018    0.40939    0.12355    1.000
    O52      O        0.52002    0.30270    0.36551    1.000
    H28      H        0.52460    0.33930    0.34120    1.000
    Zn10     Zn       0.45951    0.34213    0.41942    1.000
    Zn11     Zn       0.45001    0.22485    0.33033    1.000
    Zn12     Zn       0.12713    0.24495    0.61809    1.000
    C73      C        0.23482    0.66760    0.42847    1.000
    C74      C        0.27374    0.70020    0.46676    1.000
    H29      H        0.25250    0.74660    0.48120    1.000
    C75      C        0.34423    0.66360    0.48364    1.000
    C76      C        0.37377    0.59350    0.46276    1.000
    H30      H        0.42170    0.56950    0.47380    1.000
    C77      C        0.33350    0.55820    0.42588    1.000
    C78      C        0.26460    0.59620    0.40842    1.000
    H31      H        0.23790    0.57380    0.38300    1.000
    C79      C        0.16080    0.71000    0.40831    1.000
    C80      C        0.38840    0.69430    0.52536    1.000
    C81      C        0.36450    0.47820    0.40704    1.000
    C82      C        0.09960    0.90430    0.23195    1.000
    C83      C        0.07097    0.97940    0.21777    1.000
    H32      H        0.02630    0.00290    0.23280    1.000
    C84      C        0.10777    0.02040    0.18143    1.000
    C85      C        0.17388    0.98430    0.15881    1.000
    H33      H        0.19880    0.01130    0.13420    1.000
    C86      C        0.20260    0.90880    0.17261    1.000
    C87      C        0.16559    0.86950    0.20926    1.000
    H34      H        0.18540    0.81870    0.21890    1.000
    C88      C        0.05910    0.86040    0.27099    1.000
    C89      C        0.07750    0.10270    0.16658    1.000
    C90      C        0.27320    0.86960    0.14787    1.000
    O53      O        0.12816    0.76448    0.43232    1.000
    O54      O        0.13736    0.68603    0.36942    1.000
    O55      O        0.35024    0.74056    0.55212    1.000
    O56      O        0.46082    0.67066    0.53044    1.000
    O57      O        0.42944    0.45264    0.42553    1.000
    O58      O        0.32626    0.44206    0.37694    1.000
    O59      O        0.08476    0.78742    0.27789    1.000
    O60      O        0.00495    0.89486    0.29316    1.000
    O61      O        0.01435    0.12995    0.18662    1.000
    O62      O        0.11683    0.13893    0.13570    1.000
    O63      O        0.28059    0.79263    0.15356    1.000
    O64      O        0.31982    0.90939    0.12355    1.000
    O65      O        0.97998    0.80270    0.36551    1.000
    H35      H        0.97540    0.83930    0.34120    1.000
    Zn13     Zn       0.04049    0.84213    0.41942    1.000
    Zn14     Zn       0.04999    0.72485    0.33033    1.000
    Zn15     Zn       0.37287    0.74495    0.61809    1.000
    C91      C        0.26518    0.33240    0.92847    1.000
    C92      C        0.22626    0.29980    0.96676    1.000
    H36      H        0.24750    0.25340    0.98120    1.000
    C93      C        0.15577    0.33640    0.98364    1.000
    C94      C        0.12623    0.40650    0.96276    1.000
    H37      H        0.07830    0.43050    0.97380    1.000
    C95      C        0.16650    0.44180    0.92588    1.000
    C96      C        0.23540    0.40380    0.90842    1.000
    H38      H        0.26210    0.42620    0.88300    1.000
    C97      C        0.33920    0.29000    0.90831    1.000
    C98      C        0.11160    0.30570    0.02536    1.000
    C99      C        0.13550    0.52180    0.90704    1.000
    C100     C        0.40040    0.09570    0.73195    1.000
    C101     C        0.42903    0.02060    0.71777    1.000
    H39      H        0.47370    0.99710    0.73280    1.000
    C102     C        0.39223    0.97960    0.68143    1.000
    C103     C        0.32612    0.01570    0.65881    1.000
    H40      H        0.30120    0.98870    0.63420    1.000
    C104     C        0.29740    0.09120    0.67261    1.000
    C105     C        0.33441    0.13050    0.70926    1.000
    H41      H        0.31460    0.18130    0.71890    1.000
    C106     C        0.44090    0.13960    0.77099    1.000
    C107     C        0.42250    0.89730    0.66658    1.000
    C108     C        0.22680    0.13040    0.64787    1.000
    O66      O        0.37184    0.23552    0.93232    1.000
    O67      O        0.36264    0.31397    0.86942    1.000
    O68      O        0.14976    0.25944    0.05212    1.000
    O69      O        0.03918    0.32934    0.03044    1.000
    O70      O        0.07056    0.54736    0.92553    1.000
    O71      O        0.17374    0.55794    0.87694    1.000
    O72      O        0.41524    0.21258    0.77789    1.000
    O73      O        0.49505    0.10514    0.79316    1.000
    O74      O        0.48565    0.87005    0.68662    1.000
    O75      O        0.38317    0.86107    0.63570    1.000
    O76      O        0.21941    0.20737    0.65356    1.000
    O77      O        0.18018    0.09061    0.62355    1.000
    O78      O        0.52002    0.19730    0.86551    1.000
    H42      H        0.52460    0.16070    0.84120    1.000
    Zn16     Zn       0.45951    0.15787    0.91942    1.000
    Zn17     Zn       0.45001    0.27515    0.83033    1.000
    Zn18     Zn       0.12713    0.25505    0.11809    1.000
    C109     C        0.76518    0.16760    0.07153    1.000
    C110     C        0.72626    0.20020    0.03324    1.000
    H43      H        0.74750    0.24660    0.01880    1.000
    C111     C        0.65577    0.16360    0.01636    1.000
    C112     C        0.62623    0.09350    0.03724    1.000
    H44      H        0.57830    0.06950    0.02620    1.000
    C113     C        0.66650    0.05820    0.07412    1.000
    C114     C        0.73540    0.09620    0.09158    1.000
    H45      H        0.76210    0.07380    0.11700    1.000
    C115     C        0.83920    0.21000    0.09169    1.000
    C116     C        0.61160    0.19430    0.97464    1.000
    C117     C        0.63550    0.97820    0.09296    1.000
    C118     C        0.90040    0.40430    0.26805    1.000
    C119     C        0.92903    0.47940    0.28223    1.000
    H46      H        0.97370    0.50290    0.26720    1.000
    C120     C        0.89223    0.52040    0.31857    1.000
    C121     C        0.82612    0.48430    0.34119    1.000
    H47      H        0.80120    0.51130    0.36580    1.000
    C122     C        0.79740    0.40880    0.32739    1.000
    C123     C        0.83441    0.36950    0.29074    1.000
    H48      H        0.81460    0.31870    0.28110    1.000
    C124     C        0.94090    0.36040    0.22901    1.000
    C125     C        0.92250    0.60270    0.33342    1.000
    C126     C        0.72680    0.36960    0.35213    1.000
    O79      O        0.87184    0.26448    0.06768    1.000
    O80      O        0.86264    0.18603    0.13058    1.000
    O81      O        0.64976    0.24056    0.94788    1.000
    O82      O        0.53918    0.17066    0.96956    1.000
    O83      O        0.57056    0.95264    0.07447    1.000
    O84      O        0.67374    0.94206    0.12306    1.000
    O85      O        0.91524    0.28742    0.22211    1.000
    O86      O        0.99505    0.39486    0.20684    1.000
    O87      O        0.98565    0.62995    0.31338    1.000
    O88      O        0.88317    0.63893    0.36430    1.000
    O89      O        0.71941    0.29263    0.34644    1.000
    O90      O        0.68018    0.40939    0.37645    1.000
    O91      O        0.02002    0.30270    0.13449    1.000
    H49      H        0.02460    0.33930    0.15880    1.000
    Zn19     Zn       0.95951    0.34213    0.08058    1.000
    Zn20     Zn       0.95001    0.22485    0.16967    1.000
    Zn21     Zn       0.62713    0.24495    0.88191    1.000
    C127     C        0.73482    0.83240    0.57153    1.000
    C128     C        0.77374    0.79980    0.53324    1.000
    H50      H        0.75250    0.75340    0.51880    1.000
    C129     C        0.84423    0.83640    0.51636    1.000
    C130     C        0.87377    0.90650    0.53724    1.000
    H51      H        0.92170    0.93050    0.52620    1.000
    C131     C        0.83350    0.94180    0.57412    1.000
    C132     C        0.76460    0.90380    0.59158    1.000
    H52      H        0.73790    0.92620    0.61700    1.000
    C133     C        0.66080    0.79000    0.59169    1.000
    C134     C        0.88840    0.80570    0.47464    1.000
    C135     C        0.86450    0.02180    0.59296    1.000
    C136     C        0.59960    0.59570    0.76805    1.000
    C137     C        0.57097    0.52060    0.78223    1.000
    H53      H        0.52630    0.49710    0.76720    1.000
    C138     C        0.60777    0.47960    0.81857    1.000
    C139     C        0.67388    0.51570    0.84119    1.000
    H54      H        0.69880    0.48870    0.86580    1.000
    C140     C        0.70260    0.59120    0.82739    1.000
    C141     C        0.66559    0.63050    0.79074    1.000
    H55      H        0.68540    0.68130    0.78110    1.000
    C142     C        0.55910    0.63960    0.72901    1.000
    C143     C        0.57750    0.39730    0.83342    1.000
    C144     C        0.77320    0.63040    0.85213    1.000
    O92      O        0.62816    0.73552    0.56768    1.000
    O93      O        0.63736    0.81397    0.63058    1.000
    O94      O        0.85024    0.75944    0.44788    1.000
    O95      O        0.96082    0.82934    0.46956    1.000
    O96      O        0.92944    0.04736    0.57447    1.000
    O97      O        0.82626    0.05794    0.62306    1.000
    O98      O        0.58476    0.71258    0.72211    1.000
    O99      O        0.50495    0.60514    0.70684    1.000
    O100     O        0.51435    0.37005    0.81338    1.000
    O101     O        0.61683    0.36107    0.86430    1.000
    O102     O        0.78059    0.70737    0.84644    1.000
    O103     O        0.81982    0.59061    0.87645    1.000
    O104     O        0.47998    0.69730    0.63449    1.000
    H56      H        0.47540    0.66070    0.65880    1.000
    Zn22     Zn       0.54049    0.65787    0.58058    1.000
    Zn23     Zn       0.54999    0.77515    0.66967    1.000
    Zn24     Zn       0.87287    0.75505    0.38191    1.000
