data_functionalizedCrystal
_audit_creation_method	'EQeq! by Chris Wilmer'
_symmetry_space_group_name_H-M	'P1'
_symmetry_Int_Tables_number	1
_symmetry_cell_setting	triclinic
loop_
_symmetry_equiv_pos_as_xyz
  x,y,z
_cell_length_a	12.12
_cell_length_b	12.3605
_cell_length_c	12.8067
_cell_angle_alpha	90
_cell_angle_beta	90
_cell_angle_gamma	114.974
loop_
_atom_site_label
_atom_site_type_symbol
_atom_site_fract_x
_atom_site_fract_y
_atom_site_fract_z
_atom_site_charge
Mof_La	La	0.54822	0.8537	0.4552	2.1
Mof_La	La	0.45178	0.6463	0.9552	2.1
Mof_La	La	0.45178	0.1463	0.5448	2.099
Mof_La	La	0.54822	0.3537	0.0448	2.099
Mof_H 	H 	0.6337	0.6678	0.2842	0.329
Mof_H 	H 	0.2027	0.5762	0.1661	0.053
Mof_H 	H 	0.0715	0.7523	0.3531	0.071
Mof_H 	H 	0.0221	0.4533	0.1316	0.08
Mof_H 	H 	0.9054	0.6698	0.2836	0.078
Mof_H 	H 	0.3663	0.8322	0.7842	0.329
Mof_H 	H 	0.7973	0.9238	0.6661	0.053
Mof_H 	H 	0.9285	0.7477	0.8531	0.071
Mof_H 	H 	0.9779	0.0467	0.6316	0.079
Mof_H 	H 	0.0946	0.8302	0.7836	0.078
Mof_H 	H 	0.3663	0.3322	0.7158	0.329
Mof_H 	H 	0.7973	0.4238	0.8339	0.053
Mof_H 	H 	0.9285	0.2477	0.6469	0.071
Mof_H 	H 	0.9779	0.5467	0.8684	0.08
Mof_H 	H 	0.0946	0.3302	0.7164	0.078
Mof_H 	H 	0.6337	0.1678	0.2158	0.329
Mof_H 	H 	0.2027	0.0762	0.3339	0.053
Mof_H 	H 	0.0715	0.2523	0.1469	0.071
Mof_H 	H 	0.0221	0.9533	0.3684	0.079
Mof_H 	H 	0.9054	0.1698	0.2164	0.078
Mof_C 	C 	0.4363	0.6781	0.2354	0.446
Mof_C 	C 	0.2795	0.8932	0.448	0.332
Mof_C 	C 	0.808	0.3049	0.046	0.341
Mof_C 	C 	0.6686	0.5545	0.2334	0.398
Mof_C 	C 	0.325	0.6921	0.2674	-0.07
Mof_C 	C 	0.2119	0.6295	0.2202	-0.029
Mof_C 	C 	0.1138	0.6485	0.2555	0.018
Mof_C 	C 	0.1349	0.7347	0.3303	-0.059
Mof_C 	C 	0.25	0.7953	0.3718	-0.023
Mof_C 	C 	0.8434	0.4102	0.1205	0.013
Mof_C 	C 	0.9609	0.4754	0.1523	-0.072
Mof_C 	C 	0.9885	0.5749	0.2159	0.04
Mof_C 	C 	0.8918	0.6031	0.2428	-0.056
Mof_C 	C 	0.7774	0.5318	0.2086	-0.024
Mof_C 	C 	0.5637	0.8219	0.7354	0.446
Mof_C 	C 	0.7205	0.6068	0.948	0.332
Mof_C 	C 	0.192	0.1951	0.546	0.342
Mof_C 	C 	0.3314	0.9455	0.7334	0.396
Mof_C 	C 	0.675	0.8079	0.7674	-0.07
Mof_C 	C 	0.7881	0.8705	0.7202	-0.029
Mof_C 	C 	0.8862	0.8515	0.7555	0.019
Mof_C 	C 	0.8651	0.7653	0.8303	-0.06
Mof_C 	C 	0.75	0.7047	0.8718	-0.023
Mof_C 	C 	0.1566	0.0898	0.6205	0.012
Mof_C 	C 	0.0391	0.0246	0.6523	-0.07
Mof_C 	C 	0.0115	0.9251	0.7159	0.038
Mof_C 	C 	0.1082	0.8969	0.7428	-0.055
Mof_C 	C 	0.2226	0.9682	0.7086	-0.025
Mof_C 	C 	0.5637	0.3219	0.7646	0.446
Mof_C 	C 	0.7205	0.1068	0.552	0.332
Mof_C 	C 	0.192	0.6951	0.954	0.341
Mof_C 	C 	0.3314	0.4455	0.7666	0.398
Mof_C 	C 	0.675	0.3079	0.7326	-0.07
Mof_C 	C 	0.7881	0.3705	0.7798	-0.029
Mof_C 	C 	0.8862	0.3515	0.7445	0.018
Mof_C 	C 	0.8651	0.2653	0.6697	-0.059
Mof_C 	C 	0.75	0.2047	0.6282	-0.023
Mof_C 	C 	0.1566	0.5898	0.8795	0.013
Mof_C 	C 	0.0391	0.5246	0.8477	-0.072
Mof_C 	C 	0.0115	0.4251	0.7841	0.04
Mof_C 	C 	0.1082	0.3969	0.7572	-0.056
Mof_C 	C 	0.2226	0.4682	0.7914	-0.024
Mof_C 	C 	0.4363	0.1781	0.2646	0.446
Mof_C 	C 	0.2795	0.3932	0.052	0.332
Mof_C 	C 	0.808	0.8049	0.454	0.342
Mof_C 	C 	0.6686	0.0545	0.2666	0.396
Mof_C 	C 	0.325	0.1921	0.2326	-0.07
Mof_C 	C 	0.2119	0.1295	0.2798	-0.029
Mof_C 	C 	0.1138	0.1485	0.2445	0.019
Mof_C 	C 	0.1349	0.2347	0.1697	-0.06
Mof_C 	C 	0.25	0.2953	0.1282	-0.023
Mof_C 	C 	0.8434	0.9102	0.3795	0.012
Mof_C 	C 	0.9609	0.9754	0.3477	-0.07
Mof_C 	C 	0.9885	0.0749	0.2841	0.038
Mof_C 	C 	0.8918	0.1031	0.2572	-0.055
Mof_C 	C 	0.7774	0.0318	0.2914	-0.025
Mof_N 	N 	0.3429	0.77	0.3439	-0.194
Mof_N 	N 	0.7526	0.4371	0.1501	-0.198
Mof_N 	N 	0.6571	0.73	0.8439	-0.194
Mof_N 	N 	0.2474	0.0629	0.6501	-0.197
Mof_N 	N 	0.6571	0.23	0.6561	-0.194
Mof_N 	N 	0.2474	0.5629	0.8499	-0.198
Mof_N 	N 	0.3429	0.27	0.1561	-0.194
Mof_N 	N 	0.7526	0.9371	0.3499	-0.197
Mof_O 	O 	0.521	0.711	0.303	-0.507
Mof_O 	O 	0.44	0.6356	0.1505	-0.507
Mof_O 	O 	0.3819	0.9247	0.4977	-0.571
Mof_O 	O 	0.2137	0.9456	0.4575	-0.325
Mof_O 	O 	0.6989	0.2667	0.0106	-0.438
Mof_O 	O 	0.8835	0.2678	0.0265	-0.256
Mof_O 	O 	0.5668	0.4799	0.2147	-0.449
Mof_O 	O 	0.6962	0.6592	0.2733	-0.52
Mof_O 	O 	0.479	0.789	0.803	-0.508
Mof_O 	O 	0.56	0.8644	0.6505	-0.508
Mof_O 	O 	0.6181	0.5753	0.9977	-0.57
Mof_O 	O 	0.7863	0.5544	0.9575	-0.325
Mof_O 	O 	0.3011	0.2333	0.5106	-0.438
Mof_O 	O 	0.1165	0.2322	0.5265	-0.256
Mof_O 	O 	0.4332	0.0201	0.7147	-0.447
Mof_O 	O 	0.3038	0.8408	0.7733	-0.52
Mof_O 	O 	0.479	0.289	0.697	-0.507
Mof_O 	O 	0.56	0.3644	0.8495	-0.507
Mof_O 	O 	0.6181	0.0753	0.5023	-0.571
Mof_O 	O 	0.7863	0.0544	0.5425	-0.325
Mof_O 	O 	0.3011	0.7333	0.9894	-0.438
Mof_O 	O 	0.1165	0.7322	0.9735	-0.256
Mof_O 	O 	0.4332	0.5201	0.7853	-0.449
Mof_O 	O 	0.3038	0.3408	0.7267	-0.52
Mof_O 	O 	0.521	0.211	0.197	-0.508
Mof_O 	O 	0.44	0.1356	0.3495	-0.508
Mof_O 	O 	0.3819	0.4247	0.0023	-0.57
Mof_O 	O 	0.2137	0.4456	0.0425	-0.325
Mof_O 	O 	0.6989	0.7667	0.4894	-0.438
Mof_O 	O 	0.8835	0.7678	0.4735	-0.256
Mof_O 	O 	0.5668	0.9799	0.2853	-0.447
Mof_O 	O 	0.6962	0.1592	0.2267	-0.52
_end
