data_functionalizedCrystal
_audit_creation_method	'EQeq! by Chris Wilmer'
_symmetry_space_group_name_H-M	'P1'
_symmetry_Int_Tables_number	1
_symmetry_cell_setting	triclinic
loop_
_symmetry_equiv_pos_as_xyz
  x,y,z
_cell_length_a	33.4317
_cell_length_b	7.152
_cell_length_c	16.7181
_cell_angle_alpha	90
_cell_angle_beta	90
_cell_angle_gamma	90
loop_
_atom_site_label
_atom_site_type_symbol
_atom_site_fract_x
_atom_site_fract_y
_atom_site_fract_z
_atom_site_charge
Mof_O 	O 	0.78961	0.1627	0.9084	-0.69
Mof_C 	C 	0.87961	0.1578	0.7392	-0.029
Mof_C 	C 	0.84999	0.1563	0.80056	0.11
Mof_O 	O 	0.28961	0.6627	0.9084	-0.683
Mof_C 	C 	0.37961	0.6578	0.7392	-0.031
Mof_C 	C 	0.34999	0.6563	0.80056	0.104
Mof_O 	O 	0.21039	0.8373	0.9084	-0.697
Mof_C 	C 	0.12039	0.8422	0.7392	-0.044
Mof_C 	C 	0.15001	0.8437	0.80056	0.094
Mof_O 	O 	0.71039	0.3373	0.9084	-0.683
Mof_C 	C 	0.62039	0.3422	0.7392	-0.021
Mof_C 	C 	0.65001	0.3437	0.80056	0.112
Mof_O 	O 	0.21039	0.1627	0.0916	-0.83
Mof_C 	C 	0.12039	0.1578	0.2608	-0.052
Mof_C 	C 	0.15001	0.1563	0.19944	0.057
Mof_O 	O 	0.71039	0.6627	0.0916	-0.824
Mof_C 	C 	0.62039	0.6578	0.2608	-0.055
Mof_C 	C 	0.65001	0.6563	0.19944	0.051
Mof_O 	O 	0.78961	0.8373	0.0916	-0.842
Mof_C 	C 	0.87961	0.8422	0.2608	-0.07
Mof_C 	C 	0.84999	0.8437	0.19944	0.039
Mof_O 	O 	0.28961	0.3373	0.0916	-0.823
Mof_C 	C 	0.37961	0.3422	0.2608	-0.044
Mof_C 	C 	0.34999	0.3437	0.19944	0.06
Mof_O 	O 	0.21039	0.8373	0.0916	-0.842
Mof_C 	C 	0.12039	0.8422	0.2608	-0.07
Mof_C 	C 	0.15001	0.8437	0.19944	0.039
Mof_O 	O 	0.71039	0.3373	0.0916	-0.823
Mof_C 	C 	0.62039	0.3422	0.2608	-0.044
Mof_C 	C 	0.65001	0.3437	0.19944	0.06
Mof_O 	O 	0.78961	0.1627	0.0916	-0.83
Mof_C 	C 	0.87961	0.1578	0.2608	-0.053
Mof_C 	C 	0.84999	0.1563	0.19944	0.057
Mof_O 	O 	0.28961	0.6627	0.0916	-0.824
Mof_C 	C 	0.37961	0.6578	0.2608	-0.055
Mof_C 	C 	0.34999	0.6563	0.19944	0.051
Mof_O 	O 	0.78961	0.8373	0.9084	-0.697
Mof_C 	C 	0.87961	0.8422	0.7392	-0.045
Mof_C 	C 	0.84999	0.8437	0.80056	0.094
Mof_O 	O 	0.28961	0.3373	0.9084	-0.683
Mof_C 	C 	0.37961	0.3422	0.7392	-0.021
Mof_C 	C 	0.34999	0.3437	0.80056	0.112
Mof_O 	O 	0.21039	0.1627	0.9084	-0.689
Mof_C 	C 	0.12039	0.1578	0.7392	-0.028
Mof_C 	C 	0.15001	0.1563	0.80056	0.11
Mof_O 	O 	0.71039	0.6627	0.9084	-0.683
Mof_C 	C 	0.62039	0.6578	0.7392	-0.031
Mof_C 	C 	0.65001	0.6563	0.80056	0.104
Mof_C 	C 	0.8016	0	0.8977	0.655
Mof_C 	C 	0.96665	-1.26301e-32	0.6728	0.076
Mof_C 	C 	0.97974	1.26301e-32	0.7523	0.016
Mof_C 	C 	0.91234	1.26301e-32	0.5679	0.074
Mof_C 	C 	0.87367	1.26301e-32	0.54067	-0.008
Mof_C 	C 	0.92929	1.26301e-32	0.6421	-0.04
Mof_C 	C 	0.89674	1.26301e-32	0.704	0.055
Mof_C 	C 	0.83332	0	0.8356	-0.157
Mof_C 	C 	0.3016	0.5	0.8977	0.638
Mof_C 	C 	0.46665	0.5	0.6728	0.075
Mof_C 	C 	0.47974	0.5	0.7523	0.017
Mof_C 	C 	0.41234	0.5	0.5679	0.073
Mof_C 	C 	0.37367	0.5	0.54067	-0.011
Mof_C 	C 	0.42929	0.5	0.6421	-0.037
Mof_C 	C 	0.39674	0.5	0.704	0.038
Mof_C 	C 	0.33332	0.5	0.8356	-0.17
Mof_C 	C 	0.1984	0	0.8977	0.655
Mof_C 	C 	0.03335	-1.26301e-32	0.6728	0.077
Mof_C 	C 	0.02026	1.26301e-32	0.7523	0.021
Mof_C 	C 	0.08766	1.26301e-32	0.5679	0.075
Mof_C 	C 	0.12633	1.26301e-32	0.54067	-0.007
Mof_C 	C 	0.07071	1.26301e-32	0.6421	-0.04
Mof_C 	C 	0.10326	1.26301e-32	0.704	0.055
Mof_C 	C 	0.16668	0	0.8356	-0.156
Mof_C 	C 	0.6984	0.5	0.8977	0.638
Mof_C 	C 	0.53335	0.5	0.6728	0.075
Mof_C 	C 	0.52026	0.5	0.7523	0.017
Mof_C 	C 	0.58766	0.5	0.5679	0.073
Mof_C 	C 	0.62633	0.5	0.54067	-0.011
Mof_C 	C 	0.57071	0.5	0.6421	-0.037
Mof_C 	C 	0.60326	0.5	0.704	0.038
Mof_C 	C 	0.66668	0.5	0.8356	-0.17
Mof_C 	C 	0.1984	3.15753e-33	0.1023	0.615
Mof_C 	C 	0.03335	0	0.3272	0.085
Mof_C 	C 	0.02026	0	0.2477	-0.044
Mof_C 	C 	0.08766	0	0.4321	0.08
Mof_C 	C 	0.12633	0	0.45933	-0.01
Mof_C 	C 	0.07071	6.31506e-33	0.3579	-0.058
Mof_C 	C 	0.10326	0	0.296	0.056
Mof_C 	C 	0.16668	0	0.1644	-0.172
Mof_C 	C 	0.6984	0.5	0.1023	0.59
Mof_C 	C 	0.53335	0.5	0.3272	0.083
Mof_C 	C 	0.52026	0.5	0.2477	-0.05
Mof_C 	C 	0.58766	0.5	0.4321	0.078
Mof_C 	C 	0.62633	0.5	0.45933	-0.014
Mof_C 	C 	0.57071	0.5	0.3579	-0.055
Mof_C 	C 	0.60326	0.5	0.296	0.035
Mof_C 	C 	0.66668	0.5	0.1644	-0.189
Mof_C 	C 	0.8016	3.15753e-33	0.1023	0.615
Mof_C 	C 	0.96665	0	0.3272	0.085
Mof_C 	C 	0.97974	0	0.2477	-0.049
Mof_C 	C 	0.91234	0	0.4321	0.08
Mof_C 	C 	0.87367	0	0.45933	-0.01
Mof_C 	C 	0.92929	6.31506e-33	0.3579	-0.059
Mof_C 	C 	0.89674	0	0.296	0.056
Mof_C 	C 	0.83332	0	0.1644	-0.172
Mof_C 	C 	0.3016	0.5	0.1023	0.59
Mof_C 	C 	0.46665	0.5	0.3272	0.083
Mof_C 	C 	0.47974	0.5	0.2477	-0.05
Mof_C 	C 	0.41234	0.5	0.4321	0.078
Mof_C 	C 	0.37367	0.5	0.45933	-0.014
Mof_C 	C 	0.42929	0.5	0.3579	-0.055
Mof_C 	C 	0.39674	0.5	0.296	0.035
Mof_C 	C 	0.33332	0.5	0.1644	-0.189
Mof_N 	N 	0.939	0	0.5	-0.098
Mof_N 	N 	0.439	0.5	0.5	-0.098
Mof_N 	N 	0.061	0	0.5	-0.097
Mof_N 	N 	0.561	0.5	0.5	-0.098
Mof_N 	N 	1.16472e-33	1.26301e-32	0.6212	-0.097
Mof_N 	N 	0.5	0.5	0.6212	-0.098
Mof_N 	N 	7.10232e-34	0	0.3788	-0.103
Mof_N 	N 	0.5	0.5	0.3788	-0.104
Mof_In	In	0.75	0.25	-0	3.403
Mof_In	In	0.25	0.75	-0	3.353
Mof_In	In	0.25	0.25	-0	3.403
Mof_In	In	0.75	0.75	-0	3.353
Mof_O 	O 	0.7308	0	-0	-1.439
Mof_O 	O 	0.2308	0.5	-0	-1.455
Mof_O 	O 	0.2692	0	-0	-1.439
Mof_O 	O 	0.7692	0.5	-0	-1.455
_end
