# CIF file generated by openbabel 3.1.0, see https://openbabel.org
data_I
_chemical_name_common 'image0'
_cell_length_a 6.562
_cell_length_b 16.4171
_cell_length_c 13.1717
_cell_angle_alpha 90
_cell_angle_beta 90
_cell_angle_gamma 90.3983
_space_group_name_H-M_alt 'P 1'
_space_group_name_Hall 'P 1'
loop_
    _symmetry_equiv_pos_as_xyz
    x,y,z
loop_
    _atom_site_label
    _atom_site_type_symbol
    _atom_site_fract_x
    _atom_site_fract_y
    _atom_site_fract_z
    _atom_site_occupancy
    O1       O        0.16180    0.17230    0.84660    1.000
    O2       O        0.82580    0.66210    0.16860    1.000
    C1       C        0.80640    0.02320    0.95330    1.000
    C2       C        0.99640    0.06590    0.94380    1.000
    C3       C        0.99520    0.13550    0.86970    1.000
    C4       C        0.20010    0.53570    0.02920    1.000
    O3       O        0.66180    0.67230    0.34660    1.000
    O4       O        0.32580    0.16210    0.66860    1.000
    C5       C        0.30640    0.52320    0.45330    1.000
    C6       C        0.49640    0.56590    0.44380    1.000
    C7       C        0.49520    0.63550    0.36970    1.000
    C8       C        0.70010    0.03570    0.52920    1.000
    O5       O        0.83820    0.32770    0.84660    1.000
    O6       O        0.17420    0.83790    0.16860    1.000
    C9       C        0.19360    0.47680    0.95330    1.000
    C10      C        0.00360    0.43410    0.94380    1.000
    C11      C        0.00480    0.36450    0.86970    1.000
    C12      C        0.79990    0.96430    0.02920    1.000
    O7       O        0.33820    0.82770    0.34660    1.000
    O8       O        0.67420    0.33790    0.66860    1.000
    C13      C        0.69360    0.97680    0.45330    1.000
    C14      C        0.50360    0.93410    0.44380    1.000
    C15      C        0.50480    0.86450    0.36970    1.000
    C16      C        0.29990    0.46430    0.52920    1.000
    O9       O        0.83820    0.82770    0.15340    1.000
    O10      O        0.17420    0.33790    0.83140    1.000
    C17      C        0.19360    0.97680    0.04670    1.000
    C18      C        0.00360    0.93410    0.05620    1.000
    C19      C        0.00480    0.86450    0.13030    1.000
    C20      C        0.79990    0.46430    0.97080    1.000
    O11      O        0.33820    0.32770    0.65340    1.000
    O12      O        0.67420    0.83790    0.33140    1.000
    C21      C        0.69360    0.47680    0.54670    1.000
    C22      C        0.50360    0.43410    0.55620    1.000
    C23      C        0.50480    0.36450    0.63030    1.000
    C24      C        0.29990    0.96430    0.47080    1.000
    O13      O        0.16180    0.67230    0.15340    1.000
    O14      O        0.82580    0.16210    0.83140    1.000
    C25      C        0.80640    0.52320    0.04670    1.000
    C26      C        0.99640    0.56590    0.05620    1.000
    C27      C        0.99520    0.63550    0.13030    1.000
    C28      C        0.20010    0.03570    0.97080    1.000
    O15      O        0.66180    0.17230    0.65340    1.000
    O16      O        0.32580    0.66210    0.33140    1.000
    C29      C        0.30640    0.02320    0.54670    1.000
    C30      C        0.49640    0.06590    0.55620    1.000
    C31      C        0.49520    0.13550    0.63030    1.000
    C32      C        0.70010    0.53570    0.47080    1.000
    Al1      Al       0.25000    0.25000    0.75000    1.000
    Al2      Al       0.75000    0.25000    0.75000    1.000
    Al3      Al       0.75000    0.75000    0.25000    1.000
    Al4      Al       0.25000    0.75000    0.25000    1.000
    F1       F        0.00000    0.25000    0.69050    1.000
    F2       F        0.50000    0.75000    0.19050    1.000
    F3       F        0.00000    0.75000    0.30950    1.000
    F4       F        0.50000    0.25000    0.80950    1.000
