data_functionalizedCrystal
_audit_creation_method	'EQeq! by Chris Wilmer'
_symmetry_space_group_name_H-M	'P1'
_symmetry_Int_Tables_number	1
_symmetry_cell_setting	triclinic
loop_
_symmetry_equiv_pos_as_xyz
  x,y,z
_cell_length_a	6.7875
_cell_length_b	10.5615
_cell_length_c	14.2118
_cell_angle_alpha	90
_cell_angle_beta	97.567
_cell_angle_gamma	90
loop_
_atom_site_label
_atom_site_type_symbol
_atom_site_fract_x
_atom_site_fract_y
_atom_site_fract_z
_atom_site_charge
Mof_O 	O 	0.7475	0.58977	0.49363	-0.553
Mof_H 	H 	0.7456	0.6784	0.4873	0.204
Mof_N 	N 	0.6699	0.3593	0.39243	-0.136
Mof_N 	N 	0.866	0.3866	0.38737	-0.177
Mof_N 	N 	0.6498	0.1084	0.11073	-0.196
Mof_N 	N 	0.8491	0.1291	0.10904	-0.19
Mof_C 	C 	0.5712	0.2865	0.3275	-0.015
Mof_H 	H 	0.437	0.2685	0.3317	0.011
Mof_C 	C 	0.6603	0.2341	0.2512	0.015
Mof_C 	C 	0.5581	0.1575	0.1778	-0.025
Mof_H 	H 	0.4218	0.1417	0.1776	0.003
Mof_C 	C 	0.958	0.341	0.3193	0.129
Mof_H 	H 	0.0925	0.3612	0.3179	-0.058
Mof_C 	C 	0.858	0.2612	0.247	-0.087
Mof_C 	C 	0.949	0.2034	0.1723	0.121
Mof_H 	H 	0.084	0.2193	0.1684	-0.069
Mof_O 	O 	0.2525	0.08977	0.00637	-0.647
Mof_H 	H 	0.2544	0.1784	0.0127	0.168
Mof_N 	N 	0.3301	0.8593	0.10757	-0.133
Mof_N 	N 	0.134	0.8866	0.11263	-0.13
Mof_N 	N 	0.3502	0.6084	0.38927	-0.172
Mof_N 	N 	0.1509	0.6291	0.39096	-0.128
Mof_C 	C 	0.4288	0.7865	0.1725	0.03
Mof_H 	H 	0.563	0.7685	0.1683	0.008
Mof_C 	C 	0.3397	0.7341	0.2488	-0.037
Mof_C 	C 	0.4419	0.6575	0.3222	0.029
Mof_H 	H 	0.5782	0.6417	0.3224	0.012
Mof_C 	C 	0.042	0.841	0.1807	-0.107
Mof_H 	H 	0.9075	0.8612	0.1821	0.1
Mof_C 	C 	0.142	0.7612	0.253	0.07
Mof_C 	C 	0.051	0.7034	0.3277	-0.106
Mof_H 	H 	0.916	0.7193	0.3316	0.093
Mof_O 	O 	0.2525	0.41023	0.50637	-0.569
Mof_H 	H 	0.2544	0.3216	0.5127	0.17
Mof_N 	N 	0.3301	0.6407	0.60757	-0.139
Mof_N 	N 	0.134	0.6134	0.61263	-0.149
Mof_N 	N 	0.3502	0.8916	0.88927	-0.111
Mof_N 	N 	0.1509	0.8709	0.89096	-0.075
Mof_C 	C 	0.4288	0.7135	0.6725	0.031
Mof_H 	H 	0.563	0.7315	0.6683	0.025
Mof_C 	C 	0.3397	0.7659	0.7488	-0.02
Mof_C 	C 	0.4419	0.8425	0.8222	0.037
Mof_H 	H 	0.5782	0.8583	0.8224	0.039
Mof_C 	C 	0.042	0.659	0.6807	-0.099
Mof_H 	H 	0.9075	0.6388	0.6821	0.09
Mof_C 	C 	0.142	0.7388	0.753	0.069
Mof_C 	C 	0.051	0.7966	0.8277	-0.088
Mof_H 	H 	0.916	0.7807	0.8316	0.1
Mof_O 	O 	0.7475	0.91023	0.99363	-0.389
Mof_H 	H 	0.7456	0.8216	0.9873	0.197
Mof_N 	N 	0.6699	0.1407	0.89243	-0.119
Mof_N 	N 	0.866	0.1134	0.88737	-0.166
Mof_N 	N 	0.6498	0.3916	0.61073	-0.163
Mof_N 	N 	0.8491	0.3709	0.60904	-0.159
Mof_C 	C 	0.5712	0.2135	0.8275	-0.014
Mof_H 	H 	0.437	0.2315	0.8317	0.034
Mof_C 	C 	0.6603	0.2659	0.7512	0.031
Mof_C 	C 	0.5581	0.3425	0.6778	-0.015
Mof_H 	H 	0.4218	0.3583	0.6776	0.023
Mof_C 	C 	0.958	0.159	0.8193	0.136
Mof_H 	H 	0.0925	0.1388	0.8179	-0.059
Mof_C 	C 	0.858	0.2388	0.747	-0.086
Mof_C 	C 	0.949	0.2966	0.6723	0.134
Mof_H 	H 	0.084	0.2807	0.6684	-0.063
Mof_Cu	Cu	0.5	0.5	0.5	0.899
Mof_Cu	Cu	0.5	0	-0	0.79
Mof_Cu	Cu	4.44219e-33	0.5	0.5	0.88
Mof_Cu	Cu	-0	0	-0	0.771
_end
