data_functionalizedCrystal
_audit_creation_method	'EQeq! by Chris Wilmer'
_symmetry_space_group_name_H-M	'P1'
_symmetry_Int_Tables_number	1
_symmetry_cell_setting	triclinic
loop_
_symmetry_equiv_pos_as_xyz
  x,y,z
_cell_length_a	14.8173
_cell_length_b	14.8173
_cell_length_c	14.8173
_cell_angle_alpha	90
_cell_angle_beta	90
_cell_angle_gamma	90
loop_
_atom_site_label
_atom_site_type_symbol
_atom_site_fract_x
_atom_site_fract_y
_atom_site_fract_z
_atom_site_charge
Mof_Ca	Ca	0.25	0	0.5	-12.825
Mof_Ca	Ca	0.75	0	0.5	-12.387
Mof_Ca	Ca	0.25	0.5	-0	-12.825
Mof_Ca	Ca	0.5	0.25	-0	-12.826
Mof_Ca	Ca	0.5	0.75	-0	-12.388
Mof_Ca	Ca	2.87727e-33	0.5	0.25	-12.826
Mof_Ca	Ca	1.83314e-32	0.5	0.75	-12.388
Mof_Ca	Ca	0.5	0	0.25	-12.826
Mof_Ca	Ca	1.8747e-33	0.25	0.5	-12.826
Mof_Ca	Ca	2.12739e-32	0.75	0.5	-12.388
Mof_Ca	Ca	0.75	0.5	-0	-12.388
Mof_Ca	Ca	0.5	0	0.75	-12.388
Mof_C 	C 	0.319	-3.87983e-33	0.319	6.741
Mof_O 	O 	0.3803	0	0.3803	-13.85
Mof_C 	C 	0.819	0.5	0.819	5.559
Mof_O 	O 	0.8803	0.5	0.8803	-9.307
Mof_C 	C 	0.681	-3.87983e-33	0.319	6.706
Mof_O 	O 	0.6197	0	0.3803	-13.835
Mof_C 	C 	0.181	0.5	0.819	5.647
Mof_O 	O 	0.1197	0.5	0.8803	-9.823
Mof_C 	C 	0.681	0	0.681	6.677
Mof_O 	O 	0.6197	0	0.6197	-13.825
Mof_C 	C 	0.181	0.5	0.181	5.754
Mof_O 	O 	0.1197	0.5	0.1197	-10.538
Mof_C 	C 	0.319	0	0.681	6.706
Mof_O 	O 	0.3803	0	0.6197	-13.835
Mof_C 	C 	0.819	0.5	0.181	5.647
Mof_O 	O 	0.8803	0.5	0.1197	-9.823
Mof_C 	C 	0.319	0.319	-0	6.741
Mof_O 	O 	0.3803	0.3803	-0	-13.85
Mof_C 	C 	0.819	0.819	0.5	5.559
Mof_O 	O 	0.8803	0.8803	0.5	-9.307
Mof_C 	C 	0.319	0.681	-0	6.706
Mof_O 	O 	0.3803	0.6197	-0	-13.835
Mof_C 	C 	0.819	0.181	0.5	5.647
Mof_O 	O 	0.8803	0.1197	0.5	-9.823
Mof_C 	C 	0.681	0.681	-0	6.677
Mof_O 	O 	0.6197	0.6197	-0	-13.825
Mof_C 	C 	0.181	0.181	0.5	5.754
Mof_O 	O 	0.1197	0.1197	0.5	-10.538
Mof_C 	C 	0.681	0.319	-0	6.706
Mof_O 	O 	0.6197	0.3803	-0	-13.835
Mof_C 	C 	0.181	0.819	0.5	5.647
Mof_O 	O 	0.1197	0.8803	0.5	-9.823
Mof_C 	C 	-6.56361e-33	0.319	0.319	6.741
Mof_O 	O 	1.4259e-33	0.3803	0.3803	-13.85
Mof_C 	C 	0.5	0.819	0.819	5.559
Mof_O 	O 	0.5	0.8803	0.8803	-9.307
Mof_C 	C 	-5.20633e-33	0.319	0.681	6.706
Mof_O 	O 	-5.43617e-33	0.3803	0.6197	-13.835
Mof_C 	C 	0.5	0.819	0.181	5.647
Mof_O 	O 	0.5	0.8803	0.1197	-9.823
Mof_C 	C 	2.55334e-33	0.681	0.681	6.677
Mof_O 	O 	-1.31958e-32	0.6197	0.6197	-13.825
Mof_C 	C 	0.5	0.181	0.181	5.754
Mof_O 	O 	0.5	0.1197	0.1197	-10.538
Mof_C 	C 	1.19606e-33	0.681	0.319	6.706
Mof_O 	O 	-2.45394e-33	0.6197	0.3803	-13.835
Mof_C 	C 	0.5	0.181	0.819	5.647
Mof_O 	O 	0.5	0.1197	0.8803	-9.823
Mof_O 	O 	0.2356	3.87983e-33	0.3422	-3.261
Mof_O 	O 	0.7356	0.5	0.8422	-2.328
Mof_O 	O 	0.7644	3.87983e-33	0.3422	-2.933
Mof_O 	O 	0.2644	0.5	0.8422	-2.35
Mof_O 	O 	0.7644	0	0.6578	-2.788
Mof_O 	O 	0.2644	0.5	0.1578	-2.934
Mof_O 	O 	0.2356	0	0.6578	-3.072
Mof_O 	O 	0.7356	0.5	0.1578	-2.841
Mof_O 	O 	0.3422	0.2356	-0	-3.261
Mof_O 	O 	0.8422	0.7356	0.5	-2.328
Mof_O 	O 	0.3422	0.7644	-0	-2.933
Mof_O 	O 	0.8422	0.2644	0.5	-2.35
Mof_O 	O 	0.6578	0.7644	-0	-2.788
Mof_O 	O 	0.1578	0.2644	0.5	-2.934
Mof_O 	O 	0.6578	0.2356	-0	-3.072
Mof_O 	O 	0.1578	0.7356	0.5	-2.841
Mof_O 	O 	2.82328e-33	0.3422	0.2356	-3.261
Mof_O 	O 	0.5	0.8422	0.7356	-2.328
Mof_O 	O 	2.86604e-33	0.3422	0.7644	-2.933
Mof_O 	O 	0.5	0.8422	0.2644	-2.35
Mof_O 	O 	2.86604e-33	0.6578	0.7644	-2.788
Mof_O 	O 	0.5	0.1578	0.2644	-2.934
Mof_O 	O 	6.70311e-33	0.6578	0.2356	-3.072
Mof_O 	O 	0.5	0.1578	0.7356	-2.841
Mof_O 	O 	1.0226e-32	0.2356	0.6578	-3.072
Mof_O 	O 	0.5	0.7356	0.1578	-2.841
Mof_O 	O 	2.46635e-33	0.7644	0.6578	-2.788
Mof_O 	O 	0.5	0.2644	0.1578	-2.934
Mof_O 	O 	5.16288e-33	0.7644	0.3422	-2.933
Mof_O 	O 	0.5	0.2644	0.8422	-2.35
Mof_O 	O 	1.28304e-33	0.2356	0.3422	-3.261
Mof_O 	O 	0.5	0.7356	0.8422	-2.328
Mof_O 	O 	0.2356	0.3422	-0	-3.261
Mof_O 	O 	0.7356	0.8422	0.5	-2.328
Mof_O 	O 	0.7644	0.3422	-0	-2.933
Mof_O 	O 	0.2644	0.8422	0.5	-2.35
Mof_O 	O 	0.7644	0.6578	-0	-2.788
Mof_O 	O 	0.2644	0.1578	0.5	-2.934
Mof_O 	O 	0.2356	0.6578	-0	-3.072
Mof_O 	O 	0.7356	0.1578	0.5	-2.841
Mof_O 	O 	0.3422	0	0.7644	-2.933
Mof_O 	O 	0.8422	0.5	0.2644	-2.35
Mof_O 	O 	0.3422	-1.93992e-33	0.2356	-3.261
Mof_O 	O 	0.8422	0.5	0.7356	-2.328
Mof_O 	O 	0.6578	-1.93992e-33	0.2356	-3.072
Mof_O 	O 	0.1578	0.5	0.7356	-2.841
Mof_O 	O 	0.6578	0	0.7644	-2.788
Mof_O 	O 	0.1578	0.5	0.2644	-2.934
Mof_K 	K 	1.64036e-33	3.87983e-33	0.4375	58.424
Mof_O 	O 	5.23337e-33	0	0.361	-28.408
Mof_K 	K 	0.5	0.5	0.9375	72.773
Mof_O 	O 	0.5	0.5	0.861	-34.083
Mof_K 	K 	-1.7708e-33	0	0.5625	58.293
Mof_O 	O 	2.39587e-33	0	0.639	-28.129
Mof_K 	K 	0.5	0.5	0.0625	78.738
Mof_O 	O 	0.5	0.5	0.139	-36.768
Mof_K 	K 	0.4375	0	-0	58.424
Mof_O 	O 	0.361	0	-0	-28.408
Mof_K 	K 	0.9375	0.5	0.5	72.773
Mof_O 	O 	0.861	0.5	0.5	-34.083
Mof_K 	K 	0.5625	0	-0	58.293
Mof_O 	O 	0.639	0	-0	-28.129
Mof_K 	K 	0.0625	0.5	0.5	78.738
Mof_O 	O 	0.139	0.5	0.5	-36.768
Mof_K 	K 	-0	0.4375	-0	58.424
Mof_O 	O 	3.87983e-33	0.361	-0	-28.408
Mof_K 	K 	0.5	0.9375	0.5	72.773
Mof_O 	O 	0.5	0.861	0.5	-34.083
Mof_K 	K 	-0	0.5625	-0	58.293
Mof_O 	O 	-0	0.639	-0	-28.129
Mof_K 	K 	0.5	0.0625	0.5	78.738
Mof_O 	O 	0.5	0.139	0.5	-36.768
_end
