# CIF file generated by openbabel 3.1.0, see https://openbabel.org
data_I
_chemical_name_common 'image0'
_cell_length_a 9.001
_cell_length_b 11.966
_cell_length_c 15.106
_cell_angle_alpha 90
_cell_angle_beta 99.66
_cell_angle_gamma 90
_space_group_name_H-M_alt 'P 1'
_space_group_name_Hall 'P 1'
loop_
    _symmetry_equiv_pos_as_xyz
    x,y,z
loop_
    _atom_site_label
    _atom_site_type_symbol
    _atom_site_fract_x
    _atom_site_fract_y
    _atom_site_fract_z
    _atom_site_occupancy
    Fe1      Fe       0.14982    0.41598    0.03243    1.000
    Na1      Na       0.75706    0.46918    0.17119    1.000
    O1       O        0.76190    0.27560    0.10880    1.000
    O2       O        0.94130    0.39430    0.08625    1.000
    O3       O        0.21800    0.27930    0.11365    1.000
    O4       O        0.08910    0.52340    0.92495    1.000
    O5       O        0.37960    0.47650    0.06390    1.000
    O6       O        0.92300    0.56370    0.80383    1.000
    O7       O        0.38110    0.14100    0.14528    1.000
    O8       O        0.60480    0.49630    0.02336    1.000
    N1       N        0.97870    0.30680    0.93105    1.000
    N2       N        0.29640    0.31550    0.94373    1.000
    C1       C        0.05690    0.23090    0.87590    1.000
    H1       H        0.99150    0.21590    0.81930    1.000
    H2       H        0.07850    0.16050    0.90710    1.000
    C2       C        0.20230    0.28230    0.85790    1.000
    H3       H        0.25650    0.22880    0.82710    1.000
    H4       H        0.18030    0.34740    0.81960    1.000
    C3       C        0.88540    0.24210    0.98450    1.000
    H5       H        0.93540    0.17220    0.00350    1.000
    H6       H        0.78910    0.22480    0.94780    1.000
    C4       C        0.86000    0.30830    0.06640    1.000
    C5       C        0.31880    0.21200    0.09320    1.000
    C6       C        0.35830    0.21810    0.99890    1.000
    H7       H        0.46720    0.21920    0.00410    1.000
    H8       H        0.32240    0.15040    0.96690    1.000
    C7       C        0.88830    0.39300    0.87560    1.000
    H9       H        0.80000    0.40990    0.90210    1.000
    H10      H        0.85380    0.36250    0.81620    1.000
    C8       C        0.97330    0.50060    0.86630    1.000
    C9       C        0.41850    0.39170    0.92820    1.000
    H11      H        0.38130    0.44180    0.87900    1.000
    H12      H        0.50070    0.34850    0.91140    1.000
    C10      C        0.47590    0.45920    0.01150    1.000
    Fe2      Fe       0.64982    0.91598    0.03243    1.000
    Na2      Na       0.25706    0.96918    0.17119    1.000
    O9       O        0.26190    0.77560    0.10880    1.000
    O10      O        0.44130    0.89430    0.08625    1.000
    O11      O        0.71800    0.77930    0.11365    1.000
    O12      O        0.58910    0.02340    0.92495    1.000
    O13      O        0.87960    0.97650    0.06390    1.000
    O14      O        0.42300    0.06370    0.80383    1.000
    O15      O        0.88110    0.64100    0.14528    1.000
    O16      O        0.10480    0.99630    0.02336    1.000
    N3       N        0.47870    0.80680    0.93105    1.000
    N4       N        0.79640    0.81550    0.94373    1.000
    C11      C        0.55690    0.73090    0.87590    1.000
    H13      H        0.49150    0.71590    0.81930    1.000
    H14      H        0.57850    0.66050    0.90710    1.000
    C12      C        0.70230    0.78230    0.85790    1.000
    H15      H        0.75650    0.72880    0.82710    1.000
    H16      H        0.68030    0.84740    0.81960    1.000
    C13      C        0.38540    0.74210    0.98450    1.000
    H17      H        0.43540    0.67220    0.00350    1.000
    H18      H        0.28910    0.72480    0.94780    1.000
    C14      C        0.36000    0.80830    0.06640    1.000
    C15      C        0.81880    0.71200    0.09320    1.000
    C16      C        0.85830    0.71810    0.99890    1.000
    H19      H        0.96720    0.71920    0.00410    1.000
    H20      H        0.82240    0.65040    0.96690    1.000
    C17      C        0.38830    0.89300    0.87560    1.000
    H21      H        0.30000    0.90990    0.90210    1.000
    H22      H        0.35380    0.86250    0.81620    1.000
    C18      C        0.47330    0.00060    0.86630    1.000
    C19      C        0.91850    0.89170    0.92820    1.000
    H23      H        0.88130    0.94180    0.87900    1.000
    H24      H        0.00070    0.84850    0.91140    1.000
    C20      C        0.97590    0.95920    0.01150    1.000
    Fe3      Fe       0.14982    0.58402    0.53243    1.000
    Na3      Na       0.75706    0.53082    0.67119    1.000
    O17      O        0.76190    0.72440    0.60880    1.000
    O18      O        0.94130    0.60570    0.58625    1.000
    O19      O        0.21800    0.72070    0.61365    1.000
    O20      O        0.08910    0.47660    0.42495    1.000
    O21      O        0.37960    0.52350    0.56390    1.000
    O22      O        0.92300    0.43630    0.30383    1.000
    O23      O        0.38110    0.85900    0.64528    1.000
    O24      O        0.60480    0.50370    0.52336    1.000
    N5       N        0.97870    0.69320    0.43105    1.000
    N6       N        0.29640    0.68450    0.44373    1.000
    C21      C        0.05690    0.76910    0.37590    1.000
    H25      H        0.99150    0.78410    0.31930    1.000
    H26      H        0.07850    0.83950    0.40710    1.000
    C22      C        0.20230    0.71770    0.35790    1.000
    H27      H        0.25650    0.77120    0.32710    1.000
    H28      H        0.18030    0.65260    0.31960    1.000
    C23      C        0.88540    0.75790    0.48450    1.000
    H29      H        0.93540    0.82780    0.50350    1.000
    H30      H        0.78910    0.77520    0.44780    1.000
    C24      C        0.86000    0.69170    0.56640    1.000
    C25      C        0.31880    0.78800    0.59320    1.000
    C26      C        0.35830    0.78190    0.49890    1.000
    H31      H        0.46720    0.78080    0.50410    1.000
    H32      H        0.32240    0.84960    0.46690    1.000
    C27      C        0.88830    0.60700    0.37560    1.000
    H33      H        0.80000    0.59010    0.40210    1.000
    H34      H        0.85380    0.63750    0.31620    1.000
    C28      C        0.97330    0.49940    0.36630    1.000
    C29      C        0.41850    0.60830    0.42820    1.000
    H35      H        0.38130    0.55820    0.37900    1.000
    H36      H        0.50070    0.65150    0.41140    1.000
    C30      C        0.47590    0.54080    0.51150    1.000
    Fe4      Fe       0.64982    0.08402    0.53243    1.000
    Na4      Na       0.25706    0.03082    0.67119    1.000
    O25      O        0.26190    0.22440    0.60880    1.000
    O26      O        0.44130    0.10570    0.58625    1.000
    O27      O        0.71800    0.22070    0.61365    1.000
    O28      O        0.58910    0.97660    0.42495    1.000
    O29      O        0.87960    0.02350    0.56390    1.000
    O30      O        0.42300    0.93630    0.30383    1.000
    O31      O        0.88110    0.35900    0.64528    1.000
    O32      O        0.10480    0.00370    0.52336    1.000
    N7       N        0.47870    0.19320    0.43105    1.000
    N8       N        0.79640    0.18450    0.44373    1.000
    C31      C        0.55690    0.26910    0.37590    1.000
    H37      H        0.49150    0.28410    0.31930    1.000
    H38      H        0.57850    0.33950    0.40710    1.000
    C32      C        0.70230    0.21770    0.35790    1.000
    H39      H        0.75650    0.27120    0.32710    1.000
    H40      H        0.68030    0.15260    0.31960    1.000
    C33      C        0.38540    0.25790    0.48450    1.000
    H41      H        0.43540    0.32780    0.50350    1.000
    H42      H        0.28910    0.27520    0.44780    1.000
    C34      C        0.36000    0.19170    0.56640    1.000
    C35      C        0.81880    0.28800    0.59320    1.000
    C36      C        0.85830    0.28190    0.49890    1.000
    H43      H        0.96720    0.28080    0.50410    1.000
    H44      H        0.82240    0.34960    0.46690    1.000
    C37      C        0.38830    0.10700    0.37560    1.000
    H45      H        0.30000    0.09010    0.40210    1.000
    H46      H        0.35380    0.13750    0.31620    1.000
    C38      C        0.47330    0.99940    0.36630    1.000
    C39      C        0.91850    0.10830    0.42820    1.000
    H47      H        0.88130    0.05820    0.37900    1.000
    H48      H        0.00070    0.15150    0.41140    1.000
    C40      C        0.97590    0.04080    0.51150    1.000
