# CIF file generated by openbabel 3.1.0, see https://openbabel.org
data_I
_chemical_name_common 'image0'
_cell_length_a 18.1111
_cell_length_b 18.1111
_cell_length_c 11.2507
_cell_angle_alpha 90
_cell_angle_beta 90
_cell_angle_gamma 90
_space_group_name_H-M_alt 'P 1'
_space_group_name_Hall 'P 1'
loop_
    _symmetry_equiv_pos_as_xyz
    x,y,z
loop_
    _atom_site_label
    _atom_site_type_symbol
    _atom_site_fract_x
    _atom_site_fract_y
    _atom_site_fract_z
    _atom_site_occupancy
    Zn1      Zn       0.21145    0.42349    0.16977    1.000
    C1       C        0.28580    0.34670    0.38340    1.000
    C2       C        0.22020    0.36380    0.46100    1.000
    H1       H        0.18710    0.32170    0.45950    1.000
    H2       H        0.23760    0.36930    0.54210    1.000
    C3       C        0.17680    0.43120    0.42950    1.000
    C4       C        0.10820    0.52760    0.44580    1.000
    C5       C        0.06340    0.58680    0.49780    1.000
    C6       C        0.04390    0.58740    0.61690    1.000
    H3       H        0.05790    0.54880    0.66650    1.000
    C7       C        0.00330    0.64610    0.66140    1.000
    H4       H        0.99130    0.64640    0.74180    1.000
    C8       C        0.99780    0.70000    0.47940    1.000
    H5       H        0.98130    0.73820    0.43090    1.000
    C9       C        0.03850    0.64420    0.42790    1.000
    H6       H        0.04890    0.64520    0.34700    1.000
    N1       N        0.16770    0.45990    0.32360    1.000
    N2       N        0.12400    0.52220    0.33320    1.000
    N3       N        0.13990    0.47220    0.50660    1.000
    H7       H        0.13720    0.46500    0.58200    1.000
    N4       N        0.98130    0.70230    0.59420    1.000
    O1       O        0.28962    0.36657    0.27810    1.000
    O2       O        0.33578    0.30831    0.43240    1.000
    Zn2      Zn       0.28855    0.07651    0.16977    1.000
    C10      C        0.21420    0.15330    0.38340    1.000
    C11      C        0.27980    0.13620    0.46100    1.000
    H8       H        0.31290    0.17830    0.45950    1.000
    H9       H        0.26240    0.13070    0.54210    1.000
    C12      C        0.32320    0.06880    0.42950    1.000
    C13      C        0.39180    0.97240    0.44580    1.000
    C14      C        0.43660    0.91320    0.49780    1.000
    C15      C        0.45610    0.91260    0.61690    1.000
    H10      H        0.44210    0.95120    0.66650    1.000
    C16      C        0.49670    0.85390    0.66140    1.000
    H11      H        0.50870    0.85360    0.74180    1.000
    C17      C        0.50220    0.80000    0.47940    1.000
    H12      H        0.51870    0.76180    0.43090    1.000
    C18      C        0.46150    0.85580    0.42790    1.000
    H13      H        0.45110    0.85480    0.34700    1.000
    N5       N        0.33230    0.04010    0.32360    1.000
    N6       N        0.37600    0.97780    0.33320    1.000
    N7       N        0.36010    0.02780    0.50660    1.000
    H14      H        0.36280    0.03500    0.58200    1.000
    N8       N        0.51870    0.79770    0.59420    1.000
    O3       O        0.21038    0.13343    0.27810    1.000
    O4       O        0.16422    0.19169    0.43240    1.000
    Zn3      Zn       0.57651    0.71145    0.66977    1.000
    C19      C        0.65330    0.78580    0.88340    1.000
    C20      C        0.63620    0.72020    0.96100    1.000
    H15      H        0.67830    0.68710    0.95950    1.000
    H16      H        0.63070    0.73760    0.04210    1.000
    C21      C        0.56880    0.67680    0.92950    1.000
    C22      C        0.47240    0.60820    0.94580    1.000
    C23      C        0.41320    0.56340    0.99780    1.000
    C24      C        0.41260    0.54390    0.11690    1.000
    H17      H        0.45120    0.55790    0.16650    1.000
    C25      C        0.35390    0.50330    0.16140    1.000
    H18      H        0.35360    0.49130    0.24180    1.000
    C26      C        0.30000    0.49780    0.97940    1.000
    H19      H        0.26180    0.48130    0.93090    1.000
    C27      C        0.35580    0.53850    0.92790    1.000
    H20      H        0.35480    0.54890    0.84700    1.000
    N9       N        0.54010    0.66770    0.82360    1.000
    N10      N        0.47780    0.62400    0.83320    1.000
    N11      N        0.52780    0.63990    0.00660    1.000
    H21      H        0.53500    0.63720    0.08200    1.000
    N12      N        0.29770    0.48130    0.09420    1.000
    O5       O        0.63343    0.78962    0.77810    1.000
    O6       O        0.69169    0.83578    0.93240    1.000
    Zn4      Zn       0.92349    0.78855    0.66977    1.000
    C28      C        0.84670    0.71420    0.88340    1.000
    C29      C        0.86380    0.77980    0.96100    1.000
    H22      H        0.82170    0.81290    0.95950    1.000
    H23      H        0.86930    0.76240    0.04210    1.000
    C30      C        0.93120    0.82320    0.92950    1.000
    C31      C        0.02760    0.89180    0.94580    1.000
    C32      C        0.08680    0.93660    0.99780    1.000
    C33      C        0.08740    0.95610    0.11690    1.000
    H24      H        0.04880    0.94210    0.16650    1.000
    C34      C        0.14610    0.99670    0.16140    1.000
    H25      H        0.14640    0.00870    0.24180    1.000
    C35      C        0.20000    0.00220    0.97940    1.000
    H26      H        0.23820    0.01870    0.93090    1.000
    C36      C        0.14420    0.96150    0.92790    1.000
    H27      H        0.14520    0.95110    0.84700    1.000
    N13      N        0.95990    0.83230    0.82360    1.000
    N14      N        0.02220    0.87600    0.83320    1.000
    N15      N        0.97220    0.86010    0.00660    1.000
    H28      H        0.96500    0.86280    0.08200    1.000
    N16      N        0.20230    0.01870    0.09420    1.000
    O7       O        0.86657    0.71038    0.77810    1.000
    O8       O        0.80831    0.66422    0.93240    1.000
    Zn5      Zn       0.78855    0.57651    0.83023    1.000
    C37      C        0.71420    0.65330    0.61660    1.000
    C38      C        0.77980    0.63620    0.53900    1.000
    H29      H        0.81290    0.67830    0.54050    1.000
    H30      H        0.76240    0.63070    0.45790    1.000
    C39      C        0.82320    0.56880    0.57050    1.000
    C40      C        0.89180    0.47240    0.55420    1.000
    C41      C        0.93660    0.41320    0.50220    1.000
    C42      C        0.95610    0.41260    0.38310    1.000
    H31      H        0.94210    0.45120    0.33350    1.000
    C43      C        0.99670    0.35390    0.33860    1.000
    H32      H        0.00870    0.35360    0.25820    1.000
    C44      C        0.00220    0.30000    0.52060    1.000
    H33      H        0.01870    0.26180    0.56910    1.000
    C45      C        0.96150    0.35580    0.57210    1.000
    H34      H        0.95110    0.35480    0.65300    1.000
    N17      N        0.83230    0.54010    0.67640    1.000
    N18      N        0.87600    0.47780    0.66680    1.000
    N19      N        0.86010    0.52780    0.49340    1.000
    H35      H        0.86280    0.53500    0.41800    1.000
    N20      N        0.01870    0.29770    0.40580    1.000
    O9       O        0.71038    0.63343    0.72190    1.000
    O10      O        0.66422    0.69169    0.56760    1.000
    Zn6      Zn       0.71145    0.92349    0.83023    1.000
    C46      C        0.78580    0.84670    0.61660    1.000
    C47      C        0.72020    0.86380    0.53900    1.000
    H36      H        0.68710    0.82170    0.54050    1.000
    H37      H        0.73760    0.86930    0.45790    1.000
    C48      C        0.67680    0.93120    0.57050    1.000
    C49      C        0.60820    0.02760    0.55420    1.000
    C50      C        0.56340    0.08680    0.50220    1.000
    C51      C        0.54390    0.08740    0.38310    1.000
    H38      H        0.55790    0.04880    0.33350    1.000
    C52      C        0.50330    0.14610    0.33860    1.000
    H39      H        0.49130    0.14640    0.25820    1.000
    C53      C        0.49780    0.20000    0.52060    1.000
    H40      H        0.48130    0.23820    0.56910    1.000
    C54      C        0.53850    0.14420    0.57210    1.000
    H41      H        0.54890    0.14520    0.65300    1.000
    N21      N        0.66770    0.95990    0.67640    1.000
    N22      N        0.62400    0.02220    0.66680    1.000
    N23      N        0.63990    0.97220    0.49340    1.000
    H42      H        0.63720    0.96500    0.41800    1.000
    N24      N        0.48130    0.20230    0.40580    1.000
    O11      O        0.78962    0.86657    0.72190    1.000
    O12      O        0.83578    0.80831    0.56760    1.000
    Zn7      Zn       0.42349    0.28855    0.33023    1.000
    C55      C        0.34670    0.21420    0.11660    1.000
    C56      C        0.36380    0.27980    0.03900    1.000
    H43      H        0.32170    0.31290    0.04050    1.000
    H44      H        0.36930    0.26240    0.95790    1.000
    C57      C        0.43120    0.32320    0.07050    1.000
    C58      C        0.52760    0.39180    0.05420    1.000
    C59      C        0.58680    0.43660    0.00220    1.000
    C60      C        0.58740    0.45610    0.88310    1.000
    H45      H        0.54880    0.44210    0.83350    1.000
    C61      C        0.64610    0.49670    0.83860    1.000
    H46      H        0.64640    0.50870    0.75820    1.000
    C62      C        0.70000    0.50220    0.02060    1.000
    H47      H        0.73820    0.51870    0.06910    1.000
    C63      C        0.64420    0.46150    0.07210    1.000
    H48      H        0.64520    0.45110    0.15300    1.000
    N25      N        0.45990    0.33230    0.17640    1.000
    N26      N        0.52220    0.37600    0.16680    1.000
    N27      N        0.47220    0.36010    0.99340    1.000
    H49      H        0.46500    0.36280    0.91800    1.000
    N28      N        0.70230    0.51870    0.90580    1.000
    O13      O        0.36657    0.21038    0.22190    1.000
    O14      O        0.30831    0.16422    0.06760    1.000
    Zn8      Zn       0.07651    0.21145    0.33023    1.000
    C64      C        0.15330    0.28580    0.11660    1.000
    C65      C        0.13620    0.22020    0.03900    1.000
    H50      H        0.17830    0.18710    0.04050    1.000
    H51      H        0.13070    0.23760    0.95790    1.000
    C66      C        0.06880    0.17680    0.07050    1.000
    C67      C        0.97240    0.10820    0.05420    1.000
    C68      C        0.91320    0.06340    0.00220    1.000
    C69      C        0.91260    0.04390    0.88310    1.000
    H52      H        0.95120    0.05790    0.83350    1.000
    C70      C        0.85390    0.00330    0.83860    1.000
    H53      H        0.85360    0.99130    0.75820    1.000
    C71      C        0.80000    0.99780    0.02060    1.000
    H54      H        0.76180    0.98130    0.06910    1.000
    C72      C        0.85580    0.03850    0.07210    1.000
    H55      H        0.85480    0.04890    0.15300    1.000
    N29      N        0.04010    0.16770    0.17640    1.000
    N30      N        0.97780    0.12400    0.16680    1.000
    N31      N        0.02780    0.13990    0.99340    1.000
    H56      H        0.03500    0.13720    0.91800    1.000
    N32      N        0.79770    0.98130    0.90580    1.000
    O15      O        0.13343    0.28962    0.22190    1.000
    O16      O        0.19169    0.33578    0.06760    1.000
