# CIF file generated by openbabel 3.1.0, see https://openbabel.org
data_I
_chemical_name_common 'XANMIJ_clean'
_cell_length_a 7.0472
_cell_length_b 13.4919
_cell_length_c 13.4919
_cell_angle_alpha 97.1364
_cell_angle_beta 98.6585
_cell_angle_gamma 98.6585
_space_group_name_H-M_alt 'P 1'
_space_group_name_Hall 'P 1'
loop_
    _symmetry_equiv_pos_as_xyz
    x,y,z
loop_
    _atom_site_label
    _atom_site_type_symbol
    _atom_site_fract_x
    _atom_site_fract_y
    _atom_site_fract_z
    _atom_site_occupancy
    Co1      Co       0.00000    0.00000    0.00000    1.000
    Co2      Co       0.50000    0.00000    0.50000    1.000
    Co3      Co       0.50000    0.50000    0.00000    1.000
    H1       H        0.06140    0.00280    0.77460    1.000
    H2       H        0.58190    0.00610    0.88430    1.000
    H3       H        0.41450    0.00720    0.72540    1.000
    H4       H        0.93860    0.22540    0.99720    1.000
    H5       H        0.41810    0.11570    0.99390    1.000
    H6       H        0.58550    0.27460    0.99280    1.000
    H7       H        0.93860    0.99720    0.22540    1.000
    H8       H        0.41810    0.99390    0.11570    1.000
    H9       H        0.58550    0.99280    0.27460    1.000
    H10      H        0.06140    0.77460    0.00280    1.000
    H11      H        0.58190    0.88430    0.00610    1.000
    H12      H        0.41450    0.72540    0.00720    1.000
    C1       C        0.82770    0.00256    0.66966    1.000
    C2       C        0.92810    0.00321    0.76587    1.000
    C3       C        0.64890    0.00542    0.82996    1.000
    C4       C        0.54730    0.00561    0.73365    1.000
    C5       C        0.92130    0.00078    0.57988    1.000
    C6       C        0.17230    0.33034    0.99744    1.000
    C7       C        0.07190    0.23413    0.99679    1.000
    C8       C        0.35110    0.17004    0.99458    1.000
    C9       C        0.45270    0.26635    0.99439    1.000
    C10      C        0.07870    0.42012    0.99922    1.000
    C11      C        0.17230    0.99744    0.33034    1.000
    C12      C        0.07190    0.99679    0.23413    1.000
    C13      C        0.35110    0.99458    0.17004    1.000
    C14      C        0.45270    0.99439    0.26635    1.000
    C15      C        0.07870    0.99922    0.42012    1.000
    C16      C        0.82770    0.66966    0.00256    1.000
    C17      C        0.92810    0.76587    0.00321    1.000
    C18      C        0.64890    0.82996    0.00542    1.000
    C19      C        0.54730    0.73365    0.00561    1.000
    C20      C        0.92130    0.57988    0.00078    1.000
    N1       N        0.63380    0.00357    0.65287    1.000
    N2       N        0.83990    0.00436    0.84696    1.000
    N3       N        0.80670    0.99985    0.49081    1.000
    N4       N        0.11400    0.00020    0.59182    1.000
    N5       N        0.36620    0.34713    0.99643    1.000
    N6       N        0.16010    0.15304    0.99564    1.000
    N7       N        0.19330    0.50919    0.00015    1.000
    N8       N        0.88600    0.40818    0.99980    1.000
    N9       N        0.36620    0.99643    0.34713    1.000
    N10      N        0.16010    0.99564    0.15304    1.000
    N11      N        0.19330    0.00015    0.50919    1.000
    N12      N        0.88600    0.99980    0.40818    1.000
    N13      N        0.63380    0.65287    0.00357    1.000
    N14      N        0.83990    0.84696    0.00436    1.000
    N15      N        0.80670    0.49081    0.99985    1.000
    N16      N        0.11400    0.59182    0.00020    1.000
    Cl1      Cl       0.60430    0.17652    0.52468    1.000
    Cl2      Cl       0.39570    0.47532    0.82348    1.000
    Cl3      Cl       0.39570    0.82348    0.47532    1.000
    Cl4      Cl       0.60430    0.52468    0.17652    1.000
    Cl5      Cl       0.76422    0.07688    0.07688    1.000
    Cl6      Cl       0.23578    0.92312    0.92312    1.000
