data_functionalizedCrystal
_audit_creation_method	'EQeq! by Chris Wilmer'
_symmetry_space_group_name_H-M	'P1'
_symmetry_Int_Tables_number	1
_symmetry_cell_setting	triclinic
loop_
_symmetry_equiv_pos_as_xyz
  x,y,z
_cell_length_a	16.2318
_cell_length_b	8.7252
_cell_length_c	20.7773
_cell_angle_alpha	90
_cell_angle_beta	94.984
_cell_angle_gamma	90
loop_
_atom_site_label
_atom_site_type_symbol
_atom_site_fract_x
_atom_site_fract_y
_atom_site_fract_z
_atom_site_charge
Mof_Gd	Gd	0.24231	0.22108	0.71218	1.822
Mof_O 	O 	0.1788	0.299	0.80261	-0.493
Mof_O 	O 	0.1253	0.3574	0.6619	-0.444
Mof_O 	O 	0.3704	0.3199	0.74849	-0.521
Mof_O 	O 	0.3636	0.5431	0.79908	-0.514
Mof_O 	O 	0.1798	0.5367	0.84086	-0.503
Mof_O 	O 	0.2117	0.5313	0.70468	-0.508
Mof_N 	N 	0.9849	0.9339	0.4995	-0.102
Mof_C 	C 	0.9951	0.6856	0.5464	-0.196
Mof_H 	H 	0.9442	0.6638	0.5243	0.105
Mof_C 	C 	0.1093	0.8583	0.5702	-0.195
Mof_H 	H 	0.1346	0.9522	0.5643	0.103
Mof_C 	C 	0.0344	0.5766	0.587	0.106
Mof_H 	H 	0.0098	0.4815	0.592	0.007
Mof_C 	C 	0.4025	0.4301	0.7807	0.523
Mof_C 	C 	0.1477	0.748	0.61	0.115
Mof_H 	H 	0.2	0.7676	0.6303	-0.008
Mof_C 	C 	0.1437	0.4157	0.8234	0.498
Mof_C 	C 	0.0319	0.826	0.539	0.169
Mof_C 	C 	0.0517	0.4063	0.8269	-0.24
Mof_C 	C 	0.1101	0.6092	0.6201	-0.183
Mof_C 	C 	0.0072	0.29	0.7944	0.172
Mof_H 	H 	0.0351	0.2147	0.7732	-0.02
Mof_C 	C 	0.1512	0.4932	0.6657	0.391
Mof_C 	C 	0.494	0.4256	0.7973	-0.249
Mof_C 	C 	0.5326	0.5381	0.8365	0.175
Mof_H 	H 	0.5011	0.6141	0.854	-0.011
Mof_C 	C 	0.0097	0.5159	0.8587	0.156
Mof_H 	H 	0.0384	0.5942	0.8813	-0.022
Mof_N 	N 	0.7565	0.4599	0.8399	-0.101
Mof_C 	C 	0.5406	0.3121	0.7731	0.166
Mof_H 	H 	0.5153	0.2343	0.748	-0.016
Mof_C 	C 	0.9229	0.5084	0.8568	-0.233
Mof_H 	H 	0.8944	0.5818	0.8786	0.118
Mof_C 	C 	0.6632	0.4308	0.8243	0.2
Mof_N 	N 	0.7848	0.3613	0.8113	-0.097
Mof_C 	C 	0.6168	0.5379	0.8497	-0.257
Mof_H 	H 	0.6419	0.6128	0.8766	0.128
Mof_C 	C 	0.8802	0.3946	0.8235	0.191
Mof_C 	C 	0.9227	0.2846	0.7931	-0.245
Mof_H 	H 	0.8939	0.2053	0.7713	0.127
Mof_C 	C 	0.6264	0.3137	0.7863	-0.237
Mof_H 	H 	0.6586	0.2375	0.7698	0.126
Mof_Gd	Gd	0.25769	0.72108	0.78782	1.819
Mof_O 	O 	0.3212	0.799	0.69739	-0.493
Mof_O 	O 	0.3747	0.8574	0.8381	-0.444
Mof_O 	O 	0.1296	0.8199	0.75151	-0.522
Mof_O 	O 	0.1364	0.0431	0.70092	-0.511
Mof_O 	O 	0.3202	0.0367	0.65914	-0.501
Mof_O 	O 	0.2883	0.0313	0.79532	-0.504
Mof_N 	N 	0.5151	0.4339	0.0005	-0.104
Mof_C 	C 	0.5049	0.1856	0.9536	-0.205
Mof_H 	H 	0.5558	0.1638	0.9757	0.108
Mof_C 	C 	0.3907	0.3583	0.9298	-0.198
Mof_H 	H 	0.3654	0.4522	0.9357	0.105
Mof_C 	C 	0.4656	0.0766	0.913	0.114
Mof_H 	H 	0.4902	0.9815	0.908	0.002
Mof_C 	C 	0.0975	0.9301	0.7193	0.52
Mof_C 	C 	0.3523	0.248	0.89	0.117
Mof_H 	H 	0.3	0.2676	0.8697	-0.008
Mof_C 	C 	0.3563	0.9157	0.6766	0.495
Mof_C 	C 	0.4681	0.326	0.961	0.176
Mof_C 	C 	0.4483	0.9063	0.6731	-0.241
Mof_C 	C 	0.3899	0.1092	0.8799	-0.183
Mof_C 	C 	0.4928	0.79	0.7056	0.17
Mof_H 	H 	0.4649	0.7147	0.7268	-0.02
Mof_C 	C 	0.3488	0.9932	0.8343	0.386
Mof_C 	C 	0.006	0.9256	0.7027	-0.256
Mof_C 	C 	0.9674	0.0381	0.6635	0.182
Mof_H 	H 	0.9989	0.1141	0.646	-0.014
Mof_C 	C 	0.4903	0.0159	0.6413	0.158
Mof_H 	H 	0.4616	0.0942	0.6187	-0.022
Mof_N 	N 	0.7435	0.9599	0.6601	-0.102
Mof_C 	C 	0.9594	0.8121	0.7269	0.174
Mof_H 	H 	0.9847	0.7343	0.752	-0.018
Mof_C 	C 	0.5771	0.0084	0.6432	-0.232
Mof_H 	H 	0.6056	0.0818	0.6214	0.117
Mof_C 	C 	0.8368	0.9308	0.6757	0.204
Mof_N 	N 	0.7152	0.8613	0.6887	-0.097
Mof_C 	C 	0.8832	0.0379	0.6503	-0.262
Mof_H 	H 	0.8581	0.1128	0.6234	0.129
Mof_C 	C 	0.6198	0.8946	0.6765	0.189
Mof_C 	C 	0.5773	0.7846	0.7069	-0.243
Mof_H 	H 	0.6061	0.7053	0.7287	0.126
Mof_C 	C 	0.8736	0.8137	0.7137	-0.242
Mof_H 	H 	0.8414	0.7375	0.7302	0.128
Mof_Gd	Gd	0.75769	0.77892	0.28782	1.822
Mof_O 	O 	0.8212	0.701	0.19739	-0.493
Mof_O 	O 	0.8747	0.6426	0.3381	-0.444
Mof_O 	O 	0.6296	0.6801	0.25151	-0.521
Mof_O 	O 	0.6364	0.4569	0.20092	-0.514
Mof_O 	O 	0.8202	0.4633	0.15914	-0.503
Mof_O 	O 	0.7883	0.4687	0.29532	-0.508
Mof_N 	N 	0.0151	0.0661	0.5005	-0.102
Mof_C 	C 	0.0049	0.3144	0.4536	-0.196
Mof_H 	H 	0.0558	0.3362	0.4757	0.105
Mof_C 	C 	0.8907	0.1417	0.4298	-0.195
Mof_H 	H 	0.8654	0.0478	0.4357	0.103
Mof_C 	C 	0.9656	0.4234	0.413	0.106
Mof_H 	H 	0.9902	0.5185	0.408	0.007
Mof_C 	C 	0.5975	0.5699	0.2193	0.523
Mof_C 	C 	0.8523	0.252	0.39	0.115
Mof_H 	H 	0.8	0.2324	0.3697	-0.008
Mof_C 	C 	0.8563	0.5843	0.1766	0.498
Mof_C 	C 	0.9681	0.174	0.461	0.169
Mof_C 	C 	0.9483	0.5937	0.1731	-0.24
Mof_C 	C 	0.8899	0.3908	0.3799	-0.183
Mof_C 	C 	0.9928	0.71	0.2056	0.172
Mof_H 	H 	0.9649	0.7853	0.2268	-0.02
Mof_C 	C 	0.8488	0.5068	0.3343	0.391
Mof_C 	C 	0.506	0.5744	0.2027	-0.249
Mof_C 	C 	0.4674	0.4619	0.1635	0.175
Mof_H 	H 	0.4989	0.3859	0.146	-0.011
Mof_C 	C 	0.9903	0.4841	0.1413	0.156
Mof_H 	H 	0.9616	0.4058	0.1187	-0.022
Mof_N 	N 	0.2435	0.5401	0.1601	-0.101
Mof_C 	C 	0.4594	0.6879	0.2269	0.166
Mof_H 	H 	0.4847	0.7657	0.252	-0.016
Mof_C 	C 	0.0771	0.4916	0.1432	-0.233
Mof_H 	H 	0.1056	0.4182	0.1214	0.118
Mof_C 	C 	0.3368	0.5692	0.1757	0.2
Mof_N 	N 	0.2152	0.6387	0.1887	-0.097
Mof_C 	C 	0.3832	0.4621	0.1503	-0.257
Mof_H 	H 	0.3581	0.3872	0.1234	0.128
Mof_C 	C 	0.1198	0.6054	0.1765	0.191
Mof_C 	C 	0.0773	0.7154	0.2069	-0.245
Mof_H 	H 	0.1061	0.7947	0.2287	0.127
Mof_C 	C 	0.3736	0.6863	0.2137	-0.237
Mof_H 	H 	0.3414	0.7625	0.2302	0.126
Mof_Gd	Gd	0.74231	0.27892	0.21218	1.819
Mof_O 	O 	0.6788	0.201	0.30261	-0.493
Mof_O 	O 	0.6253	0.1426	0.1619	-0.444
Mof_O 	O 	0.8704	0.1801	0.24849	-0.522
Mof_O 	O 	0.8636	0.9569	0.29908	-0.511
Mof_O 	O 	0.6798	0.9633	0.34086	-0.501
Mof_O 	O 	0.7117	0.9687	0.20468	-0.504
Mof_N 	N 	0.4849	0.5661	0.9995	-0.104
Mof_C 	C 	0.4951	0.8144	0.0464	-0.205
Mof_H 	H 	0.4442	0.8362	0.0243	0.108
Mof_C 	C 	0.6093	0.6417	0.0702	-0.198
Mof_H 	H 	0.6346	0.5478	0.0643	0.105
Mof_C 	C 	0.5344	0.9234	0.087	0.114
Mof_H 	H 	0.5098	0.0185	0.092	0.002
Mof_C 	C 	0.9025	0.0699	0.2807	0.52
Mof_C 	C 	0.6477	0.752	0.11	0.117
Mof_H 	H 	0.7	0.7324	0.1303	-0.008
Mof_C 	C 	0.6437	0.0843	0.3234	0.495
Mof_C 	C 	0.5319	0.674	0.039	0.176
Mof_C 	C 	0.5517	0.0937	0.3269	-0.241
Mof_C 	C 	0.6101	0.8908	0.1201	-0.183
Mof_C 	C 	0.5072	0.21	0.2944	0.17
Mof_H 	H 	0.5351	0.2853	0.2732	-0.02
Mof_C 	C 	0.6512	0.0068	0.1657	0.386
Mof_C 	C 	0.994	0.0744	0.2973	-0.256
Mof_C 	C 	0.0326	0.9619	0.3365	0.182
Mof_H 	H 	0.0011	0.8859	0.354	-0.014
Mof_C 	C 	0.5097	0.9841	0.3587	0.158
Mof_H 	H 	0.5384	0.9058	0.3813	-0.022
Mof_N 	N 	0.2565	0.0401	0.3399	-0.102
Mof_C 	C 	0.0406	0.1879	0.2731	0.174
Mof_H 	H 	0.0153	0.2657	0.248	-0.018
Mof_C 	C 	0.4229	0.9916	0.3568	-0.232
Mof_H 	H 	0.3944	0.9182	0.3786	0.117
Mof_C 	C 	0.1632	0.0692	0.3243	0.204
Mof_N 	N 	0.2848	0.1387	0.3113	-0.097
Mof_C 	C 	0.1168	0.9621	0.3497	-0.262
Mof_H 	H 	0.1419	0.8872	0.3766	0.129
Mof_C 	C 	0.3802	0.1054	0.3235	0.189
Mof_C 	C 	0.4227	0.2154	0.2931	-0.243
Mof_H 	H 	0.3939	0.2947	0.2713	0.126
Mof_C 	C 	0.1264	0.1863	0.2863	-0.242
Mof_H 	H 	0.1586	0.2625	0.2698	0.128
_end
