data_functionalizedCrystal
_audit_creation_method	'EQeq! by Chris Wilmer'
_symmetry_space_group_name_H-M	'P1'
_symmetry_Int_Tables_number	1
_symmetry_cell_setting	triclinic
loop_
_symmetry_equiv_pos_as_xyz
  x,y,z
_cell_length_a	35.631
_cell_length_b	35.631
_cell_length_c	17.334
_cell_angle_alpha	90
_cell_angle_beta	90
_cell_angle_gamma	120
loop_
_atom_site_label
_atom_site_type_symbol
_atom_site_fract_x
_atom_site_fract_y
_atom_site_fract_z
_atom_site_charge
Mof_O 	O 	0.88915	0.18781	0.7471	-0.393
Mof_O 	O 	0.8983	0.17809	0.6185	-0.403
Mof_C 	C 	0.91105	0.18825	0.6862	0.337
Mof_C 	C 	0.9581	0.20229	0.706	-0.111
Mof_C 	C 	0.98593	0.20573	0.6493	0.062
Mof_H 	H 	0.9754	0.1984	0.598	0.028
Mof_C 	C 	0.02933	0.21965	0.6641	-0.147
Mof_H 	H 	0.0476	0.2199	0.6239	0.094
Mof_C 	C 	0.04516	0.2326	0.7346	0.11
Mof_C 	C 	0.01775	0.22893	0.795	-0.138
Mof_H 	H 	0.0284	0.2361	0.8463	0.079
Mof_C 	C 	0.97342	0.21418	0.778	0.055
Mof_H 	H 	0.9545	0.2127	0.818	0.031
Mof_C 	C 	0.09223	0.25229	0.7539	-0.064
Mof_C 	C 	0.1125	0.29108	0.7919	-0.041
Mof_H 	H 	0.0959	0.3044	0.8045	0.046
Mof_H 	H 	0.0571	0.1591	0.7758	0.082
Mof_O 	O 	0.55582	0.52114	0.08043	-0.393
Mof_O 	O 	0.56497	0.51142	0.95183	-0.403
Mof_C 	C 	0.57772	0.52158	0.01953	0.337
Mof_C 	C 	0.62477	0.53562	0.03933	-0.112
Mof_C 	C 	0.6526	0.53906	0.98263	0.063
Mof_H 	H 	0.64207	0.53173	0.93133	0.028
Mof_C 	C 	0.696	0.55298	0.99743	-0.147
Mof_H 	H 	0.71427	0.55323	0.95723	0.094
Mof_C 	C 	0.71183	0.56593	0.06793	0.111
Mof_C 	C 	0.68442	0.56226	0.12833	-0.139
Mof_H 	H 	0.69507	0.56943	0.17963	0.08
Mof_C 	C 	0.64009	0.54751	0.11133	0.055
Mof_H 	H 	0.62117	0.54603	0.15133	0.03
Mof_C 	C 	0.7589	0.58562	0.08723	-0.065
Mof_C 	C 	0.77917	0.62441	0.12523	-0.041
Mof_H 	H 	0.76257	0.63773	0.13783	0.046
Mof_H 	H 	0.72377	0.49243	0.10913	0.082
Mof_O 	O 	0.22248	0.85448	0.41377	-0.393
Mof_O 	O 	0.23163	0.84476	0.28517	-0.403
Mof_C 	C 	0.24438	0.85492	0.35287	0.337
Mof_C 	C 	0.29143	0.86896	0.37267	-0.112
Mof_C 	C 	0.31926	0.8724	0.31597	0.063
Mof_H 	H 	0.30873	0.86507	0.26467	0.028
Mof_C 	C 	0.36266	0.88632	0.33077	-0.147
Mof_H 	H 	0.38093	0.88657	0.29057	0.094
Mof_C 	C 	0.37849	0.89927	0.40127	0.111
Mof_C 	C 	0.35108	0.8956	0.46167	-0.139
Mof_H 	H 	0.36173	0.90277	0.51297	0.08
Mof_C 	C 	0.30675	0.88085	0.44467	0.055
Mof_H 	H 	0.28783	0.87937	0.48467	0.031
Mof_C 	C 	0.42556	0.91896	0.42057	-0.065
Mof_C 	C 	0.44583	0.95775	0.45857	-0.041
Mof_H 	H 	0.42923	0.97107	0.47117	0.046
Mof_H 	H 	0.39043	0.82577	0.44247	0.082
Mof_O 	O 	0.81219	0.70134	0.7471	-0.393
Mof_O 	O 	0.82191	0.72021	0.6185	-0.403
Mof_C 	C 	0.81175	0.7228	0.6862	0.337
Mof_C 	C 	0.79771	0.75581	0.706	-0.112
Mof_C 	C 	0.79427	0.7802	0.6493	0.063
Mof_H 	H 	0.8016	0.777	0.598	0.028
Mof_C 	C 	0.78035	0.80968	0.6641	-0.147
Mof_H 	H 	0.7801	0.8277	0.6239	0.094
Mof_C 	C 	0.7674	0.81256	0.7346	0.111
Mof_C 	C 	0.77107	0.78882	0.795	-0.139
Mof_H 	H 	0.7639	0.7923	0.8463	0.08
Mof_C 	C 	0.78582	0.75924	0.778	0.055
Mof_H 	H 	0.7873	0.7418	0.818	0.03
Mof_C 	C 	0.74771	0.83994	0.7539	-0.066
Mof_C 	C 	0.70892	0.82142	0.7919	-0.042
Mof_H 	H 	0.6956	0.7915	0.8045	0.045
Mof_H 	H 	0.8409	0.898	0.7758	0.081
Mof_O 	O 	0.47886	0.03467	0.08043	-0.394
Mof_O 	O 	0.48858	0.05354	0.95183	-0.404
Mof_C 	C 	0.47842	0.05613	0.01953	0.336
Mof_C 	C 	0.46438	0.08914	0.03933	-0.113
Mof_C 	C 	0.46094	0.11353	0.98263	0.061
Mof_H 	H 	0.46827	0.11033	0.93133	0.027
Mof_C 	C 	0.44702	0.14301	0.99743	-0.148
Mof_H 	H 	0.44677	0.16103	0.95723	0.093
Mof_C 	C 	0.43407	0.14589	0.06793	0.11
Mof_C 	C 	0.43774	0.12215	0.12833	-0.14
Mof_H 	H 	0.43057	0.12563	0.17963	0.079
Mof_C 	C 	0.45249	0.09257	0.11133	0.054
Mof_H 	H 	0.45397	0.07513	0.15133	0.03
Mof_C 	C 	0.41438	0.17327	0.08723	-0.066
Mof_C 	C 	0.37559	0.15475	0.12523	-0.042
Mof_H 	H 	0.36227	0.12483	0.13783	0.045
Mof_H 	H 	0.50757	0.23133	0.10913	0.081
Mof_O 	O 	0.14552	0.36801	0.41377	-0.394
Mof_O 	O 	0.15524	0.38688	0.28517	-0.404
Mof_C 	C 	0.14508	0.38947	0.35287	0.336
Mof_C 	C 	0.13104	0.42248	0.37267	-0.113
Mof_C 	C 	0.1276	0.44687	0.31597	0.062
Mof_H 	H 	0.13493	0.44367	0.26467	0.027
Mof_C 	C 	0.11368	0.47635	0.33077	-0.148
Mof_H 	H 	0.11343	0.49437	0.29057	0.093
Mof_C 	C 	0.10073	0.47923	0.40127	0.11
Mof_C 	C 	0.1044	0.45549	0.46167	-0.14
Mof_H 	H 	0.09723	0.45897	0.51297	0.079
Mof_C 	C 	0.11915	0.42591	0.44467	0.054
Mof_H 	H 	0.12063	0.40847	0.48467	0.03
Mof_C 	C 	0.08104	0.50661	0.42057	-0.066
Mof_C 	C 	0.04225	0.48809	0.45857	-0.042
Mof_H 	H 	0.02893	0.45817	0.47117	0.045
Mof_H 	H 	0.17423	0.56467	0.44247	0.081
Mof_O 	O 	0.29866	0.11085	0.7471	-0.394
Mof_O 	O 	0.27979	0.1017	0.6185	-0.404
Mof_C 	C 	0.2772	0.08895	0.6862	0.336
Mof_C 	C 	0.24419	0.0419	0.706	-0.112
Mof_C 	C 	0.2198	0.01407	0.6493	0.061
Mof_H 	H 	0.223	0.0246	0.598	0.027
Mof_C 	C 	0.19032	0.97067	0.6641	-0.148
Mof_H 	H 	0.1723	0.9524	0.6239	0.093
Mof_C 	C 	0.18744	0.95484	0.7346	0.109
Mof_C 	C 	0.21118	0.98225	0.795	-0.139
Mof_H 	H 	0.2077	0.9716	0.8463	0.078
Mof_C 	C 	0.24076	0.02658	0.778	0.054
Mof_H 	H 	0.2582	0.0455	0.818	0.03
Mof_C 	C 	0.16006	0.90777	0.7539	-0.065
Mof_C 	C 	0.17858	0.8875	0.7919	-0.042
Mof_H 	H 	0.2085	0.9041	0.8045	0.045
Mof_H 	H 	0.102	0.9429	0.7758	0.081
Mof_O 	O 	0.96533	0.44418	0.08043	-0.393
Mof_O 	O 	0.94646	0.43503	0.95183	-0.404
Mof_C 	C 	0.94387	0.42228	0.01953	0.336
Mof_C 	C 	0.91086	0.37523	0.03933	-0.113
Mof_C 	C 	0.88647	0.3474	0.98263	0.061
Mof_H 	H 	0.88967	0.35793	0.93133	0.027
Mof_C 	C 	0.85699	0.304	0.99743	-0.148
Mof_H 	H 	0.83897	0.28573	0.95723	0.093
Mof_C 	C 	0.85411	0.28817	0.06793	0.11
Mof_C 	C 	0.87785	0.31558	0.12833	-0.14
Mof_H 	H 	0.87437	0.30493	0.17963	0.079
Mof_C 	C 	0.90743	0.35991	0.11133	0.054
Mof_H 	H 	0.92487	0.37883	0.15133	0.03
Mof_C 	C 	0.82673	0.2411	0.08723	-0.066
Mof_C 	C 	0.84525	0.22083	0.12523	-0.042
Mof_H 	H 	0.87517	0.23743	0.13783	0.045
Mof_H 	H 	0.76867	0.27623	0.10913	0.081
Mof_O 	O 	0.63199	0.77752	0.41377	-0.394
Mof_O 	O 	0.61312	0.76837	0.28517	-0.404
Mof_C 	C 	0.61053	0.75562	0.35287	0.336
Mof_C 	C 	0.57752	0.70857	0.37267	-0.113
Mof_C 	C 	0.55313	0.68074	0.31597	0.062
Mof_H 	H 	0.55633	0.69127	0.26467	0.027
Mof_C 	C 	0.52365	0.63734	0.33077	-0.148
Mof_H 	H 	0.50563	0.61907	0.29057	0.093
Mof_C 	C 	0.52077	0.62151	0.40127	0.11
Mof_C 	C 	0.54451	0.64892	0.46167	-0.14
Mof_H 	H 	0.54103	0.63827	0.51297	0.079
Mof_C 	C 	0.57409	0.69325	0.44467	0.054
Mof_H 	H 	0.59153	0.71217	0.48467	0.03
Mof_C 	C 	0.49339	0.57444	0.42057	-0.066
Mof_C 	C 	0.51191	0.55417	0.45857	-0.042
Mof_H 	H 	0.54183	0.57077	0.47117	0.045
Mof_H 	H 	0.43533	0.60957	0.44247	0.081
Mof_O 	O 	0.18781	0.88915	0.2529	-0.394
Mof_O 	O 	0.17809	0.8983	0.3815	-0.404
Mof_C 	C 	0.18825	0.91105	0.3138	0.336
Mof_C 	C 	0.20229	0.9581	0.294	-0.112
Mof_C 	C 	0.20573	0.98593	0.3507	0.061
Mof_H 	H 	0.1984	0.9754	0.402	0.027
Mof_C 	C 	0.21965	0.02933	0.3359	-0.148
Mof_H 	H 	0.2199	0.0476	0.3761	0.093
Mof_C 	C 	0.2326	0.04516	0.2654	0.109
Mof_C 	C 	0.22893	0.01775	0.205	-0.139
Mof_H 	H 	0.2361	0.0284	0.1537	0.078
Mof_C 	C 	0.21418	0.97342	0.222	0.054
Mof_H 	H 	0.2127	0.9545	0.182	0.03
Mof_C 	C 	0.25229	0.09223	0.2461	-0.065
Mof_C 	C 	0.29108	0.1125	0.2081	-0.042
Mof_H 	H 	0.3044	0.0959	0.1955	0.045
Mof_H 	H 	0.1591	0.0571	0.2242	0.081
Mof_O 	O 	0.85448	0.22248	0.58623	-0.394
Mof_O 	O 	0.84476	0.23163	0.71483	-0.404
Mof_C 	C 	0.85492	0.24438	0.64713	0.336
Mof_C 	C 	0.86896	0.29143	0.62733	-0.113
Mof_C 	C 	0.8724	0.31926	0.68403	0.062
Mof_H 	H 	0.86507	0.30873	0.73533	0.027
Mof_C 	C 	0.88632	0.36266	0.66923	-0.148
Mof_H 	H 	0.88657	0.38093	0.70943	0.093
Mof_C 	C 	0.89927	0.37849	0.59873	0.11
Mof_C 	C 	0.8956	0.35108	0.53833	-0.14
Mof_H 	H 	0.90277	0.36173	0.48703	0.079
Mof_C 	C 	0.88085	0.30675	0.55533	0.054
Mof_H 	H 	0.87937	0.28783	0.51533	0.03
Mof_C 	C 	0.91896	0.42556	0.57943	-0.066
Mof_C 	C 	0.95775	0.44583	0.54143	-0.042
Mof_H 	H 	0.97107	0.42923	0.52883	0.045
Mof_H 	H 	0.82577	0.39043	0.55753	0.081
Mof_O 	O 	0.52114	0.55582	0.91957	-0.394
Mof_O 	O 	0.51142	0.56497	0.04817	-0.404
Mof_C 	C 	0.52158	0.57772	0.98047	0.336
Mof_C 	C 	0.53562	0.62477	0.96067	-0.113
Mof_C 	C 	0.53906	0.6526	0.01737	0.062
Mof_H 	H 	0.53173	0.64207	0.06867	0.027
Mof_C 	C 	0.55298	0.696	0.00257	-0.148
Mof_H 	H 	0.55323	0.71427	0.04277	0.093
Mof_C 	C 	0.56593	0.71183	0.93207	0.11
Mof_C 	C 	0.56226	0.68442	0.87167	-0.14
Mof_H 	H 	0.56943	0.69507	0.82037	0.079
Mof_C 	C 	0.54751	0.64009	0.88867	0.054
Mof_H 	H 	0.54603	0.62117	0.84867	0.029
Mof_C 	C 	0.58562	0.7589	0.91277	-0.066
Mof_C 	C 	0.62441	0.77917	0.87477	-0.042
Mof_H 	H 	0.63773	0.76257	0.86217	0.045
Mof_H 	H 	0.49243	0.72377	0.89087	0.081
Mof_O 	O 	0.70134	0.81219	0.2529	-0.394
Mof_O 	O 	0.72021	0.82191	0.3815	-0.404
Mof_C 	C 	0.7228	0.81175	0.3138	0.336
Mof_C 	C 	0.75581	0.79771	0.294	-0.113
Mof_C 	C 	0.7802	0.79427	0.3507	0.062
Mof_H 	H 	0.777	0.8016	0.402	0.027
Mof_C 	C 	0.80968	0.78035	0.3359	-0.148
Mof_H 	H 	0.8277	0.7801	0.3761	0.093
Mof_C 	C 	0.81256	0.7674	0.2654	0.11
Mof_C 	C 	0.78882	0.77107	0.205	-0.14
Mof_H 	H 	0.7923	0.7639	0.1537	0.079
Mof_C 	C 	0.75924	0.78582	0.222	0.054
Mof_H 	H 	0.7418	0.7873	0.182	0.029
Mof_C 	C 	0.83994	0.74771	0.2461	-0.066
Mof_C 	C 	0.82142	0.70892	0.2081	-0.042
Mof_H 	H 	0.7915	0.6956	0.1955	0.045
Mof_H 	H 	0.898	0.8409	0.2242	0.081
Mof_O 	O 	0.36801	0.14552	0.58623	-0.394
Mof_O 	O 	0.38688	0.15524	0.71483	-0.404
Mof_C 	C 	0.38947	0.14508	0.64713	0.336
Mof_C 	C 	0.42248	0.13104	0.62733	-0.113
Mof_C 	C 	0.44687	0.1276	0.68403	0.062
Mof_H 	H 	0.44367	0.13493	0.73533	0.027
Mof_C 	C 	0.47635	0.11368	0.66923	-0.148
Mof_H 	H 	0.49437	0.11343	0.70943	0.093
Mof_C 	C 	0.47923	0.10073	0.59873	0.11
Mof_C 	C 	0.45549	0.1044	0.53833	-0.14
Mof_H 	H 	0.45897	0.09723	0.48703	0.079
Mof_C 	C 	0.42591	0.11915	0.55533	0.054
Mof_H 	H 	0.40847	0.12063	0.51533	0.03
Mof_C 	C 	0.50661	0.08104	0.57943	-0.066
Mof_C 	C 	0.48809	0.04225	0.54143	-0.042
Mof_H 	H 	0.45817	0.02893	0.52883	0.045
Mof_H 	H 	0.56467	0.17423	0.55753	0.081
Mof_O 	O 	0.03467	0.47886	0.91957	-0.394
Mof_O 	O 	0.05354	0.48858	0.04817	-0.404
Mof_C 	C 	0.05613	0.47842	0.98047	0.336
Mof_C 	C 	0.08914	0.46438	0.96067	-0.113
Mof_C 	C 	0.11353	0.46094	0.01737	0.061
Mof_H 	H 	0.11033	0.46827	0.06867	0.027
Mof_C 	C 	0.14301	0.44702	0.00257	-0.148
Mof_H 	H 	0.16103	0.44677	0.04277	0.093
Mof_C 	C 	0.14589	0.43407	0.93207	0.11
Mof_C 	C 	0.12215	0.43774	0.87167	-0.14
Mof_H 	H 	0.12563	0.43057	0.82037	0.079
Mof_C 	C 	0.09257	0.45249	0.88867	0.054
Mof_H 	H 	0.07513	0.45397	0.84867	0.03
Mof_C 	C 	0.17327	0.41438	0.91277	-0.066
Mof_C 	C 	0.15475	0.37559	0.87477	-0.042
Mof_H 	H 	0.12483	0.36227	0.86217	0.045
Mof_H 	H 	0.23133	0.50757	0.89087	0.081
Mof_O 	O 	0.11085	0.29866	0.2529	-0.394
Mof_O 	O 	0.1017	0.27979	0.3815	-0.404
Mof_C 	C 	0.08895	0.2772	0.3138	0.336
Mof_C 	C 	0.0419	0.24419	0.294	-0.112
Mof_C 	C 	0.01407	0.2198	0.3507	0.061
Mof_H 	H 	0.0246	0.223	0.402	0.027
Mof_C 	C 	0.97067	0.19032	0.3359	-0.148
Mof_H 	H 	0.9524	0.1723	0.3761	0.093
Mof_C 	C 	0.95484	0.18744	0.2654	0.109
Mof_C 	C 	0.98225	0.21118	0.205	-0.139
Mof_H 	H 	0.9716	0.2077	0.1537	0.078
Mof_C 	C 	0.02658	0.24076	0.222	0.054
Mof_H 	H 	0.0455	0.2582	0.182	0.03
Mof_C 	C 	0.90777	0.16006	0.2461	-0.065
Mof_C 	C 	0.8875	0.17858	0.2081	-0.042
Mof_H 	H 	0.9041	0.2085	0.1955	0.045
Mof_H 	H 	0.9429	0.102	0.2242	0.081
Mof_O 	O 	0.77752	0.63199	0.58623	-0.394
Mof_O 	O 	0.76837	0.61312	0.71483	-0.404
Mof_C 	C 	0.75562	0.61053	0.64713	0.336
Mof_C 	C 	0.70857	0.57752	0.62733	-0.113
Mof_C 	C 	0.68074	0.55313	0.68403	0.062
Mof_H 	H 	0.69127	0.55633	0.73533	0.027
Mof_C 	C 	0.63734	0.52365	0.66923	-0.148
Mof_H 	H 	0.61907	0.50563	0.70943	0.093
Mof_C 	C 	0.62151	0.52077	0.59873	0.11
Mof_C 	C 	0.64892	0.54451	0.53833	-0.14
Mof_H 	H 	0.63827	0.54103	0.48703	0.079
Mof_C 	C 	0.69325	0.57409	0.55533	0.054
Mof_H 	H 	0.71217	0.59153	0.51533	0.03
Mof_C 	C 	0.57444	0.49339	0.57943	-0.066
Mof_C 	C 	0.55417	0.51191	0.54143	-0.042
Mof_H 	H 	0.57077	0.54183	0.52883	0.045
Mof_H 	H 	0.60957	0.43533	0.55753	0.081
Mof_O 	O 	0.44418	0.96533	0.91957	-0.393
Mof_O 	O 	0.43503	0.94646	0.04817	-0.404
Mof_C 	C 	0.42228	0.94387	0.98047	0.336
Mof_C 	C 	0.37523	0.91086	0.96067	-0.113
Mof_C 	C 	0.3474	0.88647	0.01737	0.061
Mof_H 	H 	0.35793	0.88967	0.06867	0.027
Mof_C 	C 	0.304	0.85699	0.00257	-0.148
Mof_H 	H 	0.28573	0.83897	0.04277	0.093
Mof_C 	C 	0.28817	0.85411	0.93207	0.11
Mof_C 	C 	0.31558	0.87785	0.87167	-0.14
Mof_H 	H 	0.30493	0.87437	0.82037	0.079
Mof_C 	C 	0.35991	0.90743	0.88867	0.054
Mof_H 	H 	0.37883	0.92487	0.84867	0.03
Mof_C 	C 	0.2411	0.82673	0.91277	-0.066
Mof_C 	C 	0.22083	0.84525	0.87477	-0.042
Mof_H 	H 	0.23743	0.87517	0.86217	0.045
Mof_H 	H 	0.27623	0.76867	0.89087	0.081
Mof_O 	O 	0.11085	0.81219	0.2529	-0.394
Mof_O 	O 	0.1017	0.82191	0.3815	-0.404
Mof_C 	C 	0.08895	0.81175	0.3138	0.336
Mof_C 	C 	0.0419	0.79771	0.294	-0.112
Mof_C 	C 	0.01407	0.79427	0.3507	0.061
Mof_H 	H 	0.0246	0.8016	0.402	0.027
Mof_C 	C 	0.97067	0.78035	0.3359	-0.148
Mof_H 	H 	0.9524	0.7801	0.3761	0.093
Mof_C 	C 	0.95484	0.7674	0.2654	0.109
Mof_C 	C 	0.98225	0.77107	0.205	-0.139
Mof_H 	H 	0.9716	0.7639	0.1537	0.078
Mof_C 	C 	0.02658	0.78582	0.222	0.054
Mof_H 	H 	0.0455	0.7873	0.182	0.03
Mof_C 	C 	0.90777	0.74771	0.2461	-0.065
Mof_C 	C 	0.8875	0.70892	0.2081	-0.042
Mof_H 	H 	0.9041	0.6956	0.1955	0.045
Mof_H 	H 	0.9429	0.8409	0.2242	0.081
Mof_O 	O 	0.77752	0.14552	0.58623	-0.394
Mof_O 	O 	0.76837	0.15524	0.71483	-0.404
Mof_C 	C 	0.75562	0.14508	0.64713	0.336
Mof_C 	C 	0.70857	0.13104	0.62733	-0.113
Mof_C 	C 	0.68074	0.1276	0.68403	0.062
Mof_H 	H 	0.69127	0.13493	0.73533	0.027
Mof_C 	C 	0.63734	0.11368	0.66923	-0.148
Mof_H 	H 	0.61907	0.11343	0.70943	0.093
Mof_C 	C 	0.62151	0.10073	0.59873	0.11
Mof_C 	C 	0.64892	0.1044	0.53833	-0.14
Mof_H 	H 	0.63827	0.09723	0.48703	0.079
Mof_C 	C 	0.69325	0.11915	0.55533	0.054
Mof_H 	H 	0.71217	0.12063	0.51533	0.03
Mof_C 	C 	0.57444	0.08104	0.57943	-0.066
Mof_C 	C 	0.55417	0.04225	0.54143	-0.042
Mof_H 	H 	0.57077	0.02893	0.52883	0.045
Mof_H 	H 	0.60957	0.17423	0.55753	0.081
Mof_O 	O 	0.44418	0.47886	0.91957	-0.394
Mof_O 	O 	0.43503	0.48858	0.04817	-0.404
Mof_C 	C 	0.42228	0.47842	0.98047	0.336
Mof_C 	C 	0.37523	0.46438	0.96067	-0.113
Mof_C 	C 	0.3474	0.46094	0.01737	0.062
Mof_H 	H 	0.35793	0.46827	0.06867	0.027
Mof_C 	C 	0.304	0.44702	0.00257	-0.148
Mof_H 	H 	0.28573	0.44677	0.04277	0.093
Mof_C 	C 	0.28817	0.43407	0.93207	0.11
Mof_C 	C 	0.31558	0.43774	0.87167	-0.14
Mof_H 	H 	0.30493	0.43057	0.82037	0.079
Mof_C 	C 	0.35991	0.45249	0.88867	0.054
Mof_H 	H 	0.37883	0.45397	0.84867	0.029
Mof_C 	C 	0.2411	0.41438	0.91277	-0.066
Mof_C 	C 	0.22083	0.37559	0.87477	-0.042
Mof_H 	H 	0.23743	0.36227	0.86217	0.045
Mof_H 	H 	0.27623	0.50757	0.89087	0.081
Mof_O 	O 	0.18781	0.29866	0.2529	-0.394
Mof_O 	O 	0.17809	0.27979	0.3815	-0.404
Mof_C 	C 	0.18825	0.2772	0.3138	0.336
Mof_C 	C 	0.20229	0.24419	0.294	-0.113
Mof_C 	C 	0.20573	0.2198	0.3507	0.062
Mof_H 	H 	0.1984	0.223	0.402	0.027
Mof_C 	C 	0.21965	0.19032	0.3359	-0.148
Mof_H 	H 	0.2199	0.1723	0.3761	0.093
Mof_C 	C 	0.2326	0.18744	0.2654	0.11
Mof_C 	C 	0.22893	0.21118	0.205	-0.14
Mof_H 	H 	0.2361	0.2077	0.1537	0.079
Mof_C 	C 	0.21418	0.24076	0.222	0.054
Mof_H 	H 	0.2127	0.2582	0.182	0.029
Mof_C 	C 	0.25229	0.16006	0.2461	-0.066
Mof_C 	C 	0.29108	0.17858	0.2081	-0.042
Mof_H 	H 	0.3044	0.2085	0.1955	0.045
Mof_H 	H 	0.1591	0.102	0.2242	0.081
Mof_O 	O 	0.85448	0.63199	0.58623	-0.394
Mof_O 	O 	0.84476	0.61312	0.71483	-0.404
Mof_C 	C 	0.85492	0.61053	0.64713	0.336
Mof_C 	C 	0.86896	0.57752	0.62733	-0.113
Mof_C 	C 	0.8724	0.55313	0.68403	0.062
Mof_H 	H 	0.86507	0.55633	0.73533	0.027
Mof_C 	C 	0.88632	0.52365	0.66923	-0.148
Mof_H 	H 	0.88657	0.50563	0.70943	0.093
Mof_C 	C 	0.89927	0.52077	0.59873	0.11
Mof_C 	C 	0.8956	0.54451	0.53833	-0.14
Mof_H 	H 	0.90277	0.54103	0.48703	0.079
Mof_C 	C 	0.88085	0.57409	0.55533	0.054
Mof_H 	H 	0.87937	0.59153	0.51533	0.03
Mof_C 	C 	0.91896	0.49339	0.57943	-0.066
Mof_C 	C 	0.95775	0.51191	0.54143	-0.042
Mof_H 	H 	0.97107	0.54183	0.52883	0.045
Mof_H 	H 	0.82577	0.43533	0.55753	0.081
Mof_O 	O 	0.52114	0.96533	0.91957	-0.394
Mof_O 	O 	0.51142	0.94646	0.04817	-0.404
Mof_C 	C 	0.52158	0.94387	0.98047	0.336
Mof_C 	C 	0.53562	0.91086	0.96067	-0.113
Mof_C 	C 	0.53906	0.88647	0.01737	0.061
Mof_H 	H 	0.53173	0.88967	0.06867	0.027
Mof_C 	C 	0.55298	0.85699	0.00257	-0.148
Mof_H 	H 	0.55323	0.83897	0.04277	0.093
Mof_C 	C 	0.56593	0.85411	0.93207	0.11
Mof_C 	C 	0.56226	0.87785	0.87167	-0.14
Mof_H 	H 	0.56943	0.87437	0.82037	0.079
Mof_C 	C 	0.54751	0.90743	0.88867	0.054
Mof_H 	H 	0.54603	0.92487	0.84867	0.03
Mof_C 	C 	0.58562	0.82673	0.91277	-0.066
Mof_C 	C 	0.62441	0.84525	0.87477	-0.042
Mof_H 	H 	0.63773	0.87517	0.86217	0.045
Mof_H 	H 	0.49243	0.76867	0.89087	0.081
Mof_O 	O 	0.70134	0.88915	0.2529	-0.394
Mof_O 	O 	0.72021	0.8983	0.3815	-0.404
Mof_C 	C 	0.7228	0.91105	0.3138	0.336
Mof_C 	C 	0.75581	0.9581	0.294	-0.112
Mof_C 	C 	0.7802	0.98593	0.3507	0.061
Mof_H 	H 	0.777	0.9754	0.402	0.027
Mof_C 	C 	0.80968	0.02933	0.3359	-0.148
Mof_H 	H 	0.8277	0.0476	0.3761	0.093
Mof_C 	C 	0.81256	0.04516	0.2654	0.109
Mof_C 	C 	0.78882	0.01775	0.205	-0.139
Mof_H 	H 	0.7923	0.0284	0.1537	0.078
Mof_C 	C 	0.75924	0.97342	0.222	0.054
Mof_H 	H 	0.7418	0.9545	0.182	0.03
Mof_C 	C 	0.83994	0.09223	0.2461	-0.065
Mof_C 	C 	0.82142	0.1125	0.2081	-0.042
Mof_H 	H 	0.7915	0.0959	0.1955	0.045
Mof_H 	H 	0.898	0.0571	0.2242	0.081
Mof_O 	O 	0.36801	0.22248	0.58623	-0.394
Mof_O 	O 	0.38688	0.23163	0.71483	-0.404
Mof_C 	C 	0.38947	0.24438	0.64713	0.336
Mof_C 	C 	0.42248	0.29143	0.62733	-0.113
Mof_C 	C 	0.44687	0.31926	0.68403	0.062
Mof_H 	H 	0.44367	0.30873	0.73533	0.027
Mof_C 	C 	0.47635	0.36266	0.66923	-0.148
Mof_H 	H 	0.49437	0.38093	0.70943	0.093
Mof_C 	C 	0.47923	0.37849	0.59873	0.11
Mof_C 	C 	0.45549	0.35108	0.53833	-0.14
Mof_H 	H 	0.45897	0.36173	0.48703	0.079
Mof_C 	C 	0.42591	0.30675	0.55533	0.054
Mof_H 	H 	0.40847	0.28783	0.51533	0.03
Mof_C 	C 	0.50661	0.42556	0.57943	-0.066
Mof_C 	C 	0.48809	0.44583	0.54143	-0.042
Mof_H 	H 	0.45817	0.42923	0.52883	0.045
Mof_H 	H 	0.56467	0.39043	0.55753	0.081
Mof_O 	O 	0.03467	0.55582	0.91957	-0.393
Mof_O 	O 	0.05354	0.56497	0.04817	-0.404
Mof_C 	C 	0.05613	0.57772	0.98047	0.336
Mof_C 	C 	0.08914	0.62477	0.96067	-0.113
Mof_C 	C 	0.11353	0.6526	0.01737	0.061
Mof_H 	H 	0.11033	0.64207	0.06867	0.027
Mof_C 	C 	0.14301	0.696	0.00257	-0.148
Mof_H 	H 	0.16103	0.71427	0.04277	0.093
Mof_C 	C 	0.14589	0.71183	0.93207	0.11
Mof_C 	C 	0.12215	0.68442	0.87167	-0.14
Mof_H 	H 	0.12563	0.69507	0.82037	0.079
Mof_C 	C 	0.09257	0.64009	0.88867	0.054
Mof_H 	H 	0.07513	0.62117	0.84867	0.03
Mof_C 	C 	0.17327	0.7589	0.91277	-0.066
Mof_C 	C 	0.15475	0.77917	0.87477	-0.042
Mof_H 	H 	0.12483	0.76257	0.86217	0.045
Mof_H 	H 	0.23133	0.72377	0.89087	0.081
Mof_O 	O 	0.81219	0.11085	0.7471	-0.394
Mof_O 	O 	0.82191	0.1017	0.6185	-0.404
Mof_C 	C 	0.81175	0.08895	0.6862	0.336
Mof_C 	C 	0.79771	0.0419	0.706	-0.112
Mof_C 	C 	0.79427	0.01407	0.6493	0.061
Mof_H 	H 	0.8016	0.0246	0.598	0.027
Mof_C 	C 	0.78035	0.97067	0.6641	-0.148
Mof_H 	H 	0.7801	0.9524	0.6239	0.093
Mof_C 	C 	0.7674	0.95484	0.7346	0.109
Mof_C 	C 	0.77107	0.98225	0.795	-0.139
Mof_H 	H 	0.7639	0.9716	0.8463	0.078
Mof_C 	C 	0.78582	0.02658	0.778	0.054
Mof_H 	H 	0.7873	0.0455	0.818	0.03
Mof_C 	C 	0.74771	0.90777	0.7539	-0.065
Mof_C 	C 	0.70892	0.8875	0.7919	-0.042
Mof_H 	H 	0.6956	0.9041	0.8045	0.045
Mof_H 	H 	0.8409	0.9429	0.7758	0.081
Mof_O 	O 	0.47886	0.44418	0.08043	-0.394
Mof_O 	O 	0.48858	0.43503	0.95183	-0.404
Mof_C 	C 	0.47842	0.42228	0.01953	0.336
Mof_C 	C 	0.46438	0.37523	0.03933	-0.113
Mof_C 	C 	0.46094	0.3474	0.98263	0.062
Mof_H 	H 	0.46827	0.35793	0.93133	0.027
Mof_C 	C 	0.44702	0.304	0.99743	-0.148
Mof_H 	H 	0.44677	0.28573	0.95723	0.093
Mof_C 	C 	0.43407	0.28817	0.06793	0.11
Mof_C 	C 	0.43774	0.31558	0.12833	-0.14
Mof_H 	H 	0.43057	0.30493	0.17963	0.079
Mof_C 	C 	0.45249	0.35991	0.11133	0.054
Mof_H 	H 	0.45397	0.37883	0.15133	0.029
Mof_C 	C 	0.41438	0.2411	0.08723	-0.066
Mof_C 	C 	0.37559	0.22083	0.12523	-0.042
Mof_H 	H 	0.36227	0.23743	0.13783	0.045
Mof_H 	H 	0.50757	0.27623	0.10913	0.081
Mof_O 	O 	0.14552	0.77752	0.41377	-0.394
Mof_O 	O 	0.15524	0.76837	0.28517	-0.404
Mof_C 	C 	0.14508	0.75562	0.35287	0.336
Mof_C 	C 	0.13104	0.70857	0.37267	-0.113
Mof_C 	C 	0.1276	0.68074	0.31597	0.062
Mof_H 	H 	0.13493	0.69127	0.26467	0.027
Mof_C 	C 	0.11368	0.63734	0.33077	-0.148
Mof_H 	H 	0.11343	0.61907	0.29057	0.093
Mof_C 	C 	0.10073	0.62151	0.40127	0.11
Mof_C 	C 	0.1044	0.64892	0.46167	-0.14
Mof_H 	H 	0.09723	0.63827	0.51297	0.079
Mof_C 	C 	0.11915	0.69325	0.44467	0.054
Mof_H 	H 	0.12063	0.71217	0.48467	0.03
Mof_C 	C 	0.08104	0.57444	0.42057	-0.066
Mof_C 	C 	0.04225	0.55417	0.45857	-0.042
Mof_H 	H 	0.02893	0.57077	0.47117	0.045
Mof_H 	H 	0.17423	0.60957	0.44247	0.081
Mof_O 	O 	0.29866	0.18781	0.7471	-0.394
Mof_O 	O 	0.27979	0.17809	0.6185	-0.404
Mof_C 	C 	0.2772	0.18825	0.6862	0.336
Mof_C 	C 	0.24419	0.20229	0.706	-0.113
Mof_C 	C 	0.2198	0.20573	0.6493	0.062
Mof_H 	H 	0.223	0.1984	0.598	0.027
Mof_C 	C 	0.19032	0.21965	0.6641	-0.148
Mof_H 	H 	0.1723	0.2199	0.6239	0.093
Mof_C 	C 	0.18744	0.2326	0.7346	0.11
Mof_C 	C 	0.21118	0.22893	0.795	-0.14
Mof_H 	H 	0.2077	0.2361	0.8463	0.079
Mof_C 	C 	0.24076	0.21418	0.778	0.054
Mof_H 	H 	0.2582	0.2127	0.818	0.029
Mof_C 	C 	0.16006	0.25229	0.7539	-0.066
Mof_C 	C 	0.17858	0.29108	0.7919	-0.042
Mof_H 	H 	0.2085	0.3044	0.8045	0.045
Mof_H 	H 	0.102	0.1591	0.7758	0.081
Mof_O 	O 	0.96533	0.52114	0.08043	-0.394
Mof_O 	O 	0.94646	0.51142	0.95183	-0.404
Mof_C 	C 	0.94387	0.52158	0.01953	0.336
Mof_C 	C 	0.91086	0.53562	0.03933	-0.113
Mof_C 	C 	0.88647	0.53906	0.98263	0.061
Mof_H 	H 	0.88967	0.53173	0.93133	0.027
Mof_C 	C 	0.85699	0.55298	0.99743	-0.148
Mof_H 	H 	0.83897	0.55323	0.95723	0.093
Mof_C 	C 	0.85411	0.56593	0.06793	0.11
Mof_C 	C 	0.87785	0.56226	0.12833	-0.14
Mof_H 	H 	0.87437	0.56943	0.17963	0.079
Mof_C 	C 	0.90743	0.54751	0.11133	0.054
Mof_H 	H 	0.92487	0.54603	0.15133	0.03
Mof_C 	C 	0.82673	0.58562	0.08723	-0.066
Mof_C 	C 	0.84525	0.62441	0.12523	-0.042
Mof_H 	H 	0.87517	0.63773	0.13783	0.045
Mof_H 	H 	0.76867	0.49243	0.10913	0.081
Mof_O 	O 	0.63199	0.85448	0.41377	-0.394
Mof_O 	O 	0.61312	0.84476	0.28517	-0.404
Mof_C 	C 	0.61053	0.85492	0.35287	0.336
Mof_C 	C 	0.57752	0.86896	0.37267	-0.113
Mof_C 	C 	0.55313	0.8724	0.31597	0.062
Mof_H 	H 	0.55633	0.86507	0.26467	0.027
Mof_C 	C 	0.52365	0.88632	0.33077	-0.148
Mof_H 	H 	0.50563	0.88657	0.29057	0.093
Mof_C 	C 	0.52077	0.89927	0.40127	0.11
Mof_C 	C 	0.54451	0.8956	0.46167	-0.14
Mof_H 	H 	0.54103	0.90277	0.51297	0.079
Mof_C 	C 	0.57409	0.88085	0.44467	0.054
Mof_H 	H 	0.59153	0.87937	0.48467	0.03
Mof_C 	C 	0.49339	0.91896	0.42057	-0.066
Mof_C 	C 	0.51191	0.95775	0.45857	-0.042
Mof_H 	H 	0.54183	0.97107	0.47117	0.045
Mof_H 	H 	0.43533	0.82577	0.44247	0.081
Mof_O 	O 	0.88915	0.70134	0.7471	-0.394
Mof_O 	O 	0.8983	0.72021	0.6185	-0.404
Mof_C 	C 	0.91105	0.7228	0.6862	0.336
Mof_C 	C 	0.9581	0.75581	0.706	-0.112
Mof_C 	C 	0.98593	0.7802	0.6493	0.061
Mof_H 	H 	0.9754	0.777	0.598	0.027
Mof_C 	C 	0.02933	0.80968	0.6641	-0.148
Mof_H 	H 	0.0476	0.8277	0.6239	0.093
Mof_C 	C 	0.04516	0.81256	0.7346	0.109
Mof_C 	C 	0.01775	0.78882	0.795	-0.139
Mof_H 	H 	0.0284	0.7923	0.8463	0.078
Mof_C 	C 	0.97342	0.75924	0.778	0.054
Mof_H 	H 	0.9545	0.7418	0.818	0.03
Mof_C 	C 	0.09223	0.83994	0.7539	-0.065
Mof_C 	C 	0.1125	0.82142	0.7919	-0.042
Mof_H 	H 	0.0959	0.7915	0.8045	0.045
Mof_H 	H 	0.0571	0.898	0.7758	0.081
Mof_O 	O 	0.55582	0.03467	0.08043	-0.393
Mof_O 	O 	0.56497	0.05354	0.95183	-0.404
Mof_C 	C 	0.57772	0.05613	0.01953	0.336
Mof_C 	C 	0.62477	0.08914	0.03933	-0.113
Mof_C 	C 	0.6526	0.11353	0.98263	0.061
Mof_H 	H 	0.64207	0.11033	0.93133	0.027
Mof_C 	C 	0.696	0.14301	0.99743	-0.148
Mof_H 	H 	0.71427	0.16103	0.95723	0.093
Mof_C 	C 	0.71183	0.14589	0.06793	0.11
Mof_C 	C 	0.68442	0.12215	0.12833	-0.14
Mof_H 	H 	0.69507	0.12563	0.17963	0.079
Mof_C 	C 	0.64009	0.09257	0.11133	0.054
Mof_H 	H 	0.62117	0.07513	0.15133	0.03
Mof_C 	C 	0.7589	0.17327	0.08723	-0.066
Mof_C 	C 	0.77917	0.15475	0.12523	-0.042
Mof_H 	H 	0.76257	0.12483	0.13783	0.045
Mof_H 	H 	0.72377	0.23133	0.10913	0.081
Mof_O 	O 	0.22248	0.36801	0.41377	-0.394
Mof_O 	O 	0.23163	0.38688	0.28517	-0.404
Mof_C 	C 	0.24438	0.38947	0.35287	0.336
Mof_C 	C 	0.29143	0.42248	0.37267	-0.113
Mof_C 	C 	0.31926	0.44687	0.31597	0.062
Mof_H 	H 	0.30873	0.44367	0.26467	0.027
Mof_C 	C 	0.36266	0.47635	0.33077	-0.148
Mof_H 	H 	0.38093	0.49437	0.29057	0.093
Mof_C 	C 	0.37849	0.47923	0.40127	0.11
Mof_C 	C 	0.35108	0.45549	0.46167	-0.14
Mof_H 	H 	0.36173	0.45897	0.51297	0.079
Mof_C 	C 	0.30675	0.42591	0.44467	0.054
Mof_H 	H 	0.28783	0.40847	0.48467	0.03
Mof_C 	C 	0.42556	0.50661	0.42057	-0.066
Mof_C 	C 	0.44583	0.48809	0.45857	-0.042
Mof_H 	H 	0.42923	0.45817	0.47117	0.045
Mof_H 	H 	0.39043	0.56467	0.44247	0.081
Mof_Cu	Cu	0.83873	0.16127	0.59304	0.901
Mof_Cu	Cu	0.5054	0.4946	0.92637	0.901
Mof_Cu	Cu	0.17206	0.82794	0.25971	0.901
Mof_Cu	Cu	0.83873	0.67746	0.59304	0.901
Mof_Cu	Cu	0.5054	0.01079	0.92637	0.901
Mof_Cu	Cu	0.17206	0.34413	0.25971	0.901
Mof_Cu	Cu	0.32254	0.16127	0.59304	0.901
Mof_Cu	Cu	0.98921	0.4946	0.92637	0.901
Mof_Cu	Cu	0.65587	0.82794	0.25971	0.901
Mof_Cu	Cu	0.16127	0.83873	0.40696	0.901
Mof_Cu	Cu	0.82794	0.17206	0.74029	0.901
Mof_Cu	Cu	0.4946	0.5054	0.07363	0.901
Mof_Cu	Cu	0.67746	0.83873	0.40696	0.901
Mof_Cu	Cu	0.34413	0.17206	0.74029	0.901
Mof_Cu	Cu	0.01079	0.5054	0.07363	0.901
Mof_Cu	Cu	0.16127	0.32254	0.40696	0.901
Mof_Cu	Cu	0.82794	0.65587	0.74029	0.901
Mof_Cu	Cu	0.4946	0.98921	0.07363	0.901
Mof_O 	O 	0.09722	0.19444	0.6925	-0.18
Mof_C 	C 	0.15625	0.3125	0.8136	0.005
Mof_C 	C 	0.11649	0.23297	0.7324	0.121
Mof_C 	C 	0.0791	0.1582	0.7432	-0.154
Mof_H 	H 	0.0657	0.1314	0.713	0.084
Mof_O 	O 	0.76389	0.52777	0.02583	-0.18
Mof_C 	C 	0.82292	0.64583	0.14693	0.005
Mof_C 	C 	0.78315	0.5663	0.06573	0.121
Mof_C 	C 	0.74577	0.49153	0.07653	-0.154
Mof_H 	H 	0.73237	0.46473	0.04633	0.084
Mof_O 	O 	0.43055	0.86111	0.35917	-0.18
Mof_C 	C 	0.48958	0.97917	0.48027	0.005
Mof_C 	C 	0.44982	0.89964	0.39907	0.121
Mof_C 	C 	0.41243	0.82487	0.40987	-0.154
Mof_H 	H 	0.39903	0.79807	0.37967	0.084
Mof_O 	O 	0.80556	0.90278	0.6925	-0.18
Mof_C 	C 	0.6875	0.84375	0.8136	0.005
Mof_C 	C 	0.76703	0.88351	0.7324	0.121
Mof_C 	C 	0.8418	0.9209	0.7432	-0.154
Mof_H 	H 	0.8686	0.9343	0.713	0.084
Mof_O 	O 	0.47223	0.23611	0.02583	-0.18
Mof_C 	C 	0.35417	0.17708	0.14693	0.005
Mof_C 	C 	0.4337	0.21685	0.06573	0.121
Mof_C 	C 	0.50847	0.25423	0.07653	-0.154
Mof_H 	H 	0.53527	0.26763	0.04633	0.084
Mof_O 	O 	0.13889	0.56945	0.35917	-0.18
Mof_C 	C 	0.02083	0.51042	0.48027	0.005
Mof_C 	C 	0.10036	0.55018	0.39907	0.121
Mof_C 	C 	0.17513	0.58757	0.40987	-0.154
Mof_H 	H 	0.20193	0.60097	0.37967	0.084
Mof_O 	O 	0.09722	0.90278	0.6925	-0.18
Mof_C 	C 	0.15625	0.84375	0.8136	0.005
Mof_C 	C 	0.11649	0.88351	0.7324	0.121
Mof_C 	C 	0.0791	0.9209	0.7432	-0.154
Mof_H 	H 	0.0657	0.9343	0.713	0.085
Mof_O 	O 	0.76389	0.23611	0.02583	-0.18
Mof_C 	C 	0.82292	0.17708	0.14693	0.005
Mof_C 	C 	0.78315	0.21685	0.06573	0.121
Mof_C 	C 	0.74577	0.25423	0.07653	-0.154
Mof_H 	H 	0.73237	0.26763	0.04633	0.084
Mof_O 	O 	0.43055	0.56945	0.35917	-0.18
Mof_C 	C 	0.48958	0.51042	0.48027	0.005
Mof_C 	C 	0.44982	0.55018	0.39907	0.121
Mof_C 	C 	0.41243	0.58757	0.40987	-0.154
Mof_H 	H 	0.39903	0.60097	0.37967	0.084
Mof_O 	O 	0.19444	0.09722	0.3075	-0.18
Mof_C 	C 	0.3125	0.15625	0.1864	0.005
Mof_C 	C 	0.23297	0.11649	0.2676	0.121
Mof_C 	C 	0.1582	0.0791	0.2568	-0.154
Mof_H 	H 	0.1314	0.0657	0.287	0.084
Mof_O 	O 	0.86111	0.43055	0.64083	-0.18
Mof_C 	C 	0.97917	0.48958	0.51973	0.005
Mof_C 	C 	0.89964	0.44982	0.60093	0.121
Mof_C 	C 	0.82487	0.41243	0.59013	-0.154
Mof_H 	H 	0.79807	0.39903	0.62033	0.084
Mof_O 	O 	0.52777	0.76389	0.97417	-0.18
Mof_C 	C 	0.64583	0.82292	0.85307	0.005
Mof_C 	C 	0.5663	0.78315	0.93427	0.121
Mof_C 	C 	0.49153	0.74577	0.92347	-0.154
Mof_H 	H 	0.46473	0.73237	0.95367	0.084
Mof_O 	O 	0.90278	0.80556	0.3075	-0.18
Mof_C 	C 	0.84375	0.6875	0.1864	0.005
Mof_C 	C 	0.88351	0.76703	0.2676	0.121
Mof_C 	C 	0.9209	0.8418	0.2568	-0.154
Mof_H 	H 	0.9343	0.8686	0.287	0.084
Mof_O 	O 	0.56945	0.13889	0.64083	-0.18
Mof_C 	C 	0.51042	0.02083	0.51973	0.005
Mof_C 	C 	0.55018	0.10036	0.60093	0.121
Mof_C 	C 	0.58757	0.17513	0.59013	-0.154
Mof_H 	H 	0.60097	0.20193	0.62033	0.084
Mof_O 	O 	0.23611	0.47223	0.97417	-0.18
Mof_C 	C 	0.17708	0.35417	0.85307	0.005
Mof_C 	C 	0.21685	0.4337	0.93427	0.121
Mof_C 	C 	0.25423	0.50847	0.92347	-0.154
Mof_H 	H 	0.26763	0.53527	0.95367	0.084
Mof_O 	O 	0.90278	0.09722	0.3075	-0.18
Mof_C 	C 	0.84375	0.15625	0.1864	0.005
Mof_C 	C 	0.88351	0.11649	0.2676	0.121
Mof_C 	C 	0.9209	0.0791	0.2568	-0.154
Mof_H 	H 	0.9343	0.0657	0.287	0.085
Mof_O 	O 	0.56945	0.43055	0.64083	-0.18
Mof_C 	C 	0.51042	0.48958	0.51973	0.005
Mof_C 	C 	0.55018	0.44982	0.60093	0.121
Mof_C 	C 	0.58757	0.41243	0.59013	-0.154
Mof_H 	H 	0.60097	0.39903	0.62033	0.084
Mof_O 	O 	0.23611	0.76389	0.97417	-0.18
Mof_C 	C 	0.17708	0.82292	0.85307	0.005
Mof_C 	C 	0.21685	0.78315	0.93427	0.121
Mof_C 	C 	0.25423	0.74577	0.92347	-0.154
Mof_H 	H 	0.26763	0.73237	0.95367	0.084
_end
