data_functionalizedCrystal
_audit_creation_method	'EQeq! by Chris Wilmer'
_symmetry_space_group_name_H-M	'P1'
_symmetry_Int_Tables_number	1
_symmetry_cell_setting	triclinic
loop_
_symmetry_equiv_pos_as_xyz
  x,y,z
_cell_length_a	14.4945
_cell_length_b	22.9813
_cell_length_c	22.9813
_cell_angle_alpha	64.2973
_cell_angle_beta	77.8638
_cell_angle_gamma	102.136
loop_
_atom_site_label
_atom_site_type_symbol
_atom_site_fract_x
_atom_site_fract_y
_atom_site_fract_z
_atom_site_charge
Mof_Zn	Zn	0.5	0	0.5	1.205
Mof_Zn	Zn	-0	0.5	0.5	1.214
Mof_Zn	Zn	0.5	0.5	-0	1.205
Mof_Zn	Zn	0.6891	0	-0	1.117
Mof_Zn	Zn	0.3109	0	-0	1.11
Mof_Co	Co	0.91175	0.1176	0.61825	1.174
Mof_Co	Co	0.53	0.61825	0.26415	1.172
Mof_Co	Co	0.79415	0.26415	0.1176	1.17
Mof_Co	Co	0.08825	0.8824	0.38175	1.169
Mof_Co	Co	0.47	0.38175	0.73585	1.172
Mof_Co	Co	0.20585	0.73585	0.8824	1.173
Mof_H 	H 	0.2784	0.3257	0.4674	0.059
Mof_H 	H 	0.2287	0.2663	0.5865	0.083
Mof_H 	H 	0.1761	0.2972	0.4122	0.062
Mof_H 	H 	0.9728	0.0393	0.808	0.131
Mof_H 	H 	0.868	0.9871	0.9184	0.035
Mof_H 	H 	0.6756	0.0656	0.8652	-0.08
Mof_H 	H 	0.7688	0.1191	0.7507	0.119
Mof_H 	H 	0.8215	0.0091	0.5618	0.068
Mof_H 	H 	0.6724	0.9624	0.5556	0.053
Mof_H 	H 	0.6593	0.1439	0.4452	-0.014
Mof_H 	H 	0.8031	0.1958	0.4545	0.107
Mof_H 	H 	0.2036	0.6381	0.1133	0.061
Mof_H 	H 	0.0099	0.6112	0.907	0.077
Mof_H 	H 	0.8557	0.5929	0.8944	0.004
Mof_H 	H 	0.7711	0.6766	0.9991	0.05
Mof_H 	H 	0.9245	0.7021	0.012	0.06
Mof_H 	H 	0.5077	0.8559	0.6069	-0.008
Mof_H 	H 	0.454	0.7807	0.7237	0.12
Mof_H 	H 	0.3179	0.9037	0.754	0.136
Mof_H 	H 	0.3817	0.978	0.6384	0.001
Mof_H 	H 	0.4784	0.7337	0.968	0.053
Mof_H 	H 	0.3767	0.6708	0.083	0.089
Mof_H 	H 	0.479	0.104	0.525	0.358
Mof_H 	H 	0.387	0.063	0.535	0.368
Mof_H 	H 	0.7458	0.4674	0.2069	0.056
Mof_H 	H 	0.8152	0.5865	0.1472	0.082
Mof_H 	H 	0.5883	0.4122	0.2906	0.07
Mof_H 	H 	0.7808	0.808	0.1527	0.163
Mof_H 	H 	0.7864	0.9184	0.0945	-0.049
Mof_H 	H 	0.5408	0.8652	0.0692	-0.089
Mof_H 	H 	0.5195	0.7507	0.1302	0.126
Mof_H 	H 	0.3833	0.5618	0.4291	0.11
Mof_H 	H 	0.228	0.5556	0.482	-0.023
Mof_H 	H 	0.1045	0.4452	0.4109	-0.024
Mof_H 	H 	0.2576	0.4545	0.3497	0.114
Mof_H 	H 	0.3169	0.1133	0.2486	0.059
Mof_H 	H 	0.9169	0.907	0.4818	0.12
Mof_H 	H 	0.7501	0.8944	0.5127	-0.01
Mof_H 	H 	0.7702	0.9991	0.3243	0.048
Mof_H 	H 	0.9365	0.012	0.2859	0.062
Mof_H 	H 	0.1146	0.6069	0.5372	-0.011
Mof_H 	H 	0.1777	0.7237	0.4956	0.119
Mof_H 	H 	0.0719	0.754	0.3423	0.124
Mof_H 	H 	0.0201	0.6384	0.3836	-0.027
Mof_H 	H 	0.4464	0.968	0.2983	0.05
Mof_H 	H 	0.4597	0.083	0.2462	0.092
Mof_H 	H 	0.004	0.525	0.371	0.33
Mof_H 	H 	0.922	0.535	0.402	0.365
Mof_H 	H 	0.9527	0.2069	0.3257	0.057
Mof_H 	H 	0.9624	0.1472	0.2663	0.082
Mof_H 	H 	0.8789	0.2906	0.2972	0.072
Mof_H 	H 	0.9335	0.1527	0.0393	0.121
Mof_H 	H 	0.8809	0.0945	0.9871	0.032
Mof_H 	H 	0.61	0.0692	0.0656	-0.097
Mof_H 	H 	0.6497	0.1302	0.1191	0.114
Mof_H 	H 	0.8124	0.4291	0.0091	0.066
Mof_H 	H 	0.71	0.482	0.9624	0.056
Mof_H 	H 	0.5154	0.4109	0.1439	-0.014
Mof_H 	H 	0.6073	0.3497	0.1958	0.106
Mof_H 	H 	0.5655	0.2486	0.6381	0.095
Mof_H 	H 	0.3987	0.4818	0.6112	0.119
Mof_H 	H 	0.2628	0.5127	0.5929	-0.018
Mof_H 	H 	0.0945	0.3243	0.6766	0.002
Mof_H 	H 	0.2224	0.2859	0.7021	0.141
Mof_H 	H 	0.6518	0.5372	0.8559	-0.007
Mof_H 	H 	0.6733	0.4956	0.7807	0.121
Mof_H 	H 	0.4142	0.3423	0.9037	0.137
Mof_H 	H 	0.4037	0.3836	0.978	0.001
Mof_H 	H 	0.7447	0.2983	0.7337	0.092
Mof_H 	H 	0.7059	0.2462	0.6708	0.042
Mof_H 	H 	0.375	0.371	0.104	0.357
Mof_H 	H 	0.324	0.402	0.063	0.368
Mof_H 	H 	0.7216	0.6743	0.5326	0.054
Mof_H 	H 	0.7713	0.7337	0.4135	0.085
Mof_H 	H 	0.8239	0.7028	0.5878	0.078
Mof_H 	H 	0.0272	0.9607	0.192	0.199
Mof_H 	H 	0.132	0.0129	0.0816	-0.156
Mof_H 	H 	0.3244	0.9344	0.1348	-0.091
Mof_H 	H 	0.2312	0.8809	0.2493	0.142
Mof_H 	H 	0.1785	0.9909	0.4382	0.154
Mof_H 	H 	0.3276	0.0376	0.4444	-0.098
Mof_H 	H 	0.3407	0.8561	0.5548	-0.023
Mof_H 	H 	0.1969	0.8042	0.5455	0.123
Mof_H 	H 	0.7964	0.3619	0.8867	0.133
Mof_H 	H 	0.9901	0.3888	0.093	0.157
Mof_H 	H 	0.1443	0.4071	0.1056	-0.037
Mof_H 	H 	0.2289	0.3234	0.0009	-0.032
Mof_H 	H 	0.0755	0.2979	0.988	0.226
Mof_H 	H 	0.4923	0.1441	0.3931	-0.009
Mof_H 	H 	0.546	0.2193	0.2763	0.121
Mof_H 	H 	0.6821	0.0963	0.246	0.121
Mof_H 	H 	0.6183	0.022	0.3616	-0.043
Mof_H 	H 	0.5216	0.2663	0.032	0.133
Mof_H 	H 	0.6233	0.3292	0.917	-0.009
Mof_H 	H 	0.521	0.896	0.475	0.357
Mof_H 	H 	0.613	0.937	0.465	0.378
Mof_H 	H 	0.2542	0.5326	0.7931	0.057
Mof_H 	H 	0.1848	0.4135	0.8528	0.086
Mof_H 	H 	0.4117	0.5878	0.7094	0.07
Mof_H 	H 	0.2192	0.192	0.8473	0.16
Mof_H 	H 	0.2136	0.0816	0.9055	-0.062
Mof_H 	H 	0.4592	0.1348	0.9308	-0.082
Mof_H 	H 	0.4805	0.2493	0.8698	0.133
Mof_H 	H 	0.6167	0.4382	0.5709	0.11
Mof_H 	H 	0.772	0.4444	0.518	-0.022
Mof_H 	H 	0.8955	0.5548	0.5891	-0.013
Mof_H 	H 	0.7424	0.5455	0.6503	0.116
Mof_H 	H 	0.6831	0.8867	0.7514	0.13
Mof_H 	H 	0.0831	0.093	0.5182	0.116
Mof_H 	H 	0.2499	0.1056	0.4873	-0.024
Mof_H 	H 	0.2298	0.0009	0.6757	-0.027
Mof_H 	H 	0.0635	0.988	0.7141	0.217
Mof_H 	H 	0.8854	0.3931	0.4628	-0.007
Mof_H 	H 	0.8223	0.2763	0.5044	0.121
Mof_H 	H 	0.9281	0.246	0.6577	0.133
Mof_H 	H 	0.9799	0.3616	0.6164	-0.015
Mof_H 	H 	0.5536	0.032	0.7017	0.13
Mof_H 	H 	0.5403	0.917	0.7538	-0.005
Mof_H 	H 	0.996	0.475	0.629	0.386
Mof_H 	H 	0.078	0.465	0.598	0.382
Mof_H 	H 	0.0473	0.7931	0.6743	0.055
Mof_H 	H 	0.0376	0.8528	0.7337	0.085
Mof_H 	H 	0.1211	0.7094	0.7028	0.068
Mof_H 	H 	0.0665	0.8473	0.9607	0.196
Mof_H 	H 	0.1191	0.9055	0.0129	-0.129
Mof_H 	H 	0.39	0.9308	0.9344	-0.076
Mof_H 	H 	0.3503	0.8698	0.8809	0.143
Mof_H 	H 	0.1876	0.5709	0.9909	0.153
Mof_H 	H 	0.29	0.518	0.0376	-0.098
Mof_H 	H 	0.4846	0.5891	0.8561	-0.023
Mof_H 	H 	0.3927	0.6503	0.8042	0.123
Mof_H 	H 	0.4345	0.7514	0.3619	0.096
Mof_H 	H 	0.6013	0.5182	0.3888	0.119
Mof_H 	H 	0.7372	0.4873	0.4071	-0.016
Mof_H 	H 	0.9055	0.6757	0.3234	0.016
Mof_H 	H 	0.7776	0.7141	0.2979	0.144
Mof_H 	H 	0.3482	0.4628	0.1441	-0.01
Mof_H 	H 	0.3267	0.5044	0.2193	0.12
Mof_H 	H 	0.5858	0.6577	0.0963	0.121
Mof_H 	H 	0.5963	0.6164	0.022	-0.042
Mof_H 	H 	0.2553	0.7017	0.2663	0.091
Mof_H 	H 	0.2941	0.7538	0.3292	0.042
Mof_H 	H 	0.625	0.629	0.896	0.358
Mof_H 	H 	0.676	0.598	0.937	0.378
Mof_C 	C 	0.2169	0.2904	0.493	-0.008
Mof_C 	C 	0.1876	0.2554	0.5639	-0.07
Mof_C 	C 	0.09321	0.20288	0.60045	0.026
Mof_C 	C 	0.06408	0.21973	0.49919	-0.001
Mof_C 	C 	0.1561	0.2733	0.46	-0.058
Mof_C 	C 	0.0426	0.1624	0.6773	0.149
Mof_C 	C 	0.98844	0.19343	0.47331	0.183
Mof_C 	C 	0.8879	0.088	0.7649	0.215
Mof_C 	C 	0.9129	0.0478	0.8171	-0.214
Mof_C 	C 	0.8514	0.0187	0.884	0.091
Mof_C 	C 	0.7398	0.0637	0.8528	0.166
Mof_C 	C 	0.7941	0.0946	0.7838	-0.249
Mof_C 	C 	0.82817	0.10879	0.51218	0.152
Mof_C 	C 	0.78784	0.03749	0.53997	-0.153
Mof_C 	C 	0.69918	0.01001	0.53487	-0.001
Mof_C 	C 	0.69067	0.11646	0.47095	0.1
Mof_C 	C 	0.77782	0.14824	0.47558	-0.187
Mof_C 	C 	0.2444	0.6631	0.0672	0.005
Mof_C 	C 	0.2034	0.6813	0.0161	-0.041
Mof_C 	C 	0.094	0.66	0.0239	0.14
Mof_C 	C 	0.9865	0.6603	0.9597	0.167
Mof_C 	C 	0.9632	0.6261	0.9258	-0.157
Mof_C 	C 	0.869	0.6141	0.9198	0.109
Mof_C 	C 	0.8202	0.6633	0.9801	0.076
Mof_C 	C 	0.9125	0.6792	0.9879	-0.078
Mof_C 	C 	0.47006	0.86622	0.63684	0.123
Mof_C 	C 	0.43703	0.82029	0.7074	-0.228
Mof_C 	C 	0.38105	0.83307	0.75162	0.208
Mof_C 	C 	0.35787	0.89351	0.725	-0.234
Mof_C 	C 	0.39534	0.93725	0.65513	0.142
Mof_C 	C 	0.41374	0.77548	0.85606	0.173
Mof_C 	C 	0.36323	0.73603	0.93154	-0.015
Mof_C 	C 	0.4088	0.7199	0.9806	0.049
Mof_C 	C 	0.3478	0.6828	0.0488	-0.128
Mof_C 	C 	0.7099	0.493	0.2166	0
Mof_C 	C 	0.7515	0.5639	0.1807	-0.073
Mof_C 	C 	0.69366	0.60045	0.19667	0.025
Mof_C 	C 	0.56327	0.49919	0.28108	0.023
Mof_C 	C 	0.6161	0.46	0.2667	-0.069
Mof_C 	C 	0.7199	0.6773	0.1603	0.17
Mof_C 	C 	0.46175	0.47331	0.33326	0.162
Mof_C 	C 	0.6528	0.7649	0.1471	0.252
Mof_C 	C 	0.73	0.8171	0.1351	-0.291
Mof_C 	C 	0.7354	0.884	0.0973	0.215
Mof_C 	C 	0.5926	0.8528	0.0835	0.185
Mof_C 	C 	0.5779	0.7838	0.1216	-0.278
Mof_C 	C 	0.34035	0.51218	0.37903	0.184
Mof_C 	C 	0.32781	0.53997	0.42254	-0.223
Mof_C 	C 	0.23405	0.53487	0.45512	0.129
Mof_C 	C 	0.16162	0.47095	0.41259	0.118
Mof_C 	C 	0.2534	0.47558	0.37618	-0.212
Mof_C 	C 	0.3116	0.0672	0.2697	0.01
Mof_C 	C 	0.2195	0.0161	0.3026	-0.045
Mof_C 	C 	0.1179	0.0239	0.3161	0.139
Mof_C 	C 	0.9462	0.9597	0.38	0.188
Mof_C 	C 	0.889	0.9258	0.4481	-0.221
Mof_C 	C 	0.7888	0.9198	0.4661	0.138
Mof_C 	C 	0.8003	0.9801	0.3566	0.082
Mof_C 	C 	0.9004	0.9879	0.3329	-0.091
Mof_C 	C 	0.1069	0.63684	0.49694	0.118
Mof_C 	C 	0.14443	0.7074	0.47231	-0.23
Mof_C 	C 	0.13267	0.75162	0.41531	0.203
Mof_C 	C 	0.08287	0.725	0.38149	-0.243
Mof_C 	C 	0.05047	0.65513	0.40762	0.138
Mof_C 	C 	0.2698	0.85606	0.36846	0.173
Mof_C 	C 	0.29477	0.93154	0.33243	-0.018
Mof_C 	C 	0.3894	0.9806	0.2995	0.057
Mof_C 	C 	0.3966	0.0488	0.2684	-0.139
Mof_C 	C 	0.9265	0.2166	0.2904	0.002
Mof_C 	C 	0.9322	0.1807	0.2554	-0.072
Mof_C 	C 	0.89033	0.19667	0.20288	0.028
Mof_C 	C 	0.84435	0.28108	0.21973	0.025
Mof_C 	C 	0.8828	0.2667	0.2733	-0.069
Mof_C 	C 	0.8802	0.1603	0.1624	0.17
Mof_C 	C 	0.79501	0.33326	0.19343	0.16
Mof_C 	C 	0.7999	0.1471	0.088	0.206
Mof_C 	C 	0.8651	0.1351	0.0478	-0.21
Mof_C 	C 	0.8327	0.0973	0.0187	0.068
Mof_C 	C 	0.6761	0.0835	0.0637	0.158
Mof_C 	C 	0.6995	0.1216	0.0946	-0.253
Mof_C 	C 	0.71938	0.37903	0.10879	0.15
Mof_C 	C 	0.75035	0.42254	0.03749	-0.15
Mof_C 	C 	0.68917	0.45512	0.01001	-0.005
Mof_C 	C 	0.57421	0.41259	0.11646	0.099
Mof_C 	C 	0.62958	0.37618	0.14824	-0.186
Mof_C 	C 	0.5813	0.2697	0.6631	-0.086
Mof_C 	C 	0.5221	0.3026	0.6813	0.037
Mof_C 	C 	0.434	0.3161	0.66	0.167
Mof_C 	C 	0.3262	0.38	0.6603	0.214
Mof_C 	C 	0.3371	0.4481	0.6261	-0.251
Mof_C 	C 	0.2549	0.4661	0.6141	0.148
Mof_C 	C 	0.1569	0.3566	0.6633	0.141
Mof_C 	C 	0.2333	0.3329	0.6792	-0.232
Mof_C 	C 	0.60384	0.49694	0.86622	0.123
Mof_C 	C 	0.61674	0.47231	0.82029	-0.227
Mof_C 	C 	0.54798	0.41531	0.83307	0.208
Mof_C 	C 	0.46436	0.38149	0.89351	-0.234
Mof_C 	C 	0.45809	0.40762	0.93725	0.143
Mof_C 	C 	0.63826	0.36846	0.77548	0.155
Mof_C 	C 	0.6272	0.33243	0.73603	0.033
Mof_C 	C 	0.6889	0.2995	0.7199	-0.096
Mof_C 	C 	0.665	0.2684	0.6828	0.028
Mof_C 	C 	0.7831	0.7096	0.507	0.01
Mof_C 	C 	0.8124	0.7446	0.4361	-0.075
Mof_C 	C 	0.90679	0.79712	0.39955	0.028
Mof_C 	C 	0.93592	0.78027	0.50081	0.048
Mof_C 	C 	0.8439	0.7267	0.54	-0.082
Mof_C 	C 	0.9574	0.8376	0.3227	0.191
Mof_C 	C 	0.01156	0.80657	0.52669	0.141
Mof_C 	C 	0.1121	0.912	0.2351	0.301
Mof_C 	C 	0.0871	0.9522	0.1829	-0.379
Mof_C 	C 	0.1486	0.9813	0.116	0.369
Mof_C 	C 	0.2602	0.9363	0.1472	0.216
Mof_C 	C 	0.2059	0.9054	0.2162	-0.306
Mof_C 	C 	0.17183	0.89121	0.48782	0.218
Mof_C 	C 	0.21216	0.96251	0.46003	-0.294
Mof_C 	C 	0.30082	0.98999	0.46513	0.263
Mof_C 	C 	0.30933	0.88354	0.52905	0.135
Mof_C 	C 	0.22218	0.85176	0.52442	-0.234
Mof_C 	C 	0.7556	0.3369	0.9328	-0.186
Mof_C 	C 	0.7966	0.3187	0.9839	0.123
Mof_C 	C 	0.906	0.34	0.9761	0.198
Mof_C 	C 	0.0135	0.3397	0.0403	0.261
Mof_C 	C 	0.0368	0.3739	0.0742	-0.337
Mof_C 	C 	0.131	0.3859	0.0802	0.185
Mof_C 	C 	0.1798	0.3367	0.0199	0.207
Mof_C 	C 	0.0875	0.3208	0.0121	-0.381
Mof_C 	C 	0.52994	0.13378	0.36316	0.119
Mof_C 	C 	0.56297	0.17971	0.2926	-0.23
Mof_C 	C 	0.61895	0.16693	0.24838	0.204
Mof_C 	C 	0.64213	0.10649	0.275	-0.248
Mof_C 	C 	0.60466	0.06275	0.34487	0.138
Mof_C 	C 	0.58626	0.22452	0.14394	0.132
Mof_C 	C 	0.63677	0.26397	0.06846	0.086
Mof_C 	C 	0.5912	0.2801	0.0194	-0.253
Mof_C 	C 	0.6522	0.3172	0.9512	0.199
Mof_C 	C 	0.2901	0.507	0.7834	0.002
Mof_C 	C 	0.2485	0.4361	0.8193	-0.071
Mof_C 	C 	0.30634	0.39955	0.80333	0.028
Mof_C 	C 	0.43673	0.50081	0.71892	0.024
Mof_C 	C 	0.3839	0.54	0.7333	-0.07
Mof_C 	C 	0.2801	0.3227	0.8397	0.171
Mof_C 	C 	0.53825	0.52669	0.66674	0.162
Mof_C 	C 	0.3472	0.2351	0.8529	0.259
Mof_C 	C 	0.27	0.1829	0.8649	-0.291
Mof_C 	C 	0.2646	0.116	0.9027	0.227
Mof_C 	C 	0.4074	0.1472	0.9165	0.194
Mof_C 	C 	0.4221	0.2162	0.8784	-0.272
Mof_C 	C 	0.65965	0.48782	0.62097	0.184
Mof_C 	C 	0.67219	0.46003	0.57746	-0.222
Mof_C 	C 	0.76595	0.46513	0.54488	0.129
Mof_C 	C 	0.83838	0.52905	0.58741	0.118
Mof_C 	C 	0.7466	0.52442	0.62382	-0.21
Mof_C 	C 	0.6884	0.9328	0.7303	-0.178
Mof_C 	C 	0.7805	0.9839	0.6974	0.117
Mof_C 	C 	0.8821	0.9761	0.6839	0.194
Mof_C 	C 	0.0538	0.0403	0.62	0.235
Mof_C 	C 	0.111	0.0742	0.5519	-0.274
Mof_C 	C 	0.2112	0.0802	0.5339	0.156
Mof_C 	C 	0.1997	0.0199	0.6434	0.195
Mof_C 	C 	0.0996	0.0121	0.6671	-0.357
Mof_C 	C 	0.8931	0.36316	0.50306	0.124
Mof_C 	C 	0.85557	0.2926	0.52769	-0.228
Mof_C 	C 	0.86733	0.24838	0.58469	0.209
Mof_C 	C 	0.91713	0.275	0.61851	-0.239
Mof_C 	C 	0.94953	0.34487	0.59238	0.143
Mof_C 	C 	0.7302	0.14394	0.63154	0.135
Mof_C 	C 	0.70523	0.06846	0.66757	0.082
Mof_C 	C 	0.6106	0.0194	0.7005	-0.24
Mof_C 	C 	0.6034	0.9512	0.7316	0.187
Mof_C 	C 	0.0735	0.7834	0.7096	-0.001
Mof_C 	C 	0.0678	0.8193	0.7446	-0.072
Mof_C 	C 	0.10967	0.80333	0.79712	0.025
Mof_C 	C 	0.15565	0.71892	0.78027	0.022
Mof_C 	C 	0.1172	0.7333	0.7267	-0.07
Mof_C 	C 	0.1198	0.8397	0.8376	0.171
Mof_C 	C 	0.20499	0.66674	0.80657	0.164
Mof_C 	C 	0.2001	0.8529	0.912	0.297
Mof_C 	C 	0.1349	0.8649	0.9522	-0.359
Mof_C 	C 	0.1673	0.9027	0.9813	0.352
Mof_C 	C 	0.3239	0.9165	0.9363	0.217
Mof_C 	C 	0.3005	0.8784	0.9054	-0.294
Mof_C 	C 	0.28062	0.62097	0.89121	0.218
Mof_C 	C 	0.24965	0.57746	0.96251	-0.293
Mof_C 	C 	0.31083	0.54488	0.98999	0.261
Mof_C 	C 	0.42579	0.58741	0.88354	0.135
Mof_C 	C 	0.37042	0.62382	0.85176	-0.235
Mof_C 	C 	0.4187	0.7303	0.3369	-0.087
Mof_C 	C 	0.4779	0.6974	0.3187	0.038
Mof_C 	C 	0.566	0.6839	0.34	0.167
Mof_C 	C 	0.6738	0.62	0.3397	0.213
Mof_C 	C 	0.6629	0.5519	0.3739	-0.249
Mof_C 	C 	0.7451	0.5339	0.3859	0.148
Mof_C 	C 	0.8431	0.6434	0.3367	0.141
Mof_C 	C 	0.7667	0.6671	0.3208	-0.228
Mof_C 	C 	0.39616	0.50306	0.13378	0.119
Mof_C 	C 	0.38326	0.52769	0.17971	-0.23
Mof_C 	C 	0.45202	0.58469	0.16693	0.205
Mof_C 	C 	0.53564	0.61851	0.10649	-0.247
Mof_C 	C 	0.54191	0.59238	0.06275	0.138
Mof_C 	C 	0.36174	0.63154	0.22452	0.152
Mof_C 	C 	0.3728	0.66757	0.26397	0.034
Mof_C 	C 	0.3111	0.7005	0.2801	-0.097
Mof_C 	C 	0.335	0.7316	0.3172	0.03
Mof_N 	N 	0.9493	0.12091	0.69521	-0.278
Mof_N 	N 	0.91326	0.13693	0.52565	-0.279
Mof_N 	N 	0.34544	0.78959	0.82367	-0.292
Mof_N 	N 	0.08379	0.6763	0.96283	-0.267
Mof_N 	N 	0.03644	0.18721	0.56699	-0.258
Mof_N 	N 	0.26293	0.71661	0.95052	-0.218
Mof_N 	N 	0.64764	0.04731	0.50179	-0.233
Mof_N 	N 	0.44948	0.92552	0.60998	-0.239
Mof_N 	N 	0.7737	0.0324	0.9013	-0.309
Mof_N 	N 	0.79759	0.6305	0.94703	-0.158
Mof_N 	N 	0.64451	0.69521	0.18388	-0.294
Mof_N 	N 	0.43891	0.52565	0.33742	-0.282
Mof_N 	N 	0.16911	0.82367	0.38674	-0.293
Mof_N 	N 	0.04662	0.96283	0.36087	-0.27
Mof_N 	N 	0.60343	0.56699	0.2458	-0.254
Mof_N 	N 	0.21345	0.95052	0.33287	-0.216
Mof_N 	N 	0.14943	0.50179	0.4509	-0.251
Mof_N 	N 	0.05946	0.60998	0.4645	-0.254
Mof_N 	N 	0.675	0.9013	0.0663	-0.337
Mof_N 	N 	0.74462	0.94703	0.42247	-0.166
Mof_N 	N 	0.82839	0.18388	0.12091	-0.289
Mof_N 	N 	0.77633	0.33742	0.13693	-0.278
Mof_N 	N 	0.55585	0.38674	0.78959	-0.289
Mof_N 	N 	0.40749	0.36087	0.6763	-0.292
Mof_N 	N 	0.84923	0.2458	0.18721	-0.254
Mof_N 	N 	0.54632	0.33287	0.71661	-0.26
Mof_N 	N 	0.60033	0.4509	0.04731	-0.232
Mof_N 	N 	0.52396	0.4645	0.92552	-0.239
Mof_N 	N 	0.7413	0.0663	0.0324	-0.325
Mof_N 	N 	0.16709	0.42247	0.6305	-0.19
Mof_N 	N 	0.0507	0.87909	0.30479	-0.31
Mof_N 	N 	0.08674	0.86307	0.47435	-0.286
Mof_N 	N 	0.65456	0.21041	0.17633	-0.286
Mof_N 	N 	0.91621	0.3237	0.03717	-0.319
Mof_N 	N 	0.96356	0.81279	0.43301	-0.251
Mof_N 	N 	0.73707	0.28339	0.04948	-0.304
Mof_N 	N 	0.35236	0.95269	0.49821	-0.26
Mof_N 	N 	0.55052	0.07448	0.39002	-0.258
Mof_N 	N 	0.2263	0.9676	0.0987	-0.37
Mof_N 	N 	0.20241	0.3695	0.05297	-0.214
Mof_N 	N 	0.35549	0.30479	0.81612	-0.293
Mof_N 	N 	0.56109	0.47435	0.66258	-0.282
Mof_N 	N 	0.83089	0.17633	0.61326	-0.285
Mof_N 	N 	0.95338	0.03717	0.63913	-0.31
Mof_N 	N 	0.39657	0.43301	0.7542	-0.255
Mof_N 	N 	0.78655	0.04948	0.66713	-0.301
Mof_N 	N 	0.85057	0.49821	0.5491	-0.244
Mof_N 	N 	0.94054	0.39002	0.5355	-0.246
Mof_N 	N 	0.325	0.0987	0.9337	-0.338
Mof_N 	N 	0.25538	0.05297	0.57753	-0.205
Mof_N 	N 	0.17161	0.81612	0.87909	-0.298
Mof_N 	N 	0.22367	0.66258	0.86307	-0.287
Mof_N 	N 	0.44415	0.61326	0.21041	-0.29
Mof_N 	N 	0.59251	0.63913	0.3237	-0.291
Mof_N 	N 	0.15077	0.7542	0.81279	-0.255
Mof_N 	N 	0.45368	0.66713	0.28339	-0.259
Mof_N 	N 	0.39967	0.5491	0.95269	-0.26
Mof_N 	N 	0.47604	0.5355	0.07448	-0.258
Mof_N 	N 	0.2587	0.9337	0.9676	-0.348
Mof_N 	N 	0.83291	0.57753	0.3695	-0.183
Mof_O 	O 	0.08466	0.17274	0.71446	-0.203
Mof_O 	O 	0.99999	0.2222	0.41163	-0.218
Mof_O 	O 	0.50509	0.79498	0.82861	-0.215
Mof_O 	O 	0.0272	0.6277	0.0804	-0.217
Mof_O 	O 	0.44922	0.07153	0.51917	-0.881
Mof_O 	O 	0.79912	0.71446	0.1128	-0.207
Mof_O 	O 	0.41162	0.41163	0.36617	-0.22
Mof_O 	O 	0.3337	0.82861	0.37641	-0.217
Mof_O 	O 	0.1076	0.0804	0.2919	-0.217
Mof_O 	O 	0.96839	0.51917	0.4093	-0.831
Mof_O 	O 	0.91192	0.1128	0.17274	-0.208
Mof_O 	O 	0.77779	0.36617	0.2222	-0.218
Mof_O 	O 	0.71011	0.37641	0.79498	-0.211
Mof_O 	O 	0.3995	0.2919	0.6277	-0.205
Mof_O 	O 	0.37769	0.4093	0.07153	-0.881
Mof_O 	O 	0.91534	0.82726	0.28554	-0.198
Mof_O 	O 	1e-05	0.7778	0.58837	-0.222
Mof_O 	O 	0.49491	0.20502	0.17139	-0.21
Mof_O 	O 	0.9728	0.3723	0.9196	-0.192
Mof_O 	O 	0.55078	0.92847	0.48083	-0.855
Mof_O 	O 	0.20088	0.28554	0.8872	-0.193
Mof_O 	O 	0.58838	0.58837	0.63383	-0.219
Mof_O 	O 	0.6663	0.17139	0.62359	-0.209
Mof_O 	O 	0.8924	0.9196	0.7081	-0.192
Mof_O 	O 	0.03161	0.48083	0.5907	-0.912
Mof_O 	O 	0.08808	0.8872	0.82726	-0.194
Mof_O 	O 	0.22221	0.63383	0.7778	-0.221
Mof_O 	O 	0.28989	0.62359	0.20502	-0.215
Mof_O 	O 	0.6005	0.7081	0.3723	-0.204
Mof_O 	O 	0.62231	0.5907	0.92847	-0.855
Mof_N 	N 	0.339	0.054	0.757	0.039
Mof_O 	O 	0.3692	0.0284	0.7362	-0.157
Mof_O 	O 	0.4165	0.11	0.7635	-0.128
Mof_O 	O 	0.2247	0.0464	0.7851	-0.124
Mof_N 	N 	0.096	0.757	0.189	0.037
Mof_O 	O 	0.1054	0.7362	0.2354	-0.14
Mof_O 	O 	0.18	0.7635	0.1265	-0.133
Mof_O 	O 	0.0098	0.7851	0.1685	-0.12
Mof_N 	N 	0.285	0.189	0.054	0.038
Mof_O 	O 	0.3408	0.2354	0.0284	-0.159
Mof_O 	O 	0.3065	0.1265	0.11	-0.141
Mof_O 	O 	0.1783	0.1685	0.0464	-0.133
Mof_N 	N 	0.661	0.946	0.243	0.038
Mof_O 	O 	0.6308	0.9716	0.2638	-0.113
Mof_O 	O 	0.5835	0.89	0.2365	-0.115
Mof_O 	O 	0.7753	0.9536	0.2149	-0.088
Mof_N 	N 	0.904	0.243	0.811	0.04
Mof_O 	O 	0.8946	0.2638	0.7646	-0.132
Mof_O 	O 	0.82	0.2365	0.8735	-0.11
Mof_O 	O 	0.9902	0.2149	0.8315	-0.093
Mof_N 	N 	0.715	0.811	0.946	0.038
Mof_O 	O 	0.6592	0.7646	0.9716	-0.113
Mof_O 	O 	0.6935	0.8735	0.89	-0.104
Mof_O 	O 	0.8217	0.8315	0.9536	-0.082
_end
