data_functionalizedCrystal
_audit_creation_method	'EQeq! by Chris Wilmer'
_symmetry_space_group_name_H-M	'P1'
_symmetry_Int_Tables_number	1
_symmetry_cell_setting	triclinic
loop_
_symmetry_equiv_pos_as_xyz
  x,y,z
_cell_length_a	49.033
_cell_length_b	8.9877
_cell_length_c	18.4357
_cell_angle_alpha	90
_cell_angle_beta	90
_cell_angle_gamma	90
loop_
_atom_site_label
_atom_site_type_symbol
_atom_site_fract_x
_atom_site_fract_y
_atom_site_fract_z
_atom_site_charge
Mof_O 	O 	0.09065	0.0009	0.193	-0.243
Mof_N 	N 	0.03243	0.3696	0.0639	-0.125
Mof_N 	N 	0.09504	0.2043	0.2623	-0.245
Mof_H 	H 	0.0912	0.2998	0.2646	0.148
Mof_C 	C 	0.0546	0.4277	0.0879	0.635
Mof_H 	H 	0.0595	0.524	0.0713	-0.191
Mof_C 	C 	0.0721	0.354	0.1382	-0.616
Mof_H 	H 	0.0871	0.4062	0.1585	0.244
Mof_C 	C 	0.06746	0.2156	0.1567	0.051
Mof_C 	C 	0.0475	0.1363	0.1192	-0.959
Mof_H 	H 	0.0456	0.0317	0.1245	0.354
Mof_C 	C 	0.03	0.2202	0.0722	0.995
Mof_H 	H 	0.0162	0.1694	0.0459	-0.304
Mof_C 	C 	0.08536	0.1315	0.205	0.2
Mof_C 	C 	0.11087	0.1454	0.3204	0.141
Mof_C 	C 	0.10445	0.1947	0.3903	-0.115
Mof_H 	H 	0.0896	0.2609	0.3974	0.078
Mof_C 	C 	0.11941	0.1483	0.4482	-0.036
Mof_H 	H 	0.1152	0.1839	0.4954	0.059
Mof_C 	C 	0.1408	0.0494	0.4387	0.048
Mof_C 	C 	0.14696	0.9986	0.3691	-0.011
Mof_H 	H 	0.1614	0.9297	0.362	0.042
Mof_C 	C 	0.13197	0.0489	0.3101	-0.148
Mof_H 	H 	0.1364	0.0161	0.2625	0.086
Mof_C 	C 	0.19908	0.1048	0.4605	-0.061
Mof_H 	H 	0.1896	0.1778	0.4332	0.065
Mof_C 	C 	0.22707	0.1044	0.4605	-0.074
Mof_H 	H 	0.2367	0.1767	0.433	0.076
Mof_O 	O 	0.28001	0.0219	0.3954	-0.242
Mof_N 	N 	0.27049	0.989	0.5141	-0.256
Mof_C 	C 	0.2876	0.0058	0.4587	-0.297
Mof_C 	C 	0.3621	0.02	0.4332	0.105
Mof_C 	C 	0.3359	0.0204	0.42	-0.034
Mof_C 	C 	0.3177	0.0038	0.4763	0.126
Mof_C 	C 	0.3284	0.9859	0.5448	-0.079
Mof_C 	C 	0.3578	0.989	0.5523	-0.347
Mof_O 	O 	0.26188	0.4707	0.2895	-0.37
Mof_C 	C 	0.2745	0.3369	0.3102	-0.001
Mof_H 	H 	0.2605	0.2591	0.3181	-0.009
Mof_H 	H 	0.2846	0.3515	0.3561	0.011
Mof_C 	C 	0.2936	0.29	0.252	-0.311
Mof_H 	H 	0.3024	0.196	0.266	0.15
Mof_H 	H 	0.3075	0.3664	0.2449	0.001
Mof_H 	H 	0.2834	0.2751	0.2068	0.039
Mof_C 	C 	0.0315	0.3982	0.1407	-0.435
Mof_H 	H 	0.0187	0.4672	0.1596	0.156
Mof_C 	C 	0.0492	0.3255	0.1868	0.349
Mof_H 	H 	0.0494	0.3473	0.2372	-0.094
Mof_C 	C 	0.0664	0.195	0.0834	0.941
Mof_H 	H 	0.078	0.124	0.0611	-0.264
Mof_C 	C 	0.0486	0.2758	0.0419	-1.14
Mof_H 	H 	0.0488	0.2575	0.9911	0.39
Mof_H 	H 	0.2766	0.9716	0.5581	0.459
Mof_H 	H 	0.3741	0.0316	0.3924	-0.443
Mof_H 	H 	0.3287	0.0356	0.3721	0.02
Mof_H 	H 	0.3167	0.972	0.5861	0.082
Mof_H 	H 	0.3655	0.98	0.6	0.606
Mof_O 	O 	0.27998	0.1121	0.3362	-0.332
Mof_H 	H 	0.2652	0.0889	0.3151	0.243
Mof_C 	C 	0.2849	0.2614	0.3234	0.189
Mof_H 	H 	0.2935	0.306	0.367	-0.01
Mof_H 	H 	0.2674	0.313	0.3148	0.048
Mof_C 	C 	0.3032	0.284	0.2594	-0.176
Mof_H 	H 	0.3067	0.3907	0.2529	0.161
Mof_H 	H 	0.2945	0.2441	0.2158	0.17
Mof_H 	H 	0.3206	0.2325	0.2676	0.038
Mof_O 	O 	0.40935	0.9991	0.693	-0.231
Mof_N 	N 	0.46757	0.6304	0.5639	-0.135
Mof_N 	N 	0.40496	0.7957	0.7623	-0.237
Mof_H 	H 	0.4088	0.7002	0.7646	0.148
Mof_C 	C 	0.4454	0.5723	0.5879	0.438
Mof_H 	H 	0.4405	0.476	0.5713	-0.124
Mof_C 	C 	0.4279	0.646	0.6382	-0.431
Mof_H 	H 	0.4129	0.5938	0.6585	0.183
Mof_C 	C 	0.43254	0.7844	0.6567	0.038
Mof_C 	C 	0.4525	0.8637	0.6192	-0.652
Mof_H 	H 	0.4544	0.9683	0.6245	0.255
Mof_C 	C 	0.47	0.7798	0.5722	0.664
Mof_H 	H 	0.4838	0.8306	0.5459	-0.194
Mof_C 	C 	0.41464	0.8685	0.705	0.203
Mof_C 	C 	0.38913	0.8546	0.8204	0.111
Mof_C 	C 	0.39555	0.8053	0.8903	-0.078
Mof_H 	H 	0.4104	0.7391	0.8974	0.068
Mof_C 	C 	0.38059	0.8517	0.9482	-0.073
Mof_H 	H 	0.3848	0.8161	0.9954	0.071
Mof_C 	C 	0.3592	0.9506	0.9387	0.103
Mof_C 	C 	0.35304	0.0014	0.8691	-0.1
Mof_H 	H 	0.3386	0.0703	0.862	0.065
Mof_C 	C 	0.36803	0.9511	0.8101	-0.078
Mof_H 	H 	0.3636	0.9839	0.7625	0.069
Mof_C 	C 	0.30092	0.8952	0.9605	-0.061
Mof_H 	H 	0.3104	0.8222	0.9332	0.067
Mof_C 	C 	0.27293	0.8956	0.9605	-0.069
Mof_H 	H 	0.2633	0.8233	0.933	0.077
Mof_O 	O 	0.21999	0.9781	0.8954	-0.282
Mof_N 	N 	0.22951	0.011	0.0141	-0.046
Mof_C 	C 	0.2124	0.9942	0.9587	-0.225
Mof_C 	C 	0.1379	0.98	0.9332	0.106
Mof_C 	C 	0.1641	0.9796	0.92	-0.022
Mof_C 	C 	0.1823	0.9962	0.9763	0.125
Mof_C 	C 	0.1716	0.0141	0.0448	-0.078
Mof_C 	C 	0.1422	0.011	0.0523	-0.326
Mof_O 	O 	0.23812	0.5293	0.7895	-0.371
Mof_C 	C 	0.2255	0.6631	0.8102	-0.002
Mof_H 	H 	0.2395	0.7409	0.8181	-0.01
Mof_H 	H 	0.2154	0.6485	0.8561	0.012
Mof_C 	C 	0.2064	0.71	0.752	-0.312
Mof_H 	H 	0.1976	0.804	0.766	0.152
Mof_H 	H 	0.1925	0.6336	0.7449	0.001
Mof_H 	H 	0.2166	0.7249	0.7068	0.04
Mof_C 	C 	0.4685	0.6018	0.6407	-0.288
Mof_H 	H 	0.4813	0.5328	0.6596	0.11
Mof_C 	C 	0.4508	0.6745	0.6868	0.215
Mof_H 	H 	0.4506	0.6527	0.7372	-0.047
Mof_C 	C 	0.4336	0.805	0.5834	0.604
Mof_H 	H 	0.422	0.876	0.5611	-0.149
Mof_C 	C 	0.4514	0.7242	0.5419	-0.748
Mof_H 	H 	0.4512	0.7425	0.4911	0.27
Mof_H 	H 	0.2234	0.0284	0.0581	0.403
Mof_H 	H 	0.1259	0.9684	0.8924	-0.457
Mof_H 	H 	0.1713	0.9644	0.8721	0.021
Mof_H 	H 	0.1833	0.028	0.0861	0.088
Mof_H 	H 	0.1345	0.02	0.1	0.565
Mof_O 	O 	0.22002	0.8879	0.8362	-0.317
Mof_H 	H 	0.2348	0.9111	0.8151	0.246
Mof_C 	C 	0.2151	0.7386	0.8234	0.182
Mof_H 	H 	0.2065	0.694	0.867	-0.009
Mof_H 	H 	0.2326	0.687	0.8148	0.052
Mof_C 	C 	0.1968	0.716	0.7594	-0.174
Mof_H 	H 	0.1933	0.6093	0.7529	0.161
Mof_H 	H 	0.2055	0.7559	0.7158	0.171
Mof_H 	H 	0.1794	0.7675	0.7676	0.039
Mof_O 	O 	0.40935	0.0009	0.307	-0.242
Mof_N 	N 	0.46757	0.3696	0.4361	-0.135
Mof_N 	N 	0.40496	0.2043	0.2377	-0.244
Mof_H 	H 	0.4088	0.2998	0.2354	0.149
Mof_C 	C 	0.4454	0.4277	0.4121	0.433
Mof_H 	H 	0.4405	0.524	0.4287	-0.122
Mof_C 	C 	0.4279	0.354	0.3618	-0.426
Mof_H 	H 	0.4129	0.4062	0.3415	0.181
Mof_C 	C 	0.43254	0.2156	0.3433	0.033
Mof_C 	C 	0.4525	0.1363	0.3808	-0.645
Mof_H 	H 	0.4544	0.0317	0.3755	0.248
Mof_C 	C 	0.47	0.2202	0.4278	0.656
Mof_H 	H 	0.4838	0.1694	0.4541	-0.194
Mof_C 	C 	0.41464	0.1315	0.295	0.205
Mof_C 	C 	0.38913	0.1454	0.1796	0.136
Mof_C 	C 	0.39555	0.1947	0.1097	-0.108
Mof_H 	H 	0.4104	0.2609	0.1026	0.08
Mof_C 	C 	0.38059	0.1483	0.0518	-0.04
Mof_H 	H 	0.3848	0.1839	0.0046	0.063
Mof_C 	C 	0.3592	0.0494	0.0613	0.057
Mof_C 	C 	0.35304	0.9986	0.1309	-0.024
Mof_H 	H 	0.3386	0.9297	0.138	0.045
Mof_C 	C 	0.36803	0.0489	0.1899	-0.14
Mof_H 	H 	0.3636	0.0161	0.2375	0.084
Mof_C 	C 	0.30092	0.1048	0.0395	-0.061
Mof_H 	H 	0.3104	0.1778	0.0668	0.066
Mof_C 	C 	0.27293	0.1044	0.0395	-0.075
Mof_H 	H 	0.2633	0.1767	0.067	0.078
Mof_O 	O 	0.21999	0.0219	0.1046	-0.264
Mof_N 	N 	0.22951	0.989	0.9859	-0.161
Mof_C 	C 	0.2124	0.0058	0.0413	-0.262
Mof_C 	C 	0.1379	0.02	0.0668	0.102
Mof_C 	C 	0.1641	0.0204	0.08	-0.022
Mof_C 	C 	0.1823	0.0038	0.0237	0.12
Mof_C 	C 	0.1716	0.9859	0.9552	-0.075
Mof_C 	C 	0.1422	0.989	0.9477	-0.328
Mof_O 	O 	0.23812	0.4707	0.2105	-0.37
Mof_C 	C 	0.2255	0.3369	0.1898	-0
Mof_H 	H 	0.2395	0.2591	0.1819	-0.01
Mof_H 	H 	0.2154	0.3515	0.1439	0.012
Mof_C 	C 	0.2064	0.29	0.248	-0.309
Mof_H 	H 	0.1976	0.196	0.234	0.149
Mof_H 	H 	0.1925	0.3664	0.2551	0.001
Mof_H 	H 	0.2166	0.2751	0.2932	0.039
Mof_C 	C 	0.4685	0.3982	0.3593	-0.286
Mof_H 	H 	0.4813	0.4672	0.3404	0.11
Mof_C 	C 	0.4508	0.3255	0.3132	0.213
Mof_H 	H 	0.4506	0.3473	0.2628	-0.048
Mof_C 	C 	0.4336	0.195	0.4166	0.599
Mof_H 	H 	0.422	0.124	0.4389	-0.151
Mof_C 	C 	0.4514	0.2758	0.4581	-0.741
Mof_H 	H 	0.4512	0.2575	0.5089	0.265
Mof_H 	H 	0.2234	0.9716	0.9419	0.432
Mof_H 	H 	0.1259	0.0316	0.1076	-0.454
Mof_H 	H 	0.1713	0.0356	0.1279	0.017
Mof_H 	H 	0.1833	0.972	0.9139	0.085
Mof_H 	H 	0.1345	0.98	0.9	0.569
Mof_O 	O 	0.22002	0.1121	0.1638	-0.323
Mof_H 	H 	0.2348	0.0889	0.1849	0.24
Mof_C 	C 	0.2151	0.2614	0.1766	0.182
Mof_H 	H 	0.2065	0.306	0.133	-0.007
Mof_H 	H 	0.2326	0.313	0.1852	0.051
Mof_C 	C 	0.1968	0.284	0.2406	-0.173
Mof_H 	H 	0.1933	0.3907	0.2471	0.159
Mof_H 	H 	0.2055	0.2441	0.2842	0.168
Mof_H 	H 	0.1794	0.2325	0.2324	0.038
Mof_O 	O 	0.09065	0.9991	0.807	-0.232
Mof_N 	N 	0.03243	0.6304	0.9361	-0.146
Mof_N 	N 	0.09504	0.7957	0.7377	-0.237
Mof_H 	H 	0.0912	0.7002	0.7354	0.148
Mof_C 	C 	0.0546	0.5723	0.9121	0.257
Mof_H 	H 	0.0595	0.476	0.9287	-0.064
Mof_C 	C 	0.0721	0.646	0.8618	-0.262
Mof_H 	H 	0.0871	0.5938	0.8415	0.126
Mof_C 	C 	0.06746	0.7844	0.8433	0.021
Mof_C 	C 	0.0475	0.8637	0.8808	-0.371
Mof_H 	H 	0.0456	0.9683	0.8755	0.16
Mof_C 	C 	0.03	0.7798	0.9278	0.36
Mof_H 	H 	0.0162	0.8306	0.9541	-0.097
Mof_C 	C 	0.08536	0.8685	0.795	0.207
Mof_C 	C 	0.11087	0.8546	0.6796	0.103
Mof_C 	C 	0.10445	0.8053	0.6097	-0.069
Mof_H 	H 	0.0896	0.7391	0.6026	0.068
Mof_C 	C 	0.11941	0.8517	0.5518	-0.081
Mof_H 	H 	0.1152	0.8161	0.5046	0.078
Mof_C 	C 	0.1408	0.9506	0.5613	0.118
Mof_C 	C 	0.14696	0.0014	0.6309	-0.115
Mof_H 	H 	0.1614	0.0703	0.638	0.07
Mof_C 	C 	0.13197	0.9511	0.6899	-0.068
Mof_H 	H 	0.1364	0.9839	0.7375	0.066
Mof_C 	C 	0.19908	0.8952	0.5395	-0.054
Mof_H 	H 	0.1896	0.8222	0.5668	0.065
Mof_C 	C 	0.22707	0.8956	0.5395	-0.058
Mof_H 	H 	0.2367	0.8233	0.567	0.076
Mof_O 	O 	0.28001	0.9781	0.6046	-0.303
Mof_N 	N 	0.27049	0.011	0.4859	0.052
Mof_C 	C 	0.2876	0.9942	0.5413	-0.194
Mof_C 	C 	0.3621	0.98	0.5668	0.105
Mof_C 	C 	0.3359	0.9796	0.58	-0.005
Mof_C 	C 	0.3177	0.9962	0.5237	0.121
Mof_C 	C 	0.3284	0.0141	0.4552	-0.074
Mof_C 	C 	0.3578	0.011	0.4477	-0.318
Mof_O 	O 	0.26188	0.5293	0.7105	-0.371
Mof_C 	C 	0.2745	0.6631	0.6898	-0.002
Mof_H 	H 	0.2605	0.7409	0.6819	-0.01
Mof_H 	H 	0.2846	0.6485	0.6439	0.013
Mof_C 	C 	0.2936	0.71	0.748	-0.309
Mof_H 	H 	0.3024	0.804	0.734	0.151
Mof_H 	H 	0.3075	0.6336	0.7551	0.001
Mof_H 	H 	0.2834	0.7249	0.7932	0.04
Mof_C 	C 	0.0315	0.6018	0.8593	-0.156
Mof_H 	H 	0.0187	0.5328	0.8404	0.068
Mof_C 	C 	0.0492	0.6745	0.8132	0.093
Mof_H 	H 	0.0494	0.6527	0.7628	-0.006
Mof_C 	C 	0.0664	0.805	0.9166	0.298
Mof_H 	H 	0.078	0.876	0.9389	-0.049
Mof_C 	C 	0.0486	0.7242	0.9581	-0.39
Mof_H 	H 	0.0488	0.7425	0.0089	0.158
Mof_H 	H 	0.2766	0.0284	0.4419	0.379
Mof_H 	H 	0.3741	0.9684	0.6076	-0.486
Mof_H 	H 	0.3287	0.9644	0.6279	0.016
Mof_H 	H 	0.3167	0.028	0.4139	0.091
Mof_H 	H 	0.3655	0.02	0.4	0.551
Mof_O 	O 	0.27998	0.8879	0.6638	-0.308
Mof_H 	H 	0.2652	0.9111	0.6849	0.244
Mof_C 	C 	0.2849	0.7386	0.6766	0.175
Mof_H 	H 	0.2935	0.694	0.633	-0.006
Mof_H 	H 	0.2674	0.687	0.6852	0.054
Mof_C 	C 	0.3032	0.716	0.7406	-0.172
Mof_H 	H 	0.3067	0.6093	0.7471	0.159
Mof_H 	H 	0.2945	0.7559	0.7842	0.169
Mof_H 	H 	0.3206	0.7675	0.7324	0.038
Mof_O 	O 	0.90935	0.9991	0.807	-0.232
Mof_N 	N 	0.96757	0.6304	0.9361	-0.146
Mof_N 	N 	0.90496	0.7957	0.7377	-0.237
Mof_H 	H 	0.9088	0.7002	0.7354	0.148
Mof_C 	C 	0.9454	0.5723	0.9121	0.256
Mof_H 	H 	0.9405	0.476	0.9287	-0.064
Mof_C 	C 	0.9279	0.646	0.8618	-0.262
Mof_H 	H 	0.9129	0.5938	0.8415	0.125
Mof_C 	C 	0.93254	0.7844	0.8433	0.021
Mof_C 	C 	0.9525	0.8637	0.8808	-0.371
Mof_H 	H 	0.9544	0.9683	0.8755	0.16
Mof_C 	C 	0.97	0.7798	0.9278	0.36
Mof_H 	H 	0.9838	0.8306	0.9541	-0.096
Mof_C 	C 	0.91464	0.8685	0.795	0.207
Mof_C 	C 	0.88913	0.8546	0.6796	0.103
Mof_C 	C 	0.89555	0.8053	0.6097	-0.069
Mof_H 	H 	0.9104	0.7391	0.6026	0.068
Mof_C 	C 	0.88059	0.8517	0.5518	-0.081
Mof_H 	H 	0.8848	0.8161	0.5046	0.078
Mof_C 	C 	0.8592	0.9506	0.5613	0.118
Mof_C 	C 	0.85304	0.0014	0.6309	-0.115
Mof_H 	H 	0.8386	0.0703	0.638	0.07
Mof_C 	C 	0.86803	0.9511	0.6899	-0.068
Mof_H 	H 	0.8636	0.9839	0.7375	0.066
Mof_C 	C 	0.80092	0.8952	0.5395	-0.054
Mof_H 	H 	0.8104	0.8222	0.5668	0.065
Mof_C 	C 	0.77293	0.8956	0.5395	-0.058
Mof_H 	H 	0.7633	0.8233	0.567	0.076
Mof_O 	O 	0.71999	0.9781	0.6046	-0.303
Mof_N 	N 	0.72951	0.011	0.4859	0.052
Mof_C 	C 	0.7124	0.9942	0.5413	-0.194
Mof_C 	C 	0.6379	0.98	0.5668	0.105
Mof_C 	C 	0.6641	0.9796	0.58	-0.005
Mof_C 	C 	0.6823	0.9962	0.5237	0.121
Mof_C 	C 	0.6716	0.0141	0.4552	-0.074
Mof_C 	C 	0.6422	0.011	0.4477	-0.318
Mof_O 	O 	0.73812	0.5293	0.7105	-0.371
Mof_C 	C 	0.7255	0.6631	0.6898	-0.002
Mof_H 	H 	0.7395	0.7409	0.6819	-0.01
Mof_H 	H 	0.7154	0.6485	0.6439	0.013
Mof_C 	C 	0.7064	0.71	0.748	-0.309
Mof_H 	H 	0.6976	0.804	0.734	0.151
Mof_H 	H 	0.6925	0.6336	0.7551	0.001
Mof_H 	H 	0.7166	0.7249	0.7932	0.04
Mof_C 	C 	0.9685	0.6018	0.8593	-0.155
Mof_H 	H 	0.9813	0.5328	0.8404	0.068
Mof_C 	C 	0.9508	0.6745	0.8132	0.093
Mof_H 	H 	0.9506	0.6527	0.7628	-0.006
Mof_C 	C 	0.9336	0.805	0.9166	0.298
Mof_H 	H 	0.922	0.876	0.9389	-0.048
Mof_C 	C 	0.9514	0.7242	0.9581	-0.389
Mof_H 	H 	0.9512	0.7425	0.0089	0.158
Mof_H 	H 	0.7234	0.0284	0.4419	0.379
Mof_H 	H 	0.6259	0.9684	0.6076	-0.486
Mof_H 	H 	0.6713	0.9644	0.6279	0.016
Mof_H 	H 	0.6833	0.028	0.4139	0.091
Mof_H 	H 	0.6345	0.02	0.4	0.551
Mof_O 	O 	0.72002	0.8879	0.6638	-0.308
Mof_H 	H 	0.7348	0.9111	0.6849	0.244
Mof_C 	C 	0.7151	0.7386	0.6766	0.175
Mof_H 	H 	0.7065	0.694	0.633	-0.006
Mof_H 	H 	0.7326	0.687	0.6852	0.054
Mof_C 	C 	0.6968	0.716	0.7406	-0.172
Mof_H 	H 	0.6933	0.6093	0.7471	0.159
Mof_H 	H 	0.7055	0.7559	0.7842	0.169
Mof_H 	H 	0.6794	0.7675	0.7324	0.038
Mof_O 	O 	0.59065	0.0009	0.307	-0.242
Mof_N 	N 	0.53243	0.3696	0.4361	-0.135
Mof_N 	N 	0.59504	0.2043	0.2377	-0.244
Mof_H 	H 	0.5912	0.2998	0.2354	0.149
Mof_C 	C 	0.5546	0.4277	0.4121	0.433
Mof_H 	H 	0.5595	0.524	0.4287	-0.122
Mof_C 	C 	0.5721	0.354	0.3618	-0.426
Mof_H 	H 	0.5871	0.4062	0.3415	0.181
Mof_C 	C 	0.56746	0.2156	0.3433	0.033
Mof_C 	C 	0.5475	0.1363	0.3808	-0.645
Mof_H 	H 	0.5456	0.0317	0.3755	0.248
Mof_C 	C 	0.53	0.2202	0.4278	0.656
Mof_H 	H 	0.5162	0.1694	0.4541	-0.194
Mof_C 	C 	0.58536	0.1315	0.295	0.205
Mof_C 	C 	0.61087	0.1454	0.1796	0.136
Mof_C 	C 	0.60445	0.1947	0.1097	-0.108
Mof_H 	H 	0.5896	0.2609	0.1026	0.08
Mof_C 	C 	0.61941	0.1483	0.0518	-0.04
Mof_H 	H 	0.6152	0.1839	0.0046	0.063
Mof_C 	C 	0.6408	0.0494	0.0613	0.057
Mof_C 	C 	0.64696	0.9986	0.1309	-0.024
Mof_H 	H 	0.6614	0.9297	0.138	0.045
Mof_C 	C 	0.63197	0.0489	0.1899	-0.14
Mof_H 	H 	0.6364	0.0161	0.2375	0.084
Mof_C 	C 	0.69908	0.1048	0.0395	-0.061
Mof_H 	H 	0.6896	0.1778	0.0668	0.066
Mof_C 	C 	0.72707	0.1044	0.0395	-0.075
Mof_H 	H 	0.7367	0.1767	0.067	0.078
Mof_O 	O 	0.78001	0.0219	0.1046	-0.264
Mof_N 	N 	0.77049	0.989	0.9859	-0.161
Mof_C 	C 	0.7876	0.0058	0.0413	-0.262
Mof_C 	C 	0.8621	0.02	0.0668	0.102
Mof_C 	C 	0.8359	0.0204	0.08	-0.022
Mof_C 	C 	0.8177	0.0038	0.0237	0.12
Mof_C 	C 	0.8284	0.9859	0.9552	-0.075
Mof_C 	C 	0.8578	0.989	0.9477	-0.328
Mof_O 	O 	0.76188	0.4707	0.2105	-0.37
Mof_C 	C 	0.7745	0.3369	0.1898	-0
Mof_H 	H 	0.7605	0.2591	0.1819	-0.01
Mof_H 	H 	0.7846	0.3515	0.1439	0.012
Mof_C 	C 	0.7936	0.29	0.248	-0.309
Mof_H 	H 	0.8024	0.196	0.234	0.149
Mof_H 	H 	0.8075	0.3664	0.2551	0.001
Mof_H 	H 	0.7834	0.2751	0.2932	0.039
Mof_C 	C 	0.5315	0.3982	0.3593	-0.286
Mof_H 	H 	0.5187	0.4672	0.3404	0.11
Mof_C 	C 	0.5492	0.3255	0.3132	0.213
Mof_H 	H 	0.5494	0.3473	0.2628	-0.048
Mof_C 	C 	0.5664	0.195	0.4166	0.599
Mof_H 	H 	0.578	0.124	0.4389	-0.151
Mof_C 	C 	0.5486	0.2758	0.4581	-0.741
Mof_H 	H 	0.5488	0.2575	0.5089	0.265
Mof_H 	H 	0.7766	0.9716	0.9419	0.432
Mof_H 	H 	0.8741	0.0316	0.1076	-0.453
Mof_H 	H 	0.8287	0.0356	0.1279	0.017
Mof_H 	H 	0.8167	0.972	0.9139	0.085
Mof_H 	H 	0.8655	0.98	0.9	0.569
Mof_O 	O 	0.77998	0.1121	0.1638	-0.323
Mof_H 	H 	0.7652	0.0889	0.1849	0.24
Mof_C 	C 	0.7849	0.2614	0.1766	0.182
Mof_H 	H 	0.7935	0.306	0.133	-0.007
Mof_H 	H 	0.7674	0.313	0.1852	0.051
Mof_C 	C 	0.8032	0.284	0.2406	-0.173
Mof_H 	H 	0.8067	0.3907	0.2471	0.159
Mof_H 	H 	0.7945	0.2441	0.2842	0.168
Mof_H 	H 	0.8206	0.2325	0.2324	0.038
Mof_O 	O 	0.59065	0.9991	0.693	-0.231
Mof_N 	N 	0.53243	0.6304	0.5639	-0.135
Mof_N 	N 	0.59504	0.7957	0.7623	-0.237
Mof_H 	H 	0.5912	0.7002	0.7646	0.148
Mof_C 	C 	0.5546	0.5723	0.5879	0.438
Mof_H 	H 	0.5595	0.476	0.5713	-0.124
Mof_C 	C 	0.5721	0.646	0.6382	-0.431
Mof_H 	H 	0.5871	0.5938	0.6585	0.183
Mof_C 	C 	0.56746	0.7844	0.6567	0.038
Mof_C 	C 	0.5475	0.8637	0.6192	-0.652
Mof_H 	H 	0.5456	0.9683	0.6245	0.255
Mof_C 	C 	0.53	0.7798	0.5722	0.664
Mof_H 	H 	0.5162	0.8306	0.5459	-0.194
Mof_C 	C 	0.58536	0.8685	0.705	0.203
Mof_C 	C 	0.61087	0.8546	0.8204	0.111
Mof_C 	C 	0.60445	0.8053	0.8903	-0.078
Mof_H 	H 	0.5896	0.7391	0.8974	0.068
Mof_C 	C 	0.61941	0.8517	0.9482	-0.073
Mof_H 	H 	0.6152	0.8161	0.9954	0.071
Mof_C 	C 	0.6408	0.9506	0.9387	0.103
Mof_C 	C 	0.64696	0.0014	0.8691	-0.1
Mof_H 	H 	0.6614	0.0703	0.862	0.065
Mof_C 	C 	0.63197	0.9511	0.8101	-0.078
Mof_H 	H 	0.6364	0.9839	0.7625	0.069
Mof_C 	C 	0.69908	0.8952	0.9605	-0.061
Mof_H 	H 	0.6896	0.8222	0.9332	0.067
Mof_C 	C 	0.72707	0.8956	0.9605	-0.069
Mof_H 	H 	0.7367	0.8233	0.933	0.077
Mof_O 	O 	0.78001	0.9781	0.8954	-0.282
Mof_N 	N 	0.77049	0.011	0.0141	-0.047
Mof_C 	C 	0.7876	0.9942	0.9587	-0.225
Mof_C 	C 	0.8621	0.98	0.9332	0.106
Mof_C 	C 	0.8359	0.9796	0.92	-0.022
Mof_C 	C 	0.8177	0.9962	0.9763	0.125
Mof_C 	C 	0.8284	0.0141	0.0448	-0.078
Mof_C 	C 	0.8578	0.011	0.0523	-0.326
Mof_O 	O 	0.76188	0.5293	0.7895	-0.371
Mof_C 	C 	0.7745	0.6631	0.8102	-0.002
Mof_H 	H 	0.7605	0.7409	0.8181	-0.01
Mof_H 	H 	0.7846	0.6485	0.8561	0.012
Mof_C 	C 	0.7936	0.71	0.752	-0.312
Mof_H 	H 	0.8024	0.804	0.766	0.152
Mof_H 	H 	0.8075	0.6336	0.7449	0.001
Mof_H 	H 	0.7834	0.7249	0.7068	0.04
Mof_C 	C 	0.5315	0.6018	0.6407	-0.288
Mof_H 	H 	0.5187	0.5328	0.6596	0.11
Mof_C 	C 	0.5492	0.6745	0.6868	0.215
Mof_H 	H 	0.5494	0.6527	0.7372	-0.047
Mof_C 	C 	0.5664	0.805	0.5834	0.604
Mof_H 	H 	0.578	0.876	0.5611	-0.149
Mof_C 	C 	0.5486	0.7242	0.5419	-0.748
Mof_H 	H 	0.5488	0.7425	0.4911	0.27
Mof_H 	H 	0.7766	0.0284	0.0581	0.403
Mof_H 	H 	0.8741	0.9684	0.8924	-0.456
Mof_H 	H 	0.8287	0.9644	0.8721	0.021
Mof_H 	H 	0.8167	0.028	0.0861	0.088
Mof_H 	H 	0.8655	0.02	0.1	0.565
Mof_O 	O 	0.77998	0.8879	0.8362	-0.317
Mof_H 	H 	0.7652	0.9111	0.8151	0.246
Mof_C 	C 	0.7849	0.7386	0.8234	0.183
Mof_H 	H 	0.7935	0.694	0.867	-0.009
Mof_H 	H 	0.7674	0.687	0.8148	0.052
Mof_C 	C 	0.8032	0.716	0.7594	-0.174
Mof_H 	H 	0.8067	0.6093	0.7529	0.161
Mof_H 	H 	0.7945	0.7559	0.7158	0.171
Mof_H 	H 	0.8206	0.7675	0.7676	0.039
Mof_O 	O 	0.90935	0.0009	0.193	-0.242
Mof_N 	N 	0.96757	0.3696	0.0639	-0.124
Mof_N 	N 	0.90496	0.2043	0.2623	-0.244
Mof_H 	H 	0.9088	0.2998	0.2646	0.149
Mof_C 	C 	0.9454	0.4277	0.0879	0.636
Mof_H 	H 	0.9405	0.524	0.0713	-0.19
Mof_C 	C 	0.9279	0.354	0.1382	-0.615
Mof_H 	H 	0.9129	0.4062	0.1585	0.245
Mof_C 	C 	0.93254	0.2156	0.1567	0.052
Mof_C 	C 	0.9525	0.1363	0.1192	-0.958
Mof_H 	H 	0.9544	0.0317	0.1245	0.355
Mof_C 	C 	0.97	0.2202	0.0722	0.996
Mof_H 	H 	0.9838	0.1694	0.0459	-0.303
Mof_C 	C 	0.91464	0.1315	0.205	0.201
Mof_C 	C 	0.88913	0.1454	0.3204	0.142
Mof_C 	C 	0.89555	0.1947	0.3903	-0.114
Mof_H 	H 	0.9104	0.2609	0.3974	0.079
Mof_C 	C 	0.88059	0.1483	0.4482	-0.035
Mof_H 	H 	0.8848	0.1839	0.4954	0.059
Mof_C 	C 	0.8592	0.0494	0.4387	0.048
Mof_C 	C 	0.85304	0.9986	0.3691	-0.011
Mof_H 	H 	0.8386	0.9297	0.362	0.042
Mof_C 	C 	0.86803	0.0489	0.3101	-0.148
Mof_H 	H 	0.8636	0.0161	0.2625	0.086
Mof_C 	C 	0.80092	0.1048	0.4605	-0.061
Mof_H 	H 	0.8104	0.1778	0.4332	0.065
Mof_C 	C 	0.77293	0.1044	0.4605	-0.074
Mof_H 	H 	0.7633	0.1767	0.433	0.076
Mof_O 	O 	0.71999	0.0219	0.3954	-0.242
Mof_N 	N 	0.72951	0.989	0.5141	-0.256
Mof_C 	C 	0.7124	0.0058	0.4587	-0.297
Mof_C 	C 	0.6379	0.02	0.4332	0.105
Mof_C 	C 	0.6641	0.0204	0.42	-0.034
Mof_C 	C 	0.6823	0.0038	0.4763	0.126
Mof_C 	C 	0.6716	0.9859	0.5448	-0.079
Mof_C 	C 	0.6422	0.989	0.5523	-0.347
Mof_O 	O 	0.73812	0.4707	0.2895	-0.37
Mof_C 	C 	0.7255	0.3369	0.3102	-0.001
Mof_H 	H 	0.7395	0.2591	0.3181	-0.009
Mof_H 	H 	0.7154	0.3515	0.3561	0.011
Mof_C 	C 	0.7064	0.29	0.252	-0.311
Mof_H 	H 	0.6976	0.196	0.266	0.15
Mof_H 	H 	0.6925	0.3664	0.2449	0.001
Mof_H 	H 	0.7166	0.2751	0.2068	0.039
Mof_C 	C 	0.9685	0.3982	0.1407	-0.435
Mof_H 	H 	0.9813	0.4672	0.1596	0.157
Mof_C 	C 	0.9508	0.3255	0.1868	0.349
Mof_H 	H 	0.9506	0.3473	0.2372	-0.094
Mof_C 	C 	0.9336	0.195	0.0834	0.941
Mof_H 	H 	0.922	0.124	0.0611	-0.264
Mof_C 	C 	0.9514	0.2758	0.0419	-1.14
Mof_H 	H 	0.9512	0.2575	0.9911	0.39
Mof_H 	H 	0.7234	0.9716	0.5581	0.459
Mof_H 	H 	0.6259	0.0316	0.3924	-0.443
Mof_H 	H 	0.6713	0.0356	0.3721	0.02
Mof_H 	H 	0.6833	0.972	0.5861	0.082
Mof_H 	H 	0.6345	0.98	0.6	0.606
Mof_O 	O 	0.72002	0.1121	0.3362	-0.332
Mof_H 	H 	0.7348	0.0889	0.3151	0.243
Mof_C 	C 	0.7151	0.2614	0.3234	0.189
Mof_H 	H 	0.7065	0.306	0.367	-0.01
Mof_H 	H 	0.7326	0.313	0.3148	0.048
Mof_C 	C 	0.6968	0.284	0.2594	-0.176
Mof_H 	H 	0.6933	0.3907	0.2529	0.161
Mof_H 	H 	0.7055	0.2441	0.2158	0.17
Mof_H 	H 	0.6794	0.2325	0.2676	0.038
Mof_Cd	Cd	-0	0.5	-0	0.307
Mof_Cd	Cd	0.5	0.5	0.5	0.301
Mof_N 	N 	0.15577	0	0.5	-0.15
Mof_C 	C 	0.18451	0	0.5	0.077
Mof_C 	C 	0.24135	0	0.5	0.079
Mof_N 	N 	0.374	0	0.5	0.037
Mof_N 	N 	0.34423	0	-0	-0.146
Mof_C 	C 	0.31549	0	-0	0.086
Mof_C 	C 	0.25865	0	-0	0.091
Mof_N 	N 	0.126	0	-0	0.037
Mof_N 	N 	0.84423	0	0.5	-0.15
Mof_C 	C 	0.81549	0	0.5	0.077
Mof_C 	C 	0.75865	0	0.5	0.079
Mof_N 	N 	0.626	0	0.5	0.037
Mof_N 	N 	0.65577	0	-0	-0.146
Mof_C 	C 	0.68451	0	-0	0.086
Mof_C 	C 	0.74135	0	-0	0.091
Mof_N 	N 	0.874	0	-0	0.037
Mof_H 	H 	0.25	0.4543	0.25	0.359
Mof_H 	H 	0.25	0.5457	0.75	0.36
Mof_H 	H 	0.75	0.5457	0.75	0.36
Mof_H 	H 	0.75	0.4543	0.25	0.359
Mof_O 	O 	0.59065	0.5009	0.193	-0.237
Mof_N 	N 	0.53243	0.8696	0.0639	-0.134
Mof_N 	N 	0.59504	0.7043	0.2623	-0.241
Mof_H 	H 	0.5912	0.7998	0.2646	0.151
Mof_C 	C 	0.5546	0.9277	0.0879	0.499
Mof_H 	H 	0.5595	0.024	0.0713	-0.149
Mof_C 	C 	0.5721	0.854	0.1382	-0.481
Mof_H 	H 	0.5871	0.9062	0.1585	0.203
Mof_C 	C 	0.56746	0.7156	0.1567	0.043
Mof_C 	C 	0.5475	0.6363	0.1192	-0.72
Mof_H 	H 	0.5456	0.5317	0.1245	0.277
Mof_C 	C 	0.53	0.7202	0.0722	0.736
Mof_H 	H 	0.5162	0.6694	0.0459	-0.217
Mof_C 	C 	0.58536	0.6315	0.205	0.202
Mof_C 	C 	0.61087	0.6454	0.3204	0.126
Mof_C 	C 	0.60445	0.6947	0.3903	-0.094
Mof_H 	H 	0.5896	0.7609	0.3974	0.076
Mof_C 	C 	0.61941	0.6483	0.4482	-0.054
Mof_H 	H 	0.6152	0.6839	0.4954	0.068
Mof_C 	C 	0.6408	0.5494	0.4387	0.078
Mof_C 	C 	0.64696	0.4986	0.3691	-0.059
Mof_H 	H 	0.6614	0.4297	0.362	0.054
Mof_C 	C 	0.63197	0.5489	0.3101	-0.111
Mof_H 	H 	0.6364	0.5161	0.2625	0.077
Mof_C 	C 	0.69908	0.6048	0.4605	-0.061
Mof_H 	H 	0.6896	0.6778	0.4332	0.068
Mof_C 	C 	0.72707	0.6044	0.4605	-0.074
Mof_H 	H 	0.7367	0.6767	0.433	0.08
Mof_O 	O 	0.78001	0.5219	0.3954	-0.273
Mof_N 	N 	0.77049	0.489	0.5141	-0.104
Mof_C 	C 	0.7876	0.5058	0.4587	-0.242
Mof_C 	C 	0.8621	0.52	0.4332	0.104
Mof_C 	C 	0.8359	0.5204	0.42	-0.025
Mof_C 	C 	0.8177	0.5038	0.4763	0.121
Mof_C 	C 	0.8284	0.4859	0.5448	-0.076
Mof_C 	C 	0.8578	0.489	0.5523	-0.326
Mof_O 	O 	0.76188	0.9707	0.2895	-0.365
Mof_C 	C 	0.7745	0.8369	0.3102	-0.001
Mof_H 	H 	0.7605	0.7591	0.3181	-0.009
Mof_H 	H 	0.7846	0.8515	0.3561	0.013
Mof_C 	C 	0.7936	0.79	0.252	-0.312
Mof_H 	H 	0.8024	0.696	0.266	0.15
Mof_H 	H 	0.8075	0.8664	0.2449	0.003
Mof_H 	H 	0.7834	0.7751	0.2068	0.041
Mof_C 	C 	0.5315	0.8982	0.1407	-0.326
Mof_H 	H 	0.5187	0.9672	0.1596	0.125
Mof_C 	C 	0.5492	0.8255	0.1868	0.249
Mof_H 	H 	0.5494	0.8473	0.2372	-0.058
Mof_C 	C 	0.5664	0.695	0.0834	0.678
Mof_H 	H 	0.578	0.624	0.0611	-0.175
Mof_C 	C 	0.5486	0.7758	0.0419	-0.83
Mof_H 	H 	0.5488	0.7575	0.9911	0.292
Mof_H 	H 	0.7766	0.4716	0.5581	0.417
Mof_H 	H 	0.8741	0.5316	0.3924	-0.438
Mof_H 	H 	0.8287	0.5356	0.3721	0.02
Mof_H 	H 	0.8167	0.472	0.5861	0.087
Mof_H 	H 	0.8655	0.48	0.6	0.566
Mof_O 	O 	0.77998	0.6121	0.3362	-0.32
Mof_H 	H 	0.7652	0.5889	0.3151	0.243
Mof_C 	C 	0.7849	0.7614	0.3234	0.183
Mof_H 	H 	0.7935	0.806	0.367	-0.007
Mof_H 	H 	0.7674	0.813	0.3148	0.051
Mof_C 	C 	0.8032	0.784	0.2594	-0.174
Mof_H 	H 	0.8067	0.8907	0.2529	0.161
Mof_H 	H 	0.7945	0.7441	0.2158	0.17
Mof_H 	H 	0.8206	0.7325	0.2676	0.039
Mof_O 	O 	0.90935	0.4991	0.693	-0.236
Mof_N 	N 	0.96757	0.1304	0.5639	-0.123
Mof_N 	N 	0.90496	0.2957	0.7623	-0.24
Mof_H 	H 	0.9088	0.2002	0.7646	0.145
Mof_C 	C 	0.9454	0.0723	0.5879	0.555
Mof_H 	H 	0.9405	0.976	0.5713	-0.156
Mof_C 	C 	0.9279	0.146	0.6382	-0.552
Mof_H 	H 	0.9129	0.0938	0.6585	0.22
Mof_C 	C 	0.93254	0.2844	0.6567	0.043
Mof_C 	C 	0.9525	0.3637	0.6192	-0.877
Mof_H 	H 	0.9544	0.4683	0.6245	0.331
Mof_C 	C 	0.97	0.2798	0.5722	0.911
Mof_H 	H 	0.9838	0.3306	0.5459	-0.276
Mof_C 	C 	0.91464	0.3685	0.705	0.202
Mof_C 	C 	0.88913	0.3546	0.8204	0.126
Mof_C 	C 	0.89555	0.3053	0.8903	-0.097
Mof_H 	H 	0.9104	0.2391	0.8974	0.07
Mof_C 	C 	0.88059	0.3517	0.9482	-0.053
Mof_H 	H 	0.8848	0.3161	0.9954	0.062
Mof_C 	C 	0.8592	0.4506	0.9387	0.07
Mof_C 	C 	0.85304	0.5014	0.8691	-0.056
Mof_H 	H 	0.8386	0.5703	0.862	0.052
Mof_C 	C 	0.86803	0.4511	0.8101	-0.111
Mof_H 	H 	0.8636	0.4839	0.7625	0.077
Mof_C 	C 	0.80092	0.3952	0.9605	-0.066
Mof_H 	H 	0.8104	0.3222	0.9332	0.065
Mof_C 	C 	0.77293	0.3956	0.9605	-0.087
Mof_H 	H 	0.7633	0.3233	0.933	0.08
Mof_O 	O 	0.71999	0.4781	0.8954	-0.251
Mof_N 	N 	0.72951	0.511	0.0141	-0.209
Mof_C 	C 	0.7124	0.4942	0.9587	-0.278
Mof_C 	C 	0.6379	0.48	0.9332	0.103
Mof_C 	C 	0.6641	0.4796	0.92	-0.041
Mof_C 	C 	0.6823	0.4962	0.9763	0.124
Mof_C 	C 	0.6716	0.5141	0.0448	-0.078
Mof_C 	C 	0.6422	0.511	0.0523	-0.325
Mof_O 	O 	0.73812	0.0293	0.7895	-0.377
Mof_C 	C 	0.7255	0.1631	0.8102	-0.001
Mof_H 	H 	0.7395	0.2409	0.8181	-0.01
Mof_H 	H 	0.7154	0.1485	0.8561	0.01
Mof_C 	C 	0.7064	0.21	0.752	-0.311
Mof_H 	H 	0.6976	0.304	0.766	0.15
Mof_H 	H 	0.6925	0.1336	0.7449	-0.001
Mof_H 	H 	0.7166	0.2249	0.7068	0.039
Mof_C 	C 	0.9685	0.1018	0.6407	-0.387
Mof_H 	H 	0.9813	0.0328	0.6596	0.138
Mof_C 	C 	0.9508	0.1745	0.6868	0.307
Mof_H 	H 	0.9506	0.1527	0.7372	-0.082
Mof_C 	C 	0.9336	0.305	0.5834	0.856
Mof_H 	H 	0.922	0.376	0.5611	-0.236
Mof_C 	C 	0.9514	0.2242	0.5419	-1.046
Mof_H 	H 	0.9512	0.2425	0.4911	0.365
Mof_H 	H 	0.7234	0.5284	0.0581	0.441
Mof_H 	H 	0.6259	0.4684	0.8924	-0.413
Mof_H 	H 	0.6713	0.4644	0.8721	0.025
Mof_H 	H 	0.6833	0.528	0.0861	0.084
Mof_H 	H 	0.6345	0.52	0.1	0.562
Mof_O 	O 	0.72002	0.3879	0.8362	-0.329
Mof_H 	H 	0.7348	0.4111	0.8151	0.246
Mof_C 	C 	0.7151	0.2386	0.8234	0.188
Mof_H 	H 	0.7065	0.194	0.867	-0.011
Mof_H 	H 	0.7326	0.187	0.8148	0.05
Mof_C 	C 	0.6968	0.216	0.7594	-0.176
Mof_H 	H 	0.6933	0.1093	0.7529	0.161
Mof_H 	H 	0.7055	0.2559	0.7158	0.171
Mof_H 	H 	0.6794	0.2675	0.7676	0.038
Mof_O 	O 	0.90935	0.5009	0.307	-0.239
Mof_N 	N 	0.96757	0.8696	0.4361	-0.145
Mof_N 	N 	0.90496	0.7043	0.2377	-0.242
Mof_H 	H 	0.9088	0.7998	0.2354	0.152
Mof_C 	C 	0.9454	0.9277	0.4121	0.301
Mof_H 	H 	0.9405	0.024	0.4287	-0.085
Mof_C 	C 	0.9279	0.854	0.3618	-0.292
Mof_H 	H 	0.9129	0.9062	0.3415	0.139
Mof_C 	C 	0.93254	0.7156	0.3433	0.025
Mof_C 	C 	0.9525	0.6363	0.3808	-0.399
Mof_H 	H 	0.9544	0.5317	0.3755	0.166
Mof_C 	C 	0.97	0.7202	0.4278	0.387
Mof_H 	H 	0.9838	0.6694	0.4541	-0.104
Mof_C 	C 	0.91464	0.6315	0.295	0.206
Mof_C 	C 	0.88913	0.6454	0.1796	0.124
Mof_C 	C 	0.89555	0.6947	0.1097	-0.093
Mof_H 	H 	0.9104	0.7609	0.1026	0.079
Mof_C 	C 	0.88059	0.6483	0.0518	-0.053
Mof_H 	H 	0.8848	0.6839	0.0046	0.071
Mof_C 	C 	0.8592	0.5494	0.0613	0.079
Mof_C 	C 	0.85304	0.4986	0.1309	-0.059
Mof_H 	H 	0.8386	0.4297	0.138	0.054
Mof_C 	C 	0.86803	0.5489	0.1899	-0.113
Mof_H 	H 	0.8636	0.5161	0.2375	0.077
Mof_C 	C 	0.80092	0.6048	0.0395	-0.061
Mof_H 	H 	0.8104	0.6778	0.0668	0.068
Mof_C 	C 	0.77293	0.6044	0.0395	-0.075
Mof_H 	H 	0.7633	0.6767	0.067	0.082
Mof_O 	O 	0.71999	0.5219	0.1046	-0.296
Mof_N 	N 	0.72951	0.489	0.9859	-0.003
Mof_C 	C 	0.7124	0.5058	0.0413	-0.203
Mof_C 	C 	0.6379	0.52	0.0668	0.101
Mof_C 	C 	0.6641	0.5204	0.08	-0.013
Mof_C 	C 	0.6823	0.5038	0.0237	0.117
Mof_C 	C 	0.6716	0.4859	0.9552	-0.072
Mof_C 	C 	0.6422	0.489	0.9477	-0.301
Mof_O 	O 	0.73812	0.9707	0.2105	-0.365
Mof_C 	C 	0.7255	0.8369	0.1898	-0.001
Mof_H 	H 	0.7395	0.7591	0.1819	-0.01
Mof_H 	H 	0.7154	0.8515	0.1439	0.014
Mof_C 	C 	0.7064	0.79	0.248	-0.309
Mof_H 	H 	0.6976	0.696	0.234	0.15
Mof_H 	H 	0.6925	0.8664	0.2551	0.003
Mof_H 	H 	0.7166	0.7751	0.2932	0.041
Mof_C 	C 	0.9685	0.8982	0.3593	-0.177
Mof_H 	H 	0.9813	0.9672	0.3404	0.079
Mof_C 	C 	0.9508	0.8255	0.3132	0.111
Mof_H 	H 	0.9506	0.8473	0.2628	-0.011
Mof_C 	C 	0.9336	0.695	0.4166	0.326
Mof_H 	H 	0.922	0.624	0.4389	-0.059
Mof_C 	C 	0.9514	0.7758	0.4581	-0.417
Mof_H 	H 	0.9512	0.7575	0.5089	0.162
Mof_H 	H 	0.7234	0.4716	0.9419	0.391
Mof_H 	H 	0.6259	0.5316	0.1076	-0.449
Mof_H 	H 	0.6713	0.5356	0.1279	0.017
Mof_H 	H 	0.6833	0.472	0.9139	0.091
Mof_H 	H 	0.6345	0.48	0.9	0.516
Mof_O 	O 	0.72002	0.6121	0.1638	-0.31
Mof_H 	H 	0.7348	0.5889	0.1849	0.241
Mof_C 	C 	0.7151	0.7614	0.1766	0.175
Mof_H 	H 	0.7065	0.806	0.133	-0.005
Mof_H 	H 	0.7326	0.813	0.1852	0.053
Mof_C 	C 	0.6968	0.784	0.2406	-0.172
Mof_H 	H 	0.6933	0.8907	0.2471	0.159
Mof_H 	H 	0.7055	0.7441	0.2842	0.169
Mof_H 	H 	0.6794	0.7325	0.2324	0.039
Mof_O 	O 	0.59065	0.4991	0.807	-0.239
Mof_N 	N 	0.53243	0.1304	0.9361	-0.137
Mof_N 	N 	0.59504	0.2957	0.7377	-0.241
Mof_H 	H 	0.5912	0.2002	0.7354	0.147
Mof_C 	C 	0.5546	0.0723	0.9121	0.352
Mof_H 	H 	0.5595	0.976	0.9287	-0.091
Mof_C 	C 	0.5721	0.146	0.8618	-0.359
Mof_H 	H 	0.5871	0.0938	0.8415	0.155
Mof_C 	C 	0.56746	0.2844	0.8433	0.024
Mof_C 	C 	0.5475	0.3637	0.8808	-0.551
Mof_H 	H 	0.5456	0.4683	0.8755	0.218
Mof_C 	C 	0.53	0.2798	0.9278	0.557
Mof_H 	H 	0.5162	0.3306	0.9541	-0.162
Mof_C 	C 	0.58536	0.3685	0.795	0.206
Mof_C 	C 	0.61087	0.3546	0.6796	0.123
Mof_C 	C 	0.60445	0.3053	0.6097	-0.093
Mof_H 	H 	0.5896	0.2391	0.6026	0.073
Mof_C 	C 	0.61941	0.3517	0.5518	-0.056
Mof_H 	H 	0.6152	0.3161	0.5046	0.067
Mof_C 	C 	0.6408	0.4506	0.5613	0.078
Mof_C 	C 	0.64696	0.5014	0.6309	-0.06
Mof_H 	H 	0.6614	0.5703	0.638	0.055
Mof_C 	C 	0.63197	0.4511	0.6899	-0.11
Mof_H 	H 	0.6364	0.4839	0.7375	0.076
Mof_C 	C 	0.69908	0.3952	0.5395	-0.061
Mof_H 	H 	0.6896	0.3222	0.5668	0.065
Mof_C 	C 	0.72707	0.3956	0.5395	-0.076
Mof_H 	H 	0.7367	0.3233	0.567	0.078
Mof_O 	O 	0.78001	0.4781	0.6046	-0.273
Mof_N 	N 	0.77049	0.511	0.4859	-0.105
Mof_C 	C 	0.7876	0.4942	0.5413	-0.243
Mof_C 	C 	0.8621	0.48	0.5668	0.102
Mof_C 	C 	0.8359	0.4796	0.58	-0.022
Mof_C 	C 	0.8177	0.4962	0.5237	0.122
Mof_C 	C 	0.8284	0.5141	0.4552	-0.076
Mof_C 	C 	0.8578	0.511	0.4477	-0.317
Mof_O 	O 	0.76188	0.0293	0.7105	-0.376
Mof_C 	C 	0.7745	0.1631	0.6898	-0.001
Mof_H 	H 	0.7605	0.2409	0.6819	-0.01
Mof_H 	H 	0.7846	0.1485	0.6439	0.011
Mof_C 	C 	0.7936	0.21	0.748	-0.308
Mof_H 	H 	0.8024	0.304	0.734	0.15
Mof_H 	H 	0.8075	0.1336	0.7551	-0.002
Mof_H 	H 	0.7834	0.2249	0.7932	0.038
Mof_C 	C 	0.5315	0.1018	0.8593	-0.236
Mof_H 	H 	0.5187	0.0328	0.8404	0.091
Mof_C 	C 	0.5492	0.1745	0.8132	0.167
Mof_H 	H 	0.5494	0.1527	0.7628	-0.034
Mof_C 	C 	0.5664	0.305	0.9166	0.5
Mof_H 	H 	0.578	0.376	0.9389	-0.12
Mof_C 	C 	0.5486	0.2242	0.9581	-0.627
Mof_H 	H 	0.5488	0.2425	0.0089	0.233
Mof_H 	H 	0.7766	0.5284	0.4419	0.417
Mof_H 	H 	0.8741	0.4684	0.6076	-0.454
Mof_H 	H 	0.8287	0.4644	0.6279	0.019
Mof_H 	H 	0.8167	0.528	0.4139	0.087
Mof_H 	H 	0.8655	0.52	0.4	0.546
Mof_O 	O 	0.77998	0.3879	0.6638	-0.319
Mof_H 	H 	0.7652	0.4111	0.6849	0.243
Mof_C 	C 	0.7849	0.2386	0.6766	0.18
Mof_H 	H 	0.7935	0.194	0.633	-0.008
Mof_H 	H 	0.7674	0.187	0.6852	0.052
Mof_C 	C 	0.8032	0.216	0.7406	-0.173
Mof_H 	H 	0.8067	0.1093	0.7471	0.159
Mof_H 	H 	0.7945	0.2559	0.7842	0.169
Mof_H 	H 	0.8206	0.2675	0.7324	0.037
Mof_O 	O 	0.40935	0.4991	0.807	-0.239
Mof_N 	N 	0.46757	0.1304	0.9361	-0.137
Mof_N 	N 	0.40496	0.2957	0.7377	-0.241
Mof_H 	H 	0.4088	0.2002	0.7354	0.147
Mof_C 	C 	0.4454	0.0723	0.9121	0.352
Mof_H 	H 	0.4405	0.976	0.9287	-0.091
Mof_C 	C 	0.4279	0.146	0.8618	-0.359
Mof_H 	H 	0.4129	0.0938	0.8415	0.155
Mof_C 	C 	0.43254	0.2844	0.8433	0.024
Mof_C 	C 	0.4525	0.3637	0.8808	-0.551
Mof_H 	H 	0.4544	0.4683	0.8755	0.218
Mof_C 	C 	0.47	0.2798	0.9278	0.557
Mof_H 	H 	0.4838	0.3306	0.9541	-0.162
Mof_C 	C 	0.41464	0.3685	0.795	0.206
Mof_C 	C 	0.38913	0.3546	0.6796	0.123
Mof_C 	C 	0.39555	0.3053	0.6097	-0.093
Mof_H 	H 	0.4104	0.2391	0.6026	0.073
Mof_C 	C 	0.38059	0.3517	0.5518	-0.056
Mof_H 	H 	0.3848	0.3161	0.5046	0.067
Mof_C 	C 	0.3592	0.4506	0.5613	0.078
Mof_C 	C 	0.35304	0.5014	0.6309	-0.06
Mof_H 	H 	0.3386	0.5703	0.638	0.055
Mof_C 	C 	0.36803	0.4511	0.6899	-0.11
Mof_H 	H 	0.3636	0.4839	0.7375	0.076
Mof_C 	C 	0.30092	0.3952	0.5395	-0.061
Mof_H 	H 	0.3104	0.3222	0.5668	0.065
Mof_C 	C 	0.27293	0.3956	0.5395	-0.076
Mof_H 	H 	0.2633	0.3233	0.567	0.078
Mof_O 	O 	0.21999	0.4781	0.6046	-0.273
Mof_N 	N 	0.22951	0.511	0.4859	-0.105
Mof_C 	C 	0.2124	0.4942	0.5413	-0.243
Mof_C 	C 	0.1379	0.48	0.5668	0.102
Mof_C 	C 	0.1641	0.4796	0.58	-0.022
Mof_C 	C 	0.1823	0.4962	0.5237	0.122
Mof_C 	C 	0.1716	0.5141	0.4552	-0.076
Mof_C 	C 	0.1422	0.511	0.4477	-0.317
Mof_O 	O 	0.23812	0.0293	0.7105	-0.376
Mof_C 	C 	0.2255	0.1631	0.6898	-0.001
Mof_H 	H 	0.2395	0.2409	0.6819	-0.01
Mof_H 	H 	0.2154	0.1485	0.6439	0.011
Mof_C 	C 	0.2064	0.21	0.748	-0.308
Mof_H 	H 	0.1976	0.304	0.734	0.15
Mof_H 	H 	0.1925	0.1336	0.7551	-0.002
Mof_H 	H 	0.2166	0.2249	0.7932	0.038
Mof_C 	C 	0.4685	0.1018	0.8593	-0.236
Mof_H 	H 	0.4813	0.0328	0.8404	0.091
Mof_C 	C 	0.4508	0.1745	0.8132	0.167
Mof_H 	H 	0.4506	0.1527	0.7628	-0.034
Mof_C 	C 	0.4336	0.305	0.9166	0.5
Mof_H 	H 	0.422	0.376	0.9389	-0.12
Mof_C 	C 	0.4514	0.2242	0.9581	-0.627
Mof_H 	H 	0.4512	0.2425	0.0089	0.233
Mof_H 	H 	0.2234	0.5284	0.4419	0.417
Mof_H 	H 	0.1259	0.4684	0.6076	-0.454
Mof_H 	H 	0.1713	0.4644	0.6279	0.019
Mof_H 	H 	0.1833	0.528	0.4139	0.087
Mof_H 	H 	0.1345	0.52	0.4	0.546
Mof_O 	O 	0.22002	0.3879	0.6638	-0.319
Mof_H 	H 	0.2348	0.4111	0.6849	0.243
Mof_C 	C 	0.2151	0.2386	0.6766	0.18
Mof_H 	H 	0.2065	0.194	0.633	-0.008
Mof_H 	H 	0.2326	0.187	0.6852	0.052
Mof_C 	C 	0.1968	0.216	0.7406	-0.173
Mof_H 	H 	0.1933	0.1093	0.7471	0.159
Mof_H 	H 	0.2055	0.2559	0.7842	0.169
Mof_H 	H 	0.1794	0.2675	0.7324	0.037
Mof_O 	O 	0.09065	0.5009	0.307	-0.239
Mof_N 	N 	0.03243	0.8696	0.4361	-0.145
Mof_N 	N 	0.09504	0.7043	0.2377	-0.242
Mof_H 	H 	0.0912	0.7998	0.2354	0.152
Mof_C 	C 	0.0546	0.9277	0.4121	0.301
Mof_H 	H 	0.0595	0.024	0.4287	-0.085
Mof_C 	C 	0.0721	0.854	0.3618	-0.292
Mof_H 	H 	0.0871	0.9062	0.3415	0.139
Mof_C 	C 	0.06746	0.7156	0.3433	0.025
Mof_C 	C 	0.0475	0.6363	0.3808	-0.399
Mof_H 	H 	0.0456	0.5317	0.3755	0.166
Mof_C 	C 	0.03	0.7202	0.4278	0.387
Mof_H 	H 	0.0162	0.6694	0.4541	-0.105
Mof_C 	C 	0.08536	0.6315	0.295	0.206
Mof_C 	C 	0.11087	0.6454	0.1796	0.124
Mof_C 	C 	0.10445	0.6947	0.1097	-0.093
Mof_H 	H 	0.0896	0.7609	0.1026	0.079
Mof_C 	C 	0.11941	0.6483	0.0518	-0.053
Mof_H 	H 	0.1152	0.6839	0.0046	0.071
Mof_C 	C 	0.1408	0.5494	0.0613	0.079
Mof_C 	C 	0.14696	0.4986	0.1309	-0.059
Mof_H 	H 	0.1614	0.4297	0.138	0.054
Mof_C 	C 	0.13197	0.5489	0.1899	-0.113
Mof_H 	H 	0.1364	0.5161	0.2375	0.077
Mof_C 	C 	0.19908	0.6048	0.0395	-0.061
Mof_H 	H 	0.1896	0.6778	0.0668	0.068
Mof_C 	C 	0.22707	0.6044	0.0395	-0.075
Mof_H 	H 	0.2367	0.6767	0.067	0.082
Mof_O 	O 	0.28001	0.5219	0.1046	-0.296
Mof_N 	N 	0.27049	0.489	0.9859	-0.003
Mof_C 	C 	0.2876	0.5058	0.0413	-0.203
Mof_C 	C 	0.3621	0.52	0.0668	0.101
Mof_C 	C 	0.3359	0.5204	0.08	-0.013
Mof_C 	C 	0.3177	0.5038	0.0237	0.117
Mof_C 	C 	0.3284	0.4859	0.9552	-0.072
Mof_C 	C 	0.3578	0.489	0.9477	-0.301
Mof_O 	O 	0.26188	0.9707	0.2105	-0.365
Mof_C 	C 	0.2745	0.8369	0.1898	-0.001
Mof_H 	H 	0.2605	0.7591	0.1819	-0.01
Mof_H 	H 	0.2846	0.8515	0.1439	0.014
Mof_C 	C 	0.2936	0.79	0.248	-0.309
Mof_H 	H 	0.3024	0.696	0.234	0.15
Mof_H 	H 	0.3075	0.8664	0.2551	0.003
Mof_H 	H 	0.2834	0.7751	0.2932	0.041
Mof_C 	C 	0.0315	0.8982	0.3593	-0.177
Mof_H 	H 	0.0187	0.9672	0.3404	0.079
Mof_C 	C 	0.0492	0.8255	0.3132	0.111
Mof_H 	H 	0.0494	0.8473	0.2628	-0.011
Mof_C 	C 	0.0664	0.695	0.4166	0.326
Mof_H 	H 	0.078	0.624	0.4389	-0.059
Mof_C 	C 	0.0486	0.7758	0.4581	-0.417
Mof_H 	H 	0.0488	0.7575	0.5089	0.162
Mof_H 	H 	0.2766	0.4716	0.9419	0.391
Mof_H 	H 	0.3741	0.5316	0.1076	-0.449
Mof_H 	H 	0.3287	0.5356	0.1279	0.017
Mof_H 	H 	0.3167	0.472	0.9139	0.091
Mof_H 	H 	0.3655	0.48	0.9	0.516
Mof_O 	O 	0.27998	0.6121	0.1638	-0.31
Mof_H 	H 	0.2652	0.5889	0.1849	0.241
Mof_C 	C 	0.2849	0.7614	0.1766	0.175
Mof_H 	H 	0.2935	0.806	0.133	-0.005
Mof_H 	H 	0.2674	0.813	0.1852	0.053
Mof_C 	C 	0.3032	0.784	0.2406	-0.172
Mof_H 	H 	0.3067	0.8907	0.2471	0.159
Mof_H 	H 	0.2945	0.7441	0.2842	0.169
Mof_H 	H 	0.3206	0.7325	0.2324	0.039
Mof_O 	O 	0.09065	0.4991	0.693	-0.236
Mof_N 	N 	0.03243	0.1304	0.5639	-0.123
Mof_N 	N 	0.09504	0.2957	0.7623	-0.24
Mof_H 	H 	0.0912	0.2002	0.7646	0.145
Mof_C 	C 	0.0546	0.0723	0.5879	0.555
Mof_H 	H 	0.0595	0.976	0.5713	-0.156
Mof_C 	C 	0.0721	0.146	0.6382	-0.552
Mof_H 	H 	0.0871	0.0938	0.6585	0.22
Mof_C 	C 	0.06746	0.2844	0.6567	0.043
Mof_C 	C 	0.0475	0.3637	0.6192	-0.877
Mof_H 	H 	0.0456	0.4683	0.6245	0.331
Mof_C 	C 	0.03	0.2798	0.5722	0.911
Mof_H 	H 	0.0162	0.3306	0.5459	-0.276
Mof_C 	C 	0.08536	0.3685	0.705	0.202
Mof_C 	C 	0.11087	0.3546	0.8204	0.126
Mof_C 	C 	0.10445	0.3053	0.8903	-0.097
Mof_H 	H 	0.0896	0.2391	0.8974	0.07
Mof_C 	C 	0.11941	0.3517	0.9482	-0.053
Mof_H 	H 	0.1152	0.3161	0.9954	0.062
Mof_C 	C 	0.1408	0.4506	0.9387	0.07
Mof_C 	C 	0.14696	0.5014	0.8691	-0.056
Mof_H 	H 	0.1614	0.5703	0.862	0.052
Mof_C 	C 	0.13197	0.4511	0.8101	-0.111
Mof_H 	H 	0.1364	0.4839	0.7625	0.077
Mof_C 	C 	0.19908	0.3952	0.9605	-0.066
Mof_H 	H 	0.1896	0.3222	0.9332	0.065
Mof_C 	C 	0.22707	0.3956	0.9605	-0.087
Mof_H 	H 	0.2367	0.3233	0.933	0.08
Mof_O 	O 	0.28001	0.4781	0.8954	-0.251
Mof_N 	N 	0.27049	0.511	0.0141	-0.209
Mof_C 	C 	0.2876	0.4942	0.9587	-0.278
Mof_C 	C 	0.3621	0.48	0.9332	0.103
Mof_C 	C 	0.3359	0.4796	0.92	-0.041
Mof_C 	C 	0.3177	0.4962	0.9763	0.124
Mof_C 	C 	0.3284	0.5141	0.0448	-0.078
Mof_C 	C 	0.3578	0.511	0.0523	-0.325
Mof_O 	O 	0.26188	0.0293	0.7895	-0.377
Mof_C 	C 	0.2745	0.1631	0.8102	-0.001
Mof_H 	H 	0.2605	0.2409	0.8181	-0.01
Mof_H 	H 	0.2846	0.1485	0.8561	0.01
Mof_C 	C 	0.2936	0.21	0.752	-0.311
Mof_H 	H 	0.3024	0.304	0.766	0.15
Mof_H 	H 	0.3075	0.1336	0.7449	-0.001
Mof_H 	H 	0.2834	0.2249	0.7068	0.039
Mof_C 	C 	0.0315	0.1018	0.6407	-0.387
Mof_H 	H 	0.0187	0.0328	0.6596	0.138
Mof_C 	C 	0.0492	0.1745	0.6868	0.307
Mof_H 	H 	0.0494	0.1527	0.7372	-0.082
Mof_C 	C 	0.0664	0.305	0.5834	0.856
Mof_H 	H 	0.078	0.376	0.5611	-0.236
Mof_C 	C 	0.0486	0.2242	0.5419	-1.046
Mof_H 	H 	0.0488	0.2425	0.4911	0.365
Mof_H 	H 	0.2766	0.5284	0.0581	0.441
Mof_H 	H 	0.3741	0.4684	0.8924	-0.413
Mof_H 	H 	0.3287	0.4644	0.8721	0.025
Mof_H 	H 	0.3167	0.528	0.0861	0.084
Mof_H 	H 	0.3655	0.52	0.1	0.562
Mof_O 	O 	0.27998	0.3879	0.8362	-0.329
Mof_H 	H 	0.2652	0.4111	0.8151	0.246
Mof_C 	C 	0.2849	0.2386	0.8234	0.188
Mof_H 	H 	0.2935	0.194	0.867	-0.011
Mof_H 	H 	0.2674	0.187	0.8148	0.05
Mof_C 	C 	0.3032	0.216	0.7594	-0.176
Mof_H 	H 	0.3067	0.1093	0.7529	0.161
Mof_H 	H 	0.2945	0.2559	0.7158	0.171
Mof_H 	H 	0.3206	0.2675	0.7676	0.038
Mof_O 	O 	0.40935	0.5009	0.193	-0.237
Mof_N 	N 	0.46757	0.8696	0.0639	-0.134
Mof_N 	N 	0.40496	0.7043	0.2623	-0.241
Mof_H 	H 	0.4088	0.7998	0.2646	0.151
Mof_C 	C 	0.4454	0.9277	0.0879	0.499
Mof_H 	H 	0.4405	0.024	0.0713	-0.149
Mof_C 	C 	0.4279	0.854	0.1382	-0.481
Mof_H 	H 	0.4129	0.9062	0.1585	0.203
Mof_C 	C 	0.43254	0.7156	0.1567	0.043
Mof_C 	C 	0.4525	0.6363	0.1192	-0.72
Mof_H 	H 	0.4544	0.5317	0.1245	0.277
Mof_C 	C 	0.47	0.7202	0.0722	0.736
Mof_H 	H 	0.4838	0.6694	0.0459	-0.217
Mof_C 	C 	0.41464	0.6315	0.205	0.202
Mof_C 	C 	0.38913	0.6454	0.3204	0.126
Mof_C 	C 	0.39555	0.6947	0.3903	-0.094
Mof_H 	H 	0.4104	0.7609	0.3974	0.076
Mof_C 	C 	0.38059	0.6483	0.4482	-0.054
Mof_H 	H 	0.3848	0.6839	0.4954	0.068
Mof_C 	C 	0.3592	0.5494	0.4387	0.078
Mof_C 	C 	0.35304	0.4986	0.3691	-0.059
Mof_H 	H 	0.3386	0.4297	0.362	0.054
Mof_C 	C 	0.36803	0.5489	0.3101	-0.111
Mof_H 	H 	0.3636	0.5161	0.2625	0.077
Mof_C 	C 	0.30092	0.6048	0.4605	-0.061
Mof_H 	H 	0.3104	0.6778	0.4332	0.068
Mof_C 	C 	0.27293	0.6044	0.4605	-0.074
Mof_H 	H 	0.2633	0.6767	0.433	0.08
Mof_O 	O 	0.21999	0.5219	0.3954	-0.273
Mof_N 	N 	0.22951	0.489	0.5141	-0.104
Mof_C 	C 	0.2124	0.5058	0.4587	-0.242
Mof_C 	C 	0.1379	0.52	0.4332	0.104
Mof_C 	C 	0.1641	0.5204	0.42	-0.025
Mof_C 	C 	0.1823	0.5038	0.4763	0.121
Mof_C 	C 	0.1716	0.4859	0.5448	-0.076
Mof_C 	C 	0.1422	0.489	0.5523	-0.326
Mof_O 	O 	0.23812	0.9707	0.2895	-0.365
Mof_C 	C 	0.2255	0.8369	0.3102	-0.001
Mof_H 	H 	0.2395	0.7591	0.3181	-0.009
Mof_H 	H 	0.2154	0.8515	0.3561	0.013
Mof_C 	C 	0.2064	0.79	0.252	-0.312
Mof_H 	H 	0.1976	0.696	0.266	0.15
Mof_H 	H 	0.1925	0.8664	0.2449	0.003
Mof_H 	H 	0.2166	0.7751	0.2068	0.041
Mof_C 	C 	0.4685	0.8982	0.1407	-0.326
Mof_H 	H 	0.4813	0.9672	0.1596	0.125
Mof_C 	C 	0.4508	0.8255	0.1868	0.249
Mof_H 	H 	0.4506	0.8473	0.2372	-0.058
Mof_C 	C 	0.4336	0.695	0.0834	0.678
Mof_H 	H 	0.422	0.624	0.0611	-0.175
Mof_C 	C 	0.4514	0.7758	0.0419	-0.83
Mof_H 	H 	0.4512	0.7575	0.9911	0.292
Mof_H 	H 	0.2234	0.4716	0.5581	0.417
Mof_H 	H 	0.1259	0.5316	0.3924	-0.438
Mof_H 	H 	0.1713	0.5356	0.3721	0.02
Mof_H 	H 	0.1833	0.472	0.5861	0.087
Mof_H 	H 	0.1345	0.48	0.6	0.567
Mof_O 	O 	0.22002	0.6121	0.3362	-0.32
Mof_H 	H 	0.2348	0.5889	0.3151	0.243
Mof_C 	C 	0.2151	0.7614	0.3234	0.183
Mof_H 	H 	0.2065	0.806	0.367	-0.007
Mof_H 	H 	0.2326	0.813	0.3148	0.051
Mof_C 	C 	0.1968	0.784	0.2594	-0.174
Mof_H 	H 	0.1933	0.8907	0.2529	0.161
Mof_H 	H 	0.2055	0.7441	0.2158	0.17
Mof_H 	H 	0.1794	0.7325	0.2676	0.039
Mof_Cd	Cd	0.5	0	-0	0.301
Mof_Cd	Cd	7.0486e-34	0	0.5	0.29
Mof_N 	N 	0.65577	0.5	0.5	-0.145
Mof_C 	C 	0.68451	0.5	0.5	0.088
Mof_C 	C 	0.74135	0.5	0.5	0.096
Mof_N 	N 	0.874	0.5	0.5	0.036
Mof_N 	N 	0.84423	0.5	-0	-0.141
Mof_C 	C 	0.81549	0.5	-0	0.095
Mof_C 	C 	0.75865	0.5	-0	0.108
Mof_N 	N 	0.626	0.5	-0	0.035
Mof_N 	N 	0.34423	0.5	0.5	-0.145
Mof_C 	C 	0.31549	0.5	0.5	0.088
Mof_C 	C 	0.25865	0.5	0.5	0.096
Mof_N 	N 	0.126	0.5	0.5	0.036
Mof_N 	N 	0.15577	0.5	-0	-0.141
Mof_C 	C 	0.18451	0.5	-0	0.095
Mof_C 	C 	0.24135	0.5	-0	0.108
Mof_N 	N 	0.374	0.5	-0	0.035
Mof_H 	H 	0.75	0.0457	0.75	0.361
Mof_H 	H 	0.75	0.9543	0.25	0.358
Mof_H 	H 	0.25	0.9543	0.25	0.358
Mof_H 	H 	0.25	0.0457	0.75	0.361
_end
