data_functionalizedCrystal
_audit_creation_method	'EQeq! by Chris Wilmer'
_symmetry_space_group_name_H-M	'P1'
_symmetry_Int_Tables_number	1
_symmetry_cell_setting	triclinic
loop_
_symmetry_equiv_pos_as_xyz
  x,y,z
_cell_length_a	7.8951
_cell_length_b	9.807
_cell_length_c	17.3671
_cell_angle_alpha	106.4
_cell_angle_beta	96.407
_cell_angle_gamma	90
loop_
_atom_site_label
_atom_site_type_symbol
_atom_site_fract_x
_atom_site_fract_y
_atom_site_fract_z
_atom_site_charge
Mof_Cd	Cd	0.25	0.52921	-0	0.399
Mof_Cd	Cd	0.75	0.47079	-0	0.398
Mof_H 	H 	0.7018	0.5427	0.222	0.029
Mof_H 	H 	0.8585	0.6521	0.3448	0.087
Mof_H 	H 	0.7242	0.0315	0.3204	0.087
Mof_H 	H 	0.5637	0.9221	0.199	0.021
Mof_H 	H 	0.6109	0.828	0.4508	0.061
Mof_H 	H 	0.5016	0.849	0.5686	0.044
Mof_H 	H 	0.6551	0.9707	0.6918	0.047
Mof_H 	H 	0.0829	0.931	0.3048	0.067
Mof_H 	H 	0.7982	0.3207	0.778	0.037
Mof_H 	H 	0.6415	0.3073	0.6552	0.083
Mof_H 	H 	0.7758	0.7111	0.6796	0.082
Mof_H 	H 	0.9363	0.7231	0.801	0.036
Mof_H 	H 	0.8891	0.3772	0.5492	0.058
Mof_H 	H 	0.9984	0.2804	0.4314	0.046
Mof_H 	H 	0.8449	0.2789	0.3082	0.041
Mof_H 	H 	0.4171	0.6262	0.6952	0.067
Mof_H 	H 	0.2982	0.4573	0.778	0.038
Mof_H 	H 	0.1415	0.3479	0.6552	0.082
Mof_H 	H 	0.2758	0.9685	0.6796	0.079
Mof_H 	H 	0.4363	0.0779	0.801	0.039
Mof_H 	H 	0.3891	0.172	0.5492	0.057
Mof_H 	H 	0.4984	0.151	0.4314	0.048
Mof_H 	H 	0.3449	0.0293	0.3082	0.04
Mof_H 	H 	0.9171	0.069	0.6952	0.064
Mof_H 	H 	0.2018	0.6793	0.222	0.03
Mof_H 	H 	0.3585	0.6927	0.3448	0.086
Mof_H 	H 	0.2242	0.2889	0.3204	0.085
Mof_H 	H 	0.0637	0.2769	0.199	0.023
Mof_H 	H 	0.1109	0.6228	0.4508	0.06
Mof_H 	H 	0.0016	0.7196	0.5686	0.046
Mof_H 	H 	0.1551	0.7211	0.6918	0.045
Mof_H 	H 	0.5829	0.3738	0.3048	0.065
Mof_C 	C 	0.5041	0.6477	0.1224	0.307
Mof_C 	C 	0.6146	0.72125	0.1987	-0.119
Mof_C 	C 	0.7046	0.64127	0.24214	0.057
Mof_C 	C 	0.7993	0.70702	0.31564	-0.147
Mof_C 	C 	0.806	0.85328	0.34576	0.1
Mof_C 	C 	0.7187	0.9328	0.3012	-0.153
Mof_C 	C 	0.6228	0.86719	0.22818	0.06
Mof_C 	C 	0.9069	0.92665	0.4255	-0.066
Mof_C 	C 	0.0673	0.98814	0.42648	0.03
Mof_C 	C 	0.8375	0.93697	0.49734	0.025
Mof_C 	C 	0.6742	0.87704	0.49928	-0.074
Mof_C 	C 	0.6086	0.88922	0.56944	-0.028
Mof_C 	C 	0.7013	0.96259	0.64378	-0.037
Mof_C 	C 	0.1426	0.97872	0.35444	-0.085
Mof_C 	C 	0.9959	0.5253	0.8776	0.294
Mof_C 	C 	0.8854	0.52255	0.8013	-0.097
Mof_C 	C 	0.7954	0.39913	0.75786	0.042
Mof_C 	C 	0.7007	0.39138	0.68436	-0.134
Mof_C 	C 	0.694	0.50752	0.65424	0.089
Mof_C 	C 	0.7813	0.6316	0.6988	-0.135
Mof_C 	C 	0.8772	0.63901	0.77182	0.044
Mof_C 	C 	0.5931	0.50115	0.5745	-0.056
Mof_C 	C 	0.4327	0.56166	0.57352	0.023
Mof_C 	C 	0.6625	0.43963	0.50266	0.019
Mof_C 	C 	0.8258	0.37776	0.50072	-0.067
Mof_C 	C 	0.8914	0.31978	0.43056	-0.035
Mof_C 	C 	0.7987	0.31881	0.35622	-0.028
Mof_C 	C 	0.3574	0.62428	0.64556	-0.076
Mof_C 	C 	0.4959	0.3523	0.8776	0.296
Mof_C 	C 	0.3854	0.27875	0.8013	-0.095
Mof_C 	C 	0.2954	0.35873	0.75786	0.04
Mof_C 	C 	0.2007	0.29298	0.68436	-0.13
Mof_C 	C 	0.194	0.14672	0.65424	0.085
Mof_C 	C 	0.2813	0.0672	0.6988	-0.128
Mof_C 	C 	0.3772	0.13281	0.77182	0.041
Mof_C 	C 	0.0931	0.07335	0.5745	-0.05
Mof_C 	C 	0.9327	0.01186	0.57352	0.017
Mof_C 	C 	0.1625	0.06303	0.50266	0.016
Mof_C 	C 	0.3258	0.12296	0.50072	-0.063
Mof_C 	C 	0.3914	0.11078	0.43056	-0.039
Mof_C 	C 	0.2987	0.03741	0.35622	-0.022
Mof_C 	C 	0.8574	0.02128	0.64556	-0.069
Mof_C 	C 	0.0041	0.4747	0.1224	0.309
Mof_C 	C 	0.1146	0.47745	0.1987	-0.117
Mof_C 	C 	0.2046	0.60087	0.24214	0.055
Mof_C 	C 	0.2993	0.60862	0.31564	-0.144
Mof_C 	C 	0.306	0.49248	0.34576	0.097
Mof_C 	C 	0.2187	0.3684	0.3012	-0.148
Mof_C 	C 	0.1228	0.36099	0.22818	0.057
Mof_C 	C 	0.4069	0.49885	0.4255	-0.061
Mof_C 	C 	0.5673	0.43834	0.42648	0.025
Mof_C 	C 	0.3375	0.56037	0.49734	0.022
Mof_C 	C 	0.1742	0.62224	0.49928	-0.069
Mof_C 	C 	0.1086	0.68022	0.56944	-0.032
Mof_C 	C 	0.2013	0.68119	0.64378	-0.03
Mof_C 	C 	0.6426	0.37572	0.35444	-0.079
Mof_O 	O 	0.388	0.71607	0.09534	-0.277
Mof_O 	O 	0.5263	0.51906	0.08792	-0.293
Mof_O 	O 	0.112	0.62073	0.90466	-0.235
Mof_O 	O 	0.9737	0.43114	0.91208	-0.251
Mof_O 	O 	0.612	0.28393	0.90466	-0.237
Mof_O 	O 	0.4737	0.48094	0.91208	-0.25
Mof_O 	O 	0.888	0.37927	0.09534	-0.278
Mof_O 	O 	0.0263	0.56886	0.08792	-0.293
_end
