data_functionalizedCrystal
_audit_creation_method	'EQeq! by Chris Wilmer'
_symmetry_space_group_name_H-M	'P1'
_symmetry_Int_Tables_number	1
_symmetry_cell_setting	triclinic
loop_
_symmetry_equiv_pos_as_xyz
  x,y,z
_cell_length_a	8.904
_cell_length_b	9.2466
_cell_length_c	9.2466
_cell_angle_alpha	76.5959
_cell_angle_beta	61.2183
_cell_angle_gamma	61.2183
loop_
_atom_site_label
_atom_site_type_symbol
_atom_site_fract_x
_atom_site_fract_y
_atom_site_fract_z
_atom_site_charge
Mof_K 	K 	0.875	0.25	0.25	2.583
Mof_K 	K 	0.125	0.75	0.75	2.583
Mof_Y 	Y 	0.625	0.75	0.75	1.547
Mof_Y 	Y 	0.375	0.25	0.25	1.547
Mof_C 	C 	0.5785	0.4785	0.0255	0.231
Mof_C 	C 	0.5825	0.0215	0.4745	0.231
Mof_C 	C 	0.604	0.9745	0.9785	0.243
Mof_C 	C 	0.057	0.5255	0.5215	0.233
Mof_C 	C 	0.4215	0.5215	0.9745	0.231
Mof_C 	C 	0.4175	0.9785	0.5255	0.231
Mof_C 	C 	0.396	0.0255	0.0215	0.243
Mof_C 	C 	0.943	0.4745	0.4785	0.233
Mof_O 	O 	0.6919	0.5436	0.9406	-0.564
Mof_O 	O 	0.6087	0.3534	0.118	-0.703
Mof_O 	O 	0.6761	0.9564	0.5594	-0.564
Mof_O 	O 	0.5801	0.1466	0.382	-0.702
Mof_O 	O 	0.6325	0.0594	0.0436	-0.576
Mof_O 	O 	0.7267	0.882	0.8534	-0.697
Mof_O 	O 	0.2355	0.4406	0.4564	-0.569
Mof_O 	O 	0.9621	0.618	0.6466	-0.693
Mof_O 	O 	0.3081	0.4564	0.0594	-0.564
Mof_O 	O 	0.3913	0.6466	0.882	-0.703
Mof_O 	O 	0.3239	0.0436	0.4406	-0.564
Mof_O 	O 	0.4199	0.8534	0.618	-0.702
Mof_O 	O 	0.3675	0.9406	0.9564	-0.576
Mof_O 	O 	0.2733	0.118	0.1466	-0.697
Mof_O 	O 	0.7645	0.5594	0.5436	-0.569
Mof_O 	O 	0.0379	0.382	0.3534	-0.693
_end
