data_functionalizedCrystal
_audit_creation_method	'EQeq! by Chris Wilmer'
_symmetry_space_group_name_H-M	'P1'
_symmetry_Int_Tables_number	1
_symmetry_cell_setting	triclinic
loop_
_symmetry_equiv_pos_as_xyz
  x,y,z
_cell_length_a	24.6803
_cell_length_b	10.5966
_cell_length_c	19.9825
_cell_angle_alpha	90
_cell_angle_beta	99.515
_cell_angle_gamma	90
loop_
_atom_site_label
_atom_site_type_symbol
_atom_site_fract_x
_atom_site_fract_y
_atom_site_fract_z
_atom_site_charge
Mof_W 	W 	0.39665	0.77149	0.71032	1.075
Mof_W 	W 	0.38151	0.98954	0.82811	1.16
Mof_W 	W 	0.4853	0.24111	0.86776	1.321
Mof_W 	W 	0.39832	0.22945	0.69858	1.063
Mof_W 	W 	0.47565	0.75997	0.86331	1.367
Mof_W 	W 	0.42312	0.01187	0.58521	0.917
Mof_O 	O 	0.4558	0.9077	0.7782	-0.71
Mof_O 	O 	0.3757	0.1389	0.6172	-0.441
Mof_O 	O 	0.5298	0.087	0.8103	-0.78
Mof_O 	O 	0.549	0.3147	0.8474	-0.47
Mof_O 	O 	0.3513	0.8581	0.7613	-0.446
Mof_O 	O 	0.3727	0.1023	0.7507	-0.536
Mof_O 	O 	0.5368	0.7218	0.8214	-0.487
Mof_O 	O 	0.4271	0.6814	0.7936	-0.465
Mof_O 	O 	0.4683	0.1419	0.5631	-0.454
Mof_O 	O 	0.413	0.8537	0.8841	-0.466
Mof_O 	O 	0.4443	0.2783	0.7823	-0.491
Mof_O 	O 	0.52	0.8917	0.9086	-0.431
Mof_O 	O 	0.4318	0.1084	0.8722	-0.549
Mof_O 	O 	0.391	0.8958	0.6454	-0.417
Mof_O 	O 	0.4642	0.3551	0.9205	-0.453
Mof_O 	O 	0.4803	0.6454	0.924	-0.482
Mof_N 	N 	0.573	0.4756	0.9803	-0.203
Mof_C 	C 	0.6068	0.3723	0.9968	0.153
Mof_H 	H 	0.5979	0.2995	0.0186	-0.028
Mof_N 	N 	0.6562	0.3961	0.9751	-0.161
Mof_C 	C 	0.6529	0.5141	0.9451	-0.001
Mof_H 	H 	0.6804	0.5535	0.9262	0.007
Mof_C 	C 	0.6015	0.5632	0.9483	0.016
Mof_H 	H 	0.5884	0.6415	0.9319	0.017
Mof_C 	C 	0.7099	0.2328	0.0396	-0.206
Mof_H 	H 	0.6827	0.2217	0.0662	0.087
Mof_C 	C 	0.7028	0.3205	0.9878	0.181
Mof_C 	C 	0.7429	0.338	0.948	-0.167
Mof_H 	H 	0.738	0.3977	0.9133	0.065
Mof_W 	W 	0.89665	0.27149	0.71032	1.054
Mof_W 	W 	0.88151	0.48954	0.82811	1.026
Mof_W 	W 	0.9853	0.74111	0.86776	1.472
Mof_W 	W 	0.89832	0.72945	0.69858	1.087
Mof_W 	W 	0.97565	0.25997	0.86331	1.492
Mof_W 	W 	0.92312	0.51187	0.58521	1.052
Mof_O 	O 	0.9558	0.4077	0.7782	-0.711
Mof_O 	O 	0.8757	0.6389	0.6172	-0.443
Mof_O 	O 	0.0298	0.587	0.8103	-0.804
Mof_O 	O 	0.049	0.8147	0.8474	-0.509
Mof_O 	O 	0.8513	0.3581	0.7613	-0.455
Mof_O 	O 	0.8727	0.6023	0.7507	-0.475
Mof_O 	O 	0.0368	0.2218	0.8214	-0.555
Mof_O 	O 	0.9271	0.1814	0.7936	-0.484
Mof_O 	O 	0.9683	0.6419	0.5631	-0.397
Mof_O 	O 	0.913	0.3537	0.8841	-0.467
Mof_O 	O 	0.9443	0.7783	0.7823	-0.476
Mof_O 	O 	0.02	0.3917	0.9086	-0.556
Mof_O 	O 	0.9318	0.6084	0.8722	-0.482
Mof_O 	O 	0.891	0.3958	0.6454	-0.477
Mof_O 	O 	0.9642	0.8551	0.9205	-0.406
Mof_O 	O 	0.9803	0.1454	0.924	-0.477
Mof_N 	N 	0.073	0.9756	0.9803	-0.15
Mof_C 	C 	0.1068	0.8723	0.9968	0.167
Mof_H 	H 	0.0979	0.7995	0.0186	-0.032
Mof_N 	N 	0.1562	0.8961	0.9751	-0.122
Mof_C 	C 	0.1529	0.0141	0.9451	-0.074
Mof_H 	H 	0.1804	0.0535	0.9262	-0
Mof_C 	C 	0.1015	0.0632	0.9483	-0.059
Mof_H 	H 	0.0884	0.1415	0.9319	0.018
Mof_C 	C 	0.2099	0.7328	0.0396	-0.208
Mof_H 	H 	0.1827	0.7217	0.0662	0.094
Mof_C 	C 	0.2028	0.8205	0.9878	0.198
Mof_C 	C 	0.2429	0.838	0.948	-0.17
Mof_H 	H 	0.238	0.8977	0.9133	0.089
Mof_W 	W 	0.60335	0.77149	0.78968	1.075
Mof_W 	W 	0.61849	0.98954	0.67189	1.154
Mof_W 	W 	0.5147	0.24111	0.63224	1.319
Mof_W 	W 	0.60168	0.22945	0.80142	1.06
Mof_W 	W 	0.52435	0.75997	0.63669	1.366
Mof_W 	W 	0.57688	0.01187	0.91479	0.929
Mof_O 	O 	0.5442	0.9077	0.7218	-0.711
Mof_O 	O 	0.6243	0.1389	0.8828	-0.44
Mof_O 	O 	0.4702	0.087	0.6897	-0.78
Mof_O 	O 	0.451	0.3147	0.6526	-0.47
Mof_O 	O 	0.6487	0.8581	0.7387	-0.446
Mof_O 	O 	0.6273	0.1023	0.7493	-0.535
Mof_O 	O 	0.4632	0.7218	0.6786	-0.487
Mof_O 	O 	0.5729	0.6814	0.7064	-0.466
Mof_O 	O 	0.5317	0.1419	0.9369	-0.446
Mof_O 	O 	0.587	0.8537	0.6159	-0.47
Mof_O 	O 	0.5557	0.2783	0.7177	-0.492
Mof_O 	O 	0.48	0.8917	0.5914	-0.433
Mof_O 	O 	0.5682	0.1084	0.6278	-0.553
Mof_O 	O 	0.609	0.8958	0.8546	-0.417
Mof_O 	O 	0.5358	0.3551	0.5795	-0.465
Mof_O 	O 	0.5197	0.6454	0.576	-0.492
Mof_N 	N 	0.427	0.4756	0.5197	-0.203
Mof_C 	C 	0.3932	0.3723	0.5032	0.096
Mof_H 	H 	0.4021	0.2995	0.4814	0.012
Mof_N 	N 	0.3438	0.3961	0.5249	-0.139
Mof_C 	C 	0.3471	0.5141	0.5549	-0.008
Mof_H 	H 	0.3196	0.5535	0.5738	0.009
Mof_C 	C 	0.3985	0.5632	0.5517	0.016
Mof_H 	H 	0.4116	0.6415	0.5681	0.013
Mof_C 	C 	0.2901	0.2328	0.4604	-0.098
Mof_H 	H 	0.3173	0.2217	0.4338	0.055
Mof_C 	C 	0.2972	0.3205	0.5122	0.094
Mof_C 	C 	0.2571	0.338	0.552	-0.085
Mof_H 	H 	0.262	0.3977	0.5867	0.036
Mof_W 	W 	0.10335	0.27149	0.78968	1.056
Mof_W 	W 	0.11849	0.48954	0.67189	1.004
Mof_W 	W 	0.0147	0.74111	0.63224	1.169
Mof_W 	W 	0.10168	0.72945	0.80142	1.082
Mof_W 	W 	0.02435	0.25997	0.63669	1.233
Mof_W 	W 	0.07688	0.51187	0.91479	1.071
Mof_O 	O 	0.0442	0.4077	0.7218	-0.761
Mof_O 	O 	0.1243	0.6389	0.8828	-0.442
Mof_O 	O 	0.9702	0.587	0.6897	-0.708
Mof_O 	O 	0.951	0.8147	0.6526	-0.397
Mof_O 	O 	0.1487	0.3581	0.7387	-0.449
Mof_O 	O 	0.1273	0.6023	0.7493	-0.471
Mof_O 	O 	0.9632	0.2218	0.6786	-0.436
Mof_O 	O 	0.0729	0.1814	0.7064	-0.475
Mof_O 	O 	0.0317	0.6419	0.9369	-0.506
Mof_O 	O 	0.087	0.3537	0.6159	-0.457
Mof_O 	O 	0.0557	0.7783	0.7177	-0.477
Mof_O 	O 	0.98	0.3917	0.5914	-0.426
Mof_O 	O 	0.0682	0.6084	0.6278	-0.485
Mof_O 	O 	0.109	0.3958	0.8546	-0.48
Mof_O 	O 	0.0358	0.8551	0.5795	-0.428
Mof_O 	O 	0.0197	0.1454	0.576	-0.523
Mof_N 	N 	0.927	0.9756	0.5197	-0.12
Mof_C 	C 	0.8932	0.8723	0.5032	0.112
Mof_H 	H 	0.9021	0.7995	0.4814	0.016
Mof_N 	N 	0.8438	0.8961	0.5249	-0.1
Mof_C 	C 	0.8471	0.0141	0.5549	-0.082
Mof_H 	H 	0.8196	0.0535	0.5738	0.001
Mof_C 	C 	0.8985	0.0632	0.5517	-0.051
Mof_H 	H 	0.9116	0.1415	0.5681	0.035
Mof_C 	C 	0.7901	0.7328	0.4604	-0.09
Mof_H 	H 	0.8173	0.7217	0.4338	0.059
Mof_C 	C 	0.7972	0.8205	0.5122	0.102
Mof_C 	C 	0.7571	0.838	0.552	-0.08
Mof_H 	H 	0.762	0.8977	0.5867	0.056
Mof_W 	W 	0.60335	0.22851	0.28968	1.068
Mof_W 	W 	0.61849	0.01046	0.17189	0.862
Mof_W 	W 	0.5147	0.75889	0.13224	1.317
Mof_W 	W 	0.60168	0.77055	0.30142	1.065
Mof_W 	W 	0.52435	0.24003	0.13669	1.369
Mof_W 	W 	0.57688	0.98813	0.41479	1.202
Mof_O 	O 	0.5442	0.0923	0.2218	-0.758
Mof_O 	O 	0.6243	0.8611	0.3828	-0.443
Mof_O 	O 	0.4702	0.913	0.1897	-0.721
Mof_O 	O 	0.451	0.6853	0.1526	-0.472
Mof_O 	O 	0.6487	0.1419	0.2387	-0.451
Mof_O 	O 	0.6273	0.8977	0.2493	-0.41
Mof_O 	O 	0.4632	0.2782	0.1786	-0.49
Mof_O 	O 	0.5729	0.3186	0.2064	-0.464
Mof_O 	O 	0.5317	0.8581	0.4369	-0.461
Mof_O 	O 	0.587	0.1463	0.1159	-0.459
Mof_O 	O 	0.5557	0.7217	0.2177	-0.487
Mof_O 	O 	0.48	0.1083	0.0914	-0.559
Mof_O 	O 	0.5682	0.8916	0.1278	-0.424
Mof_O 	O 	0.609	0.1042	0.3546	-0.54
Mof_O 	O 	0.5358	0.6449	0.0795	-0.463
Mof_O 	O 	0.5197	0.3546	0.076	-0.501
Mof_N 	N 	0.427	0.5244	0.0197	-0.2
Mof_C 	C 	0.3932	0.6277	0.0032	0.035
Mof_H 	H 	0.4021	0.7005	0.9814	0.056
Mof_N 	N 	0.3438	0.6039	0.0249	-0.116
Mof_C 	C 	0.3471	0.4859	0.0549	-0.021
Mof_H 	H 	0.3196	0.4465	0.0738	0.002
Mof_C 	C 	0.3985	0.4368	0.0517	0.011
Mof_H 	H 	0.4116	0.3585	0.0681	0.001
Mof_C 	C 	0.2901	0.7672	0.9604	0.039
Mof_H 	H 	0.3173	0.7783	0.9338	0.018
Mof_C 	C 	0.2972	0.6795	0.0122	-0.009
Mof_C 	C 	0.2571	0.662	0.052	0.018
Mof_H 	H 	0.262	0.6023	0.0867	-0.001
Mof_W 	W 	0.10335	0.72851	0.28968	1.089
Mof_W 	W 	0.11849	0.51046	0.17189	0.992
Mof_W 	W 	0.0147	0.25889	0.13224	1.155
Mof_W 	W 	0.10168	0.27055	0.30142	1.039
Mof_W 	W 	0.02435	0.74003	0.13669	1.236
Mof_W 	W 	0.07688	0.48813	0.41479	1.064
Mof_O 	O 	0.0442	0.5923	0.2218	-0.761
Mof_O 	O 	0.1243	0.3611	0.3828	-0.441
Mof_O 	O 	0.9702	0.413	0.1897	-0.698
Mof_O 	O 	0.951	0.1853	0.1526	-0.427
Mof_O 	O 	0.1487	0.6419	0.2387	-0.442
Mof_O 	O 	0.1273	0.3977	0.2493	-0.471
Mof_O 	O 	0.9632	0.7782	0.1786	-0.419
Mof_O 	O 	0.0729	0.8186	0.2064	-0.442
Mof_O 	O 	0.0317	0.3581	0.4369	-0.517
Mof_O 	O 	0.087	0.6463	0.1159	-0.458
Mof_O 	O 	0.0557	0.2217	0.2177	-0.501
Mof_O 	O 	0.98	0.6083	0.0914	-0.429
Mof_O 	O 	0.0682	0.3916	0.1278	-0.492
Mof_O 	O 	0.109	0.6042	0.3546	-0.48
Mof_O 	O 	0.0358	0.1449	0.0795	-0.492
Mof_O 	O 	0.0197	0.8546	0.076	-0.483
Mof_N 	N 	0.927	0.0244	0.0197	-0.229
Mof_C 	C 	0.8932	0.1277	0.0032	0.031
Mof_H 	H 	0.9021	0.2005	0.9814	0.056
Mof_N 	N 	0.8438	0.1039	0.0249	-0.158
Mof_C 	C 	0.8471	0.9859	0.0549	0.054
Mof_H 	H 	0.8196	0.9465	0.0738	0.01
Mof_C 	C 	0.8985	0.9368	0.0517	0.086
Mof_H 	H 	0.9116	0.8585	0.0681	0.004
Mof_C 	C 	0.7901	0.2672	0.9604	0.021
Mof_H 	H 	0.8173	0.2783	0.9338	0.017
Mof_C 	C 	0.7972	0.1795	0.0122	-0.01
Mof_C 	C 	0.7571	0.162	0.052	0.005
Mof_H 	H 	0.762	0.1023	0.0867	-0.018
Mof_W 	W 	0.39665	0.22851	0.21032	1.067
Mof_W 	W 	0.38151	0.01046	0.32811	0.865
Mof_W 	W 	0.4853	0.75889	0.36776	1.318
Mof_W 	W 	0.39832	0.77055	0.19858	1.067
Mof_W 	W 	0.47565	0.24003	0.36331	1.37
Mof_W 	W 	0.42312	0.98813	0.08521	1.19
Mof_O 	O 	0.4558	0.0923	0.2782	-0.759
Mof_O 	O 	0.3757	0.8611	0.1172	-0.445
Mof_O 	O 	0.5298	0.913	0.3103	-0.722
Mof_O 	O 	0.549	0.6853	0.3474	-0.473
Mof_O 	O 	0.3513	0.1419	0.2613	-0.451
Mof_O 	O 	0.3727	0.8977	0.2507	-0.41
Mof_O 	O 	0.5368	0.2782	0.3214	-0.49
Mof_O 	O 	0.4271	0.3186	0.2936	-0.462
Mof_O 	O 	0.4683	0.8581	0.0631	-0.468
Mof_O 	O 	0.413	0.1463	0.3841	-0.455
Mof_O 	O 	0.4443	0.7217	0.2823	-0.486
Mof_O 	O 	0.52	0.1083	0.4086	-0.555
Mof_O 	O 	0.4318	0.8916	0.3722	-0.42
Mof_O 	O 	0.391	0.1042	0.1454	-0.541
Mof_O 	O 	0.4642	0.6449	0.4205	-0.455
Mof_O 	O 	0.4803	0.3546	0.424	-0.494
Mof_N 	N 	0.573	0.5244	0.4803	-0.204
Mof_C 	C 	0.6068	0.6277	0.4968	0.093
Mof_H 	H 	0.5979	0.7005	0.5186	0.014
Mof_N 	N 	0.6562	0.6039	0.4751	-0.138
Mof_C 	C 	0.6529	0.4859	0.4451	-0.013
Mof_H 	H 	0.6804	0.4465	0.4262	0.001
Mof_C 	C 	0.6015	0.4368	0.4483	0.011
Mof_H 	H 	0.5884	0.3585	0.4319	0.004
Mof_C 	C 	0.7099	0.7672	0.5396	-0.078
Mof_H 	H 	0.6827	0.7783	0.5662	0.053
Mof_C 	C 	0.7028	0.6795	0.4878	0.086
Mof_C 	C 	0.7429	0.662	0.448	-0.071
Mof_H 	H 	0.738	0.6023	0.4133	0.031
Mof_W 	W 	0.89665	0.72851	0.21032	1.087
Mof_W 	W 	0.88151	0.51046	0.32811	1.016
Mof_W 	W 	0.9853	0.25889	0.36776	1.472
Mof_W 	W 	0.89832	0.27055	0.19858	1.046
Mof_W 	W 	0.97565	0.74003	0.36331	1.502
Mof_W 	W 	0.92312	0.48813	0.08521	1.046
Mof_O 	O 	0.9558	0.5923	0.2782	-0.71
Mof_O 	O 	0.8757	0.3611	0.1172	-0.443
Mof_O 	O 	0.0298	0.413	0.3103	-0.798
Mof_O 	O 	0.049	0.1853	0.3474	-0.545
Mof_O 	O 	0.8513	0.6419	0.2613	-0.448
Mof_O 	O 	0.8727	0.3977	0.2507	-0.475
Mof_O 	O 	0.0368	0.7782	0.3214	-0.54
Mof_O 	O 	0.9271	0.8186	0.2936	-0.452
Mof_O 	O 	0.9683	0.3581	0.0631	-0.403
Mof_O 	O 	0.913	0.6463	0.3841	-0.467
Mof_O 	O 	0.9443	0.2217	0.2823	-0.5
Mof_O 	O 	0.02	0.6083	0.4086	-0.561
Mof_O 	O 	0.9318	0.3916	0.3722	-0.488
Mof_O 	O 	0.891	0.6042	0.1454	-0.477
Mof_O 	O 	0.9642	0.1449	0.4205	-0.47
Mof_O 	O 	0.9803	0.8546	0.424	-0.44
Mof_N 	N 	0.073	0.0244	0.4803	-0.265
Mof_C 	C 	0.1068	0.1277	0.4968	0.078
Mof_H 	H 	0.0979	0.2005	0.5186	0.013
Mof_N 	N 	0.1562	0.1039	0.4751	-0.179
Mof_C 	C 	0.1529	0.9859	0.4451	0.063
Mof_H 	H 	0.1804	0.9465	0.4262	0.009
Mof_C 	C 	0.1015	0.9368	0.4483	0.081
Mof_H 	H 	0.0884	0.8585	0.4319	-0.015
Mof_C 	C 	0.2099	0.2672	0.5396	-0.086
Mof_H 	H 	0.1827	0.2783	0.5662	0.05
Mof_C 	C 	0.2028	0.1795	0.4878	0.077
Mof_C 	C 	0.2429	0.162	0.448	-0.077
Mof_H 	H 	0.238	0.1023	0.4133	0.011
Mof_Si	Si	0.5	0	0.75	1.889
Mof_Si	Si	2.65315e-33	0.5	0.75	1.891
Mof_Si	Si	0.5	0	0.25	1.872
Mof_Si	Si	5.51442e-18	0.5	0.25	1.88
Mof_Cu	Cu	0.5	0.5	-0	0.927
Mof_Cu	Cu	-0	0	-0	0.849
Mof_Cu	Cu	0.5	0.5	0.5	0.94
Mof_Cu	Cu	1.76877e-33	0	0.5	0.861
_end
