# CIF file generated by openbabel 3.1.0, see https://openbabel.org
data_I
_chemical_name_common 'image0'
_cell_length_a 17.3088
_cell_length_b 17.4277
_cell_length_c 7.8949
_cell_angle_alpha 90
_cell_angle_beta 90
_cell_angle_gamma 90
_space_group_name_H-M_alt 'P 1'
_space_group_name_Hall 'P 1'
loop_
    _symmetry_equiv_pos_as_xyz
    x,y,z
loop_
    _atom_site_label
    _atom_site_type_symbol
    _atom_site_fract_x
    _atom_site_fract_y
    _atom_site_fract_z
    _atom_site_occupancy
    Ca1      Ca       0.91951    0.30382    0.17959    1.000
    O1       O        0.92750    0.62770    0.54770    1.000
    O2       O        0.97820    0.61030    0.80410    1.000
    O3       O        0.84327    0.36129    0.98340    1.000
    O4       O        0.82114    0.28608    0.68460    1.000
    O5       O        0.84481    0.35802    0.38310    1.000
    C1       C        0.94120    0.58570    0.67800    1.000
    C2       C        0.91020    0.50630    0.68000    1.000
    C3       C        0.89560    0.46990    0.83560    1.000
    H1       H        0.90760    0.49470    0.93650    1.000
    C4       C        0.86300    0.39630    0.83870    1.000
    C5       C        0.84920    0.35840    0.68220    1.000
    C6       C        0.86330    0.39470    0.52680    1.000
    C7       C        0.89430    0.46900    0.52790    1.000
    H2       H        0.90440    0.49370    0.42590    1.000
    O6       O        0.99240    0.25510    0.92660    1.000
    K1       K        0.78394    0.48207    0.18251    1.000
    O7       O        0.73240    0.59180    0.94160    1.000
    Ca2      Ca       0.58049    0.19618    0.17959    1.000
    O8       O        0.57250    0.87230    0.54770    1.000
    O9       O        0.52180    0.88970    0.80410    1.000
    O10      O        0.65673    0.13871    0.98340    1.000
    O11      O        0.67886    0.21392    0.68460    1.000
    O12      O        0.65519    0.14198    0.38310    1.000
    C8       C        0.55880    0.91430    0.67800    1.000
    C9       C        0.58980    0.99370    0.68000    1.000
    C10      C        0.60440    0.03010    0.83560    1.000
    H3       H        0.59240    0.00530    0.93650    1.000
    C11      C        0.63700    0.10370    0.83870    1.000
    C12      C        0.65080    0.14160    0.68220    1.000
    C13      C        0.63670    0.10530    0.52680    1.000
    C14      C        0.60570    0.03100    0.52790    1.000
    H4       H        0.59560    0.00630    0.42590    1.000
    O13      O        0.50760    0.24490    0.92660    1.000
    K2       K        0.71606    0.01793    0.18251    1.000
    O14      O        0.76760    0.90820    0.94160    1.000
    Ca3      Ca       0.08049    0.80382    0.32041    1.000
    O15      O        0.07250    0.12770    0.95230    1.000
    O16      O        0.02180    0.11030    0.69590    1.000
    O17      O        0.15673    0.86129    0.51660    1.000
    O18      O        0.17886    0.78608    0.81540    1.000
    O19      O        0.15519    0.85802    0.11690    1.000
    C15      C        0.05880    0.08570    0.82200    1.000
    C16      C        0.08980    0.00630    0.82000    1.000
    C17      C        0.10440    0.96990    0.66440    1.000
    H5       H        0.09240    0.99470    0.56350    1.000
    C18      C        0.13700    0.89630    0.66130    1.000
    C19      C        0.15080    0.85840    0.81780    1.000
    C20      C        0.13670    0.89470    0.97320    1.000
    C21      C        0.10570    0.96900    0.97210    1.000
    H6       H        0.09560    0.99370    0.07410    1.000
    O20      O        0.00760    0.75510    0.57340    1.000
    K3       K        0.21606    0.98207    0.31749    1.000
    O21      O        0.26760    0.09180    0.55840    1.000
    Ca4      Ca       0.41951    0.69618    0.32041    1.000
    O22      O        0.42750    0.37230    0.95230    1.000
    O23      O        0.47820    0.38970    0.69590    1.000
    O24      O        0.34327    0.63871    0.51660    1.000
    O25      O        0.32114    0.71392    0.81540    1.000
    O26      O        0.34481    0.64198    0.11690    1.000
    C22      C        0.44120    0.41430    0.82200    1.000
    C23      C        0.41020    0.49370    0.82000    1.000
    C24      C        0.39560    0.53010    0.66440    1.000
    H7       H        0.40760    0.50530    0.56350    1.000
    C25      C        0.36300    0.60370    0.66130    1.000
    C26      C        0.34920    0.64160    0.81780    1.000
    C27      C        0.36330    0.60530    0.97320    1.000
    C28      C        0.39430    0.53100    0.97210    1.000
    H8       H        0.40440    0.50630    0.07410    1.000
    O27      O        0.49240    0.74490    0.57340    1.000
    K4       K        0.28394    0.51793    0.31749    1.000
    O28      O        0.23240    0.40820    0.55840    1.000
    Ca5      Ca       0.08049    0.69618    0.82041    1.000
    O29      O        0.07250    0.37230    0.45230    1.000
    O30      O        0.02180    0.38970    0.19590    1.000
    O31      O        0.15673    0.63871    0.01660    1.000
    O32      O        0.17886    0.71392    0.31540    1.000
    O33      O        0.15519    0.64198    0.61690    1.000
    C29      C        0.05880    0.41430    0.32200    1.000
    C30      C        0.08980    0.49370    0.32000    1.000
    C31      C        0.10440    0.53010    0.16440    1.000
    H9       H        0.09240    0.50530    0.06350    1.000
    C32      C        0.13700    0.60370    0.16130    1.000
    C33      C        0.15080    0.64160    0.31780    1.000
    C34      C        0.13670    0.60530    0.47320    1.000
    C35      C        0.10570    0.53100    0.47210    1.000
    H10      H        0.09560    0.50630    0.57410    1.000
    O34      O        0.00760    0.74490    0.07340    1.000
    K5       K        0.21606    0.51793    0.81749    1.000
    O35      O        0.26760    0.40820    0.05840    1.000
    Ca6      Ca       0.41951    0.80382    0.82041    1.000
    O36      O        0.42750    0.12770    0.45230    1.000
    O37      O        0.47820    0.11030    0.19590    1.000
    O38      O        0.34327    0.86129    0.01660    1.000
    O39      O        0.32114    0.78608    0.31540    1.000
    O40      O        0.34481    0.85802    0.61690    1.000
    C36      C        0.44120    0.08570    0.32200    1.000
    C37      C        0.41020    0.00630    0.32000    1.000
    C38      C        0.39560    0.96990    0.16440    1.000
    H11      H        0.40760    0.99470    0.06350    1.000
    C39      C        0.36300    0.89630    0.16130    1.000
    C40      C        0.34920    0.85840    0.31780    1.000
    C41      C        0.36330    0.89470    0.47320    1.000
    C42      C        0.39430    0.96900    0.47210    1.000
    H12      H        0.40440    0.99370    0.57410    1.000
    O41      O        0.49240    0.75510    0.07340    1.000
    K6       K        0.28394    0.98207    0.81749    1.000
    O42      O        0.23240    0.09180    0.05840    1.000
    Ca7      Ca       0.91951    0.19618    0.67959    1.000
    O43      O        0.92750    0.87230    0.04770    1.000
    O44      O        0.97820    0.88970    0.30410    1.000
    O45      O        0.84327    0.13871    0.48340    1.000
    O46      O        0.82114    0.21392    0.18460    1.000
    O47      O        0.84481    0.14198    0.88310    1.000
    C43      C        0.94120    0.91430    0.17800    1.000
    C44      C        0.91020    0.99370    0.18000    1.000
    C45      C        0.89560    0.03010    0.33560    1.000
    H13      H        0.90760    0.00530    0.43650    1.000
    C46      C        0.86300    0.10370    0.33870    1.000
    C47      C        0.84920    0.14160    0.18220    1.000
    C48      C        0.86330    0.10530    0.02680    1.000
    C49      C        0.89430    0.03100    0.02790    1.000
    H14      H        0.90440    0.00630    0.92590    1.000
    O48      O        0.99240    0.24490    0.42660    1.000
    K7       K        0.78394    0.01793    0.68251    1.000
    O49      O        0.73240    0.90820    0.44160    1.000
    Ca8      Ca       0.58049    0.30382    0.67959    1.000
    O50      O        0.57250    0.62770    0.04770    1.000
    O51      O        0.52180    0.61030    0.30410    1.000
    O52      O        0.65673    0.36129    0.48340    1.000
    O53      O        0.67886    0.28608    0.18460    1.000
    O54      O        0.65519    0.35802    0.88310    1.000
    C50      C        0.55880    0.58570    0.17800    1.000
    C51      C        0.58980    0.50630    0.18000    1.000
    C52      C        0.60440    0.46990    0.33560    1.000
    H15      H        0.59240    0.49470    0.43650    1.000
    C53      C        0.63700    0.39630    0.33870    1.000
    C54      C        0.65080    0.35840    0.18220    1.000
    C55      C        0.63670    0.39470    0.02680    1.000
    C56      C        0.60570    0.46900    0.02790    1.000
    H16      H        0.59560    0.49370    0.92590    1.000
    O55      O        0.50760    0.25510    0.42660    1.000
    K8       K        0.71606    0.48207    0.68251    1.000
    O56      O        0.76760    0.59180    0.44160    1.000
    Ca9      Ca       0.75000    0.25000    0.93378    1.000
    Ca10     Ca       0.25000    0.75000    0.56622    1.000
    Ca11     Ca       0.25000    0.75000    0.06622    1.000
    Ca12     Ca       0.75000    0.25000    0.43378    1.000
