data_functionalizedCrystal
_audit_creation_method	'EQeq! by Chris Wilmer'
_symmetry_space_group_name_H-M	'P1'
_symmetry_Int_Tables_number	1
_symmetry_cell_setting	triclinic
loop_
_symmetry_equiv_pos_as_xyz
  x,y,z
_cell_length_a	11.804
_cell_length_b	24.81
_cell_length_c	15.672
_cell_angle_alpha	90
_cell_angle_beta	96.269
_cell_angle_gamma	90
loop_
_atom_site_label
_atom_site_type_symbol
_atom_site_fract_x
_atom_site_fract_y
_atom_site_fract_z
_atom_site_charge
Mof_Zn	Zn	0.08714	0.33314	0.99298	1.248
Mof_C 	C 	0.9878	0.37429	0.8279	0.403
Mof_C 	C 	0.0235	0.37345	0.7394	-0.21
Mof_H 	H 	0.0729	0.4042	0.7335	0.106
Mof_H 	H 	0.0686	0.3412	0.7336	0.118
Mof_C 	C 	0.8797	0.60919	0.8489	0.379
Mof_C 	C 	0.899	0.55866	0.7997	-0.185
Mof_H 	H 	0.9802	0.5529	0.7993	0.102
Mof_H 	H 	0.8681	0.5281	0.8281	0.096
Mof_C 	C 	0.8505	0.51629	0.666	0.193
Mof_C 	C 	0.8966	0.46827	0.6968	-0.266
Mof_H 	H 	0.93	0.4658	0.7532	0.135
Mof_C 	C 	0.8932	0.4237	0.6435	0.203
Mof_C 	C 	0.8435	0.42611	0.55966	-0.106
Mof_C 	C 	0.7986	0.47568	0.53058	0.014
Mof_H 	H 	0.7653	0.4783	0.4742	0.034
Mof_C 	C 	0.8016	0.52123	0.58222	-0.099
Mof_C 	C 	0.7543	0.57505	0.55034	0.074
Mof_H 	H 	0.7071	0.5881	0.5937	0.027
Mof_C 	C 	0.6775	0.57317	0.4663	-0.2
Mof_C 	C 	0.5636	0.56049	0.4661	0.245
Mof_H 	H 	0.5358	0.5514	0.5175	-0.051
Mof_C 	C 	0.49	0.56094	0.3914	-0.476
Mof_H 	H 	0.4138	0.5522	0.3935	0.197
Mof_C 	C 	0.5272	0.57401	0.314	0.553
Mof_C 	C 	0.6406	0.5856	0.3146	-0.492
Mof_H 	H 	0.6687	0.5938	0.263	0.201
Mof_C 	C 	0.7141	0.58547	0.3887	0.258
Mof_H 	H 	0.7905	0.5939	0.3862	-0.054
Mof_C 	C 	0.4466	0.5754	0.2322	-1.123
Mof_H 	H 	0.3713	0.5659	0.2446	0.365
Mof_H 	H 	0.4718	0.5503	0.1918	0.348
Mof_H 	H 	0.4455	0.6111	0.2083	0.367
Mof_C 	C 	0.5733	0.75322	0.5342	0.377
Mof_C 	C 	0.1816	0.81815	0.5221	0.406
Mof_C 	C 	0.6547	0.71331	0.5026	-0.202
Mof_H 	H 	0.6124	0.6869	0.4663	0.111
Mof_H 	H 	0.7062	0.7318	0.4683	0.106
Mof_C 	C 	0.0774	0.78472	0.5313	-0.198
Mof_H 	H 	0.0513	0.7914	0.5869	0.096
Mof_H 	H 	0.0168	0.7949	0.4874	0.096
Mof_C 	C 	0.0153	0.69415	0.5299	0.199
Mof_C 	C 	0.908	0.70946	0.5472	-0.245
Mof_H 	H 	0.8909	0.7457	0.554	0.127
Mof_C 	C 	0.8256	0.67038	0.5543	0.197
Mof_C 	C 	0.8486	0.61647	0.54604	-0.081
Mof_C 	C 	0.9573	0.60258	0.52761	0.021
Mof_H 	H 	0.9738	0.5663	0.5208	0.037
Mof_C 	C 	0.0419	0.63978	0.51888	-0.086
Mof_C 	C 	0.1601	0.6249	0.4958	0.119
Mof_C 	C 	0.2474	0.62009	0.5733	-0.219
Mof_C 	C 	0.228	0.59217	0.6465	0.285
Mof_H 	H 	0.1552	0.5796	0.6527	-0.061
Mof_C 	C 	0.315	0.5828	0.71	-0.517
Mof_H 	H 	0.3001	0.5633	0.7582	0.206
Mof_C 	C 	0.4229	0.6013	0.7046	0.592
Mof_C 	C 	0.4417	0.63088	0.6344	-0.514
Mof_H 	H 	0.5138	0.6451	0.6301	0.229
Mof_C 	C 	0.3551	0.64014	0.5693	0.285
Mof_H 	H 	0.3701	0.6604	0.5218	-0.051
Mof_C 	C 	0.5194	0.5882	0.774	-1.16
Mof_H 	H 	0.5886	0.6046	0.7598	0.389
Mof_H 	H 	0.5293	0.5499	0.7778	0.363
Mof_H 	H 	0.5012	0.6019	0.8281	0.375
Mof_O 	O 	0.0735	0.37196	0.88474	-0.457
Mof_O 	O 	0.8885	0.37849	0.83993	-0.294
Mof_O 	O 	0.9161	0.60504	0.92876	-0.44
Mof_O 	O 	0.8352	0.64879	0.81599	-0.29
Mof_O 	O 	0.9363	0.37461	0.67107	-0.167
Mof_O 	O 	0.8478	0.56167	0.71588	-0.182
Mof_O 	O 	0.5621	0.75837	0.61028	-0.293
Mof_O 	O 	0.5183	0.77991	0.47364	-0.452
Mof_O 	O 	0.1685	0.86733	0.5279	-0.324
Mof_O 	O 	0.2699	0.79485	0.50847	-0.446
Mof_O 	O 	0.71841	0.68679	0.57216	-0.17
Mof_O 	O 	0.10216	0.72972	0.52334	-0.163
Mof_Zn	Zn	0.41286	0.83314	0.50702	1.247
Mof_C 	C 	0.5122	0.87429	0.6721	0.397
Mof_C 	C 	0.4765	0.87345	0.7606	-0.205
Mof_H 	H 	0.4271	0.9042	0.7665	0.103
Mof_H 	H 	0.4314	0.8412	0.7664	0.115
Mof_C 	C 	0.6203	0.10919	0.6511	0.378
Mof_C 	C 	0.601	0.05866	0.7003	-0.186
Mof_H 	H 	0.5198	0.0529	0.7007	0.101
Mof_H 	H 	0.6319	0.0281	0.6719	0.096
Mof_C 	C 	0.6495	0.01629	0.834	0.193
Mof_C 	C 	0.6034	0.96827	0.8032	-0.266
Mof_H 	H 	0.57	0.9658	0.7468	0.134
Mof_C 	C 	0.6068	0.9237	0.8565	0.205
Mof_C 	C 	0.6565	0.92611	0.94034	-0.108
Mof_C 	C 	0.7014	0.97568	0.96942	0.019
Mof_H 	H 	0.7347	0.9783	0.0258	0.031
Mof_C 	C 	0.6984	0.02123	0.91778	-0.099
Mof_C 	C 	0.7457	0.07505	0.94966	0.068
Mof_H 	H 	0.7929	0.0881	0.9063	0.029
Mof_C 	C 	0.8225	0.07317	0.0337	-0.181
Mof_C 	C 	0.9364	0.06049	0.0339	0.21
Mof_H 	H 	0.9642	0.0514	0.9825	-0.037
Mof_C 	C 	0.01	0.06094	0.1086	-0.436
Mof_H 	H 	0.0862	0.0522	0.1065	0.184
Mof_C 	C 	0.9728	0.07401	0.186	0.518
Mof_C 	C 	0.8594	0.0856	0.1854	-0.463
Mof_H 	H 	0.8313	0.0938	0.237	0.192
Mof_C 	C 	0.7859	0.08547	0.1113	0.234
Mof_H 	H 	0.7095	0.0939	0.1138	-0.046
Mof_C 	C 	0.0534	0.0754	0.2678	-1.081
Mof_H 	H 	0.1287	0.0659	0.2554	0.354
Mof_H 	H 	0.0282	0.0503	0.3082	0.337
Mof_H 	H 	0.0545	0.1111	0.2917	0.356
Mof_C 	C 	0.9267	0.25322	0.9658	0.378
Mof_C 	C 	0.3184	0.31815	0.9779	0.406
Mof_C 	C 	0.8453	0.21331	0.9974	-0.195
Mof_H 	H 	0.8876	0.1869	0.0337	0.107
Mof_H 	H 	0.7938	0.2318	0.0317	0.103
Mof_C 	C 	0.4226	0.28472	0.9687	-0.198
Mof_H 	H 	0.4487	0.2914	0.9131	0.097
Mof_H 	H 	0.4832	0.2949	0.0126	0.097
Mof_C 	C 	0.4847	0.19415	0.9701	0.2
Mof_C 	C 	0.592	0.20946	0.9528	-0.246
Mof_H 	H 	0.6091	0.2457	0.946	0.127
Mof_C 	C 	0.6744	0.17038	0.9457	0.197
Mof_C 	C 	0.6514	0.11647	0.95396	-0.08
Mof_C 	C 	0.5427	0.10258	0.97239	0.021
Mof_H 	H 	0.5262	0.0663	0.9792	0.037
Mof_C 	C 	0.4581	0.13978	0.98112	-0.088
Mof_C 	C 	0.3399	0.1249	0.0042	0.124
Mof_C 	C 	0.2526	0.12009	0.9267	-0.224
Mof_C 	C 	0.272	0.09217	0.8535	0.29
Mof_H 	H 	0.3448	0.0796	0.8473	-0.062
Mof_C 	C 	0.185	0.0828	0.79	-0.523
Mof_H 	H 	0.1999	0.0633	0.7418	0.208
Mof_C 	C 	0.0771	0.1013	0.7954	0.598
Mof_C 	C 	0.0583	0.13088	0.8656	-0.523
Mof_H 	H 	0.9862	0.1451	0.8699	0.232
Mof_C 	C 	0.1449	0.14014	0.9307	0.291
Mof_H 	H 	0.1299	0.1604	0.9782	-0.054
Mof_C 	C 	0.9806	0.0882	0.726	-1.165
Mof_H 	H 	0.9114	0.1046	0.7402	0.391
Mof_H 	H 	0.9707	0.0499	0.7222	0.365
Mof_H 	H 	0.9988	0.1019	0.6719	0.376
Mof_O 	O 	0.4265	0.87196	0.61526	-0.454
Mof_O 	O 	0.6115	0.87849	0.66007	-0.293
Mof_O 	O 	0.5839	0.10504	0.57124	-0.442
Mof_O 	O 	0.6648	0.14879	0.68401	-0.291
Mof_O 	O 	0.5637	0.87461	0.82893	-0.169
Mof_O 	O 	0.6522	0.06167	0.78412	-0.182
Mof_O 	O 	0.9379	0.25837	0.88972	-0.292
Mof_O 	O 	0.9817	0.27991	0.02636	-0.455
Mof_O 	O 	0.3315	0.36733	0.9721	-0.325
Mof_O 	O 	0.2301	0.29485	0.99153	-0.447
Mof_O 	O 	0.78159	0.18679	0.92784	-0.171
Mof_O 	O 	0.39784	0.22972	0.97666	-0.163
Mof_Zn	Zn	0.91286	0.66686	0.00702	1.247
Mof_C 	C 	0.0122	0.62571	0.1721	0.402
Mof_C 	C 	0.9765	0.62655	0.2606	-0.211
Mof_H 	H 	0.9271	0.5958	0.2665	0.105
Mof_H 	H 	0.9314	0.6588	0.2664	0.117
Mof_C 	C 	0.1203	0.39081	0.1511	0.378
Mof_C 	C 	0.101	0.44134	0.2003	-0.186
Mof_H 	H 	0.0198	0.4471	0.2007	0.101
Mof_H 	H 	0.1319	0.4719	0.1719	0.096
Mof_C 	C 	0.1495	0.48371	0.334	0.193
Mof_C 	C 	0.1034	0.53173	0.3032	-0.266
Mof_H 	H 	0.07	0.5342	0.2468	0.135
Mof_C 	C 	0.1068	0.5763	0.3565	0.203
Mof_C 	C 	0.1565	0.57389	0.44034	-0.106
Mof_C 	C 	0.2014	0.52432	0.46942	0.014
Mof_H 	H 	0.2347	0.5217	0.5258	0.034
Mof_C 	C 	0.1984	0.47877	0.41778	-0.099
Mof_C 	C 	0.2457	0.42495	0.44966	0.074
Mof_H 	H 	0.2929	0.4119	0.4063	0.027
Mof_C 	C 	0.3225	0.42683	0.5337	-0.2
Mof_C 	C 	0.4364	0.43951	0.5339	0.245
Mof_H 	H 	0.4642	0.4486	0.4825	-0.051
Mof_C 	C 	0.51	0.43906	0.6086	-0.476
Mof_H 	H 	0.5862	0.4478	0.6065	0.197
Mof_C 	C 	0.4728	0.42599	0.686	0.553
Mof_C 	C 	0.3594	0.4144	0.6854	-0.492
Mof_H 	H 	0.3313	0.4062	0.737	0.201
Mof_C 	C 	0.2859	0.41453	0.6113	0.258
Mof_H 	H 	0.2095	0.4061	0.6138	-0.054
Mof_C 	C 	0.5534	0.4246	0.7678	-1.123
Mof_H 	H 	0.6287	0.4341	0.7554	0.365
Mof_H 	H 	0.5282	0.4497	0.8082	0.348
Mof_H 	H 	0.5545	0.3889	0.7917	0.367
Mof_C 	C 	0.4267	0.24678	0.4658	0.377
Mof_C 	C 	0.8184	0.18185	0.4779	0.406
Mof_C 	C 	0.3453	0.28669	0.4974	-0.202
Mof_H 	H 	0.3876	0.3131	0.5337	0.111
Mof_H 	H 	0.2938	0.2682	0.5317	0.106
Mof_C 	C 	0.9226	0.21528	0.4687	-0.198
Mof_H 	H 	0.9487	0.2086	0.4131	0.096
Mof_H 	H 	0.9832	0.2051	0.5126	0.096
Mof_C 	C 	0.9847	0.30585	0.4701	0.199
Mof_C 	C 	0.092	0.29054	0.4528	-0.245
Mof_H 	H 	0.1091	0.2543	0.446	0.127
Mof_C 	C 	0.1744	0.32962	0.4457	0.197
Mof_C 	C 	0.1514	0.38353	0.45396	-0.081
Mof_C 	C 	0.0427	0.39742	0.47239	0.021
Mof_H 	H 	0.0262	0.4337	0.4792	0.037
Mof_C 	C 	0.9581	0.36022	0.48112	-0.086
Mof_C 	C 	0.8399	0.3751	0.5042	0.119
Mof_C 	C 	0.7526	0.37991	0.4267	-0.219
Mof_C 	C 	0.772	0.40783	0.3535	0.285
Mof_H 	H 	0.8448	0.4204	0.3473	-0.061
Mof_C 	C 	0.685	0.4172	0.29	-0.517
Mof_H 	H 	0.6999	0.4367	0.2418	0.206
Mof_C 	C 	0.5771	0.3987	0.2954	0.592
Mof_C 	C 	0.5583	0.36912	0.3656	-0.514
Mof_H 	H 	0.4862	0.3549	0.3699	0.229
Mof_C 	C 	0.6449	0.35986	0.4307	0.285
Mof_H 	H 	0.6299	0.3396	0.4782	-0.051
Mof_C 	C 	0.4806	0.4118	0.226	-1.16
Mof_H 	H 	0.4114	0.3954	0.2402	0.389
Mof_H 	H 	0.4707	0.4501	0.2222	0.363
Mof_H 	H 	0.4988	0.3981	0.1719	0.375
Mof_O 	O 	0.9265	0.62804	0.11526	-0.457
Mof_O 	O 	0.1115	0.62151	0.16007	-0.294
Mof_O 	O 	0.0839	0.39496	0.07124	-0.44
Mof_O 	O 	0.1648	0.35121	0.18401	-0.29
Mof_O 	O 	0.0637	0.62539	0.32893	-0.167
Mof_O 	O 	0.1522	0.43833	0.28412	-0.182
Mof_O 	O 	0.4379	0.24163	0.38972	-0.293
Mof_O 	O 	0.4817	0.22009	0.52636	-0.452
Mof_O 	O 	0.8315	0.13267	0.4721	-0.324
Mof_O 	O 	0.7301	0.20515	0.49153	-0.446
Mof_O 	O 	0.28159	0.31321	0.42784	-0.17
Mof_O 	O 	0.89784	0.27028	0.47666	-0.163
Mof_Zn	Zn	0.58714	0.16686	0.49298	1.247
Mof_C 	C 	0.4878	0.12571	0.3279	0.397
Mof_C 	C 	0.5235	0.12655	0.2394	-0.205
Mof_H 	H 	0.5729	0.0958	0.2335	0.103
Mof_H 	H 	0.5686	0.1588	0.2336	0.115
Mof_C 	C 	0.3797	0.89081	0.3489	0.378
Mof_C 	C 	0.399	0.94134	0.2997	-0.186
Mof_H 	H 	0.4802	0.9471	0.2993	0.101
Mof_H 	H 	0.3681	0.9719	0.3281	0.096
Mof_C 	C 	0.3505	0.98371	0.166	0.193
Mof_C 	C 	0.3966	0.03173	0.1968	-0.266
Mof_H 	H 	0.43	0.0342	0.2532	0.134
Mof_C 	C 	0.3932	0.0763	0.1435	0.205
Mof_C 	C 	0.3435	0.07389	0.05966	-0.108
Mof_C 	C 	0.2986	0.02432	0.03058	0.019
Mof_H 	H 	0.2653	0.0217	0.9742	0.031
Mof_C 	C 	0.3016	0.97877	0.08222	-0.099
Mof_C 	C 	0.2543	0.92495	0.05034	0.068
Mof_H 	H 	0.2071	0.9119	0.0937	0.029
Mof_C 	C 	0.1775	0.92683	0.9663	-0.181
Mof_C 	C 	0.0636	0.93951	0.9661	0.21
Mof_H 	H 	0.0358	0.9486	0.0175	-0.037
Mof_C 	C 	0.99	0.93906	0.8914	-0.436
Mof_H 	H 	0.9138	0.9478	0.8935	0.184
Mof_C 	C 	0.0272	0.92599	0.814	0.518
Mof_C 	C 	0.1406	0.9144	0.8146	-0.463
Mof_H 	H 	0.1687	0.9062	0.763	0.192
Mof_C 	C 	0.2141	0.91453	0.8887	0.234
Mof_H 	H 	0.2905	0.9061	0.8862	-0.046
Mof_C 	C 	0.9466	0.9246	0.7322	-1.081
Mof_H 	H 	0.8713	0.9341	0.7446	0.354
Mof_H 	H 	0.9718	0.9497	0.6918	0.337
Mof_H 	H 	0.9455	0.8889	0.7083	0.356
Mof_C 	C 	0.0733	0.74678	0.0342	0.378
Mof_C 	C 	0.6816	0.68185	0.0221	0.406
Mof_C 	C 	0.1547	0.78669	0.0026	-0.195
Mof_H 	H 	0.1124	0.8131	0.9663	0.107
Mof_H 	H 	0.2062	0.7682	0.9683	0.103
Mof_C 	C 	0.5774	0.71528	0.0313	-0.198
Mof_H 	H 	0.5513	0.7086	0.0869	0.097
Mof_H 	H 	0.5168	0.7051	0.9874	0.097
Mof_C 	C 	0.5153	0.80585	0.0299	0.2
Mof_C 	C 	0.408	0.79054	0.0472	-0.246
Mof_H 	H 	0.3909	0.7543	0.054	0.127
Mof_C 	C 	0.3256	0.82962	0.0543	0.197
Mof_C 	C 	0.3486	0.88353	0.04604	-0.08
Mof_C 	C 	0.4573	0.89742	0.02761	0.021
Mof_H 	H 	0.4738	0.9337	0.0208	0.037
Mof_C 	C 	0.5419	0.86022	0.01888	-0.088
Mof_C 	C 	0.6601	0.8751	0.9958	0.124
Mof_C 	C 	0.7474	0.87991	0.0733	-0.224
Mof_C 	C 	0.728	0.90783	0.1465	0.29
Mof_H 	H 	0.6552	0.9204	0.1527	-0.062
Mof_C 	C 	0.815	0.9172	0.21	-0.523
Mof_H 	H 	0.8001	0.9367	0.2582	0.208
Mof_C 	C 	0.9229	0.8987	0.2046	0.598
Mof_C 	C 	0.9417	0.86912	0.1344	-0.523
Mof_H 	H 	0.0138	0.8549	0.1301	0.232
Mof_C 	C 	0.8551	0.85986	0.0693	0.291
Mof_H 	H 	0.8701	0.8396	0.0218	-0.054
Mof_C 	C 	0.0194	0.9118	0.274	-1.165
Mof_H 	H 	0.0886	0.8954	0.2598	0.391
Mof_H 	H 	0.0293	0.9501	0.2778	0.365
Mof_H 	H 	0.0012	0.8981	0.3281	0.376
Mof_O 	O 	0.5735	0.12804	0.38474	-0.454
Mof_O 	O 	0.3885	0.12151	0.33993	-0.293
Mof_O 	O 	0.4161	0.89496	0.42876	-0.442
Mof_O 	O 	0.3352	0.85121	0.31599	-0.291
Mof_O 	O 	0.4363	0.12539	0.17107	-0.169
Mof_O 	O 	0.3478	0.93833	0.21588	-0.182
Mof_O 	O 	0.0621	0.74163	0.11028	-0.292
Mof_O 	O 	0.0183	0.72009	0.97364	-0.455
Mof_O 	O 	0.6685	0.63267	0.0279	-0.325
Mof_O 	O 	0.7699	0.70515	0.00847	-0.447
Mof_O 	O 	0.21841	0.81321	0.07216	-0.171
Mof_O 	O 	0.60216	0.77028	0.02334	-0.163
_end
