# CIF file generated by openbabel 3.1.0, see https://openbabel.org
data_I
_chemical_name_common 'image0'
_cell_length_a 23.7905
_cell_length_b 8.8535
_cell_length_c 15.5522
_cell_angle_alpha 90
_cell_angle_beta 90
_cell_angle_gamma 90
_space_group_name_H-M_alt 'P 1'
_space_group_name_Hall 'P 1'
loop_
    _symmetry_equiv_pos_as_xyz
    x,y,z
loop_
    _atom_site_label
    _atom_site_type_symbol
    _atom_site_fract_x
    _atom_site_fract_y
    _atom_site_fract_z
    _atom_site_occupancy
    N1       N        0.40080    0.55430    0.12750    1.000
    C1       C        0.42840    0.45350    0.14100    1.000
    N2       N        0.28620    0.55970    0.01070    1.000
    C2       C        0.26790    0.45880    0.97670    1.000
    N3       N        0.09920    0.44570    0.62750    1.000
    C3       C        0.07160    0.54650    0.64100    1.000
    N4       N        0.21380    0.44030    0.51070    1.000
    C4       C        0.23210    0.54120    0.47670    1.000
    N5       N        0.59920    0.05430    0.87250    1.000
    C5       C        0.57160    0.95350    0.85900    1.000
    N6       N        0.71380    0.05970    0.98930    1.000
    C6       C        0.73210    0.95880    0.02330    1.000
    N7       N        0.90080    0.94570    0.37250    1.000
    C7       C        0.92840    0.04650    0.35900    1.000
    N8       N        0.78620    0.94030    0.48930    1.000
    C8       C        0.76790    0.04120    0.52330    1.000
    N9       N        0.59920    0.44570    0.87250    1.000
    C9       C        0.57160    0.54650    0.85900    1.000
    N10      N        0.71380    0.44030    0.98930    1.000
    C10      C        0.73210    0.54120    0.02330    1.000
    N11      N        0.90080    0.55430    0.37250    1.000
    C11      C        0.92840    0.45350    0.35900    1.000
    N12      N        0.78620    0.55970    0.48930    1.000
    C12      C        0.76790    0.45880    0.52330    1.000
    N13      N        0.40080    0.94570    0.12750    1.000
    C13      C        0.42840    0.04650    0.14100    1.000
    N14      N        0.28620    0.94030    0.01070    1.000
    C14      C        0.26790    0.04120    0.97670    1.000
    N15      N        0.09920    0.05430    0.62750    1.000
    C15      C        0.07160    0.95350    0.64100    1.000
    N16      N        0.21380    0.05970    0.51070    1.000
    C16      C        0.23210    0.95880    0.47670    1.000
    Cd1      Cd       0.34236    0.75000    0.07154    1.000
    Cd2      Cd       0.51878    0.75000    0.83701    1.000
    Cd3      Cd       0.26836    0.75000    0.41988    1.000
    Cl1      Cl       0.49250    0.75000    0.68210    1.000
    Cl2      Cl       0.37130    0.75000    0.46700    1.000
    N17      N        0.40280    0.75000    0.95620    1.000
    C17      C        0.44220    0.75000    0.91560    1.000
    N18      N        0.29830    0.75000    0.20780    1.000
    C18      C        0.28460    0.75000    0.27810    1.000
    Cd4      Cd       0.15764    0.25000    0.57154    1.000
    Cd5      Cd       0.98122    0.25000    0.33701    1.000
    Cd6      Cd       0.23164    0.25000    0.91988    1.000
    Cl3      Cl       0.00750    0.25000    0.18210    1.000
    Cl4      Cl       0.12870    0.25000    0.96700    1.000
    N19      N        0.09720    0.25000    0.45620    1.000
    C19      C        0.05780    0.25000    0.41560    1.000
    N20      N        0.20170    0.25000    0.70780    1.000
    C20      C        0.21540    0.25000    0.77810    1.000
    Cd7      Cd       0.65764    0.25000    0.92846    1.000
    Cd8      Cd       0.48122    0.25000    0.16299    1.000
    Cd9      Cd       0.73164    0.25000    0.58012    1.000
    Cl5      Cl       0.50750    0.25000    0.31790    1.000
    Cl6      Cl       0.62870    0.25000    0.53300    1.000
    N21      N        0.59720    0.25000    0.04380    1.000
    C21      C        0.55780    0.25000    0.08440    1.000
    N22      N        0.70170    0.25000    0.79220    1.000
    C22      C        0.71540    0.25000    0.72190    1.000
    Cd10     Cd       0.84236    0.75000    0.42846    1.000
    Cd11     Cd       0.01878    0.75000    0.66299    1.000
    Cd12     Cd       0.76836    0.75000    0.08012    1.000
    Cl7      Cl       0.99250    0.75000    0.81790    1.000
    Cl8      Cl       0.87130    0.75000    0.03300    1.000
    N23      N        0.90280    0.75000    0.54380    1.000
    C23      C        0.94220    0.75000    0.58440    1.000
    N24      N        0.79830    0.75000    0.29220    1.000
    C24      C        0.78460    0.75000    0.22190    1.000
