data_functionalizedCrystal
_audit_creation_method	'EQeq! by Chris Wilmer'
_symmetry_space_group_name_H-M	'P1'
_symmetry_Int_Tables_number	1
_symmetry_cell_setting	triclinic
loop_
_symmetry_equiv_pos_as_xyz
  x,y,z
_cell_length_a	9.2187
_cell_length_b	14.8652
_cell_length_c	14.5811
_cell_angle_alpha	90
_cell_angle_beta	90
_cell_angle_gamma	90
loop_
_atom_site_label
_atom_site_type_symbol
_atom_site_fract_x
_atom_site_fract_y
_atom_site_fract_z
_atom_site_charge
Mof_P 	P 	0.1548	0.1356	0.1041	1.24
Mof_Al	Al	0.148	0.3479	0.1145	4.481
Mof_O 	O 	0.9725	0.3597	0.1628	-1.465
Mof_O 	O 	0.728	0.9263	0.1602	-1.571
Mof_O 	O 	0.2674	0.0695	0.1364	-1.083
Mof_O 	O 	0.1269	0.1116	0.0026	-1.34
Mof_O 	O 	0.0134	0.1191	0.1526	-1.582
Mof_O 	O 	0.2102	0.2328	0.1187	-1.516
Mof_P 	P 	0.8452	0.8644	0.6041	1.241
Mof_Al	Al	0.852	0.6521	0.6145	4.483
Mof_O 	O 	0.0275	0.6403	0.6628	-1.464
Mof_O 	O 	0.272	0.0737	0.6602	-1.57
Mof_O 	O 	0.7326	0.9305	0.6364	-1.082
Mof_O 	O 	0.8731	0.8884	0.5026	-1.339
Mof_O 	O 	0.9866	0.8809	0.6526	-1.582
Mof_O 	O 	0.7898	0.7672	0.6187	-1.516
Mof_P 	P 	0.8452	0.6356	0.3959	1.146
Mof_Al	Al	0.852	0.8479	0.3855	4.571
Mof_O 	O 	0.0275	0.8597	0.3372	-1.518
Mof_O 	O 	0.272	0.4263	0.3398	-1.503
Mof_O 	O 	0.7326	0.5695	0.3636	-0.68
Mof_O 	O 	0.8731	0.6116	0.4974	-1.296
Mof_O 	O 	0.9866	0.6191	0.3474	-1.508
Mof_O 	O 	0.7898	0.7328	0.3813	-1.5
Mof_P 	P 	0.1548	0.3644	0.8959	1.146
Mof_Al	Al	0.148	0.1521	0.8855	4.57
Mof_O 	O 	0.9725	0.1403	0.8372	-1.518
Mof_O 	O 	0.728	0.5737	0.8398	-1.503
Mof_O 	O 	0.2674	0.4305	0.8636	-0.68
Mof_O 	O 	0.1269	0.3884	0.9974	-1.297
Mof_O 	O 	0.0134	0.3809	0.8474	-1.508
Mof_O 	O 	0.2102	0.2672	0.8813	-1.501
Mof_P 	P 	0.8452	0.8644	0.8959	1.241
Mof_Al	Al	0.852	0.6521	0.8855	4.482
Mof_O 	O 	0.0275	0.6403	0.8372	-1.464
Mof_O 	O 	0.272	0.0737	0.8398	-1.57
Mof_O 	O 	0.7326	0.9305	0.8636	-1.083
Mof_O 	O 	0.8731	0.8884	0.9974	-1.34
Mof_O 	O 	0.9866	0.8809	0.8474	-1.582
Mof_O 	O 	0.7898	0.7672	0.8813	-1.516
Mof_P 	P 	0.1548	0.1356	0.3959	1.241
Mof_Al	Al	0.148	0.3479	0.3855	4.483
Mof_O 	O 	0.9725	0.3597	0.3372	-1.464
Mof_O 	O 	0.728	0.9263	0.3398	-1.57
Mof_O 	O 	0.2674	0.0695	0.3636	-1.082
Mof_O 	O 	0.1269	0.1116	0.4974	-1.339
Mof_O 	O 	0.0134	0.1191	0.3474	-1.582
Mof_O 	O 	0.2102	0.2328	0.3813	-1.516
Mof_P 	P 	0.1548	0.3644	0.6041	1.146
Mof_Al	Al	0.148	0.1521	0.6145	4.571
Mof_O 	O 	0.9725	0.1403	0.6628	-1.518
Mof_O 	O 	0.728	0.5737	0.6602	-1.503
Mof_O 	O 	0.2674	0.4305	0.6364	-0.68
Mof_O 	O 	0.1269	0.3884	0.5026	-1.296
Mof_O 	O 	0.0134	0.3809	0.6526	-1.508
Mof_O 	O 	0.2102	0.2672	0.6187	-1.5
Mof_P 	P 	0.8452	0.6356	0.1041	1.146
Mof_Al	Al	0.852	0.8479	0.1145	4.57
Mof_O 	O 	0.0275	0.8597	0.1628	-1.518
Mof_O 	O 	0.272	0.4263	0.1602	-1.503
Mof_O 	O 	0.7326	0.5695	0.1364	-0.68
Mof_O 	O 	0.8731	0.6116	0.0026	-1.297
Mof_O 	O 	0.9866	0.6191	0.1526	-1.508
Mof_O 	O 	0.7898	0.7328	0.1187	-1.501
Mof_P 	P 	0.889	0.3347	0.25	1.03
Mof_P 	P 	0.6851	0.9638	0.25	1.462
Mof_Al	Al	0.8989	0.1353	0.25	4.887
Mof_Mg	Mg	0.6709	0.519	0.25	1.472
Mof_O 	O 	0.8144	0.243	0.25	-1.48
Mof_O 	O 	0.7572	0.3946	0.25	-0.556
Mof_O 	O 	0.7563	0.0537	0.25	-1.505
Mof_O 	O 	0.5315	0.9939	0.25	-1.083
Mof_Al	Al	0.3291	0.019	0.25	3.252
Mof_P 	P 	0.111	0.6653	0.75	1.03
Mof_P 	P 	0.3149	0.0362	0.75	1.462
Mof_Al	Al	0.1011	0.8647	0.75	4.887
Mof_Mg	Mg	0.3291	0.481	0.75	1.472
Mof_O 	O 	0.1856	0.757	0.75	-1.48
Mof_O 	O 	0.2428	0.6054	0.75	-0.556
Mof_O 	O 	0.2437	0.9463	0.75	-1.505
Mof_O 	O 	0.4685	0.0061	0.75	-1.083
Mof_Al	Al	0.6709	0.981	0.75	3.252
Mof_P 	P 	0.111	0.8347	0.25	1.125
Mof_P 	P 	0.3149	0.4638	0.25	1.319
Mof_Al	Al	0.1011	0.6353	0.25	4.786
Mof_O 	O 	0.1856	0.743	0.25	-1.464
Mof_O 	O 	0.2428	0.8946	0.25	-0.893
Mof_O 	O 	0.2437	0.5537	0.25	-1.436
Mof_O 	O 	0.4685	0.4939	0.25	-0.674
Mof_P 	P 	0.889	0.1653	0.75	1.125
Mof_P 	P 	0.6851	0.5362	0.75	1.319
Mof_Al	Al	0.8989	0.3647	0.75	4.786
Mof_O 	O 	0.8144	0.257	0.75	-1.464
Mof_O 	O 	0.7572	0.1054	0.75	-0.893
Mof_O 	O 	0.7563	0.4463	0.75	-1.436
Mof_O 	O 	0.5315	0.5061	0.75	-0.674
_end
