data_functionalizedCrystal
_audit_creation_method	'EQeq! by Chris Wilmer'
_symmetry_space_group_name_H-M	'P1'
_symmetry_Int_Tables_number	1
_symmetry_cell_setting	triclinic
loop_
_symmetry_equiv_pos_as_xyz
  x,y,z
_cell_length_a	26.5717
_cell_length_b	26.5717
_cell_length_c	26.5717
_cell_angle_alpha	90
_cell_angle_beta	90
_cell_angle_gamma	90
loop_
_atom_site_label
_atom_site_type_symbol
_atom_site_fract_x
_atom_site_fract_y
_atom_site_fract_z
_atom_site_charge
Mof_O 	O 	0.6829	0.9463	0.2581	-0.351
Mof_O 	O 	0.6829	0.4463	0.7581	-0.386
Mof_O 	O 	0.1829	0.9463	0.7581	-0.352
Mof_O 	O 	0.1829	0.4463	0.2581	-0.391
Mof_O 	O 	0.3171	0.0537	0.2581	-0.39
Mof_O 	O 	0.3171	0.5537	0.7581	-0.386
Mof_O 	O 	0.8171	0.0537	0.7581	-0.383
Mof_O 	O 	0.8171	0.5537	0.2581	-0.384
Mof_O 	O 	0.3171	0.9463	0.7419	-0.349
Mof_O 	O 	0.3171	0.4463	0.2419	-0.388
Mof_O 	O 	0.8171	0.9463	0.2419	-0.347
Mof_O 	O 	0.8171	0.4463	0.7419	-0.382
Mof_O 	O 	0.6829	0.0537	0.7419	-0.388
Mof_O 	O 	0.6829	0.5537	0.2419	-0.388
Mof_O 	O 	0.1829	0.0537	0.2419	-0.392
Mof_O 	O 	0.1829	0.5537	0.7419	-0.39
Mof_O 	O 	0.2581	0.6829	0.9463	-0.352
Mof_O 	O 	0.2581	0.1829	0.4463	-0.392
Mof_O 	O 	0.7581	0.6829	0.4463	-0.387
Mof_O 	O 	0.7581	0.1829	0.9463	-0.353
Mof_O 	O 	0.2581	0.3171	0.0537	-0.391
Mof_O 	O 	0.2581	0.8171	0.5537	-0.385
Mof_O 	O 	0.7581	0.3171	0.5537	-0.387
Mof_O 	O 	0.7581	0.8171	0.0537	-0.384
Mof_O 	O 	0.7419	0.3171	0.9463	-0.35
Mof_O 	O 	0.7419	0.8171	0.4463	-0.383
Mof_O 	O 	0.2419	0.3171	0.4463	-0.389
Mof_O 	O 	0.2419	0.8171	0.9463	-0.348
Mof_O 	O 	0.7419	0.6829	0.0537	-0.389
Mof_O 	O 	0.7419	0.1829	0.5537	-0.39
Mof_O 	O 	0.2419	0.6829	0.5537	-0.389
Mof_O 	O 	0.2419	0.1829	0.0537	-0.393
Mof_O 	O 	0.9463	0.2581	0.6829	-0.352
Mof_O 	O 	0.9463	0.7581	0.1829	-0.353
Mof_O 	O 	0.4463	0.2581	0.1829	-0.392
Mof_O 	O 	0.4463	0.7581	0.6829	-0.387
Mof_O 	O 	0.0537	0.2581	0.3171	-0.391
Mof_O 	O 	0.0537	0.7581	0.8171	-0.384
Mof_O 	O 	0.5537	0.2581	0.8171	-0.385
Mof_O 	O 	0.5537	0.7581	0.3171	-0.387
Mof_O 	O 	0.9463	0.7419	0.3171	-0.35
Mof_O 	O 	0.9463	0.2419	0.8171	-0.348
Mof_O 	O 	0.4463	0.7419	0.8171	-0.383
Mof_O 	O 	0.4463	0.2419	0.3171	-0.389
Mof_O 	O 	0.0537	0.7419	0.6829	-0.389
Mof_O 	O 	0.0537	0.2419	0.1829	-0.393
Mof_O 	O 	0.5537	0.7419	0.1829	-0.39
Mof_O 	O 	0.5537	0.2419	0.6829	-0.389
Mof_O 	O 	0.9463	0.6829	0.7419	-0.35
Mof_O 	O 	0.9463	0.1829	0.2419	-0.355
Mof_O 	O 	0.4463	0.6829	0.2419	-0.389
Mof_O 	O 	0.4463	0.1829	0.7419	-0.39
Mof_O 	O 	0.0537	0.3171	0.7419	-0.389
Mof_O 	O 	0.0537	0.8171	0.2419	-0.386
Mof_O 	O 	0.5537	0.3171	0.2419	-0.389
Mof_O 	O 	0.5537	0.8171	0.7419	-0.383
Mof_O 	O 	0.9463	0.3171	0.2581	-0.352
Mof_O 	O 	0.9463	0.8171	0.7581	-0.346
Mof_O 	O 	0.4463	0.3171	0.7581	-0.387
Mof_O 	O 	0.4463	0.8171	0.2581	-0.385
Mof_O 	O 	0.0537	0.6829	0.2581	-0.39
Mof_O 	O 	0.0537	0.1829	0.7581	-0.391
Mof_O 	O 	0.5537	0.6829	0.7581	-0.387
Mof_O 	O 	0.5537	0.1829	0.2581	-0.392
Mof_O 	O 	0.6829	0.2581	0.0537	-0.39
Mof_O 	O 	0.6829	0.7581	0.5537	-0.387
Mof_O 	O 	0.1829	0.2581	0.5537	-0.392
Mof_O 	O 	0.1829	0.7581	0.0537	-0.391
Mof_O 	O 	0.3171	0.2581	0.9463	-0.352
Mof_O 	O 	0.3171	0.7581	0.4463	-0.387
Mof_O 	O 	0.8171	0.2581	0.4463	-0.385
Mof_O 	O 	0.8171	0.7581	0.9463	-0.346
Mof_O 	O 	0.3171	0.7419	0.0537	-0.389
Mof_O 	O 	0.3171	0.2419	0.5537	-0.389
Mof_O 	O 	0.8171	0.7419	0.5537	-0.383
Mof_O 	O 	0.8171	0.2419	0.0537	-0.386
Mof_O 	O 	0.6829	0.7419	0.9463	-0.35
Mof_O 	O 	0.6829	0.2419	0.4463	-0.389
Mof_O 	O 	0.1829	0.7419	0.4463	-0.39
Mof_O 	O 	0.1829	0.2419	0.9463	-0.355
Mof_O 	O 	0.2581	0.9463	0.3171	-0.352
Mof_O 	O 	0.2581	0.4463	0.8171	-0.385
Mof_O 	O 	0.7581	0.9463	0.8171	-0.346
Mof_O 	O 	0.7581	0.4463	0.3171	-0.387
Mof_O 	O 	0.2581	0.0537	0.6829	-0.39
Mof_O 	O 	0.2581	0.5537	0.1829	-0.392
Mof_O 	O 	0.7581	0.0537	0.1829	-0.391
Mof_O 	O 	0.7581	0.5537	0.6829	-0.387
Mof_O 	O 	0.7419	0.9463	0.6829	-0.35
Mof_O 	O 	0.7419	0.4463	0.1829	-0.39
Mof_O 	O 	0.2419	0.9463	0.1829	-0.355
Mof_O 	O 	0.2419	0.4463	0.6829	-0.389
Mof_O 	O 	0.7419	0.0537	0.3171	-0.389
Mof_O 	O 	0.7419	0.5537	0.8171	-0.383
Mof_O 	O 	0.2419	0.0537	0.8171	-0.386
Mof_O 	O 	0.2419	0.5537	0.3171	-0.389
Mof_O 	O 	0.3171	0.0537	0.7419	-0.389
Mof_O 	O 	0.3171	0.5537	0.2419	-0.389
Mof_O 	O 	0.8171	0.0537	0.2419	-0.386
Mof_O 	O 	0.8171	0.5537	0.7419	-0.383
Mof_O 	O 	0.6829	0.9463	0.7419	-0.35
Mof_O 	O 	0.6829	0.4463	0.2419	-0.389
Mof_O 	O 	0.1829	0.9463	0.2419	-0.355
Mof_O 	O 	0.1829	0.4463	0.7419	-0.39
Mof_O 	O 	0.6829	0.0537	0.2581	-0.39
Mof_O 	O 	0.6829	0.5537	0.7581	-0.387
Mof_O 	O 	0.1829	0.0537	0.7581	-0.391
Mof_O 	O 	0.1829	0.5537	0.2581	-0.392
Mof_O 	O 	0.3171	0.9463	0.2581	-0.352
Mof_O 	O 	0.3171	0.4463	0.7581	-0.387
Mof_O 	O 	0.8171	0.9463	0.7581	-0.346
Mof_O 	O 	0.8171	0.4463	0.2581	-0.385
Mof_O 	O 	0.7419	0.3171	0.0537	-0.389
Mof_O 	O 	0.7419	0.8171	0.5537	-0.383
Mof_O 	O 	0.2419	0.3171	0.5537	-0.389
Mof_O 	O 	0.2419	0.8171	0.0537	-0.386
Mof_O 	O 	0.7419	0.6829	0.9463	-0.35
Mof_O 	O 	0.7419	0.1829	0.4463	-0.39
Mof_O 	O 	0.2419	0.6829	0.4463	-0.389
Mof_O 	O 	0.2419	0.1829	0.9463	-0.355
Mof_O 	O 	0.2581	0.6829	0.0537	-0.39
Mof_O 	O 	0.2581	0.1829	0.5537	-0.392
Mof_O 	O 	0.7581	0.6829	0.5537	-0.387
Mof_O 	O 	0.7581	0.1829	0.0537	-0.391
Mof_O 	O 	0.2581	0.3171	0.9463	-0.352
Mof_O 	O 	0.2581	0.8171	0.4463	-0.385
Mof_O 	O 	0.7581	0.3171	0.4463	-0.387
Mof_O 	O 	0.7581	0.8171	0.9463	-0.346
Mof_O 	O 	0.0537	0.7419	0.3171	-0.389
Mof_O 	O 	0.0537	0.2419	0.8171	-0.386
Mof_O 	O 	0.5537	0.7419	0.8171	-0.383
Mof_O 	O 	0.5537	0.2419	0.3171	-0.389
Mof_O 	O 	0.9463	0.7419	0.6829	-0.35
Mof_O 	O 	0.9463	0.2419	0.1829	-0.355
Mof_O 	O 	0.4463	0.7419	0.1829	-0.39
Mof_O 	O 	0.4463	0.2419	0.6829	-0.389
Mof_O 	O 	0.0537	0.2581	0.6829	-0.39
Mof_O 	O 	0.0537	0.7581	0.1829	-0.391
Mof_O 	O 	0.5537	0.2581	0.1829	-0.392
Mof_O 	O 	0.5537	0.7581	0.6829	-0.387
Mof_O 	O 	0.9463	0.2581	0.3171	-0.352
Mof_O 	O 	0.9463	0.7581	0.8171	-0.346
Mof_O 	O 	0.4463	0.2581	0.8171	-0.385
Mof_O 	O 	0.4463	0.7581	0.3171	-0.387
Mof_O 	O 	0.0537	0.3171	0.2581	-0.391
Mof_O 	O 	0.0537	0.8171	0.7581	-0.384
Mof_O 	O 	0.5537	0.3171	0.7581	-0.387
Mof_O 	O 	0.5537	0.8171	0.2581	-0.385
Mof_O 	O 	0.9463	0.6829	0.2581	-0.352
Mof_O 	O 	0.9463	0.1829	0.7581	-0.353
Mof_O 	O 	0.4463	0.6829	0.7581	-0.387
Mof_O 	O 	0.4463	0.1829	0.2581	-0.392
Mof_O 	O 	0.0537	0.6829	0.7419	-0.389
Mof_O 	O 	0.0537	0.1829	0.2419	-0.393
Mof_O 	O 	0.5537	0.6829	0.2419	-0.389
Mof_O 	O 	0.5537	0.1829	0.7419	-0.39
Mof_O 	O 	0.9463	0.3171	0.7419	-0.35
Mof_O 	O 	0.9463	0.8171	0.2419	-0.348
Mof_O 	O 	0.4463	0.3171	0.2419	-0.389
Mof_O 	O 	0.4463	0.8171	0.7419	-0.383
Mof_O 	O 	0.3171	0.7419	0.9463	-0.35
Mof_O 	O 	0.3171	0.2419	0.4463	-0.389
Mof_O 	O 	0.8171	0.7419	0.4463	-0.383
Mof_O 	O 	0.8171	0.2419	0.9463	-0.348
Mof_O 	O 	0.6829	0.7419	0.0537	-0.389
Mof_O 	O 	0.6829	0.2419	0.5537	-0.389
Mof_O 	O 	0.1829	0.7419	0.5537	-0.39
Mof_O 	O 	0.1829	0.2419	0.0537	-0.393
Mof_O 	O 	0.6829	0.2581	0.9463	-0.352
Mof_O 	O 	0.6829	0.7581	0.4463	-0.387
Mof_O 	O 	0.1829	0.2581	0.4463	-0.392
Mof_O 	O 	0.1829	0.7581	0.9463	-0.353
Mof_O 	O 	0.3171	0.2581	0.0537	-0.391
Mof_O 	O 	0.3171	0.7581	0.5537	-0.387
Mof_O 	O 	0.8171	0.2581	0.5537	-0.385
Mof_O 	O 	0.8171	0.7581	0.0537	-0.384
Mof_O 	O 	0.7419	0.0537	0.6829	-0.389
Mof_O 	O 	0.7419	0.5537	0.1829	-0.39
Mof_O 	O 	0.2419	0.0537	0.1829	-0.393
Mof_O 	O 	0.2419	0.5537	0.6829	-0.389
Mof_O 	O 	0.7419	0.9463	0.3171	-0.35
Mof_O 	O 	0.7419	0.4463	0.8171	-0.383
Mof_O 	O 	0.2419	0.9463	0.8171	-0.348
Mof_O 	O 	0.2419	0.4463	0.3171	-0.389
Mof_O 	O 	0.2581	0.0537	0.3171	-0.391
Mof_O 	O 	0.2581	0.5537	0.8171	-0.385
Mof_O 	O 	0.7581	0.0537	0.8171	-0.384
Mof_O 	O 	0.7581	0.5537	0.3171	-0.387
Mof_O 	O 	0.2581	0.9463	0.6829	-0.352
Mof_O 	O 	0.2581	0.4463	0.1829	-0.392
Mof_O 	O 	0.7581	0.9463	0.1829	-0.353
Mof_O 	O 	0.7581	0.4463	0.6829	-0.387
Mof_Fe	Fe	0.71081	2.69105e-33	0.21081	0.711
Mof_Fe	Fe	0.71081	0.5	0.71081	0.783
Mof_Fe	Fe	0.28919	2.69105e-33	0.21081	0.711
Mof_Fe	Fe	0.28919	0.5	0.71081	0.783
Mof_Fe	Fe	0.78919	5.38211e-33	0.71081	0.721
Mof_Fe	Fe	0.28919	5.38211e-33	0.78919	0.722
Mof_Fe	Fe	0.28919	0.5	0.28919	0.783
Mof_Fe	Fe	0.78919	0.5	0.78919	0.795
Mof_Fe	Fe	0.71081	5.38211e-33	0.78919	0.721
Mof_Fe	Fe	0.71081	0.5	0.28919	0.783
Mof_Fe	Fe	0.21081	0.71081	-0	0.711
Mof_Fe	Fe	0.21081	0.21081	0.5	0.775
Mof_Fe	Fe	0.71081	0.71081	0.5	0.783
Mof_Fe	Fe	0.21081	0.28919	-0	0.711
Mof_Fe	Fe	0.21081	0.78919	0.5	0.785
Mof_Fe	Fe	0.71081	0.78919	-0	0.721
Mof_Fe	Fe	0.78919	0.28919	-0	0.722
Mof_Fe	Fe	0.78919	0.78919	0.5	0.795
Mof_Fe	Fe	0.78919	0.71081	-0	0.721
Mof_Fe	Fe	0.78919	0.21081	0.5	0.785
Mof_Fe	Fe	8.04722e-33	0.21081	0.71081	0.711
Mof_Fe	Fe	0.5	0.21081	0.21081	0.775
Mof_Fe	Fe	0.5	0.71081	0.71081	0.783
Mof_Fe	Fe	3.77534e-33	0.21081	0.28919	0.711
Mof_Fe	Fe	8.3411e-33	0.71081	0.78919	0.721
Mof_Fe	Fe	0.5	0.21081	0.78919	0.785
Mof_Fe	Fe	-1.60677e-33	0.78919	0.28919	0.722
Mof_Fe	Fe	0.5	0.78919	0.78919	0.795
Mof_Fe	Fe	8.04722e-33	0.78919	0.71081	0.721
Mof_Fe	Fe	0.5	0.78919	0.21081	0.785
Mof_Fe	Fe	0.5	0.71081	0.28919	0.783
Mof_Fe	Fe	2.95899e-33	0.28919	0.78919	0.722
Mof_Fe	Fe	0.5	0.28919	0.28919	0.783
Mof_Fe	Fe	6.17252e-33	0.28919	0.21081	0.711
Mof_Fe	Fe	0.5	0.28919	0.71081	0.783
Mof_Fe	Fe	8.86357e-33	0.71081	0.21081	0.711
Mof_Fe	Fe	0.71081	0.21081	-0	0.711
Mof_Fe	Fe	0.28919	0.21081	-0	0.711
Mof_Fe	Fe	0.28919	0.71081	0.5	0.783
Mof_Fe	Fe	0.28919	0.78919	-0	0.722
Mof_Fe	Fe	0.28919	0.28919	0.5	0.783
Mof_Fe	Fe	0.71081	0.28919	0.5	0.783
Mof_Fe	Fe	0.21081	0	0.28919	0.711
Mof_Fe	Fe	0.21081	0.5	0.78919	0.785
Mof_Fe	Fe	0.21081	5.38211e-33	0.71081	0.711
Mof_Fe	Fe	0.21081	0.5	0.21081	0.775
Mof_Fe	Fe	0.78919	0.5	0.21081	0.785
Mof_Fe	Fe	0.78919	0	0.28919	0.722
Mof_C 	C 	0.6775	0.8868	0.3225	-0.153
Mof_C 	C 	0.7025	0.9303	0.2975	0.406
Mof_C 	C 	0.6775	0.3868	0.8225	-0.16
Mof_C 	C 	0.7025	0.4303	0.7975	0.417
Mof_C 	C 	0.1775	0.8868	0.8225	-0.148
Mof_C 	C 	0.2025	0.9303	0.7975	0.405
Mof_C 	C 	0.1775	0.3868	0.3225	-0.173
Mof_C 	C 	0.2025	0.4303	0.2975	0.42
Mof_C 	C 	0.3225	0.1132	0.3225	-0.174
Mof_C 	C 	0.2975	0.0697	0.2975	0.415
Mof_C 	C 	0.3225	0.6132	0.8225	-0.161
Mof_C 	C 	0.2975	0.5697	0.7975	0.418
Mof_C 	C 	0.8225	0.1132	0.8225	-0.157
Mof_C 	C 	0.7975	0.0697	0.7975	0.41
Mof_C 	C 	0.8225	0.6132	0.3225	-0.161
Mof_C 	C 	0.7975	0.5697	0.2975	0.418
Mof_C 	C 	0.3225	0.8868	0.6775	-0.153
Mof_C 	C 	0.2975	0.9303	0.7025	0.406
Mof_C 	C 	0.3225	0.3868	0.1775	-0.173
Mof_C 	C 	0.2975	0.4303	0.2025	0.42
Mof_C 	C 	0.8225	0.8868	0.1775	-0.148
Mof_C 	C 	0.7975	0.9303	0.2025	0.405
Mof_C 	C 	0.8225	0.3868	0.6775	-0.16
Mof_C 	C 	0.7975	0.4303	0.7025	0.417
Mof_C 	C 	0.6775	0.1132	0.6775	-0.171
Mof_C 	C 	0.7025	0.0697	0.7025	0.413
Mof_C 	C 	0.6775	0.6132	0.1775	-0.171
Mof_C 	C 	0.7025	0.5697	0.2025	0.419
Mof_C 	C 	0.1775	0.1132	0.1775	-0.18
Mof_C 	C 	0.2025	0.0697	0.2025	0.415
Mof_C 	C 	0.1775	0.6132	0.6775	-0.171
Mof_C 	C 	0.2025	0.5697	0.7025	0.419
Mof_C 	C 	0.3225	0.6775	0.8868	-0.153
Mof_C 	C 	0.2975	0.7025	0.9303	0.406
Mof_C 	C 	0.3225	0.1775	0.3868	-0.173
Mof_C 	C 	0.2975	0.2025	0.4303	0.42
Mof_C 	C 	0.8225	0.6775	0.3868	-0.16
Mof_C 	C 	0.7975	0.7025	0.4303	0.417
Mof_C 	C 	0.8225	0.1775	0.8868	-0.148
Mof_C 	C 	0.7975	0.2025	0.9303	0.405
Mof_C 	C 	0.3225	0.3225	0.1132	-0.174
Mof_C 	C 	0.2975	0.2975	0.0697	0.415
Mof_C 	C 	0.3225	0.8225	0.6132	-0.161
Mof_C 	C 	0.2975	0.7975	0.5697	0.418
Mof_C 	C 	0.8225	0.3225	0.6132	-0.161
Mof_C 	C 	0.7975	0.2975	0.5697	0.418
Mof_C 	C 	0.8225	0.8225	0.1132	-0.157
Mof_C 	C 	0.7975	0.7975	0.0697	0.41
Mof_C 	C 	0.6775	0.3225	0.8868	-0.153
Mof_C 	C 	0.7025	0.2975	0.9303	0.406
Mof_C 	C 	0.6775	0.8225	0.3868	-0.16
Mof_C 	C 	0.7025	0.7975	0.4303	0.417
Mof_C 	C 	0.1775	0.3225	0.3868	-0.173
Mof_C 	C 	0.2025	0.2975	0.4303	0.42
Mof_C 	C 	0.1775	0.8225	0.8868	-0.148
Mof_C 	C 	0.2025	0.7975	0.9303	0.405
Mof_C 	C 	0.6775	0.6775	0.1132	-0.171
Mof_C 	C 	0.7025	0.7025	0.0697	0.413
Mof_C 	C 	0.6775	0.1775	0.6132	-0.171
Mof_C 	C 	0.7025	0.2025	0.5697	0.419
Mof_C 	C 	0.1775	0.6775	0.6132	-0.171
Mof_C 	C 	0.2025	0.7025	0.5697	0.419
Mof_C 	C 	0.1775	0.1775	0.1132	-0.18
Mof_C 	C 	0.2025	0.2025	0.0697	0.415
Mof_C 	C 	0.8868	0.3225	0.6775	-0.153
Mof_C 	C 	0.9303	0.2975	0.7025	0.406
Mof_C 	C 	0.8868	0.8225	0.1775	-0.148
Mof_C 	C 	0.9303	0.7975	0.2025	0.405
Mof_C 	C 	0.3868	0.3225	0.1775	-0.173
Mof_C 	C 	0.4303	0.2975	0.2025	0.42
Mof_C 	C 	0.3868	0.8225	0.6775	-0.16
Mof_C 	C 	0.4303	0.7975	0.7025	0.417
Mof_C 	C 	0.1132	0.3225	0.3225	-0.174
Mof_C 	C 	0.0697	0.2975	0.2975	0.415
Mof_C 	C 	0.1132	0.8225	0.8225	-0.157
Mof_C 	C 	0.0697	0.7975	0.7975	0.41
Mof_C 	C 	0.6132	0.3225	0.8225	-0.161
Mof_C 	C 	0.5697	0.2975	0.7975	0.418
Mof_C 	C 	0.6132	0.8225	0.3225	-0.161
Mof_C 	C 	0.5697	0.7975	0.2975	0.418
Mof_C 	C 	0.8868	0.6775	0.3225	-0.153
Mof_C 	C 	0.9303	0.7025	0.2975	0.406
Mof_C 	C 	0.8868	0.1775	0.8225	-0.148
Mof_C 	C 	0.9303	0.2025	0.7975	0.405
Mof_C 	C 	0.3868	0.6775	0.8225	-0.16
Mof_C 	C 	0.4303	0.7025	0.7975	0.417
Mof_C 	C 	0.3868	0.1775	0.3225	-0.173
Mof_C 	C 	0.4303	0.2025	0.2975	0.42
Mof_C 	C 	0.1132	0.6775	0.6775	-0.171
Mof_C 	C 	0.0697	0.7025	0.7025	0.413
Mof_C 	C 	0.1132	0.1775	0.1775	-0.18
Mof_C 	C 	0.0697	0.2025	0.2025	0.415
Mof_C 	C 	0.6132	0.6775	0.1775	-0.171
Mof_C 	C 	0.5697	0.7025	0.2025	0.419
Mof_C 	C 	0.6132	0.1775	0.6775	-0.171
Mof_C 	C 	0.5697	0.2025	0.7025	0.419
Mof_C 	C 	0.8868	0.6775	0.6775	-0.151
Mof_C 	C 	0.9303	0.7025	0.7025	0.405
Mof_C 	C 	0.8868	0.1775	0.1775	-0.16
Mof_C 	C 	0.9303	0.2025	0.2025	0.407
Mof_C 	C 	0.3868	0.6775	0.1775	-0.172
Mof_C 	C 	0.4303	0.7025	0.2025	0.42
Mof_C 	C 	0.3868	0.1775	0.6775	-0.172
Mof_C 	C 	0.4303	0.2025	0.7025	0.42
Mof_C 	C 	0.1132	0.3225	0.6775	-0.173
Mof_C 	C 	0.0697	0.2975	0.7025	0.414
Mof_C 	C 	0.1132	0.8225	0.1775	-0.168
Mof_C 	C 	0.0697	0.7975	0.2025	0.413
Mof_C 	C 	0.6132	0.3225	0.1775	-0.173
Mof_C 	C 	0.5697	0.2975	0.2025	0.42
Mof_C 	C 	0.6132	0.8225	0.6775	-0.159
Mof_C 	C 	0.5697	0.7975	0.7025	0.417
Mof_C 	C 	0.8868	0.3225	0.3225	-0.154
Mof_C 	C 	0.9303	0.2975	0.2975	0.407
Mof_C 	C 	0.8868	0.8225	0.8225	-0.137
Mof_C 	C 	0.9303	0.7975	0.7975	0.402
Mof_C 	C 	0.3868	0.3225	0.8225	-0.162
Mof_C 	C 	0.4303	0.2975	0.7975	0.418
Mof_C 	C 	0.3868	0.8225	0.3225	-0.162
Mof_C 	C 	0.4303	0.7975	0.2975	0.418
Mof_C 	C 	0.1132	0.6775	0.3225	-0.173
Mof_C 	C 	0.0697	0.7025	0.2975	0.414
Mof_C 	C 	0.1132	0.1775	0.8225	-0.168
Mof_C 	C 	0.0697	0.2025	0.7975	0.413
Mof_C 	C 	0.6132	0.6775	0.8225	-0.159
Mof_C 	C 	0.5697	0.7025	0.7975	0.417
Mof_C 	C 	0.6132	0.1775	0.3225	-0.173
Mof_C 	C 	0.5697	0.2025	0.2975	0.42
Mof_C 	C 	0.6775	0.3225	0.1132	-0.173
Mof_C 	C 	0.7025	0.2975	0.0697	0.414
Mof_C 	C 	0.6775	0.8225	0.6132	-0.159
Mof_C 	C 	0.7025	0.7975	0.5697	0.417
Mof_C 	C 	0.1775	0.3225	0.6132	-0.173
Mof_C 	C 	0.2025	0.2975	0.5697	0.42
Mof_C 	C 	0.1775	0.8225	0.1132	-0.168
Mof_C 	C 	0.2025	0.7975	0.0697	0.413
Mof_C 	C 	0.3225	0.3225	0.8868	-0.154
Mof_C 	C 	0.2975	0.2975	0.9303	0.407
Mof_C 	C 	0.3225	0.8225	0.3868	-0.162
Mof_C 	C 	0.2975	0.7975	0.4303	0.418
Mof_C 	C 	0.8225	0.3225	0.3868	-0.162
Mof_C 	C 	0.7975	0.2975	0.4303	0.418
Mof_C 	C 	0.8225	0.8225	0.8868	-0.137
Mof_C 	C 	0.7975	0.7975	0.9303	0.402
Mof_C 	C 	0.3225	0.6775	0.1132	-0.173
Mof_C 	C 	0.2975	0.7025	0.0697	0.414
Mof_C 	C 	0.3225	0.1775	0.6132	-0.173
Mof_C 	C 	0.2975	0.2025	0.5697	0.42
Mof_C 	C 	0.8225	0.6775	0.6132	-0.159
Mof_C 	C 	0.7975	0.7025	0.5697	0.417
Mof_C 	C 	0.8225	0.1775	0.1132	-0.168
Mof_C 	C 	0.7975	0.2025	0.0697	0.413
Mof_C 	C 	0.6775	0.6775	0.8868	-0.151
Mof_C 	C 	0.7025	0.7025	0.9303	0.405
Mof_C 	C 	0.6775	0.1775	0.3868	-0.172
Mof_C 	C 	0.7025	0.2025	0.4303	0.42
Mof_C 	C 	0.1775	0.6775	0.3868	-0.172
Mof_C 	C 	0.2025	0.7025	0.4303	0.42
Mof_C 	C 	0.1775	0.1775	0.8868	-0.16
Mof_C 	C 	0.2025	0.2025	0.9303	0.407
Mof_C 	C 	0.3225	0.8868	0.3225	-0.154
Mof_C 	C 	0.2975	0.9303	0.2975	0.407
Mof_C 	C 	0.3225	0.3868	0.8225	-0.162
Mof_C 	C 	0.2975	0.4303	0.7975	0.418
Mof_C 	C 	0.8225	0.8868	0.8225	-0.137
Mof_C 	C 	0.7975	0.9303	0.7975	0.402
Mof_C 	C 	0.8225	0.3868	0.3225	-0.162
Mof_C 	C 	0.7975	0.4303	0.2975	0.418
Mof_C 	C 	0.3225	0.1132	0.6775	-0.173
Mof_C 	C 	0.2975	0.0697	0.7025	0.414
Mof_C 	C 	0.3225	0.6132	0.1775	-0.173
Mof_C 	C 	0.2975	0.5697	0.2025	0.42
Mof_C 	C 	0.8225	0.1132	0.1775	-0.168
Mof_C 	C 	0.7975	0.0697	0.2025	0.413
Mof_C 	C 	0.8225	0.6132	0.6775	-0.159
Mof_C 	C 	0.7975	0.5697	0.7025	0.417
Mof_C 	C 	0.6775	0.8868	0.6775	-0.151
Mof_C 	C 	0.7025	0.9303	0.7025	0.405
Mof_C 	C 	0.6775	0.3868	0.1775	-0.172
Mof_C 	C 	0.7025	0.4303	0.2025	0.42
Mof_C 	C 	0.1775	0.8868	0.1775	-0.16
Mof_C 	C 	0.2025	0.9303	0.2025	0.407
Mof_C 	C 	0.1775	0.3868	0.6775	-0.172
Mof_C 	C 	0.2025	0.4303	0.7025	0.42
Mof_C 	C 	0.6775	0.1132	0.3225	-0.173
Mof_C 	C 	0.7025	0.0697	0.2975	0.414
Mof_C 	C 	0.6775	0.6132	0.8225	-0.159
Mof_C 	C 	0.7025	0.5697	0.7975	0.417
Mof_C 	C 	0.1775	0.1132	0.8225	-0.168
Mof_C 	C 	0.2025	0.0697	0.7975	0.413
Mof_C 	C 	0.1775	0.6132	0.3225	-0.173
Mof_C 	C 	0.2025	0.5697	0.2975	0.42
Mof_C 	C 	0.6352	0.8648	0.3017	0.102
Mof_H 	H 	0.6209	0.8791	0.2722	0.032
Mof_C 	C 	0.6352	0.3648	0.8017	0.104
Mof_H 	H 	0.6209	0.3791	0.7722	0.027
Mof_C 	C 	0.3648	0.1352	0.3017	0.111
Mof_H 	H 	0.3791	0.1209	0.2722	0.02
Mof_C 	C 	0.3648	0.6352	0.8017	0.104
Mof_H 	H 	0.3791	0.6209	0.7722	0.027
Mof_C 	C 	0.8648	0.6352	0.3017	0.102
Mof_H 	H 	0.8791	0.6209	0.2722	0.032
Mof_C 	C 	0.3648	0.8648	0.6983	0.101
Mof_H 	H 	0.3791	0.8791	0.7278	0.034
Mof_C 	C 	0.3648	0.3648	0.1983	0.111
Mof_H 	H 	0.3791	0.3791	0.2278	0.023
Mof_C 	C 	0.8648	0.8648	0.1983	0.095
Mof_H 	H 	0.8791	0.8791	0.2278	0.04
Mof_C 	C 	0.6352	0.1352	0.6983	0.108
Mof_H 	H 	0.6209	0.1209	0.7278	0.023
Mof_C 	C 	0.6352	0.6352	0.1983	0.109
Mof_H 	H 	0.6209	0.6209	0.2278	0.024
Mof_C 	C 	0.3017	0.6352	0.8648	0.102
Mof_H 	H 	0.2722	0.6209	0.8791	0.032
Mof_C 	C 	0.8017	0.6352	0.3648	0.104
Mof_H 	H 	0.7722	0.6209	0.3791	0.027
Mof_C 	C 	0.3017	0.3648	0.1352	0.111
Mof_H 	H 	0.2722	0.3791	0.1209	0.02
Mof_C 	C 	0.3017	0.8648	0.6352	0.102
Mof_H 	H 	0.2722	0.8791	0.6209	0.032
Mof_C 	C 	0.8017	0.3648	0.6352	0.104
Mof_H 	H 	0.7722	0.3791	0.6209	0.027
Mof_C 	C 	0.6983	0.3648	0.8648	0.101
Mof_H 	H 	0.7278	0.3791	0.8791	0.034
Mof_C 	C 	0.1983	0.3648	0.3648	0.111
Mof_H 	H 	0.2278	0.3791	0.3791	0.023
Mof_C 	C 	0.1983	0.8648	0.8648	0.095
Mof_H 	H 	0.2278	0.8791	0.8791	0.04
Mof_C 	C 	0.6983	0.6352	0.1352	0.108
Mof_H 	H 	0.7278	0.6209	0.1209	0.023
Mof_C 	C 	0.1983	0.6352	0.6352	0.109
Mof_H 	H 	0.2278	0.6209	0.6209	0.024
Mof_C 	C 	0.8648	0.3017	0.6352	0.102
Mof_H 	H 	0.8791	0.2722	0.6209	0.032
Mof_C 	C 	0.8648	0.8017	0.1352	0.097
Mof_H 	H 	0.8791	0.7722	0.1209	0.031
Mof_C 	C 	0.1352	0.3017	0.3648	0.111
Mof_H 	H 	0.1209	0.2722	0.3791	0.02
Mof_C 	C 	0.1352	0.8017	0.8648	0.097
Mof_H 	H 	0.1209	0.7722	0.8791	0.031
Mof_C 	C 	0.6352	0.3017	0.8648	0.102
Mof_H 	H 	0.6209	0.2722	0.8791	0.032
Mof_C 	C 	0.8648	0.6983	0.3648	0.101
Mof_H 	H 	0.8791	0.7278	0.3791	0.034
Mof_C 	C 	0.8648	0.1983	0.8648	0.095
Mof_H 	H 	0.8791	0.2278	0.8791	0.04
Mof_C 	C 	0.1352	0.6983	0.6352	0.108
Mof_H 	H 	0.1209	0.7278	0.6209	0.023
Mof_C 	C 	0.1352	0.1983	0.1352	0.111
Mof_H 	H 	0.1209	0.2278	0.1209	0.016
Mof_C 	C 	0.6352	0.1983	0.6352	0.109
Mof_H 	H 	0.6209	0.2278	0.6209	0.024
Mof_C 	C 	0.8648	0.6352	0.6983	0.1
Mof_H 	H 	0.8791	0.6209	0.7278	0.035
Mof_C 	C 	0.8648	0.1352	0.1983	0.103
Mof_H 	H 	0.8791	0.1209	0.2278	0.028
Mof_C 	C 	0.1352	0.3648	0.6983	0.109
Mof_H 	H 	0.1209	0.3791	0.7278	0.022
Mof_C 	C 	0.1352	0.8648	0.1983	0.103
Mof_H 	H 	0.1209	0.8791	0.2278	0.028
Mof_C 	C 	0.6352	0.8648	0.6983	0.1
Mof_H 	H 	0.6209	0.8791	0.7278	0.035
Mof_C 	C 	0.8648	0.3648	0.3017	0.103
Mof_H 	H 	0.8791	0.3791	0.2722	0.032
Mof_C 	C 	0.8648	0.8648	0.8017	0.09
Mof_H 	H 	0.8791	0.8791	0.7722	0.043
Mof_C 	C 	0.1352	0.6352	0.3017	0.11
Mof_H 	H 	0.1209	0.6209	0.2722	0.02
Mof_C 	C 	0.1352	0.1352	0.8017	0.105
Mof_H 	H 	0.1209	0.1209	0.7722	0.019
Mof_C 	C 	0.6352	0.6352	0.8017	0.103
Mof_H 	H 	0.6209	0.6209	0.7722	0.028
Mof_C 	C 	0.6352	0.3017	0.1352	0.11
Mof_H 	H 	0.6209	0.2722	0.1209	0.02
Mof_C 	C 	0.6352	0.8017	0.6352	0.103
Mof_H 	H 	0.6209	0.7722	0.6209	0.028
Mof_C 	C 	0.3648	0.3017	0.8648	0.103
Mof_H 	H 	0.3791	0.2722	0.8791	0.032
Mof_C 	C 	0.3648	0.8017	0.3648	0.105
Mof_H 	H 	0.3791	0.7722	0.3791	0.027
Mof_C 	C 	0.8648	0.8017	0.8648	0.09
Mof_H 	H 	0.8791	0.7722	0.8791	0.043
Mof_C 	C 	0.3648	0.6983	0.1352	0.109
Mof_H 	H 	0.3791	0.7278	0.1209	0.022
Mof_C 	C 	0.3648	0.1983	0.6352	0.11
Mof_H 	H 	0.3791	0.2278	0.6209	0.024
Mof_C 	C 	0.8648	0.6983	0.6352	0.1
Mof_H 	H 	0.8791	0.7278	0.6209	0.035
Mof_C 	C 	0.6352	0.6983	0.8648	0.1
Mof_H 	H 	0.6209	0.7278	0.8791	0.035
Mof_C 	C 	0.6352	0.1983	0.3648	0.11
Mof_H 	H 	0.6209	0.2278	0.3791	0.024
Mof_C 	C 	0.3017	0.8648	0.3648	0.103
Mof_H 	H 	0.2722	0.8791	0.3791	0.032
Mof_C 	C 	0.8017	0.8648	0.8648	0.09
Mof_H 	H 	0.7722	0.8791	0.8791	0.043
Mof_C 	C 	0.3017	0.1352	0.6352	0.11
Mof_H 	H 	0.2722	0.1209	0.6209	0.02
Mof_C 	C 	0.8017	0.1352	0.1352	0.105
Mof_H 	H 	0.7722	0.1209	0.1209	0.019
Mof_C 	C 	0.8017	0.6352	0.6352	0.103
Mof_H 	H 	0.7722	0.6209	0.6209	0.028
Mof_C 	C 	0.6983	0.8648	0.6352	0.1
Mof_H 	H 	0.7278	0.8791	0.6209	0.035
Mof_C 	C 	0.1983	0.8648	0.1352	0.103
Mof_H 	H 	0.2278	0.8791	0.1209	0.028
Mof_C 	C 	0.6983	0.1352	0.3648	0.109
Mof_H 	H 	0.7278	0.1209	0.3791	0.022
Mof_C 	C 	0.6983	0.6352	0.8648	0.1
Mof_H 	H 	0.7278	0.6209	0.8791	0.035
Mof_C 	C 	0.1983	0.1352	0.8648	0.103
Mof_H 	H 	0.2278	0.1209	0.8791	0.028
Mof_C 	C 	0.3648	0.1352	0.6983	0.109
Mof_H 	H 	0.3791	0.1209	0.7278	0.022
Mof_C 	C 	0.3648	0.6352	0.1983	0.11
Mof_H 	H 	0.3791	0.6209	0.2278	0.024
Mof_C 	C 	0.6352	0.3648	0.1983	0.11
Mof_H 	H 	0.6209	0.3791	0.2278	0.024
Mof_C 	C 	0.6352	0.1352	0.3017	0.11
Mof_H 	H 	0.6209	0.1209	0.2722	0.02
Mof_C 	C 	0.3648	0.8648	0.3017	0.103
Mof_H 	H 	0.3791	0.8791	0.2722	0.032
Mof_C 	C 	0.3648	0.3648	0.8017	0.105
Mof_H 	H 	0.3791	0.3791	0.7722	0.027
Mof_C 	C 	0.6983	0.3648	0.1352	0.109
Mof_H 	H 	0.7278	0.3791	0.1209	0.022
Mof_C 	C 	0.1983	0.3648	0.6352	0.11
Mof_H 	H 	0.2278	0.3791	0.6209	0.024
Mof_C 	C 	0.1983	0.6352	0.3648	0.11
Mof_H 	H 	0.2278	0.6209	0.3791	0.024
Mof_C 	C 	0.3017	0.6352	0.1352	0.11
Mof_H 	H 	0.2722	0.6209	0.1209	0.02
Mof_C 	C 	0.3017	0.3648	0.8648	0.103
Mof_H 	H 	0.2722	0.3791	0.8791	0.032
Mof_C 	C 	0.8017	0.3648	0.3648	0.105
Mof_H 	H 	0.7722	0.3791	0.3791	0.027
Mof_C 	C 	0.1352	0.6983	0.3648	0.109
Mof_H 	H 	0.1209	0.7278	0.3791	0.022
Mof_C 	C 	0.1352	0.1983	0.8648	0.103
Mof_H 	H 	0.1209	0.2278	0.8791	0.028
Mof_C 	C 	0.8648	0.1983	0.1352	0.103
Mof_H 	H 	0.8791	0.2278	0.1209	0.028
Mof_C 	C 	0.1352	0.3017	0.6352	0.11
Mof_H 	H 	0.1209	0.2722	0.6209	0.02
Mof_C 	C 	0.1352	0.8017	0.1352	0.105
Mof_H 	H 	0.1209	0.7722	0.1209	0.019
Mof_C 	C 	0.8648	0.3017	0.3648	0.103
Mof_H 	H 	0.8791	0.2722	0.3791	0.032
Mof_C 	C 	0.1352	0.3648	0.3017	0.111
Mof_H 	H 	0.1209	0.3791	0.2722	0.02
Mof_C 	C 	0.1352	0.8648	0.8017	0.097
Mof_H 	H 	0.1209	0.8791	0.7722	0.031
Mof_C 	C 	0.8648	0.1352	0.8017	0.097
Mof_H 	H 	0.8791	0.1209	0.7722	0.031
Mof_C 	C 	0.1352	0.6352	0.6983	0.108
Mof_H 	H 	0.1209	0.6209	0.7278	0.023
Mof_C 	C 	0.1352	0.1352	0.1983	0.111
Mof_H 	H 	0.1209	0.1209	0.2278	0.016
Mof_C 	C 	0.8648	0.3648	0.6983	0.101
Mof_H 	H 	0.8791	0.3791	0.7278	0.034
Mof_C 	C 	0.3648	0.6983	0.8648	0.101
Mof_H 	H 	0.3791	0.7278	0.8791	0.034
Mof_C 	C 	0.3648	0.1983	0.3648	0.111
Mof_H 	H 	0.3791	0.2278	0.3791	0.023
Mof_C 	C 	0.6352	0.6983	0.1352	0.108
Mof_H 	H 	0.6209	0.7278	0.1209	0.023
Mof_C 	C 	0.6352	0.8017	0.3648	0.104
Mof_H 	H 	0.6209	0.7722	0.3791	0.027
Mof_C 	C 	0.3648	0.3017	0.1352	0.111
Mof_H 	H 	0.3791	0.2722	0.1209	0.02
Mof_C 	C 	0.3648	0.8017	0.6352	0.104
Mof_H 	H 	0.3791	0.7722	0.6209	0.027
Mof_C 	C 	0.6983	0.1352	0.6352	0.108
Mof_H 	H 	0.7278	0.1209	0.6209	0.023
Mof_C 	C 	0.1983	0.1352	0.1352	0.111
Mof_H 	H 	0.2278	0.1209	0.1209	0.016
Mof_C 	C 	0.6983	0.8648	0.3648	0.101
Mof_H 	H 	0.7278	0.8791	0.3791	0.034
Mof_C 	C 	0.3017	0.1352	0.3648	0.111
Mof_H 	H 	0.2722	0.1209	0.3791	0.02
Mof_C 	C 	0.8017	0.1352	0.8648	0.097
Mof_H 	H 	0.7722	0.1209	0.8791	0.031
Mof_C 	C 	0.8017	0.8648	0.1352	0.097
Mof_H 	H 	0.7722	0.8791	0.1209	0.031
_end
