data_functionalizedCrystal
_audit_creation_method	'EQeq! by Chris Wilmer'
_symmetry_space_group_name_H-M	'P1'
_symmetry_Int_Tables_number	1
_symmetry_cell_setting	triclinic
loop_
_symmetry_equiv_pos_as_xyz
  x,y,z
_cell_length_a	13.3444
_cell_length_b	18.782
_cell_length_c	5.849
_cell_angle_alpha	90
_cell_angle_beta	97.711
_cell_angle_gamma	90
loop_
_atom_site_label
_atom_site_type_symbol
_atom_site_fract_x
_atom_site_fract_y
_atom_site_fract_z
_atom_site_charge
Mof_La	La	0.6289	0.25	0.3351	2.13
Mof_P 	P 	0.4399	0.0853	0.144	0.397
Mof_P 	P 	0.7331	0.1336	0.863	0.45
Mof_O 	O 	0.423	0.0743	0.881	-0.197
Mof_O 	O 	0.463	0.1636	0.206	-0.363
Mof_O 	O 	0.5249	0.0366	0.258	-0.198
Mof_O 	O 	0.8426	0.138	0.807	-0.237
Mof_O 	O 	0.661	0.1758	0.684	-0.479
Mof_O 	O 	0.729	0.1613	0.109	-0.416
Mof_C 	C 	0.3248	0.0624	0.261	0.013
Mof_C 	C 	0.694	0.0417	0.845	-0.008
Mof_N 	N 	0.2674	0.9927	0.249	-0.085
Mof_C 	C 	0.1643	0.0055	0.318	0.039
Mof_C 	C 	0.155	0.9813	0.558	0.012
Mof_C 	C 	0.047	0.9785	0.604	0.007
Mof_P 	P 	0.5424	0.9045	0.78	0.435
Mof_P 	P 	0.2803	0.8651	0.1063	0.449
Mof_O 	O 	0.563	0.9091	0.045	-0.194
Mof_O 	O 	0.5033	0.8304	0.7	-0.466
Mof_O 	O 	0.4662	0.9624	0.684	-0.174
Mof_O 	O 	0.1731	0.8326	0.08	-0.261
Mof_O 	O 	0.3308	0.8628	0.358	-0.345
Mof_O 	O 	0.3474	0.8284	0.948	-0.508
Mof_C 	C 	0.6597	0.9207	0.664	0.013
Mof_C 	C 	0.266	0.9571	0.018	0.005
Mof_N 	N 	0.7183	0.9897	0.663	-0.089
Mof_C 	C 	0.8296	0.9817	0.649	0.055
Mof_C 	C 	0.8626	0.9808	0.415	0.01
Mof_C 	C 	0.9697	0.9587	0.404	0.008
Mof_La	La	0.3711	0.75	0.6649	2.13
Mof_P 	P 	0.5601	0.5853	0.856	0.396
Mof_P 	P 	0.2669	0.6336	0.137	0.448
Mof_O 	O 	0.577	0.5743	0.119	-0.194
Mof_O 	O 	0.537	0.6636	0.794	-0.363
Mof_O 	O 	0.4751	0.5366	0.742	-0.195
Mof_O 	O 	0.1574	0.638	0.193	-0.235
Mof_O 	O 	0.339	0.6758	0.316	-0.478
Mof_O 	O 	0.271	0.6613	0.891	-0.415
Mof_C 	C 	0.6752	0.5624	0.739	0.018
Mof_C 	C 	0.306	0.5417	0.155	-0.002
Mof_N 	N 	0.7326	0.4927	0.751	-0.091
Mof_C 	C 	0.8357	0.5055	0.682	0.051
Mof_C 	C 	0.845	0.4813	0.442	0.004
Mof_C 	C 	0.953	0.4785	0.396	0.006
Mof_P 	P 	0.4576	0.4045	0.22	0.435
Mof_P 	P 	0.7197	0.3651	0.8937	0.449
Mof_O 	O 	0.437	0.4091	0.955	-0.196
Mof_O 	O 	0.4967	0.3304	0.3	-0.466
Mof_O 	O 	0.5338	0.4624	0.316	-0.178
Mof_O 	O 	0.8269	0.3326	0.92	-0.261
Mof_O 	O 	0.6692	0.3628	0.642	-0.346
Mof_O 	O 	0.6526	0.3284	0.052	-0.508
Mof_C 	C 	0.3403	0.4207	0.336	0.011
Mof_C 	C 	0.734	0.4571	0.982	0.002
Mof_N 	N 	0.2817	0.4897	0.337	-0.093
Mof_C 	C 	0.1704	0.4817	0.351	0.053
Mof_C 	C 	0.1374	0.4808	0.585	0.008
Mof_C 	C 	0.0303	0.4587	0.596	0.007
_end
