data_functionalizedCrystal
_audit_creation_method	'EQeq! by Chris Wilmer'
_symmetry_space_group_name_H-M	'P1'
_symmetry_Int_Tables_number	1
_symmetry_cell_setting	triclinic
loop_
_symmetry_equiv_pos_as_xyz
  x,y,z
_cell_length_a	20.4032
_cell_length_b	20.4032
_cell_length_c	20.4032
_cell_angle_alpha	90
_cell_angle_beta	90
_cell_angle_gamma	90
loop_
_atom_site_label
_atom_site_type_symbol
_atom_site_fract_x
_atom_site_fract_y
_atom_site_fract_z
_atom_site_charge
Mof_O 	O 	0.1344	0.811	0.24393	-0.47
Mof_O 	O 	0.0594	0.88358	0.212	-0.346
Mof_N 	N 	0.9979	0.6523	0.0116	-0.256
Mof_H 	H 	0.9607	0.6655	0.9941	0.164
Mof_N 	N 	0.9896	0.576	0.9312	-0.179
Mof_C 	C 	0.0872	0.8293	0.2068	0.377
Mof_C 	C 	0.0651	0.7815	0.1562	-0.195
Mof_C 	C 	0.0139	0.7966	0.1147	0.134
Mof_H 	H 	0.9927	0.8378	0.1187	-0.014
Mof_C 	C 	0.9935	0.7536	0.0683	-0.238
Mof_H 	H 	0.9591	0.7658	0.0394	0.112
Mof_C 	C 	0.0218	0.6919	0.0622	0.215
Mof_C 	C 	0.0731	0.6761	0.1045	-0.231
Mof_H 	H 	0.0941	0.6347	0.1009	0.12
Mof_C 	C 	0.0935	0.7199	0.151	0.132
Mof_H 	H 	0.1276	0.7079	0.1803	-0.003
Mof_C 	C 	0.0232	0.5965	0.9853	0.193
Mof_O 	O 	0.3656	0.189	0.74393	-0.471
Mof_O 	O 	0.4406	0.11642	0.712	-0.347
Mof_N 	N 	0.5021	0.3477	0.5116	-0.256
Mof_H 	H 	0.5393	0.3345	0.4941	0.163
Mof_N 	N 	0.5104	0.424	0.4312	-0.18
Mof_C 	C 	0.4128	0.1707	0.7068	0.376
Mof_C 	C 	0.4349	0.2185	0.6562	-0.195
Mof_C 	C 	0.4861	0.2034	0.6147	0.133
Mof_H 	H 	0.5073	0.1622	0.6187	-0.013
Mof_C 	C 	0.5065	0.2464	0.5683	-0.236
Mof_H 	H 	0.5409	0.2342	0.5394	0.111
Mof_C 	C 	0.4782	0.3081	0.5622	0.213
Mof_C 	C 	0.4269	0.3239	0.6045	-0.23
Mof_H 	H 	0.4059	0.3653	0.6009	0.119
Mof_C 	C 	0.4065	0.2801	0.651	0.131
Mof_H 	H 	0.3724	0.2921	0.6803	-0.003
Mof_C 	C 	0.4768	0.4035	0.4853	0.194
Mof_O 	O 	0.8656	0.311	0.25607	-0.471
Mof_O 	O 	0.9406	0.38358	0.288	-0.347
Mof_N 	N 	0.0021	0.1523	0.4884	-0.256
Mof_H 	H 	0.0393	0.1655	0.5059	0.162
Mof_N 	N 	0.0104	0.076	0.5688	-0.18
Mof_C 	C 	0.9128	0.3293	0.2932	0.376
Mof_C 	C 	0.9349	0.2815	0.3438	-0.194
Mof_C 	C 	0.9861	0.2966	0.3853	0.13
Mof_H 	H 	0.0073	0.3378	0.3813	-0.012
Mof_C 	C 	0.0065	0.2536	0.4317	-0.234
Mof_H 	H 	0.0409	0.2658	0.4606	0.111
Mof_C 	C 	0.9782	0.1919	0.4378	0.212
Mof_C 	C 	0.9269	0.1761	0.3955	-0.228
Mof_H 	H 	0.9059	0.1347	0.3991	0.119
Mof_C 	C 	0.9065	0.2199	0.349	0.13
Mof_H 	H 	0.8724	0.2079	0.3197	-0.003
Mof_C 	C 	0.9768	0.0965	0.5147	0.193
Mof_O 	O 	0.6344	0.689	0.75607	-0.471
Mof_O 	O 	0.5594	0.61642	0.788	-0.347
Mof_N 	N 	0.4979	0.8477	0.9884	-0.256
Mof_H 	H 	0.4607	0.8345	0.0059	0.163
Mof_N 	N 	0.4896	0.924	0.0688	-0.18
Mof_C 	C 	0.5872	0.6707	0.7932	0.376
Mof_C 	C 	0.5651	0.7185	0.8438	-0.195
Mof_C 	C 	0.5139	0.7034	0.8853	0.133
Mof_H 	H 	0.4927	0.6622	0.8813	-0.013
Mof_C 	C 	0.4935	0.7464	0.9317	-0.236
Mof_H 	H 	0.4591	0.7342	0.9606	0.111
Mof_C 	C 	0.5218	0.8081	0.9378	0.213
Mof_C 	C 	0.5731	0.8239	0.8955	-0.23
Mof_H 	H 	0.5941	0.8653	0.8991	0.119
Mof_C 	C 	0.5935	0.7801	0.849	0.131
Mof_H 	H 	0.6276	0.7921	0.8197	-0.003
Mof_C 	C 	0.5232	0.9035	0.0147	0.194
Mof_O 	O 	0.24393	0.1344	0.811	-0.471
Mof_O 	O 	0.212	0.0594	0.88358	-0.347
Mof_N 	N 	0.0116	0.9979	0.6523	-0.257
Mof_H 	H 	0.9941	0.9607	0.6655	0.163
Mof_N 	N 	0.9312	0.9896	0.576	-0.18
Mof_C 	C 	0.2068	0.0872	0.8293	0.376
Mof_C 	C 	0.1562	0.0651	0.7815	-0.196
Mof_C 	C 	0.1147	0.0139	0.7966	0.134
Mof_H 	H 	0.1187	0.9927	0.8378	-0.014
Mof_C 	C 	0.0683	0.9935	0.7536	-0.238
Mof_H 	H 	0.0394	0.9591	0.7658	0.112
Mof_C 	C 	0.0622	0.0218	0.6919	0.215
Mof_C 	C 	0.1045	0.0731	0.6761	-0.231
Mof_H 	H 	0.1009	0.0941	0.6347	0.12
Mof_C 	C 	0.151	0.0935	0.7199	0.132
Mof_H 	H 	0.1803	0.1276	0.7079	-0.003
Mof_C 	C 	0.9853	0.0232	0.5965	0.193
Mof_O 	O 	0.74393	0.3656	0.189	-0.471
Mof_O 	O 	0.712	0.4406	0.11642	-0.347
Mof_N 	N 	0.5116	0.5021	0.3477	-0.256
Mof_H 	H 	0.4941	0.5393	0.3345	0.163
Mof_N 	N 	0.4312	0.5104	0.424	-0.18
Mof_C 	C 	0.7068	0.4128	0.1707	0.376
Mof_C 	C 	0.6562	0.4349	0.2185	-0.195
Mof_C 	C 	0.6147	0.4861	0.2034	0.133
Mof_H 	H 	0.6187	0.5073	0.1622	-0.013
Mof_C 	C 	0.5683	0.5065	0.2464	-0.236
Mof_H 	H 	0.5394	0.5409	0.2342	0.111
Mof_C 	C 	0.5622	0.4782	0.3081	0.213
Mof_C 	C 	0.6045	0.4269	0.3239	-0.23
Mof_H 	H 	0.6009	0.4059	0.3653	0.119
Mof_C 	C 	0.651	0.4065	0.2801	0.131
Mof_H 	H 	0.6803	0.3724	0.2921	-0.003
Mof_C 	C 	0.4853	0.4768	0.4035	0.194
Mof_O 	O 	0.25607	0.8656	0.311	-0.471
Mof_O 	O 	0.288	0.9406	0.38358	-0.347
Mof_N 	N 	0.4884	0.0021	0.1523	-0.256
Mof_H 	H 	0.5059	0.0393	0.1655	0.162
Mof_N 	N 	0.5688	0.0104	0.076	-0.18
Mof_C 	C 	0.2932	0.9128	0.3293	0.376
Mof_C 	C 	0.3438	0.9349	0.2815	-0.194
Mof_C 	C 	0.3853	0.9861	0.2966	0.13
Mof_H 	H 	0.3813	0.0073	0.3378	-0.012
Mof_C 	C 	0.4317	0.0065	0.2536	-0.234
Mof_H 	H 	0.4606	0.0409	0.2658	0.111
Mof_C 	C 	0.4378	0.9782	0.1919	0.212
Mof_C 	C 	0.3955	0.9269	0.1761	-0.228
Mof_H 	H 	0.3991	0.9059	0.1347	0.119
Mof_C 	C 	0.349	0.9065	0.2199	0.13
Mof_H 	H 	0.3197	0.8724	0.2079	-0.003
Mof_C 	C 	0.5147	0.9768	0.0965	0.193
Mof_O 	O 	0.75607	0.6344	0.689	-0.471
Mof_O 	O 	0.788	0.5594	0.61642	-0.347
Mof_N 	N 	0.9884	0.4979	0.8477	-0.256
Mof_H 	H 	0.0059	0.4607	0.8345	0.163
Mof_N 	N 	0.0688	0.4896	0.924	-0.18
Mof_C 	C 	0.7932	0.5872	0.6707	0.376
Mof_C 	C 	0.8438	0.5651	0.7185	-0.195
Mof_C 	C 	0.8853	0.5139	0.7034	0.133
Mof_H 	H 	0.8813	0.4927	0.6622	-0.013
Mof_C 	C 	0.9317	0.4935	0.7464	-0.236
Mof_H 	H 	0.9606	0.4591	0.7342	0.111
Mof_C 	C 	0.9378	0.5218	0.8081	0.213
Mof_C 	C 	0.8955	0.5731	0.8239	-0.23
Mof_H 	H 	0.8991	0.5941	0.8653	0.119
Mof_C 	C 	0.849	0.5935	0.7801	0.131
Mof_H 	H 	0.8197	0.6276	0.7921	-0.003
Mof_C 	C 	0.0147	0.5232	0.9035	0.194
Mof_O 	O 	0.811	0.24393	0.1344	-0.471
Mof_O 	O 	0.88358	0.212	0.0594	-0.347
Mof_N 	N 	0.6523	0.0116	0.9979	-0.257
Mof_H 	H 	0.6655	0.9941	0.9607	0.163
Mof_N 	N 	0.576	0.9312	0.9896	-0.18
Mof_C 	C 	0.8293	0.2068	0.0872	0.376
Mof_C 	C 	0.7815	0.1562	0.0651	-0.196
Mof_C 	C 	0.7966	0.1147	0.0139	0.134
Mof_H 	H 	0.8378	0.1187	0.9927	-0.014
Mof_C 	C 	0.7536	0.0683	0.9935	-0.238
Mof_H 	H 	0.7658	0.0394	0.9591	0.112
Mof_C 	C 	0.6919	0.0622	0.0218	0.215
Mof_C 	C 	0.6761	0.1045	0.0731	-0.231
Mof_H 	H 	0.6347	0.1009	0.0941	0.12
Mof_C 	C 	0.7199	0.151	0.0935	0.132
Mof_H 	H 	0.7079	0.1803	0.1276	-0.003
Mof_C 	C 	0.5965	0.9853	0.0232	0.193
Mof_O 	O 	0.189	0.74393	0.3656	-0.471
Mof_O 	O 	0.11642	0.712	0.4406	-0.347
Mof_N 	N 	0.3477	0.5116	0.5021	-0.256
Mof_H 	H 	0.3345	0.4941	0.5393	0.163
Mof_N 	N 	0.424	0.4312	0.5104	-0.18
Mof_C 	C 	0.1707	0.7068	0.4128	0.376
Mof_C 	C 	0.2185	0.6562	0.4349	-0.195
Mof_C 	C 	0.2034	0.6147	0.4861	0.133
Mof_H 	H 	0.1622	0.6187	0.5073	-0.013
Mof_C 	C 	0.2464	0.5683	0.5065	-0.236
Mof_H 	H 	0.2342	0.5394	0.5409	0.111
Mof_C 	C 	0.3081	0.5622	0.4782	0.213
Mof_C 	C 	0.3239	0.6045	0.4269	-0.23
Mof_H 	H 	0.3653	0.6009	0.4059	0.119
Mof_C 	C 	0.2801	0.651	0.4065	0.131
Mof_H 	H 	0.2921	0.6803	0.3724	-0.003
Mof_C 	C 	0.4035	0.4853	0.4768	0.194
Mof_O 	O 	0.311	0.25607	0.8656	-0.471
Mof_O 	O 	0.38358	0.288	0.9406	-0.347
Mof_N 	N 	0.1523	0.4884	0.0021	-0.256
Mof_H 	H 	0.1655	0.5059	0.0393	0.162
Mof_N 	N 	0.076	0.5688	0.0104	-0.18
Mof_C 	C 	0.3293	0.2932	0.9128	0.376
Mof_C 	C 	0.2815	0.3438	0.9349	-0.194
Mof_C 	C 	0.2966	0.3853	0.9861	0.13
Mof_H 	H 	0.3378	0.3813	0.0073	-0.012
Mof_C 	C 	0.2536	0.4317	0.0065	-0.234
Mof_H 	H 	0.2658	0.4606	0.0409	0.111
Mof_C 	C 	0.1919	0.4378	0.9782	0.212
Mof_C 	C 	0.1761	0.3955	0.9269	-0.228
Mof_H 	H 	0.1347	0.3991	0.9059	0.119
Mof_C 	C 	0.2199	0.349	0.9065	0.13
Mof_H 	H 	0.2079	0.3197	0.8724	-0.003
Mof_C 	C 	0.0965	0.5147	0.9768	0.193
Mof_O 	O 	0.689	0.75607	0.6344	-0.471
Mof_O 	O 	0.61642	0.788	0.5594	-0.347
Mof_N 	N 	0.8477	0.9884	0.4979	-0.256
Mof_H 	H 	0.8345	0.0059	0.4607	0.163
Mof_N 	N 	0.924	0.0688	0.4896	-0.18
Mof_C 	C 	0.6707	0.7932	0.5872	0.376
Mof_C 	C 	0.7185	0.8438	0.5651	-0.195
Mof_C 	C 	0.7034	0.8853	0.5139	0.133
Mof_H 	H 	0.6622	0.8813	0.4927	-0.013
Mof_C 	C 	0.7464	0.9317	0.4935	-0.236
Mof_H 	H 	0.7342	0.9606	0.4591	0.111
Mof_C 	C 	0.8081	0.9378	0.5218	0.213
Mof_C 	C 	0.8239	0.8955	0.5731	-0.23
Mof_H 	H 	0.8653	0.8991	0.5941	0.119
Mof_C 	C 	0.7801	0.849	0.5935	0.131
Mof_H 	H 	0.7921	0.8197	0.6276	-0.003
Mof_C 	C 	0.9035	0.0147	0.5232	0.194
Mof_Dy	Dy	0.15417	0.84583	0.34583	1.476
Mof_Dy	Dy	0.34583	0.15417	0.84583	1.476
Mof_Dy	Dy	0.84583	0.34583	0.15417	1.476
Mof_Dy	Dy	0.65417	0.65417	0.65417	1.476
Mof_O 	O 	0.23692	0.61815	0.18025	-0.528
Mof_O 	O 	0.21108	0.5343	0.11563	-0.345
Mof_N 	N 	0.008	0.4904	0.3495	-0.256
Mof_H 	H 	0.9893	0.4532	0.3383	0.157
Mof_N 	N 	0.0113	0.572	0.4294	-0.18
Mof_C 	C 	0.2036	0.5676	0.1663	0.42
Mof_C 	C 	0.1539	0.5476	0.2163	-0.204
Mof_C 	C 	0.1483	0.5803	0.2746	0.132
Mof_H 	H 	0.1772	0.6155	0.284	-0.005
Mof_C 	C 	0.1006	0.5625	0.3207	-0.223
Mof_H 	H 	0.0971	0.586	0.3608	0.121
Mof_C 	C 	0.0582	0.5106	0.3079	0.208
Mof_C 	C 	0.0635	0.4781	0.248	-0.227
Mof_H 	H 	0.034	0.4435	0.2379	0.098
Mof_C 	C 	0.1109	0.4956	0.2036	0.123
Mof_H 	H 	0.1146	0.472	0.1637	-0.012
Mof_C 	C 	0.9834	0.5186	0.404	0.198
Mof_O 	O 	0.26308	0.38185	0.68025	-0.528
Mof_O 	O 	0.28892	0.4657	0.61563	-0.345
Mof_N 	N 	0.492	0.5096	0.8495	-0.257
Mof_H 	H 	0.5107	0.5468	0.8383	0.158
Mof_N 	N 	0.4887	0.428	0.9294	-0.18
Mof_C 	C 	0.2964	0.4324	0.6663	0.42
Mof_C 	C 	0.3461	0.4524	0.7163	-0.204
Mof_C 	C 	0.3517	0.4197	0.7746	0.132
Mof_H 	H 	0.3228	0.3845	0.784	-0.005
Mof_C 	C 	0.3994	0.4375	0.8207	-0.223
Mof_H 	H 	0.4029	0.414	0.8608	0.121
Mof_C 	C 	0.4418	0.4894	0.8079	0.208
Mof_C 	C 	0.4365	0.5219	0.748	-0.227
Mof_H 	H 	0.466	0.5565	0.7379	0.098
Mof_C 	C 	0.3891	0.5044	0.7036	0.123
Mof_H 	H 	0.3854	0.528	0.6637	-0.012
Mof_C 	C 	0.5166	0.4814	0.904	0.199
Mof_O 	O 	0.76308	0.11815	0.31975	-0.528
Mof_O 	O 	0.78892	0.0343	0.38437	-0.345
Mof_N 	N 	0.992	0.9904	0.1505	-0.257
Mof_H 	H 	0.0107	0.9532	0.1617	0.158
Mof_N 	N 	0.9887	0.072	0.0706	-0.181
Mof_C 	C 	0.7964	0.0676	0.3337	0.42
Mof_C 	C 	0.8461	0.0476	0.2837	-0.204
Mof_C 	C 	0.8517	0.0803	0.2254	0.132
Mof_H 	H 	0.8228	0.1155	0.216	-0.005
Mof_C 	C 	0.8994	0.0625	0.1793	-0.223
Mof_H 	H 	0.9029	0.086	0.1392	0.121
Mof_C 	C 	0.9418	0.0106	0.1921	0.208
Mof_C 	C 	0.9365	0.9781	0.252	-0.227
Mof_H 	H 	0.966	0.9435	0.2621	0.098
Mof_C 	C 	0.8891	0.9956	0.2964	0.123
Mof_H 	H 	0.8854	0.972	0.3363	-0.012
Mof_C 	C 	0.0166	0.0186	0.096	0.2
Mof_O 	O 	0.73692	0.88185	0.81975	-0.528
Mof_O 	O 	0.71108	0.9657	0.88437	-0.345
Mof_N 	N 	0.508	0.0096	0.6505	-0.257
Mof_H 	H 	0.4893	0.0468	0.6617	0.158
Mof_N 	N 	0.5113	0.928	0.5706	-0.18
Mof_C 	C 	0.7036	0.9324	0.8337	0.42
Mof_C 	C 	0.6539	0.9524	0.7837	-0.204
Mof_C 	C 	0.6483	0.9197	0.7254	0.131
Mof_H 	H 	0.6772	0.8845	0.716	-0.005
Mof_C 	C 	0.6006	0.9375	0.6793	-0.223
Mof_H 	H 	0.5971	0.914	0.6392	0.121
Mof_C 	C 	0.5582	0.9894	0.6921	0.208
Mof_C 	C 	0.5635	0.0219	0.752	-0.227
Mof_H 	H 	0.534	0.0565	0.7621	0.098
Mof_C 	C 	0.6109	0.0044	0.7964	0.123
Mof_H 	H 	0.6146	0.028	0.8363	-0.012
Mof_C 	C 	0.4834	0.9814	0.596	0.198
Mof_O 	O 	0.18025	0.23692	0.61815	-0.528
Mof_O 	O 	0.11563	0.21108	0.5343	-0.345
Mof_N 	N 	0.3495	0.008	0.4904	-0.256
Mof_H 	H 	0.3383	0.9893	0.4532	0.157
Mof_N 	N 	0.4294	0.0113	0.572	-0.18
Mof_C 	C 	0.1663	0.2036	0.5676	0.42
Mof_C 	C 	0.2163	0.1539	0.5476	-0.204
Mof_C 	C 	0.2746	0.1483	0.5803	0.132
Mof_H 	H 	0.284	0.1772	0.6155	-0.005
Mof_C 	C 	0.3207	0.1006	0.5625	-0.223
Mof_H 	H 	0.3608	0.0971	0.586	0.121
Mof_C 	C 	0.3079	0.0582	0.5106	0.208
Mof_C 	C 	0.248	0.0635	0.4781	-0.227
Mof_H 	H 	0.2379	0.034	0.4435	0.098
Mof_C 	C 	0.2036	0.1109	0.4956	0.123
Mof_H 	H 	0.1637	0.1146	0.472	-0.012
Mof_C 	C 	0.404	0.9834	0.5186	0.198
Mof_O 	O 	0.68025	0.26308	0.38185	-0.528
Mof_O 	O 	0.61563	0.28892	0.4657	-0.345
Mof_N 	N 	0.8495	0.492	0.5096	-0.257
Mof_H 	H 	0.8383	0.5107	0.5468	0.158
Mof_N 	N 	0.9294	0.4887	0.428	-0.18
Mof_C 	C 	0.6663	0.2964	0.4324	0.42
Mof_C 	C 	0.7163	0.3461	0.4524	-0.204
Mof_C 	C 	0.7746	0.3517	0.4197	0.132
Mof_H 	H 	0.784	0.3228	0.3845	-0.005
Mof_C 	C 	0.8207	0.3994	0.4375	-0.223
Mof_H 	H 	0.8608	0.4029	0.414	0.121
Mof_C 	C 	0.8079	0.4418	0.4894	0.208
Mof_C 	C 	0.748	0.4365	0.5219	-0.227
Mof_H 	H 	0.7379	0.466	0.5565	0.098
Mof_C 	C 	0.7036	0.3891	0.5044	0.123
Mof_H 	H 	0.6637	0.3854	0.528	-0.012
Mof_C 	C 	0.904	0.5166	0.4814	0.199
Mof_O 	O 	0.31975	0.76308	0.11815	-0.528
Mof_O 	O 	0.38437	0.78892	0.0343	-0.345
Mof_N 	N 	0.1505	0.992	0.9904	-0.257
Mof_H 	H 	0.1617	0.0107	0.9532	0.158
Mof_N 	N 	0.0706	0.9887	0.072	-0.181
Mof_C 	C 	0.3337	0.7964	0.0676	0.42
Mof_C 	C 	0.2837	0.8461	0.0476	-0.204
Mof_C 	C 	0.2254	0.8517	0.0803	0.132
Mof_H 	H 	0.216	0.8228	0.1155	-0.005
Mof_C 	C 	0.1793	0.8994	0.0625	-0.223
Mof_H 	H 	0.1392	0.9029	0.086	0.121
Mof_C 	C 	0.1921	0.9418	0.0106	0.208
Mof_C 	C 	0.252	0.9365	0.9781	-0.227
Mof_H 	H 	0.2621	0.966	0.9435	0.098
Mof_C 	C 	0.2964	0.8891	0.9956	0.123
Mof_H 	H 	0.3363	0.8854	0.972	-0.012
Mof_C 	C 	0.096	0.0166	0.0186	0.2
Mof_O 	O 	0.81975	0.73692	0.88185	-0.528
Mof_O 	O 	0.88437	0.71108	0.9657	-0.345
Mof_N 	N 	0.6505	0.508	0.0096	-0.257
Mof_H 	H 	0.6617	0.4893	0.0468	0.158
Mof_N 	N 	0.5706	0.5113	0.928	-0.18
Mof_C 	C 	0.8337	0.7036	0.9324	0.42
Mof_C 	C 	0.7837	0.6539	0.9524	-0.204
Mof_C 	C 	0.7254	0.6483	0.9197	0.131
Mof_H 	H 	0.716	0.6772	0.8845	-0.005
Mof_C 	C 	0.6793	0.6006	0.9375	-0.223
Mof_H 	H 	0.6392	0.5971	0.914	0.121
Mof_C 	C 	0.6921	0.5582	0.9894	0.208
Mof_C 	C 	0.752	0.5635	0.0219	-0.227
Mof_H 	H 	0.7621	0.534	0.0565	0.098
Mof_C 	C 	0.7964	0.6109	0.0044	0.123
Mof_H 	H 	0.8363	0.6146	0.028	-0.012
Mof_C 	C 	0.596	0.4834	0.9814	0.198
Mof_O 	O 	0.61815	0.18025	0.23692	-0.528
Mof_O 	O 	0.5343	0.11563	0.21108	-0.345
Mof_N 	N 	0.4904	0.3495	0.008	-0.256
Mof_H 	H 	0.4532	0.3383	0.9893	0.157
Mof_N 	N 	0.572	0.4294	0.0113	-0.18
Mof_C 	C 	0.5676	0.1663	0.2036	0.42
Mof_C 	C 	0.5476	0.2163	0.1539	-0.204
Mof_C 	C 	0.5803	0.2746	0.1483	0.132
Mof_H 	H 	0.6155	0.284	0.1772	-0.005
Mof_C 	C 	0.5625	0.3207	0.1006	-0.223
Mof_H 	H 	0.586	0.3608	0.0971	0.121
Mof_C 	C 	0.5106	0.3079	0.0582	0.208
Mof_C 	C 	0.4781	0.248	0.0635	-0.227
Mof_H 	H 	0.4435	0.2379	0.034	0.098
Mof_C 	C 	0.4956	0.2036	0.1109	0.123
Mof_H 	H 	0.472	0.1637	0.1146	-0.012
Mof_C 	C 	0.5186	0.404	0.9834	0.198
Mof_O 	O 	0.38185	0.68025	0.26308	-0.528
Mof_O 	O 	0.4657	0.61563	0.28892	-0.345
Mof_N 	N 	0.5096	0.8495	0.492	-0.257
Mof_H 	H 	0.5468	0.8383	0.5107	0.158
Mof_N 	N 	0.428	0.9294	0.4887	-0.18
Mof_C 	C 	0.4324	0.6663	0.2964	0.42
Mof_C 	C 	0.4524	0.7163	0.3461	-0.204
Mof_C 	C 	0.4197	0.7746	0.3517	0.132
Mof_H 	H 	0.3845	0.784	0.3228	-0.005
Mof_C 	C 	0.4375	0.8207	0.3994	-0.223
Mof_H 	H 	0.414	0.8608	0.4029	0.121
Mof_C 	C 	0.4894	0.8079	0.4418	0.208
Mof_C 	C 	0.5219	0.748	0.4365	-0.227
Mof_H 	H 	0.5565	0.7379	0.466	0.098
Mof_C 	C 	0.5044	0.7036	0.3891	0.123
Mof_H 	H 	0.528	0.6637	0.3854	-0.012
Mof_C 	C 	0.4814	0.904	0.5166	0.199
Mof_O 	O 	0.11815	0.31975	0.76308	-0.528
Mof_O 	O 	0.0343	0.38437	0.78892	-0.345
Mof_N 	N 	0.9904	0.1505	0.992	-0.257
Mof_H 	H 	0.9532	0.1617	0.0107	0.158
Mof_N 	N 	0.072	0.0706	0.9887	-0.181
Mof_C 	C 	0.0676	0.3337	0.7964	0.42
Mof_C 	C 	0.0476	0.2837	0.8461	-0.204
Mof_C 	C 	0.0803	0.2254	0.8517	0.132
Mof_H 	H 	0.1155	0.216	0.8228	-0.005
Mof_C 	C 	0.0625	0.1793	0.8994	-0.223
Mof_H 	H 	0.086	0.1392	0.9029	0.121
Mof_C 	C 	0.0106	0.1921	0.9418	0.208
Mof_C 	C 	0.9781	0.252	0.9365	-0.227
Mof_H 	H 	0.9435	0.2621	0.966	0.098
Mof_C 	C 	0.9956	0.2964	0.8891	0.123
Mof_H 	H 	0.972	0.3363	0.8854	-0.012
Mof_C 	C 	0.0186	0.096	0.0166	0.2
Mof_O 	O 	0.88185	0.81975	0.73692	-0.528
Mof_O 	O 	0.9657	0.88437	0.71108	-0.345
Mof_N 	N 	0.0096	0.6505	0.508	-0.257
Mof_H 	H 	0.0468	0.6617	0.4893	0.158
Mof_N 	N 	0.928	0.5706	0.5113	-0.18
Mof_C 	C 	0.9324	0.8337	0.7036	0.42
Mof_C 	C 	0.9524	0.7837	0.6539	-0.204
Mof_C 	C 	0.9197	0.7254	0.6483	0.131
Mof_H 	H 	0.8845	0.716	0.6772	-0.005
Mof_C 	C 	0.9375	0.6793	0.6006	-0.223
Mof_H 	H 	0.914	0.6392	0.5971	0.121
Mof_C 	C 	0.9894	0.6921	0.5582	0.208
Mof_C 	C 	0.0219	0.752	0.5635	-0.227
Mof_H 	H 	0.0565	0.7621	0.534	0.098
Mof_C 	C 	0.0044	0.7964	0.6109	0.123
Mof_H 	H 	0.028	0.8363	0.6146	-0.012
Mof_C 	C 	0.9814	0.596	0.4834	0.198
Mof_Dy	Dy	0.33333	0.66667	0.16667	1.565
Mof_Dy	Dy	0.16667	0.33333	0.66667	1.565
Mof_Dy	Dy	0.66667	0.16667	0.33333	1.565
Mof_Dy	Dy	0.83333	0.83333	0.83333	1.565
_end
