data_functionalizedCrystal
_audit_creation_method	'EQeq! by Chris Wilmer'
_symmetry_space_group_name_H-M	'P1'
_symmetry_Int_Tables_number	1
_symmetry_cell_setting	triclinic
loop_
_symmetry_equiv_pos_as_xyz
  x,y,z
_cell_length_a	14.537
_cell_length_b	14.537
_cell_length_c	20.195
_cell_angle_alpha	90
_cell_angle_beta	90
_cell_angle_gamma	90
loop_
_atom_site_label
_atom_site_type_symbol
_atom_site_fract_x
_atom_site_fract_y
_atom_site_fract_z
_atom_site_charge
Mof_N 	N 	0.3002	0.6503	0.1874	-0.213
Mof_C 	C 	0.2597	0.5697	0.1818	-0.002
Mof_H 	H 	0.2086	0.5567	0.2096	0.007
Mof_C 	C 	0.2887	0.5012	0.1362	0.008
Mof_H 	H 	0.2567	0.4442	0.1349	0.016
Mof_N 	N 	0.3584	0.514	0.0956	-0.161
Mof_N 	N 	0.4721	0.6096	0.0578	-0.23
Mof_C 	C 	0.5171	0.6889	0.0587	0.044
Mof_H 	H 	0.5664	0.698	0.0285	-0.011
Mof_C 	C 	0.4942	0.7597	0.1028	-0.074
Mof_H 	H 	0.5289	0.815	0.1032	0.047
Mof_C 	C 	0.4221	0.749	0.1452	-0.055
Mof_H 	H 	0.4049	0.7973	0.1743	0.02
Mof_C 	C 	0.3739	0.666	0.1451	0.017
Mof_C 	C 	0.4005	0.5964	0.1004	0.087
Mof_N 	N 	0.1998	0.8497	0.1874	-0.204
Mof_C 	C 	0.2403	0.9303	0.1818	-0.026
Mof_H 	H 	0.2914	0.9433	0.2096	0.022
Mof_C 	C 	0.2113	0.9988	0.1362	0.065
Mof_H 	H 	0.2433	0.0558	0.1349	-0.02
Mof_N 	N 	0.1416	0.986	0.0956	-0.166
Mof_N 	N 	0.0279	0.8904	0.0578	-0.252
Mof_C 	C 	0.9829	0.8111	0.0587	0.137
Mof_H 	H 	0.9336	0.802	0.0285	-0.035
Mof_C 	C 	0.0058	0.7403	0.1028	-0.194
Mof_H 	H 	0.9711	0.685	0.1032	0.099
Mof_C 	C 	0.0779	0.751	0.1452	0.009
Mof_H 	H 	0.0951	0.7027	0.1743	-0.006
Mof_C 	C 	0.1261	0.834	0.1451	-0.013
Mof_C 	C 	0.0995	0.9036	0.1004	0.102
Mof_N 	N 	0.8497	0.3002	0.6874	-0.208
Mof_C 	C 	0.9303	0.2597	0.6818	-0.02
Mof_H 	H 	0.9433	0.2086	0.7096	0.02
Mof_C 	C 	0.9988	0.2887	0.6362	0.065
Mof_H 	H 	0.0558	0.2567	0.6349	-0.01
Mof_N 	N 	0.986	0.3584	0.5956	-0.154
Mof_N 	N 	0.8904	0.4721	0.5578	-0.218
Mof_C 	C 	0.8111	0.5171	0.5587	0.049
Mof_H 	H 	0.802	0.5664	0.5285	0.003
Mof_C 	C 	0.7403	0.4942	0.6028	-0.071
Mof_H 	H 	0.685	0.5289	0.6032	0.05
Mof_C 	C 	0.751	0.4221	0.6452	-0.051
Mof_H 	H 	0.7027	0.4049	0.6743	0.02
Mof_C 	C 	0.834	0.3739	0.6451	0.017
Mof_C 	C 	0.9036	0.4005	0.6004	0.098
Mof_N 	N 	0.6503	0.1998	0.6874	-0.208
Mof_C 	C 	0.5697	0.2403	0.6818	-0.001
Mof_H 	H 	0.5567	0.2914	0.7096	0.01
Mof_C 	C 	0.5012	0.2113	0.6362	0.013
Mof_H 	H 	0.4442	0.2433	0.6349	0.023
Mof_N 	N 	0.514	0.1416	0.5956	-0.156
Mof_N 	N 	0.6096	0.0279	0.5578	-0.25
Mof_C 	C 	0.6889	0.9829	0.5587	0.14
Mof_H 	H 	0.698	0.9336	0.5285	-0.024
Mof_C 	C 	0.7597	0.0058	0.6028	-0.185
Mof_H 	H 	0.815	0.9711	0.6032	0.103
Mof_C 	C 	0.749	0.0779	0.6452	0.008
Mof_H 	H 	0.7973	0.0951	0.6743	-0.002
Mof_C 	C 	0.666	0.1261	0.6451	-0.008
Mof_C 	C 	0.5964	0.0995	0.6004	0.102
Mof_N 	N 	0.6998	0.1503	0.3126	-0.216
Mof_C 	C 	0.7403	0.0697	0.3182	0.017
Mof_H 	H 	0.7914	0.0567	0.2904	0.002
Mof_C 	C 	0.7113	0.0012	0.3638	-0.03
Mof_H 	H 	0.7433	0.9442	0.3651	0.055
Mof_N 	N 	0.6416	0.014	0.4044	-0.149
Mof_N 	N 	0.5279	0.1096	0.4422	-0.224
Mof_C 	C 	0.4829	0.1889	0.4413	0.047
Mof_H 	H 	0.4336	0.198	0.4715	-0.001
Mof_C 	C 	0.5058	0.2597	0.3972	-0.071
Mof_H 	H 	0.4711	0.315	0.3968	0.048
Mof_C 	C 	0.5779	0.249	0.3548	-0.055
Mof_H 	H 	0.5951	0.2973	0.3257	0.021
Mof_C 	C 	0.6261	0.166	0.3549	0.02
Mof_C 	C 	0.5995	0.0964	0.3996	0.088
Mof_N 	N 	0.8002	0.3497	0.3126	-0.218
Mof_C 	C 	0.7597	0.4303	0.3182	0.003
Mof_H 	H 	0.7086	0.4433	0.2904	0.01
Mof_C 	C 	0.7887	0.4988	0.3638	0.012
Mof_H 	H 	0.7567	0.5558	0.3651	0.028
Mof_N 	N 	0.8584	0.486	0.4044	-0.146
Mof_N 	N 	0.9721	0.3904	0.4422	-0.186
Mof_C 	C 	0.0171	0.3111	0.4413	-0.067
Mof_H 	H 	0.0664	0.302	0.4715	0.032
Mof_C 	C 	0.9942	0.2403	0.3972	0.075
Mof_H 	H 	0.0289	0.185	0.3968	-0.019
Mof_C 	C 	0.9221	0.251	0.3548	-0.131
Mof_H 	H 	0.9049	0.2027	0.3257	0.049
Mof_C 	C 	0.8739	0.334	0.3549	0.053
Mof_C 	C 	0.9005	0.4036	0.3996	0.08
Mof_N 	N 	0.1503	0.8002	0.8126	-0.22
Mof_C 	C 	0.0697	0.7597	0.8182	0.022
Mof_H 	H 	0.0567	0.7086	0.7904	0
Mof_C 	C 	0.0012	0.7887	0.8638	-0.026
Mof_H 	H 	0.9442	0.7567	0.8651	0.061
Mof_N 	N 	0.014	0.8584	0.9044	-0.133
Mof_N 	N 	0.1096	0.9721	0.9422	-0.174
Mof_C 	C 	0.1889	0.0171	0.9413	-0.06
Mof_H 	H 	0.198	0.0664	0.9715	0.045
Mof_C 	C 	0.2597	0.9942	0.8972	0.073
Mof_H 	H 	0.315	0.0289	0.8968	-0.009
Mof_C 	C 	0.249	0.9221	0.8548	-0.126
Mof_H 	H 	0.2973	0.9049	0.8257	0.051
Mof_C 	C 	0.166	0.8739	0.8549	0.055
Mof_C 	C 	0.0964	0.9005	0.8996	0.084
Mof_N 	N 	0.3497	0.6998	0.8126	-0.212
Mof_C 	C 	0.4303	0.7403	0.8182	0.004
Mof_H 	H 	0.4433	0.7914	0.7904	0.012
Mof_C 	C 	0.4988	0.7113	0.8638	0.016
Mof_H 	H 	0.5558	0.7433	0.8651	0.035
Mof_N 	N 	0.486	0.6416	0.9044	-0.14
Mof_N 	N 	0.3904	0.5279	0.9422	-0.208
Mof_C 	C 	0.3111	0.4829	0.9413	0.052
Mof_H 	H 	0.302	0.4336	0.9715	0.014
Mof_C 	C 	0.2403	0.5058	0.8972	-0.067
Mof_H 	H 	0.185	0.4711	0.8968	0.052
Mof_C 	C 	0.251	0.5779	0.8548	-0.051
Mof_H 	H 	0.2027	0.5951	0.8257	0.02
Mof_C 	C 	0.334	0.6261	0.8549	0.021
Mof_C 	C 	0.4036	0.5995	0.8996	0.1
Mof_N 	N 	0.6998	0.3497	0.8126	-0.212
Mof_C 	C 	0.7403	0.4303	0.8182	0.004
Mof_H 	H 	0.7914	0.4433	0.7904	0.012
Mof_C 	C 	0.7113	0.4988	0.8638	0.016
Mof_H 	H 	0.7433	0.5558	0.8651	0.035
Mof_N 	N 	0.6416	0.486	0.9044	-0.14
Mof_N 	N 	0.5279	0.3904	0.9422	-0.208
Mof_C 	C 	0.4829	0.3111	0.9413	0.052
Mof_H 	H 	0.4336	0.302	0.9715	0.014
Mof_C 	C 	0.5058	0.2403	0.8972	-0.067
Mof_H 	H 	0.4711	0.185	0.8968	0.052
Mof_C 	C 	0.5779	0.251	0.8548	-0.051
Mof_H 	H 	0.5951	0.2027	0.8257	0.02
Mof_C 	C 	0.6261	0.334	0.8549	0.021
Mof_C 	C 	0.5995	0.4036	0.8996	0.1
Mof_N 	N 	0.8002	0.1503	0.8126	-0.22
Mof_C 	C 	0.7597	0.0697	0.8182	0.022
Mof_H 	H 	0.7086	0.0567	0.7904	0
Mof_C 	C 	0.7887	0.0012	0.8638	-0.026
Mof_H 	H 	0.7567	0.9442	0.8651	0.061
Mof_N 	N 	0.8584	0.014	0.9044	-0.133
Mof_N 	N 	0.9721	0.1096	0.9422	-0.174
Mof_C 	C 	0.0171	0.1889	0.9413	-0.06
Mof_H 	H 	0.0664	0.198	0.9715	0.045
Mof_C 	C 	0.9942	0.2597	0.8972	0.073
Mof_H 	H 	0.0289	0.315	0.8968	-0.009
Mof_C 	C 	0.9221	0.249	0.8548	-0.126
Mof_H 	H 	0.9049	0.2973	0.8257	0.051
Mof_C 	C 	0.8739	0.166	0.8549	0.055
Mof_C 	C 	0.9005	0.0964	0.8996	0.084
Mof_N 	N 	0.1503	0.6998	0.3126	-0.216
Mof_C 	C 	0.0697	0.7403	0.3182	0.017
Mof_H 	H 	0.0567	0.7914	0.2904	0.002
Mof_C 	C 	0.0012	0.7113	0.3638	-0.03
Mof_H 	H 	0.9442	0.7433	0.3651	0.055
Mof_N 	N 	0.014	0.6416	0.4044	-0.149
Mof_N 	N 	0.1096	0.5279	0.4422	-0.224
Mof_C 	C 	0.1889	0.4829	0.4413	0.047
Mof_H 	H 	0.198	0.4336	0.4715	-0.001
Mof_C 	C 	0.2597	0.5058	0.3972	-0.071
Mof_H 	H 	0.315	0.4711	0.3968	0.048
Mof_C 	C 	0.249	0.5779	0.3548	-0.055
Mof_H 	H 	0.2973	0.5951	0.3257	0.021
Mof_C 	C 	0.166	0.6261	0.3549	0.02
Mof_C 	C 	0.0964	0.5995	0.3996	0.088
Mof_N 	N 	0.3497	0.8002	0.3126	-0.218
Mof_C 	C 	0.4303	0.7597	0.3182	0.003
Mof_H 	H 	0.4433	0.7086	0.2904	0.01
Mof_C 	C 	0.4988	0.7887	0.3638	0.012
Mof_H 	H 	0.5558	0.7567	0.3651	0.028
Mof_N 	N 	0.486	0.8584	0.4044	-0.146
Mof_N 	N 	0.3904	0.9721	0.4422	-0.186
Mof_C 	C 	0.3111	0.0171	0.4413	-0.067
Mof_H 	H 	0.302	0.0664	0.4715	0.032
Mof_C 	C 	0.2403	0.9942	0.3972	0.075
Mof_H 	H 	0.185	0.0289	0.3968	-0.019
Mof_C 	C 	0.251	0.9221	0.3548	-0.131
Mof_H 	H 	0.2027	0.9049	0.3257	0.049
Mof_C 	C 	0.334	0.8739	0.3549	0.053
Mof_C 	C 	0.4036	0.9005	0.3996	0.08
Mof_N 	N 	0.3002	0.8497	0.6874	-0.208
Mof_C 	C 	0.2597	0.9303	0.6818	-0.02
Mof_H 	H 	0.2086	0.9433	0.7096	0.02
Mof_C 	C 	0.2887	0.9988	0.6362	0.065
Mof_H 	H 	0.2567	0.0558	0.6349	-0.01
Mof_N 	N 	0.3584	0.986	0.5956	-0.154
Mof_N 	N 	0.4721	0.8904	0.5578	-0.218
Mof_C 	C 	0.5171	0.8111	0.5587	0.049
Mof_H 	H 	0.5664	0.802	0.5285	0.003
Mof_C 	C 	0.4942	0.7403	0.6028	-0.071
Mof_H 	H 	0.5289	0.685	0.6032	0.05
Mof_C 	C 	0.4221	0.751	0.6452	-0.051
Mof_H 	H 	0.4049	0.7027	0.6743	0.02
Mof_C 	C 	0.3739	0.834	0.6451	0.017
Mof_C 	C 	0.4005	0.9036	0.6004	0.098
Mof_N 	N 	0.1998	0.6503	0.6874	-0.208
Mof_C 	C 	0.2403	0.5697	0.6818	-0.001
Mof_H 	H 	0.2914	0.5567	0.7096	0.01
Mof_C 	C 	0.2113	0.5012	0.6362	0.013
Mof_H 	H 	0.2433	0.4442	0.6349	0.023
Mof_N 	N 	0.1416	0.514	0.5956	-0.156
Mof_N 	N 	0.0279	0.6096	0.5578	-0.25
Mof_C 	C 	0.9829	0.6889	0.5587	0.14
Mof_H 	H 	0.9336	0.698	0.5285	-0.024
Mof_C 	C 	0.0058	0.7597	0.6028	-0.185
Mof_H 	H 	0.9711	0.815	0.6032	0.103
Mof_C 	C 	0.0779	0.749	0.6452	0.008
Mof_H 	H 	0.0951	0.7973	0.6743	-0.002
Mof_C 	C 	0.1261	0.666	0.6451	-0.008
Mof_C 	C 	0.0995	0.5964	0.6004	0.102
Mof_N 	N 	0.8497	0.1998	0.1874	-0.204
Mof_C 	C 	0.9303	0.2403	0.1818	-0.026
Mof_H 	H 	0.9433	0.2914	0.2096	0.022
Mof_C 	C 	0.9988	0.2113	0.1362	0.065
Mof_H 	H 	0.0558	0.2433	0.1349	-0.02
Mof_N 	N 	0.986	0.1416	0.0956	-0.166
Mof_N 	N 	0.8904	0.0279	0.0578	-0.252
Mof_C 	C 	0.8111	0.9829	0.0587	0.137
Mof_H 	H 	0.802	0.9336	0.0285	-0.035
Mof_C 	C 	0.7403	0.0058	0.1028	-0.194
Mof_H 	H 	0.685	0.9711	0.1032	0.099
Mof_C 	C 	0.751	0.0779	0.1452	0.009
Mof_H 	H 	0.7027	0.0951	0.1743	-0.006
Mof_C 	C 	0.834	0.1261	0.1451	-0.013
Mof_C 	C 	0.9036	0.0995	0.1004	0.102
Mof_N 	N 	0.6503	0.3002	0.1874	-0.213
Mof_C 	C 	0.5697	0.2597	0.1818	-0.002
Mof_H 	H 	0.5567	0.2086	0.2096	0.007
Mof_C 	C 	0.5012	0.2887	0.1362	0.008
Mof_H 	H 	0.4442	0.2567	0.1349	0.016
Mof_N 	N 	0.514	0.3584	0.0956	-0.161
Mof_N 	N 	0.6096	0.4721	0.0578	-0.23
Mof_C 	C 	0.6889	0.5171	0.0587	0.044
Mof_H 	H 	0.698	0.5664	0.0285	-0.011
Mof_C 	C 	0.7597	0.4942	0.1028	-0.074
Mof_H 	H 	0.815	0.5289	0.1032	0.047
Mof_C 	C 	0.749	0.4221	0.1452	-0.055
Mof_H 	H 	0.7973	0.4049	0.1743	0.02
Mof_C 	C 	0.666	0.3739	0.1451	0.017
Mof_C 	C 	0.5964	0.4005	0.1004	0.087
Mof_Cu	Cu	0.5	0.5	-0	0.85
Mof_Cu	Cu	-0	0	-0	0.828
Mof_Cu	Cu	2.60436e-33	0.5	0.5	0.866
Mof_Cu	Cu	0.5	0	0.5	0.866
Mof_Cu	Cu	0.25	0.75	0.25	0.852
Mof_Cu	Cu	0.75	0.25	0.75	0.852
Mof_Cu	Cu	0.75	0.25	0.25	0.852
Mof_Cu	Cu	0.25	0.75	0.75	0.852
_end
