# CIF file generated by openbabel 3.1.0, see https://openbabel.org
data_I
_chemical_name_common 'image0'
_cell_length_a 10.4255
_cell_length_b 10.5301
_cell_length_c 6.2943
_cell_angle_alpha 90
_cell_angle_beta 115.135
_cell_angle_gamma 90
_space_group_name_H-M_alt 'P 1'
_space_group_name_Hall 'P 1'
loop_
    _symmetry_equiv_pos_as_xyz
    x,y,z
loop_
    _atom_site_label
    _atom_site_type_symbol
    _atom_site_fract_x
    _atom_site_fract_y
    _atom_site_fract_z
    _atom_site_occupancy
    C1       C        0.31660    0.21040    0.54610    1.000
    H1       H        0.39740    0.26510    0.57670    1.000
    H2       H        0.32910    0.17170    0.69350    1.000
    N1       N        0.31250    0.11040    0.38110    1.000
    H3       H        0.29810    0.14640    0.24310    1.000
    H4       H        0.23860    0.05880    0.35580    1.000
    C2       C        0.81660    0.71040    0.54610    1.000
    H5       H        0.89740    0.76510    0.57670    1.000
    H6       H        0.82910    0.67170    0.69350    1.000
    N2       N        0.81250    0.61040    0.38110    1.000
    H7       H        0.79810    0.64640    0.24310    1.000
    H8       H        0.73860    0.55880    0.35580    1.000
    C3       C        0.68340    0.21040    0.95390    1.000
    H9       H        0.60260    0.26510    0.92330    1.000
    H10      H        0.67090    0.17170    0.80650    1.000
    N3       N        0.68750    0.11040    0.11890    1.000
    H11      H        0.70190    0.14640    0.25690    1.000
    H12      H        0.76140    0.05880    0.14420    1.000
    C4       C        0.18340    0.71040    0.95390    1.000
    H13      H        0.10260    0.76510    0.92330    1.000
    H14      H        0.17090    0.67170    0.80650    1.000
    N4       N        0.18750    0.61040    0.11890    1.000
    H15      H        0.20190    0.64640    0.25690    1.000
    H16      H        0.26140    0.55880    0.14420    1.000
    C5       C        0.68340    0.78960    0.45390    1.000
    H17      H        0.60260    0.73490    0.42330    1.000
    H18      H        0.67090    0.82830    0.30650    1.000
    N5       N        0.68750    0.88960    0.61890    1.000
    H19      H        0.70190    0.85360    0.75690    1.000
    H20      H        0.76140    0.94120    0.64420    1.000
    C6       C        0.18340    0.28960    0.45390    1.000
    H21      H        0.10260    0.23490    0.42330    1.000
    H22      H        0.17090    0.32830    0.30650    1.000
    N6       N        0.18750    0.38960    0.61890    1.000
    H23      H        0.20190    0.35360    0.75690    1.000
    H24      H        0.26140    0.44120    0.64420    1.000
    C7       C        0.31660    0.78960    0.04610    1.000
    H25      H        0.39740    0.73490    0.07670    1.000
    H26      H        0.32910    0.82830    0.19350    1.000
    N7       N        0.31250    0.88960    0.88110    1.000
    H27      H        0.29810    0.85360    0.74310    1.000
    H28      H        0.23860    0.94120    0.85580    1.000
    C8       C        0.81660    0.28960    0.04610    1.000
    H29      H        0.89740    0.23490    0.07670    1.000
    H30      H        0.82910    0.32830    0.19350    1.000
    N8       N        0.81250    0.38960    0.88110    1.000
    H31      H        0.79810    0.35360    0.74310    1.000
    H32      H        0.73860    0.44120    0.85580    1.000
    Ag1      Ag       0.50000    0.00000    0.50000    1.000
    Ag2      Ag       0.00000    0.50000    0.50000    1.000
    Ag3      Ag       0.50000    0.00000    0.00000    1.000
    Ag4      Ag       0.00000    0.50000    0.00000    1.000
