data_functionalizedCrystal
_audit_creation_method	'EQeq! by Chris Wilmer'
_symmetry_space_group_name_H-M	'P1'
_symmetry_Int_Tables_number	1
_symmetry_cell_setting	triclinic
loop_
_symmetry_equiv_pos_as_xyz
  x,y,z
_cell_length_a	5.7252
_cell_length_b	13.6337
_cell_length_c	13.6337
_cell_angle_alpha	99.5038
_cell_angle_beta	91.7736
_cell_angle_gamma	88.2264
loop_
_atom_site_label
_atom_site_type_symbol
_atom_site_fract_x
_atom_site_fract_y
_atom_site_fract_z
_atom_site_charge
Mof_Yb	Yb	0.58434	0.37595	0.10033	1.636
Mof_Yb	Yb	0.41566	0.10033	0.37595	1.636
Mof_Yb	Yb	0.41566	0.62405	0.89967	1.636
Mof_Yb	Yb	0.58434	0.89967	0.62405	1.636
Mof_H 	H 	0.7831	0.622	0.378	0.075
Mof_H 	H 	0.3829	0.7653	0.2347	0.012
Mof_H 	H 	0.2169	0.378	0.622	0.075
Mof_H 	H 	0.6171	0.2347	0.7653	0.012
Mof_C 	C 	0.9942	0.6026	0.2604	0.006
Mof_C 	C 	0.1717	0.6446	0.218	-0.138
Mof_C 	C 	0.8723	0.5119	0.2067	0.273
Mof_C 	C 	0.2796	0.6027	0.1189	0.495
Mof_C 	C 	0.7889	0.1903	0.0845	0.322
Mof_C 	C 	0.9006	0.0903	0.0481	-0.063
Mof_C 	C 	0.0058	0.2604	0.6026	0.006
Mof_C 	C 	0.8283	0.218	0.6446	-0.138
Mof_C 	C 	0.1277	0.2067	0.5119	0.273
Mof_C 	C 	0.7204	0.1189	0.6027	0.495
Mof_C 	C 	0.2111	0.0845	0.1903	0.322
Mof_C 	C 	0.0994	0.0481	0.0903	-0.063
Mof_C 	C 	0.0058	0.3974	0.7396	0.006
Mof_C 	C 	0.8283	0.3554	0.782	-0.138
Mof_C 	C 	0.1277	0.4881	0.7933	0.273
Mof_C 	C 	0.7204	0.3973	0.8811	0.495
Mof_C 	C 	0.2111	0.8097	0.9155	0.322
Mof_C 	C 	0.0994	0.9097	0.9519	-0.063
Mof_C 	C 	0.9942	0.7396	0.3974	0.006
Mof_C 	C 	0.1717	0.782	0.3554	-0.138
Mof_C 	C 	0.8723	0.7933	0.4881	0.273
Mof_C 	C 	0.2796	0.8811	0.3973	0.495
Mof_C 	C 	0.7889	0.9155	0.8097	0.322
Mof_C 	C 	0.9006	0.9519	0.9097	-0.063
Mof_C 	C 	0.905	0.6503	0.3497	-0.067
Mof_C 	C 	0.264	0.7361	0.2639	0.069
Mof_C 	C 	0.095	0.3497	0.6503	-0.067
Mof_C 	C 	0.736	0.2639	0.7361	0.069
Mof_C 	C 	0.807	0.0416	0.9584	0.075
Mof_C 	C 	0.193	0.9584	0.0416	0.075
Mof_O 	O 	0.7513	0.4597	0.2531	-0.394
Mof_O 	O 	0.8867	0.4926	0.113	-0.383
Mof_O 	O 	0.3952	0.5219	0.1137	-0.531
Mof_O 	O 	0.2522	0.6522	0.0516	-0.489
Mof_O 	O 	0.9052	0.2639	0.1297	-0.395
Mof_O 	O 	0.5786	0.2035	0.0621	-0.421
Mof_O 	O 	0.2487	0.2531	0.4597	-0.394
Mof_O 	O 	0.1133	0.113	0.4926	-0.383
Mof_O 	O 	0.6048	0.1137	0.5219	-0.531
Mof_O 	O 	0.7478	0.0516	0.6522	-0.489
Mof_O 	O 	0.0948	0.1297	0.2639	-0.395
Mof_O 	O 	0.4214	0.0621	0.2035	-0.421
Mof_O 	O 	0.2487	0.5403	0.7469	-0.394
Mof_O 	O 	0.1133	0.5074	0.887	-0.383
Mof_O 	O 	0.6048	0.4781	0.8863	-0.531
Mof_O 	O 	0.7478	0.3478	0.9484	-0.489
Mof_O 	O 	0.0948	0.7361	0.8703	-0.395
Mof_O 	O 	0.4214	0.7965	0.9379	-0.421
Mof_O 	O 	0.7513	0.7469	0.5403	-0.394
Mof_O 	O 	0.8867	0.887	0.5074	-0.383
Mof_O 	O 	0.3952	0.8863	0.4781	-0.531
Mof_O 	O 	0.2522	0.9484	0.3478	-0.489
Mof_O 	O 	0.9052	0.8703	0.7361	-0.395
Mof_O 	O 	0.5786	0.9379	0.7965	-0.421
_end
