data_functionalizedCrystal
_audit_creation_method	'EQeq! by Chris Wilmer'
_symmetry_space_group_name_H-M	'P1'
_symmetry_Int_Tables_number	1
_symmetry_cell_setting	triclinic
loop_
_symmetry_equiv_pos_as_xyz
  x,y,z
_cell_length_a	5.5807
_cell_length_b	13.793
_cell_length_c	24.064
_cell_angle_alpha	90
_cell_angle_beta	95.91
_cell_angle_gamma	90
loop_
_atom_site_label
_atom_site_type_symbol
_atom_site_fract_x
_atom_site_fract_y
_atom_site_fract_z
_atom_site_charge
Mof_Zn	Zn	0.99829	0.57622	0.55017	1.217
Mof_Zn	Zn	0.69106	0.75277	0.49411	1.194
Mof_Zn	Zn	0.00171	0.07622	0.94983	1.216
Mof_Zn	Zn	0.30894	0.25277	0.00589	1.179
Mof_Zn	Zn	0.00171	0.42378	0.44983	1.215
Mof_Zn	Zn	0.30894	0.24723	0.50589	1.191
Mof_Zn	Zn	0.99829	0.92378	0.05017	1.214
Mof_Zn	Zn	0.69106	0.74723	0.99411	1.206
Mof_Zn	Zn	0.5	0.5	0.5	1.22
Mof_Zn	Zn	0.5	0	-0	1.196
Mof_H 	H 	0.7196	0.5132	0.6881	0.009
Mof_H 	H 	0.6478	0.4749	0.7455	0.009
Mof_H 	H 	0.5017	0.3677	0.6746	0.189
Mof_H 	H 	0.2829	0.4145	0.7009	0.206
Mof_H 	H 	0.469	0.8902	0.6779	0.01
Mof_H 	H 	0.5227	0.8211	0.6291	0.002
Mof_H 	H 	0.2299	0.9301	0.5966	0.184
Mof_H 	H 	0.0705	0.9011	0.6437	0.221
Mof_H 	H 	0.834	0.7173	0.7798	0.006
Mof_H 	H 	0.9236	0.6176	0.8055	0.009
Mof_H 	H 	0.2065	0.7032	0.8678	0.183
Mof_H 	H 	0.0894	0.8005	0.8446	0.185
Mof_H 	H 	0.2804	0.0132	0.8119	0.037
Mof_H 	H 	0.3522	0.9749	0.7545	0.075
Mof_H 	H 	0.4983	0.8677	0.8254	0.164
Mof_H 	H 	0.7171	0.9145	0.7991	0.187
Mof_H 	H 	0.531	0.3902	0.8221	0.005
Mof_H 	H 	0.4773	0.3211	0.8709	0.002
Mof_H 	H 	0.7701	0.4301	0.9034	0.178
Mof_H 	H 	0.9295	0.4011	0.8563	0.213
Mof_H 	H 	0.166	0.2173	0.7202	0.006
Mof_H 	H 	0.0764	0.1176	0.6945	0.003
Mof_H 	H 	0.7935	0.2032	0.6322	0.175
Mof_H 	H 	0.9106	0.3005	0.6554	0.178
Mof_H 	H 	0.2804	0.4868	0.3119	0.008
Mof_H 	H 	0.3522	0.5251	0.2545	0.008
Mof_H 	H 	0.4983	0.6323	0.3254	0.189
Mof_H 	H 	0.7171	0.5855	0.2991	0.207
Mof_H 	H 	0.531	0.1098	0.3221	-0.002
Mof_H 	H 	0.4773	0.1789	0.3709	-0.003
Mof_H 	H 	0.7701	0.0699	0.4034	0.164
Mof_H 	H 	0.9295	0.0989	0.3563	0.206
Mof_H 	H 	0.166	0.2827	0.2202	0.007
Mof_H 	H 	0.0764	0.3824	0.1945	0.011
Mof_H 	H 	0.7935	0.2968	0.1322	0.174
Mof_H 	H 	0.9106	0.1995	0.1554	0.175
Mof_H 	H 	0.7196	0.9868	0.1881	-0.021
Mof_H 	H 	0.6478	0.0251	0.2455	-0.057
Mof_H 	H 	0.5017	0.1323	0.1746	0.212
Mof_H 	H 	0.2829	0.0855	0.2009	0.221
Mof_H 	H 	0.469	0.6098	0.1779	0.004
Mof_H 	H 	0.5227	0.6789	0.1291	-0.002
Mof_H 	H 	0.2299	0.5699	0.0966	0.167
Mof_H 	H 	0.0705	0.5989	0.1437	0.21
Mof_H 	H 	0.834	0.7827	0.2798	0.008
Mof_H 	H 	0.9236	0.8824	0.3055	0.016
Mof_H 	H 	0.2065	0.7968	0.3678	0.181
Mof_H 	H 	0.0894	0.6995	0.3446	0.179
Mof_C 	C 	0.4919	0.6701	0.68161	0.297
Mof_C 	C 	0.1912	0.761	0.7269	0.293
Mof_C 	C 	0.3001	0.5967	0.75845	0.293
Mof_C 	C 	0.5848	0.5013	0.7096	0.165
Mof_C 	C 	0.4158	0.4279	0.67903	-0.486
Mof_C 	C 	0.319	0.4662	0.6222	0.501
Mof_C 	C 	0.4026	0.8383	0.6538	0.179
Mof_C 	C 	0.1818	0.8761	0.6188	-0.495
Mof_C 	C 	0.0496	0.8032	0.58	0.498
Mof_C 	C 	0.9732	0.6832	0.7977	0.161
Mof_C 	C 	0.8706	0.7253	0.8927	0.432
Mof_C 	C 	0.0575	0.7328	0.8517	-0.458
Mof_C 	C 	0.5081	0.1701	0.81839	0.293
Mof_C 	C 	0.8088	0.261	0.7731	0.293
Mof_C 	C 	0.6999	0.0967	0.74155	0.289
Mof_C 	C 	0.4152	0.0013	0.7904	0.027
Mof_C 	C 	0.5842	0.9279	0.82097	-0.395
Mof_C 	C 	0.681	0.9662	0.8778	0.512
Mof_C 	C 	0.5974	0.3383	0.8462	0.177
Mof_C 	C 	0.8182	0.3761	0.8812	-0.488
Mof_C 	C 	0.9504	0.3032	0.92	0.496
Mof_C 	C 	0.0268	0.1832	0.7023	0.152
Mof_C 	C 	0.1294	0.2253	0.6073	0.426
Mof_C 	C 	0.9425	0.2328	0.6483	-0.446
Mof_C 	C 	0.5081	0.3299	0.31839	0.297
Mof_C 	C 	0.8088	0.239	0.2731	0.294
Mof_C 	C 	0.6999	0.4033	0.24155	0.293
Mof_C 	C 	0.4152	0.4987	0.2904	0.166
Mof_C 	C 	0.5842	0.5721	0.32097	-0.486
Mof_C 	C 	0.681	0.5338	0.3778	0.501
Mof_C 	C 	0.5974	0.1617	0.3462	0.179
Mof_C 	C 	0.8182	0.1239	0.3812	-0.485
Mof_C 	C 	0.9504	0.1968	0.42	0.496
Mof_C 	C 	0.0268	0.3168	0.2023	0.15
Mof_C 	C 	0.1294	0.2747	0.1073	0.428
Mof_C 	C 	0.9425	0.2672	0.1483	-0.445
Mof_C 	C 	0.4919	0.8299	0.18161	0.301
Mof_C 	C 	0.1912	0.739	0.2269	0.295
Mof_C 	C 	0.3001	0.9033	0.25845	0.298
Mof_C 	C 	0.5848	0.9987	0.2096	0.301
Mof_C 	C 	0.4158	0.0721	0.17903	-0.569
Mof_C 	C 	0.319	0.0338	0.1222	0.476
Mof_C 	C 	0.4026	0.6617	0.1538	0.177
Mof_C 	C 	0.1818	0.6239	0.1188	-0.486
Mof_C 	C 	0.0496	0.6968	0.08	0.492
Mof_C 	C 	0.9732	0.8168	0.2977	0.155
Mof_C 	C 	0.8706	0.7747	0.3927	0.432
Mof_C 	C 	0.0575	0.7672	0.3517	-0.452
Mof_N 	N 	0.3603	0.7533	0.6889	-0.206
Mof_N 	N 	0.1615	0.6797	0.75905	-0.209
Mof_N 	N 	0.4602	0.5942	0.71836	-0.205
Mof_N 	N 	0.6397	0.2533	0.8111	-0.206
Mof_N 	N 	0.8385	0.1797	0.74095	-0.207
Mof_N 	N 	0.5398	0.0942	0.78164	-0.192
Mof_N 	N 	0.6397	0.2467	0.3111	-0.207
Mof_N 	N 	0.8385	0.3203	0.24095	-0.208
Mof_N 	N 	0.5398	0.4058	0.28164	-0.205
Mof_N 	N 	0.3603	0.7467	0.1889	-0.207
Mof_N 	N 	0.1615	0.8203	0.25905	-0.208
Mof_N 	N 	0.4602	0.9058	0.21836	-0.218
Mof_O 	O 	0.2848	0.5299	0.79095	-0.248
Mof_O 	O 	0.6376	0.6643	0.64742	-0.26
Mof_O 	O 	0.0793	0.8345	0.73285	-0.255
Mof_O 	O 	0.1326	0.7201	0.57481	-0.479
Mof_O 	O 	0.8549	0.8353	0.55401	-0.512
Mof_O 	O 	0.132	0.5194	0.62105	-0.488
Mof_O 	O 	0.8302	0.4403	0.5163	-0.641
Mof_O 	O 	0.6616	0.6287	0.53393	-0.653
Mof_O 	O 	0.941	0.7562	0.94284	-0.502
Mof_O 	O 	0.4299	0.4466	0.58119	-0.522
Mof_O 	O 	0.669	0.6942	0.87928	-0.372
Mof_O 	O 	0.7152	0.0299	0.70905	-0.265
Mof_O 	O 	0.3624	0.1643	0.85258	-0.262
Mof_O 	O 	0.9207	0.3345	0.76715	-0.26
Mof_O 	O 	0.8674	0.2201	0.92519	-0.469
Mof_O 	O 	0.1451	0.3353	0.94599	-0.501
Mof_O 	O 	0.868	0.0194	0.87895	-0.509
Mof_O 	O 	0.1698	0.9403	0.9837	-0.597
Mof_O 	O 	0.3384	0.1287	0.96607	-0.639
Mof_O 	O 	0.059	0.2562	0.55716	-0.516
Mof_O 	O 	0.5701	0.9466	0.91881	-0.499
Mof_O 	O 	0.331	0.1942	0.62072	-0.38
Mof_O 	O 	0.7152	0.4701	0.20905	-0.249
Mof_O 	O 	0.3624	0.3357	0.35258	-0.261
Mof_O 	O 	0.9207	0.1655	0.26715	-0.264
Mof_O 	O 	0.8674	0.2799	0.42519	-0.479
Mof_O 	O 	0.1451	0.1647	0.44599	-0.525
Mof_O 	O 	0.868	0.4806	0.37895	-0.486
Mof_O 	O 	0.1698	0.5597	0.4837	-0.642
Mof_O 	O 	0.3384	0.3713	0.46607	-0.654
Mof_O 	O 	0.059	0.2438	0.05716	-0.527
Mof_O 	O 	0.5701	0.5534	0.41881	-0.522
Mof_O 	O 	0.331	0.3058	0.12072	-0.379
Mof_O 	O 	0.2848	0.9701	0.29095	-0.23
Mof_O 	O 	0.6376	0.8357	0.14742	-0.259
Mof_O 	O 	0.0793	0.6655	0.23285	-0.261
Mof_O 	O 	0.1326	0.7799	0.07481	-0.485
Mof_O 	O 	0.8549	0.6647	0.05401	-0.53
Mof_O 	O 	0.132	0.9806	0.12105	-0.454
Mof_O 	O 	0.8302	0.0597	0.0163	-0.675
Mof_O 	O 	0.6616	0.8713	0.03393	-0.662
Mof_O 	O 	0.941	0.7438	0.44284	-0.512
Mof_O 	O 	0.4299	0.0534	0.08119	-0.535
Mof_O 	O 	0.669	0.8058	0.37928	-0.372
_end
