data_functionalizedCrystal
_audit_creation_method	'EQeq! by Chris Wilmer'
_symmetry_space_group_name_H-M	'P1'
_symmetry_Int_Tables_number	1
_symmetry_cell_setting	triclinic
loop_
_symmetry_equiv_pos_as_xyz
  x,y,z
_cell_length_a	39.0207
_cell_length_b	26.9906
_cell_length_c	27.3897
_cell_angle_alpha	90
_cell_angle_beta	134.565
_cell_angle_gamma	90
loop_
_atom_site_label
_atom_site_type_symbol
_atom_site_fract_x
_atom_site_fract_y
_atom_site_fract_z
_atom_site_charge
Mof_C 	C 	0.6068	0.8341	0.4128	0.428
Mof_C 	C 	0.6072	0.878	0.3826	-0.182
Mof_C 	C 	0.6501	0.8969	0.4061	0.094
Mof_H 	H 	0.6797	0.8831	0.4464	0.009
Mof_C 	C 	0.6513	0.9344	0.3734	-0.168
Mof_H 	H 	0.6811	0.9443	0.3894	0.091
Mof_C 	C 	0.6102	0.9573	0.3188	0.123
Mof_C 	C 	0.5665	0.9427	0.2952	-0.163
Mof_H 	H 	0.5374	0.9588	0.2571	0.087
Mof_C 	C 	0.5662	0.9038	0.3289	0.093
Mof_H 	H 	0.5366	0.8949	0.3142	0.012
Mof_C 	C 	0.6113	0.9982	0.2843	-0.052
Mof_C 	C 	0.6367	0.9921	0.2654	0.126
Mof_C 	C 	0.5822	0.0414	0.2616	-0.116
Mof_H 	H 	0.5638	0.0479	0.2716	0.079
Mof_C 	C 	0.5839	0.0727	0.2235	0.149
Mof_C 	C 	0.6048	0.0709	0.2025	-0.081
Mof_C 	C 	0.6366	0.0278	0.2264	-0.099
Mof_H 	H 	0.6556	0.024	0.2168	0.062
Mof_C 	C 	0.6055	0.108	0.1642	0.151
Mof_C 	C 	0.566	0.1253	0.1081	-0.186
Mof_H 	H 	0.5365	0.1145	0.0926	0.108
Mof_C 	C 	0.5648	0.1616	0.0668	0.096
Mof_H 	H 	0.5356	0.1774	0.0286	0.009
Mof_C 	C 	0.6055	0.1718	0.0841	-0.179
Mof_C 	C 	0.6472	0.1532	0.1438	0.107
Mof_H 	H 	0.6763	0.161	0.1567	0.005
Mof_C 	C 	0.6493	0.1238	0.1866	-0.187
Mof_H 	H 	0.6793	0.1142	0.2302	0.087
Mof_C 	C 	0.6039	0.2041	0.0365	0.438
Mof_C 	C 	0.6866	0.9463	0.2598	0.024
Mof_H 	H 	0.7143	0.9692	0.289	0.014
Mof_H 	H 	0.6666	0.9543	0.211	0.027
Mof_C 	C 	0.7041	0.8872	0.2771	-0.16
Mof_H 	H 	0.6763	0.8649	0.2548	0.088
Mof_H 	H 	0.7283	0.8812	0.3272	0.08
Mof_C 	C 	0.5959	0.6668	0.4935	0.418
Mof_C 	C 	0.5942	0.622	0.5222	-0.158
Mof_C 	C 	0.5505	0.5991	0.4919	0.07
Mof_H 	H 	0.5211	0.6128	0.451	0.018
Mof_C 	C 	0.5492	0.5566	0.5205	-0.136
Mof_H 	H 	0.5203	0.539	0.4982	0.092
Mof_C 	C 	0.5964	0.5416	0.5882	0.097
Mof_C 	C 	0.6382	0.5651	0.6182	-0.152
Mof_H 	H 	0.6677	0.5547	0.6619	0.078
Mof_C 	C 	0.6371	0.6046	0.5843	0.072
Mof_H 	H 	0.6665	0.6199	0.6042	0.016
Mof_C 	C 	0.601	0.494	0.6292	-0.076
Mof_C 	C 	0.6314	0.508	0.7081	-0.093
Mof_H 	H 	0.6479	0.5385	0.7292	0.061
Mof_C 	C 	0.5932	0.4524	0.617	0.14
Mof_C 	C 	0.5807	0.4179	0.641	-0.18
Mof_H 	H 	0.5599	0.3906	0.6146	0.16
Mof_C 	C 	0.5996	0.4268	0.7	0.016
Mof_C 	C 	0.6304	0.4713	0.7399	0.103
Mof_C 	C 	0.5984	0.393	0.7445	0.065
Mof_C 	C 	0.5539	0.3728	0.7185	-0.125
Mof_H 	H 	0.5242	0.3813	0.6739	0.08
Mof_C 	C 	0.555	0.342	0.7575	0.059
Mof_H 	H 	0.5259	0.3283	0.7403	0.028
Mof_C 	C 	0.5999	0.3291	0.8254	-0.135
Mof_C 	C 	0.6411	0.3477	0.8481	0.066
Mof_H 	H 	0.6709	0.3389	0.8925	0.025
Mof_C 	C 	0.6413	0.3789	0.809	-0.122
Mof_H 	H 	0.6709	0.3909	0.8261	0.082
Mof_C 	C 	0.6008	0.2972	0.8706	0.395
Mof_C 	C 	0.5487	0.3882	0.5171	-0.538
Mof_H 	H 	0.5186	0.3901	0.4678	0.184
Mof_H 	H 	0.5734	0.3747	0.5194	0.183
Mof_C 	C 	0.5419	0.3568	0.539	0.609
Mof_H 	H 	0.507	0.3501	0.5071	-0.167
Mof_H 	H 	0.5543	0.367	0.5837	-0.193
Mof_C 	C 	0.5679	0.3109	0.5475	-0.592
Mof_H 	H 	0.5987	0.3199	0.5624	0.186
Mof_H 	H 	0.5748	0.2885	0.5821	0.198
Mof_C 	C 	0.5362	0.2873	0.4813	0.281
Mof_H 	H 	0.5483	0.2959	0.4604	-0.063
Mof_H 	H 	0.5408	0.2511	0.4898	-0.049
Mof_C 	C 	0.4868	0.2956	0.4313	-0.288
Mof_H 	H 	0.4807	0.3161	0.3959	0.103
Mof_H 	H 	0.4802	0.3173	0.4532	0.125
Mof_C 	C 	0.4492	0.2589	0.3943	-0.102
Mof_H 	H 	0.4647	0.2259	0.4114	0.066
Mof_H 	H 	0.4306	0.2633	0.4062	0.062
Mof_C 	C 	0.4157	0.2582	0.3209	0.136
Mof_H 	H 	0.4041	0.2235	0.3073	-0.006
Mof_H 	H 	0.4353	0.2637	0.3108	-0.009
Mof_C 	C 	0.3736	0.2886	0.2727	-0.525
Mof_H 	H 	0.3576	0.2799	0.2259	0.172
Mof_H 	H 	0.3831	0.3236	0.2813	0.173
Mof_H 	H 	0.3515	0.283	0.2779	0.176
Mof_C 	C 	0.6846	0.5287	0.8372	0.075
Mof_H 	H 	0.7085	0.5269	0.8344	0.008
Mof_H 	H 	0.6652	0.5593	0.8142	0.007
Mof_C 	C 	0.7086	0.5261	0.9111	-0.176
Mof_H 	H 	0.6832	0.518	0.9097	0.091
Mof_H 	H 	0.731	0.4976	0.9328	0.085
Mof_C 	C 	0.7374	0.5715	0.9608	-0.043
Mof_H 	H 	0.7152	0.6002	0.9393	0.037
Mof_H 	H 	0.7631	0.5795	0.9628	0.038
Mof_C 	C 	0.76	0.568	0.032	-0.117
Mof_H 	H 	0.786	0.543	0.0562	0.056
Mof_H 	H 	0.7356	0.5555	0.0309	0.043
Mof_C 	C 	0.7795	0.6117	0.0709	-0.034
Mof_H 	H 	0.8151	0.61	0.105	0.038
Mof_H 	H 	0.769	0.6403	0.0404	0.033
Mof_C 	C 	0.7622	0.6198	0.1112	-0.194
Mof_H 	H 	0.7425	0.6503	0.0923	0.076
Mof_H 	H 	0.7916	0.6268	0.1598	0.081
Mof_C 	C 	0.7333	0.5791	0.1113	0.121
Mof_H 	H 	0.6984	0.583	0.0704	-0.011
Mof_H 	H 	0.7391	0.5828	0.1526	-0.016
Mof_C 	C 	0.7498	0.528	0.1109	-0.487
Mof_H 	H 	0.732	0.5024	0.111	0.168
Mof_H 	H 	0.7437	0.5245	0.0697	0.164
Mof_H 	H 	0.7843	0.5243	0.1518	0.175
Mof_C 	C 	0.7487	0.7528	0.6392	0.151
Mof_H 	H 	0.7309	0.7603	0.6501	-0.026
Mof_C 	C 	0.7995	0.7529	0.6916	-0.199
Mof_H 	H 	0.8156	0.7658	0.7355	0.091
Mof_C 	C 	0.8245	0.7354	0.6805	0.122
Mof_C 	C 	0.7991	0.7169	0.6176	-0.191
Mof_H 	H 	0.8143	0.7051	0.604	0.102
Mof_C 	C 	0.75	0.7161	0.5738	0.133
Mof_H 	H 	0.7318	0.6938	0.5361	-0.019
Mof_C 	C 	0.9541	0.7144	0.7747	0.076
Mof_H 	H 	0.9715	0.6988	0.7664	0.008
Mof_C 	C 	0.9034	0.7112	0.7236	-0.102
Mof_H 	H 	0.8869	0.6937	0.6821	0.072
Mof_C 	C 	0.8784	0.7343	0.736	0.025
Mof_C 	C 	0.9035	0.7585	0.7962	-0.103
Mof_H 	H 	0.887	0.7744	0.8057	0.053
Mof_C 	C 	0.9521	0.76	0.8427	0.06
Mof_H 	H 	0.9689	0.7773	0.8844	0.001
Mof_O 	O 	0.56496	0.818	0.3844	-0.464
Mof_O 	O 	0.64392	0.8124	0.4593	-0.486
Mof_O 	O 	0.56652	0.2171	0.9848	-0.5
Mof_O 	O 	0.64575	0.2155	0.0597	-0.471
Mof_O 	O 	0.6569	0.9476	0.2777	-0.216
Mof_O 	O 	0.5545	0.1163	0.1973	-0.195
Mof_O 	O 	0.55491	0.68511	0.4391	-0.458
Mof_O 	O 	0.63448	0.6855	0.523	-0.491
Mof_O 	O 	0.56093	0.28234	0.8474	-0.461
Mof_O 	O 	0.64117	0.2874	0.929	-0.467
Mof_O 	O 	0.5632	0.441	0.54	-0.107
Mof_O 	O 	0.6546	0.4852	0.8085	-0.215
Mof_Zn	Zn	0.6528	0.74784	0.50455	1.219
Mof_Zn	Zn	0.54927	0.75237	0.40091	1.216
Mof_N 	N 	0.7279	0.7434	0.5815	-0.28
Mof_N 	N 	0.97841	0.7379	0.8329	-0.251
Mof_C 	C 	0.1068	0.3341	0.4128	0.429
Mof_C 	C 	0.1072	0.378	0.3826	-0.181
Mof_C 	C 	0.1501	0.3969	0.4061	0.095
Mof_H 	H 	0.1797	0.3831	0.4464	0.01
Mof_C 	C 	0.1513	0.4344	0.3734	-0.167
Mof_H 	H 	0.1811	0.4443	0.3894	0.092
Mof_C 	C 	0.1102	0.4573	0.3188	0.124
Mof_C 	C 	0.0665	0.4427	0.2952	-0.162
Mof_H 	H 	0.0374	0.4588	0.2571	0.088
Mof_C 	C 	0.0662	0.4038	0.3289	0.094
Mof_H 	H 	0.0366	0.3949	0.3142	0.014
Mof_C 	C 	0.1113	0.4982	0.2843	-0.051
Mof_C 	C 	0.1367	0.4921	0.2654	0.127
Mof_C 	C 	0.0822	0.5414	0.2616	-0.114
Mof_H 	H 	0.0638	0.5479	0.2716	0.08
Mof_C 	C 	0.0839	0.5727	0.2235	0.15
Mof_C 	C 	0.1048	0.5709	0.2025	-0.08
Mof_C 	C 	0.1366	0.5278	0.2264	-0.098
Mof_H 	H 	0.1556	0.524	0.2168	0.063
Mof_C 	C 	0.1055	0.608	0.1642	0.152
Mof_C 	C 	0.066	0.6253	0.1081	-0.185
Mof_H 	H 	0.0365	0.6145	0.0926	0.109
Mof_C 	C 	0.0648	0.6616	0.0668	0.097
Mof_H 	H 	0.0356	0.6774	0.0286	0.01
Mof_C 	C 	0.1055	0.6718	0.0841	-0.178
Mof_C 	C 	0.1472	0.6532	0.1438	0.108
Mof_H 	H 	0.1763	0.661	0.1567	0.006
Mof_C 	C 	0.1493	0.6238	0.1866	-0.186
Mof_H 	H 	0.1793	0.6142	0.2302	0.088
Mof_C 	C 	0.1039	0.7041	0.0365	0.44
Mof_C 	C 	0.1866	0.4463	0.2598	0.025
Mof_H 	H 	0.2143	0.4692	0.289	0.015
Mof_H 	H 	0.1666	0.4543	0.211	0.028
Mof_C 	C 	0.2041	0.3872	0.2771	-0.159
Mof_H 	H 	0.1763	0.3649	0.2548	0.089
Mof_H 	H 	0.2283	0.3812	0.3272	0.081
Mof_C 	C 	0.0959	0.1668	0.4935	0.419
Mof_C 	C 	0.0942	0.122	0.5222	-0.157
Mof_C 	C 	0.0505	0.0991	0.4919	0.071
Mof_H 	H 	0.0211	0.1128	0.451	0.019
Mof_C 	C 	0.0492	0.0566	0.5205	-0.135
Mof_H 	H 	0.0203	0.039	0.4982	0.093
Mof_C 	C 	0.0964	0.0416	0.5882	0.098
Mof_C 	C 	0.1382	0.0651	0.6182	-0.151
Mof_H 	H 	0.1677	0.0547	0.6619	0.079
Mof_C 	C 	0.1371	0.1046	0.5843	0.073
Mof_H 	H 	0.1665	0.1199	0.6042	0.017
Mof_C 	C 	0.101	0.994	0.6292	-0.075
Mof_C 	C 	0.1314	0.008	0.7081	-0.092
Mof_H 	H 	0.1479	0.0385	0.7292	0.062
Mof_C 	C 	0.0932	0.9524	0.617	0.141
Mof_C 	C 	0.0807	0.9179	0.641	-0.179
Mof_H 	H 	0.0599	0.8906	0.6146	0.161
Mof_C 	C 	0.0996	0.9268	0.7	0.017
Mof_C 	C 	0.1304	0.9713	0.7399	0.104
Mof_C 	C 	0.0984	0.893	0.7445	0.066
Mof_C 	C 	0.0539	0.8728	0.7185	-0.124
Mof_H 	H 	0.0242	0.8813	0.6739	0.081
Mof_C 	C 	0.055	0.842	0.7575	0.06
Mof_H 	H 	0.0259	0.8283	0.7403	0.028
Mof_C 	C 	0.0999	0.8291	0.8254	-0.135
Mof_C 	C 	0.1411	0.8477	0.8481	0.067
Mof_H 	H 	0.1709	0.8389	0.8925	0.025
Mof_C 	C 	0.1413	0.8789	0.809	-0.122
Mof_H 	H 	0.1709	0.8909	0.8261	0.082
Mof_C 	C 	0.1008	0.7972	0.8706	0.395
Mof_C 	C 	0.0487	0.8882	0.5171	-0.538
Mof_H 	H 	0.0186	0.8901	0.4678	0.184
Mof_H 	H 	0.0734	0.8747	0.5194	0.183
Mof_C 	C 	0.0419	0.8568	0.539	0.609
Mof_H 	H 	0.007	0.8501	0.5071	-0.167
Mof_H 	H 	0.0543	0.867	0.5837	-0.193
Mof_C 	C 	0.0679	0.8109	0.5475	-0.592
Mof_H 	H 	0.0987	0.8199	0.5624	0.186
Mof_H 	H 	0.0748	0.7885	0.5821	0.198
Mof_C 	C 	0.0362	0.7873	0.4813	0.281
Mof_H 	H 	0.0483	0.7959	0.4604	-0.063
Mof_H 	H 	0.0408	0.7511	0.4898	-0.049
Mof_C 	C 	0.9868	0.7956	0.4313	-0.288
Mof_H 	H 	0.9807	0.8161	0.3959	0.103
Mof_H 	H 	0.9802	0.8173	0.4532	0.125
Mof_C 	C 	0.9492	0.7589	0.3943	-0.102
Mof_H 	H 	0.9647	0.7259	0.4114	0.066
Mof_H 	H 	0.9306	0.7633	0.4062	0.062
Mof_C 	C 	0.9157	0.7582	0.3209	0.136
Mof_H 	H 	0.9041	0.7235	0.3073	-0.006
Mof_H 	H 	0.9353	0.7637	0.3108	-0.01
Mof_C 	C 	0.8736	0.7886	0.2727	-0.525
Mof_H 	H 	0.8576	0.7799	0.2259	0.172
Mof_H 	H 	0.8831	0.8236	0.2813	0.173
Mof_H 	H 	0.8515	0.783	0.2779	0.175
Mof_C 	C 	0.1846	0.0287	0.8372	0.075
Mof_H 	H 	0.2085	0.0269	0.8344	0.008
Mof_H 	H 	0.1652	0.0593	0.8142	0.007
Mof_C 	C 	0.2086	0.0261	0.9111	-0.176
Mof_H 	H 	0.1832	0.018	0.9097	0.09
Mof_H 	H 	0.231	0.9976	0.9328	0.085
Mof_C 	C 	0.2374	0.0715	0.9608	-0.044
Mof_H 	H 	0.2152	0.1002	0.9393	0.038
Mof_H 	H 	0.2631	0.0795	0.9628	0.038
Mof_C 	C 	0.26	0.068	0.032	-0.115
Mof_H 	H 	0.286	0.043	0.0562	0.055
Mof_H 	H 	0.2356	0.0555	0.0309	0.043
Mof_C 	C 	0.2795	0.1117	0.0709	-0.035
Mof_H 	H 	0.3151	0.11	0.105	0.038
Mof_H 	H 	0.269	0.1403	0.0404	0.033
Mof_C 	C 	0.2622	0.1198	0.1112	-0.193
Mof_H 	H 	0.2425	0.1503	0.0923	0.076
Mof_H 	H 	0.2916	0.1268	0.1598	0.081
Mof_C 	C 	0.2333	0.0791	0.1113	0.121
Mof_H 	H 	0.1984	0.083	0.0704	-0.011
Mof_H 	H 	0.2391	0.0828	0.1526	-0.016
Mof_C 	C 	0.2498	0.028	0.1109	-0.487
Mof_H 	H 	0.232	0.0024	0.111	0.167
Mof_H 	H 	0.2437	0.0245	0.0697	0.164
Mof_H 	H 	0.2843	0.0243	0.1518	0.175
Mof_C 	C 	0.2487	0.2528	0.6392	0.151
Mof_H 	H 	0.2309	0.2603	0.6501	-0.026
Mof_C 	C 	0.2995	0.2529	0.6916	-0.199
Mof_H 	H 	0.3156	0.2658	0.7355	0.091
Mof_C 	C 	0.3245	0.2354	0.6805	0.122
Mof_C 	C 	0.2991	0.2169	0.6176	-0.191
Mof_H 	H 	0.3143	0.2051	0.604	0.102
Mof_C 	C 	0.25	0.2161	0.5738	0.133
Mof_H 	H 	0.2318	0.1938	0.5361	-0.019
Mof_C 	C 	0.4541	0.2144	0.7747	0.076
Mof_H 	H 	0.4715	0.1988	0.7664	0.008
Mof_C 	C 	0.4034	0.2112	0.7236	-0.102
Mof_H 	H 	0.3869	0.1937	0.6821	0.072
Mof_C 	C 	0.3784	0.2343	0.736	0.025
Mof_C 	C 	0.4035	0.2585	0.7962	-0.103
Mof_H 	H 	0.387	0.2744	0.8057	0.054
Mof_C 	C 	0.4521	0.26	0.8427	0.06
Mof_H 	H 	0.4689	0.2773	0.8844	0.001
Mof_O 	O 	0.06496	0.318	0.3844	-0.464
Mof_O 	O 	0.14392	0.3124	0.4593	-0.486
Mof_O 	O 	0.06652	0.7171	0.9848	-0.501
Mof_O 	O 	0.14575	0.7155	0.0597	-0.471
Mof_O 	O 	0.1569	0.4476	0.2777	-0.216
Mof_O 	O 	0.0545	0.6163	0.1973	-0.195
Mof_O 	O 	0.05491	0.18511	0.4391	-0.458
Mof_O 	O 	0.13448	0.1855	0.523	-0.491
Mof_O 	O 	0.06093	0.78234	0.8474	-0.461
Mof_O 	O 	0.14117	0.7874	0.929	-0.467
Mof_O 	O 	0.0632	0.941	0.54	-0.107
Mof_O 	O 	0.1546	0.9852	0.8085	-0.215
Mof_Zn	Zn	0.1528	0.24784	0.50455	1.219
Mof_Zn	Zn	0.04927	0.25237	0.40091	1.216
Mof_N 	N 	0.2279	0.2434	0.5815	-0.28
Mof_N 	N 	0.47841	0.2379	0.8329	-0.251
Mof_C 	C 	0.6068	0.1659	0.9128	0.429
Mof_C 	C 	0.6072	0.122	0.8826	-0.181
Mof_C 	C 	0.6501	0.1031	0.9061	0.095
Mof_H 	H 	0.6797	0.1169	0.9464	0.01
Mof_C 	C 	0.6513	0.0656	0.8734	-0.167
Mof_H 	H 	0.6811	0.0557	0.8894	0.092
Mof_C 	C 	0.6102	0.0427	0.8188	0.124
Mof_C 	C 	0.5665	0.0573	0.7952	-0.162
Mof_H 	H 	0.5374	0.0412	0.7571	0.088
Mof_C 	C 	0.5662	0.0962	0.8289	0.094
Mof_H 	H 	0.5366	0.1051	0.8142	0.014
Mof_C 	C 	0.6113	0.0018	0.7843	-0.051
Mof_C 	C 	0.6367	0.0079	0.7654	0.127
Mof_C 	C 	0.5822	0.9586	0.7616	-0.115
Mof_H 	H 	0.5638	0.9521	0.7716	0.08
Mof_C 	C 	0.5839	0.9273	0.7235	0.15
Mof_C 	C 	0.6048	0.9291	0.7025	-0.08
Mof_C 	C 	0.6366	0.9722	0.7264	-0.098
Mof_H 	H 	0.6556	0.976	0.7168	0.063
Mof_C 	C 	0.6055	0.892	0.6642	0.152
Mof_C 	C 	0.566	0.8747	0.6081	-0.185
Mof_H 	H 	0.5365	0.8855	0.5926	0.109
Mof_C 	C 	0.5648	0.8384	0.5668	0.097
Mof_H 	H 	0.5356	0.8226	0.5286	0.01
Mof_C 	C 	0.6055	0.8282	0.5841	-0.178
Mof_C 	C 	0.6472	0.8468	0.6438	0.108
Mof_H 	H 	0.6763	0.839	0.6567	0.006
Mof_C 	C 	0.6493	0.8762	0.6866	-0.186
Mof_H 	H 	0.6793	0.8858	0.7302	0.088
Mof_C 	C 	0.6039	0.7959	0.5365	0.44
Mof_C 	C 	0.6866	0.0537	0.7598	0.025
Mof_H 	H 	0.7143	0.0308	0.789	0.015
Mof_H 	H 	0.6666	0.0457	0.711	0.028
Mof_C 	C 	0.7041	0.1128	0.7771	-0.159
Mof_H 	H 	0.6763	0.1351	0.7548	0.089
Mof_H 	H 	0.7283	0.1188	0.8272	0.081
Mof_C 	C 	0.5959	0.3332	0.9935	0.419
Mof_C 	C 	0.5942	0.378	0.0222	-0.158
Mof_C 	C 	0.5505	0.4009	0.9919	0.072
Mof_H 	H 	0.5211	0.3872	0.951	0.019
Mof_C 	C 	0.5492	0.4434	0.0205	-0.135
Mof_H 	H 	0.5203	0.461	0.9982	0.093
Mof_C 	C 	0.5964	0.4584	0.0882	0.098
Mof_C 	C 	0.6382	0.4349	0.1182	-0.151
Mof_H 	H 	0.6677	0.4453	0.1619	0.079
Mof_C 	C 	0.6371	0.3954	0.0843	0.073
Mof_H 	H 	0.6665	0.3801	0.1042	0.017
Mof_C 	C 	0.601	0.506	0.1292	-0.075
Mof_C 	C 	0.6314	0.492	0.2081	-0.092
Mof_H 	H 	0.6479	0.4615	0.2292	0.062
Mof_C 	C 	0.5932	0.5476	0.117	0.141
Mof_C 	C 	0.5807	0.5821	0.141	-0.179
Mof_H 	H 	0.5599	0.6094	0.1146	0.161
Mof_C 	C 	0.5996	0.5732	0.2	0.017
Mof_C 	C 	0.6304	0.5287	0.2399	0.104
Mof_C 	C 	0.5984	0.607	0.2445	0.066
Mof_C 	C 	0.5539	0.6272	0.2185	-0.124
Mof_H 	H 	0.5242	0.6187	0.1739	0.081
Mof_C 	C 	0.555	0.658	0.2575	0.06
Mof_H 	H 	0.5259	0.6717	0.2403	0.029
Mof_C 	C 	0.5999	0.6709	0.3254	-0.135
Mof_C 	C 	0.6411	0.6523	0.3481	0.067
Mof_H 	H 	0.6709	0.6611	0.3925	0.025
Mof_C 	C 	0.6413	0.6211	0.309	-0.122
Mof_H 	H 	0.6709	0.6091	0.3261	0.082
Mof_C 	C 	0.6008	0.7028	0.3706	0.395
Mof_C 	C 	0.5487	0.6118	0.0171	-0.538
Mof_H 	H 	0.5186	0.6099	0.9678	0.184
Mof_H 	H 	0.5734	0.6253	0.0194	0.183
Mof_C 	C 	0.5419	0.6432	0.039	0.609
Mof_H 	H 	0.507	0.6499	0.0071	-0.167
Mof_H 	H 	0.5543	0.633	0.0837	-0.193
Mof_C 	C 	0.5679	0.6891	0.0475	-0.592
Mof_H 	H 	0.5987	0.6801	0.0624	0.186
Mof_H 	H 	0.5748	0.7115	0.0821	0.198
Mof_C 	C 	0.5362	0.7127	0.9813	0.281
Mof_H 	H 	0.5483	0.7041	0.9604	-0.063
Mof_H 	H 	0.5408	0.7489	0.9898	-0.049
Mof_C 	C 	0.4868	0.7044	0.9313	-0.288
Mof_H 	H 	0.4807	0.6839	0.8959	0.103
Mof_H 	H 	0.4802	0.6827	0.9532	0.125
Mof_C 	C 	0.4492	0.7411	0.8943	-0.102
Mof_H 	H 	0.4647	0.7741	0.9114	0.066
Mof_H 	H 	0.4306	0.7367	0.9062	0.062
Mof_C 	C 	0.4157	0.7418	0.8209	0.135
Mof_H 	H 	0.4041	0.7765	0.8073	-0.005
Mof_H 	H 	0.4353	0.7363	0.8108	-0.009
Mof_C 	C 	0.3736	0.7114	0.7727	-0.525
Mof_H 	H 	0.3576	0.7201	0.7259	0.172
Mof_H 	H 	0.3831	0.6764	0.7813	0.173
Mof_H 	H 	0.3515	0.717	0.7779	0.175
Mof_C 	C 	0.6846	0.4713	0.3372	0.075
Mof_H 	H 	0.7085	0.4731	0.3344	0.008
Mof_H 	H 	0.6652	0.4407	0.3142	0.007
Mof_C 	C 	0.7086	0.4739	0.4111	-0.176
Mof_H 	H 	0.6832	0.482	0.4097	0.091
Mof_H 	H 	0.731	0.5024	0.4328	0.085
Mof_C 	C 	0.7374	0.4285	0.4608	-0.044
Mof_H 	H 	0.7152	0.3998	0.4393	0.037
Mof_H 	H 	0.7631	0.4205	0.4628	0.038
Mof_C 	C 	0.76	0.432	0.532	-0.116
Mof_H 	H 	0.786	0.457	0.5562	0.056
Mof_H 	H 	0.7356	0.4445	0.5309	0.043
Mof_C 	C 	0.7795	0.3883	0.5709	-0.035
Mof_H 	H 	0.8151	0.39	0.605	0.038
Mof_H 	H 	0.769	0.3597	0.5404	0.033
Mof_C 	C 	0.7622	0.3802	0.6112	-0.193
Mof_H 	H 	0.7425	0.3497	0.5923	0.076
Mof_H 	H 	0.7916	0.3732	0.6598	0.081
Mof_C 	C 	0.7333	0.4209	0.6113	0.121
Mof_H 	H 	0.6984	0.417	0.5704	-0.011
Mof_H 	H 	0.7391	0.4172	0.6526	-0.016
Mof_C 	C 	0.7498	0.472	0.6109	-0.487
Mof_H 	H 	0.732	0.4976	0.611	0.168
Mof_H 	H 	0.7437	0.4755	0.5697	0.164
Mof_H 	H 	0.7843	0.4757	0.6518	0.175
Mof_C 	C 	0.7487	0.2472	0.1392	0.151
Mof_H 	H 	0.7309	0.2397	0.1501	-0.026
Mof_C 	C 	0.7995	0.2471	0.1916	-0.199
Mof_H 	H 	0.8156	0.2342	0.2355	0.091
Mof_C 	C 	0.8245	0.2646	0.1805	0.122
Mof_C 	C 	0.7991	0.2831	0.1176	-0.191
Mof_H 	H 	0.8143	0.2949	0.104	0.102
Mof_C 	C 	0.75	0.2839	0.0738	0.133
Mof_H 	H 	0.7318	0.3062	0.0361	-0.019
Mof_C 	C 	0.9541	0.2856	0.2747	0.076
Mof_H 	H 	0.9715	0.3012	0.2664	0.008
Mof_C 	C 	0.9034	0.2888	0.2236	-0.102
Mof_H 	H 	0.8869	0.3063	0.1821	0.072
Mof_C 	C 	0.8784	0.2657	0.236	0.025
Mof_C 	C 	0.9035	0.2415	0.2962	-0.103
Mof_H 	H 	0.887	0.2256	0.3057	0.054
Mof_C 	C 	0.9521	0.24	0.3427	0.06
Mof_H 	H 	0.9689	0.2227	0.3844	0.001
Mof_O 	O 	0.56496	0.182	0.8844	-0.464
Mof_O 	O 	0.64392	0.1876	0.9593	-0.486
Mof_O 	O 	0.56652	0.7829	0.4848	-0.5
Mof_O 	O 	0.64575	0.7845	0.5597	-0.471
Mof_O 	O 	0.6569	0.0524	0.7777	-0.216
Mof_O 	O 	0.5545	0.8837	0.6973	-0.195
Mof_O 	O 	0.55491	0.31489	0.9391	-0.458
Mof_O 	O 	0.63448	0.3145	0.023	-0.491
Mof_O 	O 	0.56093	0.71766	0.3474	-0.461
Mof_O 	O 	0.64117	0.7126	0.429	-0.467
Mof_O 	O 	0.5632	0.559	0.04	-0.107
Mof_O 	O 	0.6546	0.5148	0.3085	-0.215
Mof_Zn	Zn	0.6528	0.25216	0.00455	1.219
Mof_Zn	Zn	0.54927	0.24763	0.90091	1.216
Mof_N 	N 	0.7279	0.2566	0.0815	-0.28
Mof_N 	N 	0.97841	0.2621	0.3329	-0.251
Mof_C 	C 	0.1068	0.6659	0.9128	0.429
Mof_C 	C 	0.1072	0.622	0.8826	-0.181
Mof_C 	C 	0.1501	0.6031	0.9061	0.095
Mof_H 	H 	0.1797	0.6169	0.9464	0.01
Mof_C 	C 	0.1513	0.5656	0.8734	-0.167
Mof_H 	H 	0.1811	0.5557	0.8894	0.092
Mof_C 	C 	0.1102	0.5427	0.8188	0.124
Mof_C 	C 	0.0665	0.5573	0.7952	-0.162
Mof_H 	H 	0.0374	0.5412	0.7571	0.088
Mof_C 	C 	0.0662	0.5962	0.8289	0.094
Mof_H 	H 	0.0366	0.6051	0.8142	0.013
Mof_C 	C 	0.1113	0.5018	0.7843	-0.051
Mof_C 	C 	0.1367	0.5079	0.7654	0.127
Mof_C 	C 	0.0822	0.4586	0.7616	-0.114
Mof_H 	H 	0.0638	0.4521	0.7716	0.08
Mof_C 	C 	0.0839	0.4273	0.7235	0.15
Mof_C 	C 	0.1048	0.4291	0.7025	-0.08
Mof_C 	C 	0.1366	0.4722	0.7264	-0.098
Mof_H 	H 	0.1556	0.476	0.7168	0.063
Mof_C 	C 	0.1055	0.392	0.6642	0.152
Mof_C 	C 	0.066	0.3747	0.6081	-0.185
Mof_H 	H 	0.0365	0.3855	0.5926	0.109
Mof_C 	C 	0.0648	0.3384	0.5668	0.097
Mof_H 	H 	0.0356	0.3226	0.5286	0.01
Mof_C 	C 	0.1055	0.3282	0.5841	-0.178
Mof_C 	C 	0.1472	0.3468	0.6438	0.108
Mof_H 	H 	0.1763	0.339	0.6567	0.006
Mof_C 	C 	0.1493	0.3762	0.6866	-0.186
Mof_H 	H 	0.1793	0.3858	0.7302	0.088
Mof_C 	C 	0.1039	0.2959	0.5365	0.44
Mof_C 	C 	0.1866	0.5537	0.7598	0.025
Mof_H 	H 	0.2143	0.5308	0.789	0.015
Mof_H 	H 	0.1666	0.5457	0.711	0.028
Mof_C 	C 	0.2041	0.6128	0.7771	-0.159
Mof_H 	H 	0.1763	0.6351	0.7548	0.089
Mof_H 	H 	0.2283	0.6188	0.8272	0.081
Mof_C 	C 	0.0959	0.8332	0.9935	0.417
Mof_C 	C 	0.0942	0.878	0.0222	-0.155
Mof_C 	C 	0.0505	0.9009	0.9919	0.068
Mof_H 	H 	0.0211	0.8872	0.951	0.02
Mof_C 	C 	0.0492	0.9434	0.0205	-0.132
Mof_H 	H 	0.0203	0.961	0.9982	0.092
Mof_C 	C 	0.0964	0.9584	0.0882	0.097
Mof_C 	C 	0.1382	0.9349	0.1182	-0.15
Mof_H 	H 	0.1677	0.9453	0.1619	0.079
Mof_C 	C 	0.1371	0.8954	0.0843	0.071
Mof_H 	H 	0.1665	0.8801	0.1042	0.018
Mof_C 	C 	0.101	0.006	0.1292	-0.075
Mof_C 	C 	0.1314	0.992	0.2081	-0.092
Mof_H 	H 	0.1479	0.9615	0.2292	0.062
Mof_C 	C 	0.0932	0.0476	0.117	0.141
Mof_C 	C 	0.0807	0.0821	0.141	-0.179
Mof_H 	H 	0.0599	0.1094	0.1146	0.162
Mof_C 	C 	0.0996	0.0732	0.2	0.017
Mof_C 	C 	0.1304	0.0287	0.2399	0.104
Mof_C 	C 	0.0984	0.107	0.2445	0.066
Mof_C 	C 	0.0539	0.1272	0.2185	-0.124
Mof_H 	H 	0.0242	0.1187	0.1739	0.081
Mof_C 	C 	0.055	0.158	0.2575	0.06
Mof_H 	H 	0.0259	0.1717	0.2403	0.029
Mof_C 	C 	0.0999	0.1709	0.3254	-0.134
Mof_C 	C 	0.1411	0.1523	0.3481	0.067
Mof_H 	H 	0.1709	0.1611	0.3925	0.025
Mof_C 	C 	0.1413	0.1211	0.309	-0.122
Mof_H 	H 	0.1709	0.1091	0.3261	0.082
Mof_C 	C 	0.1008	0.2028	0.3706	0.395
Mof_C 	C 	0.0487	0.1118	0.0171	-0.542
Mof_H 	H 	0.0186	0.1099	0.9678	0.184
Mof_H 	H 	0.0734	0.1253	0.0194	0.184
Mof_C 	C 	0.0419	0.1432	0.039	0.614
Mof_H 	H 	0.007	0.1499	0.0071	-0.168
Mof_H 	H 	0.0543	0.133	0.0837	-0.195
Mof_C 	C 	0.0679	0.1891	0.0475	-0.596
Mof_H 	H 	0.0987	0.1801	0.0624	0.188
Mof_H 	H 	0.0748	0.2115	0.0821	0.199
Mof_C 	C 	0.0362	0.2127	0.9813	0.285
Mof_H 	H 	0.0483	0.2041	0.9604	-0.064
Mof_H 	H 	0.0408	0.2489	0.9898	-0.051
Mof_C 	C 	0.9868	0.2044	0.9313	-0.292
Mof_H 	H 	0.9807	0.1839	0.8959	0.105
Mof_H 	H 	0.9802	0.1827	0.9532	0.127
Mof_C 	C 	0.9492	0.2411	0.8943	-0.097
Mof_H 	H 	0.9647	0.2741	0.9114	0.065
Mof_H 	H 	0.9306	0.2367	0.9062	0.061
Mof_C 	C 	0.9157	0.2418	0.8209	0.131
Mof_H 	H 	0.9041	0.2765	0.8073	-0.004
Mof_H 	H 	0.9353	0.2363	0.8108	-0.008
Mof_C 	C 	0.8736	0.2114	0.7727	-0.521
Mof_H 	H 	0.8576	0.2201	0.7259	0.171
Mof_H 	H 	0.8831	0.1764	0.7813	0.171
Mof_H 	H 	0.8515	0.217	0.7779	0.174
Mof_C 	C 	0.1846	0.9713	0.3372	0.075
Mof_H 	H 	0.2085	0.9731	0.3344	0.008
Mof_H 	H 	0.1652	0.9407	0.3142	0.007
Mof_C 	C 	0.2086	0.9739	0.4111	-0.176
Mof_H 	H 	0.1832	0.982	0.4097	0.091
Mof_H 	H 	0.231	0.0024	0.4328	0.085
Mof_C 	C 	0.2374	0.9285	0.4608	-0.044
Mof_H 	H 	0.2152	0.8998	0.4393	0.038
Mof_H 	H 	0.2631	0.9205	0.4628	0.038
Mof_C 	C 	0.26	0.932	0.532	-0.116
Mof_H 	H 	0.286	0.957	0.5562	0.056
Mof_H 	H 	0.2356	0.9445	0.5309	0.043
Mof_C 	C 	0.2795	0.8883	0.5709	-0.035
Mof_H 	H 	0.3151	0.89	0.605	0.038
Mof_H 	H 	0.269	0.8597	0.5404	0.033
Mof_C 	C 	0.2622	0.8802	0.6112	-0.193
Mof_H 	H 	0.2425	0.8497	0.5923	0.076
Mof_H 	H 	0.2916	0.8732	0.6598	0.081
Mof_C 	C 	0.2333	0.9209	0.6113	0.121
Mof_H 	H 	0.1984	0.917	0.5704	-0.011
Mof_H 	H 	0.2391	0.9172	0.6526	-0.016
Mof_C 	C 	0.2498	0.972	0.6109	-0.487
Mof_H 	H 	0.232	0.9976	0.611	0.167
Mof_H 	H 	0.2437	0.9755	0.5697	0.164
Mof_H 	H 	0.2843	0.9757	0.6518	0.175
Mof_C 	C 	0.2487	0.7472	0.1392	0.151
Mof_H 	H 	0.2309	0.7397	0.1501	-0.026
Mof_C 	C 	0.2995	0.7471	0.1916	-0.199
Mof_H 	H 	0.3156	0.7342	0.2355	0.091
Mof_C 	C 	0.3245	0.7646	0.1805	0.122
Mof_C 	C 	0.2991	0.7831	0.1176	-0.191
Mof_H 	H 	0.3143	0.7949	0.104	0.102
Mof_C 	C 	0.25	0.7839	0.0738	0.133
Mof_H 	H 	0.2318	0.8062	0.0361	-0.019
Mof_C 	C 	0.4541	0.7856	0.2747	0.076
Mof_H 	H 	0.4715	0.8012	0.2664	0.008
Mof_C 	C 	0.4034	0.7888	0.2236	-0.102
Mof_H 	H 	0.3869	0.8063	0.1821	0.072
Mof_C 	C 	0.3784	0.7657	0.236	0.025
Mof_C 	C 	0.4035	0.7415	0.2962	-0.103
Mof_H 	H 	0.387	0.7256	0.3057	0.054
Mof_C 	C 	0.4521	0.74	0.3427	0.06
Mof_H 	H 	0.4689	0.7227	0.3844	0.001
Mof_O 	O 	0.06496	0.682	0.8844	-0.464
Mof_O 	O 	0.14392	0.6876	0.9593	-0.486
Mof_O 	O 	0.06652	0.2829	0.4848	-0.5
Mof_O 	O 	0.14575	0.2845	0.5597	-0.471
Mof_O 	O 	0.1569	0.5524	0.7777	-0.216
Mof_O 	O 	0.0545	0.3837	0.6973	-0.195
Mof_O 	O 	0.05491	0.81489	0.9391	-0.458
Mof_O 	O 	0.13448	0.8145	0.023	-0.49
Mof_O 	O 	0.06093	0.21766	0.3474	-0.461
Mof_O 	O 	0.14117	0.2126	0.429	-0.467
Mof_O 	O 	0.0632	0.059	0.04	-0.106
Mof_O 	O 	0.1546	0.0148	0.3085	-0.215
Mof_Zn	Zn	0.1528	0.75216	0.00455	1.219
Mof_Zn	Zn	0.04927	0.74763	0.90091	1.216
Mof_N 	N 	0.2279	0.7566	0.0815	-0.28
Mof_N 	N 	0.47841	0.7621	0.3329	-0.251
Mof_C 	C 	0.3932	0.8341	0.0872	0.429
Mof_C 	C 	0.3928	0.878	0.1174	-0.181
Mof_C 	C 	0.3499	0.8969	0.0939	0.095
Mof_H 	H 	0.3203	0.8831	0.0536	0.01
Mof_C 	C 	0.3487	0.9344	0.1266	-0.167
Mof_H 	H 	0.3189	0.9443	0.1106	0.092
Mof_C 	C 	0.3898	0.9573	0.1812	0.124
Mof_C 	C 	0.4335	0.9427	0.2048	-0.162
Mof_H 	H 	0.4626	0.9588	0.2429	0.088
Mof_C 	C 	0.4338	0.9038	0.1711	0.094
Mof_H 	H 	0.4634	0.8949	0.1858	0.014
Mof_C 	C 	0.3887	0.9982	0.2157	-0.051
Mof_C 	C 	0.3633	0.9921	0.2346	0.127
Mof_C 	C 	0.4178	0.0414	0.2384	-0.115
Mof_H 	H 	0.4362	0.0479	0.2284	0.08
Mof_C 	C 	0.4161	0.0727	0.2765	0.15
Mof_C 	C 	0.3952	0.0709	0.2975	-0.08
Mof_C 	C 	0.3634	0.0278	0.2736	-0.098
Mof_H 	H 	0.3444	0.024	0.2832	0.063
Mof_C 	C 	0.3945	0.108	0.3358	0.152
Mof_C 	C 	0.434	0.1253	0.3919	-0.185
Mof_H 	H 	0.4635	0.1145	0.4074	0.109
Mof_C 	C 	0.4352	0.1616	0.4332	0.097
Mof_H 	H 	0.4644	0.1774	0.4714	0.01
Mof_C 	C 	0.3945	0.1718	0.4159	-0.178
Mof_C 	C 	0.3528	0.1532	0.3562	0.108
Mof_H 	H 	0.3237	0.161	0.3433	0.006
Mof_C 	C 	0.3507	0.1238	0.3134	-0.186
Mof_H 	H 	0.3207	0.1142	0.2698	0.088
Mof_C 	C 	0.3961	0.2041	0.4635	0.44
Mof_C 	C 	0.3134	0.9463	0.2402	0.025
Mof_H 	H 	0.2857	0.9692	0.211	0.015
Mof_H 	H 	0.3334	0.9543	0.289	0.028
Mof_C 	C 	0.2959	0.8872	0.2229	-0.159
Mof_H 	H 	0.3237	0.8649	0.2452	0.089
Mof_H 	H 	0.2717	0.8812	0.1728	0.081
Mof_C 	C 	0.4041	0.6668	0.0065	0.419
Mof_C 	C 	0.4058	0.622	0.9778	-0.158
Mof_C 	C 	0.4495	0.5991	0.0081	0.072
Mof_H 	H 	0.4789	0.6128	0.049	0.019
Mof_C 	C 	0.4508	0.5566	0.9795	-0.135
Mof_H 	H 	0.4797	0.539	0.0018	0.093
Mof_C 	C 	0.4036	0.5416	0.9118	0.098
Mof_C 	C 	0.3618	0.5651	0.8818	-0.151
Mof_H 	H 	0.3323	0.5547	0.8381	0.079
Mof_C 	C 	0.3629	0.6046	0.9157	0.073
Mof_H 	H 	0.3335	0.6199	0.8958	0.017
Mof_C 	C 	0.399	0.494	0.8708	-0.075
Mof_C 	C 	0.3686	0.508	0.7919	-0.092
Mof_H 	H 	0.3521	0.5385	0.7708	0.062
Mof_C 	C 	0.4068	0.4524	0.883	0.141
Mof_C 	C 	0.4193	0.4179	0.859	-0.179
Mof_H 	H 	0.4401	0.3906	0.8854	0.161
Mof_C 	C 	0.4004	0.4268	0.8	0.017
Mof_C 	C 	0.3696	0.4713	0.7601	0.104
Mof_C 	C 	0.4016	0.393	0.7555	0.066
Mof_C 	C 	0.4461	0.3728	0.7815	-0.124
Mof_H 	H 	0.4758	0.3813	0.8261	0.081
Mof_C 	C 	0.445	0.342	0.7425	0.06
Mof_H 	H 	0.4741	0.3283	0.7597	0.029
Mof_C 	C 	0.4001	0.3291	0.6746	-0.135
Mof_C 	C 	0.3589	0.3477	0.6519	0.067
Mof_H 	H 	0.3291	0.3389	0.6075	0.025
Mof_C 	C 	0.3587	0.3789	0.691	-0.122
Mof_H 	H 	0.3291	0.3909	0.6739	0.082
Mof_C 	C 	0.3992	0.2972	0.6294	0.395
Mof_C 	C 	0.4513	0.3882	0.9829	-0.538
Mof_H 	H 	0.4814	0.3901	0.0322	0.184
Mof_H 	H 	0.4266	0.3747	0.9806	0.183
Mof_C 	C 	0.4581	0.3568	0.961	0.609
Mof_H 	H 	0.493	0.3501	0.9929	-0.167
Mof_H 	H 	0.4457	0.367	0.9163	-0.193
Mof_C 	C 	0.4321	0.3109	0.9525	-0.592
Mof_H 	H 	0.4013	0.3199	0.9376	0.186
Mof_H 	H 	0.4252	0.2885	0.9179	0.198
Mof_C 	C 	0.4638	0.2873	0.0187	0.281
Mof_H 	H 	0.4517	0.2959	0.0396	-0.063
Mof_H 	H 	0.4592	0.2511	0.0102	-0.049
Mof_C 	C 	0.5132	0.2956	0.0687	-0.288
Mof_H 	H 	0.5193	0.3161	0.1041	0.103
Mof_H 	H 	0.5198	0.3173	0.0468	0.125
Mof_C 	C 	0.5508	0.2589	0.1057	-0.102
Mof_H 	H 	0.5353	0.2259	0.0886	0.066
Mof_H 	H 	0.5694	0.2633	0.0938	0.062
Mof_C 	C 	0.5843	0.2582	0.1791	0.135
Mof_H 	H 	0.5959	0.2235	0.1927	-0.005
Mof_H 	H 	0.5647	0.2637	0.1892	-0.009
Mof_C 	C 	0.6264	0.2886	0.2273	-0.525
Mof_H 	H 	0.6424	0.2799	0.2741	0.172
Mof_H 	H 	0.6169	0.3236	0.2187	0.173
Mof_H 	H 	0.6485	0.283	0.2221	0.175
Mof_C 	C 	0.3154	0.5287	0.6628	0.075
Mof_H 	H 	0.2915	0.5269	0.6656	0.008
Mof_H 	H 	0.3348	0.5593	0.6858	0.007
Mof_C 	C 	0.2914	0.5261	0.5889	-0.176
Mof_H 	H 	0.3168	0.518	0.5903	0.091
Mof_H 	H 	0.269	0.4976	0.5672	0.085
Mof_C 	C 	0.2626	0.5715	0.5392	-0.044
Mof_H 	H 	0.2848	0.6002	0.5607	0.037
Mof_H 	H 	0.2369	0.5795	0.5372	0.038
Mof_C 	C 	0.24	0.568	0.468	-0.116
Mof_H 	H 	0.214	0.543	0.4438	0.056
Mof_H 	H 	0.2644	0.5555	0.4691	0.043
Mof_C 	C 	0.2205	0.6117	0.4291	-0.035
Mof_H 	H 	0.1849	0.61	0.395	0.038
Mof_H 	H 	0.231	0.6403	0.4596	0.033
Mof_C 	C 	0.2378	0.6198	0.3888	-0.193
Mof_H 	H 	0.2575	0.6503	0.4077	0.076
Mof_H 	H 	0.2084	0.6268	0.3402	0.081
Mof_C 	C 	0.2667	0.5791	0.3887	0.121
Mof_H 	H 	0.3016	0.583	0.4296	-0.011
Mof_H 	H 	0.2609	0.5828	0.3474	-0.016
Mof_C 	C 	0.2502	0.528	0.3891	-0.487
Mof_H 	H 	0.268	0.5024	0.389	0.168
Mof_H 	H 	0.2563	0.5245	0.4303	0.164
Mof_H 	H 	0.2157	0.5243	0.3482	0.175
Mof_C 	C 	0.2513	0.7528	0.8608	0.151
Mof_H 	H 	0.2691	0.7603	0.8499	-0.026
Mof_C 	C 	0.2005	0.7529	0.8084	-0.199
Mof_H 	H 	0.1844	0.7658	0.7645	0.091
Mof_C 	C 	0.1755	0.7354	0.8195	0.122
Mof_C 	C 	0.2009	0.7169	0.8824	-0.191
Mof_H 	H 	0.1857	0.7051	0.896	0.102
Mof_C 	C 	0.25	0.7161	0.9262	0.133
Mof_H 	H 	0.2682	0.6938	0.9639	-0.019
Mof_C 	C 	0.0459	0.7144	0.7253	0.076
Mof_H 	H 	0.0285	0.6988	0.7336	0.008
Mof_C 	C 	0.0966	0.7112	0.7764	-0.102
Mof_H 	H 	0.1131	0.6937	0.8179	0.072
Mof_C 	C 	0.1216	0.7343	0.764	0.025
Mof_C 	C 	0.0965	0.7585	0.7038	-0.103
Mof_H 	H 	0.113	0.7744	0.6943	0.054
Mof_C 	C 	0.0479	0.76	0.6573	0.06
Mof_H 	H 	0.0311	0.7773	0.6156	0.001
Mof_O 	O 	0.43504	0.818	0.1156	-0.464
Mof_O 	O 	0.35608	0.8124	0.0407	-0.486
Mof_O 	O 	0.43348	0.2171	0.5152	-0.5
Mof_O 	O 	0.35425	0.2155	0.4403	-0.471
Mof_O 	O 	0.3431	0.9476	0.2223	-0.216
Mof_O 	O 	0.4455	0.1163	0.3027	-0.195
Mof_O 	O 	0.44509	0.68511	0.0609	-0.458
Mof_O 	O 	0.36552	0.6855	0.977	-0.491
Mof_O 	O 	0.43907	0.28234	0.6526	-0.461
Mof_O 	O 	0.35883	0.2874	0.571	-0.467
Mof_O 	O 	0.4368	0.441	0.96	-0.107
Mof_O 	O 	0.3454	0.4852	0.6915	-0.215
Mof_Zn	Zn	0.3472	0.74784	0.99545	1.219
Mof_Zn	Zn	0.45073	0.75237	0.09909	1.216
Mof_N 	N 	0.2721	0.7434	0.9185	-0.28
Mof_N 	N 	0.02159	0.7379	0.6671	-0.251
Mof_C 	C 	0.8932	0.3341	0.0872	0.429
Mof_C 	C 	0.8928	0.378	0.1174	-0.181
Mof_C 	C 	0.8499	0.3969	0.0939	0.095
Mof_H 	H 	0.8203	0.3831	0.0536	0.01
Mof_C 	C 	0.8487	0.4344	0.1266	-0.167
Mof_H 	H 	0.8189	0.4443	0.1106	0.092
Mof_C 	C 	0.8898	0.4573	0.1812	0.124
Mof_C 	C 	0.9335	0.4427	0.2048	-0.162
Mof_H 	H 	0.9626	0.4588	0.2429	0.088
Mof_C 	C 	0.9338	0.4038	0.1711	0.094
Mof_H 	H 	0.9634	0.3949	0.1858	0.013
Mof_C 	C 	0.8887	0.4982	0.2157	-0.051
Mof_C 	C 	0.8633	0.4921	0.2346	0.127
Mof_C 	C 	0.9178	0.5414	0.2384	-0.114
Mof_H 	H 	0.9362	0.5479	0.2284	0.08
Mof_C 	C 	0.9161	0.5727	0.2765	0.15
Mof_C 	C 	0.8952	0.5709	0.2975	-0.08
Mof_C 	C 	0.8634	0.5278	0.2736	-0.098
Mof_H 	H 	0.8444	0.524	0.2832	0.063
Mof_C 	C 	0.8945	0.608	0.3358	0.152
Mof_C 	C 	0.934	0.6253	0.3919	-0.185
Mof_H 	H 	0.9635	0.6145	0.4074	0.109
Mof_C 	C 	0.9352	0.6616	0.4332	0.097
Mof_H 	H 	0.9644	0.6774	0.4714	0.01
Mof_C 	C 	0.8945	0.6718	0.4159	-0.178
Mof_C 	C 	0.8528	0.6532	0.3562	0.108
Mof_H 	H 	0.8237	0.661	0.3433	0.006
Mof_C 	C 	0.8507	0.6238	0.3134	-0.186
Mof_H 	H 	0.8207	0.6142	0.2698	0.088
Mof_C 	C 	0.8961	0.7041	0.4635	0.44
Mof_C 	C 	0.8134	0.4463	0.2402	0.025
Mof_H 	H 	0.7857	0.4692	0.211	0.015
Mof_H 	H 	0.8334	0.4543	0.289	0.028
Mof_C 	C 	0.7959	0.3872	0.2229	-0.159
Mof_H 	H 	0.8237	0.3649	0.2452	0.089
Mof_H 	H 	0.7717	0.3812	0.1728	0.081
Mof_C 	C 	0.9041	0.1668	0.0065	0.417
Mof_C 	C 	0.9058	0.122	0.9778	-0.155
Mof_C 	C 	0.9495	0.0991	0.0081	0.068
Mof_H 	H 	0.9789	0.1128	0.049	0.02
Mof_C 	C 	0.9508	0.0566	0.9795	-0.132
Mof_H 	H 	0.9797	0.039	0.0018	0.092
Mof_C 	C 	0.9036	0.0416	0.9118	0.097
Mof_C 	C 	0.8618	0.0651	0.8818	-0.15
Mof_H 	H 	0.8323	0.0547	0.8381	0.079
Mof_C 	C 	0.8629	0.1046	0.9157	0.071
Mof_H 	H 	0.8335	0.1199	0.8958	0.018
Mof_C 	C 	0.899	0.994	0.8708	-0.075
Mof_C 	C 	0.8686	0.008	0.7919	-0.092
Mof_H 	H 	0.8521	0.0385	0.7708	0.062
Mof_C 	C 	0.9068	0.9524	0.883	0.141
Mof_C 	C 	0.9193	0.9179	0.859	-0.179
Mof_H 	H 	0.9401	0.8906	0.8854	0.162
Mof_C 	C 	0.9004	0.9268	0.8	0.017
Mof_C 	C 	0.8696	0.9713	0.7601	0.104
Mof_C 	C 	0.9016	0.893	0.7555	0.066
Mof_C 	C 	0.9461	0.8728	0.7815	-0.124
Mof_H 	H 	0.9758	0.8813	0.8261	0.081
Mof_C 	C 	0.945	0.842	0.7425	0.06
Mof_H 	H 	0.9741	0.8283	0.7597	0.029
Mof_C 	C 	0.9001	0.8291	0.6746	-0.134
Mof_C 	C 	0.8589	0.8477	0.6519	0.067
Mof_H 	H 	0.8291	0.8389	0.6075	0.025
Mof_C 	C 	0.8587	0.8789	0.691	-0.122
Mof_H 	H 	0.8291	0.8909	0.6739	0.082
Mof_C 	C 	0.8992	0.7972	0.6294	0.395
Mof_C 	C 	0.9513	0.8882	0.9829	-0.542
Mof_H 	H 	0.9814	0.8901	0.0322	0.184
Mof_H 	H 	0.9266	0.8747	0.9806	0.184
Mof_C 	C 	0.9581	0.8568	0.961	0.614
Mof_H 	H 	0.993	0.8501	0.9929	-0.168
Mof_H 	H 	0.9457	0.867	0.9163	-0.195
Mof_C 	C 	0.9321	0.8109	0.9525	-0.596
Mof_H 	H 	0.9013	0.8199	0.9376	0.188
Mof_H 	H 	0.9252	0.7885	0.9179	0.199
Mof_C 	C 	0.9638	0.7873	0.0187	0.285
Mof_H 	H 	0.9517	0.7959	0.0396	-0.064
Mof_H 	H 	0.9592	0.7511	0.0102	-0.051
Mof_C 	C 	0.0132	0.7956	0.0687	-0.292
Mof_H 	H 	0.0193	0.8161	0.1041	0.105
Mof_H 	H 	0.0198	0.8173	0.0468	0.127
Mof_C 	C 	0.0508	0.7589	0.1057	-0.097
Mof_H 	H 	0.0353	0.7259	0.0886	0.065
Mof_H 	H 	0.0694	0.7633	0.0938	0.061
Mof_C 	C 	0.0843	0.7582	0.1791	0.131
Mof_H 	H 	0.0959	0.7235	0.1927	-0.004
Mof_H 	H 	0.0647	0.7637	0.1892	-0.008
Mof_C 	C 	0.1264	0.7886	0.2273	-0.521
Mof_H 	H 	0.1424	0.7799	0.2741	0.171
Mof_H 	H 	0.1169	0.8236	0.2187	0.171
Mof_H 	H 	0.1485	0.783	0.2221	0.174
Mof_C 	C 	0.8154	0.0287	0.6628	0.075
Mof_H 	H 	0.7915	0.0269	0.6656	0.008
Mof_H 	H 	0.8348	0.0593	0.6858	0.007
Mof_C 	C 	0.7914	0.0261	0.5889	-0.176
Mof_H 	H 	0.8168	0.018	0.5903	0.091
Mof_H 	H 	0.769	0.9976	0.5672	0.085
Mof_C 	C 	0.7626	0.0715	0.5392	-0.044
Mof_H 	H 	0.7848	0.1002	0.5607	0.038
Mof_H 	H 	0.7369	0.0795	0.5372	0.038
Mof_C 	C 	0.74	0.068	0.468	-0.116
Mof_H 	H 	0.714	0.043	0.4438	0.056
Mof_H 	H 	0.7644	0.0555	0.4691	0.043
Mof_C 	C 	0.7205	0.1117	0.4291	-0.035
Mof_H 	H 	0.6849	0.11	0.395	0.038
Mof_H 	H 	0.731	0.1403	0.4596	0.033
Mof_C 	C 	0.7378	0.1198	0.3888	-0.193
Mof_H 	H 	0.7575	0.1503	0.4077	0.076
Mof_H 	H 	0.7084	0.1268	0.3402	0.081
Mof_C 	C 	0.7667	0.0791	0.3887	0.121
Mof_H 	H 	0.8016	0.083	0.4296	-0.011
Mof_H 	H 	0.7609	0.0828	0.3474	-0.016
Mof_C 	C 	0.7502	0.028	0.3891	-0.487
Mof_H 	H 	0.768	0.0024	0.389	0.167
Mof_H 	H 	0.7563	0.0245	0.4303	0.164
Mof_H 	H 	0.7157	0.0243	0.3482	0.175
Mof_C 	C 	0.7513	0.2528	0.8608	0.151
Mof_H 	H 	0.7691	0.2603	0.8499	-0.026
Mof_C 	C 	0.7005	0.2529	0.8084	-0.199
Mof_H 	H 	0.6844	0.2658	0.7645	0.091
Mof_C 	C 	0.6755	0.2354	0.8195	0.122
Mof_C 	C 	0.7009	0.2169	0.8824	-0.191
Mof_H 	H 	0.6857	0.2051	0.896	0.102
Mof_C 	C 	0.75	0.2161	0.9262	0.133
Mof_H 	H 	0.7682	0.1938	0.9639	-0.019
Mof_C 	C 	0.5459	0.2144	0.7253	0.076
Mof_H 	H 	0.5285	0.1988	0.7336	0.008
Mof_C 	C 	0.5966	0.2112	0.7764	-0.102
Mof_H 	H 	0.6131	0.1937	0.8179	0.072
Mof_C 	C 	0.6216	0.2343	0.764	0.025
Mof_C 	C 	0.5965	0.2585	0.7038	-0.103
Mof_H 	H 	0.613	0.2744	0.6943	0.054
Mof_C 	C 	0.5479	0.26	0.6573	0.06
Mof_H 	H 	0.5311	0.2773	0.6156	0.001
Mof_O 	O 	0.93504	0.318	0.1156	-0.464
Mof_O 	O 	0.85608	0.3124	0.0407	-0.486
Mof_O 	O 	0.93348	0.7171	0.5152	-0.5
Mof_O 	O 	0.85425	0.7155	0.4403	-0.471
Mof_O 	O 	0.8431	0.4476	0.2223	-0.216
Mof_O 	O 	0.9455	0.6163	0.3027	-0.195
Mof_O 	O 	0.94509	0.18511	0.0609	-0.458
Mof_O 	O 	0.86552	0.1855	0.977	-0.49
Mof_O 	O 	0.93907	0.78234	0.6526	-0.461
Mof_O 	O 	0.85883	0.7874	0.571	-0.467
Mof_O 	O 	0.9368	0.941	0.96	-0.106
Mof_O 	O 	0.8454	0.9852	0.6915	-0.215
Mof_Zn	Zn	0.8472	0.24784	0.99545	1.219
Mof_Zn	Zn	0.95073	0.25237	0.09909	1.216
Mof_N 	N 	0.7721	0.2434	0.9185	-0.28
Mof_N 	N 	0.52159	0.2379	0.6671	-0.251
Mof_C 	C 	0.3932	0.1659	0.5872	0.429
Mof_C 	C 	0.3928	0.122	0.6174	-0.181
Mof_C 	C 	0.3499	0.1031	0.5939	0.095
Mof_H 	H 	0.3203	0.1169	0.5536	0.01
Mof_C 	C 	0.3487	0.0656	0.6266	-0.167
Mof_H 	H 	0.3189	0.0557	0.6106	0.092
Mof_C 	C 	0.3898	0.0427	0.6812	0.124
Mof_C 	C 	0.4335	0.0573	0.7048	-0.162
Mof_H 	H 	0.4626	0.0412	0.7429	0.088
Mof_C 	C 	0.4338	0.0962	0.6711	0.094
Mof_H 	H 	0.4634	0.1051	0.6858	0.013
Mof_C 	C 	0.3887	0.0018	0.7157	-0.051
Mof_C 	C 	0.3633	0.0079	0.7346	0.127
Mof_C 	C 	0.4178	0.9586	0.7384	-0.115
Mof_H 	H 	0.4362	0.9521	0.7284	0.08
Mof_C 	C 	0.4161	0.9273	0.7765	0.15
Mof_C 	C 	0.3952	0.9291	0.7975	-0.08
Mof_C 	C 	0.3634	0.9722	0.7736	-0.098
Mof_H 	H 	0.3444	0.976	0.7832	0.063
Mof_C 	C 	0.3945	0.892	0.8358	0.152
Mof_C 	C 	0.434	0.8747	0.8919	-0.185
Mof_H 	H 	0.4635	0.8855	0.9074	0.109
Mof_C 	C 	0.4352	0.8384	0.9332	0.097
Mof_H 	H 	0.4644	0.8226	0.9714	0.01
Mof_C 	C 	0.3945	0.8282	0.9159	-0.178
Mof_C 	C 	0.3528	0.8468	0.8562	0.108
Mof_H 	H 	0.3237	0.839	0.8433	0.006
Mof_C 	C 	0.3507	0.8762	0.8134	-0.186
Mof_H 	H 	0.3207	0.8858	0.7698	0.088
Mof_C 	C 	0.3961	0.7959	0.9635	0.439
Mof_C 	C 	0.3134	0.0537	0.7402	0.025
Mof_H 	H 	0.2857	0.0308	0.711	0.015
Mof_H 	H 	0.3334	0.0457	0.789	0.028
Mof_C 	C 	0.2959	0.1128	0.7229	-0.159
Mof_H 	H 	0.3237	0.1351	0.7452	0.089
Mof_H 	H 	0.2717	0.1188	0.6728	0.081
Mof_C 	C 	0.4041	0.3332	0.5065	0.419
Mof_C 	C 	0.4058	0.378	0.4778	-0.157
Mof_C 	C 	0.4495	0.4009	0.5081	0.071
Mof_H 	H 	0.4789	0.3872	0.549	0.019
Mof_C 	C 	0.4508	0.4434	0.4795	-0.135
Mof_H 	H 	0.4797	0.461	0.5018	0.093
Mof_C 	C 	0.4036	0.4584	0.4118	0.098
Mof_C 	C 	0.3618	0.4349	0.3818	-0.151
Mof_H 	H 	0.3323	0.4453	0.3381	0.079
Mof_C 	C 	0.3629	0.3954	0.4157	0.073
Mof_H 	H 	0.3335	0.3801	0.3958	0.017
Mof_C 	C 	0.399	0.506	0.3708	-0.075
Mof_C 	C 	0.3686	0.492	0.2919	-0.092
Mof_H 	H 	0.3521	0.4615	0.2708	0.062
Mof_C 	C 	0.4068	0.5476	0.383	0.141
Mof_C 	C 	0.4193	0.5821	0.359	-0.179
Mof_H 	H 	0.4401	0.6094	0.3854	0.161
Mof_C 	C 	0.4004	0.5732	0.3	0.017
Mof_C 	C 	0.3696	0.5287	0.2601	0.104
Mof_C 	C 	0.4016	0.607	0.2555	0.066
Mof_C 	C 	0.4461	0.6272	0.2815	-0.124
Mof_H 	H 	0.4758	0.6187	0.3261	0.081
Mof_C 	C 	0.445	0.658	0.2425	0.06
Mof_H 	H 	0.4741	0.6717	0.2597	0.029
Mof_C 	C 	0.4001	0.6709	0.1746	-0.134
Mof_C 	C 	0.3589	0.6523	0.1519	0.067
Mof_H 	H 	0.3291	0.6611	0.1075	0.025
Mof_C 	C 	0.3587	0.6211	0.191	-0.122
Mof_H 	H 	0.3291	0.6091	0.1739	0.082
Mof_C 	C 	0.3992	0.7028	0.1294	0.395
Mof_C 	C 	0.4513	0.6118	0.4829	-0.538
Mof_H 	H 	0.4814	0.6099	0.5322	0.184
Mof_H 	H 	0.4266	0.6253	0.4806	0.183
Mof_C 	C 	0.4581	0.6432	0.461	0.609
Mof_H 	H 	0.493	0.6499	0.4929	-0.167
Mof_H 	H 	0.4457	0.633	0.4163	-0.193
Mof_C 	C 	0.4321	0.6891	0.4525	-0.592
Mof_H 	H 	0.4013	0.6801	0.4376	0.186
Mof_H 	H 	0.4252	0.7115	0.4179	0.198
Mof_C 	C 	0.4638	0.7127	0.5187	0.281
Mof_H 	H 	0.4517	0.7041	0.5396	-0.063
Mof_H 	H 	0.4592	0.7489	0.5102	-0.049
Mof_C 	C 	0.5132	0.7044	0.5687	-0.288
Mof_H 	H 	0.5193	0.6839	0.6041	0.103
Mof_H 	H 	0.5198	0.6827	0.5468	0.125
Mof_C 	C 	0.5508	0.7411	0.6057	-0.102
Mof_H 	H 	0.5353	0.7741	0.5886	0.066
Mof_H 	H 	0.5694	0.7367	0.5938	0.062
Mof_C 	C 	0.5843	0.7418	0.6791	0.136
Mof_H 	H 	0.5959	0.7765	0.6927	-0.006
Mof_H 	H 	0.5647	0.7363	0.6892	-0.009
Mof_C 	C 	0.6264	0.7114	0.7273	-0.525
Mof_H 	H 	0.6424	0.7201	0.7741	0.172
Mof_H 	H 	0.6169	0.6764	0.7187	0.173
Mof_H 	H 	0.6485	0.717	0.7221	0.176
Mof_C 	C 	0.3154	0.4713	0.1628	0.075
Mof_H 	H 	0.2915	0.4731	0.1656	0.008
Mof_H 	H 	0.3348	0.4407	0.1858	0.007
Mof_C 	C 	0.2914	0.4739	0.0889	-0.176
Mof_H 	H 	0.3168	0.482	0.0903	0.091
Mof_H 	H 	0.269	0.5024	0.0672	0.085
Mof_C 	C 	0.2626	0.4285	0.0392	-0.043
Mof_H 	H 	0.2848	0.3998	0.0607	0.037
Mof_H 	H 	0.2369	0.4205	0.0372	0.038
Mof_C 	C 	0.24	0.432	0.968	-0.117
Mof_H 	H 	0.214	0.457	0.9438	0.056
Mof_H 	H 	0.2644	0.4445	0.9691	0.043
Mof_C 	C 	0.2205	0.3883	0.9291	-0.034
Mof_H 	H 	0.1849	0.39	0.895	0.038
Mof_H 	H 	0.231	0.3597	0.9596	0.033
Mof_C 	C 	0.2378	0.3802	0.8888	-0.194
Mof_H 	H 	0.2575	0.3497	0.9077	0.076
Mof_H 	H 	0.2084	0.3732	0.8402	0.081
Mof_C 	C 	0.2667	0.4209	0.8887	0.121
Mof_H 	H 	0.3016	0.417	0.9296	-0.011
Mof_H 	H 	0.2609	0.4172	0.8474	-0.016
Mof_C 	C 	0.2502	0.472	0.8891	-0.487
Mof_H 	H 	0.268	0.4976	0.889	0.168
Mof_H 	H 	0.2563	0.4755	0.9303	0.164
Mof_H 	H 	0.2157	0.4757	0.8482	0.175
Mof_C 	C 	0.2513	0.2472	0.3608	0.151
Mof_H 	H 	0.2691	0.2397	0.3499	-0.026
Mof_C 	C 	0.2005	0.2471	0.3084	-0.199
Mof_H 	H 	0.1844	0.2342	0.2645	0.091
Mof_C 	C 	0.1755	0.2646	0.3195	0.122
Mof_C 	C 	0.2009	0.2831	0.3824	-0.191
Mof_H 	H 	0.1857	0.2949	0.396	0.102
Mof_C 	C 	0.25	0.2839	0.4262	0.133
Mof_H 	H 	0.2682	0.3062	0.4639	-0.019
Mof_C 	C 	0.0459	0.2856	0.2253	0.076
Mof_H 	H 	0.0285	0.3012	0.2336	0.008
Mof_C 	C 	0.0966	0.2888	0.2764	-0.102
Mof_H 	H 	0.1131	0.3063	0.3179	0.072
Mof_C 	C 	0.1216	0.2657	0.264	0.025
Mof_C 	C 	0.0965	0.2415	0.2038	-0.103
Mof_H 	H 	0.113	0.2256	0.1943	0.053
Mof_C 	C 	0.0479	0.24	0.1573	0.06
Mof_H 	H 	0.0311	0.2227	0.1156	0.001
Mof_O 	O 	0.43504	0.182	0.6156	-0.464
Mof_O 	O 	0.35608	0.1876	0.5407	-0.486
Mof_O 	O 	0.43348	0.7829	0.0152	-0.5
Mof_O 	O 	0.35425	0.7845	0.9403	-0.471
Mof_O 	O 	0.3431	0.0524	0.7223	-0.216
Mof_O 	O 	0.4455	0.8837	0.8027	-0.195
Mof_O 	O 	0.44509	0.31489	0.5609	-0.458
Mof_O 	O 	0.36552	0.3145	0.477	-0.491
Mof_O 	O 	0.43907	0.71766	0.1526	-0.461
Mof_O 	O 	0.35883	0.7126	0.071	-0.467
Mof_O 	O 	0.4368	0.559	0.46	-0.107
Mof_O 	O 	0.3454	0.5148	0.1915	-0.215
Mof_Zn	Zn	0.3472	0.25216	0.49545	1.219
Mof_Zn	Zn	0.45073	0.24763	0.59909	1.216
Mof_N 	N 	0.2721	0.2566	0.4185	-0.28
Mof_N 	N 	0.02159	0.2621	0.1671	-0.251
Mof_C 	C 	0.8932	0.6659	0.5872	0.429
Mof_C 	C 	0.8928	0.622	0.6174	-0.181
Mof_C 	C 	0.8499	0.6031	0.5939	0.095
Mof_H 	H 	0.8203	0.6169	0.5536	0.01
Mof_C 	C 	0.8487	0.5656	0.6266	-0.167
Mof_H 	H 	0.8189	0.5557	0.6106	0.092
Mof_C 	C 	0.8898	0.5427	0.6812	0.124
Mof_C 	C 	0.9335	0.5573	0.7048	-0.162
Mof_H 	H 	0.9626	0.5412	0.7429	0.088
Mof_C 	C 	0.9338	0.5962	0.6711	0.094
Mof_H 	H 	0.9634	0.6051	0.6858	0.014
Mof_C 	C 	0.8887	0.5018	0.7157	-0.051
Mof_C 	C 	0.8633	0.5079	0.7346	0.127
Mof_C 	C 	0.9178	0.4586	0.7384	-0.114
Mof_H 	H 	0.9362	0.4521	0.7284	0.08
Mof_C 	C 	0.9161	0.4273	0.7765	0.15
Mof_C 	C 	0.8952	0.4291	0.7975	-0.08
Mof_C 	C 	0.8634	0.4722	0.7736	-0.098
Mof_H 	H 	0.8444	0.476	0.7832	0.063
Mof_C 	C 	0.8945	0.392	0.8358	0.152
Mof_C 	C 	0.934	0.3747	0.8919	-0.185
Mof_H 	H 	0.9635	0.3855	0.9074	0.109
Mof_C 	C 	0.9352	0.3384	0.9332	0.097
Mof_H 	H 	0.9644	0.3226	0.9714	0.01
Mof_C 	C 	0.8945	0.3282	0.9159	-0.178
Mof_C 	C 	0.8528	0.3468	0.8562	0.108
Mof_H 	H 	0.8237	0.339	0.8433	0.006
Mof_C 	C 	0.8507	0.3762	0.8134	-0.186
Mof_H 	H 	0.8207	0.3858	0.7698	0.088
Mof_C 	C 	0.8961	0.2959	0.9635	0.44
Mof_C 	C 	0.8134	0.5537	0.7402	0.025
Mof_H 	H 	0.7857	0.5308	0.711	0.015
Mof_H 	H 	0.8334	0.5457	0.789	0.028
Mof_C 	C 	0.7959	0.6128	0.7229	-0.159
Mof_H 	H 	0.8237	0.6351	0.7452	0.089
Mof_H 	H 	0.7717	0.6188	0.6728	0.081
Mof_C 	C 	0.9041	0.8332	0.5065	0.419
Mof_C 	C 	0.9058	0.878	0.4778	-0.157
Mof_C 	C 	0.9495	0.9009	0.5081	0.071
Mof_H 	H 	0.9789	0.8872	0.549	0.019
Mof_C 	C 	0.9508	0.9434	0.4795	-0.135
Mof_H 	H 	0.9797	0.961	0.5018	0.093
Mof_C 	C 	0.9036	0.9584	0.4118	0.098
Mof_C 	C 	0.8618	0.9349	0.3818	-0.151
Mof_H 	H 	0.8323	0.9453	0.3381	0.079
Mof_C 	C 	0.8629	0.8954	0.4157	0.073
Mof_H 	H 	0.8335	0.8801	0.3958	0.017
Mof_C 	C 	0.899	0.006	0.3708	-0.075
Mof_C 	C 	0.8686	0.992	0.2919	-0.092
Mof_H 	H 	0.8521	0.9615	0.2708	0.062
Mof_C 	C 	0.9068	0.0476	0.383	0.141
Mof_C 	C 	0.9193	0.0821	0.359	-0.179
Mof_H 	H 	0.9401	0.1094	0.3854	0.161
Mof_C 	C 	0.9004	0.0732	0.3	0.017
Mof_C 	C 	0.8696	0.0287	0.2601	0.104
Mof_C 	C 	0.9016	0.107	0.2555	0.066
Mof_C 	C 	0.9461	0.1272	0.2815	-0.124
Mof_H 	H 	0.9758	0.1187	0.3261	0.081
Mof_C 	C 	0.945	0.158	0.2425	0.06
Mof_H 	H 	0.9741	0.1717	0.2597	0.028
Mof_C 	C 	0.9001	0.1709	0.1746	-0.135
Mof_C 	C 	0.8589	0.1523	0.1519	0.067
Mof_H 	H 	0.8291	0.1611	0.1075	0.025
Mof_C 	C 	0.8587	0.1211	0.191	-0.122
Mof_H 	H 	0.8291	0.1091	0.1739	0.082
Mof_C 	C 	0.8992	0.2028	0.1294	0.395
Mof_C 	C 	0.9513	0.1118	0.4829	-0.538
Mof_H 	H 	0.9814	0.1099	0.5322	0.184
Mof_H 	H 	0.9266	0.1253	0.4806	0.183
Mof_C 	C 	0.9581	0.1432	0.461	0.609
Mof_H 	H 	0.993	0.1499	0.4929	-0.167
Mof_H 	H 	0.9457	0.133	0.4163	-0.193
Mof_C 	C 	0.9321	0.1891	0.4525	-0.592
Mof_H 	H 	0.9013	0.1801	0.4376	0.186
Mof_H 	H 	0.9252	0.2115	0.4179	0.198
Mof_C 	C 	0.9638	0.2127	0.5187	0.281
Mof_H 	H 	0.9517	0.2041	0.5396	-0.063
Mof_H 	H 	0.9592	0.2489	0.5102	-0.049
Mof_C 	C 	0.0132	0.2044	0.5687	-0.288
Mof_H 	H 	0.0193	0.1839	0.6041	0.103
Mof_H 	H 	0.0198	0.1827	0.5468	0.125
Mof_C 	C 	0.0508	0.2411	0.6057	-0.102
Mof_H 	H 	0.0353	0.2741	0.5886	0.066
Mof_H 	H 	0.0694	0.2367	0.5938	0.062
Mof_C 	C 	0.0843	0.2418	0.6791	0.136
Mof_H 	H 	0.0959	0.2765	0.6927	-0.006
Mof_H 	H 	0.0647	0.2363	0.6892	-0.01
Mof_C 	C 	0.1264	0.2114	0.7273	-0.525
Mof_H 	H 	0.1424	0.2201	0.7741	0.172
Mof_H 	H 	0.1169	0.1764	0.7187	0.173
Mof_H 	H 	0.1485	0.217	0.7221	0.175
Mof_C 	C 	0.8154	0.9713	0.1628	0.075
Mof_H 	H 	0.7915	0.9731	0.1656	0.008
Mof_H 	H 	0.8348	0.9407	0.1858	0.007
Mof_C 	C 	0.7914	0.9739	0.0889	-0.176
Mof_H 	H 	0.8168	0.982	0.0903	0.09
Mof_H 	H 	0.769	0.0024	0.0672	0.085
Mof_C 	C 	0.7626	0.9285	0.0392	-0.044
Mof_H 	H 	0.7848	0.8998	0.0607	0.038
Mof_H 	H 	0.7369	0.9205	0.0372	0.038
Mof_C 	C 	0.74	0.932	0.968	-0.115
Mof_H 	H 	0.714	0.957	0.9438	0.055
Mof_H 	H 	0.7644	0.9445	0.9691	0.043
Mof_C 	C 	0.7205	0.8883	0.9291	-0.035
Mof_H 	H 	0.6849	0.89	0.895	0.038
Mof_H 	H 	0.731	0.8597	0.9596	0.033
Mof_C 	C 	0.7378	0.8802	0.8888	-0.193
Mof_H 	H 	0.7575	0.8497	0.9077	0.076
Mof_H 	H 	0.7084	0.8732	0.8402	0.081
Mof_C 	C 	0.7667	0.9209	0.8887	0.121
Mof_H 	H 	0.8016	0.917	0.9296	-0.011
Mof_H 	H 	0.7609	0.9172	0.8474	-0.016
Mof_C 	C 	0.7502	0.972	0.8891	-0.487
Mof_H 	H 	0.768	0.9976	0.889	0.167
Mof_H 	H 	0.7563	0.9755	0.9303	0.164
Mof_H 	H 	0.7157	0.9757	0.8482	0.175
Mof_C 	C 	0.7513	0.7472	0.3608	0.151
Mof_H 	H 	0.7691	0.7397	0.3499	-0.026
Mof_C 	C 	0.7005	0.7471	0.3084	-0.199
Mof_H 	H 	0.6844	0.7342	0.2645	0.091
Mof_C 	C 	0.6755	0.7646	0.3195	0.122
Mof_C 	C 	0.7009	0.7831	0.3824	-0.191
Mof_H 	H 	0.6857	0.7949	0.396	0.102
Mof_C 	C 	0.75	0.7839	0.4262	0.133
Mof_H 	H 	0.7682	0.8062	0.4639	-0.019
Mof_C 	C 	0.5459	0.7856	0.2253	0.076
Mof_H 	H 	0.5285	0.8012	0.2336	0.008
Mof_C 	C 	0.5966	0.7888	0.2764	-0.102
Mof_H 	H 	0.6131	0.8063	0.3179	0.072
Mof_C 	C 	0.6216	0.7657	0.264	0.025
Mof_C 	C 	0.5965	0.7415	0.2038	-0.103
Mof_H 	H 	0.613	0.7256	0.1943	0.054
Mof_C 	C 	0.5479	0.74	0.1573	0.06
Mof_H 	H 	0.5311	0.7227	0.1156	0.001
Mof_O 	O 	0.93504	0.682	0.6156	-0.464
Mof_O 	O 	0.85608	0.6876	0.5407	-0.486
Mof_O 	O 	0.93348	0.2829	0.0152	-0.501
Mof_O 	O 	0.85425	0.2845	0.9403	-0.471
Mof_O 	O 	0.8431	0.5524	0.7223	-0.216
Mof_O 	O 	0.9455	0.3837	0.8027	-0.195
Mof_O 	O 	0.94509	0.81489	0.5609	-0.458
Mof_O 	O 	0.86552	0.8145	0.477	-0.491
Mof_O 	O 	0.93907	0.21766	0.1526	-0.461
Mof_O 	O 	0.85883	0.2126	0.071	-0.467
Mof_O 	O 	0.9368	0.059	0.46	-0.107
Mof_O 	O 	0.8454	0.0148	0.1915	-0.215
Mof_Zn	Zn	0.8472	0.75216	0.49545	1.219
Mof_Zn	Zn	0.95073	0.74763	0.59909	1.216
Mof_N 	N 	0.7721	0.7566	0.4185	-0.28
Mof_N 	N 	0.52159	0.7621	0.1671	-0.251
_end
