# CIF file generated by openbabel 3.1.0, see https://openbabel.org
data_I
_chemical_name_common 'image0'
_cell_length_a 9.6445
_cell_length_b 14.747
_cell_length_c 12.31
_cell_angle_alpha 90
_cell_angle_beta 108.457
_cell_angle_gamma 90
_space_group_name_H-M_alt 'P 1'
_space_group_name_Hall 'P 1'
loop_
    _symmetry_equiv_pos_as_xyz
    x,y,z
loop_
    _atom_site_label
    _atom_site_type_symbol
    _atom_site_fract_x
    _atom_site_fract_y
    _atom_site_fract_z
    _atom_site_occupancy
    Fe1      Fe       0.94516    0.05297    0.33709    1.000
    Fe2      Fe       0.84090    0.21031    0.10724    1.000
    Cl1      Cl       0.96560    0.94904    0.20840    1.000
    Cl2      Cl       0.99470    0.31512    0.21630    1.000
    O1       O        0.82150    0.14030    0.23370    1.000
    H1       H        0.73380    0.15070    0.24810    1.000
    O2       O        0.96720    0.14690    0.47200    1.000
    O3       O        0.14390    0.11150    0.34950    1.000
    O4       O        0.14000    0.23420    0.58920    1.000
    O5       O        0.30980    0.20790    0.45890    1.000
    O6       O        0.72910    0.88780    0.48850    1.000
    O7       O        0.01070    0.85450    0.57700    1.000
    O8       O        0.05900    0.96590    0.46970    1.000
    O9       O        0.77290    0.99800    0.37870    1.000
    C1       C        0.09070    0.18420    0.50440    1.000
    C2       C        0.19100    0.16670    0.43120    1.000
    C3       C        0.81130    0.93700    0.45270    1.000
    C4       C        0.97330    0.91800    0.50410    1.000
    Fe3      Fe       0.44516    0.55297    0.33709    1.000
    Fe4      Fe       0.34090    0.71031    0.10724    1.000
    Cl3      Cl       0.46560    0.44904    0.20840    1.000
    Cl4      Cl       0.49470    0.81512    0.21630    1.000
    O10      O        0.32150    0.64030    0.23370    1.000
    H2       H        0.23380    0.65070    0.24810    1.000
    O11      O        0.46720    0.64690    0.47200    1.000
    O12      O        0.64390    0.61150    0.34950    1.000
    O13      O        0.64000    0.73420    0.58920    1.000
    O14      O        0.80980    0.70790    0.45890    1.000
    O15      O        0.22910    0.38780    0.48850    1.000
    O16      O        0.51070    0.35450    0.57700    1.000
    O17      O        0.55900    0.46590    0.46970    1.000
    O18      O        0.27290    0.49800    0.37870    1.000
    C5       C        0.59070    0.68420    0.50440    1.000
    C6       C        0.69100    0.66670    0.43120    1.000
    C7       C        0.31130    0.43700    0.45270    1.000
    C8       C        0.47330    0.41800    0.50410    1.000
    Fe5      Fe       0.94516    0.94703    0.83709    1.000
    Fe6      Fe       0.84090    0.78969    0.60724    1.000
    Cl5      Cl       0.96560    0.05096    0.70840    1.000
    Cl6      Cl       0.99470    0.68488    0.71630    1.000
    O19      O        0.82150    0.85970    0.73370    1.000
    H3       H        0.73380    0.84930    0.74810    1.000
    O20      O        0.96720    0.85310    0.97200    1.000
    O21      O        0.14390    0.88850    0.84950    1.000
    O22      O        0.14000    0.76580    0.08920    1.000
    O23      O        0.30980    0.79210    0.95890    1.000
    O24      O        0.72910    0.11220    0.98850    1.000
    O25      O        0.01070    0.14550    0.07700    1.000
    O26      O        0.05900    0.03410    0.96970    1.000
    O27      O        0.77290    0.00200    0.87870    1.000
    C9       C        0.09070    0.81580    0.00440    1.000
    C10      C        0.19100    0.83330    0.93120    1.000
    C11      C        0.81130    0.06300    0.95270    1.000
    C12      C        0.97330    0.08200    0.00410    1.000
    Fe7      Fe       0.44516    0.44703    0.83709    1.000
    Fe8      Fe       0.34090    0.28969    0.60724    1.000
    Cl7      Cl       0.46560    0.55096    0.70840    1.000
    Cl8      Cl       0.49470    0.18488    0.71630    1.000
    O28      O        0.32150    0.35970    0.73370    1.000
    H4       H        0.23380    0.34930    0.74810    1.000
    O29      O        0.46720    0.35310    0.97200    1.000
    O30      O        0.64390    0.38850    0.84950    1.000
    O31      O        0.64000    0.26580    0.08920    1.000
    O32      O        0.80980    0.29210    0.95890    1.000
    O33      O        0.22910    0.61220    0.98850    1.000
    O34      O        0.51070    0.64550    0.07700    1.000
    O35      O        0.55900    0.53410    0.96970    1.000
    O36      O        0.27290    0.50200    0.87870    1.000
    C13      C        0.59070    0.31580    0.00440    1.000
    C14      C        0.69100    0.33330    0.93120    1.000
    C15      C        0.31130    0.56300    0.95270    1.000
    C16      C        0.47330    0.58200    0.00410    1.000
