# CIF file generated by openbabel 3.1.0, see https://openbabel.org
data_I
_chemical_name_common 'SABVUN_clean_h_min'
_cell_length_a 13.217
_cell_length_b 22.0432
_cell_length_c 22.0432
_cell_angle_alpha 71.0797
_cell_angle_beta 72.5547
_cell_angle_gamma 72.5545
_space_group_name_H-M_alt 'P 1'
_space_group_name_Hall 'P 1'
loop_
    _symmetry_equiv_pos_as_xyz
    x,y,z
loop_
    _atom_site_label
    _atom_site_type_symbol
    _atom_site_fract_x
    _atom_site_fract_y
    _atom_site_fract_z
    _atom_site_occupancy
    Al1      Al       0.25322    0.25145    0.00027    1.000
    Al2      Al       0.00378    0.25094    0.00003    1.000
    C3       C        0.07535    0.03414    0.00276    1.000
    C4       C        0.17982    0.24703    0.21771    1.000
    C5       C        0.14468    0.25136    0.28333    1.000
    C6       C        0.11105    0.46926    0.49625    1.000
    C7       C        0.42895    0.46914    0.49632    1.000
    C8       C        0.32696    0.25148    0.28334    1.000
    C9       C        0.36201    0.24691    0.21777    1.000
    C10      C        0.39317    0.03422    0.00264    1.000
    C11      C        0.46594    0.06789    0.00578    1.000
    C12      C        0.43017    0.13877    0.00768    1.000
    C13      C        0.28901    0.24509    0.18362    1.000
    C14      C        0.32477    0.24490    0.11226    1.000
    C15      C        0.21784    0.25334    0.31743    1.000
    C16      C        0.18174    0.25495    0.38843    1.000
    C17      C        0.03872    0.43535    0.49311    1.000
    C18      C        0.07594    0.36404    0.49194    1.000
    O19      O        0.32980    0.16825    0.00764    1.000
    O20      O        0.42520    0.24529    0.08281    1.000
    O21      O        0.25270    0.25543    0.41765    1.000
    O22      O        0.00484    0.33434    0.49239    1.000
    O23      O        0.17642    0.33491    0.49289    1.000
    O24      O        0.08135    0.25454    0.41757    1.000
    O25      O        0.25293    0.24589    0.08303    1.000
    O26      O        0.00232    0.16795    0.00653    1.000
    O27      O        0.37785    0.28006    0.47279    1.000
    O28      O        0.12679    0.22507    0.02958    1.000
    H29      H        0.13389    0.05786    0.00544    1.000
    H30      H        0.12093    0.24605    0.19334    1.000
    H31      H        0.05970    0.25368    0.30700    1.000
    H32      H        0.19545    0.44514    0.49480    1.000
    H33      H        0.36993    0.44501    0.49508    1.000
    H34      H        0.38539    0.25409    0.30715    1.000
    H35      H        0.44627    0.24578    0.19336    1.000
    H36      H        0.30834    0.05820    0.00512    1.000
    H37      H        0.37660    0.31503    0.44061    1.000
    H38      H        0.12403    0.19444    0.06579    1.000
    Al39     Al       0.75322    0.25145    0.00027    1.000
    Al40     Al       0.50378    0.25094    0.00003    1.000
    C41      C        0.57535    0.03414    0.00276    1.000
    C42      C        0.67982    0.24703    0.21771    1.000
    C43      C        0.64468    0.25136    0.28333    1.000
    C44      C        0.61105    0.46926    0.49625    1.000
    C45      C        0.92895    0.46914    0.49632    1.000
    C46      C        0.82696    0.25148    0.28334    1.000
    C47      C        0.86201    0.24691    0.21777    1.000
    C48      C        0.89317    0.03422    0.00264    1.000
    C49      C        0.96594    0.06789    0.00578    1.000
    C50      C        0.93017    0.13877    0.00768    1.000
    C51      C        0.78901    0.24509    0.18362    1.000
    C52      C        0.82477    0.24490    0.11226    1.000
    C53      C        0.71784    0.25334    0.31743    1.000
    C54      C        0.68174    0.25495    0.38843    1.000
    C55      C        0.53872    0.43535    0.49311    1.000
    C56      C        0.57594    0.36404    0.49194    1.000
    O57      O        0.82980    0.16825    0.00764    1.000
    O58      O        0.92520    0.24529    0.08281    1.000
    O59      O        0.75270    0.25543    0.41765    1.000
    O60      O        0.50484    0.33434    0.49239    1.000
    O61      O        0.67642    0.33491    0.49289    1.000
    O62      O        0.58135    0.25454    0.41757    1.000
    O63      O        0.75293    0.24589    0.08303    1.000
    O64      O        0.50232    0.16795    0.00653    1.000
    O65      O        0.87785    0.28006    0.47279    1.000
    O66      O        0.62679    0.22507    0.02958    1.000
    H67      H        0.63389    0.05786    0.00544    1.000
    H68      H        0.62093    0.24605    0.19334    1.000
    H69      H        0.55970    0.25368    0.30700    1.000
    H70      H        0.69545    0.44514    0.49480    1.000
    H71      H        0.86993    0.44501    0.49508    1.000
    H72      H        0.88539    0.25409    0.30715    1.000
    H73      H        0.94627    0.24578    0.19336    1.000
    H74      H        0.80834    0.05820    0.00512    1.000
    H75      H        0.87660    0.31503    0.44061    1.000
    H76      H        0.62403    0.19444    0.06579    1.000
    Al77     Al       0.25322    0.75145    0.00027    1.000
    Al78     Al       0.00378    0.75094    0.00003    1.000
    C79      C        0.07535    0.53414    0.00276    1.000
    C80      C        0.17982    0.74703    0.21771    1.000
    C81      C        0.14468    0.75136    0.28333    1.000
    C82      C        0.11105    0.96926    0.49625    1.000
    C83      C        0.42895    0.96914    0.49632    1.000
    C84      C        0.32696    0.75148    0.28334    1.000
    C85      C        0.36201    0.74691    0.21777    1.000
    C86      C        0.39317    0.53422    0.00264    1.000
    C87      C        0.46594    0.56789    0.00578    1.000
    C88      C        0.43017    0.63877    0.00768    1.000
    C89      C        0.28901    0.74509    0.18362    1.000
    C90      C        0.32477    0.74490    0.11226    1.000
    C91      C        0.21784    0.75334    0.31743    1.000
    C92      C        0.18174    0.75495    0.38843    1.000
    C93      C        0.03872    0.93535    0.49311    1.000
    C94      C        0.07594    0.86404    0.49194    1.000
    O95      O        0.32980    0.66825    0.00764    1.000
    O96      O        0.42520    0.74529    0.08281    1.000
    O97      O        0.25270    0.75543    0.41765    1.000
    O98      O        0.00484    0.83434    0.49239    1.000
    O99      O        0.17642    0.83491    0.49289    1.000
    O100     O        0.08135    0.75454    0.41757    1.000
    O101     O        0.25293    0.74589    0.08303    1.000
    O102     O        0.00232    0.66795    0.00653    1.000
    O103     O        0.37785    0.78006    0.47279    1.000
    O104     O        0.12679    0.72507    0.02958    1.000
    H105     H        0.13389    0.55786    0.00544    1.000
    H106     H        0.12093    0.74605    0.19334    1.000
    H107     H        0.05970    0.75368    0.30700    1.000
    H108     H        0.19545    0.94514    0.49480    1.000
    H109     H        0.36993    0.94501    0.49508    1.000
    H110     H        0.38539    0.75409    0.30715    1.000
    H111     H        0.44627    0.74578    0.19336    1.000
    H112     H        0.30834    0.55820    0.00512    1.000
    H113     H        0.37660    0.81503    0.44061    1.000
    H114     H        0.12403    0.69444    0.06579    1.000
    Al115    Al       0.75322    0.75145    0.00027    1.000
    Al116    Al       0.50378    0.75094    0.00003    1.000
    C117     C        0.57535    0.53414    0.00276    1.000
    C118     C        0.67982    0.74703    0.21771    1.000
    C119     C        0.64468    0.75136    0.28333    1.000
    C120     C        0.61105    0.96926    0.49625    1.000
    C121     C        0.92895    0.96914    0.49632    1.000
    C122     C        0.82696    0.75148    0.28334    1.000
    C123     C        0.86201    0.74691    0.21777    1.000
    C124     C        0.89317    0.53422    0.00264    1.000
    C125     C        0.96594    0.56789    0.00578    1.000
    C126     C        0.93017    0.63877    0.00768    1.000
    C127     C        0.78901    0.74509    0.18362    1.000
    C128     C        0.82477    0.74490    0.11226    1.000
    C129     C        0.71784    0.75334    0.31743    1.000
    C130     C        0.68174    0.75495    0.38843    1.000
    C131     C        0.53872    0.93535    0.49311    1.000
    C132     C        0.57594    0.86404    0.49194    1.000
    O133     O        0.82980    0.66825    0.00764    1.000
    O134     O        0.92520    0.74529    0.08281    1.000
    O135     O        0.75270    0.75543    0.41765    1.000
    O136     O        0.50484    0.83434    0.49239    1.000
    O137     O        0.67642    0.83491    0.49289    1.000
    O138     O        0.58135    0.75454    0.41757    1.000
    O139     O        0.75293    0.74589    0.08303    1.000
    O140     O        0.50232    0.66795    0.00653    1.000
    O141     O        0.87785    0.78006    0.47279    1.000
    O142     O        0.62679    0.72507    0.02958    1.000
    H143     H        0.63389    0.55786    0.00544    1.000
    H144     H        0.62093    0.74605    0.19334    1.000
    H145     H        0.55970    0.75368    0.30700    1.000
    H146     H        0.69545    0.94514    0.49480    1.000
    H147     H        0.86993    0.94501    0.49508    1.000
    H148     H        0.88539    0.75409    0.30715    1.000
    H149     H        0.94627    0.74578    0.19336    1.000
    H150     H        0.80834    0.55820    0.00512    1.000
    H151     H        0.87660    0.81503    0.44061    1.000
    H152     H        0.62403    0.69444    0.06579    1.000
    Al153    Al       0.25322    0.25145    0.50027    1.000
    Al154    Al       0.00378    0.25094    0.50003    1.000
    C155     C        0.07535    0.03414    0.50276    1.000
    C156     C        0.17982    0.24703    0.71771    1.000
    C157     C        0.14468    0.25136    0.78333    1.000
    C158     C        0.11105    0.46926    0.99625    1.000
    C159     C        0.42895    0.46914    0.99632    1.000
    C160     C        0.32696    0.25148    0.78334    1.000
    C161     C        0.36201    0.24691    0.71777    1.000
    C162     C        0.39317    0.03422    0.50264    1.000
    C163     C        0.46594    0.06789    0.50578    1.000
    C164     C        0.43017    0.13877    0.50768    1.000
    C165     C        0.28901    0.24509    0.68362    1.000
    C166     C        0.32477    0.24490    0.61226    1.000
    C167     C        0.21784    0.25334    0.81743    1.000
    C168     C        0.18174    0.25495    0.88843    1.000
    C169     C        0.03872    0.43535    0.99311    1.000
    C170     C        0.07594    0.36404    0.99194    1.000
    O171     O        0.32980    0.16825    0.50764    1.000
    O172     O        0.42520    0.24529    0.58281    1.000
    O173     O        0.25270    0.25543    0.91765    1.000
    O174     O        0.00484    0.33434    0.99239    1.000
    O175     O        0.17642    0.33491    0.99289    1.000
    O176     O        0.08135    0.25454    0.91757    1.000
    O177     O        0.25293    0.24589    0.58303    1.000
    O178     O        0.00232    0.16795    0.50653    1.000
    O179     O        0.37785    0.28006    0.97279    1.000
    O180     O        0.12679    0.22507    0.52958    1.000
    H181     H        0.13389    0.05786    0.50544    1.000
    H182     H        0.12093    0.24605    0.69334    1.000
    H183     H        0.05970    0.25368    0.80700    1.000
    H184     H        0.19545    0.44514    0.99480    1.000
    H185     H        0.36993    0.44501    0.99508    1.000
    H186     H        0.38539    0.25409    0.80715    1.000
    H187     H        0.44627    0.24578    0.69336    1.000
    H188     H        0.30834    0.05820    0.50512    1.000
    H189     H        0.37660    0.31503    0.94061    1.000
    H190     H        0.12403    0.19444    0.56579    1.000
    Al191    Al       0.75322    0.25145    0.50027    1.000
    Al192    Al       0.50378    0.25094    0.50003    1.000
    C193     C        0.57535    0.03414    0.50276    1.000
    C194     C        0.67982    0.24703    0.71771    1.000
    C195     C        0.64468    0.25136    0.78333    1.000
    C196     C        0.61105    0.46926    0.99625    1.000
    C197     C        0.92895    0.46914    0.99632    1.000
    C198     C        0.82696    0.25148    0.78334    1.000
    C199     C        0.86201    0.24691    0.71777    1.000
    C200     C        0.89317    0.03422    0.50264    1.000
    C201     C        0.96594    0.06789    0.50578    1.000
    C202     C        0.93017    0.13877    0.50768    1.000
    C203     C        0.78901    0.24509    0.68362    1.000
    C204     C        0.82477    0.24490    0.61226    1.000
    C205     C        0.71784    0.25334    0.81743    1.000
    C206     C        0.68174    0.25495    0.88843    1.000
    C207     C        0.53872    0.43535    0.99311    1.000
    C208     C        0.57594    0.36404    0.99194    1.000
    O209     O        0.82980    0.16825    0.50764    1.000
    O210     O        0.92520    0.24529    0.58281    1.000
    O211     O        0.75270    0.25543    0.91765    1.000
    O212     O        0.50484    0.33434    0.99239    1.000
    O213     O        0.67642    0.33491    0.99289    1.000
    O214     O        0.58135    0.25454    0.91757    1.000
    O215     O        0.75293    0.24589    0.58303    1.000
    O216     O        0.50232    0.16795    0.50653    1.000
    O217     O        0.87785    0.28006    0.97279    1.000
    O218     O        0.62679    0.22507    0.52958    1.000
    H219     H        0.63389    0.05786    0.50544    1.000
    H220     H        0.62093    0.24605    0.69334    1.000
    H221     H        0.55970    0.25368    0.80700    1.000
    H222     H        0.69545    0.44514    0.99480    1.000
    H223     H        0.86993    0.44501    0.99508    1.000
    H224     H        0.88539    0.25409    0.80715    1.000
    H225     H        0.94627    0.24578    0.69336    1.000
    H226     H        0.80834    0.05820    0.50512    1.000
    H227     H        0.87660    0.31503    0.94061    1.000
    H228     H        0.62403    0.19444    0.56579    1.000
    Al229    Al       0.25322    0.75145    0.50027    1.000
    Al230    Al       0.00378    0.75094    0.50003    1.000
    C231     C        0.07535    0.53414    0.50276    1.000
    C232     C        0.17982    0.74703    0.71771    1.000
    C233     C        0.14468    0.75136    0.78333    1.000
    C234     C        0.11105    0.96926    0.99625    1.000
    C235     C        0.42895    0.96914    0.99632    1.000
    C236     C        0.32696    0.75148    0.78334    1.000
    C237     C        0.36201    0.74691    0.71777    1.000
    C238     C        0.39317    0.53422    0.50264    1.000
    C239     C        0.46594    0.56789    0.50578    1.000
    C240     C        0.43017    0.63877    0.50768    1.000
    C241     C        0.28901    0.74509    0.68362    1.000
    C242     C        0.32477    0.74490    0.61226    1.000
    C243     C        0.21784    0.75334    0.81743    1.000
    C244     C        0.18174    0.75495    0.88843    1.000
    C245     C        0.03872    0.93535    0.99311    1.000
    C246     C        0.07594    0.86404    0.99194    1.000
    O247     O        0.32980    0.66825    0.50764    1.000
    O248     O        0.42520    0.74529    0.58281    1.000
    O249     O        0.25270    0.75543    0.91765    1.000
    O250     O        0.00484    0.83434    0.99239    1.000
    O251     O        0.17642    0.83491    0.99289    1.000
    O252     O        0.08135    0.75454    0.91757    1.000
    O253     O        0.25293    0.74589    0.58303    1.000
    O254     O        0.00232    0.66795    0.50653    1.000
    O255     O        0.37785    0.78006    0.97279    1.000
    O256     O        0.12679    0.72507    0.52958    1.000
    H257     H        0.13389    0.55786    0.50544    1.000
    H258     H        0.12093    0.74605    0.69334    1.000
    H259     H        0.05970    0.75368    0.80700    1.000
    H260     H        0.19545    0.94514    0.99480    1.000
    H261     H        0.36993    0.94501    0.99508    1.000
    H262     H        0.38539    0.75409    0.80715    1.000
    H263     H        0.44627    0.74578    0.69336    1.000
    H264     H        0.30834    0.55820    0.50512    1.000
    H265     H        0.37660    0.81503    0.94061    1.000
    H266     H        0.12403    0.69444    0.56579    1.000
    Al267    Al       0.75322    0.75145    0.50027    1.000
    Al268    Al       0.50378    0.75094    0.50003    1.000
    C269     C        0.57535    0.53414    0.50276    1.000
    C270     C        0.67982    0.74703    0.71771    1.000
    C271     C        0.64468    0.75136    0.78333    1.000
    C272     C        0.61105    0.96926    0.99625    1.000
    C273     C        0.92895    0.96914    0.99632    1.000
    C274     C        0.82696    0.75148    0.78334    1.000
    C275     C        0.86201    0.74691    0.71777    1.000
    C276     C        0.89317    0.53422    0.50264    1.000
    C277     C        0.96594    0.56789    0.50578    1.000
    C278     C        0.93017    0.63877    0.50768    1.000
    C279     C        0.78901    0.74509    0.68362    1.000
    C280     C        0.82477    0.74490    0.61226    1.000
    C281     C        0.71784    0.75334    0.81743    1.000
    C282     C        0.68174    0.75495    0.88843    1.000
    C283     C        0.53872    0.93535    0.99311    1.000
    C284     C        0.57594    0.86404    0.99194    1.000
    O285     O        0.82980    0.66825    0.50764    1.000
    O286     O        0.92520    0.74529    0.58281    1.000
    O287     O        0.75270    0.75543    0.91765    1.000
    O288     O        0.50484    0.83434    0.99239    1.000
    O289     O        0.67642    0.83491    0.99289    1.000
    O290     O        0.58135    0.75454    0.91757    1.000
    O291     O        0.75293    0.74589    0.58303    1.000
    O292     O        0.50232    0.66795    0.50653    1.000
    O293     O        0.87785    0.78006    0.97279    1.000
    O294     O        0.62679    0.72507    0.52958    1.000
    H295     H        0.63389    0.55786    0.50544    1.000
    H296     H        0.62093    0.74605    0.69334    1.000
    H297     H        0.55970    0.75368    0.80700    1.000
    H298     H        0.69545    0.94514    0.99480    1.000
    H299     H        0.86993    0.94501    0.99508    1.000
    H300     H        0.88539    0.75409    0.80715    1.000
    H301     H        0.94627    0.74578    0.69336    1.000
    H302     H        0.80834    0.55820    0.50512    1.000
    H303     H        0.87660    0.81503    0.94061    1.000
    H304     H        0.62403    0.69444    0.56579    1.000
