data_functionalizedCrystal
_audit_creation_method	'EQeq! by Chris Wilmer'
_symmetry_space_group_name_H-M	'P1'
_symmetry_Int_Tables_number	1
_symmetry_cell_setting	triclinic
loop_
_symmetry_equiv_pos_as_xyz
  x,y,z
_cell_length_a	9.4727
_cell_length_b	12.652
_cell_length_c	18.6017
_cell_angle_alpha	106.106
_cell_angle_beta	98.088
_cell_angle_gamma	100.255
loop_
_atom_site_label
_atom_site_type_symbol
_atom_site_fract_x
_atom_site_fract_y
_atom_site_fract_z
_atom_site_charge
Mof_Dy	Dy	0.76384	0.48437	0.49715	2.046
Mof_O 	O 	0.5516	0.4682	0.4147	-0.616
Mof_N 	N 	0.9956	0.3485	0.8172	-0.112
Mof_O 	O 	0.9757	0.6081	0.5743	-0.567
Mof_O 	O 	0.8895	0.383	0.5597	-0.531
Mof_O 	O 	0.3196	0.4791	0.3867	-0.554
Mof_O 	O 	0.2185	0.6677	0.6077	-0.503
Mof_N 	N 	0.4388	0.3372	0.1332	-0.11
Mof_C 	C 	0.0987	0.0819	0.9264	-0.153
Mof_C 	C 	0.4398	0.4201	0.2851	-0.133
Mof_N 	N 	0.0439	0.8921	0.8262	-0.109
Mof_C 	C 	0.0804	0.2684	0.9213	-0.155
Mof_C 	C 	0.0905	0.6707	0.6175	0.471
Mof_C 	C 	0.4391	0.4609	0.3706	0.508
Mof_C 	C 	0.5658	0.3981	0.2604	-0.005
Mof_H 	H 	0.6538	0.4107	0.2963	0.041
Mof_C 	C 	0.0752	0.7561	0.6895	-0.126
Mof_C 	C 	0.2187	0.3156	0.9707	0.195
Mof_C 	C 	0.2329	0.1279	0.9771	0.174
Mof_C 	C 	0.3142	0.4021	0.2312	-0.008
Mof_H 	H 	0.2277	0.4194	0.2472	0.04
Mof_C 	C 	0.2953	0.2455	0.9975	-0.146
Mof_C 	C 	0.5625	0.3579	0.1835	-0.003
Mof_H 	H 	0.6493	0.3448	0.1661	0.028
Mof_C 	C 	0.8781	0.1021	0.8424	-0.554
Mof_H 	H 	0.833	0.1631	0.8346	0.185
Mof_H 	H 	0.8128	0.0537	0.8627	0.175
Mof_H 	H 	0.8948	0.0571	0.7935	0.187
Mof_C 	C 	0.3142	0.3591	0.154	-0.003
Mof_H 	H 	0.228	0.3454	0.1167	0.034
Mof_C 	C 	0.1971	0.8217	0.7445	-0.011
Mof_H 	H 	0.2927	0.8194	0.7352	0.036
Mof_C 	C 	0.8754	0.3704	0.7046	-0.012
Mof_H 	H 	0.7886	0.3743	0.6739	0.035
Mof_C 	C 	0.937	0.7629	0.7043	0.003
Mof_H 	H 	0.8518	0.7202	0.6671	0.013
Mof_C 	C 	0.1304	0.3677	0.7233	-0.018
Mof_H 	H 	0.2201	0.371	0.7057	0.036
Mof_C 	C 	0.9251	0.8318	0.7727	-0.01
Mof_H 	H 	0.8307	0.8371	0.7829	0.026
Mof_C 	C 	0.0116	0.3992	0.6024	0.47
Mof_C 	C 	0.0216	0.1518	0.898	0.205
Mof_C 	C 	0.1222	0.3531	0.793	0.008
Mof_H 	H 	0.2065	0.3462	0.8241	0.025
Mof_C 	C 	0.9916	0.345	0.8984	-0.011
Mof_H 	H 	0.0292	0.4224	0.9345	0.025
Mof_H 	H 	0.8887	0.3191	0.9021	0.019
Mof_C 	C 	0.2795	0.4416	0.995	-0.546
Mof_H 	H 	0.2229	0.4799	0.03	0.178
Mof_H 	H 	0.2729	0.4675	0.9499	0.179
Mof_H 	H 	0.3822	0.4592	0.021	0.178
Mof_C 	C 	0.179	0.8895	0.8121	0.003
Mof_H 	H 	0.2624	0.9353	0.8495	0.025
Mof_C 	C 	0.8733	0.3573	0.7757	-0.001
Mof_H 	H 	0.7856	0.3546	0.7951	0.02
Mof_C 	C 	0.0058	0.3778	0.6785	-0.113
Mof_C 	C 	0.027	0.9578	0.9038	-0.005
Mof_H 	H 	0.0703	0.9254	0.942	0.026
Mof_H 	H 	0.9214	0.9493	0.9046	0.026
Mof_C 	C 	0.4467	0.2969	0.0492	-0.014
Mof_H 	H 	0.5068	0.2397	0.0413	0.027
Mof_H 	H 	0.4957	0.3615	0.0346	0.019
Mof_C 	C 	0.3194	0.0547	0.0102	-0.489
Mof_H 	H 	0.2557	0.9802	0.0012	0.156
Mof_H 	H 	0.3548	0.0913	0.0653	0.162
Mof_H 	H 	0.403	0.0458	0.9853	0.153
Mof_O 	O 	0.1361	0.4353	0.5912	-0.515
Mof_Dy	Dy	0.23616	0.51563	0.50285	2.045
Mof_O 	O 	0.4484	0.5318	0.5853	-0.617
Mof_N 	N 	0.0044	0.6515	0.1828	-0.113
Mof_O 	O 	0.0243	0.3919	0.4257	-0.568
Mof_O 	O 	0.1105	0.617	0.4403	-0.532
Mof_O 	O 	0.6804	0.5209	0.6133	-0.555
Mof_O 	O 	0.7815	0.3323	0.3923	-0.504
Mof_N 	N 	0.5612	0.6628	0.8668	-0.111
Mof_C 	C 	0.9013	0.9181	0.0736	-0.153
Mof_C 	C 	0.5602	0.5799	0.7149	-0.133
Mof_N 	N 	0.9561	0.1079	0.1738	-0.109
Mof_C 	C 	0.9196	0.7316	0.0787	-0.155
Mof_C 	C 	0.9095	0.3293	0.3825	0.471
Mof_C 	C 	0.5609	0.5391	0.6294	0.508
Mof_C 	C 	0.4342	0.6019	0.7396	-0.005
Mof_H 	H 	0.3462	0.5893	0.7037	0.041
Mof_C 	C 	0.9248	0.2439	0.3105	-0.126
Mof_C 	C 	0.7813	0.6844	0.0293	0.195
Mof_C 	C 	0.7671	0.8721	0.0229	0.174
Mof_C 	C 	0.6858	0.5979	0.7688	-0.008
Mof_H 	H 	0.7723	0.5806	0.7528	0.04
Mof_C 	C 	0.7047	0.7545	0.0025	-0.146
Mof_C 	C 	0.4375	0.6421	0.8165	-0.003
Mof_H 	H 	0.3507	0.6552	0.8339	0.028
Mof_C 	C 	0.1219	0.8979	0.1576	-0.554
Mof_H 	H 	0.167	0.8369	0.1654	0.185
Mof_H 	H 	0.1872	0.9463	0.1373	0.175
Mof_H 	H 	0.1052	0.9429	0.2065	0.187
Mof_C 	C 	0.6858	0.6409	0.846	-0.003
Mof_H 	H 	0.772	0.6546	0.8833	0.034
Mof_C 	C 	0.8029	0.1783	0.2555	-0.011
Mof_H 	H 	0.7073	0.1806	0.2648	0.036
Mof_C 	C 	0.1246	0.6296	0.2954	-0.012
Mof_H 	H 	0.2114	0.6257	0.3261	0.035
Mof_C 	C 	0.063	0.2371	0.2957	0.003
Mof_H 	H 	0.1482	0.2798	0.3329	0.013
Mof_C 	C 	0.8696	0.6323	0.2767	-0.018
Mof_H 	H 	0.7799	0.629	0.2943	0.036
Mof_C 	C 	0.0749	0.1682	0.2273	-0.01
Mof_H 	H 	0.1693	0.1629	0.2171	0.026
Mof_C 	C 	0.9884	0.6008	0.3976	0.47
Mof_C 	C 	0.9784	0.8482	0.102	0.205
Mof_C 	C 	0.8778	0.6469	0.207	0.008
Mof_H 	H 	0.7935	0.6538	0.1759	0.025
Mof_C 	C 	0.0084	0.655	0.1016	-0.011
Mof_H 	H 	0.9708	0.5776	0.0655	0.025
Mof_H 	H 	0.1113	0.6809	0.0979	0.019
Mof_C 	C 	0.7205	0.5584	0.005	-0.546
Mof_H 	H 	0.7771	0.5201	0.97	0.178
Mof_H 	H 	0.7271	0.5325	0.0501	0.179
Mof_H 	H 	0.6178	0.5408	0.979	0.178
Mof_C 	C 	0.821	0.1105	0.1879	0.003
Mof_H 	H 	0.7376	0.0647	0.1505	0.025
Mof_C 	C 	0.1267	0.6427	0.2243	-0.001
Mof_H 	H 	0.2144	0.6454	0.2049	0.02
Mof_C 	C 	0.9942	0.6222	0.3215	-0.113
Mof_C 	C 	0.973	0.0422	0.0962	-0.005
Mof_H 	H 	0.9297	0.0746	0.058	0.026
Mof_H 	H 	0.0786	0.0507	0.0954	0.026
Mof_C 	C 	0.5533	0.7031	0.9508	-0.014
Mof_H 	H 	0.4932	0.7603	0.9587	0.027
Mof_H 	H 	0.5043	0.6385	0.9654	0.019
Mof_C 	C 	0.6806	0.9453	0.9898	-0.489
Mof_H 	H 	0.7443	0.0198	0.9988	0.156
Mof_H 	H 	0.6452	0.9087	0.9347	0.162
Mof_H 	H 	0.597	0.9542	0.0147	0.153
Mof_O 	O 	0.8639	0.5647	0.4088	-0.515
_end
