# CIF file generated by openbabel 3.1.0, see https://openbabel.org
data_I
_chemical_name_common 'QITYOI_clean'
_cell_length_a 7.8538
_cell_length_b 11.0219
_cell_length_c 11.6693
_cell_angle_alpha 108.674
_cell_angle_beta 105.812
_cell_angle_gamma 104.108
_space_group_name_H-M_alt 'P 1'
_space_group_name_Hall 'P 1'
loop_
    _symmetry_equiv_pos_as_xyz
    x,y,z
loop_
    _atom_site_label
    _atom_site_type_symbol
    _atom_site_fract_x
    _atom_site_fract_y
    _atom_site_fract_z
    _atom_site_occupancy
    Pr1      Pr       0.72538    0.97892    0.93458    1.000
    Pr2      Pr       0.27462    0.02108    0.06542    1.000
    H1       H        0.76920    0.59480    0.94860    1.000
    H2       H        0.73780    0.69730    0.06210    1.000
    H3       H        0.01210    0.57720    0.11760    1.000
    H4       H        0.93340    0.65410    0.21710    1.000
    H5       H        0.15430    0.18270    0.46420    1.000
    H6       H        0.93570    0.15450    0.41750    1.000
    H7       H        0.89670    0.35320    0.16610    1.000
    H8       H        0.83220    0.44350    0.26790    1.000
    H9       H        0.87300    0.91870    0.36980    1.000
    H10      H        0.09160    0.94800    0.41860    1.000
    H11      H        0.71610    0.39690    0.00080    1.000
    H12      H        0.63050    0.47460    0.09380    1.000
    H13      H        0.23080    0.40520    0.05140    1.000
    H14      H        0.26220    0.30270    0.93790    1.000
    H15      H        0.98790    0.42280    0.88240    1.000
    H16      H        0.06660    0.34590    0.78290    1.000
    H17      H        0.84570    0.81730    0.53580    1.000
    H18      H        0.06430    0.84550    0.58250    1.000
    H19      H        0.10330    0.64680    0.83390    1.000
    H20      H        0.16780    0.55650    0.73210    1.000
    H21      H        0.12700    0.08130    0.63020    1.000
    H22      H        0.90840    0.05200    0.58140    1.000
    H23      H        0.28390    0.60310    0.99920    1.000
    H24      H        0.36950    0.52540    0.90620    1.000
    C1       C        0.01800    0.08110    0.26560    1.000
    C2       C        0.83180    0.66340    0.03830    1.000
    C3       C        0.89960    0.59380    0.12650    1.000
    C4       C        0.02990    0.11490    0.40380    1.000
    C5       C        0.79300    0.38250    0.17670    1.000
    C6       C        0.98560    0.78140    0.04410    1.000
    C7       C        0.99630    0.98660    0.43200    1.000
    C8       C        0.74470    0.45730    0.09050    1.000
    C9       C        0.61900    0.25900    0.13750    1.000
    C10      C        0.98200    0.91890    0.73440    1.000
    C11      C        0.16820    0.33660    0.96170    1.000
    C12      C        0.10040    0.40620    0.87350    1.000
    C13      C        0.97010    0.88510    0.59620    1.000
    C14      C        0.20700    0.61750    0.82330    1.000
    C15      C        0.01440    0.21860    0.95590    1.000
    C16      C        0.00370    0.01340    0.56800    1.000
    C17      C        0.25530    0.54270    0.90950    1.000
    C18      C        0.38100    0.74100    0.86250    1.000
    O1       O        0.93180    0.85070    0.98170    1.000
    O2       O        0.85320    0.03990    0.17650    1.000
    O3       O        0.58990    0.14400    0.04780    1.000
    O4       O        0.16540    0.08950    0.24310    1.000
    O5       O        0.50010    0.27160    0.18880    1.000
    O6       O        0.15610    0.80850    0.10440    1.000
    O7       O        0.06820    0.14930    0.01830    1.000
    O8       O        0.14680    0.96010    0.82350    1.000
    O9       O        0.41010    0.85600    0.95220    1.000
    O10      O        0.83460    0.91050    0.75690    1.000
    O11      O        0.49990    0.72840    0.81120    1.000
    O12      O        0.84390    0.19150    0.89560    1.000
