# CIF file generated by openbabel 3.1.0, see https://openbabel.org
data_I
_chemical_name_common 'image0'
_cell_length_a 13.5842
_cell_length_b 13.5842
_cell_length_c 14.8502
_cell_angle_alpha 90
_cell_angle_beta 90
_cell_angle_gamma 120
_space_group_name_H-M_alt 'P 1'
_space_group_name_Hall 'P 1'
loop_
    _symmetry_equiv_pos_as_xyz
    x,y,z
loop_
    _atom_site_label
    _atom_site_type_symbol
    _atom_site_fract_x
    _atom_site_fract_y
    _atom_site_fract_z
    _atom_site_occupancy
    N1       N        0.17947    0.33922    0.54881    1.000
    C1       C        0.07803    0.31500    0.51724    1.000
    H1       H        0.04870    0.26750    0.46750    1.000
    C2       C        0.01529    0.35760    0.55543    1.000
    H2       H        0.94610    0.34170    0.53040    1.000
    C3       C        0.05569    0.42420    0.63117    1.000
    H3       H        0.01320    0.45200    0.65900    1.000
    C4       C        0.16016    0.44930    0.66546    1.000
    C5       C        0.22238    0.40815    0.62046    1.000
    H4       H        0.29510    0.42890    0.64050    1.000
    N2       N        0.19757    0.51184    0.74579    1.000
    H5       H        0.15330    0.53360    0.76840    1.000
    C6       C        0.29440    0.54220    0.79208    1.000
    O1       O        0.37445    0.53582    0.76350    1.000
    C7       C        0.28890    0.57840    0.88833    1.000
    H6       H        0.23950    0.61180    0.88960    1.000
    C8       C        0.23820    0.47460    0.94830    1.000
    H7       H        0.28680    0.44210    0.94850    1.000
    H8       H        0.16450    0.41970    0.92600    1.000
    H9       H        0.23110    0.49610    0.00850    1.000
    N3       N        0.40160    0.66290    0.91895    1.000
    H10      H        0.43070    0.64750    0.96440    1.000
    C9       C        0.46030    0.76190    0.87950    1.000
    O2       O        0.42310    0.78970    0.81351    1.000
    C10      C        0.57740    0.84220    0.91301    1.000
    C11      C        0.60380    0.86380    0.00454    1.000
    H11      H        0.54610    0.82530    0.04640    1.000
    N4       N        0.70790    0.93705    0.03449    1.000
    C12      C        0.79190    0.98560    0.97384    1.000
    H12      H        0.86570    0.03280    0.99430    1.000
    C13      C        0.77390    0.96880    0.88259    1.000
    H13      H        0.83430    0.00410    0.84240    1.000
    C14      C        0.66630    0.89960    0.85210    1.000
    H14      H        0.65210    0.89060    0.79050    1.000
    N5       N        0.66078    0.84025    0.21548    1.000
    C15      C        0.68500    0.76303    0.18391    1.000
    H15      H        0.73250    0.78120    0.13417    1.000
    C16      C        0.64240    0.65769    0.22210    1.000
    H16      H        0.65830    0.60440    0.19707    1.000
    C17      C        0.57580    0.63149    0.29784    1.000
    H17      H        0.54800    0.56120    0.32567    1.000
    C18      C        0.55070    0.71086    0.33213    1.000
    C19      C        0.59185    0.81423    0.28713    1.000
    H18      H        0.57110    0.86620    0.30717    1.000
    N6       N        0.48816    0.68573    0.41246    1.000
    H19      H        0.46640    0.61970    0.43507    1.000
    C20      C        0.45780    0.75220    0.45875    1.000
    O3       O        0.46418    0.83863    0.43017    1.000
    C21      C        0.42160    0.71050    0.55500    1.000
    H20      H        0.38820    0.62770    0.55627    1.000
    C22      C        0.52540    0.76360    0.61497    1.000
    H21      H        0.55790    0.84470    0.61517    1.000
    H22      H        0.58030    0.74480    0.59267    1.000
    H23      H        0.50390    0.73500    0.67517    1.000
    N7       N        0.33710    0.73870    0.58562    1.000
    H24      H        0.35250    0.78320    0.63107    1.000
    C23      C        0.23810    0.69840    0.54617    1.000
    O4       O        0.21030    0.63340    0.48018    1.000
    C24      C        0.15780    0.73520    0.57968    1.000
    C25      C        0.13620    0.74000    0.67121    1.000
    H25      H        0.17470    0.72080    0.71307    1.000
    N8       N        0.06295    0.77085    0.70116    1.000
    C26      C        0.01440    0.80630    0.64051    1.000
    H26      H        0.96720    0.83290    0.66097    1.000
    C27      C        0.03120    0.80510    0.54926    1.000
    H27      H        0.99590    0.83020    0.50907    1.000
    C28      C        0.10040    0.76670    0.51877    1.000
    H28      H        0.10940    0.76150    0.45717    1.000
    N9       N        0.15975    0.82053    0.88214    1.000
    C29      C        0.23697    0.92197    0.85057    1.000
    H29      H        0.21880    0.95130    0.80083    1.000
    C30      C        0.34231    0.98471    0.88876    1.000
    H30      H        0.39560    0.05390    0.86373    1.000
    C31      C        0.36851    0.94431    0.96450    1.000
    H31      H        0.43880    0.98680    0.99233    1.000
    C32      C        0.28914    0.83984    0.99879    1.000
    C33      C        0.18577    0.77762    0.95379    1.000
    H32      H        0.13380    0.70490    0.97383    1.000
    N10      N        0.31427    0.80243    0.07912    1.000
    H33      H        0.38030    0.84670    0.10173    1.000
    C34      C        0.24780    0.70560    0.12541    1.000
    O5       O        0.16137    0.62555    0.09683    1.000
    C35      C        0.28950    0.71110    0.22166    1.000
    H34      H        0.37230    0.76050    0.22293    1.000
    C36      C        0.23640    0.76180    0.28163    1.000
    H35      H        0.15530    0.71320    0.28183    1.000
    H36      H        0.25520    0.83550    0.25933    1.000
    H37      H        0.26500    0.76890    0.34183    1.000
    N11      N        0.26130    0.59840    0.25228    1.000
    H38      H        0.21680    0.56930    0.29773    1.000
    C37      C        0.30160    0.53970    0.21283    1.000
    O6       O        0.36660    0.57690    0.14684    1.000
    C38      C        0.26480    0.42260    0.24634    1.000
    C39      C        0.26000    0.39620    0.33787    1.000
    H39      H        0.27920    0.45390    0.37973    1.000
    N12      N        0.22915    0.29210    0.36782    1.000
    C40      C        0.19370    0.20810    0.30717    1.000
    H40      H        0.16710    0.13430    0.32763    1.000
    C41      C        0.19490    0.22610    0.21592    1.000
    H41      H        0.16980    0.16570    0.17573    1.000
    C42      C        0.23330    0.33370    0.18543    1.000
    H42      H        0.23850    0.34790    0.12383    1.000
    N13      N        0.33922    0.17947    0.45119    1.000
    C43      C        0.31500    0.07803    0.48276    1.000
    H43      H        0.26750    0.04870    0.53250    1.000
    C44      C        0.35760    0.01529    0.44457    1.000
    H44      H        0.34170    0.94610    0.46960    1.000
    C45      C        0.42420    0.05569    0.36883    1.000
    H45      H        0.45200    0.01320    0.34100    1.000
    C46      C        0.44930    0.16016    0.33454    1.000
    C47      C        0.40815    0.22238    0.37954    1.000
    H46      H        0.42890    0.29510    0.35950    1.000
    N14      N        0.51184    0.19757    0.25421    1.000
    H47      H        0.53360    0.15330    0.23160    1.000
    C48      C        0.54220    0.29440    0.20792    1.000
    O7       O        0.53582    0.37445    0.23650    1.000
    C49      C        0.57840    0.28890    0.11167    1.000
    H48      H        0.61180    0.23950    0.11040    1.000
    C50      C        0.47460    0.23820    0.05170    1.000
    H49      H        0.44210    0.28680    0.05150    1.000
    H50      H        0.41970    0.16450    0.07400    1.000
    H51      H        0.49610    0.23110    0.99150    1.000
    N15      N        0.66290    0.40160    0.08105    1.000
    H52      H        0.64750    0.43070    0.03560    1.000
    C51      C        0.76190    0.46030    0.12050    1.000
    O8       O        0.78970    0.42310    0.18649    1.000
    C52      C        0.84220    0.57740    0.08699    1.000
    C53      C        0.86380    0.60380    0.99546    1.000
    H53      H        0.82530    0.54610    0.95360    1.000
    N16      N        0.93705    0.70790    0.96551    1.000
    C54      C        0.98560    0.79190    0.02616    1.000
    H54      H        0.03280    0.86570    0.00570    1.000
    C55      C        0.96880    0.77390    0.11741    1.000
    H55      H        0.00410    0.83430    0.15760    1.000
    C56      C        0.89960    0.66630    0.14790    1.000
    H56      H        0.89060    0.65210    0.20950    1.000
    N17      N        0.84025    0.66078    0.78452    1.000
    C57      C        0.76303    0.68500    0.81609    1.000
    H57      H        0.78120    0.73250    0.86583    1.000
    C58      C        0.65769    0.64240    0.77790    1.000
    H58      H        0.60440    0.65830    0.80293    1.000
    C59      C        0.63149    0.57580    0.70216    1.000
    H59      H        0.56120    0.54800    0.67433    1.000
    C60      C        0.71086    0.55070    0.66787    1.000
    C61      C        0.81423    0.59185    0.71287    1.000
    H60      H        0.86620    0.57110    0.69283    1.000
    N18      N        0.68573    0.48816    0.58754    1.000
    H61      H        0.61970    0.46640    0.56493    1.000
    C62      C        0.75220    0.45780    0.54125    1.000
    O9       O        0.83863    0.46418    0.56983    1.000
    C63      C        0.71050    0.42160    0.44500    1.000
    H62      H        0.62770    0.38820    0.44373    1.000
    C64      C        0.76360    0.52540    0.38503    1.000
    H63      H        0.84470    0.55790    0.38483    1.000
    H64      H        0.74480    0.58030    0.40733    1.000
    H65      H        0.73500    0.50390    0.32483    1.000
    N19      N        0.73870    0.33710    0.41438    1.000
    H66      H        0.78320    0.35250    0.36893    1.000
    C65      C        0.69840    0.23810    0.45383    1.000
    O10      O        0.63340    0.21030    0.51982    1.000
    C66      C        0.73520    0.15780    0.42032    1.000
    C67      C        0.74000    0.13620    0.32879    1.000
    H67      H        0.72080    0.17470    0.28693    1.000
    N20      N        0.77085    0.06295    0.29884    1.000
    C68      C        0.80630    0.01440    0.35949    1.000
    H68      H        0.83290    0.96720    0.33903    1.000
    C69      C        0.80510    0.03120    0.45074    1.000
    H69      H        0.83020    0.99590    0.49093    1.000
    C70      C        0.76670    0.10040    0.48123    1.000
    H70      H        0.76150    0.10940    0.54283    1.000
    N21      N        0.82053    0.15975    0.11786    1.000
    C71      C        0.92197    0.23697    0.14943    1.000
    H71      H        0.95130    0.21880    0.19917    1.000
    C72      C        0.98471    0.34231    0.11124    1.000
    H72      H        0.05390    0.39560    0.13627    1.000
    C73      C        0.94431    0.36851    0.03550    1.000
    H73      H        0.98680    0.43880    0.00767    1.000
    C74      C        0.83984    0.28914    0.00121    1.000
    C75      C        0.77762    0.18577    0.04621    1.000
    H74      H        0.70490    0.13380    0.02617    1.000
    N22      N        0.80243    0.31427    0.92088    1.000
    H75      H        0.84670    0.38030    0.89827    1.000
    C76      C        0.70560    0.24780    0.87459    1.000
    O11      O        0.62555    0.16137    0.90317    1.000
    C77      C        0.71110    0.28950    0.77834    1.000
    H76      H        0.76050    0.37230    0.77707    1.000
    C78      C        0.76180    0.23640    0.71837    1.000
    H77      H        0.71320    0.15530    0.71817    1.000
    H78      H        0.83550    0.25520    0.74067    1.000
    H79      H        0.76890    0.26500    0.65817    1.000
    N23      N        0.59840    0.26130    0.74772    1.000
    H80      H        0.56930    0.21680    0.70227    1.000
    C79      C        0.53970    0.30160    0.78717    1.000
    O12      O        0.57690    0.36660    0.85316    1.000
    C80      C        0.42260    0.26480    0.75366    1.000
    C81      C        0.39620    0.26000    0.66213    1.000
    H81      H        0.45390    0.27920    0.62027    1.000
    N24      N        0.29210    0.22915    0.63218    1.000
    C82      C        0.20810    0.19370    0.69283    1.000
    H82      H        0.13430    0.16710    0.67237    1.000
    C83      C        0.22610    0.19490    0.78408    1.000
    H83      H        0.16570    0.16980    0.82427    1.000
    C84      C        0.33370    0.23330    0.81457    1.000
    H84      H        0.34790    0.23850    0.87617    1.000
    Cu1      Cu       0.26264    0.26264    0.50000    1.000
    Cu2      Cu       0.73736    0.00000    0.16667    1.000
    Cu3      Cu       0.00000    0.73736    0.83333    1.000
