data_functionalizedCrystal
_audit_creation_method	'EQeq! by Chris Wilmer'
_symmetry_space_group_name_H-M	'P1'
_symmetry_Int_Tables_number	1
_symmetry_cell_setting	triclinic
loop_
_symmetry_equiv_pos_as_xyz
  x,y,z
_cell_length_a	10.24
_cell_length_b	10.24
_cell_length_c	14.42
_cell_angle_alpha	90
_cell_angle_beta	90
_cell_angle_gamma	90
loop_
_atom_site_label
_atom_site_type_symbol
_atom_site_fract_x
_atom_site_fract_y
_atom_site_fract_z
_atom_site_charge
Mof_Yb	Yb	0.35215	0.64785	0.875	1.986
Mof_Yb	Yb	0.64785	0.35215	0.375	1.964
Mof_Yb	Yb	0.35215	0.35215	0.625	1.966
Mof_Yb	Yb	0.64785	0.64785	0.125	1.938
Mof_H 	H 	0.4251	0.059	0.8709	-0.028
Mof_H 	H 	0.5749	0.941	0.3709	-0.025
Mof_H 	H 	0.941	0.4251	0.6209	-0.024
Mof_H 	H 	0.059	0.5749	0.1209	-0.028
Mof_H 	H 	0.5749	0.059	0.1291	-0.024
Mof_H 	H 	0.4251	0.941	0.6291	-0.024
Mof_H 	H 	0.059	0.4251	0.3791	-0.025
Mof_H 	H 	0.941	0.5749	0.8791	-0.019
Mof_H 	H 	0.5	0.3989	-0	-0.047
Mof_H 	H 	0.5	0.6011	0.5	-0.051
Mof_H 	H 	0.6011	0.5	0.75	-0.051
Mof_H 	H 	0.3989	0.5	0.25	-0.051
Mof_C 	C 	0.411	0.3178	0.839	0.555
Mof_C 	C 	0.4554	0.1042	0.9225	0.213
Mof_C 	C 	0.4565	0.2398	0.9226	-0.256
Mof_C 	C 	0.589	0.6822	0.339	0.558
Mof_C 	C 	0.5446	0.8958	0.4225	0.196
Mof_C 	C 	0.5435	0.7602	0.4226	-0.281
Mof_C 	C 	0.6822	0.411	0.589	0.559
Mof_C 	C 	0.8958	0.4554	0.6725	0.195
Mof_C 	C 	0.7602	0.4565	0.6726	-0.28
Mof_C 	C 	0.3178	0.589	0.089	0.56
Mof_C 	C 	0.1042	0.5446	0.1725	0.197
Mof_C 	C 	0.2398	0.5435	0.1726	-0.284
Mof_C 	C 	0.589	0.3178	0.161	0.553
Mof_C 	C 	0.5446	0.1042	0.0775	0.192
Mof_C 	C 	0.5435	0.2398	0.0774	-0.274
Mof_C 	C 	0.411	0.6822	0.661	0.56
Mof_C 	C 	0.4554	0.8958	0.5775	0.197
Mof_C 	C 	0.4565	0.7602	0.5774	-0.281
Mof_C 	C 	0.3178	0.411	0.411	0.559
Mof_C 	C 	0.1042	0.4554	0.3275	0.196
Mof_C 	C 	0.2398	0.4565	0.3274	-0.282
Mof_C 	C 	0.6822	0.589	0.911	0.558
Mof_C 	C 	0.8958	0.5446	0.8275	0.194
Mof_C 	C 	0.7602	0.5435	0.8274	-0.277
Mof_C 	C 	0.5	0.8884	-0	0.509
Mof_C 	C 	0.5	0.0357	-0	-0.282
Mof_C 	C 	0.5	0.3081	-0	0.182
Mof_C 	C 	0.5	0.1116	0.5	0.538
Mof_C 	C 	0.5	0.9643	0.5	-0.268
Mof_C 	C 	0.5	0.6919	0.5	0.217
Mof_C 	C 	0.1116	0.5	0.75	0.538
Mof_C 	C 	0.9643	0.5	0.75	-0.265
Mof_C 	C 	0.6919	0.5	0.75	0.216
Mof_C 	C 	0.8884	0.5	0.25	0.535
Mof_C 	C 	0.0357	0.5	0.25	-0.268
Mof_C 	C 	0.3081	0.5	0.25	0.218
Mof_O 	O 	0.4261	0.834	0.9414	-0.517
Mof_O 	O 	0.3876	0.4338	0.8502	-0.56
Mof_O 	O 	0.4049	0.2598	0.7624	-0.543
Mof_O 	O 	0.5739	0.166	0.4414	-0.541
Mof_O 	O 	0.6124	0.5662	0.3502	-0.564
Mof_O 	O 	0.5951	0.7402	0.2624	-0.542
Mof_O 	O 	0.166	0.4261	0.6914	-0.54
Mof_O 	O 	0.5662	0.3876	0.6002	-0.564
Mof_O 	O 	0.7402	0.4049	0.5124	-0.544
Mof_O 	O 	0.834	0.5739	0.1914	-0.542
Mof_O 	O 	0.4338	0.6124	0.1002	-0.567
Mof_O 	O 	0.2598	0.5951	0.0124	-0.56
Mof_O 	O 	0.5739	0.834	0.0586	-0.538
Mof_O 	O 	0.6124	0.4338	0.1498	-0.563
Mof_O 	O 	0.5951	0.2598	0.2376	-0.543
Mof_O 	O 	0.4261	0.166	0.5586	-0.541
Mof_O 	O 	0.3876	0.5662	0.6498	-0.565
Mof_O 	O 	0.4049	0.7402	0.7376	-0.546
Mof_O 	O 	0.834	0.4261	0.3086	-0.541
Mof_O 	O 	0.4338	0.3876	0.3998	-0.564
Mof_O 	O 	0.2598	0.4049	0.4876	-0.544
Mof_O 	O 	0.166	0.5739	0.8086	-0.54
Mof_O 	O 	0.5662	0.6124	0.8998	-0.559
Mof_O 	O 	0.7402	0.5951	0.9876	-0.526
_end
