# CIF file generated by openbabel 3.1.0, see https://openbabel.org
data_I
_chemical_name_common 'FEFDEB_clean5b'
_cell_length_a 19.2564
_cell_length_b 15.21
_cell_length_c 15.21
_cell_angle_alpha 90
_cell_angle_beta 90
_cell_angle_gamma 90
_space_group_name_H-M_alt 'P 1'
_space_group_name_Hall 'P 1'
loop_
    _symmetry_equiv_pos_as_xyz
    x,y,z
loop_
    _atom_site_label
    _atom_site_type_symbol
    _atom_site_fract_x
    _atom_site_fract_y
    _atom_site_fract_z
    _atom_site_occupancy
    Zn1      Zn       0.33310    0.00630    0.99312    1.000
    Zn2      Zn       0.16716    0.00628    0.99315    1.000
    H1       H        0.35932    0.97507    0.71977    1.000
    H2       H        0.35930    0.97280    0.55946    1.000
    H3       H        0.35893    0.03894    0.26661    1.000
    H4       H        0.35887    0.04107    0.42690    1.000
    H5       H        0.35930    0.27960    0.02430    1.000
    H6       H        0.35925    0.43988    0.02668    1.000
    H7       H        0.35923    0.73286    0.96190    1.000
    H8       H        0.35919    0.57259    0.95953    1.000
    H9       H        0.14102    0.03661    0.71959    1.000
    H10      H        0.14115    0.03887    0.55935    1.000
    H11      H        0.14147    0.97286    0.26666    1.000
    H12      H        0.14159    0.97055    0.42692    1.000
    H13      H        0.14114    0.73273    0.02460    1.000
    H14      H        0.14127    0.57252    0.02702    1.000
    H15      H        0.14109    0.27968    0.96226    1.000
    H16      H        0.14121    0.43993    0.95981    1.000
    C1       C        0.25012    0.00589    0.83379    1.000
    C2       C        0.25015    0.00581    0.73402    1.000
    C3       C        0.25022    0.00581    0.54354    1.000
    C4       C        0.25016    0.00596    0.15253    1.000
    C5       C        0.25020    0.00587    0.25230    1.000
    C6       C        0.25023    0.00581    0.44278    1.000
    C7       C        0.25017    0.16560    0.99329    1.000
    C8       C        0.25019    0.26535    0.99331    1.000
    C9       C        0.25023    0.45583    0.99326    1.000
    C10      C        0.25014    0.84687    0.99324    1.000
    C11      C        0.25018    0.74711    0.99325    1.000
    C12      C        0.25023    0.55662    0.99326    1.000
    C13      C        0.45984    0.91614    0.98126    1.000
    C14      C        0.45982    0.04203    0.07720    1.000
    C15      C        0.45979    0.06219    0.92031    1.000
    C16      C        0.04041    0.06366    0.92149    1.000
    C17      C        0.04037    0.91641    0.97948    1.000
    C18      C        0.04037    0.04033    0.07794    1.000
    C19      C        0.31121    0.98896    0.68562    1.000
    C20      C        0.31118    0.98839    0.59261    1.000
    C21      C        0.31102    0.02395    0.30072    1.000
    C22      C        0.31097    0.02448    0.39373    1.000
    C23      C        0.31121    0.31375    0.01030    1.000
    C24      C        0.31116    0.40676    0.01089    1.000
    C25      C        0.31117    0.69872    0.97607    1.000
    C26      C        0.31113    0.60570    0.97546    1.000
    C27      C        0.18914    0.02267    0.68554    1.000
    C28      C        0.18924    0.02324    0.59254    1.000
    C29      C        0.18940    0.98777    0.30075    1.000
    C30      C        0.18948    0.98716    0.39375    1.000
    C31      C        0.18922    0.69865    0.01045    1.000
    C32      C        0.18932    0.60566    0.01107    1.000
    C33      C        0.18919    0.31379    0.97627    1.000
    C34      C        0.18929    0.40679    0.97563    1.000
    N1       N        0.43318    0.00671    0.99295    1.000
    N2       N        0.06703    0.00673    0.99299    1.000
    O1       O        0.30754    0.88892    0.99293    1.000
    O2       O        0.19272    0.88888    0.99351    1.000
    O3       O        0.19274    0.00570    0.11052    1.000
    O4       O        0.19265    0.00624    0.87579    1.000
    O5       O        0.19267    0.12361    0.99302    1.000
    O6       O        0.30757    0.00635    0.11049    1.000
    O7       O        0.30756    0.00569    0.87581    1.000
    O8       O        0.30766    0.12361    0.99351    1.000
    H18      H        0.44026    0.87317    0.03501    1.000
    H19      H        0.44019    0.88820    0.91840    1.000
    H20      H        0.43978    0.10981    0.08781    1.000
    H21      H        0.44071    0.00125    0.13285    1.000
    H22      H        0.44026    0.03727    0.85619    1.000
    H23      H        0.44015    0.13059    0.92749    1.000
    H24      H        0.06024    0.13183    0.92982    1.000
    H25      H        0.05972    0.03981    0.85687    1.000
    H26      H        0.06030    0.88956    0.91629    1.000
    H27      H        0.05965    0.87251    0.03263    1.000
    H28      H        0.05968    0.99864    0.13278    1.000
    H29      H        0.06019    0.10801    0.08975    1.000
    Zn3      Zn       0.83309    0.00631    0.99311    1.000
    Zn4      Zn       0.66716    0.00629    0.99311    1.000
    H30      H        0.85938    0.97506    0.71973    1.000
    H31      H        0.85934    0.97276    0.55941    1.000
    H32      H        0.85893    0.03888    0.26655    1.000
    H33      H        0.85891    0.04101    0.42684    1.000
    H34      H        0.85926    0.27960    0.02424    1.000
    H35      H        0.85921    0.43989    0.02659    1.000
    H36      H        0.85920    0.73286    0.96179    1.000
    H37      H        0.85914    0.57259    0.95943    1.000
    H38      H        0.64109    0.03668    0.71957    1.000
    H39      H        0.64120    0.03891    0.55933    1.000
    H40      H        0.64146    0.97289    0.26666    1.000
    H41      H        0.64160    0.97058    0.42691    1.000
    H42      H        0.64113    0.73276    0.02457    1.000
    H43      H        0.64125    0.57254    0.02699    1.000
    H44      H        0.64104    0.27969    0.96226    1.000
    H45      H        0.64117    0.43994    0.95980    1.000
    C35      C        0.75019    0.00591    0.83376    1.000
    C36      C        0.75022    0.00583    0.73398    1.000
    C37      C        0.75027    0.00581    0.54351    1.000
    C38      C        0.75014    0.00596    0.15250    1.000
    C39      C        0.75019    0.00587    0.25227    1.000
    C40      C        0.75026    0.00580    0.44274    1.000
    C41      C        0.75012    0.16561    0.99326    1.000
    C42      C        0.75014    0.26536    0.99327    1.000
    C43      C        0.75019    0.45584    0.99321    1.000
    C44      C        0.75013    0.84688    0.99319    1.000
    C45      C        0.75016    0.74712    0.99320    1.000
    C46      C        0.75020    0.55663    0.99321    1.000
    C47      C        0.95984    0.91644    0.97923    1.000
    C48      C        0.95981    0.04012    0.07800    1.000
    C49      C        0.95979    0.06383    0.92160    1.000
    C50      C        0.54041    0.06200    0.92017    1.000
    C51      C        0.54037    0.91612    0.98153    1.000
    C52      C        0.54039    0.04227    0.07711    1.000
    C53      C        0.81127    0.98896    0.68558    1.000
    C54      C        0.81123    0.98838    0.59257    1.000
    C55      C        0.81103    0.02392    0.30067    1.000
    C56      C        0.81099    0.02444    0.39368    1.000
    C57      C        0.81117    0.31376    0.01024    1.000
    C58      C        0.81112    0.40677    0.01083    1.000
    C59      C        0.81114    0.69872    0.97598    1.000
    C60      C        0.81109    0.60571    0.97538    1.000
    C61      C        0.68921    0.02271    0.68551    1.000
    C62      C        0.68929    0.02327    0.59252    1.000
    C63      C        0.68939    0.98778    0.30073    1.000
    C64      C        0.68950    0.98717    0.39373    1.000
    C65      C        0.68920    0.69867    0.01040    1.000
    C66      C        0.68929    0.60567    0.01103    1.000
    C67      C        0.68914    0.31380    0.97625    1.000
    C68      C        0.68924    0.40680    0.97561    1.000
    N3       N        0.93318    0.00672    0.99296    1.000
    N4       N        0.56704    0.00672    0.99295    1.000
    O9       O        0.80753    0.88893    0.99290    1.000
    O10      O        0.69271    0.88889    0.99346    1.000
    O11      O        0.69272    0.00569    0.11049    1.000
    O12      O        0.69273    0.00626    0.87576    1.000
    O13      O        0.69262    0.12363    0.99298    1.000
    O14      O        0.80755    0.00636    0.11045    1.000
    O15      O        0.80764    0.00571    0.87577    1.000
    O16      O        0.80761    0.12362    0.99350    1.000
    H49      H        0.94029    0.87227    0.03201    1.000
    H50      H        0.94016    0.88991    0.91577    1.000
    H51      H        0.93979    0.10766    0.09012    1.000
    H52      H        0.94067    0.99810    0.13270    1.000
    H53      H        0.94026    0.04037    0.85693    1.000
    H54      H        0.94017    0.13206    0.93032    1.000
    H55      H        0.56027    0.13033    0.92690    1.000
    H56      H        0.55967    0.03663    0.85611    1.000
    H57      H        0.56029    0.88782    0.91897    1.000
    H58      H        0.55968    0.87345    0.03566    1.000
    H59      H        0.55972    0.00189    0.13290    1.000
    H60      H        0.56018    0.11022    0.08734    1.000
