data_functionalizedCrystal
_audit_creation_method	'EQeq! by Chris Wilmer'
_symmetry_space_group_name_H-M	'P1'
_symmetry_Int_Tables_number	1
_symmetry_cell_setting	triclinic
loop_
_symmetry_equiv_pos_as_xyz
  x,y,z
_cell_length_a	11.521
_cell_length_b	14.008
_cell_length_c	15.701
_cell_angle_alpha	96.679
_cell_angle_beta	90
_cell_angle_gamma	90
loop_
_atom_site_label
_atom_site_type_symbol
_atom_site_fract_x
_atom_site_fract_y
_atom_site_fract_z
_atom_site_charge
Mof_Zn	Zn	0.0952	0.1957	0.98308	1.201
Mof_Zn	Zn	0.0956	0.4046	0.0021	1.197
Mof_H 	H 	0.4069	0.1799	0.1516	0.041
Mof_H 	H 	0.5202	0.1746	0.2747	0.063
Mof_H 	H 	0.389	0.4319	0.3747	0.056
Mof_H 	H 	0.2758	0.4372	0.2516	0.033
Mof_H 	H 	0.7964	0.2966	0.4956	0.051
Mof_H 	H 	0.3991	0.2776	0.4834	0.055
Mof_H 	H 	0.8105	0.4125	0.6367	0.077
Mof_H 	H 	0.9265	0.4121	0.766	0.029
Mof_H 	H 	0.7645	0.1677	0.8072	0.009
Mof_H 	H 	0.66	0.1657	0.6854	0.089
Mof_H 	H 	0.8016	0.1642	0.328	0.138
Mof_H 	H 	0.8986	0.1702	0.2103	-0.024
Mof_H 	H 	0.7717	0.4285	0.1864	0.001
Mof_H 	H 	0.6595	0.4156	0.3107	0.111
Mof_H 	H 	0.3684	0.1678	0.6097	0.07
Mof_H 	H 	0.2872	0.1547	0.736	0.019
Mof_H 	H 	0.4044	0.4197	0.8273	0.03
Mof_H 	H 	0.5337	0.4028	0.7172	0.077
Mof_H 	H 	0.2721	0.5678	0.9912	0.028
Mof_H 	H 	0.2678	0.7168	0.0285	0.03
Mof_H 	H 	0.9174	0.7388	0.9986	0.04
Mof_H 	H 	0.9328	0.5649	0.021	0.101
Mof_H 	H 	0.265	0.8522	0.9724	0.074
Mof_H 	H 	0.251	0.0352	0.9286	0.016
Mof_H 	H 	0.952	0.0388	0.0375	0.048
Mof_H 	H 	0.941	0.8786	0.0738	0.153
Mof_C 	C 	0.24	0.313	0.114	0.337
Mof_C 	C 	0.3307	0.309	0.19	-0.071
Mof_C 	C 	0.4033	0.231	0.1969	0.012
Mof_C 	C 	0.4706	0.2279	0.27	-0.089
Mof_C 	C 	0.4652	0.3027	0.3363	0.033
Mof_C 	C 	0.3927	0.3807	0.3294	-0.091
Mof_C 	C 	0.3254	0.3839	0.2563	0.007
Mof_C 	C 	0.532	0.281	0.415	0.025
Mof_C 	C 	0.649	0.302	0.411	-0.062
Mof_C 	C 	0.714	0.292	0.493	-0.041
Mof_C 	C 	0.65	0.275	0.566	-0.021
Mof_C 	C 	0.525	0.295	0.569	-0.006
Mof_C 	C 	0.481	0.284	0.487	-0.081
Mof_C 	C 	0.727	0.288	0.65	0.09
Mof_C 	C 	0.804	0.362	0.672	-0.135
Mof_C 	C 	0.874	0.361	0.748	0.078
Mof_C 	C 	0.862	0.286	0.789	-0.152
Mof_C 	C 	0.777	0.216	0.77	0.097
Mof_C 	C 	0.714	0.216	0.701	-0.157
Mof_C 	C 	0.732	0.293	0.333	0.197
Mof_C 	C 	0.799	0.221	0.301	-0.304
Mof_C 	C 	0.86	0.227	0.235	0.23
Mof_C 	C 	0.874	0.304	0.197	-0.215
Mof_C 	C 	0.783	0.377	0.22	0.124
Mof_C 	C 	0.716	0.368	0.292	-0.221
Mof_C 	C 	0.464	0.276	0.647	0.069
Mof_C 	C 	0.386	0.215	0.657	-0.135
Mof_C 	C 	0.328	0.212	0.729	0.043
Mof_C 	C 	0.319	0.297	0.806	-0.134
Mof_C 	C 	0.399	0.363	0.788	0.06
Mof_C 	C 	0.474	0.356	0.719	-0.117
Mof_C 	C 	0.201	0.601	0.0019	0.003
Mof_C 	C 	0.197	0.685	0.012	-0.024
Mof_C 	C 	0.101	0.745	0.0023	-0.088
Mof_C 	C 	0.989	0.705	0.0027	0.085
Mof_C 	C 	0.002	0.599	0.011	-0.118
Mof_C 	C 	0.085	0.852	0.001	0.122
Mof_C 	C 	0.196	0.889	0.977	-0.119
Mof_C 	C 	0.19	0.006	0.957	0.026
Mof_C 	C 	0.018	0.001	0.02	0.03
Mof_C 	C 	0.001	0.902	0.04	-0.242
Mof_C 	C 	0.246	0.296	0.869	0.297
Mof_C 	C 	0.937	0.306	0.116	0.394
Mof_C 	C 	0.946	0.283	0.875	0.549
Mof_N 	N 	0.097	0.5499	0.0062	-0.213
Mof_N 	N 	0.094	0.0553	0.9857	-0.258
Mof_O 	O 	0.229	0.385	0.0862	-0.457
Mof_O 	O 	0.2291	0.2232	0.0674	-0.417
Mof_O 	O 	0.232	0.376	0.9197	-0.422
Mof_O 	O 	0.2338	0.209	0.9036	-0.402
Mof_O 	O 	0.9912	0.2347	0.0854	-0.463
Mof_O 	O 	0.986	0.39	0.1012	-0.416
Mof_O 	O 	0.9833	0.364	0.9047	-0.507
Mof_O 	O 	0.9834	0.216	0.8877	-0.564
Mof_Zn	Zn	0.5952	0.8043	0.01692	1.217
Mof_Zn	Zn	0.5956	0.5954	0.9979	1.213
Mof_H 	H 	0.9069	0.8201	0.8484	0.062
Mof_H 	H 	0.0202	0.8254	0.7253	0.017
Mof_H 	H 	0.889	0.5681	0.6253	0.086
Mof_H 	H 	0.7758	0.5628	0.7484	0.029
Mof_H 	H 	0.2964	0.7034	0.5044	0.073
Mof_H 	H 	0.8991	0.7224	0.5166	-0.041
Mof_H 	H 	0.3105	0.5875	0.3633	0.065
Mof_H 	H 	0.4265	0.5879	0.234	0.024
Mof_H 	H 	0.2645	0.8323	0.1928	0.009
Mof_H 	H 	0.16	0.8343	0.3146	0.066
Mof_H 	H 	0.3016	0.8358	0.672	0.103
Mof_H 	H 	0.3986	0.8298	0.7897	-0.01
Mof_H 	H 	0.2717	0.5715	0.8136	0.011
Mof_H 	H 	0.1595	0.5844	0.6893	0.075
Mof_H 	H 	0.8684	0.8322	0.3903	0.118
Mof_H 	H 	0.7872	0.8453	0.264	0.006
Mof_H 	H 	0.9044	0.5803	0.1727	0.041
Mof_H 	H 	0.0337	0.5972	0.2828	0.032
Mof_H 	H 	0.7721	0.4322	0.0088	-0.011
Mof_H 	H 	0.7678	0.2832	0.9715	0.077
Mof_H 	H 	0.4174	0.2612	0.0014	0.1
Mof_H 	H 	0.4328	0.4351	0.979	0.009
Mof_H 	H 	0.765	0.1478	0.0276	0.063
Mof_H 	H 	0.751	0.9648	0.0714	0.022
Mof_H 	H 	0.452	0.9612	0.9625	-0.004
Mof_H 	H 	0.441	0.1214	0.9262	0.092
Mof_C 	C 	0.74	0.687	0.886	0.347
Mof_C 	C 	0.8307	0.691	0.81	-0.069
Mof_C 	C 	0.9033	0.769	0.8031	0
Mof_C 	C 	0.9706	0.7721	0.73	-0.036
Mof_C 	C 	0.9652	0.6973	0.6637	0.145
Mof_C 	C 	0.8927	0.6193	0.6706	-0.144
Mof_C 	C 	0.8254	0.6161	0.7437	0.039
Mof_C 	C 	0.032	0.719	0.585	-0.238
Mof_C 	C 	0.149	0.698	0.589	0.049
Mof_C 	C 	0.214	0.708	0.507	-0.127
Mof_C 	C 	0.15	0.725	0.434	0.061
Mof_C 	C 	0.025	0.705	0.431	-0.246
Mof_C 	C 	0.981	0.716	0.513	0.261
Mof_C 	C 	0.227	0.712	0.35	0.046
Mof_C 	C 	0.304	0.638	0.328	-0.115
Mof_C 	C 	0.374	0.639	0.252	0.062
Mof_C 	C 	0.362	0.714	0.211	-0.151
Mof_C 	C 	0.277	0.784	0.23	0.076
Mof_C 	C 	0.214	0.784	0.299	-0.134
Mof_C 	C 	0.232	0.707	0.667	0.106
Mof_C 	C 	0.299	0.779	0.699	-0.221
Mof_C 	C 	0.36	0.773	0.765	0.161
Mof_C 	C 	0.374	0.696	0.803	-0.185
Mof_C 	C 	0.283	0.623	0.78	0.077
Mof_C 	C 	0.216	0.632	0.708	-0.163
Mof_C 	C 	0.964	0.724	0.353	0.214
Mof_C 	C 	0.886	0.785	0.343	-0.242
Mof_C 	C 	0.828	0.788	0.271	0.107
Mof_C 	C 	0.819	0.703	0.194	-0.145
Mof_C 	C 	0.899	0.637	0.212	0.057
Mof_C 	C 	0.974	0.644	0.281	-0.075
Mof_C 	C 	0.701	0.399	0.9981	0.118
Mof_C 	C 	0.697	0.315	0.988	-0.167
Mof_C 	C 	0.601	0.255	0.9977	0.067
Mof_C 	C 	0.489	0.295	0.9973	-0.119
Mof_C 	C 	0.502	0.401	0.989	0.084
Mof_C 	C 	0.585	0.148	0.999	0.051
Mof_C 	C 	0.696	0.111	0.023	-0.091
Mof_C 	C 	0.69	0.994	0.043	0.027
Mof_C 	C 	0.518	0.999	0.98	0.094
Mof_C 	C 	0.501	0.098	0.96	-0.139
Mof_C 	C 	0.746	0.704	0.131	0.313
Mof_C 	C 	0.437	0.694	0.884	0.387
Mof_C 	C 	0.446	0.717	0.125	0.56
Mof_N 	N 	0.597	0.4501	0.9938	-0.257
Mof_N 	N 	0.594	0.9447	0.0143	-0.254
Mof_O 	O 	0.729	0.615	0.9138	-0.449
Mof_O 	O 	0.7291	0.7768	0.9326	-0.404
Mof_O 	O 	0.732	0.624	0.0803	-0.417
Mof_O 	O 	0.7338	0.791	0.0964	-0.394
Mof_O 	O 	0.4912	0.7653	0.9146	-0.484
Mof_O 	O 	0.486	0.61	0.8988	-0.438
Mof_O 	O 	0.4833	0.636	0.0953	-0.534
Mof_O 	O 	0.4834	0.784	0.1123	-0.594
_end
