# CIF file generated by openbabel 3.1.0, see https://openbabel.org
data_I
_chemical_name_common 'image0'
_cell_length_a 15.1394
_cell_length_b 16.567
_cell_length_c 17.868
_cell_angle_alpha 95.399
_cell_angle_beta 97.074
_cell_angle_gamma 102.332
_space_group_name_H-M_alt 'P 1'
_space_group_name_Hall 'P 1'
loop_
    _symmetry_equiv_pos_as_xyz
    x,y,z
loop_
    _atom_site_label
    _atom_site_type_symbol
    _atom_site_fract_x
    _atom_site_fract_y
    _atom_site_fract_z
    _atom_site_occupancy
    Cd1      Cd       0.31397    0.01764    0.36623    1.000
    Cd2      Cd       0.86837    0.63416    0.07436    1.000
    C1       C        0.57390    0.68680    0.14180    1.000
    H1       H        0.57770    0.63480    0.15570    1.000
    C2       C        0.51380    0.38540    0.61520    1.000
    C3       C        0.76890    0.47730    0.77240    1.000
    H2       H        0.82620    0.46870    0.76540    1.000
    C4       C        0.49490    0.72040    0.15290    1.000
    H3       H        0.44620    0.68880    0.17210    1.000
    C5       C        0.69410    0.45710    0.71320    1.000
    H4       H        0.70040    0.42970    0.66700    1.000
    C6       C        0.59310    0.50130    0.79470    1.000
    H5       H        0.53450    0.50390    0.80350    1.000
    C7       C        0.61320    0.47690    0.72230    1.000
    C8       C        0.47210    0.38810    0.54100    1.000
    H6       H        0.46740    0.43890    0.52480    1.000
    C9       C        0.53250    0.31110    0.63240    1.000
    H7       H        0.56920    0.31000    0.67780    1.000
    C10      C        0.49200    0.79740    0.13560    1.000
    C11      C        0.66170    0.51950    0.84720    1.000
    H8       H        0.65260    0.54120    0.89480    1.000
    C12      C        0.30020    0.73080    0.07960    1.000
    H9       H        0.33930    0.71110    0.05000    1.000
    C13      C        0.55890    0.83970    0.10430    1.000
    H10      H        0.55630    0.89260    0.09200    1.000
    C14      C        0.64220    0.73280    0.11060    1.000
    C15      C        0.75240    0.50930    0.83880    1.000
    C16      C        0.07960    0.54760    0.71850    1.000
    H11      H        0.09280    0.49930    0.69640    1.000
    C17      C        0.81990    0.53050    0.90760    1.000
    C18      C        0.43750    0.31400    0.49110    1.000
    H12      H        0.40570    0.31560    0.44350    1.000
    C19      C        0.06420    0.60800    0.67440    1.000
    H13      H        0.06520    0.59980    0.62230    1.000
    C20      C        0.21000    0.69830    0.06530    1.000
    H14      H        0.18690    0.65370    0.02730    1.000
    C21      C        0.07220    0.80180    0.55740    1.000
    H15      H        0.01000    0.79410    0.54040    1.000
    C22      C        0.09320    0.49150    0.84180    1.000
    C23      C        0.33500    0.79470    0.13960    1.000
    C24      C        0.49780    0.23730    0.58330    1.000
    H16      H        0.50640    0.18690    0.59820    1.000
    C25      C        0.18670    0.79460    0.16580    1.000
    H17      H        0.14720    0.81610    0.19370    1.000
    C26      C        0.72670    0.70030    0.09650    1.000
    C27      C        0.45050    0.23940    0.51230    1.000
    C28      C        0.15170    0.73010    0.10590    1.000
    C29      C        0.07540    0.55790    0.79560    1.000
    C30      C        0.04740    0.68080    0.70730    1.000
    C31      C        0.05420    0.69760    0.08580    1.000
    C32      C        0.27660    0.82480    0.18250    1.000
    H18      H        0.30000    0.86630    0.22320    1.000
    C33      C        0.04370    0.69170    0.78540    1.000
    H19      H        0.03280    0.74090    0.80800    1.000
    C34      C        0.09990    0.77470    0.62220    1.000
    C35      C        0.63220    0.80790    0.08960    1.000
    H20      H        0.67620    0.83820    0.06470    1.000
    C36      C        0.05620    0.63010    0.82850    1.000
    H21      H        0.05170    0.63660    0.88010    1.000
    C37      C        0.13560    0.84130    0.51550    1.000
    H22      H        0.11600    0.86040    0.47050    1.000
    C38      C        0.65010    0.04510    0.17990    1.000
    H23      H        0.65990    0.07480    0.13890    1.000
    C39      C        0.19300    0.78530    0.64890    1.000
    H24      H        0.21160    0.76580    0.69400    1.000
    C40      C        0.99220    0.04900    0.29840    1.000
    H25      H        0.01770    0.08410    0.34310    1.000
    C41      C        0.69770    0.95590    0.26890    1.000
    H26      H        0.73890    0.92520    0.28650    1.000
    C42      C        0.57380    0.04620    0.21550    1.000
    H27      H        0.53280    0.07720    0.19820    1.000
    C43      C        0.25680    0.82490    0.60770    1.000
    H28      H        0.31880    0.83290    0.62530    1.000
    C44      C        0.40680    0.15970    0.46210    1.000
    C45      C        0.29820    0.89690    0.49630    1.000
    C46      C        0.71150    0.99930    0.20590    1.000
    C47      C        0.22890    0.85250    0.54060    1.000
    C48      C        0.00570    0.94850    0.19790    1.000
    H29      H        0.04030    0.91610    0.17470    1.000
    C49      C        0.86650    0.99360    0.19990    1.000
    C50      C        0.62250    0.95930    0.30430    1.000
    H30      H        0.61490    0.93270    0.34740    1.000
    C51      C        0.91620    0.94430    0.16490    1.000
    H31      H        0.89060    0.90900    0.12040    1.000
    C52      C        0.90260    0.04590    0.26640    1.000
    H32      H        0.86800    0.07840    0.28930    1.000
    C53      C        0.55780    0.00170    0.27700    1.000
    C54      C        0.04370    0.00010    0.26440    1.000
    C55      C        0.47400    0.00010    0.31180    1.000
    C56      C        0.13930    0.00370    0.30100    1.000
    O1       O        0.55500    0.46330    0.64890    1.000
    O2       O        0.73330    0.63220    0.12090    1.000
    O3       O        0.10230    0.42360    0.80980    1.000
    O4       O        0.42410    0.83390    0.15760    1.000
    O5       O        0.80320    0.58000    0.95970    1.000
    O6       O        0.99970    0.72790    0.12480    1.000
    O7       O        0.03310    0.74220    0.66500    1.000
    O8       O        0.01960    0.64110    0.03030    1.000
    O9       O        0.36780    0.16450    0.39710    1.000
    O10      O        0.10190    0.50530    0.91400    1.000
    O11      O        0.17060    0.05240    0.36060    1.000
    O12      O        0.77970    0.73780    0.06310    1.000
    O13      O        0.26690    0.91880    0.43370    1.000
    O14      O        0.89020    0.50220    0.90700    1.000
    O15      O        0.40650    0.09340    0.48710    1.000
    O16      O        0.46130    0.96260    0.36960    1.000
    O17      O        0.18660    0.96200    0.26940    1.000
    O18      O        0.41340    0.03370    0.28100    1.000
    O19      O        0.78020    0.99200    0.16320    1.000
    O20      O        0.38130    0.90830    0.52290    1.000
    Cd3      Cd       0.68603    0.98236    0.63377    1.000
    Cd4      Cd       0.13163    0.36584    0.92564    1.000
    C57      C        0.42610    0.31320    0.85820    1.000
    H33      H        0.42230    0.36520    0.84430    1.000
    C58      C        0.48620    0.61460    0.38480    1.000
    C59      C        0.23110    0.52270    0.22760    1.000
    H34      H        0.17380    0.53130    0.23460    1.000
    C60      C        0.50510    0.27960    0.84710    1.000
    H35      H        0.55380    0.31120    0.82790    1.000
    C61      C        0.30590    0.54290    0.28680    1.000
    H36      H        0.29960    0.57030    0.33300    1.000
    C62      C        0.40690    0.49870    0.20530    1.000
    H37      H        0.46550    0.49610    0.19650    1.000
    C63      C        0.38680    0.52310    0.27770    1.000
    C64      C        0.52790    0.61190    0.45900    1.000
    H38      H        0.53260    0.56110    0.47520    1.000
    C65      C        0.46750    0.68890    0.36760    1.000
    H39      H        0.43080    0.69000    0.32220    1.000
    C66      C        0.50800    0.20260    0.86440    1.000
    C67      C        0.33830    0.48050    0.15280    1.000
    H40      H        0.34740    0.45880    0.10520    1.000
    C68      C        0.69980    0.26920    0.92040    1.000
    H41      H        0.66070    0.28890    0.95000    1.000
    C69      C        0.44110    0.16030    0.89570    1.000
    H42      H        0.44370    0.10740    0.90800    1.000
    C70      C        0.35780    0.26720    0.88940    1.000
    C71      C        0.24760    0.49070    0.16120    1.000
    C72      C        0.92040    0.45240    0.28150    1.000
    H43      H        0.90720    0.50070    0.30360    1.000
    C73      C        0.18010    0.46950    0.09240    1.000
    C74      C        0.56250    0.68600    0.50890    1.000
    H44      H        0.59430    0.68440    0.55650    1.000
    C75      C        0.93580    0.39200    0.32560    1.000
    H45      H        0.93480    0.40020    0.37770    1.000
    C76      C        0.79000    0.30170    0.93470    1.000
    H46      H        0.81310    0.34630    0.97270    1.000
    C77      C        0.92780    0.19820    0.44260    1.000
    H47      H        0.99000    0.20590    0.45960    1.000
    C78      C        0.90680    0.50850    0.15820    1.000
    C79      C        0.66500    0.20530    0.86040    1.000
    C80      C        0.50220    0.76270    0.41670    1.000
    H48      H        0.49360    0.81310    0.40180    1.000
    C81      C        0.81330    0.20540    0.83420    1.000
    H49      H        0.85280    0.18390    0.80630    1.000
    C82      C        0.27330    0.29970    0.90350    1.000
    C83      C        0.54950    0.76060    0.48770    1.000
    C84      C        0.84830    0.26990    0.89410    1.000
    C85      C        0.92460    0.44210    0.20440    1.000
    C86      C        0.95260    0.31920    0.29270    1.000
    C87      C        0.94580    0.30240    0.91420    1.000
    C88      C        0.72340    0.17520    0.81750    1.000
    H50      H        0.70000    0.13370    0.77680    1.000
    C89      C        0.95630    0.30830    0.21460    1.000
    H51      H        0.96720    0.25910    0.19200    1.000
    C90      C        0.90010    0.22530    0.37780    1.000
    C91      C        0.36780    0.19210    0.91040    1.000
    H52      H        0.32380    0.16180    0.93530    1.000
    C92      C        0.94380    0.36990    0.17150    1.000
    H53      H        0.94830    0.36340    0.11990    1.000
    C93      C        0.86440    0.15870    0.48450    1.000
    H54      H        0.88400    0.13960    0.52950    1.000
    C94      C        0.34990    0.95490    0.82010    1.000
    H55      H        0.34010    0.92520    0.86110    1.000
    C95      C        0.80700    0.21470    0.35110    1.000
    H56      H        0.78840    0.23420    0.30600    1.000
    C96      C        0.00780    0.95100    0.70160    1.000
    H57      H        0.98230    0.91590    0.65690    1.000
    C97      C        0.30230    0.04410    0.73110    1.000
    H58      H        0.26110    0.07480    0.71350    1.000
    C98      C        0.42620    0.95380    0.78450    1.000
    H59      H        0.46720    0.92280    0.80180    1.000
    C99      C        0.74320    0.17510    0.39230    1.000
    H60      H        0.68120    0.16710    0.37470    1.000
    C100     C        0.59320    0.84030    0.53790    1.000
    C101     C        0.70180    0.10310    0.50370    1.000
    C102     C        0.28850    0.00070    0.79410    1.000
    C103     C        0.77110    0.14750    0.45940    1.000
    C104     C        0.99430    0.05150    0.80210    1.000
    H61      H        0.95970    0.08390    0.82530    1.000
    C105     C        0.13350    0.00640    0.80010    1.000
    C106     C        0.37750    0.04070    0.69570    1.000
    H62      H        0.38510    0.06730    0.65260    1.000
    C107     C        0.08380    0.05570    0.83510    1.000
    H63      H        0.10940    0.09100    0.87960    1.000
    C108     C        0.09740    0.95410    0.73360    1.000
    H64      H        0.13200    0.92160    0.71070    1.000
    C109     C        0.44220    0.99830    0.72300    1.000
    C110     C        0.95630    0.99990    0.73560    1.000
    C111     C        0.52600    0.99990    0.68820    1.000
    C112     C        0.86070    0.99630    0.69900    1.000
    O21      O        0.44500    0.53670    0.35110    1.000
    O22      O        0.26670    0.36780    0.87910    1.000
    O23      O        0.89770    0.57640    0.19020    1.000
    O24      O        0.57590    0.16610    0.84240    1.000
    O25      O        0.19680    0.42000    0.04030    1.000
    O26      O        0.00030    0.27210    0.87520    1.000
    O27      O        0.96690    0.25780    0.33500    1.000
    O28      O        0.98040    0.35890    0.96970    1.000
    O29      O        0.63220    0.83550    0.60290    1.000
    O30      O        0.89810    0.49470    0.08600    1.000
    O31      O        0.82940    0.94760    0.63940    1.000
    O32      O        0.22030    0.26220    0.93690    1.000
    O33      O        0.73310    0.08120    0.56630    1.000
    O34      O        0.10980    0.49780    0.09300    1.000
    O35      O        0.59350    0.90660    0.51290    1.000
    O36      O        0.53870    0.03740    0.63040    1.000
    O37      O        0.81340    0.03800    0.73060    1.000
    O38      O        0.58660    0.96630    0.71900    1.000
    O39      O        0.21980    0.00800    0.83680    1.000
    O40      O        0.61870    0.09170    0.47710    1.000
    Cd5      Cd       0.50000    0.00000    0.50000    1.000
    Cd6      Cd       0.00000    0.50000    0.00000    1.000
