data_functionalizedCrystal
_audit_creation_method	'EQeq! by Chris Wilmer'
_symmetry_space_group_name_H-M	'P1'
_symmetry_Int_Tables_number	1
_symmetry_cell_setting	triclinic
loop_
_symmetry_equiv_pos_as_xyz
  x,y,z
_cell_length_a	6.9437
_cell_length_b	13.3226
_cell_length_c	16.3848
_cell_angle_alpha	90
_cell_angle_beta	90
_cell_angle_gamma	90
loop_
_atom_site_label
_atom_site_type_symbol
_atom_site_fract_x
_atom_site_fract_y
_atom_site_fract_z
_atom_site_charge
Mof_Cd	Cd	0.5	0.22364	0.34059	0.463
Mof_Cd	Cd	7.43697e-33	0.27636	0.84059	0.415
Mof_Cd	Cd	-1.52441e-32	0.72364	0.15941	0.414
Mof_Cd	Cd	0.5	0.77636	0.65941	0.462
Mof_H 	H 	-5.33327e-33	0.0152	0.3384	0.086
Mof_H 	H 	2.25078e-32	0.9848	0.6616	0.086
Mof_H 	H 	-4.32556e-33	0.7484	0.4523	0.072
Mof_H 	H 	0.5	0.7516	0.9523	0.077
Mof_H 	H 	0.5	0.5152	0.1616	0.099
Mof_H 	H 	0.5	0.4848	0.8384	0.099
Mof_H 	H 	0.5	0.2484	0.0477	0.077
Mof_H 	H 	4.84568e-33	0.2516	0.5477	0.072
Mof_C 	C 	0.5	0.3181	0.0445	-0.006
Mof_C 	C 	2.2115e-32	0.1234	0.6172	-0.033
Mof_C 	C 	3.66956e-32	0.8766	0.3828	-0.033
Mof_C 	C 	-2.09517e-32	0.8181	0.4555	-0.011
Mof_C 	C 	0.5	0.4782	0.1135	-0.065
Mof_C 	C 	0.5	0.6771	0.8014	0.285
Mof_C 	C 	0.5	0.364	0.97	-0.083
Mof_C 	C 	0.5	0.3229	0.1986	0.285
Mof_C 	C 	-1.19653e-32	0.864	0.53	-0.08
Mof_C 	C 	0.5	0.3766	0.1172	-0.023
Mof_C 	C 	5.42783e-33	0.0218	0.6135	-0.064
Mof_C 	C 	-1.1837e-32	0.1819	0.5445	-0.011
Mof_C 	C 	-5.66062e-33	0.8229	0.3014	0.287
Mof_C 	C 	0.5	0.636	0.03	-0.083
Mof_C 	C 	-4.16896e-33	0.136	0.47	-0.08
Mof_C 	C 	3.41949e-33	0.9782	0.3865	-0.064
Mof_C 	C 	0.5	0.5296	0.0366	0.044
Mof_C 	C 	0.5	0.4704	0.9634	0.044
Mof_C 	C 	-1.04737e-32	0.1771	0.6986	0.287
Mof_C 	C 	0.5	0.6819	0.9555	-0.006
Mof_C 	C 	2.14019e-32	0.9704	0.5366	0.035
Mof_C 	C 	0.5	0.5218	0.8865	-0.065
Mof_C 	C 	-1.25546e-32	0.0296	0.4634	0.035
Mof_C 	C 	0.5	0.6234	0.8828	-0.023
Mof_S 	S 	0.5	0.71573	0.1182	0.482
Mof_S 	S 	0.5	0.28427	0.8818	0.482
Mof_S 	S 	3.37791e-33	0.21573	0.3818	0.415
Mof_S 	S 	2.21238e-32	0.78427	0.6182	0.415
Mof_O 	O 	0.3287	0.6905	0.1655	-0.266
Mof_O 	O 	0.3287	0.3095	0.8345	-0.266
Mof_O 	O 	1.04214e-32	0.8729	0.2367	-0.25
Mof_O 	O 	2.18504e-32	0.6833	0.5873	-0.235
Mof_O 	O 	1.19785e-32	0.3167	0.4127	-0.235
Mof_O 	O 	0.8287	0.8095	0.6655	-0.208
Mof_O 	O 	0.8287	0.1905	0.3345	-0.208
Mof_O 	O 	0.5	0.3729	0.2633	-0.232
Mof_O 	O 	0.1713	0.8095	0.6655	-0.259
Mof_O 	O 	0.5	0.8167	0.0873	-0.225
Mof_O 	O 	-1.04728e-32	0.271	0.6987	-0.247
Mof_O 	O 	0.5	0.1833	0.9127	-0.225
Mof_O 	O 	-2.23159e-32	0.729	0.3013	-0.247
Mof_O 	O 	0.5	0.6271	0.7367	-0.232
Mof_O 	O 	0.5	0.229	0.1987	-0.233
Mof_O 	O 	6.75316e-33	0.1271	0.7633	-0.25
Mof_O 	O 	0.1713	0.1905	0.3345	-0.259
Mof_O 	O 	0.6713	0.3095	0.8345	-0.239
Mof_O 	O 	0.6713	0.6905	0.1655	-0.239
Mof_O 	O 	0.5	0.771	0.8013	-0.233
_end
