# CIF file generated by openbabel 3.1.0, see https://openbabel.org
data_I
_chemical_name_common 'image0'
_cell_length_a 10.7675
_cell_length_b 10.7675
_cell_length_c 13.994
_cell_angle_alpha 90
_cell_angle_beta 90
_cell_angle_gamma 90
_space_group_name_H-M_alt 'P 1'
_space_group_name_Hall 'P 1'
loop_
    _symmetry_equiv_pos_as_xyz
    x,y,z
loop_
    _atom_site_label
    _atom_site_type_symbol
    _atom_site_fract_x
    _atom_site_fract_y
    _atom_site_fract_z
    _atom_site_occupancy
    Ag1      Ag       0.50000    0.50000    0.18206    1.000
    Ag2      Ag       0.50000    0.50000    0.81794    1.000
    N1       N        0.11010    0.11010    0.54960    1.000
    N2       N        0.35050    0.35050    0.77600    1.000
    N3       N        0.16960    0.16960    0.74240    1.000
    C1       C        0.19060    0.19060    0.57460    1.000
    C2       C        0.22830    0.22830    0.67220    1.000
    C3       C        0.31580    0.31580    0.68860    1.000
    H1       H        0.35350    0.35350    0.63640    1.000
    C4       C        0.29190    0.29190    0.84590    1.000
    H2       H        0.31170    0.31170    0.90880    1.000
    C5       C        0.20470    0.20470    0.82940    1.000
    H3       H        0.16700    0.16700    0.88170    1.000
    N4       N        0.88990    0.88990    0.54960    1.000
    N5       N        0.64950    0.64950    0.77600    1.000
    N6       N        0.83040    0.83040    0.74240    1.000
    C6       C        0.80940    0.80940    0.57460    1.000
    C7       C        0.77170    0.77170    0.67220    1.000
    C8       C        0.68420    0.68420    0.68860    1.000
    H4       H        0.64650    0.64650    0.63640    1.000
    C9       C        0.70810    0.70810    0.84590    1.000
    H5       H        0.68830    0.68830    0.90880    1.000
    C10      C        0.79530    0.79530    0.82940    1.000
    H6       H        0.83300    0.83300    0.88170    1.000
    N7       N        0.88990    0.88990    0.45040    1.000
    N8       N        0.64950    0.64950    0.22400    1.000
    N9       N        0.83040    0.83040    0.25760    1.000
    C11      C        0.80940    0.80940    0.42540    1.000
    C12      C        0.77170    0.77170    0.32780    1.000
    C13      C        0.68420    0.68420    0.31140    1.000
    H7       H        0.64650    0.64650    0.36360    1.000
    C14      C        0.70810    0.70810    0.15410    1.000
    H8       H        0.68830    0.68830    0.09120    1.000
    C15      C        0.79530    0.79530    0.17060    1.000
    H9       H        0.83300    0.83300    0.11830    1.000
    N10      N        0.11010    0.11010    0.45040    1.000
    N11      N        0.35050    0.35050    0.22400    1.000
    N12      N        0.16960    0.16960    0.25760    1.000
    C16      C        0.19060    0.19060    0.42540    1.000
    C17      C        0.22830    0.22830    0.32780    1.000
    C18      C        0.31580    0.31580    0.31140    1.000
    H10      H        0.35350    0.35350    0.36360    1.000
    C19      C        0.29190    0.29190    0.15410    1.000
    H11      H        0.31170    0.31170    0.09120    1.000
    C20      C        0.20470    0.20470    0.17060    1.000
    H12      H        0.16700    0.16700    0.11830    1.000
    O1       O        0.24590    0.24590    0.50000    1.000
    O2       O        0.75410    0.75410    0.50000    1.000
    Ag3      Ag       0.00000    0.00000    0.68206    1.000
    Ag4      Ag       0.00000    0.00000    0.31794    1.000
    N13      N        0.61010    0.38990    0.04960    1.000
    N14      N        0.85050    0.14950    0.27600    1.000
    N15      N        0.66960    0.33040    0.24240    1.000
    C21      C        0.69060    0.30940    0.07460    1.000
    C22      C        0.72830    0.27170    0.17220    1.000
    C23      C        0.81580    0.18420    0.18860    1.000
    H13      H        0.85350    0.14650    0.13640    1.000
    C24      C        0.79190    0.20810    0.34590    1.000
    H14      H        0.81170    0.18830    0.40880    1.000
    C25      C        0.70470    0.29530    0.32940    1.000
    H15      H        0.66700    0.33300    0.38170    1.000
    N16      N        0.38990    0.61010    0.04960    1.000
    N17      N        0.14950    0.85050    0.27600    1.000
    N18      N        0.33040    0.66960    0.24240    1.000
    C26      C        0.30940    0.69060    0.07460    1.000
    C27      C        0.27170    0.72830    0.17220    1.000
    C28      C        0.18420    0.81580    0.18860    1.000
    H16      H        0.14650    0.85350    0.13640    1.000
    C29      C        0.20810    0.79190    0.34590    1.000
    H17      H        0.18830    0.81170    0.40880    1.000
    C30      C        0.29530    0.70470    0.32940    1.000
    H18      H        0.33300    0.66700    0.38170    1.000
    N19      N        0.38990    0.61010    0.95040    1.000
    N20      N        0.14950    0.85050    0.72400    1.000
    N21      N        0.33040    0.66960    0.75760    1.000
    C31      C        0.30940    0.69060    0.92540    1.000
    C32      C        0.27170    0.72830    0.82780    1.000
    C33      C        0.18420    0.81580    0.81140    1.000
    H19      H        0.14650    0.85350    0.86360    1.000
    C34      C        0.20810    0.79190    0.65410    1.000
    H20      H        0.18830    0.81170    0.59120    1.000
    C35      C        0.29530    0.70470    0.67060    1.000
    H21      H        0.33300    0.66700    0.61830    1.000
    N22      N        0.61010    0.38990    0.95040    1.000
    N23      N        0.85050    0.14950    0.72400    1.000
    N24      N        0.66960    0.33040    0.75760    1.000
    C36      C        0.69060    0.30940    0.92540    1.000
    C37      C        0.72830    0.27170    0.82780    1.000
    C38      C        0.81580    0.18420    0.81140    1.000
    H22      H        0.85350    0.14650    0.86360    1.000
    C39      C        0.79190    0.20810    0.65410    1.000
    H23      H        0.81170    0.18830    0.59120    1.000
    C40      C        0.70470    0.29530    0.67060    1.000
    H24      H        0.66700    0.33300    0.61830    1.000
    O3       O        0.74590    0.25410    0.00000    1.000
    O4       O        0.25410    0.74590    0.00000    1.000
