data_functionalizedCrystal
_audit_creation_method	'EQeq! by Chris Wilmer'
_symmetry_space_group_name_H-M	'P1'
_symmetry_Int_Tables_number	1
_symmetry_cell_setting	triclinic
loop_
_symmetry_equiv_pos_as_xyz
  x,y,z
_cell_length_a	10.7108
_cell_length_b	13.2616
_cell_length_c	20.7926
_cell_angle_alpha	90
_cell_angle_beta	92.5034
_cell_angle_gamma	90
loop_
_atom_site_label
_atom_site_type_symbol
_atom_site_fract_x
_atom_site_fract_y
_atom_site_fract_z
_atom_site_charge
Mof_Ag	Ag	0.1947	0.19007	0.06907	0.572
Mof_Ag	Ag	0.09897	0.99414	0.4011	0.568
Mof_S 	S 	0.95685	0.2364	0.10417	-0.087
Mof_S 	S 	0.02388	0.12382	0.48366	-0.108
Mof_N 	N 	0.18394	0.1417	0.18023	-0.177
Mof_N 	N 	0.13938	0.05943	0.30021	-0.155
Mof_N 	N 	0.71322	0.14724	0.03161	-0.185
Mof_N 	N 	0.75391	0.95694	0.97928	-0.163
Mof_N 	N 	0.02829	0.13805	0.63712	-0.177
Mof_N 	N 	0.19718	0.2815	0.68744	-0.105
Mof_N 	N 	0.96573	0.35392	0.53198	-0.127
Mof_N 	N 	0.1968	0.44982	0.55499	-0.153
Mof_C 	C 	0.2536	0.0671	0.20541	0.005
Mof_H 	H 	0.319	0.041	0.1821	0.012
Mof_C 	C 	0.2312	0.02525	0.26456	-0.005
Mof_H 	H 	0.278	0.9695	0.2812	0.023
Mof_C 	C 	0.0691	0.13467	0.2751	-0.05
Mof_H 	H 	0.002	0.1576	0.2999	0.023
Mof_C 	C 	0.08994	0.17521	0.21494	0.098
Mof_C 	C 	0.0081	0.25812	0.18766	-0.228
Mof_H 	H 	0.937	0.2653	0.2123	0.092
Mof_H 	H 	0.055	0.319	0.1869	0.084
Mof_C 	C 	0.8736	0.11833	0.11645	-0.219
Mof_H 	H 	0.815	0.1288	0.1513	0.076
Mof_H 	H 	0.93	0.0681	0.1293	0.089
Mof_C 	C 	0.80208	0.08596	0.05634	0.09
Mof_C 	C 	0.8243	0.9923	0.02902	-0.05
Mof_H 	H 	0.887	0.9505	0.0439	0.024
Mof_C 	C 	0.6623	0.01725	0.95662	-0.006
Mof_H 	H 	0.611	0.994	0.9218	0.014
Mof_C 	C 	0.6434	0.11294	0.98137	0.003
Mof_H 	H 	0.586	0.1554	0.9644	0.006
Mof_C 	C 	0.0125	0.18303	0.69397	0.02
Mof_H 	H 	0.948	0.1627	0.7164	0.016
Mof_C 	C 	0.0958	0.25471	0.71857	-0.013
Mof_H 	H 	0.082	0.2851	0.7571	0.032
Mof_C 	C 	0.21362	0.23434	0.63173	-0.04
Mof_H 	H 	0.286	0.2508	0.6086	0.046
Mof_C 	C 	0.13021	0.16419	0.60561	0.099
Mof_C 	C 	0.15343	0.11271	0.54287	-0.182
Mof_H 	H 	0.16	0.0405	0.5506	0.055
Mof_H 	H 	0.232	0.1359	0.5243	0.08
Mof_C 	C 	0.0532	0.24749	0.4489	-0.178
Mof_H 	H 	0.984	0.2607	0.4203	0.073
Mof_H 	H 	0.128	0.2435	0.4242	0.064
Mof_C 	C 	0.06617	0.3293	0.49845	0.096
Mof_C 	C 	0.18019	0.37782	0.51006	-0.032
Mof_H 	H 	0.253	0.3584	0.4845	0.023
Mof_C 	C 	0.0962	0.47513	0.5874	0.014
Mof_H 	H 	0.105	0.5274	0.6201	0.01
Mof_C 	C 	0.9819	0.42715	0.57553	0.003
Mof_H 	H 	0.914	0.443	0.5993	0.028
Mof_Ag	Ag	0.3053	0.69007	0.93093	0.572
Mof_Ag	Ag	0.40103	0.49414	0.5989	0.576
Mof_S 	S 	0.54315	0.7364	0.89583	-0.083
Mof_S 	S 	0.47612	0.62382	0.51634	-0.111
Mof_N 	N 	0.31606	0.6417	0.81977	-0.177
Mof_N 	N 	0.36062	0.55943	0.69979	-0.156
Mof_N 	N 	0.78678	0.64724	0.96839	-0.186
Mof_N 	N 	0.74609	0.45694	0.02072	-0.163
Mof_N 	N 	0.47171	0.63805	0.36288	-0.177
Mof_N 	N 	0.30282	0.7815	0.31256	-0.106
Mof_N 	N 	0.53427	0.85392	0.46802	-0.126
Mof_N 	N 	0.3032	0.94982	0.44501	-0.153
Mof_C 	C 	0.2464	0.5671	0.79459	0.007
Mof_H 	H 	0.181	0.541	0.8179	0.011
Mof_C 	C 	0.2688	0.52525	0.73544	-0.009
Mof_H 	H 	0.222	0.4695	0.7188	0.025
Mof_C 	C 	0.4309	0.63467	0.7249	-0.051
Mof_H 	H 	0.498	0.6576	0.7001	0.023
Mof_C 	C 	0.41006	0.67521	0.78506	0.1
Mof_C 	C 	0.4919	0.75812	0.81234	-0.235
Mof_H 	H 	0.563	0.7653	0.7877	0.095
Mof_H 	H 	0.445	0.819	0.8131	0.086
Mof_C 	C 	0.6264	0.61833	0.88355	-0.222
Mof_H 	H 	0.685	0.6288	0.8487	0.077
Mof_H 	H 	0.57	0.5681	0.8707	0.091
Mof_C 	C 	0.69792	0.58596	0.94366	0.094
Mof_C 	C 	0.6757	0.4923	0.97098	-0.054
Mof_H 	H 	0.613	0.4505	0.9561	0.024
Mof_C 	C 	0.8377	0.51725	0.04338	-0.002
Mof_H 	H 	0.889	0.494	0.0782	0.012
Mof_C 	C 	0.8566	0.61294	0.01863	0.002
Mof_H 	H 	0.914	0.6554	0.0356	0.007
Mof_C 	C 	0.4875	0.68303	0.30603	0.013
Mof_H 	H 	0.552	0.6627	0.2836	0.02
Mof_C 	C 	0.4042	0.75471	0.28143	-0.01
Mof_H 	H 	0.418	0.7851	0.2429	0.03
Mof_C 	C 	0.28638	0.73434	0.36827	-0.04
Mof_H 	H 	0.214	0.7508	0.3914	0.045
Mof_C 	C 	0.36979	0.66419	0.39439	0.098
Mof_C 	C 	0.34657	0.61271	0.45713	-0.18
Mof_H 	H 	0.34	0.5405	0.4494	0.053
Mof_H 	H 	0.268	0.6359	0.4757	0.079
Mof_C 	C 	0.4468	0.74749	0.5511	-0.18
Mof_H 	H 	0.516	0.7607	0.5797	0.075
Mof_H 	H 	0.372	0.7435	0.5758	0.064
Mof_C 	C 	0.43383	0.8293	0.50155	0.096
Mof_C 	C 	0.31981	0.87782	0.48994	-0.032
Mof_H 	H 	0.247	0.8584	0.5155	0.023
Mof_C 	C 	0.4038	0.97513	0.4126	0.011
Mof_H 	H 	0.395	0.0274	0.3799	0.012
Mof_C 	C 	0.5181	0.92715	0.42447	0.005
Mof_H 	H 	0.586	0.943	0.4007	0.028
Mof_Ag	Ag	0.80529	0.80993	0.93093	0.573
Mof_Ag	Ag	0.90103	0.00586	0.5989	0.569
Mof_S 	S 	0.04315	0.7636	0.89583	-0.087
Mof_S 	S 	0.97612	0.87618	0.51634	-0.108
Mof_N 	N 	0.81606	0.8583	0.81977	-0.177
Mof_N 	N 	0.86062	0.94057	0.69979	-0.155
Mof_N 	N 	0.28678	0.85276	0.96839	-0.185
Mof_N 	N 	0.24609	0.04306	0.02072	-0.163
Mof_N 	N 	0.97171	0.86195	0.36288	-0.177
Mof_N 	N 	0.80282	0.7185	0.31256	-0.105
Mof_N 	N 	0.03427	0.64608	0.46802	-0.127
Mof_N 	N 	0.8032	0.55018	0.44501	-0.153
Mof_C 	C 	0.7464	0.9329	0.79459	0.005
Mof_H 	H 	0.681	0.959	0.8179	0.012
Mof_C 	C 	0.7688	0.97475	0.73544	-0.005
Mof_H 	H 	0.722	0.0305	0.7188	0.023
Mof_C 	C 	0.9309	0.86533	0.7249	-0.05
Mof_H 	H 	0.998	0.8424	0.7001	0.023
Mof_C 	C 	0.91006	0.82479	0.78506	0.098
Mof_C 	C 	0.9919	0.74188	0.81234	-0.228
Mof_H 	H 	0.063	0.7347	0.7877	0.092
Mof_H 	H 	0.945	0.681	0.8131	0.084
Mof_C 	C 	0.1264	0.88167	0.88355	-0.219
Mof_H 	H 	0.185	0.8712	0.8487	0.076
Mof_H 	H 	0.07	0.9319	0.8707	0.089
Mof_C 	C 	0.19792	0.91404	0.94366	0.09
Mof_C 	C 	0.1757	0.0077	0.97098	-0.05
Mof_H 	H 	0.113	0.0495	0.9561	0.024
Mof_C 	C 	0.3377	0.98275	0.04338	-0.006
Mof_H 	H 	0.389	0.006	0.0782	0.014
Mof_C 	C 	0.3566	0.88706	0.01863	0.003
Mof_H 	H 	0.414	0.8446	0.0356	0.006
Mof_C 	C 	0.9875	0.81697	0.30603	0.02
Mof_H 	H 	0.052	0.8373	0.2836	0.016
Mof_C 	C 	0.9042	0.74529	0.28143	-0.013
Mof_H 	H 	0.918	0.7149	0.2429	0.032
Mof_C 	C 	0.78638	0.76566	0.36827	-0.04
Mof_H 	H 	0.714	0.7492	0.3914	0.046
Mof_C 	C 	0.86979	0.83581	0.39439	0.099
Mof_C 	C 	0.84657	0.88729	0.45713	-0.182
Mof_H 	H 	0.84	0.9595	0.4494	0.055
Mof_H 	H 	0.768	0.8641	0.4757	0.08
Mof_C 	C 	0.9468	0.75251	0.5511	-0.178
Mof_H 	H 	0.016	0.7393	0.5797	0.073
Mof_H 	H 	0.872	0.7565	0.5758	0.064
Mof_C 	C 	0.93383	0.6707	0.50155	0.096
Mof_C 	C 	0.81981	0.62218	0.48994	-0.032
Mof_H 	H 	0.747	0.6416	0.5155	0.023
Mof_C 	C 	0.9038	0.52487	0.4126	0.014
Mof_H 	H 	0.895	0.4726	0.3799	0.01
Mof_C 	C 	0.0181	0.57285	0.42447	0.003
Mof_H 	H 	0.086	0.557	0.4007	0.028
Mof_Ag	Ag	0.6947	0.30993	0.06907	0.572
Mof_Ag	Ag	0.59897	0.50586	0.4011	0.576
Mof_S 	S 	0.45685	0.2636	0.10417	-0.083
Mof_S 	S 	0.52388	0.37618	0.48366	-0.111
Mof_N 	N 	0.68394	0.3583	0.18023	-0.177
Mof_N 	N 	0.63938	0.44057	0.30021	-0.156
Mof_N 	N 	0.21322	0.35276	0.03161	-0.186
Mof_N 	N 	0.25391	0.54306	0.97928	-0.163
Mof_N 	N 	0.52829	0.36195	0.63712	-0.177
Mof_N 	N 	0.69718	0.2185	0.68744	-0.106
Mof_N 	N 	0.46573	0.14608	0.53198	-0.126
Mof_N 	N 	0.6968	0.05018	0.55499	-0.153
Mof_C 	C 	0.7536	0.4329	0.20541	0.007
Mof_H 	H 	0.819	0.459	0.1821	0.011
Mof_C 	C 	0.7312	0.47475	0.26456	-0.009
Mof_H 	H 	0.778	0.5305	0.2812	0.025
Mof_C 	C 	0.5691	0.36533	0.2751	-0.051
Mof_H 	H 	0.502	0.3424	0.2999	0.023
Mof_C 	C 	0.58994	0.32479	0.21494	0.1
Mof_C 	C 	0.5081	0.24188	0.18766	-0.235
Mof_H 	H 	0.437	0.2347	0.2123	0.095
Mof_H 	H 	0.555	0.181	0.1869	0.086
Mof_C 	C 	0.3736	0.38167	0.11645	-0.222
Mof_H 	H 	0.315	0.3712	0.1513	0.077
Mof_H 	H 	0.43	0.4319	0.1293	0.091
Mof_C 	C 	0.30208	0.41404	0.05634	0.094
Mof_C 	C 	0.3243	0.5077	0.02902	-0.054
Mof_H 	H 	0.387	0.5495	0.0439	0.024
Mof_C 	C 	0.1623	0.48275	0.95662	-0.002
Mof_H 	H 	0.111	0.506	0.9218	0.012
Mof_C 	C 	0.1434	0.38706	0.98137	0.002
Mof_H 	H 	0.086	0.3446	0.9644	0.007
Mof_C 	C 	0.5125	0.31697	0.69397	0.013
Mof_H 	H 	0.448	0.3373	0.7164	0.02
Mof_C 	C 	0.5958	0.24529	0.71857	-0.01
Mof_H 	H 	0.582	0.2149	0.7571	0.03
Mof_C 	C 	0.71362	0.26566	0.63173	-0.04
Mof_H 	H 	0.786	0.2492	0.6086	0.045
Mof_C 	C 	0.63021	0.33581	0.60561	0.098
Mof_C 	C 	0.65343	0.38729	0.54287	-0.18
Mof_H 	H 	0.66	0.4595	0.5506	0.053
Mof_H 	H 	0.732	0.3641	0.5243	0.079
Mof_C 	C 	0.5532	0.25251	0.4489	-0.18
Mof_H 	H 	0.484	0.2393	0.4203	0.075
Mof_H 	H 	0.628	0.2565	0.4242	0.064
Mof_C 	C 	0.56617	0.1707	0.49845	0.096
Mof_C 	C 	0.68019	0.12218	0.51006	-0.032
Mof_H 	H 	0.753	0.1416	0.4845	0.023
Mof_C 	C 	0.5962	0.02487	0.5874	0.011
Mof_H 	H 	0.605	0.9726	0.6201	0.012
Mof_C 	C 	0.4819	0.07285	0.57553	0.005
Mof_H 	H 	0.414	0.057	0.5993	0.028
_end
