data_functionalizedCrystal
_audit_creation_method	'EQeq! by Chris Wilmer'
_symmetry_space_group_name_H-M	'P1'
_symmetry_Int_Tables_number	1
_symmetry_cell_setting	triclinic
loop_
_symmetry_equiv_pos_as_xyz
  x,y,z
_cell_length_a	15.673
_cell_length_b	15.673
_cell_length_c	18.532
_cell_angle_alpha	90
_cell_angle_beta	90
_cell_angle_gamma	120
loop_
_atom_site_label
_atom_site_type_symbol
_atom_site_fract_x
_atom_site_fract_y
_atom_site_fract_z
_atom_site_charge
Mof_Ni	Ni	1.91213e-17	0.17763	0.16667	1.067
Mof_Ni	Ni	0.82237	0.82237	0.83333	1.082
Mof_Ni	Ni	0.17763	0	0.5	1.068
Mof_H 	H 	0.8852	0.8878	0.68003	0.009
Mof_H 	H 	0.5608	0.4956	0.7346	0.086
Mof_H 	H 	0.9348	0.4392	0.06793	0.082
Mof_H 	H 	0.3954	0.2971	0.6521	0.088
Mof_H 	H 	0.1122	0.9974	0.3467	0.013
Mof_H 	H 	0.9579	0.8521	0.08153	0.103
Mof_H 	H 	0.061	0.5277	0.5493	0.124
Mof_H 	H 	0.3453	0.1995	0.5519	-0.002
Mof_H 	H 	0.3738	0.3124	0.4532	0.071
Mof_H 	H 	0.8542	0.6547	0.88523	-0.002
Mof_H 	H 	0.0983	0.7029	0.3479	0.088
Mof_H 	H 	0.0421	0.8942	0.2518	0.097
Mof_H 	H 	0.1148	0.0026	0.6533	-0.009
Mof_H 	H 	0.8878	0.8852	0.98663	0.01
Mof_H 	H 	0.8942	0.0421	0.41487	0.096
Mof_H 	H 	0.4748	0.0439	0.05327	0.134
Mof_H 	H 	0.6422	0.7087	0.92187	0.006
Mof_H 	H 	0.1479	0.1058	0.7482	0.09
Mof_H 	H 	0.0439	0.4748	0.6134	0.133
Mof_H 	H 	0.0026	0.1148	0.01337	-0.009
Mof_H 	H 	0.4392	0.9348	0.59873	0.081
Mof_H 	H 	0.2913	0.9335	0.58853	0.004
Mof_H 	H 	0.1995	0.3453	0.11477	-0.001
Mof_H 	H 	0.7029	0.0983	0.31877	0.088
Mof_H 	H 	0.3124	0.3738	0.21347	0.071
Mof_H 	H 	0.2971	0.3954	0.01457	0.088
Mof_H 	H 	0.5691	0.5252	0.3866	0.145
Mof_H 	H 	0.5252	0.5691	0.28007	0.145
Mof_H 	H 	0.3578	0.0665	0.41147	0.005
Mof_H 	H 	0.0665	0.3578	0.2552	0.005
Mof_H 	H 	0.1458	0.8005	0.4481	0
Mof_H 	H 	0.7087	0.6422	0.7448	0.006
Mof_H 	H 	0.6262	0.9386	0.88013	0.079
Mof_H 	H 	0.4723	0.5333	0.21597	0.13
Mof_H 	H 	0.0614	0.6876	0.5468	0.062
Mof_H 	H 	0.1058	0.1479	0.91847	0.09
Mof_H 	H 	0.8521	0.9579	0.58513	0.104
Mof_H 	H 	0.9335	0.2913	0.07813	0.004
Mof_H 	H 	0.939	0.4667	0.78403	0.132
Mof_H 	H 	0.0652	0.5044	0.2654	0.082
Mof_H 	H 	0.9561	0.4309	0.71993	0.15
Mof_H 	H 	0.6046	0.9017	0.68123	0.089
Mof_H 	H 	0.9017	0.6046	0.98543	0.09
Mof_H 	H 	0.5044	0.0652	0.40127	0.082
Mof_H 	H 	0.9386	0.6262	0.78653	0.08
Mof_H 	H 	0.6547	0.8542	0.78143	-0.001
Mof_H 	H 	0.5333	0.4723	0.4507	0.13
Mof_H 	H 	0.9974	0.1122	0.31997	0.013
Mof_H 	H 	0.6876	0.0614	0.11987	0.064
Mof_H 	H 	0.5277	0.061	0.11737	0.124
Mof_H 	H 	0.4956	0.5608	0.93207	0.085
Mof_H 	H 	0.4667	0.939	0.88263	0.131
Mof_H 	H 	0.4309	0.9561	0.94673	0.148
Mof_H 	H 	0.8005	0.1458	0.21857	0
Mof_C 	C 	0.6637	0.6266	0.7822	0.087
Mof_C 	C 	0.6729	0.037	0.07307	-0.075
Mof_C 	C 	0.1923	0.1241	0.7101	-0.155
Mof_C 	C 	0.2115	0.281	0.95387	0.074
Mof_C 	C 	0.0695	0.7885	0.2872	0.078
Mof_C 	C 	0.8077	0.9318	0.62323	-0.147
Mof_C 	C 	0.5871	0.0175	0.04087	0.059
Mof_C 	C 	0.1705	0.065	0.6513	0.101
Mof_C 	C 	0.4643	0.0394	0.44177	-0.129
Mof_C 	C 	0.0201	0.7361	0.6314	-0.063
Mof_C 	C 	0.9628	0.7872	0.74243	0.346
Mof_C 	C 	3.35399e-17	0.5862	0.16667	0.095
Mof_C 	C 	0.9305	0.719	0.04613	0.082
Mof_C 	C 	0.9016	0.6638	0.98633	-0.153
Mof_C 	C 	0.0984	0.7622	0.347	-0.147
Mof_C 	C 	0.1785	0.3066	0.07337	0.079
Mof_C 	C 	0.2128	0.1756	0.4091	0.336
Mof_C 	C 	0.0175	0.5871	0.6258	0.055
Mof_C 	C 	0.4129	0.4304	0.29247	0.087
Mof_C 	C 	0.8945	0.8295	0.98463	0.098
Mof_C 	C 	0.9629	0.3363	0.11553	0.107
Mof_C 	C 	0.6934	0.8719	0.74003	0.085
Mof_C 	C 	0.719	0.9305	0.62053	0.078
Mof_C 	C 	0.6638	0.9016	0.68033	-0.145
Mof_C 	C 	0.0371	0.3734	0.2178	0.079
Mof_C 	C 	0.1756	0.2128	0.25757	0.336
Mof_C 	C 	0.281	0.2115	0.7128	0.077
Mof_C 	C 	0.284	0.2639	0.3686	-0.038
Mof_C 	C 	0.8215	0.1281	0.25997	0.084
Mof_C 	C 	0.037	0.6729	0.5936	-0.069
Mof_C 	C 	0.065	0.1705	0.01537	0.104
Mof_C 	C 	0.2639	0.284	0.29807	-0.038
Mof_C 	C 	0.9825	0.5696	0.70753	0.118
Mof_C 	C 	0.3363	0.9629	0.55113	0.107
Mof_C 	C 	0.7885	0.0695	0.37947	0.078
Mof_C 	C 	0.3641	0.3271	0.4064	-0.091
Mof_C 	C 	0.4304	0.4129	0.3742	0.087
Mof_C 	C 	0.9799	0.716	0.70193	-0.006
Mof_C 	C 	0.0372	0.8244	0.5909	0.32
Mof_C 	C 	0.7622	0.0984	0.31967	-0.147
Mof_C 	C 	0.6266	0.6637	0.88447	0.087
Mof_C 	C 	0.5751	0.5357	0.7751	-0.136
Mof_C 	C 	0.4138	0.4138	0.83333	0.107
Mof_C 	C 	0.5862	0	0.5	0.095
Mof_C 	C 	0.0338	0.7221	0.2236	0.088
Mof_C 	C 	0.963	0.6359	0.73973	-0.114
Mof_C 	C 	0.6883	0.9662	0.55693	0.109
Mof_C 	C 	0.0682	0.8759	0.2899	-0.148
Mof_C 	C 	0.3066	0.1785	0.5933	0.081
Mof_C 	C 	0.8759	0.0682	0.37677	-0.148
Mof_C 	C 	0.1281	0.8215	0.4067	0.084
Mof_C 	C 	0.9606	0.4249	0.10843	-0.111
Mof_C 	C 	0.511	0.511	0.83333	0.061
Mof_C 	C 	0.8719	0.6934	0.92663	0.087
Mof_C 	C 	0.0394	0.4643	0.2249	-0.129
Mof_C 	C 	0.2779	0.3117	0.89027	0.088
Mof_C 	C 	0.7872	0.9628	0.92423	0.348
Mof_C 	C 	0.5357	0.5751	0.89157	-0.136
Mof_C 	C 	0.7361	0.0201	0.03527	-0.056
Mof_C 	C 	0.7221	0.0338	0.44307	0.088
Mof_C 	C 	0.5696	0.9825	0.95913	0.113
Mof_C 	C 	0.3734	0.0371	0.44887	0.078
Mof_C 	C 	0.935	0.1055	0.31797	0.102
Mof_C 	C 	0.1241	0.1923	0.95657	-0.156
Mof_C 	C 	0.8244	0.0372	0.07577	0.316
Mof_C 	C 	0.3362	0.2378	0.653	-0.149
Mof_C 	C 	0.4249	0.9606	0.55823	-0.111
Mof_C 	C 	0.9318	0.8077	0.04343	-0.139
Mof_C 	C 	0.9662	0.6883	0.10973	0.109
Mof_C 	C 	0.8295	0.8945	0.68203	0.106
Mof_C 	C 	0.716	0.9799	0.96473	-0.013
Mof_C 	C 	0.3271	0.3641	0.26027	-0.091
Mof_C 	C 	0.2378	0.3362	0.01367	-0.145
Mof_C 	C 	0.1055	0.935	0.3487	0.102
Mof_C 	C 	-2.41345e-17	0.489	0.16667	0.036
Mof_C 	C 	0.489	0	0.5	0.036
Mof_C 	C 	0.6359	0.963	0.92693	-0.109
Mof_C 	C 	0.3117	0.2779	0.7764	0.088
Mof_N 	N 	0.9649	0.6039	0.10823	-0.133
Mof_N 	N 	0.9103	0.1321	0.25987	-0.232
Mof_N 	N 	0.361	0.3961	0.89177	-0.144
Mof_N 	N 	0.7782	0.8679	0.74013	-0.236
Mof_N 	N 	0.6911	0.6911	0.83333	-0.24
Mof_N 	N 	-8.18089e-17	0.7524	0.16667	-0.145
Mof_N 	N 	0.2218	0.0897	0.5932	-0.242
Mof_N 	N 	0.5197	0.037	0.07267	-0.28
Mof_N 	N 	0.1321	0.9103	0.4068	-0.232
Mof_N 	N 	0.4827	0.963	0.92733	-0.29
Mof_N 	N 	0.6039	0.9649	0.55843	-0.134
Mof_N 	N 	0.037	0.5197	0.594	-0.279
Mof_N 	N 	0.7524	0	0.5	-0.145
Mof_N 	N 	0.5173	0.4803	0.406	-0.286
Mof_N 	N 	0.3089	0	0.5	-0.253
Mof_N 	N 	0.8679	0.7782	0.92653	-0.236
Mof_N 	N 	0.0351	0.639	0.2251	-0.143
Mof_N 	N 	0.3961	0.361	0.7749	-0.144
Mof_N 	N 	0.639	0.0351	0.44157	-0.143
Mof_N 	N 	0.2476	0.2476	0.83333	-0.136
Mof_N 	N 	-2.41345e-17	0.3089	0.16667	-0.253
Mof_N 	N 	0.0897	0.2218	0.07347	-0.243
Mof_N 	N 	0.963	0.4827	0.73933	-0.291
Mof_N 	N 	0.4803	0.5173	0.26067	-0.286
Mof_O 	O 	0.8745	0.1197	0.10347	-0.398
Mof_O 	O 	0.1554	0.1252	0.25017	-0.295
Mof_O 	O 	0.1255	0.2452	0.22987	-0.416
Mof_O 	O 	0.9698	0.8446	0.5835	-0.258
Mof_O 	O 	0.7548	0.8803	0.89653	-0.411
Mof_O 	O 	0.1252	0.1554	0.4165	-0.295
Mof_O 	O 	0.8803	0.7548	0.77013	-0.41
Mof_O 	O 	0.2452	0.1255	0.4368	-0.416
Mof_O 	O 	0.8446	0.9698	0.08317	-0.254
Mof_O 	O 	0.1197	0.8745	0.5632	-0.399
Mof_O 	O 	0.0302	0.8748	0.74983	-0.291
Mof_O 	O 	0.8748	0.0302	0.91683	-0.293
_end
