data_functionalizedCrystal
_audit_creation_method	'EQeq! by Chris Wilmer'
_symmetry_space_group_name_H-M	'P1'
_symmetry_Int_Tables_number	1
_symmetry_cell_setting	triclinic
loop_
_symmetry_equiv_pos_as_xyz
  x,y,z
_cell_length_a	11.578
_cell_length_b	11.578
_cell_length_c	15.1063
_cell_angle_alpha	112.533
_cell_angle_beta	112.533
_cell_angle_gamma	90
loop_
_atom_site_label
_atom_site_type_symbol
_atom_site_fract_x
_atom_site_fract_y
_atom_site_fract_z
_atom_site_charge
Mof_Y 	Y 	0.375	0.125	0.25	1.608
Mof_Y 	Y 	0.625	0.875	0.75	1.608
Mof_C 	C 	0.575	0.5288	0.452	0.076
Mof_C 	C 	0.5013	0.4145	0.403	0.124
Mof_C 	C 	0.5803	0.6201	0.5472	0.125
Mof_C 	C 	0.377	0.9232	0.452	0.076
Mof_C 	C 	0.4017	0.9885	0.403	0.125
Mof_C 	C 	0.4669	0.9271	0.5472	0.125
Mof_C 	C 	0.0288	0.877	0.952	0.077
Mof_C 	C 	0.9145	0.9017	0.903	0.119
Mof_C 	C 	0.1201	0.9669	0.0472	0.129
Mof_C 	C 	0.4232	0.075	0.952	0.078
Mof_C 	C 	0.4885	0.0013	0.903	0.127
Mof_C 	C 	0.4271	0.0803	0.0472	0.122
Mof_C 	C 	0.425	0.4712	0.548	0.076
Mof_C 	C 	0.4987	0.5855	0.597	0.124
Mof_C 	C 	0.4197	0.3799	0.4528	0.125
Mof_C 	C 	0.623	0.0768	0.548	0.076
Mof_C 	C 	0.5983	0.0115	0.597	0.125
Mof_C 	C 	0.5331	0.0729	0.4528	0.125
Mof_C 	C 	0.9712	0.123	0.048	0.077
Mof_C 	C 	0.0855	0.0983	0.097	0.119
Mof_C 	C 	0.8799	0.0331	0.9528	0.129
Mof_C 	C 	0.5768	0.925	0.048	0.078
Mof_C 	C 	0.5115	0.9987	0.097	0.127
Mof_C 	C 	0.5729	0.9197	0.9528	0.122
Mof_Cl	Cl	0.66444	0.56824	0.39508	-0.187
Mof_Cl	Cl	0.23064	0.82684	0.39508	-0.186
Mof_Cl	Cl	0.06824	0.73064	0.89508	-0.187
Mof_Cl	Cl	0.32684	0.16444	0.89508	-0.187
Mof_Cl	Cl	0.33556	0.43176	0.60492	-0.187
Mof_Cl	Cl	0.76936	0.17316	0.60492	-0.186
Mof_Cl	Cl	0.93176	0.26936	0.10492	-0.187
Mof_Cl	Cl	0.67316	0.83556	0.10492	-0.187
Mof_O 	O 	0.487	0.3256	0.3148	-0.28
Mof_O 	O 	0.6488	0.727	0.5982	-0.262
Mof_O 	O 	0.3278	0.9892	0.3148	-0.279
Mof_O 	O 	0.4494	0.8712	0.5982	-0.261
Mof_O 	O 	0.8256	0.8278	0.8148	-0.279
Mof_O 	O 	0.227	0.9494	0.0982	-0.261
Mof_O 	O 	0.4892	0.987	0.8148	-0.281
Mof_O 	O 	0.3712	0.1488	0.0982	-0.261
Mof_O 	O 	0.513	0.6744	0.6852	-0.28
Mof_O 	O 	0.3512	0.273	0.4018	-0.262
Mof_O 	O 	0.6722	0.0108	0.6852	-0.279
Mof_O 	O 	0.5506	0.1288	0.4018	-0.261
Mof_O 	O 	0.1744	0.1722	0.1852	-0.279
Mof_O 	O 	0.773	0.0506	0.9018	-0.261
Mof_O 	O 	0.5108	0.013	0.1852	-0.281
Mof_O 	O 	0.6288	0.8512	0.9018	-0.261
_end
