data_functionalizedCrystal
_audit_creation_method	'EQeq! by Chris Wilmer'
_symmetry_space_group_name_H-M	'P1'
_symmetry_Int_Tables_number	1
_symmetry_cell_setting	triclinic
loop_
_symmetry_equiv_pos_as_xyz
  x,y,z
_cell_length_a	12.3768
_cell_length_b	13.1438
_cell_length_c	14.3078
_cell_angle_alpha	81.532
_cell_angle_beta	77.86
_cell_angle_gamma	89.426
loop_
_atom_site_label
_atom_site_type_symbol
_atom_site_fract_x
_atom_site_fract_y
_atom_site_fract_z
_atom_site_charge
Mof_Yb	Yb	0.67802	0.86346	0.66556	1.293
Mof_Yb	Yb	0.39802	0.40956	0.77536	1.248
Mof_Ru	Ru	0.65895	0.25957	0.483	1.008
Mof_Ru	Ru	0.26403	0.66246	0.04309	1.034
Mof_N 	N 	0.8062	0.3113	0.5143	-0.234
Mof_C 	C 	0.8169	0.365	0.5862	0.114
Mof_H 	H 	0.7528	0.3855	0.628	-0.024
Mof_C 	C 	0.9199	0.39	0.5987	-0.159
Mof_H 	H 	0.9281	0.428	0.6484	0.109
Mof_C 	C 	0.0114	0.3583	0.5372	0.102
Mof_H 	H 	0.0828	0.3726	0.5472	0.024
Mof_O 	O 	0.7039	0.9056	0.8144	-0.2
Mof_O 	O 	0.7398	0.848	0.8131	-0.132
Mof_N 	N 	0.0031	0.3088	0.4647	-0.12
Mof_O 	O 	0.7939	0.7369	0.7008	-0.15
Mof_O 	O 	0.7847	0.7152	0.6631	-0.148
Mof_C 	C 	0.9015	0.2876	0.4554	0.101
Mof_N 	N 	0.7801	0.2227	0.3668	-0.239
Mof_C 	C 	0.763	0.1796	0.2912	0.117
Mof_H 	H 	0.69	0.1702	0.2823	-0.03
Mof_C 	C 	0.8528	0.1491	0.2265	-0.176
Mof_H 	H 	0.8419	0.1173	0.1736	0.097
Mof_C 	C 	0.9536	0.1646	0.2391	0.117
Mof_H 	H 	0.0148	0.1439	0.1942	0.019
Mof_N 	N 	0.9725	0.2088	0.3134	-0.114
Mof_C 	C 	0.8853	0.2376	0.3731	0.107
Mof_N 	N 	0.1094	0.6646	0.0037	-0.237
Mof_C 	C 	0.0795	0.6152	0.9373	0.112
Mof_H 	H 	0.1326	0.5759	0.9006	0.003
Mof_C 	C 	0.9737	0.62	0.9209	-0.155
Mof_H 	H 	0.9511	0.5851	0.8743	0.103
Mof_C 	C 	0.8999	0.6821	0.98	0.102
Mof_H 	H 	0.8265	0.6898	0.9702	0.002
Mof_N 	N 	0.9274	0.7275	0.0448	-0.132
Mof_C 	C 	0.0308	0.7185	0.0553	0.096
Mof_N 	N 	0.1695	0.7559	0.1365	-0.238
Mof_C 	C 	0.2043	0.8045	0.202	0.121
Mof_H 	H 	0.2785	0.7978	0.2099	-0.025
Mof_C 	C 	0.1329	0.8633	0.2571	-0.172
Mof_H 	H 	0.1569	0.8965	0.304	0.105
Mof_C 	C 	0.0328	0.8733	0.245	0.109
Mof_H 	H 	0.9844	0.9143	0.284	0.027
Mof_N 	N 	0.9933	0.8282	0.1792	-0.124
Mof_C 	C 	0.0669	0.7703	0.1284	0.105
Mof_C 	C 	0.6753	0.1168	0.5537	-0.156
Mof_N 	N 	0.6827	0.0328	0.5911	-0.187
Mof_C 	C 	0.5565	0.2939	0.5981	-0.192
Mof_N 	N 	0.4957	0.311	0.6662	-0.179
Mof_C 	C 	0.4704	0.7894	0.5598	-0.188
Mof_N 	N 	0.5443	0.815	0.5879	-0.201
Mof_C 	C 	0.6378	0.3981	0.4072	-0.161
Mof_N 	N 	0.6209	0.4732	0.3608	-0.169
Mof_C 	C 	0.3179	0.7904	0.9468	-0.186
Mof_N 	N 	0.3516	0.8641	0.8938	-0.076
Mof_C 	C 	0.3337	0.5752	0.9468	-0.181
Mof_N 	N 	0.3684	0.5248	0.889	-0.174
Mof_C 	C 	0.6021	0.3378	0.9058	-0.195
Mof_N 	N 	0.5241	0.3468	0.8725	-0.179
Mof_C 	C 	0.2253	0.5365	0.1459	-0.184
Mof_N 	N 	0.218	0.4647	0.2066	-0.055
Mof_N 	N 	0.1798	0.3981	0.7434	0.061
Mof_O 	O 	0.2088	0.4483	0.8063	-0.265
Mof_O 	O 	0.2523	0.3411	0.7028	-0.239
Mof_O 	O 	0.0874	0.4038	0.7288	-0.126
Mof_N 	N 	0.9528	0.9629	0.5594	0.039
Mof_O 	O 	0.8673	0.9281	0.6354	-0.226
Mof_O 	O 	0.0327	0.0165	0.5695	-0.072
Mof_O 	O 	0.968	0.9328	0.4807	-0.071
Mof_Yb	Yb	0.32198	0.13654	0.33444	1.292
Mof_Yb	Yb	0.60198	0.59044	0.22464	1.247
Mof_Ru	Ru	0.34105	0.74043	0.517	1.007
Mof_Ru	Ru	0.73597	0.33754	0.95691	1.033
Mof_N 	N 	0.1938	0.6887	0.4857	-0.235
Mof_C 	C 	0.1831	0.635	0.4138	0.113
Mof_H 	H 	0.2472	0.6145	0.372	-0.025
Mof_C 	C 	0.0801	0.61	0.4013	-0.16
Mof_H 	H 	0.0719	0.572	0.3516	0.109
Mof_C 	C 	0.9886	0.6417	0.4628	0.102
Mof_H 	H 	0.9172	0.6274	0.4528	0.024
Mof_O 	O 	0.2961	0.0944	0.1856	-0.2
Mof_O 	O 	0.2602	0.152	0.1869	-0.132
Mof_N 	N 	0.9969	0.6912	0.5353	-0.12
Mof_O 	O 	0.2061	0.2631	0.2992	-0.15
Mof_O 	O 	0.2153	0.2848	0.3369	-0.148
Mof_C 	C 	0.0985	0.7124	0.5446	0.101
Mof_N 	N 	0.2199	0.7773	0.6332	-0.239
Mof_C 	C 	0.237	0.8204	0.7088	0.117
Mof_H 	H 	0.31	0.8298	0.7177	-0.03
Mof_C 	C 	0.1472	0.8509	0.7735	-0.176
Mof_H 	H 	0.1581	0.8827	0.8264	0.097
Mof_C 	C 	0.0464	0.8354	0.7609	0.117
Mof_H 	H 	0.9852	0.8561	0.8058	0.019
Mof_N 	N 	0.0275	0.7912	0.6866	-0.114
Mof_C 	C 	0.1147	0.7624	0.6269	0.107
Mof_N 	N 	0.8906	0.3354	0.9963	-0.237
Mof_C 	C 	0.9205	0.3848	0.0627	0.112
Mof_H 	H 	0.8674	0.4241	0.0994	0.003
Mof_C 	C 	0.0263	0.38	0.0791	-0.155
Mof_H 	H 	0.0489	0.4149	0.1257	0.103
Mof_C 	C 	0.1001	0.3179	0.02	0.102
Mof_H 	H 	0.1735	0.3102	0.0298	0.002
Mof_N 	N 	0.0726	0.2725	0.9552	-0.132
Mof_C 	C 	0.9692	0.2815	0.9447	0.096
Mof_N 	N 	0.8305	0.2441	0.8635	-0.238
Mof_C 	C 	0.7957	0.1955	0.798	0.121
Mof_H 	H 	0.7215	0.2022	0.7901	-0.025
Mof_C 	C 	0.8671	0.1367	0.7429	-0.172
Mof_H 	H 	0.8431	0.1035	0.696	0.105
Mof_C 	C 	0.9672	0.1267	0.755	0.109
Mof_H 	H 	0.0156	0.0857	0.716	0.027
Mof_N 	N 	0.0067	0.1718	0.8208	-0.124
Mof_C 	C 	0.9331	0.2297	0.8716	0.105
Mof_C 	C 	0.3247	0.8832	0.4463	-0.156
Mof_N 	N 	0.3173	0.9672	0.4089	-0.187
Mof_C 	C 	0.4435	0.7061	0.4019	-0.192
Mof_N 	N 	0.5043	0.689	0.3338	-0.179
Mof_C 	C 	0.5296	0.2106	0.4402	-0.188
Mof_N 	N 	0.4557	0.185	0.4121	-0.201
Mof_C 	C 	0.3622	0.6019	0.5928	-0.161
Mof_N 	N 	0.3791	0.5268	0.6392	-0.169
Mof_C 	C 	0.6821	0.2096	0.0532	-0.186
Mof_N 	N 	0.6484	0.1359	0.1062	-0.076
Mof_C 	C 	0.6663	0.4248	0.0532	-0.181
Mof_N 	N 	0.6316	0.4752	0.111	-0.174
Mof_C 	C 	0.3979	0.6622	0.0942	-0.195
Mof_N 	N 	0.4759	0.6532	0.1275	-0.179
Mof_C 	C 	0.7747	0.4635	0.8541	-0.184
Mof_N 	N 	0.782	0.5353	0.7934	-0.055
Mof_N 	N 	0.8202	0.6019	0.2566	0.061
Mof_O 	O 	0.7912	0.5517	0.1937	-0.265
Mof_O 	O 	0.7477	0.6589	0.2972	-0.239
Mof_O 	O 	0.9126	0.5962	0.2712	-0.126
Mof_N 	N 	0.0472	0.0371	0.4406	0.039
Mof_O 	O 	0.1327	0.0719	0.3646	-0.226
Mof_O 	O 	0.9673	0.9835	0.4305	-0.072
Mof_O 	O 	0.032	0.0672	0.5193	-0.071
_end
