# CIF file generated by openbabel 3.1.0, see https://openbabel.org
data_I
_chemical_name_common 'image0'
_cell_length_a 20.797
_cell_length_b 20.797
_cell_length_c 16.012
_cell_angle_alpha 90
_cell_angle_beta 90
_cell_angle_gamma 90
_space_group_name_H-M_alt 'P 1'
_space_group_name_Hall 'P 1'
loop_
    _symmetry_equiv_pos_as_xyz
    x,y,z
loop_
    _atom_site_label
    _atom_site_type_symbol
    _atom_site_fract_x
    _atom_site_fract_y
    _atom_site_fract_z
    _atom_site_occupancy
    C1       C        0.39640    0.63750    0.48890    1.000
    C2       C        0.35800    0.61990    0.56140    1.000
    C3       C        0.31970    0.65610    0.61390    1.000
    C4       C        0.30800    0.72540    0.61650    1.000
    C5       C        0.31740    0.55750    0.65570    1.000
    C6       C        0.30100    0.50020    0.70410    1.000
    C7       C        0.23570    0.48420    0.71740    1.000
    H1       H        0.20430    0.51140    0.69620    1.000
    C8       C        0.21660    0.43060    0.76000    1.000
    H2       H        0.17310    0.42280    0.76860    1.000
    C9       C        0.26130    0.38850    0.79010    1.000
    C10      C        0.32690    0.40170    0.78010    1.000
    C11      C        0.34730    0.46020    0.73500    1.000
    H3       H        0.39070    0.46950    0.72780    1.000
    C12      C        0.37210    0.36100    0.81050    1.000
    H4       H        0.41570    0.37040    0.80800    1.000
    C13      C        0.34930    0.30450    0.84570    1.000
    H5       H        0.37910    0.27270    0.85850    1.000
    C14      C        0.28550    0.29220    0.86300    1.000
    H6       H        0.27420    0.25740    0.89650    1.000
    C15      C        0.24040    0.33020    0.83160    1.000
    H7       H        0.19700    0.31990    0.83600    1.000
    N1       N        0.35700    0.55820    0.58880    1.000
    N2       N        0.29420    0.61630    0.67290    1.000
    O1       O        0.42580    0.59390    0.45120    1.000
    O2       O        0.39730    0.69700    0.46400    1.000
    O3       O        0.33020    0.76110    0.56010    1.000
    O4       O        0.27420    0.74520    0.67680    1.000
    Zn1      Zn       0.41530    0.50012    0.51899    1.000
    C16      C        0.89640    0.13750    0.98890    1.000
    C17      C        0.85800    0.11990    0.06140    1.000
    C18      C        0.81970    0.15610    0.11390    1.000
    C19      C        0.80800    0.22540    0.11650    1.000
    C20      C        0.81740    0.05750    0.15570    1.000
    C21      C        0.80100    0.00020    0.20410    1.000
    C22      C        0.73570    0.98420    0.21740    1.000
    H8       H        0.70430    0.01140    0.19620    1.000
    C23      C        0.71660    0.93060    0.26000    1.000
    H9       H        0.67310    0.92280    0.26860    1.000
    C24      C        0.76130    0.88850    0.29010    1.000
    C25      C        0.82690    0.90170    0.28010    1.000
    C26      C        0.84730    0.96020    0.23500    1.000
    H10      H        0.89070    0.96950    0.22780    1.000
    C27      C        0.87210    0.86100    0.31050    1.000
    H11      H        0.91570    0.87040    0.30800    1.000
    C28      C        0.84930    0.80450    0.34570    1.000
    H12      H        0.87910    0.77270    0.35850    1.000
    C29      C        0.78550    0.79220    0.36300    1.000
    H13      H        0.77420    0.75740    0.39650    1.000
    C30      C        0.74040    0.83020    0.33160    1.000
    H14      H        0.69700    0.81990    0.33600    1.000
    N3       N        0.85700    0.05820    0.08880    1.000
    N4       N        0.79420    0.11630    0.17290    1.000
    O5       O        0.92580    0.09390    0.95120    1.000
    O6       O        0.89730    0.19700    0.96400    1.000
    O7       O        0.83020    0.26110    0.06010    1.000
    O8       O        0.77420    0.24520    0.17680    1.000
    Zn2      Zn       0.91530    0.00012    0.01899    1.000
    C31      C        0.10360    0.36250    0.98890    1.000
    C32      C        0.14200    0.38010    0.06140    1.000
    C33      C        0.18030    0.34390    0.11390    1.000
    C34      C        0.19200    0.27460    0.11650    1.000
    C35      C        0.18260    0.44250    0.15570    1.000
    C36      C        0.19900    0.49980    0.20410    1.000
    C37      C        0.26430    0.51580    0.21740    1.000
    H15      H        0.29570    0.48860    0.19620    1.000
    C38      C        0.28340    0.56940    0.26000    1.000
    H16      H        0.32690    0.57720    0.26860    1.000
    C39      C        0.23870    0.61150    0.29010    1.000
    C40      C        0.17310    0.59830    0.28010    1.000
    C41      C        0.15270    0.53980    0.23500    1.000
    H17      H        0.10930    0.53050    0.22780    1.000
    C42      C        0.12790    0.63900    0.31050    1.000
    H18      H        0.08430    0.62960    0.30800    1.000
    C43      C        0.15070    0.69550    0.34570    1.000
    H19      H        0.12090    0.72730    0.35850    1.000
    C44      C        0.21450    0.70780    0.36300    1.000
    H20      H        0.22580    0.74260    0.39650    1.000
    C45      C        0.25960    0.66980    0.33160    1.000
    H21      H        0.30300    0.68010    0.33600    1.000
    N5       N        0.14300    0.44180    0.08880    1.000
    N6       N        0.20580    0.38370    0.17290    1.000
    O9       O        0.07420    0.40610    0.95120    1.000
    O10      O        0.10270    0.30300    0.96400    1.000
    O11      O        0.16980    0.23890    0.06010    1.000
    O12      O        0.22580    0.25480    0.17680    1.000
    Zn3      Zn       0.08470    0.49988    0.01899    1.000
    C46      C        0.60360    0.86250    0.48890    1.000
    C47      C        0.64200    0.88010    0.56140    1.000
    C48      C        0.68030    0.84390    0.61390    1.000
    C49      C        0.69200    0.77460    0.61650    1.000
    C50      C        0.68260    0.94250    0.65570    1.000
    C51      C        0.69900    0.99980    0.70410    1.000
    C52      C        0.76430    0.01580    0.71740    1.000
    H22      H        0.79570    0.98860    0.69620    1.000
    C53      C        0.78340    0.06940    0.76000    1.000
    H23      H        0.82690    0.07720    0.76860    1.000
    C54      C        0.73870    0.11150    0.79010    1.000
    C55      C        0.67310    0.09830    0.78010    1.000
    C56      C        0.65270    0.03980    0.73500    1.000
    H24      H        0.60930    0.03050    0.72780    1.000
    C57      C        0.62790    0.13900    0.81050    1.000
    H25      H        0.58430    0.12960    0.80800    1.000
    C58      C        0.65070    0.19550    0.84570    1.000
    H26      H        0.62090    0.22730    0.85850    1.000
    C59      C        0.71450    0.20780    0.86300    1.000
    H27      H        0.72580    0.24260    0.89650    1.000
    C60      C        0.75960    0.16980    0.83160    1.000
    H28      H        0.80300    0.18010    0.83600    1.000
    N7       N        0.64300    0.94180    0.58880    1.000
    N8       N        0.70580    0.88370    0.67290    1.000
    O13      O        0.57420    0.90610    0.45120    1.000
    O14      O        0.60270    0.80300    0.46400    1.000
    O15      O        0.66980    0.73890    0.56010    1.000
    O16      O        0.72580    0.75480    0.67680    1.000
    Zn4      Zn       0.58470    0.99988    0.51899    1.000
    C61      C        0.11250    0.64640    0.73890    1.000
    C62      C        0.13010    0.60800    0.81140    1.000
    C63      C        0.09390    0.56970    0.86390    1.000
    C64      C        0.02460    0.55800    0.86650    1.000
    C65      C        0.19250    0.56740    0.90570    1.000
    C66      C        0.24980    0.55100    0.95410    1.000
    C67      C        0.26580    0.48570    0.96740    1.000
    H29      H        0.23860    0.45430    0.94620    1.000
    C68      C        0.31940    0.46660    0.01000    1.000
    H30      H        0.32720    0.42310    0.01860    1.000
    C69      C        0.36150    0.51130    0.04010    1.000
    C70      C        0.34830    0.57690    0.03010    1.000
    C71      C        0.28980    0.59730    0.98500    1.000
    H31      H        0.28050    0.64070    0.97780    1.000
    C72      C        0.38900    0.62210    0.06050    1.000
    H32      H        0.37960    0.66570    0.05800    1.000
    C73      C        0.44550    0.59930    0.09570    1.000
    H33      H        0.47730    0.62910    0.10850    1.000
    C74      C        0.45780    0.53550    0.11300    1.000
    H34      H        0.49260    0.52420    0.14650    1.000
    C75      C        0.41980    0.49040    0.08160    1.000
    H35      H        0.43010    0.44700    0.08600    1.000
    N9       N        0.19180    0.60700    0.83880    1.000
    N10      N        0.13370    0.54420    0.92290    1.000
    O17      O        0.15610    0.67580    0.70120    1.000
    O18      O        0.05300    0.64730    0.71400    1.000
    O19      O        0.98890    0.58020    0.81010    1.000
    O20      O        0.00480    0.52420    0.92680    1.000
    Zn5      Zn       0.24988    0.66530    0.76899    1.000
    C76      C        0.61250    0.14640    0.23890    1.000
    C77      C        0.63010    0.10800    0.31140    1.000
    C78      C        0.59390    0.06970    0.36390    1.000
    C79      C        0.52460    0.05800    0.36650    1.000
    C80      C        0.69250    0.06740    0.40570    1.000
    C81      C        0.74980    0.05100    0.45410    1.000
    C82      C        0.76580    0.98570    0.46740    1.000
    H36      H        0.73860    0.95430    0.44620    1.000
    C83      C        0.81940    0.96660    0.51000    1.000
    H37      H        0.82720    0.92310    0.51860    1.000
    C84      C        0.86150    0.01130    0.54010    1.000
    C85      C        0.84830    0.07690    0.53010    1.000
    C86      C        0.78980    0.09730    0.48500    1.000
    H38      H        0.78050    0.14070    0.47780    1.000
    C87      C        0.88900    0.12210    0.56050    1.000
    H39      H        0.87960    0.16570    0.55800    1.000
    C88      C        0.94550    0.09930    0.59570    1.000
    H40      H        0.97730    0.12910    0.60850    1.000
    C89      C        0.95780    0.03550    0.61300    1.000
    H41      H        0.99260    0.02420    0.64650    1.000
    C90      C        0.91980    0.99040    0.58160    1.000
    H42      H        0.93010    0.94700    0.58600    1.000
    N11      N        0.69180    0.10700    0.33880    1.000
    N12      N        0.63370    0.04420    0.42290    1.000
    O21      O        0.65610    0.17580    0.20120    1.000
    O22      O        0.55300    0.14730    0.21400    1.000
    O23      O        0.48890    0.08020    0.31010    1.000
    O24      O        0.50480    0.02420    0.42680    1.000
    Zn6      Zn       0.74988    0.16530    0.26899    1.000
    C91      C        0.38750    0.35360    0.23890    1.000
    C92      C        0.36990    0.39200    0.31140    1.000
    C93      C        0.40610    0.43030    0.36390    1.000
    C94      C        0.47540    0.44200    0.36650    1.000
    C95      C        0.30750    0.43260    0.40570    1.000
    C96      C        0.25020    0.44900    0.45410    1.000
    C97      C        0.23420    0.51430    0.46740    1.000
    H43      H        0.26140    0.54570    0.44620    1.000
    C98      C        0.18060    0.53340    0.51000    1.000
    H44      H        0.17280    0.57690    0.51860    1.000
    C99      C        0.13850    0.48870    0.54010    1.000
    C100     C        0.15170    0.42310    0.53010    1.000
    C101     C        0.21020    0.40270    0.48500    1.000
    H45      H        0.21950    0.35930    0.47780    1.000
    C102     C        0.11100    0.37790    0.56050    1.000
    H46      H        0.12040    0.33430    0.55800    1.000
    C103     C        0.05450    0.40070    0.59570    1.000
    H47      H        0.02270    0.37090    0.60850    1.000
    C104     C        0.04220    0.46450    0.61300    1.000
    H48      H        0.00740    0.47580    0.64650    1.000
    C105     C        0.08020    0.50960    0.58160    1.000
    H49      H        0.06990    0.55300    0.58600    1.000
    N13      N        0.30820    0.39300    0.33880    1.000
    N14      N        0.36630    0.45580    0.42290    1.000
    O25      O        0.34390    0.32420    0.20120    1.000
    O26      O        0.44700    0.35270    0.21400    1.000
    O27      O        0.51110    0.41980    0.31010    1.000
    O28      O        0.49520    0.47580    0.42680    1.000
    Zn7      Zn       0.25012    0.33470    0.26899    1.000
    C106     C        0.88750    0.85360    0.73890    1.000
    C107     C        0.86990    0.89200    0.81140    1.000
    C108     C        0.90610    0.93030    0.86390    1.000
    C109     C        0.97540    0.94200    0.86650    1.000
    C110     C        0.80750    0.93260    0.90570    1.000
    C111     C        0.75020    0.94900    0.95410    1.000
    C112     C        0.73420    0.01430    0.96740    1.000
    H50      H        0.76140    0.04570    0.94620    1.000
    C113     C        0.68060    0.03340    0.01000    1.000
    H51      H        0.67280    0.07690    0.01860    1.000
    C114     C        0.63850    0.98870    0.04010    1.000
    C115     C        0.65170    0.92310    0.03010    1.000
    C116     C        0.71020    0.90270    0.98500    1.000
    H52      H        0.71950    0.85930    0.97780    1.000
    C117     C        0.61100    0.87790    0.06050    1.000
    H53      H        0.62040    0.83430    0.05800    1.000
    C118     C        0.55450    0.90070    0.09570    1.000
    H54      H        0.52270    0.87090    0.10850    1.000
    C119     C        0.54220    0.96450    0.11300    1.000
    H55      H        0.50740    0.97580    0.14650    1.000
    C120     C        0.58020    0.00960    0.08160    1.000
    H56      H        0.56990    0.05300    0.08600    1.000
    N15      N        0.80820    0.89300    0.83880    1.000
    N16      N        0.86630    0.95580    0.92290    1.000
    O29      O        0.84390    0.82420    0.70120    1.000
    O30      O        0.94700    0.85270    0.71400    1.000
    O31      O        0.01110    0.91980    0.81010    1.000
    O32      O        0.99520    0.97580    0.92680    1.000
    Zn8      Zn       0.75012    0.83470    0.76899    1.000
    C121     C        0.60360    0.36250    0.51110    1.000
    C122     C        0.64200    0.38010    0.43860    1.000
    C123     C        0.68030    0.34390    0.38610    1.000
    C124     C        0.69200    0.27460    0.38350    1.000
    C125     C        0.68260    0.44250    0.34430    1.000
    C126     C        0.69900    0.49980    0.29590    1.000
    C127     C        0.76430    0.51580    0.28260    1.000
    H57      H        0.79570    0.48860    0.30380    1.000
    C128     C        0.78340    0.56940    0.24000    1.000
    H58      H        0.82690    0.57720    0.23140    1.000
    C129     C        0.73870    0.61150    0.20990    1.000
    C130     C        0.67310    0.59830    0.21990    1.000
    C131     C        0.65270    0.53980    0.26500    1.000
    H59      H        0.60930    0.53050    0.27220    1.000
    C132     C        0.62790    0.63900    0.18950    1.000
    H60      H        0.58430    0.62960    0.19200    1.000
    C133     C        0.65070    0.69550    0.15430    1.000
    H61      H        0.62090    0.72730    0.14150    1.000
    C134     C        0.71450    0.70780    0.13700    1.000
    H62      H        0.72580    0.74260    0.10350    1.000
    C135     C        0.75960    0.66980    0.16840    1.000
    H63      H        0.80300    0.68010    0.16400    1.000
    N17      N        0.64300    0.44180    0.41120    1.000
    N18      N        0.70580    0.38370    0.32710    1.000
    O33      O        0.57420    0.40610    0.54880    1.000
    O34      O        0.60270    0.30300    0.53600    1.000
    O35      O        0.66980    0.23890    0.43990    1.000
    O36      O        0.72580    0.25480    0.32320    1.000
    Zn9      Zn       0.58470    0.49988    0.48101    1.000
    C136     C        0.10360    0.86250    0.01110    1.000
    C137     C        0.14200    0.88010    0.93860    1.000
    C138     C        0.18030    0.84390    0.88610    1.000
    C139     C        0.19200    0.77460    0.88350    1.000
    C140     C        0.18260    0.94250    0.84430    1.000
    C141     C        0.19900    0.99980    0.79590    1.000
    C142     C        0.26430    0.01580    0.78260    1.000
    H64      H        0.29570    0.98860    0.80380    1.000
    C143     C        0.28340    0.06940    0.74000    1.000
    H65      H        0.32690    0.07720    0.73140    1.000
    C144     C        0.23870    0.11150    0.70990    1.000
    C145     C        0.17310    0.09830    0.71990    1.000
    C146     C        0.15270    0.03980    0.76500    1.000
    H66      H        0.10930    0.03050    0.77220    1.000
    C147     C        0.12790    0.13900    0.68950    1.000
    H67      H        0.08430    0.12960    0.69200    1.000
    C148     C        0.15070    0.19550    0.65430    1.000
    H68      H        0.12090    0.22730    0.64150    1.000
    C149     C        0.21450    0.20780    0.63700    1.000
    H69      H        0.22580    0.24260    0.60350    1.000
    C150     C        0.25960    0.16980    0.66840    1.000
    H70      H        0.30300    0.18010    0.66400    1.000
    N19      N        0.14300    0.94180    0.91120    1.000
    N20      N        0.20580    0.88370    0.82710    1.000
    O37      O        0.07420    0.90610    0.04880    1.000
    O38      O        0.10270    0.80300    0.03600    1.000
    O39      O        0.16980    0.73890    0.93990    1.000
    O40      O        0.22580    0.75480    0.82320    1.000
    Zn10     Zn       0.08470    0.99988    0.98101    1.000
    C151     C        0.89640    0.63750    0.01110    1.000
    C152     C        0.85800    0.61990    0.93860    1.000
    C153     C        0.81970    0.65610    0.88610    1.000
    C154     C        0.80800    0.72540    0.88350    1.000
    C155     C        0.81740    0.55750    0.84430    1.000
    C156     C        0.80100    0.50020    0.79590    1.000
    C157     C        0.73570    0.48420    0.78260    1.000
    H71      H        0.70430    0.51140    0.80380    1.000
    C158     C        0.71660    0.43060    0.74000    1.000
    H72      H        0.67310    0.42280    0.73140    1.000
    C159     C        0.76130    0.38850    0.70990    1.000
    C160     C        0.82690    0.40170    0.71990    1.000
    C161     C        0.84730    0.46020    0.76500    1.000
    H73      H        0.89070    0.46950    0.77220    1.000
    C162     C        0.87210    0.36100    0.68950    1.000
    H74      H        0.91570    0.37040    0.69200    1.000
    C163     C        0.84930    0.30450    0.65430    1.000
    H75      H        0.87910    0.27270    0.64150    1.000
    C164     C        0.78550    0.29220    0.63700    1.000
    H76      H        0.77420    0.25740    0.60350    1.000
    C165     C        0.74040    0.33020    0.66840    1.000
    H77      H        0.69700    0.31990    0.66400    1.000
    N21      N        0.85700    0.55820    0.91120    1.000
    N22      N        0.79420    0.61630    0.82710    1.000
    O41      O        0.92580    0.59390    0.04880    1.000
    O42      O        0.89730    0.69700    0.03600    1.000
    O43      O        0.83020    0.76110    0.93990    1.000
    O44      O        0.77420    0.74520    0.82320    1.000
    Zn11     Zn       0.91530    0.50012    0.98101    1.000
    C166     C        0.39640    0.13750    0.51110    1.000
    C167     C        0.35800    0.11990    0.43860    1.000
    C168     C        0.31970    0.15610    0.38610    1.000
    C169     C        0.30800    0.22540    0.38350    1.000
    C170     C        0.31740    0.05750    0.34430    1.000
    C171     C        0.30100    0.00020    0.29590    1.000
    C172     C        0.23570    0.98420    0.28260    1.000
    H78      H        0.20430    0.01140    0.30380    1.000
    C173     C        0.21660    0.93060    0.24000    1.000
    H79      H        0.17310    0.92280    0.23140    1.000
    C174     C        0.26130    0.88850    0.20990    1.000
    C175     C        0.32690    0.90170    0.21990    1.000
    C176     C        0.34730    0.96020    0.26500    1.000
    H80      H        0.39070    0.96950    0.27220    1.000
    C177     C        0.37210    0.86100    0.18950    1.000
    H81      H        0.41570    0.87040    0.19200    1.000
    C178     C        0.34930    0.80450    0.15430    1.000
    H82      H        0.37910    0.77270    0.14150    1.000
    C179     C        0.28550    0.79220    0.13700    1.000
    H83      H        0.27420    0.75740    0.10350    1.000
    C180     C        0.24040    0.83020    0.16840    1.000
    H84      H        0.19700    0.81990    0.16400    1.000
    N23      N        0.35700    0.05820    0.41120    1.000
    N24      N        0.29420    0.11630    0.32710    1.000
    O45      O        0.42580    0.09390    0.54880    1.000
    O46      O        0.39730    0.19700    0.53600    1.000
    O47      O        0.33020    0.26110    0.43990    1.000
    O48      O        0.27420    0.24520    0.32320    1.000
    Zn12     Zn       0.41530    0.00012    0.48101    1.000
    C181     C        0.88750    0.35360    0.26110    1.000
    C182     C        0.86990    0.39200    0.18860    1.000
    C183     C        0.90610    0.43030    0.13610    1.000
    C184     C        0.97540    0.44200    0.13350    1.000
    C185     C        0.80750    0.43260    0.09430    1.000
    C186     C        0.75020    0.44900    0.04590    1.000
    C187     C        0.73420    0.51430    0.03260    1.000
    H85      H        0.76140    0.54570    0.05380    1.000
    C188     C        0.68060    0.53340    0.99000    1.000
    H86      H        0.67280    0.57690    0.98140    1.000
    C189     C        0.63850    0.48870    0.95990    1.000
    C190     C        0.65170    0.42310    0.96990    1.000
    C191     C        0.71020    0.40270    0.01500    1.000
    H87      H        0.71950    0.35930    0.02220    1.000
    C192     C        0.61100    0.37790    0.93950    1.000
    H88      H        0.62040    0.33430    0.94200    1.000
    C193     C        0.55450    0.40070    0.90430    1.000
    H89      H        0.52270    0.37090    0.89150    1.000
    C194     C        0.54220    0.46450    0.88700    1.000
    H90      H        0.50740    0.47580    0.85350    1.000
    C195     C        0.58020    0.50960    0.91840    1.000
    H91      H        0.56990    0.55300    0.91400    1.000
    N25      N        0.80820    0.39300    0.16120    1.000
    N26      N        0.86630    0.45580    0.07710    1.000
    O49      O        0.84390    0.32420    0.29880    1.000
    O50      O        0.94700    0.35270    0.28600    1.000
    O51      O        0.01110    0.41980    0.18990    1.000
    O52      O        0.99520    0.47580    0.07320    1.000
    Zn13     Zn       0.75012    0.33470    0.23101    1.000
    C196     C        0.38750    0.85360    0.76110    1.000
    C197     C        0.36990    0.89200    0.68860    1.000
    C198     C        0.40610    0.93030    0.63610    1.000
    C199     C        0.47540    0.94200    0.63350    1.000
    C200     C        0.30750    0.93260    0.59430    1.000
    C201     C        0.25020    0.94900    0.54590    1.000
    C202     C        0.23420    0.01430    0.53260    1.000
    H92      H        0.26140    0.04570    0.55380    1.000
    C203     C        0.18060    0.03340    0.49000    1.000
    H93      H        0.17280    0.07690    0.48140    1.000
    C204     C        0.13850    0.98870    0.45990    1.000
    C205     C        0.15170    0.92310    0.46990    1.000
    C206     C        0.21020    0.90270    0.51500    1.000
    H94      H        0.21950    0.85930    0.52220    1.000
    C207     C        0.11100    0.87790    0.43950    1.000
    H95      H        0.12040    0.83430    0.44200    1.000
    C208     C        0.05450    0.90070    0.40430    1.000
    H96      H        0.02270    0.87090    0.39150    1.000
    C209     C        0.04220    0.96450    0.38700    1.000
    H97      H        0.00740    0.97580    0.35350    1.000
    C210     C        0.08020    0.00960    0.41840    1.000
    H98      H        0.06990    0.05300    0.41400    1.000
    N27      N        0.30820    0.89300    0.66120    1.000
    N28      N        0.36630    0.95580    0.57710    1.000
    O53      O        0.34390    0.82420    0.79880    1.000
    O54      O        0.44700    0.85270    0.78600    1.000
    O55      O        0.51110    0.91980    0.68990    1.000
    O56      O        0.49520    0.97580    0.57320    1.000
    Zn14     Zn       0.25012    0.83470    0.73101    1.000
    C211     C        0.61250    0.64640    0.76110    1.000
    C212     C        0.63010    0.60800    0.68860    1.000
    C213     C        0.59390    0.56970    0.63610    1.000
    C214     C        0.52460    0.55800    0.63350    1.000
    C215     C        0.69250    0.56740    0.59430    1.000
    C216     C        0.74980    0.55100    0.54590    1.000
    C217     C        0.76580    0.48570    0.53260    1.000
    H99      H        0.73860    0.45430    0.55380    1.000
    C218     C        0.81940    0.46660    0.49000    1.000
    H100     H        0.82720    0.42310    0.48140    1.000
    C219     C        0.86150    0.51130    0.45990    1.000
    C220     C        0.84830    0.57690    0.46990    1.000
    C221     C        0.78980    0.59730    0.51500    1.000
    H101     H        0.78050    0.64070    0.52220    1.000
    C222     C        0.88900    0.62210    0.43950    1.000
    H102     H        0.87960    0.66570    0.44200    1.000
    C223     C        0.94550    0.59930    0.40430    1.000
    H103     H        0.97730    0.62910    0.39150    1.000
    C224     C        0.95780    0.53550    0.38700    1.000
    H104     H        0.99260    0.52420    0.35350    1.000
    C225     C        0.91980    0.49040    0.41840    1.000
    H105     H        0.93010    0.44700    0.41400    1.000
    N29      N        0.69180    0.60700    0.66120    1.000
    N30      N        0.63370    0.54420    0.57710    1.000
    O57      O        0.65610    0.67580    0.79880    1.000
    O58      O        0.55300    0.64730    0.78600    1.000
    O59      O        0.48890    0.58020    0.68990    1.000
    O60      O        0.50480    0.52420    0.57320    1.000
    Zn15     Zn       0.74988    0.66530    0.73101    1.000
    C226     C        0.11250    0.14640    0.26110    1.000
    C227     C        0.13010    0.10800    0.18860    1.000
    C228     C        0.09390    0.06970    0.13610    1.000
    C229     C        0.02460    0.05800    0.13350    1.000
    C230     C        0.19250    0.06740    0.09430    1.000
    C231     C        0.24980    0.05100    0.04590    1.000
    C232     C        0.26580    0.98570    0.03260    1.000
    H106     H        0.23860    0.95430    0.05380    1.000
    C233     C        0.31940    0.96660    0.99000    1.000
    H107     H        0.32720    0.92310    0.98140    1.000
    C234     C        0.36150    0.01130    0.95990    1.000
    C235     C        0.34830    0.07690    0.96990    1.000
    C236     C        0.28980    0.09730    0.01500    1.000
    H108     H        0.28050    0.14070    0.02220    1.000
    C237     C        0.38900    0.12210    0.93950    1.000
    H109     H        0.37960    0.16570    0.94200    1.000
    C238     C        0.44550    0.09930    0.90430    1.000
    H110     H        0.47730    0.12910    0.89150    1.000
    C239     C        0.45780    0.03550    0.88700    1.000
    H111     H        0.49260    0.02420    0.85350    1.000
    C240     C        0.41980    0.99040    0.91840    1.000
    H112     H        0.43010    0.94700    0.91400    1.000
    N31      N        0.19180    0.10700    0.16120    1.000
    N32      N        0.13370    0.04420    0.07710    1.000
    O61      O        0.15610    0.17580    0.29880    1.000
    O62      O        0.05300    0.14730    0.28600    1.000
    O63      O        0.98890    0.08020    0.18990    1.000
    O64      O        0.00480    0.02420    0.07320    1.000
    Zn16     Zn       0.24988    0.16530    0.23101    1.000
