# CIF file generated by openbabel 3.1.0, see https://openbabel.org
data_I
_chemical_name_common 'image0'
_cell_length_a 16.3303
_cell_length_b 20.6847
_cell_length_c 16.9801
_cell_angle_alpha 90
_cell_angle_beta 98.472
_cell_angle_gamma 90
_space_group_name_H-M_alt 'P 1'
_space_group_name_Hall 'P 1'
loop_
    _symmetry_equiv_pos_as_xyz
    x,y,z
loop_
    _atom_site_label
    _atom_site_type_symbol
    _atom_site_fract_x
    _atom_site_fract_y
    _atom_site_fract_z
    _atom_site_occupancy
    Zn1      Zn       0.47966    0.17416    0.24922    1.000
    Zn2      Zn       0.60281    0.15028    0.43951    1.000
    Zn3      Zn       0.38786    0.13803    0.05566    1.000
    S1       S        0.54593    0.56473    0.37330    1.000
    S2       S        0.95811    0.27397    0.24087    1.000
    S3       S        0.11763    0.00600    0.45812    1.000
    O1       O        0.89650    0.65520    0.24740    1.000
    O2       O        0.49620    0.24680    0.33000    1.000
    O3       O        0.47710    0.11100    0.35760    1.000
    O4       O        0.99310    0.25720    0.66200    1.000
    O5       O        0.35400    0.18780    0.23870    1.000
    O6       O        0.03870    0.58770    0.30920    1.000
    O7       O        0.59610    0.24460    0.43370    1.000
    O8       O        0.83060    0.61400    0.13530    1.000
    O9       O        0.51060    0.10400    0.48670    1.000
    O10      O        0.96150    0.29300    0.53710    1.000
    O11      O        0.30200    0.17320    0.10900    1.000
    O12      O        0.06590    0.55220    0.42990    1.000
    O13      O        0.90440    0.27660    0.16540    1.000
    O14      O        0.93470    0.23710    0.30490    1.000
    O15      O        0.11980    0.95690    0.51740    1.000
    O16      O        0.07190    0.99600    0.38030    1.000
    O17      O        0.56310    0.58950    0.45210    1.000
    O18      O        0.47310    0.58440    0.32120    1.000
    C1       C        0.23660    0.05080    0.37600    1.000
    H1       H        0.19440    0.05420    0.33300    1.000
    C2       C        0.15110    0.22300    0.13260    1.000
    H2       H        0.16270    0.21950    0.08070    1.000
    C3       C        0.07290    0.24260    0.14590    1.000
    H3       H        0.03220    0.25240    0.10330    1.000
    C4       C        0.28300    0.01890    0.51140    1.000
    H4       H        0.27190    0.00010    0.55850    1.000
    C5       C        0.19370    0.21320    0.27380    1.000
    H5       H        0.23380    0.20350    0.31690    1.000
    C6       C        0.97340    0.40360    0.22120    1.000
    H6       H        0.95950    0.39540    0.16700    1.000
    C7       C        0.63220    0.58140    0.32320    1.000
    C8       C        0.59350    0.44820    0.44170    1.000
    H7       H        0.62490    0.47150    0.48220    1.000
    C9       C        0.99110    0.46520    0.24780    1.000
    H8       H        0.98820    0.49910    0.21160    1.000
    C10      C        0.21220    0.20850    0.19640    1.000
    C11      C        0.01500    0.42720    0.38220    1.000
    H9       H        0.02910    0.43500    0.43650    1.000
    C12      C        0.46230    0.09590    0.42320    1.000
    C13      C        0.11590    0.23220    0.28630    1.000
    H10      H        0.10350    0.23480    0.33800    1.000
    C14      C        0.01420    0.18020    0.47560    1.000
    H11      H        0.98980    0.21180    0.44070    1.000
    C15      C        0.07980    0.07810    0.49670    1.000
    C16      C        0.59340    0.38150    0.44240    1.000
    H12      H        0.62570    0.35980    0.48380    1.000
    C17      C        0.05620    0.24730    0.22300    1.000
    C18      C        0.76560    0.60860    0.24880    1.000
    C19      C        0.29720    0.18780    0.18100    1.000
    C20      C        0.08810    0.08630    0.57890    1.000
    H13      H        0.11240    0.05450    0.61330    1.000
    C21      C        0.50040    0.37830    0.32160    1.000
    H14      H        0.46970    0.35510    0.28050    1.000
    C22      C        0.02170    0.19020    0.55690    1.000
    C23      C        0.99580    0.36520    0.35500    1.000
    H15      H        0.99600    0.33130    0.39100    1.000
    C24      C        0.31520    0.07060    0.36900    1.000
    H16      H        0.32650    0.08660    0.32060    1.000
    C25      C        0.77220    0.61060    0.33010    1.000
    H17      H        0.82240    0.62190    0.36040    1.000
    C26      C        0.01320    0.47730    0.32850    1.000
    C27      C        0.36220    0.04000    0.50420    1.000
    H18      H        0.40470    0.03630    0.54690    1.000
    C28      C        0.54630    0.27430    0.38210    1.000
    C29      C        0.49860    0.44460    0.31950    1.000
    H19      H        0.46600    0.46630    0.27830    1.000
    C30      C        0.03870    0.54500    0.35630    1.000
    C31      C        0.62480    0.57760    0.24340    1.000
    H20      H        0.57430    0.56650    0.21360    1.000
    C32      C        0.54670    0.47870    0.38030    1.000
    C33      C        0.83760    0.62710    0.20770    1.000
    C34      C        0.37780    0.06700    0.43260    1.000
    C35      C        0.69200    0.58990    0.20600    1.000
    H21      H        0.68750    0.58560    0.15100    1.000
    C36      C        0.05960    0.14270    0.60790    1.000
    H22      H        0.06570    0.14940    0.66260    1.000
    C37      C        0.54600    0.34570    0.38220    1.000
    C38      C        0.04310    0.12350    0.44580    1.000
    H23      H        0.03720    0.11670    0.39110    1.000
    C39      C        0.99040    0.25120    0.58900    1.000
    C40      C        0.22060    0.02620    0.44680    1.000
    C41      C        0.97650    0.35400    0.27540    1.000
    C42      C        0.70530    0.59620    0.36720    1.000
    H24      H        0.71040    0.59650    0.42250    1.000
    Zn4      Zn       0.02034    0.67416    0.25078    1.000
    Zn5      Zn       0.89719    0.65028    0.06049    1.000
    Zn6      Zn       0.11214    0.63803    0.44434    1.000
    S4       S        0.95407    0.06473    0.12670    1.000
    S5       S        0.54189    0.77397    0.25913    1.000
    S6       S        0.38237    0.50600    0.04188    1.000
    O19      O        0.60350    0.15520    0.25260    1.000
    O20      O        0.00380    0.74680    0.17000    1.000
    O21      O        0.02290    0.61100    0.14240    1.000
    O22      O        0.50690    0.75720    0.83800    1.000
    O23      O        0.14600    0.68780    0.26130    1.000
    O24      O        0.46130    0.08770    0.19080    1.000
    O25      O        0.90390    0.74460    0.06630    1.000
    O26      O        0.66940    0.11400    0.36470    1.000
    O27      O        0.98940    0.60400    0.01330    1.000
    O28      O        0.53850    0.79300    0.96290    1.000
    O29      O        0.19800    0.67320    0.39100    1.000
    O30      O        0.43410    0.05220    0.07010    1.000
    O31      O        0.59560    0.77660    0.33460    1.000
    O32      O        0.56530    0.73710    0.19510    1.000
    O33      O        0.38020    0.45690    0.98260    1.000
    O34      O        0.42810    0.49600    0.11970    1.000
    O35      O        0.93690    0.08950    0.04790    1.000
    O36      O        0.02690    0.08440    0.17880    1.000
    C43      C        0.26340    0.55080    0.12400    1.000
    H25      H        0.30560    0.55420    0.16700    1.000
    C44      C        0.34890    0.72300    0.36740    1.000
    H26      H        0.33730    0.71950    0.41930    1.000
    C45      C        0.42710    0.74260    0.35410    1.000
    H27      H        0.46780    0.75240    0.39670    1.000
    C46      C        0.21700    0.51890    0.98860    1.000
    H28      H        0.22810    0.50010    0.94150    1.000
    C47      C        0.30630    0.71320    0.22620    1.000
    H29      H        0.26620    0.70350    0.18310    1.000
    C48      C        0.52660    0.90360    0.27880    1.000
    H30      H        0.54050    0.89540    0.33300    1.000
    C49      C        0.86780    0.08140    0.17680    1.000
    C50      C        0.90650    0.94820    0.05830    1.000
    H31      H        0.87510    0.97150    0.01780    1.000
    C51      C        0.50890    0.96520    0.25220    1.000
    H32      H        0.51180    0.99910    0.28840    1.000
    C52      C        0.28780    0.70850    0.30360    1.000
    C53      C        0.48500    0.92720    0.11780    1.000
    H33      H        0.47090    0.93500    0.06350    1.000
    C54      C        0.03770    0.59590    0.07680    1.000
    C55      C        0.38410    0.73220    0.21370    1.000
    H34      H        0.39650    0.73480    0.16200    1.000
    C56      C        0.48580    0.68020    0.02440    1.000
    H35      H        0.51020    0.71180    0.05930    1.000
    C57      C        0.42020    0.57810    0.00330    1.000
    C58      C        0.90660    0.88150    0.05760    1.000
    H36      H        0.87430    0.85980    0.01620    1.000
    C59      C        0.44380    0.74730    0.27700    1.000
    C60      C        0.73440    0.10860    0.25120    1.000
    C61      C        0.20280    0.68780    0.31900    1.000
    C62      C        0.41190    0.58630    0.92110    1.000
    H37      H        0.38760    0.55450    0.88670    1.000
    C63      C        0.99960    0.87830    0.17840    1.000
    H38      H        0.03030    0.85510    0.21950    1.000
    C64      C        0.47830    0.69020    0.94310    1.000
    C65      C        0.50420    0.86520    0.14500    1.000
    H39      H        0.50400    0.83130    0.10900    1.000
    C66      C        0.18480    0.57060    0.13100    1.000
    H40      H        0.17350    0.58660    0.17940    1.000
    C67      C        0.72780    0.11060    0.16990    1.000
    H41      H        0.67760    0.12190    0.13960    1.000
    C68      C        0.48680    0.97730    0.17150    1.000
    C69      C        0.13780    0.54000    0.99580    1.000
    H42      H        0.09530    0.53630    0.95310    1.000
    C70      C        0.95370    0.77430    0.11790    1.000
    C71      C        0.00140    0.94460    0.18050    1.000
    H43      H        0.03400    0.96630    0.22170    1.000
    C72      C        0.46130    0.04500    0.14370    1.000
    C73      C        0.87520    0.07760    0.25660    1.000
    H44      H        0.92570    0.06650    0.28640    1.000
    C74      C        0.95330    0.97870    0.11970    1.000
    C75      C        0.66240    0.12710    0.29230    1.000
    C76      C        0.12220    0.56700    0.06740    1.000
    C77      C        0.80800    0.08990    0.29400    1.000
    H45      H        0.81250    0.08560    0.34900    1.000
    C78      C        0.44040    0.64270    0.89210    1.000
    H46      H        0.43430    0.64940    0.83740    1.000
    C79      C        0.95400    0.84570    0.11780    1.000
    C80      C        0.45690    0.62350    0.05420    1.000
    H47      H        0.46280    0.61670    0.10890    1.000
    C81      C        0.50960    0.75120    0.91100    1.000
    C82      C        0.27940    0.52620    0.05320    1.000
    C83      C        0.52350    0.85400    0.22460    1.000
    C84      C        0.79470    0.09620    0.13280    1.000
    H48      H        0.78960    0.09650    0.07750    1.000
    Zn7      Zn       0.52034    0.82584    0.75078    1.000
    Zn8      Zn       0.39719    0.84972    0.56049    1.000
    Zn9      Zn       0.61214    0.86197    0.94434    1.000
    S7       S        0.45407    0.43527    0.62670    1.000
    S8       S        0.04189    0.72603    0.75913    1.000
    S9       S        0.88237    0.99400    0.54188    1.000
    O37      O        0.10350    0.34480    0.75260    1.000
    O38      O        0.50380    0.75320    0.67000    1.000
    O39      O        0.52290    0.88900    0.64240    1.000
    O40      O        0.00690    0.74280    0.33800    1.000
    O41      O        0.64600    0.81220    0.76130    1.000
    O42      O        0.96130    0.41230    0.69080    1.000
    O43      O        0.40390    0.75540    0.56630    1.000
    O44      O        0.16940    0.38600    0.86470    1.000
    O45      O        0.48940    0.89600    0.51330    1.000
    O46      O        0.03850    0.70700    0.46290    1.000
    O47      O        0.69800    0.82680    0.89100    1.000
    O48      O        0.93410    0.44780    0.57010    1.000
    O49      O        0.09560    0.72340    0.83460    1.000
    O50      O        0.06530    0.76290    0.69510    1.000
    O51      O        0.88020    0.04310    0.48260    1.000
    O52      O        0.92810    0.00400    0.61970    1.000
    O53      O        0.43690    0.41050    0.54790    1.000
    O54      O        0.52690    0.41560    0.67880    1.000
    C85      C        0.76340    0.94920    0.62400    1.000
    H49      H        0.80560    0.94580    0.66700    1.000
    C86      C        0.84890    0.77700    0.86740    1.000
    H50      H        0.83730    0.78050    0.91930    1.000
    C87      C        0.92710    0.75740    0.85410    1.000
    H51      H        0.96780    0.74760    0.89670    1.000
    C88      C        0.71700    0.98110    0.48860    1.000
    H52      H        0.72810    0.99990    0.44150    1.000
    C89      C        0.80630    0.78680    0.72620    1.000
    H53      H        0.76620    0.79650    0.68310    1.000
    C90      C        0.02660    0.59640    0.77880    1.000
    H54      H        0.04050    0.60460    0.83300    1.000
    C91      C        0.36780    0.41860    0.67680    1.000
    C92      C        0.40650    0.55180    0.55830    1.000
    H55      H        0.37510    0.52850    0.51780    1.000
    C93      C        0.00890    0.53480    0.75220    1.000
    H56      H        0.01180    0.50090    0.78840    1.000
    C94      C        0.78780    0.79150    0.80360    1.000
    C95      C        0.98500    0.57280    0.61780    1.000
    H57      H        0.97090    0.56500    0.56350    1.000
    C96      C        0.53770    0.90410    0.57680    1.000
    C97      C        0.88410    0.76780    0.71370    1.000
    H58      H        0.89650    0.76520    0.66200    1.000
    C98      C        0.98580    0.81980    0.52440    1.000
    H59      H        0.01020    0.78820    0.55930    1.000
    C99      C        0.92020    0.92190    0.50330    1.000
    C100     C        0.40660    0.61850    0.55760    1.000
    H60      H        0.37430    0.64020    0.51620    1.000
    C101     C        0.94380    0.75270    0.77700    1.000
    C102     C        0.23440    0.39140    0.75120    1.000
    C103     C        0.70280    0.81220    0.81900    1.000
    C104     C        0.91190    0.91370    0.42110    1.000
    H61      H        0.88760    0.94550    0.38670    1.000
    C105     C        0.49960    0.62170    0.67840    1.000
    H62      H        0.53030    0.64490    0.71950    1.000
    C106     C        0.97830    0.80980    0.44310    1.000
    C107     C        0.00420    0.63480    0.64500    1.000
    H63      H        0.00400    0.66870    0.60900    1.000
    C108     C        0.68480    0.92940    0.63100    1.000
    H64      H        0.67350    0.91340    0.67940    1.000
    C109     C        0.22780    0.38940    0.66990    1.000
    H65      H        0.17760    0.37810    0.63960    1.000
    C110     C        0.98680    0.52270    0.67150    1.000
    C111     C        0.63780    0.96000    0.49580    1.000
    H66      H        0.59530    0.96370    0.45310    1.000
    C112     C        0.45370    0.72570    0.61790    1.000
    C113     C        0.50140    0.55540    0.68050    1.000
    H67      H        0.53400    0.53370    0.72170    1.000
    C114     C        0.96130    0.45500    0.64370    1.000
    C115     C        0.37520    0.42240    0.75660    1.000
    H68      H        0.42570    0.43350    0.78640    1.000
    C116     C        0.45330    0.52130    0.61970    1.000
    C117     C        0.16240    0.37290    0.79230    1.000
    C118     C        0.62220    0.93300    0.56740    1.000
    C119     C        0.30800    0.41010    0.79400    1.000
    H69      H        0.31250    0.41440    0.84900    1.000
    C120     C        0.94040    0.85730    0.39210    1.000
    H70      H        0.93430    0.85060    0.33740    1.000
    C121     C        0.45400    0.65430    0.61780    1.000
    C122     C        0.95690    0.87650    0.55420    1.000
    H71      H        0.96280    0.88330    0.60890    1.000
    C123     C        0.00960    0.74880    0.41100    1.000
    C124     C        0.77940    0.97380    0.55320    1.000
    C125     C        0.02350    0.64600    0.72460    1.000
    C126     C        0.29470    0.40380    0.63280    1.000
    H72      H        0.28960    0.40350    0.57750    1.000
    Zn10     Zn       0.97966    0.32584    0.74922    1.000
    Zn11     Zn       0.10281    0.34972    0.93951    1.000
    Zn12     Zn       0.88786    0.36197    0.55566    1.000
    S10      S        0.04593    0.93527    0.87330    1.000
    S11      S        0.45811    0.22603    0.74087    1.000
    S12      S        0.61763    0.49400    0.95812    1.000
    O55      O        0.39650    0.84480    0.74740    1.000
    O56      O        0.99620    0.25320    0.83000    1.000
    O57      O        0.97710    0.38900    0.85760    1.000
    O58      O        0.49310    0.24280    0.16200    1.000
    O59      O        0.85400    0.31220    0.73870    1.000
    O60      O        0.53870    0.91230    0.80920    1.000
    O61      O        0.09610    0.25540    0.93370    1.000
    O62      O        0.33060    0.88600    0.63530    1.000
    O63      O        0.01060    0.39600    0.98670    1.000
    O64      O        0.46150    0.20700    0.03710    1.000
    O65      O        0.80200    0.32680    0.60900    1.000
    O66      O        0.56590    0.94780    0.92990    1.000
    O67      O        0.40440    0.22340    0.66540    1.000
    O68      O        0.43470    0.26290    0.80490    1.000
    O69      O        0.61980    0.54310    0.01740    1.000
    O70      O        0.57190    0.50400    0.88030    1.000
    O71      O        0.06310    0.91050    0.95210    1.000
    O72      O        0.97310    0.91560    0.82120    1.000
    C127     C        0.73660    0.44920    0.87600    1.000
    H73      H        0.69440    0.44580    0.83300    1.000
    C128     C        0.65110    0.27700    0.63260    1.000
    H74      H        0.66270    0.28050    0.58070    1.000
    C129     C        0.57290    0.25740    0.64590    1.000
    H75      H        0.53220    0.24760    0.60330    1.000
    C130     C        0.78300    0.48110    0.01140    1.000
    H76      H        0.77190    0.49990    0.05850    1.000
    C131     C        0.69370    0.28680    0.77380    1.000
    H77      H        0.73380    0.29650    0.81690    1.000
    C132     C        0.47340    0.09640    0.72120    1.000
    H78      H        0.45950    0.10460    0.66700    1.000
    C133     C        0.13220    0.91860    0.82320    1.000
    C134     C        0.09350    0.05180    0.94170    1.000
    H79      H        0.12490    0.02850    0.98220    1.000
    C135     C        0.49110    0.03480    0.74780    1.000
    H80      H        0.48820    0.00090    0.71160    1.000
    C136     C        0.71220    0.29150    0.69640    1.000
    C137     C        0.51500    0.07280    0.88220    1.000
    H81      H        0.52910    0.06500    0.93650    1.000
    C138     C        0.96230    0.40410    0.92320    1.000
    C139     C        0.61590    0.26780    0.78630    1.000
    H82      H        0.60350    0.26520    0.83800    1.000
    C140     C        0.51420    0.31980    0.97560    1.000
    H83      H        0.48980    0.28820    0.94070    1.000
    C141     C        0.57980    0.42190    0.99670    1.000
    C142     C        0.09340    0.11850    0.94240    1.000
    H84      H        0.12570    0.14020    0.98380    1.000
    C143     C        0.55620    0.25270    0.72300    1.000
    C144     C        0.26560    0.89140    0.74880    1.000
    C145     C        0.79720    0.31220    0.68100    1.000
    C146     C        0.58810    0.41370    0.07890    1.000
    H85      H        0.61240    0.44550    0.11330    1.000
    C147     C        0.00040    0.12170    0.82160    1.000
    H86      H        0.96970    0.14490    0.78050    1.000
    C148     C        0.52170    0.30980    0.05690    1.000
    C149     C        0.49580    0.13480    0.85500    1.000
    H87      H        0.49600    0.16870    0.89100    1.000
    C150     C        0.81520    0.42940    0.86900    1.000
    H88      H        0.82650    0.41340    0.82060    1.000
    C151     C        0.27220    0.88940    0.83010    1.000
    H89      H        0.32240    0.87810    0.86040    1.000
    C152     C        0.51320    0.02270    0.82850    1.000
    C153     C        0.86220    0.46000    0.00420    1.000
    H90      H        0.90470    0.46370    0.04690    1.000
    C154     C        0.04630    0.22570    0.88210    1.000
    C155     C        0.99860    0.05540    0.81950    1.000
    H91      H        0.96600    0.03370    0.77830    1.000
    C156     C        0.53870    0.95500    0.85630    1.000
    C157     C        0.12480    0.92240    0.74340    1.000
    H92      H        0.07430    0.93350    0.71360    1.000
    C158     C        0.04670    0.02130    0.88030    1.000
    C159     C        0.33760    0.87290    0.70770    1.000
    C160     C        0.87780    0.43300    0.93260    1.000
    C161     C        0.19200    0.91010    0.70600    1.000
    H93      H        0.18750    0.91440    0.65100    1.000
    C162     C        0.55960    0.35730    0.10790    1.000
    H94      H        0.56570    0.35060    0.16260    1.000
    C163     C        0.04600    0.15430    0.88220    1.000
    C164     C        0.54310    0.37650    0.94580    1.000
    H95      H        0.53720    0.38330    0.89110    1.000
    C165     C        0.49040    0.24880    0.08900    1.000
    C166     C        0.72060    0.47380    0.94680    1.000
    C167     C        0.47650    0.14600    0.77540    1.000
    C168     C        0.20530    0.90380    0.86720    1.000
    H96      H        0.21040    0.90350    0.92250    1.000
