data_functionalizedCrystal
_audit_creation_method	'EQeq! by Chris Wilmer'
_symmetry_space_group_name_H-M	'P1'
_symmetry_Int_Tables_number	1
_symmetry_cell_setting	triclinic
loop_
_symmetry_equiv_pos_as_xyz
  x,y,z
_cell_length_a	20.0135
_cell_length_b	20.0135
_cell_length_c	20.0135
_cell_angle_alpha	109.471
_cell_angle_beta	109.471
_cell_angle_gamma	109.471
loop_
_atom_site_label
_atom_site_type_symbol
_atom_site_fract_x
_atom_site_fract_y
_atom_site_fract_z
_atom_site_charge
Mof_Cu	Cu	0.208	0.87696	0.2481	0.728
Mof_Cu	Cu	0.12886	0.9599	0.2519	0.727
Mof_Cu	Cu	0.37114	0.62304	0.83104	0.729
Mof_Cu	Cu	0.292	0.5401	0.66896	0.729
Mof_Cu	Cu	0.33104	0.37114	0.12304	0.728
Mof_Cu	Cu	0.16896	0.292	0.0401	0.728
Mof_Cu	Cu	0.7481	0.208	0.37696	0.729
Mof_Cu	Cu	0.7519	0.12886	0.4599	0.728
Mof_Cu	Cu	0.9599	0.7519	0.62886	0.729
Mof_Cu	Cu	0.87696	0.7481	0.708	0.729
Mof_Cu	Cu	0.5401	0.16896	0.792	0.729
Mof_Cu	Cu	0.62304	0.33104	0.87114	0.728
Mof_Cu	Cu	0.4599	0.62886	0.7519	0.729
Mof_Cu	Cu	0.37696	0.708	0.7481	0.73
Mof_Cu	Cu	0.0401	0.792	0.16896	0.728
Mof_Cu	Cu	0.12304	0.87114	0.33104	0.729
Mof_Cu	Cu	0.708	0.2481	0.87696	0.729
Mof_Cu	Cu	0.62886	0.2519	0.9599	0.729
Mof_Cu	Cu	0.87114	0.83104	0.62304	0.73
Mof_Cu	Cu	0.792	0.66896	0.5401	0.73
Mof_Cu	Cu	0.83104	0.12304	0.37114	0.729
Mof_Cu	Cu	0.66896	0.0401	0.292	0.729
Mof_Cu	Cu	0.2481	0.37696	0.208	0.73
Mof_Cu	Cu	0.2519	0.4599	0.12886	0.729
Mof_H 	H 	0.2955	0.9776	0.1969	-0.011
Mof_H 	H 	0.446	0.8526	0.2258	0.109
Mof_H 	H 	0.5472	0.018	0.1332	0.1
Mof_H 	H 	0.4515	0.9773	0.072	0.113
Mof_H 	H 	0.4926	0.0466	0.165	0.116
Mof_H 	H 	0.2807	0.0986	0.3031	-0.011
Mof_H 	H 	0.1268	0.2202	0.2742	0.108
Mof_H 	H 	0.3848	0.414	0.3668	0.1
Mof_H 	H 	0.4053	0.3795	0.428	0.114
Mof_H 	H 	0.3816	0.3276	0.335	0.116
Mof_H 	H 	0.2193	0.5224	0.8179	-0.011
Mof_H 	H 	0.3732	0.6474	0.0934	0.11
Mof_H 	H 	0.1152	0.482	0.0292	0.096
Mof_H 	H 	0.0947	0.5227	0.9742	0.112
Mof_H 	H 	0.1184	0.4534	0.946	0.114
Mof_H 	H 	0.2045	0.4014	0.6821	-0.011
Mof_H 	H 	0.054	0.2798	0.4066	0.109
Mof_H 	H 	0.9528	0.086	0.4708	0.097
Mof_H 	H 	0.0485	0.1205	0.5258	0.113
Mof_H 	H 	0.0074	0.1724	0.554	0.115
Mof_H 	H 	0.3179	0.2193	0.0224	-0.011
Mof_H 	H 	0.5934	0.3732	0.1474	0.109
Mof_H 	H 	0.5292	0.1152	0.982	0.099
Mof_H 	H 	0.4742	0.0947	0.0227	0.113
Mof_H 	H 	0.446	0.1184	0.9534	0.115
Mof_H 	H 	0.1821	0.2045	0.9014	-0.011
Mof_H 	H 	0.9066	0.054	0.7798	0.113
Mof_H 	H 	0.9708	0.9528	0.586	0.098
Mof_H 	H 	0.0258	0.0485	0.6205	0.112
Mof_H 	H 	0.054	0.0074	0.6724	0.114
Mof_H 	H 	0.6969	0.2955	0.4776	-0.011
Mof_H 	H 	0.7258	0.446	0.3526	0.109
Mof_H 	H 	0.6332	0.5472	0.518	0.1
Mof_H 	H 	0.572	0.4515	0.4773	0.114
Mof_H 	H 	0.665	0.4926	0.5466	0.116
Mof_H 	H 	0.8031	0.2807	0.5986	-0.011
Mof_H 	H 	0.7742	0.1268	0.7202	0.108
Mof_H 	H 	0.8668	0.3848	0.914	0.099
Mof_H 	H 	0.928	0.4053	0.8795	0.113
Mof_H 	H 	0.835	0.3816	0.8276	0.115
Mof_H 	H 	0.0986	0.8031	0.7807	-0.011
Mof_H 	H 	0.2202	0.7742	0.6268	0.109
Mof_H 	H 	0.414	0.8668	0.8848	0.1
Mof_H 	H 	0.3795	0.928	0.9053	0.114
Mof_H 	H 	0.3276	0.835	0.8816	0.116
Mof_H 	H 	0.9776	0.6969	0.7955	-0.011
Mof_H 	H 	0.8526	0.7258	0.946	0.108
Mof_H 	H 	0.018	0.6332	0.0472	0.1
Mof_H 	H 	0.9773	0.572	0.9515	0.115
Mof_H 	H 	0.0466	0.665	0.9926	0.12
Mof_H 	H 	0.4014	0.1821	0.7045	-0.011
Mof_H 	H 	0.2798	0.9066	0.554	0.109
Mof_H 	H 	0.086	0.9708	0.4528	0.096
Mof_H 	H 	0.1205	0.0258	0.5485	0.112
Mof_H 	H 	0.1724	0.054	0.5074	0.113
Mof_H 	H 	0.5224	0.3179	0.7193	-0.011
Mof_H 	H 	0.6474	0.5934	0.8732	0.108
Mof_H 	H 	0.482	0.5292	0.6152	0.1
Mof_H 	H 	0.5227	0.4742	0.5947	0.114
Mof_H 	H 	0.4534	0.446	0.6184	0.116
Mof_H 	H 	0.5986	0.7807	0.8031	-0.011
Mof_H 	H 	0.7202	0.6268	0.7742	0.109
Mof_H 	H 	0.914	0.8848	0.8668	0.1
Mof_H 	H 	0.8795	0.9053	0.928	0.113
Mof_H 	H 	0.8276	0.8816	0.835	0.116
Mof_H 	H 	0.4776	0.7955	0.6969	-0.011
Mof_H 	H 	0.3526	0.946	0.7258	0.109
Mof_H 	H 	0.518	0.0472	0.6332	0.099
Mof_H 	H 	0.4773	0.9515	0.572	0.113
Mof_H 	H 	0.5466	0.9926	0.665	0.116
Mof_H 	H 	0.9014	0.7045	0.1821	-0.01
Mof_H 	H 	0.7798	0.554	0.9066	0.111
Mof_H 	H 	0.586	0.4528	0.9708	0.098
Mof_H 	H 	0.6205	0.5485	0.0258	0.112
Mof_H 	H 	0.6724	0.5074	0.054	0.114
Mof_H 	H 	0.0224	0.7193	0.3179	-0.011
Mof_H 	H 	0.1474	0.8732	0.5934	0.108
Mof_H 	H 	0.982	0.6152	0.5292	0.102
Mof_H 	H 	0.0227	0.5947	0.4742	0.115
Mof_H 	H 	0.9534	0.6184	0.446	0.118
Mof_H 	H 	0.7955	0.1969	0.9776	-0.011
Mof_H 	H 	0.946	0.2258	0.8526	0.108
Mof_H 	H 	0.0472	0.1332	0.018	0.105
Mof_H 	H 	0.9515	0.072	0.9773	0.117
Mof_H 	H 	0.9926	0.165	0.0466	0.123
Mof_H 	H 	0.7807	0.3031	0.0986	-0.01
Mof_H 	H 	0.6268	0.2742	0.2202	0.109
Mof_H 	H 	0.8848	0.3668	0.414	0.1
Mof_H 	H 	0.9053	0.428	0.3795	0.114
Mof_H 	H 	0.8816	0.335	0.3276	0.116
Mof_H 	H 	0.7193	0.8179	0.5224	-0.011
Mof_H 	H 	0.8732	0.0934	0.6474	0.11
Mof_H 	H 	0.6152	0.0292	0.482	0.098
Mof_H 	H 	0.5947	0.9742	0.5227	0.113
Mof_H 	H 	0.6184	0.946	0.4534	0.115
Mof_H 	H 	0.7045	0.6821	0.4014	-0.011
Mof_H 	H 	0.554	0.4066	0.2798	0.109
Mof_H 	H 	0.4528	0.4708	0.086	0.099
Mof_H 	H 	0.5485	0.5258	0.1205	0.114
Mof_H 	H 	0.5074	0.554	0.1724	0.116
Mof_H 	H 	0.8179	0.0224	0.2193	-0.011
Mof_H 	H 	0.0934	0.1474	0.3732	0.108
Mof_H 	H 	0.0292	0.982	0.1152	0.096
Mof_H 	H 	0.9742	0.0227	0.0947	0.113
Mof_H 	H 	0.946	0.9534	0.1184	0.117
Mof_H 	H 	0.6821	0.9014	0.2045	-0.01
Mof_H 	H 	0.4066	0.7798	0.054	0.108
Mof_H 	H 	0.4708	0.586	0.9528	0.1
Mof_H 	H 	0.5258	0.6205	0.0485	0.114
Mof_H 	H 	0.554	0.6724	0.0074	0.116
Mof_H 	H 	0.1969	0.4776	0.2955	-0.011
Mof_H 	H 	0.2258	0.3526	0.446	0.109
Mof_H 	H 	0.1332	0.518	0.5472	0.1
Mof_H 	H 	0.072	0.4773	0.4515	0.113
Mof_H 	H 	0.165	0.5466	0.4926	0.116
Mof_H 	H 	0.3031	0.5986	0.2807	-0.011
Mof_H 	H 	0.2742	0.7202	0.1268	0.108
Mof_H 	H 	0.3668	0.914	0.3848	0.1
Mof_H 	H 	0.428	0.8795	0.4053	0.114
Mof_H 	H 	0.335	0.8276	0.3816	0.116
Mof_C 	C 	0.3272	0.9516	0.2032	0.101
Mof_C 	C 	0.4196	0.926	0.1836	0.177
Mof_C 	C 	0.4128	0.8771	0.2187	-0.226
Mof_C 	C 	0.3546	0.8658	0.2428	0.169
Mof_C 	C 	0.4931	0.9999	0.1286	-0.269
Mof_C 	C 	0.2484	0.124	0.2968	0.102
Mof_C 	C 	0.2424	0.236	0.3164	0.177
Mof_C 	C 	0.1584	0.1941	0.2813	-0.226
Mof_C 	C 	0.123	0.1118	0.2572	0.169
Mof_C 	C 	0.3713	0.3645	0.3714	-0.269
Mof_C 	C 	0.2516	0.5484	0.8756	0.102
Mof_C 	C 	0.2576	0.574	0.9936	0.18
Mof_C 	C 	0.3416	0.6229	0.0357	-0.23
Mof_C 	C 	0.377	0.6342	0.9888	0.171
Mof_C 	C 	0.1287	0.5001	0.9932	-0.26
Mof_C 	C 	0.1728	0.376	0.6244	0.102
Mof_C 	C 	0.0804	0.264	0.5064	0.177
Mof_C 	C 	0.0872	0.3059	0.4643	-0.226
Mof_C 	C 	0.1454	0.3882	0.5112	0.169
Mof_C 	C 	0.0069	0.1355	0.5068	-0.265
Mof_C 	C 	0.3756	0.2516	0.0484	0.101
Mof_C 	C 	0.4936	0.2576	0.074	0.177
Mof_C 	C 	0.5357	0.3416	0.1229	-0.226
Mof_C 	C 	0.4888	0.377	0.1342	0.169
Mof_C 	C 	0.4932	0.1287	0.0001	-0.267
Mof_C 	C 	0.1244	0.1728	0.876	0.103
Mof_C 	C 	0.0064	0.0804	0.764	0.186
Mof_C 	C 	0.9643	0.0872	0.8059	-0.24
Mof_C 	C 	0.0112	0.1454	0.8882	0.179
Mof_C 	C 	0.0068	0.0069	0.6355	-0.263
Mof_C 	C 	0.7032	0.3272	0.4516	0.101
Mof_C 	C 	0.6836	0.4196	0.426	0.177
Mof_C 	C 	0.7187	0.4128	0.3771	-0.226
Mof_C 	C 	0.7428	0.3546	0.3658	0.169
Mof_C 	C 	0.6286	0.4931	0.4999	-0.269
Mof_C 	C 	0.7968	0.2484	0.624	0.101
Mof_C 	C 	0.8164	0.2424	0.736	0.177
Mof_C 	C 	0.7813	0.1584	0.6941	-0.226
Mof_C 	C 	0.7572	0.123	0.6118	0.169
Mof_C 	C 	0.8714	0.3713	0.8645	-0.268
Mof_C 	C 	0.124	0.7968	0.7484	0.101
Mof_C 	C 	0.236	0.8164	0.7424	0.177
Mof_C 	C 	0.1941	0.7813	0.6584	-0.225
Mof_C 	C 	0.1118	0.7572	0.623	0.168
Mof_C 	C 	0.3645	0.8714	0.8713	-0.269
Mof_C 	C 	0.9516	0.7032	0.8272	0.101
Mof_C 	C 	0.926	0.6836	0.9196	0.176
Mof_C 	C 	0.8771	0.7187	0.9128	-0.226
Mof_C 	C 	0.8658	0.7428	0.8546	0.168
Mof_C 	C 	0.9999	0.6286	0.9931	-0.276
Mof_C 	C 	0.376	0.1244	0.6728	0.102
Mof_C 	C 	0.264	0.0064	0.5804	0.179
Mof_C 	C 	0.3059	0.9643	0.5872	-0.228
Mof_C 	C 	0.3882	0.0112	0.6454	0.17
Mof_C 	C 	0.1355	0.0068	0.5069	-0.261
Mof_C 	C 	0.5484	0.3756	0.7516	0.101
Mof_C 	C 	0.574	0.4936	0.7576	0.177
Mof_C 	C 	0.6229	0.5357	0.8416	-0.226
Mof_C 	C 	0.6342	0.4888	0.877	0.169
Mof_C 	C 	0.5001	0.4932	0.6287	-0.269
Mof_C 	C 	0.624	0.7484	0.7968	0.101
Mof_C 	C 	0.736	0.7424	0.8164	0.177
Mof_C 	C 	0.6941	0.6584	0.7813	-0.226
Mof_C 	C 	0.6118	0.623	0.7572	0.169
Mof_C 	C 	0.8645	0.8713	0.8714	-0.269
Mof_C 	C 	0.4516	0.8272	0.7032	0.102
Mof_C 	C 	0.426	0.9196	0.6836	0.177
Mof_C 	C 	0.3771	0.9128	0.7187	-0.226
Mof_C 	C 	0.3658	0.8546	0.7428	0.169
Mof_C 	C 	0.4999	0.9931	0.6286	-0.268
Mof_C 	C 	0.876	0.6728	0.1244	0.102
Mof_C 	C 	0.764	0.5804	0.0064	0.182
Mof_C 	C 	0.8059	0.5872	0.9643	-0.235
Mof_C 	C 	0.8882	0.6454	0.0112	0.176
Mof_C 	C 	0.6355	0.5069	0.0068	-0.264
Mof_C 	C 	0.0484	0.7516	0.3756	0.101
Mof_C 	C 	0.074	0.7576	0.4936	0.176
Mof_C 	C 	0.1229	0.8416	0.5357	-0.226
Mof_C 	C 	0.1342	0.877	0.4888	0.169
Mof_C 	C 	0.0001	0.6287	0.4932	-0.275
Mof_C 	C 	0.8272	0.2032	0.9516	0.101
Mof_C 	C 	0.9196	0.1836	0.926	0.176
Mof_C 	C 	0.9128	0.2187	0.8771	-0.226
Mof_C 	C 	0.8546	0.2428	0.8658	0.168
Mof_C 	C 	0.9931	0.1286	0.9999	-0.287
Mof_C 	C 	0.7484	0.2968	0.124	0.102
Mof_C 	C 	0.7424	0.3164	0.236	0.177
Mof_C 	C 	0.6584	0.2813	0.1941	-0.226
Mof_C 	C 	0.623	0.2572	0.1118	0.169
Mof_C 	C 	0.8713	0.3714	0.3645	-0.269
Mof_C 	C 	0.7516	0.8756	0.5484	0.102
Mof_C 	C 	0.7576	0.9936	0.574	0.181
Mof_C 	C 	0.8416	0.0357	0.6229	-0.233
Mof_C 	C 	0.877	0.9888	0.6342	0.174
Mof_C 	C 	0.6287	0.9932	0.5001	-0.265
Mof_C 	C 	0.6728	0.6244	0.376	0.102
Mof_C 	C 	0.5804	0.5064	0.264	0.177
Mof_C 	C 	0.5872	0.4643	0.3059	-0.226
Mof_C 	C 	0.6454	0.5112	0.3882	0.169
Mof_C 	C 	0.5069	0.5068	0.1355	-0.269
Mof_C 	C 	0.8756	0.0484	0.2516	0.101
Mof_C 	C 	0.9936	0.074	0.2576	0.176
Mof_C 	C 	0.0357	0.1229	0.3416	-0.224
Mof_C 	C 	0.9888	0.1342	0.377	0.167
Mof_C 	C 	0.9932	0.0001	0.1287	-0.267
Mof_C 	C 	0.6244	0.876	0.1728	0.102
Mof_C 	C 	0.5064	0.764	0.0804	0.177
Mof_C 	C 	0.4643	0.8059	0.0872	-0.226
Mof_C 	C 	0.5112	0.8882	0.1454	0.169
Mof_C 	C 	0.5068	0.6355	0.0069	-0.269
Mof_C 	C 	0.2032	0.4516	0.3272	0.101
Mof_C 	C 	0.1836	0.426	0.4196	0.177
Mof_C 	C 	0.2187	0.3771	0.4128	-0.226
Mof_C 	C 	0.2428	0.3658	0.3546	0.169
Mof_C 	C 	0.1286	0.4999	0.4931	-0.269
Mof_C 	C 	0.2968	0.624	0.2484	0.101
Mof_C 	C 	0.3164	0.736	0.2424	0.177
Mof_C 	C 	0.2813	0.6941	0.1584	-0.226
Mof_C 	C 	0.2572	0.6118	0.123	0.169
Mof_C 	C 	0.3714	0.8645	0.3713	-0.269
Mof_I 	I 	0.1321	0.73864	0.24028	-0.575
Mof_I 	I 	0.99836	0.89182	0.25972	-0.569
Mof_I 	I 	0.50164	0.76136	0.89346	-0.574
Mof_I 	I 	0.3679	0.60818	0.60654	-0.574
Mof_I 	I 	0.39346	0.50164	0.26136	-0.574
Mof_I 	I 	0.10654	0.3679	0.10818	-0.575
Mof_I 	I 	0.74028	0.1321	0.23864	-0.574
Mof_I 	I 	0.75972	0.99836	0.39182	-0.572
Mof_I 	I 	0.89182	0.75972	0.49836	-0.573
Mof_I 	I 	0.73864	0.74028	0.6321	-0.574
Mof_I 	I 	0.60818	0.10654	0.8679	-0.575
Mof_I 	I 	0.76136	0.39346	0.00164	-0.572
Mof_I 	I 	0.39182	0.49836	0.75972	-0.574
Mof_I 	I 	0.23864	0.6321	0.74028	-0.574
Mof_I 	I 	0.10818	0.8679	0.10654	-0.577
Mof_I 	I 	0.26136	0.00164	0.39346	-0.573
Mof_I 	I 	0.6321	0.24028	0.73864	-0.574
Mof_I 	I 	0.49836	0.25972	0.89182	-0.574
Mof_I 	I 	0.00164	0.89346	0.76136	-0.575
Mof_I 	I 	0.8679	0.60654	0.60818	-0.574
Mof_I 	I 	0.89346	0.26136	0.50164	-0.575
Mof_I 	I 	0.60654	0.10818	0.3679	-0.574
Mof_I 	I 	0.24028	0.23864	0.1321	-0.575
Mof_I 	I 	0.25972	0.39182	0.99836	-0.573
Mof_N 	N 	0.3806	0.9663	0.1767	-0.146
Mof_N 	N 	0.312	0.905	0.2376	-0.251
Mof_N 	N 	0.4753	0.937	0.1519	-0.137
Mof_N 	N 	0.2896	0.2039	0.3233	-0.146
Mof_N 	N 	0.1674	0.0744	0.2624	-0.251
Mof_N 	N 	0.2851	0.3234	0.3481	-0.137
Mof_N 	N 	0.2104	0.5337	0.9143	-0.147
Mof_N 	N 	0.3326	0.595	0.907	-0.251
Mof_N 	N 	0.2149	0.563	0.0383	-0.14
Mof_N 	N 	0.1194	0.2961	0.5857	-0.146
Mof_N 	N 	0.188	0.4256	0.593	-0.251
Mof_N 	N 	0.0247	0.1766	0.4617	-0.137
Mof_N 	N 	0.4143	0.2104	0.0337	-0.146
Mof_N 	N 	0.407	0.3326	0.095	-0.251
Mof_N 	N 	0.5383	0.2149	0.063	-0.137
Mof_N 	N 	0.0857	0.1194	0.7961	-0.148
Mof_N 	N 	0.093	0.188	0.9256	-0.252
Mof_N 	N 	0.9617	0.0247	0.6766	-0.143
Mof_N 	N 	0.6767	0.3806	0.4663	-0.146
Mof_N 	N 	0.7376	0.312	0.405	-0.251
Mof_N 	N 	0.6519	0.4753	0.437	-0.137
Mof_N 	N 	0.8233	0.2896	0.7039	-0.146
Mof_N 	N 	0.7624	0.1674	0.5744	-0.251
Mof_N 	N 	0.8481	0.2851	0.8234	-0.137
Mof_N 	N 	0.2039	0.8233	0.7896	-0.146
Mof_N 	N 	0.0744	0.7624	0.6674	-0.251
Mof_N 	N 	0.3234	0.8481	0.7851	-0.137
Mof_N 	N 	0.9663	0.6767	0.8806	-0.146
Mof_N 	N 	0.905	0.7376	0.812	-0.251
Mof_N 	N 	0.937	0.6519	0.9753	-0.138
Mof_N 	N 	0.2961	0.0857	0.6194	-0.146
Mof_N 	N 	0.4256	0.093	0.688	-0.251
Mof_N 	N 	0.1766	0.9617	0.5247	-0.139
Mof_N 	N 	0.5337	0.4143	0.7104	-0.146
Mof_N 	N 	0.595	0.407	0.8326	-0.251
Mof_N 	N 	0.563	0.5383	0.7149	-0.137
Mof_N 	N 	0.7039	0.7896	0.8233	-0.146
Mof_N 	N 	0.5744	0.6674	0.7624	-0.251
Mof_N 	N 	0.8234	0.7851	0.8481	-0.137
Mof_N 	N 	0.4663	0.8806	0.6767	-0.146
Mof_N 	N 	0.405	0.812	0.7376	-0.251
Mof_N 	N 	0.437	0.9753	0.6519	-0.137
Mof_N 	N 	0.7961	0.6194	0.0857	-0.147
Mof_N 	N 	0.9256	0.688	0.093	-0.251
Mof_N 	N 	0.6766	0.5247	0.9617	-0.139
Mof_N 	N 	0.0337	0.7104	0.4143	-0.146
Mof_N 	N 	0.095	0.8326	0.407	-0.251
Mof_N 	N 	0.063	0.7149	0.5383	-0.136
Mof_N 	N 	0.8806	0.1767	0.9663	-0.147
Mof_N 	N 	0.812	0.2376	0.905	-0.251
Mof_N 	N 	0.9753	0.1519	0.937	-0.138
Mof_N 	N 	0.7896	0.3233	0.2039	-0.146
Mof_N 	N 	0.6674	0.2624	0.0744	-0.251
Mof_N 	N 	0.7851	0.3481	0.3234	-0.137
Mof_N 	N 	0.7104	0.9143	0.5337	-0.147
Mof_N 	N 	0.8326	0.907	0.595	-0.252
Mof_N 	N 	0.7149	0.0383	0.563	-0.139
Mof_N 	N 	0.6194	0.5857	0.2961	-0.146
Mof_N 	N 	0.688	0.593	0.4256	-0.251
Mof_N 	N 	0.5247	0.4617	0.1766	-0.137
Mof_N 	N 	0.9143	0.0337	0.2104	-0.146
Mof_N 	N 	0.907	0.095	0.3326	-0.251
Mof_N 	N 	0.0383	0.063	0.2149	-0.137
Mof_N 	N 	0.5857	0.7961	0.1194	-0.146
Mof_N 	N 	0.593	0.9256	0.188	-0.251
Mof_N 	N 	0.4617	0.6766	0.0247	-0.138
Mof_N 	N 	0.1767	0.4663	0.3806	-0.146
Mof_N 	N 	0.2376	0.405	0.312	-0.251
Mof_N 	N 	0.1519	0.437	0.4753	-0.137
Mof_N 	N 	0.3233	0.7039	0.2896	-0.146
Mof_N 	N 	0.2624	0.5744	0.1674	-0.251
Mof_N 	N 	0.3481	0.8234	0.2851	-0.137
_end
