data_functionalizedCrystal
_audit_creation_method	'EQeq! by Chris Wilmer'
_symmetry_space_group_name_H-M	'P1'
_symmetry_Int_Tables_number	1
_symmetry_cell_setting	triclinic
loop_
_symmetry_equiv_pos_as_xyz
  x,y,z
_cell_length_a	22.5557
_cell_length_b	22.5557
_cell_length_c	22.5557
_cell_angle_alpha	90
_cell_angle_beta	90
_cell_angle_gamma	90
loop_
_atom_site_label
_atom_site_type_symbol
_atom_site_fract_x
_atom_site_fract_y
_atom_site_fract_z
_atom_site_charge
Mof_O 	O 	0.43701	0.24728	0.24567	-0.373
Mof_O 	O 	0.34068	0.25989	0.24766	-0.335
Mof_N 	N 	0.4333	0.1336	0.234	-0.104
Mof_N 	N 	0.4237	0.0756	0.2328	-0.043
Mof_C 	C 	0.3801	0.1627	0.2496	-0.039
Mof_C 	C 	0.3845	0.22775	0.2478	0.329
Mof_N 	N 	0.2379	0.3648	0.0677	-0.1
Mof_O 	O 	0.56299	0.75272	0.24567	-0.37
Mof_O 	O 	0.65932	0.74011	0.24766	-0.333
Mof_N 	N 	0.5667	0.8664	0.234	-0.1
Mof_N 	N 	0.5763	0.9244	0.2328	-0.026
Mof_C 	C 	0.6199	0.8373	0.2496	-0.038
Mof_C 	C 	0.6155	0.77225	0.2478	0.332
Mof_N 	N 	0.7621	0.6352	0.0677	-0.093
Mof_O 	O 	0.56299	0.24728	0.75433	-0.367
Mof_O 	O 	0.65932	0.25989	0.75234	-0.332
Mof_N 	N 	0.5667	0.1336	0.766	-0.097
Mof_N 	N 	0.5763	0.0756	0.7672	-0.038
Mof_C 	C 	0.6199	0.1627	0.7504	-0.036
Mof_C 	C 	0.6155	0.22775	0.7522	0.33
Mof_N 	N 	0.7621	0.3648	0.9323	-0.081
Mof_O 	O 	0.43701	0.75272	0.75433	-0.363
Mof_O 	O 	0.34068	0.74011	0.75234	-0.33
Mof_N 	N 	0.4333	0.8664	0.766	-0.092
Mof_N 	N 	0.4237	0.9244	0.7672	-0.022
Mof_C 	C 	0.3801	0.8373	0.7504	-0.034
Mof_C 	C 	0.3845	0.77225	0.7522	0.333
Mof_N 	N 	0.2379	0.6352	0.9323	-0.088
Mof_O 	O 	0.24567	0.43701	0.24728	-0.374
Mof_O 	O 	0.24766	0.34068	0.25989	-0.336
Mof_N 	N 	0.234	0.4333	0.1336	-0.105
Mof_N 	N 	0.2328	0.4237	0.0756	-0.044
Mof_C 	C 	0.2496	0.3801	0.1627	-0.04
Mof_C 	C 	0.2478	0.3845	0.22775	0.328
Mof_N 	N 	0.0677	0.2379	0.3648	-0.101
Mof_O 	O 	0.24567	0.56299	0.75272	-0.371
Mof_O 	O 	0.24766	0.65932	0.74011	-0.334
Mof_N 	N 	0.234	0.5667	0.8664	-0.101
Mof_N 	N 	0.2328	0.5763	0.9244	-0.027
Mof_C 	C 	0.2496	0.6199	0.8373	-0.038
Mof_C 	C 	0.2478	0.6155	0.77225	0.332
Mof_N 	N 	0.0677	0.7621	0.6352	-0.093
Mof_O 	O 	0.75433	0.56299	0.24728	-0.367
Mof_O 	O 	0.75234	0.65932	0.25989	-0.332
Mof_N 	N 	0.766	0.5667	0.1336	-0.097
Mof_N 	N 	0.7672	0.5763	0.0756	-0.038
Mof_C 	C 	0.7504	0.6199	0.1627	-0.036
Mof_C 	C 	0.7522	0.6155	0.22775	0.33
Mof_N 	N 	0.9323	0.7621	0.3648	-0.081
Mof_O 	O 	0.75433	0.43701	0.75272	-0.363
Mof_O 	O 	0.75234	0.34068	0.74011	-0.33
Mof_N 	N 	0.766	0.4333	0.8664	-0.092
Mof_N 	N 	0.7672	0.4237	0.9244	-0.022
Mof_C 	C 	0.7504	0.3801	0.8373	-0.034
Mof_C 	C 	0.7522	0.3845	0.77225	0.333
Mof_N 	N 	0.9323	0.2379	0.6352	-0.088
Mof_O 	O 	0.24728	0.24567	0.43701	-0.374
Mof_O 	O 	0.25989	0.24766	0.34068	-0.336
Mof_N 	N 	0.1336	0.234	0.4333	-0.105
Mof_N 	N 	0.0756	0.2328	0.4237	-0.044
Mof_C 	C 	0.1627	0.2496	0.3801	-0.04
Mof_C 	C 	0.22775	0.2478	0.3845	0.328
Mof_N 	N 	0.3648	0.0677	0.2379	-0.101
Mof_O 	O 	0.75272	0.24567	0.56299	-0.371
Mof_O 	O 	0.74011	0.24766	0.65932	-0.334
Mof_N 	N 	0.8664	0.234	0.5667	-0.101
Mof_N 	N 	0.9244	0.2328	0.5763	-0.027
Mof_C 	C 	0.8373	0.2496	0.6199	-0.038
Mof_C 	C 	0.77225	0.2478	0.6155	0.332
Mof_N 	N 	0.6352	0.0677	0.7621	-0.093
Mof_O 	O 	0.24728	0.75433	0.56299	-0.367
Mof_O 	O 	0.25989	0.75234	0.65932	-0.332
Mof_N 	N 	0.1336	0.766	0.5667	-0.097
Mof_N 	N 	0.0756	0.7672	0.5763	-0.038
Mof_C 	C 	0.1627	0.7504	0.6199	-0.036
Mof_C 	C 	0.22775	0.7522	0.6155	0.33
Mof_N 	N 	0.3648	0.9323	0.7621	-0.081
Mof_O 	O 	0.75272	0.75433	0.43701	-0.363
Mof_O 	O 	0.74011	0.75234	0.34068	-0.33
Mof_N 	N 	0.8664	0.766	0.4333	-0.092
Mof_N 	N 	0.9244	0.7672	0.4237	-0.022
Mof_C 	C 	0.8373	0.7504	0.3801	-0.034
Mof_C 	C 	0.77225	0.7522	0.3845	0.333
Mof_N 	N 	0.6352	0.9323	0.2379	-0.088
Mof_O 	O 	0.74728	0.93701	0.25433	-0.334
Mof_O 	O 	0.75989	0.84068	0.25234	-0.324
Mof_N 	N 	0.6336	0.9333	0.266	-0.086
Mof_N 	N 	0.5756	0.9237	0.2672	-0.025
Mof_C 	C 	0.6627	0.8801	0.2504	-0.029
Mof_C 	C 	0.72775	0.8845	0.2522	0.327
Mof_N 	N 	0.8648	0.7379	0.4323	-0.094
Mof_O 	O 	0.25272	0.06299	0.25433	-0.399
Mof_O 	O 	0.24011	0.15932	0.25234	-0.346
Mof_N 	N 	0.3664	0.0667	0.266	-0.103
Mof_N 	N 	0.4244	0.0763	0.2672	-0.041
Mof_C 	C 	0.3373	0.1199	0.2504	-0.044
Mof_C 	C 	0.27225	0.1155	0.2522	0.331
Mof_N 	N 	0.1352	0.2621	0.4323	-0.092
Mof_O 	O 	0.74728	0.06299	0.74567	-0.38
Mof_O 	O 	0.75989	0.15932	0.74766	-0.333
Mof_N 	N 	0.6336	0.0667	0.734	-0.107
Mof_N 	N 	0.5756	0.0763	0.7328	-0.041
Mof_C 	C 	0.6627	0.1199	0.7496	-0.039
Mof_C 	C 	0.72775	0.1155	0.7478	0.333
Mof_N 	N 	0.8648	0.2621	0.5677	-0.09
Mof_O 	O 	0.25272	0.93701	0.74567	-0.337
Mof_O 	O 	0.24011	0.84068	0.74766	-0.327
Mof_N 	N 	0.3664	0.9333	0.734	-0.09
Mof_N 	N 	0.4244	0.9237	0.7328	-0.026
Mof_C 	C 	0.3373	0.8801	0.7496	-0.028
Mof_C 	C 	0.27225	0.8845	0.7478	0.33
Mof_N 	N 	0.1352	0.7379	0.5677	-0.097
Mof_O 	O 	0.93701	0.74567	0.25272	-0.337
Mof_O 	O 	0.84068	0.74766	0.24011	-0.327
Mof_N 	N 	0.9333	0.734	0.3664	-0.09
Mof_N 	N 	0.9237	0.7328	0.4244	-0.026
Mof_C 	C 	0.8801	0.7496	0.3373	-0.028
Mof_C 	C 	0.8845	0.7478	0.27225	0.33
Mof_N 	N 	0.7379	0.5677	0.1352	-0.097
Mof_O 	O 	0.06299	0.74567	0.74728	-0.38
Mof_O 	O 	0.15932	0.74766	0.75989	-0.333
Mof_N 	N 	0.0667	0.734	0.6336	-0.107
Mof_N 	N 	0.0763	0.7328	0.5756	-0.041
Mof_C 	C 	0.1199	0.7496	0.6627	-0.039
Mof_C 	C 	0.1155	0.7478	0.72775	0.333
Mof_N 	N 	0.2621	0.5677	0.8648	-0.09
Mof_O 	O 	0.06299	0.25433	0.25272	-0.399
Mof_O 	O 	0.15932	0.25234	0.24011	-0.346
Mof_N 	N 	0.0667	0.266	0.3664	-0.103
Mof_N 	N 	0.0763	0.2672	0.4244	-0.041
Mof_C 	C 	0.1199	0.2504	0.3373	-0.044
Mof_C 	C 	0.1155	0.2522	0.27225	0.331
Mof_N 	N 	0.2621	0.4323	0.1352	-0.092
Mof_O 	O 	0.93701	0.25433	0.74728	-0.334
Mof_O 	O 	0.84068	0.25234	0.75989	-0.324
Mof_N 	N 	0.9333	0.266	0.6336	-0.086
Mof_N 	N 	0.9237	0.2672	0.5756	-0.025
Mof_C 	C 	0.8801	0.2504	0.6627	-0.029
Mof_C 	C 	0.8845	0.2522	0.72775	0.327
Mof_N 	N 	0.7379	0.4323	0.8648	-0.094
Mof_O 	O 	0.74567	0.74728	0.06299	-0.38
Mof_O 	O 	0.74766	0.75989	0.15932	-0.333
Mof_N 	N 	0.734	0.6336	0.0667	-0.107
Mof_N 	N 	0.7328	0.5756	0.0763	-0.041
Mof_C 	C 	0.7496	0.6627	0.1199	-0.039
Mof_C 	C 	0.7478	0.72775	0.1155	0.333
Mof_N 	N 	0.5677	0.8648	0.2621	-0.09
Mof_O 	O 	0.74567	0.25272	0.93701	-0.337
Mof_O 	O 	0.74766	0.24011	0.84068	-0.327
Mof_N 	N 	0.734	0.3664	0.9333	-0.09
Mof_N 	N 	0.7328	0.4244	0.9237	-0.026
Mof_C 	C 	0.7496	0.3373	0.8801	-0.028
Mof_C 	C 	0.7478	0.27225	0.8845	0.33
Mof_N 	N 	0.5677	0.1352	0.7379	-0.097
Mof_O 	O 	0.25433	0.74728	0.93701	-0.334
Mof_O 	O 	0.25234	0.75989	0.84068	-0.324
Mof_N 	N 	0.266	0.6336	0.9333	-0.086
Mof_N 	N 	0.2672	0.5756	0.9237	-0.025
Mof_C 	C 	0.2504	0.6627	0.8801	-0.029
Mof_C 	C 	0.2522	0.72775	0.8845	0.327
Mof_N 	N 	0.4323	0.8648	0.7379	-0.094
Mof_O 	O 	0.25433	0.25272	0.06299	-0.399
Mof_O 	O 	0.25234	0.24011	0.15932	-0.346
Mof_N 	N 	0.266	0.3664	0.0667	-0.103
Mof_N 	N 	0.2672	0.4244	0.0763	-0.041
Mof_C 	C 	0.2504	0.3373	0.1199	-0.044
Mof_C 	C 	0.2522	0.27225	0.1155	0.331
Mof_N 	N 	0.4323	0.1352	0.2621	-0.092
Mof_O 	O 	0.56299	0.75272	0.75433	-0.363
Mof_O 	O 	0.65932	0.74011	0.75234	-0.33
Mof_N 	N 	0.5667	0.8664	0.766	-0.092
Mof_N 	N 	0.5763	0.9244	0.7672	-0.021
Mof_C 	C 	0.6199	0.8373	0.7504	-0.034
Mof_C 	C 	0.6155	0.77225	0.7522	0.334
Mof_N 	N 	0.7621	0.6352	0.9323	-0.081
Mof_O 	O 	0.43701	0.24728	0.75433	-0.367
Mof_O 	O 	0.34068	0.25989	0.75234	-0.332
Mof_N 	N 	0.4333	0.1336	0.766	-0.097
Mof_N 	N 	0.4237	0.0756	0.7672	-0.038
Mof_C 	C 	0.3801	0.1627	0.7504	-0.036
Mof_C 	C 	0.3845	0.22775	0.7522	0.33
Mof_N 	N 	0.2379	0.3648	0.9323	-0.088
Mof_O 	O 	0.43701	0.75272	0.24567	-0.371
Mof_O 	O 	0.34068	0.74011	0.24766	-0.335
Mof_N 	N 	0.4333	0.8664	0.234	-0.101
Mof_N 	N 	0.4237	0.9244	0.2328	-0.028
Mof_C 	C 	0.3801	0.8373	0.2496	-0.038
Mof_C 	C 	0.3845	0.77225	0.2478	0.332
Mof_N 	N 	0.2379	0.6352	0.0677	-0.1
Mof_O 	O 	0.56299	0.24728	0.24567	-0.374
Mof_O 	O 	0.65932	0.25989	0.24766	-0.336
Mof_N 	N 	0.5667	0.1336	0.234	-0.105
Mof_N 	N 	0.5763	0.0756	0.2328	-0.044
Mof_C 	C 	0.6199	0.1627	0.2496	-0.04
Mof_C 	C 	0.6155	0.22775	0.2478	0.329
Mof_N 	N 	0.7621	0.3648	0.0677	-0.094
Mof_O 	O 	0.75433	0.56299	0.75272	-0.363
Mof_O 	O 	0.75234	0.65932	0.74011	-0.33
Mof_N 	N 	0.766	0.5667	0.8664	-0.092
Mof_N 	N 	0.7672	0.5763	0.9244	-0.021
Mof_C 	C 	0.7504	0.6199	0.8373	-0.034
Mof_C 	C 	0.7522	0.6155	0.77225	0.334
Mof_N 	N 	0.9323	0.7621	0.6352	-0.081
Mof_O 	O 	0.75433	0.43701	0.24728	-0.367
Mof_O 	O 	0.75234	0.34068	0.25989	-0.332
Mof_N 	N 	0.766	0.4333	0.1336	-0.097
Mof_N 	N 	0.7672	0.4237	0.0756	-0.038
Mof_C 	C 	0.7504	0.3801	0.1627	-0.036
Mof_C 	C 	0.7522	0.3845	0.22775	0.33
Mof_N 	N 	0.9323	0.2379	0.3648	-0.088
Mof_O 	O 	0.24567	0.43701	0.75272	-0.371
Mof_O 	O 	0.24766	0.34068	0.74011	-0.335
Mof_N 	N 	0.234	0.4333	0.8664	-0.101
Mof_N 	N 	0.2328	0.4237	0.9244	-0.028
Mof_C 	C 	0.2496	0.3801	0.8373	-0.038
Mof_C 	C 	0.2478	0.3845	0.77225	0.332
Mof_N 	N 	0.0677	0.2379	0.6352	-0.1
Mof_O 	O 	0.24567	0.56299	0.24728	-0.374
Mof_O 	O 	0.24766	0.65932	0.25989	-0.336
Mof_N 	N 	0.234	0.5667	0.1336	-0.105
Mof_N 	N 	0.2328	0.5763	0.0756	-0.044
Mof_C 	C 	0.2496	0.6199	0.1627	-0.04
Mof_C 	C 	0.2478	0.6155	0.22775	0.329
Mof_N 	N 	0.0677	0.7621	0.3648	-0.094
Mof_O 	O 	0.75272	0.75433	0.56299	-0.363
Mof_O 	O 	0.74011	0.75234	0.65932	-0.33
Mof_N 	N 	0.8664	0.766	0.5667	-0.092
Mof_N 	N 	0.9244	0.7672	0.5763	-0.021
Mof_C 	C 	0.8373	0.7504	0.6199	-0.034
Mof_C 	C 	0.77225	0.7522	0.6155	0.334
Mof_N 	N 	0.6352	0.9323	0.7621	-0.081
Mof_O 	O 	0.24728	0.75433	0.43701	-0.367
Mof_O 	O 	0.25989	0.75234	0.34068	-0.332
Mof_N 	N 	0.1336	0.766	0.4333	-0.097
Mof_N 	N 	0.0756	0.7672	0.4237	-0.038
Mof_C 	C 	0.1627	0.7504	0.3801	-0.036
Mof_C 	C 	0.22775	0.7522	0.3845	0.33
Mof_N 	N 	0.3648	0.9323	0.2379	-0.088
Mof_O 	O 	0.75272	0.24567	0.43701	-0.371
Mof_O 	O 	0.74011	0.24766	0.34068	-0.335
Mof_N 	N 	0.8664	0.234	0.4333	-0.101
Mof_N 	N 	0.9244	0.2328	0.4237	-0.028
Mof_C 	C 	0.8373	0.2496	0.3801	-0.038
Mof_C 	C 	0.77225	0.2478	0.3845	0.332
Mof_N 	N 	0.6352	0.0677	0.2379	-0.1
Mof_O 	O 	0.24728	0.24567	0.56299	-0.374
Mof_O 	O 	0.25989	0.24766	0.65932	-0.336
Mof_N 	N 	0.1336	0.234	0.5667	-0.105
Mof_N 	N 	0.0756	0.2328	0.5763	-0.044
Mof_C 	C 	0.1627	0.2496	0.6199	-0.04
Mof_C 	C 	0.22775	0.2478	0.6155	0.329
Mof_N 	N 	0.3648	0.0677	0.7621	-0.094
Mof_O 	O 	0.25272	0.06299	0.74567	-0.391
Mof_O 	O 	0.24011	0.15932	0.74766	-0.341
Mof_N 	N 	0.3664	0.0667	0.734	-0.107
Mof_N 	N 	0.4244	0.0763	0.7328	-0.041
Mof_C 	C 	0.3373	0.1199	0.7496	-0.041
Mof_C 	C 	0.27225	0.1155	0.7478	0.333
Mof_N 	N 	0.1352	0.2621	0.5677	-0.092
Mof_O 	O 	0.74728	0.93701	0.74567	-0.326
Mof_O 	O 	0.75989	0.84068	0.74766	-0.319
Mof_N 	N 	0.6336	0.9333	0.734	-0.09
Mof_N 	N 	0.5756	0.9237	0.7328	-0.026
Mof_C 	C 	0.6627	0.8801	0.7496	-0.026
Mof_C 	C 	0.72775	0.8845	0.7478	0.329
Mof_N 	N 	0.8648	0.7379	0.5677	-0.094
Mof_O 	O 	0.25272	0.93701	0.25433	-0.345
Mof_O 	O 	0.24011	0.84068	0.25234	-0.332
Mof_N 	N 	0.3664	0.9333	0.266	-0.086
Mof_N 	N 	0.4244	0.9237	0.2672	-0.025
Mof_C 	C 	0.3373	0.8801	0.2504	-0.031
Mof_C 	C 	0.27225	0.8845	0.2522	0.328
Mof_N 	N 	0.1352	0.7379	0.4323	-0.097
Mof_O 	O 	0.74728	0.06299	0.25433	-0.388
Mof_O 	O 	0.75989	0.15932	0.25234	-0.338
Mof_N 	N 	0.6336	0.0667	0.266	-0.103
Mof_N 	N 	0.5756	0.0763	0.2672	-0.04
Mof_C 	C 	0.6627	0.1199	0.2504	-0.042
Mof_C 	C 	0.72775	0.1155	0.2522	0.331
Mof_N 	N 	0.8648	0.2621	0.4323	-0.09
Mof_O 	O 	0.06299	0.25433	0.74728	-0.388
Mof_O 	O 	0.15932	0.25234	0.75989	-0.338
Mof_N 	N 	0.0667	0.266	0.6336	-0.103
Mof_N 	N 	0.0763	0.2672	0.5756	-0.04
Mof_C 	C 	0.1199	0.2504	0.6627	-0.042
Mof_C 	C 	0.1155	0.2522	0.72775	0.331
Mof_N 	N 	0.2621	0.4323	0.8648	-0.09
Mof_O 	O 	0.93701	0.25433	0.25272	-0.345
Mof_O 	O 	0.84068	0.25234	0.24011	-0.332
Mof_N 	N 	0.9333	0.266	0.3664	-0.086
Mof_N 	N 	0.9237	0.2672	0.4244	-0.025
Mof_C 	C 	0.8801	0.2504	0.3373	-0.031
Mof_C 	C 	0.8845	0.2522	0.27225	0.328
Mof_N 	N 	0.7379	0.4323	0.1352	-0.097
Mof_O 	O 	0.93701	0.74567	0.74728	-0.326
Mof_O 	O 	0.84068	0.74766	0.75989	-0.319
Mof_N 	N 	0.9333	0.734	0.6336	-0.09
Mof_N 	N 	0.9237	0.7328	0.5756	-0.026
Mof_C 	C 	0.8801	0.7496	0.6627	-0.026
Mof_C 	C 	0.8845	0.7478	0.72775	0.329
Mof_N 	N 	0.7379	0.5677	0.8648	-0.094
Mof_O 	O 	0.06299	0.74567	0.25272	-0.391
Mof_O 	O 	0.15932	0.74766	0.24011	-0.341
Mof_N 	N 	0.0667	0.734	0.3664	-0.107
Mof_N 	N 	0.0763	0.7328	0.4244	-0.041
Mof_C 	C 	0.1199	0.7496	0.3373	-0.041
Mof_C 	C 	0.1155	0.7478	0.27225	0.333
Mof_N 	N 	0.2621	0.5677	0.1352	-0.092
Mof_O 	O 	0.25433	0.25272	0.93701	-0.345
Mof_O 	O 	0.25234	0.24011	0.84068	-0.332
Mof_N 	N 	0.266	0.3664	0.9333	-0.086
Mof_N 	N 	0.2672	0.4244	0.9237	-0.025
Mof_C 	C 	0.2504	0.3373	0.8801	-0.031
Mof_C 	C 	0.2522	0.27225	0.8845	0.328
Mof_N 	N 	0.4323	0.1352	0.7379	-0.097
Mof_O 	O 	0.25433	0.74728	0.06299	-0.388
Mof_O 	O 	0.25234	0.75989	0.15932	-0.338
Mof_N 	N 	0.266	0.6336	0.0667	-0.103
Mof_N 	N 	0.2672	0.5756	0.0763	-0.04
Mof_C 	C 	0.2504	0.6627	0.1199	-0.042
Mof_C 	C 	0.2522	0.72775	0.1155	0.331
Mof_N 	N 	0.4323	0.8648	0.2621	-0.09
Mof_O 	O 	0.74567	0.25272	0.06299	-0.391
Mof_O 	O 	0.74766	0.24011	0.15932	-0.341
Mof_N 	N 	0.734	0.3664	0.0667	-0.107
Mof_N 	N 	0.7328	0.4244	0.0763	-0.041
Mof_C 	C 	0.7496	0.3373	0.1199	-0.041
Mof_C 	C 	0.7478	0.27225	0.1155	0.333
Mof_N 	N 	0.5677	0.1352	0.2621	-0.092
Mof_O 	O 	0.74567	0.74728	0.93701	-0.326
Mof_O 	O 	0.74766	0.75989	0.84068	-0.319
Mof_N 	N 	0.734	0.6336	0.9333	-0.09
Mof_N 	N 	0.7328	0.5756	0.9237	-0.026
Mof_C 	C 	0.7496	0.6627	0.8801	-0.026
Mof_C 	C 	0.7478	0.72775	0.8845	0.329
Mof_N 	N 	0.5677	0.8648	0.7379	-0.094
Mof_Cu	Cu	0.5	0.1874	0.2364	0.463
Mof_Cu	Cu	0.5	0.8126	0.2364	0.466
Mof_Cu	Cu	0.5	0.1874	0.7636	0.474
Mof_Cu	Cu	0.5	0.8126	0.7636	0.477
Mof_Cu	Cu	0.2364	0.5	0.1874	0.463
Mof_Cu	Cu	0.2364	0.5	0.8126	0.466
Mof_Cu	Cu	0.7636	0.5	0.1874	0.474
Mof_Cu	Cu	0.7636	0.5	0.8126	0.477
Mof_Cu	Cu	0.1874	0.2364	0.5	0.463
Mof_Cu	Cu	0.8126	0.2364	0.5	0.466
Mof_Cu	Cu	0.1874	0.7636	0.5	0.474
Mof_Cu	Cu	0.8126	0.7636	0.5	0.477
Mof_Cu	Cu	0.6874	0	0.2636	0.458
Mof_Cu	Cu	0.3126	0	0.2636	0.458
Mof_Cu	Cu	0.6874	0	0.7364	0.451
Mof_Cu	Cu	0.3126	0	0.7364	0.451
Mof_Cu	Cu	-7.6271e-33	0.7364	0.3126	0.451
Mof_Cu	Cu	-6.22183e-33	0.7364	0.6874	0.451
Mof_Cu	Cu	-3.22752e-33	0.2636	0.3126	0.458
Mof_Cu	Cu	-6.22183e-33	0.2636	0.6874	0.458
Mof_Cu	Cu	0.7364	0.6874	-0	0.451
Mof_Cu	Cu	0.7364	0.3126	-0	0.451
Mof_Cu	Cu	0.2636	0.6874	-0	0.458
Mof_Cu	Cu	0.2636	0.3126	-0	0.458
Mof_Cu	Cu	0.25	0.25	0.25	0.964
Mof_Cu	Cu	0.75	0.75	0.25	0.965
Mof_Cu	Cu	0.75	0.25	0.75	0.965
Mof_Cu	Cu	0.25	0.75	0.75	0.965
Mof_Cu	Cu	0.75	0.75	0.75	0.966
Mof_Cu	Cu	0.25	0.25	0.75	0.964
Mof_Cu	Cu	0.25	0.75	0.25	0.964
Mof_Cu	Cu	0.75	0.25	0.25	0.964
Mof_Cu	Cu	0.242	0.312	-0	0.455
Mof_Cu	Cu	0.758	0.688	-0	0.467
Mof_Cu	Cu	0.758	0.312	-0	0.466
Mof_Cu	Cu	0.242	0.688	-0	0.456
Mof_Cu	Cu	3.3696e-33	0.242	0.312	0.455
Mof_Cu	Cu	-6.21958e-33	0.758	0.688	0.467
Mof_Cu	Cu	3.3696e-33	0.758	0.312	0.466
Mof_Cu	Cu	-6.21958e-33	0.242	0.688	0.456
Mof_Cu	Cu	0.312	0	0.242	0.455
Mof_Cu	Cu	0.688	-8.79917e-33	0.758	0.467
Mof_Cu	Cu	0.312	-8.79917e-33	0.758	0.466
Mof_Cu	Cu	0.688	0	0.242	0.456
Mof_Cu	Cu	0.812	0.742	0.5	0.474
Mof_Cu	Cu	0.188	0.258	0.5	0.478
Mof_Cu	Cu	0.812	0.258	0.5	0.481
Mof_Cu	Cu	0.188	0.742	0.5	0.471
Mof_Cu	Cu	0.742	0.5	0.188	0.471
Mof_Cu	Cu	0.258	0.5	0.812	0.481
Mof_Cu	Cu	0.258	0.5	0.188	0.478
Mof_Cu	Cu	0.742	0.5	0.812	0.474
Mof_Cu	Cu	0.5	0.812	0.258	0.481
Mof_Cu	Cu	0.5	0.188	0.742	0.471
Mof_Cu	Cu	0.5	0.812	0.742	0.474
Mof_Cu	Cu	0.5	0.188	0.258	0.478
_end
