data_functionalizedCrystal
_audit_creation_method	'EQeq! by Chris Wilmer'
_symmetry_space_group_name_H-M	'P1'
_symmetry_Int_Tables_number	1
_symmetry_cell_setting	triclinic
loop_
_symmetry_equiv_pos_as_xyz
  x,y,z
_cell_length_a	11.8103
_cell_length_b	23.221
_cell_length_c	45.467
_cell_angle_alpha	104.516
_cell_angle_beta	90
_cell_angle_gamma	90
loop_
_atom_site_label
_atom_site_type_symbol
_atom_site_fract_x
_atom_site_fract_y
_atom_site_fract_z
_atom_site_charge
Mof_Cd	Cd	0.87421	0.58285	0.72332	0.435
Mof_Cd	Cd	0.57879	0.90425	0.05966	0.442
Mof_Cd	Cd	0.62579	0.58285	0.22332	0.435
Mof_Cd	Cd	0.92121	0.90425	0.55966	0.442
Mof_H 	H 	0.8337	0.759	0.8158	0.032
Mof_H 	H 	0.7818	0.8007	0.8647	0.063
Mof_H 	H 	0.7265	0.6385	0.8769	0.064
Mof_H 	H 	0.7841	0.5973	0.8285	0.032
Mof_H 	H 	0.6058	0.8742	0.9502	0.032
Mof_H 	H 	0.6435	0.8271	0.9007	0.083
Mof_H 	H 	0.7325	0.6842	0.9252	0.085
Mof_H 	H 	0.6706	0.7272	0.9726	0.015
Mof_H 	H 	0.9148	0.4044	0.6302	0.041
Mof_H 	H 	0.9291	0.3038	0.6097	0.061
Mof_H 	H 	0.9083	0.2735	0.691	0.06
Mof_H 	H 	0.893	0.3738	0.7129	0.041
Mof_H 	H 	0.961	0.0856	0.649	0.028
Mof_H 	H 	0.9686	0.1847	0.6701	0.078
Mof_H 	H 	0.8678	0.215	0.5928	0.077
Mof_H 	H 	0.859	0.1155	0.5721	0.031
Mof_H 	H 	0.8835	0.5885	0.6532	0.025
Mof_H 	H 	0.8939	0.6496	0.6214	0.074
Mof_H 	H 	0.8789	0.7894	0.694	0.08
Mof_H 	H 	0.8645	0.7243	0.7236	0.025
Mof_H 	H 	0.8756	0.773	0.5635	0.02
Mof_H 	H 	0.8572	0.7095	0.5942	0.084
Mof_H 	H 	0.9536	0.8397	0.6638	0.089
Mof_H 	H 	0.9622	0.9006	0.6313	0.021
Mof_H 	H 	0.653	0.498	0.7036	0.013
Mof_H 	H 	0.4595	0.4937	0.7041	0.094
Mof_H 	H 	0.4608	0.6715	0.737	0.074
Mof_H 	H 	0.6532	0.6694	0.7361	0.012
Mof_H 	H 	0.0931	0.6655	0.7171	0.023
Mof_H 	H 	0.2862	0.667	0.7154	0.082
Mof_H 	H 	0.2866	0.5002	0.7264	0.107
Mof_H 	H 	0.0941	0.504	0.7278	0.02
Mof_H 	H 	0.3621	0.9348	0.1021	0.019
Mof_H 	H 	0.1678	0.9325	0.1047	0.07
Mof_H 	H 	0.1657	0.8526	0.0174	0.072
Mof_H 	H 	0.3574	0.8572	0.017	0.02
Mof_H 	H 	0.8017	0.829	0.0301	-0.005
Mof_H 	H 	0.9924	0.8227	0.0311	0.109
Mof_H 	H 	0.995	0.9605	0.0963	0.104
Mof_H 	H 	0.8025	0.9626	0.0949	-0.002
Mof_H 	H 	0.6663	0.759	0.3158	0.034
Mof_H 	H 	0.7182	0.8007	0.3647	0.064
Mof_H 	H 	0.7735	0.6385	0.3769	0.065
Mof_H 	H 	0.7159	0.5973	0.3285	0.033
Mof_H 	H 	0.8942	0.8742	0.4502	0.033
Mof_H 	H 	0.8565	0.8271	0.4007	0.084
Mof_H 	H 	0.7675	0.6842	0.4252	0.086
Mof_H 	H 	0.8294	0.7272	0.4726	0.016
Mof_H 	H 	0.5852	0.4044	0.1302	0.042
Mof_H 	H 	0.5709	0.3038	0.1097	0.062
Mof_H 	H 	0.5917	0.2735	0.191	0.061
Mof_H 	H 	0.607	0.3738	0.2129	0.042
Mof_H 	H 	0.539	0.0856	0.149	0.028
Mof_H 	H 	0.5314	0.1847	0.1701	0.078
Mof_H 	H 	0.6322	0.215	0.0928	0.077
Mof_H 	H 	0.641	0.1155	0.0721	0.031
Mof_H 	H 	0.6165	0.5885	0.1532	0.025
Mof_H 	H 	0.6061	0.6496	0.1214	0.074
Mof_H 	H 	0.6211	0.7894	0.194	0.08
Mof_H 	H 	0.6355	0.7243	0.2236	0.025
Mof_H 	H 	0.6244	0.773	0.0635	0.02
Mof_H 	H 	0.6428	0.7095	0.0942	0.084
Mof_H 	H 	0.5464	0.8397	0.1638	0.089
Mof_H 	H 	0.5378	0.9006	0.1313	0.021
Mof_H 	H 	0.847	0.498	0.2036	0.013
Mof_H 	H 	0.0405	0.4937	0.2041	0.094
Mof_H 	H 	0.0392	0.6715	0.237	0.074
Mof_H 	H 	0.8468	0.6694	0.2361	0.012
Mof_H 	H 	0.4069	0.6655	0.2171	0.023
Mof_H 	H 	0.2138	0.667	0.2154	0.082
Mof_H 	H 	0.2134	0.5002	0.2264	0.107
Mof_H 	H 	0.4059	0.504	0.2278	0.02
Mof_H 	H 	0.1379	0.9348	0.6021	0.019
Mof_H 	H 	0.3322	0.9325	0.6047	0.07
Mof_H 	H 	0.3343	0.8526	0.5174	0.072
Mof_H 	H 	0.1426	0.8572	0.517	0.02
Mof_H 	H 	0.6983	0.829	0.5301	-0.006
Mof_H 	H 	0.5076	0.8227	0.5311	0.11
Mof_H 	H 	0.505	0.9605	0.5963	0.105
Mof_H 	H 	0.6975	0.9626	0.5949	-0.003
Mof_C 	C 	0.8121	0.67327	0.81621	-0.091
Mof_C 	C 	0.812	0.73449	0.8281	0.022
Mof_C 	C 	0.7808	0.75957	0.85749	-0.092
Mof_C 	C 	0.7479	0.72495	0.87665	0.023
Mof_C 	C 	0.7489	0.66318	0.86467	-0.089
Mof_C 	C 	0.7819	0.63851	0.83555	0.026
Mof_C 	C 	0.6394	0.80627	0.96776	-0.129
Mof_C 	C 	0.631	0.835	0.94543	0.061
Mof_C 	C 	0.6589	0.8077	0.91581	-0.136
Mof_C 	C 	0.7093	0.75206	0.90799	0.078
Mof_C 	C 	0.7082	0.7236	0.92962	-0.15
Mof_C 	C 	0.6721	0.7502	0.95854	0.074
Mof_C 	C 	0.8451	0.64639	0.78375	0.302
Mof_C 	C 	0.6037	0.8366	0.99979	0.329
Mof_C 	C 	0.9064	0.40034	0.67411	-0.083
Mof_C 	C 	0.9143	0.37842	0.64282	0.014
Mof_C 	C 	0.9214	0.31776	0.63062	-0.084
Mof_C 	C 	0.9177	0.2768	0.64807	0.025
Mof_C 	C 	0.9091	0.29968	0.67855	-0.084
Mof_C 	C 	0.9014	0.36028	0.69201	0.011
Mof_C 	C 	0.9205	0.08917	0.60711	-0.113
Mof_C 	C 	0.9452	0.11169	0.63699	0.052
Mof_C 	C 	0.9476	0.1713	0.64982	-0.129
Mof_C 	C 	0.9203	0.21158	0.63407	0.065
Mof_C 	C 	0.8882	0.189	0.6045	-0.128
Mof_C 	C 	0.8856	0.1293	0.59183	0.051
Mof_C 	C 	0.8927	0.46546	0.68852	0.304
Mof_C 	C 	0.9237	0.0223	0.59285	0.33
Mof_C 	C 	0.8817	0.62946	0.66144	0.068
Mof_C 	C 	0.8888	0.66596	0.64224	-0.121
Mof_C 	C 	0.8885	0.7272	0.65344	0.047
Mof_C 	C 	0.8793	0.74867	0.68515	-0.121
Mof_C 	C 	0.8712	0.70923	0.70269	0.072
Mof_C 	C 	0.8902	0.78736	0.58414	0.084
Mof_C 	C 	0.8795	0.7486	0.60258	-0.146
Mof_C 	C 	0.9011	0.76693	0.63276	0.074
Mof_C 	C 	0.9351	0.82491	0.64345	-0.144
Mof_C 	C 	0.9414	0.86109	0.62355	0.082
Mof_C 	C 	0.6131	0.53319	0.71089	0.088
Mof_C 	C 	0.4964	0.53003	0.71054	-0.134
Mof_C 	C 	0.4355	0.58285	0.72015	0.062
Mof_C 	C 	0.4981	0.63538	0.73016	-0.136
Mof_C 	C 	0.6137	0.63376	0.72984	0.079
Mof_C 	C 	0.1328	0.63198	0.71899	0.072
Mof_C 	C 	0.2489	0.63326	0.7179	-0.132
Mof_C 	C 	0.3108	0.58318	0.72061	0.061
Mof_C 	C 	0.2493	0.5343	0.72445	-0.142
Mof_C 	C 	0.1336	0.53711	0.72528	0.085
Mof_C 	C 	0.3218	0.9186	0.08437	0.073
Mof_C 	C 	0.2041	0.9181	0.08618	-0.116
Mof_C 	C 	0.1425	0.8963	0.06028	0.021
Mof_C 	C 	0.2035	0.8715	0.03516	-0.117
Mof_C 	C 	0.3194	0.8736	0.03505	0.078
Mof_C 	C 	0.8402	0.8593	0.0437	0.145
Mof_C 	C 	0.9575	0.8556	0.0437	-0.221
Mof_C 	C 	0.0182	0.895	0.06025	0.141
Mof_C 	C 	0.9576	0.9334	0.0808	-0.201
Mof_C 	C 	0.8399	0.9344	0.07994	0.135
Mof_C 	C 	0.6879	0.67327	0.31621	-0.091
Mof_C 	C 	0.688	0.73449	0.3281	0.022
Mof_C 	C 	0.7192	0.75957	0.35749	-0.092
Mof_C 	C 	0.7521	0.72495	0.37665	0.023
Mof_C 	C 	0.7511	0.66318	0.36467	-0.089
Mof_C 	C 	0.7181	0.63851	0.33555	0.026
Mof_C 	C 	0.8606	0.80627	0.46776	-0.129
Mof_C 	C 	0.869	0.835	0.44543	0.061
Mof_C 	C 	0.8411	0.8077	0.41581	-0.136
Mof_C 	C 	0.7907	0.75206	0.40799	0.078
Mof_C 	C 	0.7918	0.7236	0.42962	-0.15
Mof_C 	C 	0.8279	0.7502	0.45854	0.074
Mof_C 	C 	0.6549	0.64639	0.28375	0.302
Mof_C 	C 	0.8963	0.8366	0.49979	0.329
Mof_C 	C 	0.5936	0.40034	0.17411	-0.083
Mof_C 	C 	0.5857	0.37842	0.14282	0.014
Mof_C 	C 	0.5786	0.31776	0.13062	-0.084
Mof_C 	C 	0.5823	0.2768	0.14807	0.025
Mof_C 	C 	0.5909	0.29968	0.17855	-0.084
Mof_C 	C 	0.5986	0.36028	0.19201	0.012
Mof_C 	C 	0.5795	0.08917	0.10711	-0.113
Mof_C 	C 	0.5548	0.11169	0.13699	0.052
Mof_C 	C 	0.5524	0.1713	0.14982	-0.129
Mof_C 	C 	0.5797	0.21158	0.13407	0.065
Mof_C 	C 	0.6118	0.189	0.1045	-0.128
Mof_C 	C 	0.6144	0.1293	0.09183	0.051
Mof_C 	C 	0.6073	0.46546	0.18852	0.304
Mof_C 	C 	0.5763	0.0223	0.09285	0.331
Mof_C 	C 	0.6183	0.62946	0.16144	0.068
Mof_C 	C 	0.6112	0.66596	0.14224	-0.121
Mof_C 	C 	0.6115	0.7272	0.15344	0.047
Mof_C 	C 	0.6207	0.74867	0.18515	-0.121
Mof_C 	C 	0.6288	0.70923	0.20269	0.072
Mof_C 	C 	0.6098	0.78736	0.08414	0.084
Mof_C 	C 	0.6205	0.7486	0.10258	-0.146
Mof_C 	C 	0.5989	0.76693	0.13276	0.074
Mof_C 	C 	0.5649	0.82491	0.14345	-0.144
Mof_C 	C 	0.5586	0.86109	0.12355	0.082
Mof_C 	C 	0.8869	0.53319	0.21089	0.089
Mof_C 	C 	0.0036	0.53003	0.21054	-0.135
Mof_C 	C 	0.0645	0.58285	0.22015	0.063
Mof_C 	C 	0.0019	0.63538	0.23016	-0.137
Mof_C 	C 	0.8863	0.63376	0.22984	0.08
Mof_C 	C 	0.3672	0.63198	0.21899	0.072
Mof_C 	C 	0.2511	0.63326	0.2179	-0.132
Mof_C 	C 	0.1892	0.58318	0.22061	0.061
Mof_C 	C 	0.2507	0.5343	0.22445	-0.142
Mof_C 	C 	0.3664	0.53711	0.22528	0.085
Mof_C 	C 	0.1782	0.9186	0.58437	0.072
Mof_C 	C 	0.2959	0.9181	0.58618	-0.114
Mof_C 	C 	0.3575	0.8963	0.56028	0.019
Mof_C 	C 	0.2965	0.8715	0.53516	-0.115
Mof_C 	C 	0.1806	0.8736	0.53505	0.077
Mof_C 	C 	0.6598	0.8593	0.5437	0.147
Mof_C 	C 	0.5425	0.8556	0.5437	-0.225
Mof_C 	C 	0.4818	0.895	0.56025	0.145
Mof_C 	C 	0.5424	0.9334	0.5808	-0.204
Mof_C 	C 	0.6601	0.9344	0.57994	0.137
Mof_N 	N 	0.8721	0.64992	0.69177	-0.145
Mof_N 	N 	0.9196	0.84296	0.59405	-0.154
Mof_N 	N 	0.6731	0.58302	0.72084	-0.147
Mof_N 	N 	0.0732	0.58466	0.72268	-0.148
Mof_N 	N 	0.3794	0.89778	0.05944	-0.147
Mof_N 	N 	0.7811	0.89968	0.06017	-0.179
Mof_N 	N 	0.6279	0.64992	0.19177	-0.145
Mof_N 	N 	0.5804	0.84296	0.09405	-0.154
Mof_N 	N 	0.8269	0.58302	0.22084	-0.148
Mof_N 	N 	0.4268	0.58466	0.22268	-0.148
Mof_N 	N 	0.1206	0.89778	0.55944	-0.147
Mof_N 	N 	0.7189	0.89968	0.56017	-0.18
Mof_O 	O 	0.8475	0.67794	0.76524	-0.277
Mof_O 	O 	0.8663	0.59123	0.77558	-0.28
Mof_O 	O 	0.5891	0.89072	0.00702	-0.272
Mof_O 	O 	0.5929	0.80557	0.01829	-0.279
Mof_O 	O 	0.8941	0.50121	0.67215	-0.27
Mof_O 	O 	0.8795	0.4819	0.71673	-0.279
Mof_O 	O 	0.9128	0.007	0.56453	-0.268
Mof_O 	O 	0.9313	0.98664	0.60796	-0.289
Mof_O 	O 	0.6525	0.67794	0.26524	-0.277
Mof_O 	O 	0.6337	0.59123	0.27558	-0.28
Mof_O 	O 	0.9109	0.89072	0.50702	-0.272
Mof_O 	O 	0.9071	0.80557	0.51829	-0.279
Mof_O 	O 	0.6059	0.50121	0.17215	-0.27
Mof_O 	O 	0.6205	0.4819	0.21673	-0.279
Mof_O 	O 	0.5872	0.007	0.06453	-0.268
Mof_O 	O 	0.5687	0.98664	0.10796	-0.289
Mof_Cd	Cd	0.63216	0.12778	0.73621	0.439
Mof_Cd	Cd	0.91196	0.45184	0.07349	0.443
Mof_Cd	Cd	0.86784	0.12778	0.23621	0.439
Mof_Cd	Cd	0.58804	0.45184	0.57349	0.443
Mof_H 	H 	0.7503	0.1486	0.8404	0.035
Mof_H 	H 	0.7952	0.1954	0.8903	0.07
Mof_H 	H 	0.7035	0.3513	0.8765	0.069
Mof_H 	H 	0.6594	0.3055	0.827	0.032
Mof_H 	H 	0.803	0.2842	0.9882	0.035
Mof_H 	H 	0.752	0.2394	0.9386	0.068
Mof_H 	H 	0.8338	0.3869	0.914	0.068
Mof_H 	H 	0.892	0.4315	0.963	0.053
Mof_H 	H 	0.4926	0.9274	0.7177	0.033
Mof_H 	H 	0.4667	0.8272	0.693	0.075
Mof_H 	H 	0.6889	0.8441	0.6301	0.078
Mof_H 	H 	0.6988	0.9446	0.6514	0.03
Mof_H 	H 	0.5549	0.6318	0.6631	0.043
Mof_H 	H 	0.5465	0.735	0.6839	0.062
Mof_H 	H 	0.5927	0.7607	0.6016	0.066
Mof_H 	H 	0.5995	0.6605	0.5811	0.04
Mof_H 	H 	0.6138	0.2669	0.7355	0.024
Mof_H 	H 	0.6053	0.3308	0.7053	0.081
Mof_H 	H 	0.6212	0.1931	0.633	0.076
Mof_H 	H 	0.6417	0.1324	0.6653	0.029
Mof_H 	H 	0.6181	0.4475	0.643	0.02
Mof_H 	H 	0.6283	0.388	0.6754	0.085
Mof_H 	H 	0.558	0.2507	0.6066	0.079
Mof_H 	H 	0.5477	0.3151	0.5757	0.019
Mof_H 	H 	0.4078	0.055	0.749	0.018
Mof_H 	H 	0.2145	0.0506	0.7447	0.1
Mof_H 	H 	0.221	0.2064	0.7233	0.086
Mof_H 	H 	0.4135	0.2063	0.7271	0.017
Mof_H 	H 	0.8526	0.0428	0.7137	0.013
Mof_H 	H 	0.0453	0.0397	0.7142	0.091
Mof_H 	H 	0.0439	0.216	0.7466	0.076
Mof_H 	H 	0.8521	0.2131	0.7453	0.009
Mof_H 	H 	0.1287	0.4965	0.1166	0.016
Mof_H 	H 	0.3206	0.4919	0.1193	0.081
Mof_H 	H 	0.3298	0.4039	0.0328	0.082
Mof_H 	H 	0.1334	0.4074	0.0321	0.02
Mof_H 	H 	0.691	0.3686	0.0496	0.015
Mof_H 	H 	0.4986	0.3687	0.0477	0.08
Mof_H 	H 	0.4989	0.5257	0.1077	0.082
Mof_H 	H 	0.6907	0.5234	0.1068	0.015
Mof_H 	H 	0.7497	0.1486	0.3404	0.035
Mof_H 	H 	0.7048	0.1954	0.3903	0.07
Mof_H 	H 	0.7965	0.3513	0.3765	0.069
Mof_H 	H 	0.8406	0.3055	0.327	0.032
Mof_H 	H 	0.697	0.2842	0.4882	0.035
Mof_H 	H 	0.748	0.2394	0.4386	0.068
Mof_H 	H 	0.6662	0.3869	0.414	0.068
Mof_H 	H 	0.608	0.4315	0.463	0.053
Mof_H 	H 	0.0074	0.9274	0.2177	0.032
Mof_H 	H 	0.0333	0.8272	0.193	0.075
Mof_H 	H 	0.8111	0.8441	0.1301	0.078
Mof_H 	H 	0.8012	0.9446	0.1514	0.03
Mof_H 	H 	0.9451	0.6318	0.1631	0.043
Mof_H 	H 	0.9535	0.735	0.1839	0.062
Mof_H 	H 	0.9073	0.7607	0.1016	0.066
Mof_H 	H 	0.9005	0.6605	0.0811	0.04
Mof_H 	H 	0.8862	0.2669	0.2355	0.024
Mof_H 	H 	0.8947	0.3308	0.2053	0.081
Mof_H 	H 	0.8788	0.1931	0.133	0.076
Mof_H 	H 	0.8583	0.1324	0.1653	0.029
Mof_H 	H 	0.8819	0.4475	0.143	0.02
Mof_H 	H 	0.8717	0.388	0.1754	0.085
Mof_H 	H 	0.942	0.2507	0.1066	0.079
Mof_H 	H 	0.9523	0.3151	0.0757	0.019
Mof_H 	H 	0.0922	0.055	0.249	0.018
Mof_H 	H 	0.2855	0.0506	0.2447	0.1
Mof_H 	H 	0.279	0.2064	0.2233	0.086
Mof_H 	H 	0.0865	0.2063	0.2271	0.017
Mof_H 	H 	0.6474	0.0428	0.2137	0.013
Mof_H 	H 	0.4547	0.0397	0.2142	0.092
Mof_H 	H 	0.4561	0.216	0.2466	0.076
Mof_H 	H 	0.6479	0.2131	0.2453	0.009
Mof_H 	H 	0.3713	0.4965	0.6166	0.017
Mof_H 	H 	0.1794	0.4919	0.6193	0.081
Mof_H 	H 	0.1702	0.4039	0.5328	0.082
Mof_H 	H 	0.3666	0.4074	0.5321	0.02
Mof_H 	H 	0.809	0.3686	0.5496	0.015
Mof_H 	H 	0.0014	0.3687	0.5477	0.081
Mof_H 	H 	0.0011	0.5257	0.6077	0.083
Mof_H 	H 	0.8093	0.5234	0.6068	0.015
Mof_C 	C 	0.6991	0.22221	0.82815	-0.095
Mof_C 	C 	0.7408	0.18947	0.84745	0.026
Mof_C 	C 	0.7684	0.2178	0.87747	-0.103
Mof_C 	C 	0.7565	0.27861	0.88827	0.05
Mof_C 	C 	0.7141	0.31052	0.86937	-0.107
Mof_C 	C 	0.6868	0.28271	0.83962	0.031
Mof_C 	C 	0.8522	0.363	0.98077	-0.084
Mof_C 	C 	0.8102	0.305	0.97326	0.017
Mof_C 	C 	0.7792	0.2782	0.94335	-0.094
Mof_C 	C 	0.7877	0.3078	0.92068	0.034
Mof_C 	C 	0.8287	0.36564	0.92884	-0.088
Mof_C 	C 	0.8626	0.3931	0.95842	0.019
Mof_C 	C 	0.6693	0.1929	0.79591	0.295
Mof_C 	C 	0.883	0.3907	0.0133	0.309
Mof_C 	C 	0.5967	0.94678	0.68648	-0.109
Mof_C 	C 	0.5292	0.9113	0.69937	0.038
Mof_C 	C 	0.5156	0.8504	0.68484	-0.112
Mof_C 	C 	0.5743	0.8251	0.65862	0.054
Mof_C 	C 	0.6453	0.8608	0.64718	-0.117
Mof_C 	C 	0.6535	0.9211	0.66045	0.043
Mof_C 	C 	0.5757	0.63641	0.61988	-0.085
Mof_C 	C 	0.5618	0.65779	0.65064	0.014
Mof_C 	C 	0.5582	0.72026	0.66315	-0.088
Mof_C 	C 	0.5716	0.75874	0.64546	0.033
Mof_C 	C 	0.5854	0.73501	0.61424	-0.094
Mof_C 	C 	0.5886	0.67509	0.60188	0.02
Mof_C 	C 	0.6103	0.01263	0.70149	0.339
Mof_C 	C 	0.5826	0.57022	0.60665	0.3
Mof_C 	C 	0.6173	0.25174	0.71455	0.074
Mof_C 	C 	0.6099	0.29011	0.69646	-0.125
Mof_C 	C 	0.6091	0.26948	0.66484	0.053
Mof_C 	C 	0.6208	0.20957	0.65392	-0.125
Mof_C 	C 	0.6319	0.17298	0.67348	0.072
Mof_C 	C 	0.6061	0.40694	0.63526	0.09
Mof_C 	C 	0.613	0.37122	0.65496	-0.141
Mof_C 	C 	0.5978	0.31113	0.6449	0.069
Mof_C 	C 	0.5717	0.29103	0.6147	-0.136
Mof_C 	C 	0.5654	0.33003	0.59613	0.079
Mof_C 	C 	0.3698	0.0856	0.74329	0.087
Mof_C 	C 	0.2535	0.083	0.74121	-0.147
Mof_C 	C 	0.1954	0.12917	0.73379	0.068
Mof_C 	C 	0.2573	0.17475	0.72844	-0.144
Mof_C 	C 	0.3733	0.17428	0.73062	0.084
Mof_C 	C 	0.8917	0.0782	0.72099	0.092
Mof_C 	C 	0.0079	0.0758	0.72114	-0.143
Mof_C 	C 	0.0688	0.12813	0.73191	0.06
Mof_C 	C 	0.0071	0.17957	0.7403	-0.144
Mof_C 	C 	0.8918	0.1775	0.73938	0.078
Mof_C 	C 	0.1691	0.4769	0.09943	0.079
Mof_C 	C 	0.2848	0.4753	0.10088	-0.142
Mof_C 	C 	0.349	0.45033	0.07616	0.059
Mof_C 	C 	0.2906	0.4233	0.05017	-0.135
Mof_C 	C 	0.1717	0.4251	0.04997	0.079
Mof_C 	C 	0.6521	0.4017	0.06078	0.083
Mof_C 	C 	0.5363	0.4013	0.05983	-0.139
Mof_C 	C 	0.4747	0.44897	0.07673	0.062
Mof_C 	C 	0.5359	0.4937	0.09488	-0.139
Mof_C 	C 	0.6515	0.4918	0.09434	0.091
Mof_C 	C 	0.8009	0.22221	0.32815	-0.095
Mof_C 	C 	0.7592	0.18947	0.34745	0.026
Mof_C 	C 	0.7316	0.2178	0.37747	-0.103
Mof_C 	C 	0.7435	0.27861	0.38827	0.05
Mof_C 	C 	0.7859	0.31052	0.36937	-0.107
Mof_C 	C 	0.8132	0.28271	0.33962	0.031
Mof_C 	C 	0.6478	0.363	0.48077	-0.084
Mof_C 	C 	0.6898	0.305	0.47326	0.017
Mof_C 	C 	0.7208	0.2782	0.44335	-0.094
Mof_C 	C 	0.7123	0.3078	0.42068	0.034
Mof_C 	C 	0.6713	0.36564	0.42884	-0.088
Mof_C 	C 	0.6374	0.3931	0.45842	0.019
Mof_C 	C 	0.8307	0.1929	0.29591	0.295
Mof_C 	C 	0.617	0.3907	0.5133	0.309
Mof_C 	C 	0.9033	0.94678	0.18648	-0.109
Mof_C 	C 	0.9708	0.9113	0.19937	0.039
Mof_C 	C 	0.9844	0.8504	0.18484	-0.111
Mof_C 	C 	0.9257	0.8251	0.15862	0.053
Mof_C 	C 	0.8547	0.8608	0.14718	-0.117
Mof_C 	C 	0.8465	0.9211	0.16045	0.043
Mof_C 	C 	0.9243	0.63641	0.11988	-0.085
Mof_C 	C 	0.9382	0.65779	0.15064	0.014
Mof_C 	C 	0.9418	0.72026	0.16315	-0.088
Mof_C 	C 	0.9284	0.75874	0.14546	0.034
Mof_C 	C 	0.9146	0.73501	0.11424	-0.094
Mof_C 	C 	0.9114	0.67509	0.10188	0.02
Mof_C 	C 	0.8897	0.01263	0.20149	0.338
Mof_C 	C 	0.9174	0.57022	0.10665	0.3
Mof_C 	C 	0.8827	0.25174	0.21455	0.074
Mof_C 	C 	0.8901	0.29011	0.19646	-0.125
Mof_C 	C 	0.8909	0.26948	0.16484	0.053
Mof_C 	C 	0.8792	0.20957	0.15392	-0.125
Mof_C 	C 	0.8681	0.17298	0.17348	0.072
Mof_C 	C 	0.8939	0.40694	0.13526	0.09
Mof_C 	C 	0.887	0.37122	0.15496	-0.141
Mof_C 	C 	0.9022	0.31113	0.1449	0.069
Mof_C 	C 	0.9283	0.29103	0.1147	-0.136
Mof_C 	C 	0.9346	0.33003	0.09613	0.079
Mof_C 	C 	0.1302	0.0856	0.24329	0.086
Mof_C 	C 	0.2465	0.083	0.24121	-0.147
Mof_C 	C 	0.3046	0.12917	0.23379	0.067
Mof_C 	C 	0.2427	0.17475	0.22844	-0.144
Mof_C 	C 	0.1267	0.17428	0.23062	0.083
Mof_C 	C 	0.6083	0.0782	0.22099	0.094
Mof_C 	C 	0.4921	0.0758	0.22114	-0.146
Mof_C 	C 	0.4312	0.12813	0.23191	0.062
Mof_C 	C 	0.4929	0.17957	0.2403	-0.146
Mof_C 	C 	0.6082	0.1775	0.23938	0.08
Mof_C 	C 	0.3309	0.4769	0.59943	0.079
Mof_C 	C 	0.2152	0.4753	0.60088	-0.142
Mof_C 	C 	0.151	0.45033	0.57616	0.059
Mof_C 	C 	0.2094	0.4233	0.55017	-0.135
Mof_C 	C 	0.3283	0.4251	0.54997	0.079
Mof_C 	C 	0.8479	0.4017	0.56078	0.084
Mof_C 	C 	0.9637	0.4013	0.55983	-0.139
Mof_C 	C 	0.0253	0.44897	0.57673	0.062
Mof_C 	C 	0.9641	0.4937	0.59488	-0.14
Mof_C 	C 	0.8485	0.4918	0.59434	0.091
Mof_N 	N 	0.6293	0.19311	0.7034	-0.147
Mof_N 	N 	0.5837	0.38794	0.6065	-0.154
Mof_N 	N 	0.4309	0.13027	0.73753	-0.15
Mof_N 	N 	0.8323	0.12685	0.73044	-0.151
Mof_N 	N 	0.1127	0.45111	0.07429	-0.149
Mof_N 	N 	0.7114	0.44771	0.07705	-0.149
Mof_N 	N 	0.8707	0.19311	0.2034	-0.147
Mof_N 	N 	0.9163	0.38794	0.1065	-0.154
Mof_N 	N 	0.0691	0.13027	0.23753	-0.15
Mof_N 	N 	0.6677	0.12685	0.23044	-0.151
Mof_N 	N 	0.3873	0.45111	0.57429	-0.149
Mof_N 	N 	0.7886	0.44771	0.57705	-0.149
Mof_O 	O 	0.6602	0.13694	0.788	-0.269
Mof_O 	O 	0.6541	0.22443	0.77744	-0.275
Mof_O 	O 	0.8994	0.36042	0.03172	-0.28
Mof_O 	O 	0.8933	0.44595	0.02107	-0.26
Mof_O 	O 	0.615	0.02583	0.73021	-0.284
Mof_O 	O 	0.6223	0.04914	0.68772	-0.295
Mof_O 	O 	0.5755	0.53567	0.62313	-0.272
Mof_O 	O 	0.5927	0.55133	0.57806	-0.267
Mof_O 	O 	0.8398	0.13694	0.288	-0.269
Mof_O 	O 	0.8459	0.22443	0.27744	-0.274
Mof_O 	O 	0.6006	0.36042	0.53172	-0.28
Mof_O 	O 	0.6067	0.44595	0.52107	-0.26
Mof_O 	O 	0.885	0.02583	0.23021	-0.284
Mof_O 	O 	0.8777	0.04914	0.18772	-0.295
Mof_O 	O 	0.9245	0.53567	0.12313	-0.272
Mof_O 	O 	0.9073	0.55133	0.07806	-0.267
Mof_Cd	Cd	0.37421	0.41715	0.77668	0.436
Mof_Cd	Cd	0.07879	0.09575	0.44034	0.443
Mof_Cd	Cd	0.12579	0.41715	0.27668	0.436
Mof_Cd	Cd	0.42121	0.09575	0.94034	0.443
Mof_H 	H 	0.3337	0.241	0.6842	0.034
Mof_H 	H 	0.2818	0.1993	0.6353	0.064
Mof_H 	H 	0.2265	0.3615	0.6231	0.065
Mof_H 	H 	0.2841	0.4027	0.6715	0.033
Mof_H 	H 	0.1058	0.1258	0.5498	0.033
Mof_H 	H 	0.1435	0.1729	0.5993	0.084
Mof_H 	H 	0.2325	0.3158	0.5748	0.086
Mof_H 	H 	0.1706	0.2728	0.5274	0.016
Mof_H 	H 	0.4148	0.5956	0.8698	0.042
Mof_H 	H 	0.4291	0.6962	0.8903	0.062
Mof_H 	H 	0.4083	0.7265	0.809	0.061
Mof_H 	H 	0.393	0.6262	0.7871	0.042
Mof_H 	H 	0.461	0.9144	0.851	0.028
Mof_H 	H 	0.4686	0.8153	0.8299	0.078
Mof_H 	H 	0.3678	0.785	0.9072	0.077
Mof_H 	H 	0.359	0.8845	0.9279	0.031
Mof_H 	H 	0.3835	0.4115	0.8468	0.025
Mof_H 	H 	0.3939	0.3504	0.8786	0.074
Mof_H 	H 	0.3789	0.2106	0.806	0.08
Mof_H 	H 	0.3645	0.2757	0.7764	0.025
Mof_H 	H 	0.3756	0.227	0.9365	0.02
Mof_H 	H 	0.3572	0.2905	0.9058	0.084
Mof_H 	H 	0.4536	0.1603	0.8362	0.089
Mof_H 	H 	0.4622	0.0994	0.8687	0.021
Mof_H 	H 	0.153	0.502	0.7964	0.013
Mof_H 	H 	0.9595	0.5063	0.7959	0.094
Mof_H 	H 	0.9608	0.3285	0.763	0.074
Mof_H 	H 	0.1532	0.3306	0.7639	0.012
Mof_H 	H 	0.5931	0.3345	0.7829	0.023
Mof_H 	H 	0.7862	0.333	0.7846	0.082
Mof_H 	H 	0.7866	0.4998	0.7736	0.107
Mof_H 	H 	0.5941	0.496	0.7722	0.02
Mof_H 	H 	0.8621	0.0652	0.3979	0.019
Mof_H 	H 	0.6678	0.0675	0.3953	0.07
Mof_H 	H 	0.6657	0.1474	0.4826	0.072
Mof_H 	H 	0.8574	0.1428	0.483	0.02
Mof_H 	H 	0.3017	0.171	0.4699	-0.006
Mof_H 	H 	0.4924	0.1773	0.4689	0.11
Mof_H 	H 	0.495	0.0395	0.4037	0.105
Mof_H 	H 	0.3025	0.0374	0.4051	-0.003
Mof_H 	H 	0.1663	0.241	0.1842	0.033
Mof_H 	H 	0.2182	0.1993	0.1353	0.064
Mof_H 	H 	0.2735	0.3615	0.1231	0.065
Mof_H 	H 	0.2159	0.4027	0.1715	0.033
Mof_H 	H 	0.3942	0.1258	0.0498	0.033
Mof_H 	H 	0.3565	0.1729	0.0993	0.084
Mof_H 	H 	0.2675	0.3158	0.0748	0.086
Mof_H 	H 	0.3294	0.2728	0.0274	0.016
Mof_H 	H 	0.0852	0.5956	0.3698	0.042
Mof_H 	H 	0.0709	0.6962	0.3903	0.062
Mof_H 	H 	0.0917	0.7265	0.309	0.061
Mof_H 	H 	0.107	0.6262	0.2871	0.042
Mof_H 	H 	0.039	0.9144	0.351	0.028
Mof_H 	H 	0.0314	0.8153	0.3299	0.078
Mof_H 	H 	0.1322	0.785	0.4072	0.077
Mof_H 	H 	0.141	0.8845	0.4279	0.031
Mof_H 	H 	0.1165	0.4115	0.3468	0.025
Mof_H 	H 	0.1061	0.3504	0.3786	0.074
Mof_H 	H 	0.1211	0.2106	0.306	0.08
Mof_H 	H 	0.1355	0.2757	0.2764	0.025
Mof_H 	H 	0.1244	0.227	0.4365	0.02
Mof_H 	H 	0.1428	0.2905	0.4058	0.084
Mof_H 	H 	0.0464	0.1603	0.3362	0.089
Mof_H 	H 	0.0378	0.0994	0.3687	0.021
Mof_H 	H 	0.347	0.502	0.2964	0.013
Mof_H 	H 	0.5405	0.5063	0.2959	0.094
Mof_H 	H 	0.5392	0.3285	0.263	0.074
Mof_H 	H 	0.3468	0.3306	0.2639	0.012
Mof_H 	H 	0.9069	0.3345	0.2829	0.023
Mof_H 	H 	0.7138	0.333	0.2846	0.082
Mof_H 	H 	0.7134	0.4998	0.2736	0.107
Mof_H 	H 	0.9059	0.496	0.2722	0.02
Mof_H 	H 	0.6379	0.0652	0.8979	0.019
Mof_H 	H 	0.8322	0.0675	0.8953	0.07
Mof_H 	H 	0.8343	0.1474	0.9826	0.072
Mof_H 	H 	0.6426	0.1428	0.983	0.02
Mof_H 	H 	0.1983	0.171	0.9699	-0.005
Mof_H 	H 	0.0076	0.1773	0.9689	0.109
Mof_H 	H 	0.005	0.0395	0.9037	0.104
Mof_H 	H 	0.1975	0.0374	0.9051	-0.002
Mof_C 	C 	0.3121	0.32673	0.68379	-0.091
Mof_C 	C 	0.312	0.26551	0.6719	0.022
Mof_C 	C 	0.2808	0.24043	0.64251	-0.092
Mof_C 	C 	0.2479	0.27505	0.62335	0.023
Mof_C 	C 	0.2489	0.33682	0.63533	-0.089
Mof_C 	C 	0.2819	0.36149	0.66445	0.026
Mof_C 	C 	0.1394	0.19373	0.53224	-0.129
Mof_C 	C 	0.131	0.165	0.55457	0.061
Mof_C 	C 	0.1589	0.1923	0.58419	-0.136
Mof_C 	C 	0.2093	0.24794	0.59201	0.078
Mof_C 	C 	0.2082	0.2764	0.57038	-0.15
Mof_C 	C 	0.1721	0.2498	0.54146	0.074
Mof_C 	C 	0.3451	0.35361	0.71625	0.302
Mof_C 	C 	0.1037	0.1634	0.50021	0.329
Mof_C 	C 	0.4064	0.59966	0.82589	-0.083
Mof_C 	C 	0.4143	0.62158	0.85718	0.014
Mof_C 	C 	0.4214	0.68224	0.86938	-0.084
Mof_C 	C 	0.4177	0.7232	0.85193	0.025
Mof_C 	C 	0.4091	0.70032	0.82145	-0.084
Mof_C 	C 	0.4014	0.63972	0.80799	0.012
Mof_C 	C 	0.4205	0.91083	0.89289	-0.113
Mof_C 	C 	0.4452	0.88831	0.86301	0.052
Mof_C 	C 	0.4476	0.8287	0.85018	-0.129
Mof_C 	C 	0.4203	0.78842	0.86593	0.065
Mof_C 	C 	0.3882	0.811	0.8955	-0.128
Mof_C 	C 	0.3856	0.8707	0.90817	0.051
Mof_C 	C 	0.3927	0.53454	0.81148	0.304
Mof_C 	C 	0.4237	0.9777	0.90715	0.331
Mof_C 	C 	0.3817	0.37054	0.83856	0.068
Mof_C 	C 	0.3888	0.33404	0.85776	-0.121
Mof_C 	C 	0.3885	0.2728	0.84656	0.047
Mof_C 	C 	0.3793	0.25133	0.81485	-0.121
Mof_C 	C 	0.3712	0.29077	0.79731	0.072
Mof_C 	C 	0.3902	0.21264	0.91586	0.084
Mof_C 	C 	0.3795	0.2514	0.89742	-0.146
Mof_C 	C 	0.4011	0.23307	0.86724	0.074
Mof_C 	C 	0.4351	0.17509	0.85655	-0.144
Mof_C 	C 	0.4414	0.13891	0.87645	0.082
Mof_C 	C 	0.1131	0.46681	0.78911	0.089
Mof_C 	C 	0.9964	0.46997	0.78946	-0.135
Mof_C 	C 	0.9355	0.41715	0.77985	0.063
Mof_C 	C 	0.9981	0.36462	0.76984	-0.137
Mof_C 	C 	0.1137	0.36624	0.77016	0.08
Mof_C 	C 	0.6328	0.36802	0.78101	0.072
Mof_C 	C 	0.7489	0.36674	0.7821	-0.132
Mof_C 	C 	0.8108	0.41682	0.77939	0.061
Mof_C 	C 	0.7493	0.4657	0.77555	-0.142
Mof_C 	C 	0.6336	0.46289	0.77472	0.085
Mof_C 	C 	0.8218	0.0814	0.41563	0.072
Mof_C 	C 	0.7041	0.0819	0.41382	-0.114
Mof_C 	C 	0.6425	0.1037	0.43972	0.019
Mof_C 	C 	0.7035	0.1285	0.46484	-0.115
Mof_C 	C 	0.8194	0.1264	0.46495	0.077
Mof_C 	C 	0.3402	0.1407	0.4563	0.147
Mof_C 	C 	0.4575	0.1444	0.4563	-0.225
Mof_C 	C 	0.5182	0.105	0.43975	0.145
Mof_C 	C 	0.4576	0.0666	0.4192	-0.204
Mof_C 	C 	0.3399	0.0656	0.42006	0.137
Mof_C 	C 	0.1879	0.32673	0.18379	-0.091
Mof_C 	C 	0.188	0.26551	0.1719	0.022
Mof_C 	C 	0.2192	0.24043	0.14251	-0.092
Mof_C 	C 	0.2521	0.27505	0.12335	0.023
Mof_C 	C 	0.2511	0.33682	0.13533	-0.089
Mof_C 	C 	0.2181	0.36149	0.16445	0.026
Mof_C 	C 	0.3606	0.19373	0.03224	-0.129
Mof_C 	C 	0.369	0.165	0.05457	0.061
Mof_C 	C 	0.3411	0.1923	0.08419	-0.136
Mof_C 	C 	0.2907	0.24794	0.09201	0.078
Mof_C 	C 	0.2918	0.2764	0.07038	-0.15
Mof_C 	C 	0.3279	0.2498	0.04146	0.074
Mof_C 	C 	0.1549	0.35361	0.21625	0.302
Mof_C 	C 	0.3963	0.1634	0.00021	0.329
Mof_C 	C 	0.0936	0.59966	0.32589	-0.083
Mof_C 	C 	0.0857	0.62158	0.35718	0.014
Mof_C 	C 	0.0786	0.68224	0.36938	-0.084
Mof_C 	C 	0.0823	0.7232	0.35193	0.025
Mof_C 	C 	0.0909	0.70032	0.32145	-0.084
Mof_C 	C 	0.0986	0.63972	0.30799	0.011
Mof_C 	C 	0.0795	0.91083	0.39289	-0.113
Mof_C 	C 	0.0548	0.88831	0.36301	0.052
Mof_C 	C 	0.0524	0.8287	0.35018	-0.129
Mof_C 	C 	0.0797	0.78842	0.36593	0.065
Mof_C 	C 	0.1118	0.811	0.3955	-0.128
Mof_C 	C 	0.1144	0.8707	0.40817	0.051
Mof_C 	C 	0.1073	0.53454	0.31148	0.304
Mof_C 	C 	0.0763	0.9777	0.40715	0.33
Mof_C 	C 	0.1183	0.37054	0.33856	0.068
Mof_C 	C 	0.1112	0.33404	0.35776	-0.121
Mof_C 	C 	0.1115	0.2728	0.34656	0.047
Mof_C 	C 	0.1207	0.25133	0.31485	-0.121
Mof_C 	C 	0.1288	0.29077	0.29731	0.072
Mof_C 	C 	0.1098	0.21264	0.41586	0.084
Mof_C 	C 	0.1205	0.2514	0.39742	-0.146
Mof_C 	C 	0.0989	0.23307	0.36724	0.074
Mof_C 	C 	0.0649	0.17509	0.35655	-0.144
Mof_C 	C 	0.0586	0.13891	0.37645	0.082
Mof_C 	C 	0.3869	0.46681	0.28911	0.088
Mof_C 	C 	0.5036	0.46997	0.28946	-0.134
Mof_C 	C 	0.5645	0.41715	0.27985	0.062
Mof_C 	C 	0.5019	0.36462	0.26984	-0.136
Mof_C 	C 	0.3863	0.36624	0.27016	0.079
Mof_C 	C 	0.8672	0.36802	0.28101	0.072
Mof_C 	C 	0.7511	0.36674	0.2821	-0.132
Mof_C 	C 	0.6892	0.41682	0.27939	0.061
Mof_C 	C 	0.7507	0.4657	0.27555	-0.142
Mof_C 	C 	0.8664	0.46289	0.27472	0.085
Mof_C 	C 	0.6782	0.0814	0.91563	0.073
Mof_C 	C 	0.7959	0.0819	0.91382	-0.116
Mof_C 	C 	0.8575	0.1037	0.93972	0.021
Mof_C 	C 	0.7965	0.1285	0.96484	-0.117
Mof_C 	C 	0.6806	0.1264	0.96495	0.078
Mof_C 	C 	0.1598	0.1407	0.9563	0.145
Mof_C 	C 	0.0425	0.1444	0.9563	-0.221
Mof_C 	C 	0.9818	0.105	0.93975	0.141
Mof_C 	C 	0.0424	0.0666	0.9192	-0.201
Mof_C 	C 	0.1601	0.0656	0.92006	0.135
Mof_N 	N 	0.3721	0.35008	0.80823	-0.145
Mof_N 	N 	0.4196	0.15704	0.90595	-0.154
Mof_N 	N 	0.1731	0.41698	0.77916	-0.148
Mof_N 	N 	0.5732	0.41534	0.77732	-0.148
Mof_N 	N 	0.8794	0.10222	0.44056	-0.147
Mof_N 	N 	0.2811	0.10032	0.43983	-0.18
Mof_N 	N 	0.1279	0.35008	0.30823	-0.145
Mof_N 	N 	0.0804	0.15704	0.40595	-0.154
Mof_N 	N 	0.3269	0.41698	0.27916	-0.147
Mof_N 	N 	0.9268	0.41534	0.27732	-0.148
Mof_N 	N 	0.6206	0.10222	0.94056	-0.147
Mof_N 	N 	0.2189	0.10032	0.93983	-0.179
Mof_O 	O 	0.3475	0.32206	0.73476	-0.277
Mof_O 	O 	0.3663	0.40877	0.72442	-0.28
Mof_O 	O 	0.0891	0.10928	0.49298	-0.272
Mof_O 	O 	0.0929	0.19443	0.48171	-0.279
Mof_O 	O 	0.3941	0.49879	0.82785	-0.27
Mof_O 	O 	0.3795	0.5181	0.78327	-0.279
Mof_O 	O 	0.4128	0.993	0.93547	-0.268
Mof_O 	O 	0.4313	0.01336	0.89204	-0.289
Mof_O 	O 	0.1525	0.32206	0.23476	-0.277
Mof_O 	O 	0.1337	0.40877	0.22442	-0.28
Mof_O 	O 	0.4109	0.10928	0.99298	-0.272
Mof_O 	O 	0.4071	0.19443	0.98171	-0.279
Mof_O 	O 	0.1059	0.49879	0.32785	-0.27
Mof_O 	O 	0.1205	0.5181	0.28327	-0.279
Mof_O 	O 	0.0872	0.993	0.43547	-0.268
Mof_O 	O 	0.0687	0.01336	0.39204	-0.289
Mof_Cd	Cd	0.13216	0.87222	0.76379	0.439
Mof_Cd	Cd	0.41196	0.54816	0.42651	0.443
Mof_Cd	Cd	0.36784	0.87222	0.26379	0.439
Mof_Cd	Cd	0.08804	0.54816	0.92651	0.443
Mof_H 	H 	0.2503	0.8514	0.6596	0.035
Mof_H 	H 	0.2952	0.8046	0.6097	0.07
Mof_H 	H 	0.2035	0.6487	0.6235	0.069
Mof_H 	H 	0.1594	0.6945	0.673	0.032
Mof_H 	H 	0.303	0.7158	0.5118	0.035
Mof_H 	H 	0.252	0.7606	0.5614	0.068
Mof_H 	H 	0.3338	0.6131	0.586	0.068
Mof_H 	H 	0.392	0.5685	0.537	0.053
Mof_H 	H 	0.9926	0.0726	0.7823	0.032
Mof_H 	H 	0.9667	0.1728	0.807	0.075
Mof_H 	H 	0.1889	0.1559	0.8699	0.078
Mof_H 	H 	0.1988	0.0554	0.8486	0.03
Mof_H 	H 	0.0549	0.3682	0.8369	0.043
Mof_H 	H 	0.0465	0.265	0.8161	0.062
Mof_H 	H 	0.0927	0.2393	0.8984	0.066
Mof_H 	H 	0.0995	0.3395	0.9189	0.04
Mof_H 	H 	0.1138	0.7331	0.7645	0.024
Mof_H 	H 	0.1053	0.6692	0.7947	0.081
Mof_H 	H 	0.1212	0.8069	0.867	0.076
Mof_H 	H 	0.1417	0.8676	0.8347	0.029
Mof_H 	H 	0.1181	0.5525	0.857	0.02
Mof_H 	H 	0.1283	0.612	0.8246	0.085
Mof_H 	H 	0.058	0.7493	0.8934	0.079
Mof_H 	H 	0.0477	0.6849	0.9243	0.019
Mof_H 	H 	0.9078	0.945	0.751	0.018
Mof_H 	H 	0.7145	0.9494	0.7553	0.1
Mof_H 	H 	0.721	0.7936	0.7767	0.086
Mof_H 	H 	0.9135	0.7937	0.7729	0.017
Mof_H 	H 	0.3526	0.9572	0.7863	0.013
Mof_H 	H 	0.5453	0.9603	0.7858	0.092
Mof_H 	H 	0.5439	0.784	0.7534	0.076
Mof_H 	H 	0.3521	0.7869	0.7547	0.009
Mof_H 	H 	0.6287	0.5035	0.3834	0.017
Mof_H 	H 	0.8206	0.5081	0.3807	0.081
Mof_H 	H 	0.8298	0.5961	0.4672	0.082
Mof_H 	H 	0.6334	0.5926	0.4679	0.02
Mof_H 	H 	0.191	0.6314	0.4504	0.015
Mof_H 	H 	0.9986	0.6313	0.4523	0.081
Mof_H 	H 	0.9989	0.4743	0.3923	0.083
Mof_H 	H 	0.1907	0.4766	0.3932	0.015
Mof_H 	H 	0.2497	0.8514	0.1596	0.035
Mof_H 	H 	0.2048	0.8046	0.1097	0.07
Mof_H 	H 	0.2965	0.6487	0.1235	0.069
Mof_H 	H 	0.3406	0.6945	0.173	0.032
Mof_H 	H 	0.197	0.7158	0.0118	0.035
Mof_H 	H 	0.248	0.7606	0.0614	0.068
Mof_H 	H 	0.1662	0.6131	0.086	0.068
Mof_H 	H 	0.108	0.5685	0.037	0.053
Mof_H 	H 	0.5074	0.0726	0.2823	0.033
Mof_H 	H 	0.5333	0.1728	0.307	0.075
Mof_H 	H 	0.3111	0.1559	0.3699	0.078
Mof_H 	H 	0.3012	0.0554	0.3486	0.03
Mof_H 	H 	0.4451	0.3682	0.3369	0.043
Mof_H 	H 	0.4535	0.265	0.3161	0.062
Mof_H 	H 	0.4073	0.2393	0.3984	0.066
Mof_H 	H 	0.4005	0.3395	0.4189	0.04
Mof_H 	H 	0.3862	0.7331	0.2645	0.024
Mof_H 	H 	0.3947	0.6692	0.2947	0.081
Mof_H 	H 	0.3788	0.8069	0.367	0.076
Mof_H 	H 	0.3583	0.8676	0.3347	0.029
Mof_H 	H 	0.3819	0.5525	0.357	0.02
Mof_H 	H 	0.3717	0.612	0.3246	0.085
Mof_H 	H 	0.442	0.7493	0.3934	0.079
Mof_H 	H 	0.4523	0.6849	0.4243	0.019
Mof_H 	H 	0.5922	0.945	0.251	0.018
Mof_H 	H 	0.7855	0.9494	0.2553	0.1
Mof_H 	H 	0.779	0.7936	0.2767	0.086
Mof_H 	H 	0.5865	0.7937	0.2729	0.017
Mof_H 	H 	0.1474	0.9572	0.2863	0.013
Mof_H 	H 	0.9547	0.9603	0.2858	0.091
Mof_H 	H 	0.9561	0.784	0.2534	0.076
Mof_H 	H 	0.1479	0.7869	0.2547	0.009
Mof_H 	H 	0.8713	0.5035	0.8834	0.016
Mof_H 	H 	0.6794	0.5081	0.8807	0.081
Mof_H 	H 	0.6702	0.5961	0.9672	0.082
Mof_H 	H 	0.8666	0.5926	0.9679	0.02
Mof_H 	H 	0.309	0.6314	0.9504	0.015
Mof_H 	H 	0.5014	0.6313	0.9523	0.08
Mof_H 	H 	0.5011	0.4743	0.8923	0.082
Mof_H 	H 	0.3093	0.4766	0.8932	0.015
Mof_C 	C 	0.1991	0.77779	0.67185	-0.095
Mof_C 	C 	0.2408	0.81053	0.65255	0.026
Mof_C 	C 	0.2684	0.7822	0.62253	-0.103
Mof_C 	C 	0.2565	0.72139	0.61173	0.05
Mof_C 	C 	0.2141	0.68948	0.63063	-0.107
Mof_C 	C 	0.1868	0.71729	0.66038	0.031
Mof_C 	C 	0.3522	0.637	0.51923	-0.084
Mof_C 	C 	0.3102	0.695	0.52674	0.017
Mof_C 	C 	0.2792	0.7218	0.55665	-0.094
Mof_C 	C 	0.2877	0.6922	0.57932	0.034
Mof_C 	C 	0.3287	0.63436	0.57116	-0.088
Mof_C 	C 	0.3626	0.6069	0.54158	0.019
Mof_C 	C 	0.1693	0.8071	0.70409	0.295
Mof_C 	C 	0.383	0.6093	0.4867	0.309
Mof_C 	C 	0.0967	0.05322	0.81352	-0.109
Mof_C 	C 	0.0292	0.0887	0.80063	0.039
Mof_C 	C 	0.0156	0.1496	0.81516	-0.111
Mof_C 	C 	0.0743	0.1749	0.84138	0.053
Mof_C 	C 	0.1453	0.1392	0.85282	-0.117
Mof_C 	C 	0.1535	0.0789	0.83955	0.043
Mof_C 	C 	0.0757	0.36359	0.88012	-0.085
Mof_C 	C 	0.0618	0.34221	0.84936	0.014
Mof_C 	C 	0.0582	0.27974	0.83685	-0.088
Mof_C 	C 	0.0716	0.24126	0.85454	0.034
Mof_C 	C 	0.0854	0.26499	0.88576	-0.094
Mof_C 	C 	0.0886	0.32491	0.89812	0.02
Mof_C 	C 	0.1103	0.98737	0.79851	0.338
Mof_C 	C 	0.0826	0.42978	0.89335	0.3
Mof_C 	C 	0.1173	0.74826	0.78545	0.074
Mof_C 	C 	0.1099	0.70989	0.80354	-0.125
Mof_C 	C 	0.1091	0.73052	0.83516	0.053
Mof_C 	C 	0.1208	0.79043	0.84608	-0.125
Mof_C 	C 	0.1319	0.82702	0.82652	0.072
Mof_C 	C 	0.1061	0.59306	0.86474	0.09
Mof_C 	C 	0.113	0.62878	0.84504	-0.141
Mof_C 	C 	0.0978	0.68887	0.8551	0.069
Mof_C 	C 	0.0717	0.70897	0.8853	-0.136
Mof_C 	C 	0.0654	0.66997	0.90387	0.079
Mof_C 	C 	0.8698	0.9144	0.75671	0.086
Mof_C 	C 	0.7535	0.917	0.75879	-0.147
Mof_C 	C 	0.6954	0.87083	0.76621	0.067
Mof_C 	C 	0.7573	0.82525	0.77156	-0.144
Mof_C 	C 	0.8733	0.82572	0.76938	0.083
Mof_C 	C 	0.3917	0.9218	0.77901	0.094
Mof_C 	C 	0.5079	0.9242	0.77886	-0.146
Mof_C 	C 	0.5688	0.87187	0.76809	0.062
Mof_C 	C 	0.5071	0.82043	0.7597	-0.146
Mof_C 	C 	0.3918	0.8225	0.76062	0.08
Mof_C 	C 	0.6691	0.5231	0.40057	0.079
Mof_C 	C 	0.7848	0.5247	0.39912	-0.142
Mof_C 	C 	0.849	0.54967	0.42384	0.059
Mof_C 	C 	0.7906	0.5767	0.44983	-0.135
Mof_C 	C 	0.6717	0.5749	0.45003	0.079
Mof_C 	C 	0.1521	0.5983	0.43922	0.084
Mof_C 	C 	0.0363	0.5987	0.44017	-0.139
Mof_C 	C 	0.9747	0.55103	0.42327	0.062
Mof_C 	C 	0.0359	0.5063	0.40512	-0.14
Mof_C 	C 	0.1515	0.5082	0.40566	0.091
Mof_C 	C 	0.3009	0.77779	0.17185	-0.095
Mof_C 	C 	0.2592	0.81053	0.15255	0.026
Mof_C 	C 	0.2316	0.7822	0.12253	-0.103
Mof_C 	C 	0.2435	0.72139	0.11173	0.05
Mof_C 	C 	0.2859	0.68948	0.13063	-0.107
Mof_C 	C 	0.3132	0.71729	0.16038	0.031
Mof_C 	C 	0.1478	0.637	0.01923	-0.084
Mof_C 	C 	0.1898	0.695	0.02674	0.017
Mof_C 	C 	0.2208	0.7218	0.05665	-0.094
Mof_C 	C 	0.2123	0.6922	0.07932	0.034
Mof_C 	C 	0.1713	0.63436	0.07116	-0.088
Mof_C 	C 	0.1374	0.6069	0.04158	0.019
Mof_C 	C 	0.3307	0.8071	0.20409	0.295
Mof_C 	C 	0.117	0.6093	0.9867	0.309
Mof_C 	C 	0.4033	0.05322	0.31352	-0.109
Mof_C 	C 	0.4708	0.0887	0.30063	0.038
Mof_C 	C 	0.4844	0.1496	0.31516	-0.112
Mof_C 	C 	0.4257	0.1749	0.34138	0.054
Mof_C 	C 	0.3547	0.1392	0.35282	-0.117
Mof_C 	C 	0.3465	0.0789	0.33955	0.043
Mof_C 	C 	0.4243	0.36359	0.38012	-0.085
Mof_C 	C 	0.4382	0.34221	0.34936	0.014
Mof_C 	C 	0.4418	0.27974	0.33685	-0.088
Mof_C 	C 	0.4284	0.24126	0.35454	0.033
Mof_C 	C 	0.4146	0.26499	0.38576	-0.094
Mof_C 	C 	0.4114	0.32491	0.39812	0.02
Mof_C 	C 	0.3897	0.98737	0.29851	0.339
Mof_C 	C 	0.4174	0.42978	0.39335	0.3
Mof_C 	C 	0.3827	0.74826	0.28545	0.074
Mof_C 	C 	0.3901	0.70989	0.30354	-0.125
Mof_C 	C 	0.3909	0.73052	0.33516	0.053
Mof_C 	C 	0.3792	0.79043	0.34608	-0.125
Mof_C 	C 	0.3681	0.82702	0.32652	0.072
Mof_C 	C 	0.3939	0.59306	0.36474	0.09
Mof_C 	C 	0.387	0.62878	0.34504	-0.141
Mof_C 	C 	0.4022	0.68887	0.3551	0.069
Mof_C 	C 	0.4283	0.70897	0.3853	-0.136
Mof_C 	C 	0.4346	0.66997	0.40387	0.079
Mof_C 	C 	0.6302	0.9144	0.25671	0.087
Mof_C 	C 	0.7465	0.917	0.25879	-0.147
Mof_C 	C 	0.8046	0.87083	0.26621	0.068
Mof_C 	C 	0.7427	0.82525	0.27156	-0.144
Mof_C 	C 	0.6267	0.82572	0.26938	0.084
Mof_C 	C 	0.1083	0.9218	0.27901	0.092
Mof_C 	C 	0.9921	0.9242	0.27886	-0.143
Mof_C 	C 	0.9312	0.87187	0.26809	0.06
Mof_C 	C 	0.9929	0.82043	0.2597	-0.144
Mof_C 	C 	0.1082	0.8225	0.26062	0.078
Mof_C 	C 	0.8309	0.5231	0.90057	0.079
Mof_C 	C 	0.7152	0.5247	0.89912	-0.142
Mof_C 	C 	0.651	0.54967	0.92384	0.059
Mof_C 	C 	0.7094	0.5767	0.94983	-0.135
Mof_C 	C 	0.8283	0.5749	0.95003	0.079
Mof_C 	C 	0.3479	0.5983	0.93922	0.083
Mof_C 	C 	0.4637	0.5987	0.94017	-0.139
Mof_C 	C 	0.5253	0.55103	0.92327	0.062
Mof_C 	C 	0.4641	0.5063	0.90512	-0.139
Mof_C 	C 	0.3485	0.5082	0.90566	0.091
Mof_N 	N 	0.1293	0.80689	0.7966	-0.147
Mof_N 	N 	0.0837	0.61206	0.8935	-0.154
Mof_N 	N 	0.9309	0.86973	0.76247	-0.15
Mof_N 	N 	0.3323	0.87315	0.76956	-0.151
Mof_N 	N 	0.6127	0.54889	0.42571	-0.149
Mof_N 	N 	0.2114	0.55229	0.42295	-0.149
Mof_N 	N 	0.3707	0.80689	0.2966	-0.147
Mof_N 	N 	0.4163	0.61206	0.3935	-0.154
Mof_N 	N 	0.5691	0.86973	0.26247	-0.15
Mof_N 	N 	0.1677	0.87315	0.26956	-0.151
Mof_N 	N 	0.8873	0.54889	0.92571	-0.149
Mof_N 	N 	0.2886	0.55229	0.92295	-0.149
Mof_O 	O 	0.1602	0.86306	0.712	-0.269
Mof_O 	O 	0.1541	0.77557	0.72256	-0.274
Mof_O 	O 	0.3994	0.63958	0.46828	-0.28
Mof_O 	O 	0.3933	0.55405	0.47893	-0.26
Mof_O 	O 	0.115	0.97417	0.76979	-0.284
Mof_O 	O 	0.1223	0.95086	0.81228	-0.295
Mof_O 	O 	0.0755	0.46433	0.87687	-0.272
Mof_O 	O 	0.0927	0.44867	0.92194	-0.267
Mof_O 	O 	0.3398	0.86306	0.212	-0.269
Mof_O 	O 	0.3459	0.77557	0.22256	-0.275
Mof_O 	O 	0.1006	0.63958	0.96828	-0.28
Mof_O 	O 	0.1067	0.55405	0.97893	-0.26
Mof_O 	O 	0.385	0.97417	0.26979	-0.284
Mof_O 	O 	0.3777	0.95086	0.31228	-0.295
Mof_O 	O 	0.4245	0.46433	0.37687	-0.272
Mof_O 	O 	0.4073	0.44867	0.42194	-0.267
_end
