data_functionalizedCrystal
_audit_creation_method	'EQeq! by Chris Wilmer'
_symmetry_space_group_name_H-M	'P1'
_symmetry_Int_Tables_number	1
_symmetry_cell_setting	triclinic
loop_
_symmetry_equiv_pos_as_xyz
  x,y,z
_cell_length_a	21.43
_cell_length_b	21.43
_cell_length_c	16.89
_cell_angle_alpha	90
_cell_angle_beta	90
_cell_angle_gamma	120
loop_
_atom_site_label
_atom_site_type_symbol
_atom_site_fract_x
_atom_site_fract_y
_atom_site_fract_z
_atom_site_charge
Mof_O 	O 	0.95877	0.1456	0.07304	-0.587
Mof_O 	O 	0.04102	0.14184	0.1556	-0.565
Mof_C 	C 	0.001	0.456	0.328	0.032
Mof_C 	C 	0.996	0.4667	0.249	-0.003
Mof_C 	C 	0.9986	0.3908	0.3474	-0.027
Mof_C 	C 	0.002	0.37	0.425	0.031
Mof_C 	C 	0.004	0.314	0.45992	-0.044
Mof_C 	C 	0.00191	0.33957	0.28501	0.009
Mof_C 	C 	0.9485	0.30352	0.22651	-0.084
Mof_C 	C 	0.94851	0.24952	0.17722	0.013
Mof_C 	C 	0.05508	0.31899	0.29108	-0.064
Mof_C 	C 	0.00069	0.16911	0.13455	0.433
Mof_C 	C 	0.00117	0.22841	0.18506	-0.112
Mof_C 	C 	0.05478	0.26501	0.24262	0.025
Mof_Zr	Zr	0.92834	0.92614	0.09253	3.189
Mof_O 	O 	0.82917	0.83005	0.08285	-0.595
Mof_O 	O 	0.87554	0.86613	0.19296	-0.581
Mof_C 	C 	0.544	0.545	0.328	0.1
Mof_C 	C 	0.5333	0.5293	0.249	-0.07
Mof_C 	C 	0.6092	0.6078	0.3474	-0.101
Mof_C 	C 	0.63	0.632	0.425	0.069
Mof_C 	C 	0.686	0.69	0.45992	-0.052
Mof_C 	C 	0.66077	0.65229	0.28694	0.075
Mof_C 	C 	0.73149	0.66607	0.29329	-0.096
Mof_C 	C 	0.78432	0.71823	0.24623	0.067
Mof_C 	C 	0.64201	0.68815	0.23089	-0.095
Mof_C 	C 	0.82311	0.81731	0.15546	0.431
Mof_C 	C 	0.76599	0.7553	0.19214	-0.144
Mof_C 	C 	0.69508	0.73986	0.18267	0.058
Mof_O 	O 	0.15119	0.96342	0.07203	-0.586
Mof_C 	C 	0.45301	0.00142	0.32939	0.101
Mof_C 	C 	0.4707	0.004	0.249	-0.08
Mof_C 	C 	0.3922	0.0014	0.3474	-0.11
Mof_C 	C 	0.368	0.998	0.425	0.08
Mof_C 	C 	0.31	0.996	0.45992	-0.054
Mof_C 	C 	0.34393	0.00676	0.28802	0.051
Mof_C 	C 	0.30766	0.04556	0.30529	-0.079
Mof_C 	C 	0.2545	0.04565	0.25586	0.03
Mof_C 	C 	0.32403	0.96933	0.21466	-0.07
Mof_C 	C 	0.17329	0.00479	0.13389	0.432
Mof_C 	C 	0.23325	0.00646	0.18486	-0.112
Mof_C 	C 	0.27007	0.9691	0.16459	0.041
Mof_O 	O 	0.04427	0.85486	0.07251	-0.602
Mof_C 	C 	0.999	0.544	0.328	0.164
Mof_C 	C 	0.004	0.5333	0.249	-0.131
Mof_C 	C 	0.0014	0.6092	0.3474	-0.152
Mof_C 	C 	0.998	0.63	0.425	0.094
Mof_C 	C 	0.996	0.686	0.45992	-0.06
Mof_C 	C 	0.99902	0.66069	0.28492	0.103
Mof_C 	C 	0.05266	0.69604	0.22645	-0.144
Mof_C 	C 	0.05335	0.75012	0.17676	0.025
Mof_C 	C 	0.94644	0.68198	0.29071	-0.098
Mof_C 	C 	0.00203	0.83113	0.13362	0.445
Mof_C 	C 	0.00118	0.77187	0.18429	-0.12
Mof_C 	C 	0.9475	0.73603	0.2419	0.056
Mof_Zr	Zr	0.07378	0.07408	0.09276	3.188
Mof_O 	O 	0.16849	0.17409	0.08207	-0.597
Mof_C 	C 	0.456	0.455	0.328	0.101
Mof_C 	C 	0.4667	0.4707	0.249	-0.067
Mof_C 	C 	0.3908	0.3922	0.3474	-0.101
Mof_C 	C 	0.37	0.368	0.425	0.068
Mof_C 	C 	0.314	0.31	0.45992	-0.052
Mof_C 	C 	0.34485	0.34267	0.28674	0.077
Mof_C 	C 	0.30264	0.36039	0.23912	-0.094
Mof_C 	C 	0.25095	0.30803	0.19029	0.058
Mof_C 	C 	0.33769	0.27432	0.28417	-0.095
Mof_C 	C 	0.18092	0.18125	0.15468	0.431
Mof_C 	C 	0.24243	0.23915	0.19061	-0.143
Mof_C 	C 	0.28578	0.22216	0.23637	0.062
Mof_O 	O 	0.85839	0.95629	0.15564	-0.559
Mof_O 	O 	0.85177	0.03681	0.07286	-0.604
Mof_C 	C 	0.545	0.001	0.328	0.079
Mof_C 	C 	0.5293	0.996	0.249	-0.046
Mof_C 	C 	0.6078	0.9986	0.3474	-0.073
Mof_C 	C 	0.632	0.002	0.425	0.056
Mof_C 	C 	0.69	0.004	0.45992	-0.048
Mof_C 	C 	0.65819	0.99325	0.28518	0.052
Mof_C 	C 	0.68257	0.94327	0.29531	-0.073
Mof_C 	C 	0.73662	0.94343	0.24682	0.032
Mof_C 	C 	0.69071	0.0433	0.22279	-0.078
Mof_C 	C 	0.8294	0.99515	0.13461	0.455
Mof_C 	C 	0.76964	0.99385	0.18533	-0.101
Mof_C 	C 	0.74475	0.0432	0.17371	0.031
Mof_O 	O 	0.04454	0.85505	0.92816	-0.587
Mof_O 	O 	0.96188	0.85843	0.8462	-0.542
Mof_C 	C 	0.999	0.544	0.672	0.158
Mof_C 	C 	0.004	0.5333	0.751	-0.121
Mof_C 	C 	0.0014	0.6092	0.6526	-0.145
Mof_C 	C 	0.998	0.63	0.575	0.093
Mof_C 	C 	0.996	0.686	0.54008	-0.057
Mof_C 	C 	0.99919	0.66085	0.71513	0.092
Mof_C 	C 	0.05261	0.69584	0.77395	-0.1
Mof_C 	C 	0.05343	0.74996	0.82375	0.047
Mof_C 	C 	0.94698	0.68263	0.70918	-0.092
Mof_C 	C 	0.00243	0.83139	0.8669	0.446
Mof_C 	C 	0.0016	0.77216	0.81606	-0.119
Mof_C 	C 	0.94816	0.7367	0.75809	0.055
Mof_Zr	Zr	0.07401	0.07395	0.90828	3.189
Mof_O 	O 	0.17402	0.16894	0.91712	-0.583
Mof_O 	O 	0.1259	0.13366	0.80755	-0.587
Mof_C 	C 	0.456	0.455	0.672	0.1
Mof_C 	C 	0.4667	0.4707	0.751	-0.067
Mof_C 	C 	0.3908	0.3922	0.6526	-0.101
Mof_C 	C 	0.37	0.368	0.575	0.07
Mof_C 	C 	0.314	0.31	0.54008	-0.052
Mof_C 	C 	0.33973	0.3475	0.71305	0.077
Mof_C 	C 	0.26887	0.33329	0.70717	-0.096
Mof_C 	C 	0.21656	0.28081	0.75427	0.068
Mof_C 	C 	0.35923	0.31191	0.76864	-0.093
Mof_C 	C 	0.17906	0.18192	0.84463	0.432
Mof_C 	C 	0.23561	0.24394	0.8078	-0.141
Mof_C 	C 	0.30668	0.25989	0.8169	0.063
Mof_O 	O 	0.85856	0.95638	0.84503	-0.555
Mof_O 	O 	0.85188	0.03691	0.92782	-0.587
Mof_C 	C 	0.545	0.001	0.672	0.079
Mof_C 	C 	0.5293	0.996	0.751	-0.044
Mof_C 	C 	0.6078	0.9986	0.6526	-0.072
Mof_C 	C 	0.632	0.002	0.575	0.056
Mof_C 	C 	0.69	0.004	0.54008	-0.047
Mof_C 	C 	0.65832	0.99335	0.7149	0.051
Mof_C 	C 	0.6829	0.94351	0.7048	-0.07
Mof_C 	C 	0.73695	0.94371	0.75342	0.032
Mof_C 	C 	0.69073	0.04333	0.77742	-0.076
Mof_C 	C 	0.82958	0.9953	0.86598	0.451
Mof_C 	C 	0.76984	0.99403	0.81506	-0.096
Mof_C 	C 	0.74478	0.04328	0.82661	0.033
Mof_O 	O 	0.95811	0.14564	0.92858	-0.569
Mof_O 	O 	0.04111	0.14258	0.84687	-0.545
Mof_C 	C 	0.001	0.456	0.672	0.041
Mof_C 	C 	0.996	0.4667	0.751	-0.03
Mof_C 	C 	0.9986	0.3908	0.6526	-0.024
Mof_C 	C 	0.002	0.37	0.575	0.033
Mof_C 	C 	0.004	0.314	0.54008	-0.042
Mof_C 	C 	0.00155	0.33935	0.71519	0.006
Mof_C 	C 	0.94884	0.3045	0.77476	-0.045
Mof_C 	C 	0.94876	0.25069	0.8246	0.043
Mof_C 	C 	0.05384	0.31765	0.7087	-0.061
Mof_C 	C 	0.00029	0.16942	0.86737	0.423
Mof_C 	C 	0.00064	0.22855	0.81638	-0.109
Mof_C 	C 	0.0534	0.26388	0.75767	0.029
Mof_Zr	Zr	0.92852	0.92619	0.90814	3.191
Mof_O 	O 	0.82968	0.82964	0.91756	-0.58
Mof_O 	O 	0.87565	0.86655	0.80747	-0.58
Mof_C 	C 	0.544	0.545	0.672	0.101
Mof_C 	C 	0.5333	0.5293	0.751	-0.066
Mof_C 	C 	0.6092	0.6078	0.6526	-0.099
Mof_C 	C 	0.63	0.632	0.575	0.069
Mof_C 	C 	0.686	0.69	0.54008	-0.051
Mof_C 	C 	0.66093	0.65231	0.71307	0.076
Mof_C 	C 	0.73179	0.66653	0.70625	-0.094
Mof_C 	C 	0.78467	0.7187	0.7533	0.066
Mof_C 	C 	0.64218	0.68779	0.76962	-0.091
Mof_C 	C 	0.82343	0.81734	0.84485	0.428
Mof_C 	C 	0.76632	0.75537	0.80792	-0.138
Mof_C 	C 	0.6953	0.73949	0.81785	0.059
Mof_O 	O 	0.14334	0.04266	0.84527	-0.555
Mof_O 	O 	0.15249	0.9652	0.93056	-0.573
Mof_C 	C 	0.4545	0.00436	0.67052	0.099
Mof_C 	C 	0.4707	0.004	0.751	-0.071
Mof_C 	C 	0.3922	0.0014	0.6526	-0.105
Mof_C 	C 	0.368	0.998	0.575	0.078
Mof_C 	C 	0.31	0.996	0.54008	-0.052
Mof_C 	C 	0.33991	0.00016	0.71253	0.048
Mof_C 	C 	0.35744	0.03185	0.78933	-0.072
Mof_C 	C 	0.30479	0.03374	0.84021	0.034
Mof_C 	C 	0.26527	0.96864	0.69379	-0.066
Mof_C 	C 	0.17393	0.00568	0.86806	0.434
Mof_C 	C 	0.23188	0.00475	0.81665	-0.11
Mof_C 	C 	0.21338	0.97107	0.74283	0.049
Mof_Zr	Zr	0.06147	0.94333	0.00055	3.179
Mof_Zr	Zr	0.94113	0.05712	0.00051	3.179
Mof_N 	N 	-3.70638e-17	0.5	0.384	-0.225
Mof_N 	N 	0.5	0.5	0.384	-0.221
Mof_N 	N 	0.5	0	0.384	-0.216
Mof_N 	N 	8.23994e-18	0.5	0.616	-0.225
Mof_N 	N 	0.5	0.5	0.616	-0.22
Mof_N 	N 	0.5	0	0.616	-0.215
Mof_N 	N 	0.01	0.416	0.5	-0.192
Mof_N 	N 	0.584	0.594	0.5	-0.199
Mof_N 	N 	0.406	0.99	0.5	-0.197
Mof_N 	N 	0.99	0.584	0.5	-0.2
Mof_N 	N 	0.416	0.406	0.5	-0.199
Mof_N 	N 	0.594	0.01	0.5	-0.196
Mof_Fe	Fe	1.94363e-17	0.5	0.5	0.646
Mof_Fe	Fe	0.5	0.5	0.5	0.659
Mof_Fe	Fe	0.5	-7.51581e-33	0.5	0.651
Mof_O 	O 	0.96146	0.85813	0.1543	-0.544
Mof_O 	O 	0.1437	0.04309	0.15513	-0.548
Mof_O 	O 	0.13279	0.12886	0.19285	-0.588
Mof_O 	O 	0.96558	0.03376	0.11655	-1.377
Mof_O 	O 	0.87474	0.94295	0.00029	-1.404
Mof_O 	O 	0.94762	0.87412	0.00037	-1.407
Mof_O 	O 	0.12761	0.05744	0.00073	-1.414
Mof_O 	O 	0.03686	0.96645	0.88454	-1.378
Mof_O 	O 	0.05494	0.12616	0.00039	-1.418
Mof_O 	O 	0.03657	0.96649	0.11623	-1.387
Mof_O 	O 	0.9658	0.03379	0.8846	-1.373
Mof_H 	H 	0.98722	0.42302	0.20453	0.026
Mof_H 	H 	0.00554	0.27081	0.42195	0.04
Mof_H 	H 	0.89394	0.27821	0.25741	0.047
Mof_H 	H 	0.95319	0.34945	0.18816	0.042
Mof_H 	H 	0.95025	0.26724	0.11323	0.044
Mof_H 	H 	0.89575	0.19667	0.18537	0.045
Mof_H 	H 	0.10035	0.34624	0.33633	0.042
Mof_H 	H 	0.04631	0.2112	0.09655	-0.004
Mof_H 	H 	0.09871	0.25022	0.2497	0.047
Mof_H 	H 	0.57698	0.56419	0.20453	0.048
Mof_H 	H 	0.72919	0.73473	0.42195	0.048
Mof_H 	H 	0.74516	0.63426	0.33717	0.05
Mof_H 	H 	0.84244	0.73064	0.25186	0.022
Mof_H 	H 	0.5836	0.67477	0.22519	0.05
Mof_H 	H 	0.68035	0.76893	0.13624	0.033
Mof_H 	H 	0.43682	0.01154	0.20205	0.043
Mof_H 	H 	0.26527	0.99446	0.42195	0.049
Mof_H 	H 	0.321	0.079	0.36174	0.043
Mof_H 	H 	0.22773	0.07812	0.27333	0.046
Mof_H 	H 	0.35256	0.93882	0.19611	0.045
Mof_H 	H 	0.25543	0.9382	0.10626	0.044
Mof_H 	H 	0.01225	0.56339	0.1908	0.05
Mof_H 	H 	0.99446	0.72919	0.42195	0.049
Mof_H 	H 	0.10714	0.72098	0.25748	0.057
Mof_H 	H 	0.04751	0.64973	0.18844	0.051
Mof_H 	H 	0.05145	0.73205	0.11289	0.038
Mof_H 	H 	0.10641	0.80269	0.18479	0.042
Mof_H 	H 	0.90113	0.65525	0.33599	0.051
Mof_H 	H 	0.90409	0.75158	0.24869	0.037
Mof_H 	H 	0.43661	0.44885	0.1908	0.047
Mof_H 	H 	0.27081	0.26527	0.42195	0.046
Mof_H 	H 	0.31094	0.41723	0.24076	0.049
Mof_H 	H 	0.21629	0.32166	0.15077	0.029
Mof_H 	H 	0.37464	0.26208	0.32144	0.05
Mof_H 	H 	0.27876	0.16582	0.23466	0.028
Mof_H 	H 	0.55115	0.98775	0.1908	0.042
Mof_H 	H 	0.73473	0.00554	0.42195	0.046
Mof_H 	H 	0.65854	0.90082	0.34396	0.047
Mof_H 	H 	0.75437	0.90203	0.25715	0.048
Mof_H 	H 	0.67268	0.08445	0.21221	0.044
Mof_H 	H 	0.7877	0.9488	0.09706	-0.003
Mof_H 	H 	0.76932	0.0837	0.12326	0.043
Mof_H 	H 	0.01278	0.57698	0.79547	0.057
Mof_H 	H 	0.99438	0.73124	0.57383	0.049
Mof_H 	H 	0.09567	0.67985	0.78104	0.052
Mof_H 	H 	0.09661	0.7766	0.87132	0.049
Mof_H 	H 	0.90183	0.6563	0.66366	0.05
Mof_H 	H 	0.90503	0.75261	0.7511	0.038
Mof_H 	H 	0.42302	0.43581	0.79547	0.051
Mof_H 	H 	0.26876	0.26314	0.57383	0.048
Mof_H 	H 	0.25477	0.36503	0.66366	0.05
Mof_H 	H 	0.15827	0.26796	0.74915	0.022
Mof_H 	H 	0.41783	0.32581	0.77388	0.053
Mof_H 	H 	0.32197	0.23102	0.86301	0.039
Mof_H 	H 	0.56419	0.98722	0.79547	0.046
Mof_H 	H 	0.73686	0.00562	0.57383	0.046
Mof_H 	H 	0.65906	0.90112	0.65607	0.047
Mof_H 	H 	0.75483	0.90241	0.74308	0.049
Mof_H 	H 	0.67258	0.08439	0.788	0.047
Mof_H 	H 	0.76923	0.08374	0.87711	0.05
Mof_H 	H 	0.94079	0.42542	0.77496	0.039
Mof_H 	H 	0.04074	0.46694	0.78776	0.033
Mof_H 	H 	0.00562	0.26876	0.57383	0.04
Mof_H 	H 	0.90573	0.32035	0.78243	0.04
Mof_H 	H 	0.90611	0.22418	0.87273	0.049
Mof_H 	H 	0.09853	0.34378	0.66265	0.041
Mof_H 	H 	0.04553	0.21174	0.90558	0.006
Mof_H 	H 	0.0966	0.24813	0.75011	0.042
Mof_H 	H 	0.56339	0.55115	0.8092	0.052
Mof_H 	H 	0.73124	0.73686	0.57383	0.048
Mof_H 	H 	0.74556	0.63507	0.66199	0.05
Mof_H 	H 	0.84286	0.73146	0.74723	0.023
Mof_H 	H 	0.58371	0.67413	0.77576	0.053
Mof_H 	H 	0.68053	0.76822	0.86468	0.039
Mof_H 	H 	0.43595	0.00983	0.79823	0.044
Mof_H 	H 	0.26314	0.99438	0.57383	0.043
Mof_H 	H 	0.41503	0.0569	0.81233	0.041
Mof_H 	H 	0.32105	0.05906	0.90154	0.04
Mof_H 	H 	0.24865	0.93989	0.63421	0.044
Mof_H 	H 	0.15495	0.9452	0.72245	0.042
_end
