# CIF file generated by openbabel 3.1.0, see https://openbabel.org
data_I
_chemical_name_common 'PURQEZ_clean'
_cell_length_a 8.94
_cell_length_b 12.48
_cell_length_c 14.02
_cell_angle_alpha 90
_cell_angle_beta 90
_cell_angle_gamma 91.73
_space_group_name_H-M_alt 'P 1'
_space_group_name_Hall 'P 1'
loop_
    _symmetry_equiv_pos_as_xyz
    x,y,z
loop_
    _atom_site_label
    _atom_site_type_symbol
    _atom_site_fract_x
    _atom_site_fract_y
    _atom_site_fract_z
    _atom_site_occupancy
    Zn1      Zn       0.75000    0.25000    0.32633    1.000
    Zn2      Zn       0.75000    0.25000    0.83874    1.000
    Zn3      Zn       0.25000    0.75000    0.67367    1.000
    Zn4      Zn       0.25000    0.75000    0.16126    1.000
    H1       H        0.44100    0.46460    0.15250    1.000
    H2       H        0.45110    0.35570    0.09390    1.000
    H3       H        0.62220    0.54680    0.05560    1.000
    H4       H        0.02580    0.49760    0.66220    1.000
    H5       H        0.06480    0.38070    0.62470    1.000
    H6       H        0.84910    0.50870    0.53260    1.000
    H7       H        0.05900    0.03540    0.15250    1.000
    H8       H        0.04890    0.14430    0.09390    1.000
    H9       H        0.87780    0.95320    0.05560    1.000
    H10      H        0.47420    0.00240    0.66220    1.000
    H11      H        0.43520    0.11930    0.62470    1.000
    H12      H        0.65090    0.99130    0.53260    1.000
    H13      H        0.55900    0.53540    0.84750    1.000
    H14      H        0.54890    0.64430    0.90610    1.000
    H15      H        0.37780    0.45320    0.94440    1.000
    H16      H        0.97420    0.50240    0.33780    1.000
    H17      H        0.93520    0.61930    0.37530    1.000
    H18      H        0.15090    0.49130    0.46740    1.000
    H19      H        0.94100    0.96460    0.84750    1.000
    H20      H        0.95110    0.85570    0.90610    1.000
    H21      H        0.12220    0.04680    0.94440    1.000
    H22      H        0.52580    0.99760    0.33780    1.000
    H23      H        0.56480    0.88070    0.37530    1.000
    H24      H        0.34910    0.00870    0.46740    1.000
    C1       C        0.62430    0.37830    0.18830    1.000
    C2       C        0.51050    0.41850    0.11750    1.000
    C3       C        0.56820    0.48100    0.03130    1.000
    C4       C        0.68120    0.41680    0.97330    1.000
    C5       C        0.85390    0.38490    0.68720    1.000
    C6       C        0.98460    0.43360    0.62840    1.000
    C7       C        0.94160    0.46580    0.52770    1.000
    C8       C        0.90420    0.37050    0.46720    1.000
    C9       C        0.87570    0.12170    0.18830    1.000
    C10      C        0.98950    0.08150    0.11750    1.000
    C11      C        0.93180    0.01900    0.03130    1.000
    C12      C        0.81880    0.08320    0.97330    1.000
    C13      C        0.64610    0.11510    0.68720    1.000
    C14      C        0.51540    0.06640    0.62840    1.000
    C15      C        0.55840    0.03420    0.52770    1.000
    C16      C        0.59580    0.12950    0.46720    1.000
    C17      C        0.37570    0.62170    0.81170    1.000
    C18      C        0.48950    0.58150    0.88250    1.000
    C19      C        0.43180    0.51900    0.96870    1.000
    C20      C        0.31880    0.58320    0.02670    1.000
    C21      C        0.14610    0.61510    0.31280    1.000
    C22      C        0.01540    0.56640    0.37160    1.000
    C23      C        0.05840    0.53420    0.47230    1.000
    C24      C        0.09580    0.62950    0.53280    1.000
    C25      C        0.12430    0.87830    0.81170    1.000
    C26      C        0.01050    0.91850    0.88250    1.000
    C27      C        0.06820    0.98100    0.96870    1.000
    C28      C        0.18120    0.91680    0.02670    1.000
    C29      C        0.35390    0.88490    0.31280    1.000
    C30      C        0.48460    0.93360    0.37160    1.000
    C31      C        0.44160    0.96580    0.47230    1.000
    C32      C        0.40420    0.87050    0.53280    1.000
    O1       O        0.58480    0.30310    0.24540    1.000
    O2       O        0.81420    0.43940    0.97370    1.000
    O3       O        0.62270    0.33660    0.92230    1.000
    O4       O        0.89960    0.33530    0.76920    1.000
    O5       O        0.72660    0.39320    0.66830    1.000
    O6       O        0.78450    0.37200    0.41460    1.000
    O7       O        0.98880    0.29340    0.46250    1.000
    O8       O        0.75500    0.42520    0.19340    1.000
    O9       O        0.91520    0.19690    0.24540    1.000
    O10      O        0.68580    0.06060    0.97370    1.000
    O11      O        0.87730    0.16340    0.92230    1.000
    O12      O        0.60040    0.16470    0.76920    1.000
    O13      O        0.77340    0.10680    0.66830    1.000
    O14      O        0.71550    0.12800    0.41460    1.000
    O15      O        0.51120    0.20660    0.46250    1.000
    O16      O        0.74500    0.07480    0.19340    1.000
    O17      O        0.41520    0.69690    0.75460    1.000
    O18      O        0.18580    0.56060    0.02630    1.000
    O19      O        0.37730    0.66340    0.07770    1.000
    O20      O        0.10040    0.66470    0.23080    1.000
    O21      O        0.27340    0.60680    0.33170    1.000
    O22      O        0.21550    0.62800    0.58540    1.000
    O23      O        0.01120    0.70660    0.53750    1.000
    O24      O        0.24500    0.57480    0.80660    1.000
    O25      O        0.08480    0.80310    0.75460    1.000
    O26      O        0.31420    0.93940    0.02630    1.000
    O27      O        0.12270    0.83660    0.07770    1.000
    O28      O        0.39960    0.83530    0.23080    1.000
    O29      O        0.22660    0.89320    0.33170    1.000
    O30      O        0.28450    0.87200    0.58540    1.000
    O31      O        0.48880    0.79340    0.53750    1.000
    O32      O        0.25500    0.92520    0.80660    1.000
