# CIF file generated by openbabel 3.1.0, see https://openbabel.org
data_I
_chemical_name_common 'OLOKEF_clean'
_cell_length_a 6.91
_cell_length_b 7.389
_cell_length_c 8.223
_cell_angle_alpha 90.08
_cell_angle_beta 109.83
_cell_angle_gamma 93.37
_space_group_name_H-M_alt 'P 1'
_space_group_name_Hall 'P 1'
loop_
    _symmetry_equiv_pos_as_xyz
    x,y,z
loop_
    _atom_site_label
    _atom_site_type_symbol
    _atom_site_fract_x
    _atom_site_fract_y
    _atom_site_fract_z
    _atom_site_occupancy
    Ni1      Ni       0.00000    0.50000    0.00000    1.000
    Ni2      Ni       0.50000    0.00000    0.00000    1.000
    H1       H        0.42900    0.79600    0.53750    1.000
    H2       H        0.57100    0.20400    0.46250    1.000
    C1       C        0.58100    0.66130    0.84030    1.000
    C2       C        0.53950    0.57140    0.66680    1.000
    C3       C        0.58120    0.39210    0.64280    1.000
    C4       C        0.45790    0.67700    0.52260    1.000
    C5       C        0.64760    0.26050    0.78800    1.000
    C6       C        0.41900    0.33870    0.15970    1.000
    C7       C        0.46050    0.42860    0.33320    1.000
    C8       C        0.41880    0.60790    0.35720    1.000
    C9       C        0.54210    0.32300    0.47740    1.000
    C10      C        0.35240    0.73950    0.21200    1.000
    O1       O        0.44760    0.76440    0.85100    1.000
    O2       O        0.74510    0.63790    0.96150    1.000
    O3       O        0.82930    0.27030    0.89540    1.000
    O4       O        0.51250    0.14110    0.78970    1.000
    O5       O        0.55240    0.23560    0.14900    1.000
    O6       O        0.25490    0.36210    0.03850    1.000
    O7       O        0.17070    0.72970    0.10460    1.000
    O8       O        0.48750    0.85890    0.21030    1.000
