# CIF file generated by openbabel 3.1.0, see https://openbabel.org
data_I
_chemical_name_common 'image0'
_cell_length_a 25.645
_cell_length_b 11.555
_cell_length_c 7.012
_cell_angle_alpha 90
_cell_angle_beta 99.982
_cell_angle_gamma 90
_space_group_name_H-M_alt 'P 1'
_space_group_name_Hall 'P 1'
loop_
    _symmetry_equiv_pos_as_xyz
    x,y,z
loop_
    _atom_site_label
    _atom_site_type_symbol
    _atom_site_fract_x
    _atom_site_fract_y
    _atom_site_fract_z
    _atom_site_occupancy
    O1       O        0.56868    0.97568    0.72490    1.000
    C1       C        0.56941    0.07630    0.65580    1.000
    C2       C        0.65686    0.11700    0.84900    1.000
    C3       C        0.62042    0.14090    0.70020    1.000
    C4       C        0.72300    0.27340    0.81570    1.000
    H1       H        0.70540    0.28940    0.69110    1.000
    C5       C        0.70525    0.18390    0.92160    1.000
    C6       C        0.73324    0.16140    0.10480    1.000
    H2       H        0.72240    0.10100    0.17650    1.000
    O2       O        0.53095    0.12764    0.55690    1.000
    H3       H        0.65660    0.06300    0.90700    1.000
    H4       H        0.62500    0.20000    0.63500    1.000
    O3       O        0.06868    0.47568    0.72490    1.000
    C7       C        0.06941    0.57630    0.65580    1.000
    C8       C        0.15686    0.61700    0.84900    1.000
    C9       C        0.12042    0.64090    0.70020    1.000
    C10      C        0.22300    0.77340    0.81570    1.000
    H5       H        0.20540    0.78940    0.69110    1.000
    C11      C        0.20525    0.68390    0.92160    1.000
    C12      C        0.23324    0.66140    0.10480    1.000
    H6       H        0.22240    0.60100    0.17650    1.000
    O4       O        0.03095    0.62764    0.55690    1.000
    H7       H        0.15660    0.56300    0.90700    1.000
    H8       H        0.12500    0.70000    0.63500    1.000
    O5       O        0.43132    0.97568    0.77510    1.000
    C13      C        0.43059    0.07630    0.84420    1.000
    C14      C        0.34314    0.11700    0.65100    1.000
    C15      C        0.37958    0.14090    0.79980    1.000
    C16      C        0.27700    0.27340    0.68430    1.000
    H9       H        0.29460    0.28940    0.80890    1.000
    C17      C        0.29475    0.18390    0.57840    1.000
    C18      C        0.26676    0.16140    0.39520    1.000
    H10      H        0.27760    0.10100    0.32350    1.000
    O6       O        0.46905    0.12764    0.94310    1.000
    H11      H        0.34340    0.06300    0.59300    1.000
    H12      H        0.37500    0.20000    0.86500    1.000
    O7       O        0.93132    0.47568    0.77510    1.000
    C19      C        0.93059    0.57630    0.84420    1.000
    C20      C        0.84314    0.61700    0.65100    1.000
    C21      C        0.87958    0.64090    0.79980    1.000
    C22      C        0.77700    0.77340    0.68430    1.000
    H13      H        0.79460    0.78940    0.80890    1.000
    C23      C        0.79475    0.68390    0.57840    1.000
    C24      C        0.76676    0.66140    0.39520    1.000
    H14      H        0.77760    0.60100    0.32350    1.000
    O8       O        0.96905    0.62764    0.94310    1.000
    H15      H        0.84340    0.56300    0.59300    1.000
    H16      H        0.87500    0.70000    0.86500    1.000
    O9       O        0.43132    0.02432    0.27510    1.000
    C25      C        0.43059    0.92370    0.34420    1.000
    C26      C        0.34314    0.88300    0.15100    1.000
    C27      C        0.37958    0.85910    0.29980    1.000
    C28      C        0.27700    0.72660    0.18430    1.000
    H17      H        0.29460    0.71060    0.30890    1.000
    C29      C        0.29475    0.81610    0.07840    1.000
    C30      C        0.26676    0.83860    0.89520    1.000
    H18      H        0.27760    0.89900    0.82350    1.000
    O10      O        0.46905    0.87236    0.44310    1.000
    H19      H        0.34340    0.93700    0.09300    1.000
    H20      H        0.37500    0.80000    0.36500    1.000
    O11      O        0.93132    0.52432    0.27510    1.000
    C31      C        0.93059    0.42370    0.34420    1.000
    C32      C        0.84314    0.38300    0.15100    1.000
    C33      C        0.87958    0.35910    0.29980    1.000
    C34      C        0.77700    0.22660    0.18430    1.000
    H21      H        0.79460    0.21060    0.30890    1.000
    C35      C        0.79475    0.31610    0.07840    1.000
    C36      C        0.76676    0.33860    0.89520    1.000
    H22      H        0.77760    0.39900    0.82350    1.000
    O12      O        0.96905    0.37236    0.44310    1.000
    H23      H        0.84340    0.43700    0.09300    1.000
    H24      H        0.87500    0.30000    0.36500    1.000
    O13      O        0.56868    0.02432    0.22490    1.000
    C37      C        0.56941    0.92370    0.15580    1.000
    C38      C        0.65686    0.88300    0.34900    1.000
    C39      C        0.62042    0.85910    0.20020    1.000
    C40      C        0.72300    0.72660    0.31570    1.000
    H25      H        0.70540    0.71060    0.19110    1.000
    C41      C        0.70525    0.81610    0.42160    1.000
    C42      C        0.73324    0.83860    0.60480    1.000
    H26      H        0.72240    0.89900    0.67650    1.000
    O14      O        0.53095    0.87236    0.05690    1.000
    H27      H        0.65660    0.93700    0.40700    1.000
    H28      H        0.62500    0.80000    0.13500    1.000
    O15      O        0.06868    0.52432    0.22490    1.000
    C43      C        0.06941    0.42370    0.15580    1.000
    C44      C        0.15686    0.38300    0.34900    1.000
    C45      C        0.12042    0.35910    0.20020    1.000
    C46      C        0.22300    0.22660    0.31570    1.000
    H29      H        0.20540    0.21060    0.19110    1.000
    C47      C        0.20525    0.31610    0.42160    1.000
    C48      C        0.23324    0.33860    0.60480    1.000
    H30      H        0.22240    0.39900    0.67650    1.000
    O16      O        0.03095    0.37236    0.05690    1.000
    H31      H        0.15660    0.43700    0.40700    1.000
    H32      H        0.12500    0.30000    0.13500    1.000
    Co1      Co       0.50000    0.87966    0.75000    1.000
    Co2      Co       0.00000    0.37966    0.75000    1.000
    Co3      Co       0.50000    0.12034    0.25000    1.000
    Co4      Co       0.00000    0.62034    0.25000    1.000
