# CIF file generated by openbabel 3.1.0, see https://openbabel.org
data_I
_chemical_name_common 'image0'
_cell_length_a 7.5987
_cell_length_b 10.0166
_cell_length_c 17.4578
_cell_angle_alpha 90
_cell_angle_beta 90
_cell_angle_gamma 90
_space_group_name_H-M_alt 'P 1'
_space_group_name_Hall 'P 1'
loop_
    _symmetry_equiv_pos_as_xyz
    x,y,z
loop_
    _atom_site_label
    _atom_site_type_symbol
    _atom_site_fract_x
    _atom_site_fract_y
    _atom_site_fract_z
    _atom_site_occupancy
    N1       N        0.20604    0.41247    0.63896    1.000
    N2       N        0.32756    0.59813    0.69395    1.000
    C1       C        0.08357    0.48079    0.67616    1.000
    C2       C        0.36604    0.48374    0.64825    1.000
    N3       N        0.15143    0.59496    0.70966    1.000
    H1       H        0.94353    0.44241    0.67723    1.000
    H2       H        0.49075    0.44421    0.62085    1.000
    N4       N        0.29396    0.58753    0.13896    1.000
    N5       N        0.17244    0.40187    0.19395    1.000
    C3       C        0.41643    0.51921    0.17616    1.000
    C4       C        0.13396    0.51626    0.14825    1.000
    N6       N        0.34857    0.40504    0.20966    1.000
    H3       H        0.55647    0.55759    0.17723    1.000
    H4       H        0.00925    0.55579    0.12085    1.000
    N7       N        0.79396    0.91247    0.36104    1.000
    N8       N        0.67244    0.09813    0.30605    1.000
    C5       C        0.91643    0.98079    0.32384    1.000
    C6       C        0.63396    0.98374    0.35175    1.000
    N9       N        0.84857    0.09496    0.29034    1.000
    H5       H        0.05647    0.94241    0.32277    1.000
    H6       H        0.50925    0.94421    0.37915    1.000
    N10      N        0.70604    0.08753    0.86104    1.000
    N11      N        0.82756    0.90187    0.80605    1.000
    C7       C        0.58357    0.01921    0.82384    1.000
    C8       C        0.86604    0.01626    0.85175    1.000
    N12      N        0.65143    0.90504    0.79034    1.000
    H7       H        0.44353    0.05759    0.82277    1.000
    H8       H        0.99075    0.05579    0.87915    1.000
    N13      N        0.79396    0.58753    0.36104    1.000
    N14      N        0.67244    0.40187    0.30605    1.000
    C9       C        0.91643    0.51921    0.32384    1.000
    C10      C        0.63396    0.51626    0.35175    1.000
    N15      N        0.84857    0.40504    0.29034    1.000
    H9       H        0.05647    0.55759    0.32277    1.000
    H10      H        0.50925    0.55579    0.37915    1.000
    N16      N        0.70604    0.41247    0.86104    1.000
    N17      N        0.82756    0.59813    0.80605    1.000
    C11      C        0.58357    0.48079    0.82384    1.000
    C12      C        0.86604    0.48374    0.85175    1.000
    N18      N        0.65143    0.59496    0.79034    1.000
    H11      H        0.44353    0.44241    0.82277    1.000
    H12      H        0.99075    0.44421    0.87915    1.000
    N19      N        0.20604    0.08753    0.63896    1.000
    N20      N        0.32756    0.90187    0.69395    1.000
    C13      C        0.08357    0.01921    0.67616    1.000
    C14      C        0.36604    0.01626    0.64825    1.000
    N21      N        0.15143    0.90504    0.70966    1.000
    H13      H        0.94353    0.05759    0.67723    1.000
    H14      H        0.49075    0.05579    0.62085    1.000
    N22      N        0.29396    0.91247    0.13896    1.000
    N23      N        0.17244    0.09813    0.19395    1.000
    C15      C        0.41643    0.98079    0.17616    1.000
    C16      C        0.13396    0.98374    0.14825    1.000
    N24      N        0.34857    0.09496    0.20966    1.000
    H15      H        0.55647    0.94241    0.17723    1.000
    H16      H        0.00925    0.94421    0.12085    1.000
    Co1      Co       0.15613    0.25000    0.58217    1.000
    N25      N        0.21997    0.25000    0.47267    1.000
    C17      C        0.38573    0.25000    0.43735    1.000
    H17      H        0.50631    0.25000    0.47225    1.000
    H18      H        0.93543    0.25000    0.43976    1.000
    N26      N        0.16824    0.25000    0.34993    1.000
    N27      N        0.34238    0.25000    0.35874    1.000
    C18      C        0.07276    0.25000    0.41732    1.000
    Co2      Co       0.34387    0.75000    0.08217    1.000
    N28      N        0.28003    0.75000    0.97267    1.000
    C19      C        0.11427    0.75000    0.93735    1.000
    H19      H        0.99369    0.75000    0.97225    1.000
    H20      H        0.56457    0.75000    0.93976    1.000
    N29      N        0.33176    0.75000    0.84993    1.000
    N30      N        0.15762    0.75000    0.85874    1.000
    C20      C        0.42724    0.75000    0.91732    1.000
    Co3      Co       0.84387    0.75000    0.41783    1.000
    N31      N        0.78003    0.75000    0.52733    1.000
    C21      C        0.61427    0.75000    0.56265    1.000
    H21      H        0.49369    0.75000    0.52775    1.000
    H22      H        0.06457    0.75000    0.56024    1.000
    N32      N        0.83176    0.75000    0.65007    1.000
    N33      N        0.65762    0.75000    0.64126    1.000
    C22      C        0.92724    0.75000    0.58268    1.000
    Co4      Co       0.65613    0.25000    0.91783    1.000
    N34      N        0.71997    0.25000    0.02733    1.000
    C23      C        0.88573    0.25000    0.06265    1.000
    H23      H        0.00631    0.25000    0.02775    1.000
    H24      H        0.43543    0.25000    0.06024    1.000
    N35      N        0.66824    0.25000    0.15007    1.000
    N36      N        0.84238    0.25000    0.14126    1.000
    C24      C        0.57276    0.25000    0.08268    1.000
    Co5      Co       0.51066    0.75000    0.74155    1.000
    Co6      Co       0.98934    0.25000    0.24155    1.000
    Co7      Co       0.48934    0.25000    0.25845    1.000
    Co8      Co       0.01066    0.75000    0.75845    1.000
