data_functionalizedCrystal
_audit_creation_method	'EQeq! by Chris Wilmer'
_symmetry_space_group_name_H-M	'P1'
_symmetry_Int_Tables_number	1
_symmetry_cell_setting	triclinic
loop_
_symmetry_equiv_pos_as_xyz
  x,y,z
_cell_length_a	16.632
_cell_length_b	17.391
_cell_length_c	15.685
_cell_angle_alpha	90
_cell_angle_beta	90
_cell_angle_gamma	90
loop_
_atom_site_label
_atom_site_type_symbol
_atom_site_fract_x
_atom_site_fract_y
_atom_site_fract_z
_atom_site_charge
Mof_Cd	Cd	0.1198	0.3544	0.5622	0.275
Mof_Cd	Cd	0.2921	0.1229	0.3999	0.306
Mof_C 	C 	0.162	0.465	0.503	-0.07
Mof_C 	C 	0.422	0.167	0.437	-0.051
Mof_C 	C 	0.162	0.35	0.696	-0.072
Mof_C 	C 	0.23	0.216	0.47	-0.066
Mof_C 	C 	0.188	0.259	0.505	-0.075
Mof_C 	C 	0.487	0.165	0.44	-0.079
Mof_C 	C 	0.319	0.141	0.266	-0.069
Mof_C 	C 	0.318	0.021	0.475	-0.068
Mof_N 	N 	0.169	0.068	0.358	-0.137
Mof_C 	C 	0.112	0.054	0.319	-0.032
Mof_Cd	Cd	0.3802	0.1456	0.0622	0.283
Mof_Cd	Cd	0.2079	0.3771	0.8999	0.304
Mof_C 	C 	0.338	0.035	0.003	-0.069
Mof_C 	C 	0.078	0.333	0.937	-0.049
Mof_C 	C 	0.338	0.15	0.196	-0.07
Mof_C 	C 	0.27	0.284	0.97	-0.065
Mof_C 	C 	0.312	0.241	0.005	-0.074
Mof_C 	C 	0.013	0.335	0.94	-0.092
Mof_C 	C 	0.181	0.359	0.766	-0.07
Mof_C 	C 	0.182	0.479	0.975	-0.067
Mof_N 	N 	0.331	0.432	0.858	-0.137
Mof_C 	C 	0.388	0.446	0.819	-0.03
Mof_Cd	Cd	0.8802	0.3544	0.9378	0.293
Mof_Cd	Cd	0.7079	0.1229	0.1001	0.307
Mof_C 	C 	0.838	0.465	0.997	-0.066
Mof_C 	C 	0.578	0.167	0.063	-0.051
Mof_C 	C 	0.838	0.35	0.804	-0.067
Mof_C 	C 	0.77	0.216	0.03	-0.063
Mof_C 	C 	0.812	0.259	0.995	-0.071
Mof_C 	C 	0.513	0.165	0.06	-0.079
Mof_C 	C 	0.681	0.141	0.234	-0.068
Mof_C 	C 	0.682	0.021	0.025	-0.066
Mof_N 	N 	0.831	0.068	0.142	-0.137
Mof_C 	C 	0.888	0.054	0.181	-0.017
Mof_Cd	Cd	0.6198	0.1456	0.4378	0.284
Mof_Cd	Cd	0.7921	0.3771	0.6001	0.308
Mof_C 	C 	0.662	0.035	0.497	-0.067
Mof_C 	C 	0.922	0.333	0.563	-0.053
Mof_C 	C 	0.662	0.15	0.304	-0.069
Mof_C 	C 	0.73	0.284	0.53	-0.064
Mof_C 	C 	0.688	0.241	0.495	-0.072
Mof_C 	C 	0.987	0.335	0.56	-0.063
Mof_C 	C 	0.819	0.359	0.734	-0.067
Mof_C 	C 	0.818	0.479	0.525	-0.066
Mof_N 	N 	0.669	0.432	0.642	-0.136
Mof_C 	C 	0.612	0.446	0.681	-0.029
Mof_Cd	Cd	0.8802	0.6456	0.4378	0.293
Mof_Cd	Cd	0.7079	0.8771	0.6001	0.308
Mof_C 	C 	0.838	0.535	0.497	-0.065
Mof_C 	C 	0.578	0.833	0.563	-0.051
Mof_C 	C 	0.838	0.65	0.304	-0.067
Mof_C 	C 	0.77	0.784	0.53	-0.064
Mof_C 	C 	0.812	0.741	0.495	-0.07
Mof_C 	C 	0.513	0.835	0.56	-0.079
Mof_C 	C 	0.681	0.859	0.734	-0.068
Mof_C 	C 	0.682	0.979	0.525	-0.067
Mof_N 	N 	0.831	0.932	0.642	-0.137
Mof_C 	C 	0.888	0.946	0.681	-0.018
Mof_Cd	Cd	0.6198	0.8544	0.9378	0.284
Mof_Cd	Cd	0.7921	0.6229	0.1001	0.308
Mof_C 	C 	0.662	0.965	0.997	-0.067
Mof_C 	C 	0.922	0.667	0.063	-0.053
Mof_C 	C 	0.662	0.85	0.804	-0.069
Mof_C 	C 	0.73	0.716	0.03	-0.064
Mof_C 	C 	0.688	0.759	0.995	-0.072
Mof_C 	C 	0.987	0.665	0.06	-0.063
Mof_C 	C 	0.819	0.641	0.234	-0.067
Mof_C 	C 	0.818	0.521	0.025	-0.066
Mof_N 	N 	0.669	0.568	0.142	-0.136
Mof_C 	C 	0.612	0.554	0.181	-0.029
Mof_Cd	Cd	0.1198	0.6456	0.0622	0.274
Mof_Cd	Cd	0.2921	0.8771	0.8999	0.305
Mof_C 	C 	0.162	0.535	0.003	-0.071
Mof_C 	C 	0.422	0.833	0.937	-0.051
Mof_C 	C 	0.162	0.65	0.196	-0.072
Mof_C 	C 	0.23	0.784	0.97	-0.065
Mof_C 	C 	0.188	0.741	0.005	-0.076
Mof_C 	C 	0.487	0.835	0.94	-0.079
Mof_C 	C 	0.319	0.859	0.766	-0.069
Mof_C 	C 	0.318	0.979	0.975	-0.067
Mof_N 	N 	0.169	0.932	0.858	-0.137
Mof_C 	C 	0.112	0.946	0.819	-0.032
Mof_Cd	Cd	0.3802	0.8544	0.5622	0.283
Mof_Cd	Cd	0.2079	0.6229	0.3999	0.304
Mof_C 	C 	0.338	0.965	0.503	-0.068
Mof_C 	C 	0.078	0.667	0.437	-0.049
Mof_C 	C 	0.338	0.85	0.696	-0.07
Mof_C 	C 	0.27	0.716	0.47	-0.066
Mof_C 	C 	0.312	0.759	0.505	-0.073
Mof_C 	C 	0.013	0.665	0.44	-0.093
Mof_C 	C 	0.181	0.641	0.266	-0.07
Mof_C 	C 	0.182	0.521	0.475	-0.069
Mof_N 	N 	0.331	0.568	0.358	-0.137
Mof_C 	C 	0.388	0.554	0.319	-0.03
Mof_Cd	Cd	-1.89808e-33	0.0475	0.25	0.22
Mof_Cd	Cd	0.5	0.4525	0.75	0.235
Mof_Cd	Cd	-2.91219e-33	0.9525	0.75	0.22
Mof_Cd	Cd	0.5	0.5475	0.25	0.235
_end
