data_functionalizedCrystal
_audit_creation_method	'EQeq! by Chris Wilmer'
_symmetry_space_group_name_H-M	'P1'
_symmetry_Int_Tables_number	1
_symmetry_cell_setting	triclinic
loop_
_symmetry_equiv_pos_as_xyz
  x,y,z
_cell_length_a	14.5779
_cell_length_b	14.5779
_cell_length_c	36.7061
_cell_angle_alpha	90
_cell_angle_beta	90
_cell_angle_gamma	90
loop_
_atom_site_label
_atom_site_type_symbol
_atom_site_fract_x
_atom_site_fract_y
_atom_site_fract_z
_atom_site_charge
Mof_La	La	0.13813	0.73894	0.09424	2.106
Mof_La	La	0.86187	0.26106	0.59424	2.107
Mof_La	La	0.76106	0.63813	0.34424	2.107
Mof_La	La	0.23894	0.36187	0.84424	2.107
Mof_La	La	0.36187	0.23894	0.15576	2.107
Mof_La	La	0.63813	0.76106	0.65576	2.107
Mof_La	La	0.73894	0.13813	0.90576	2.106
Mof_La	La	0.26106	0.86187	0.40576	2.107
Mof_H 	H 	0.3124	0.6632	0.1568	0.378
Mof_H 	H 	0.3413	0.6929	0.1962	0.353
Mof_H 	H 	0.2986	0.5956	0.1896	0.348
Mof_H 	H 	0.2051	0.669	0.2418	0.24
Mof_H 	H 	0.0035	0.764	0.2787	0.381
Mof_H 	H 	0.0606	0.6738	0.2839	0.346
Mof_H 	H 	0.1082	0.7696	0.2883	0.368
Mof_H 	H 	0.9248	0.8135	0.2437	0.014
Mof_H 	H 	0.9525	0.9402	0.2059	0.095
Mof_H 	H 	0.9268	0.8829	0.1712	0.107
Mof_H 	H 	0.7998	0.9739	0.1881	0.027
Mof_H 	H 	0.8001	0.9302	0.2272	0.043
Mof_H 	H 	0.6874	0.8608	0.1917	0.014
Mof_H 	H 	0.7612	0.833	0.1626	0.056
Mof_H 	H 	0.883	0.7091	0.1804	0.023
Mof_H 	H 	0.307	0.8892	0.0532	0.383
Mof_H 	H 	0.3318	0.9034	0.012	0.363
Mof_H 	H 	0.2979	0.9866	0.0355	0.347
Mof_H 	H 	0.1932	0.9826	0.9771	0.236
Mof_H 	H 	0.9761	0.9572	0.9367	0.36
Mof_H 	H 	0.042	0.0392	0.9457	0.328
Mof_H 	H 	0.0776	0.9559	0.9227	0.342
Mof_H 	H 	0.8981	0.8766	0.9617	0.019
Mof_H 	H 	0.9228	0.7218	0.9698	0.072
Mof_H 	H 	0.9126	0.7309	0.0122	0.083
Mof_H 	H 	0.7772	0.6702	0.9889	0.034
Mof_H 	H 	0.7675	0.7527	0.9617	0.054
Mof_H 	H 	0.9184	0.4448	0.3339	0.386
Mof_H 	H 	0.9298	0.3761	0.3014	0.39
Mof_H 	H 	0.0131	0.4363	0.3139	0.363
Mof_H 	H 	0.9933	0.4584	0.2433	0.246
Mof_H 	H 	0.9569	0.6039	0.1687	0.331
Mof_H 	H 	0.0415	0.5543	0.1862	0.3
Mof_H 	H 	0.9544	0.4976	0.1752	0.31
Mof_H 	H 	0.7523	0.7612	0.2343	0.077
Mof_H 	H 	0.7297	0.7054	0.1988	0.069
Mof_H 	H 	0.0502	0.7825	0.19	0.179
Mof_H 	H 	0.0332	0.8395	0.011	0.174
Mof_H 	H 	0.8543	0.6427	0.2488	0.173
Mof_H 	H 	0.6876	0.3368	0.6568	0.377
Mof_H 	H 	0.6587	0.3071	0.6962	0.352
Mof_H 	H 	0.7014	0.4044	0.6896	0.348
Mof_H 	H 	0.7949	0.331	0.7418	0.24
Mof_H 	H 	0.9965	0.236	0.7787	0.381
Mof_H 	H 	0.9394	0.3262	0.7839	0.346
Mof_H 	H 	0.8918	0.2304	0.7883	0.368
Mof_H 	H 	0.0752	0.1865	0.7437	0.015
Mof_H 	H 	0.0475	0.0598	0.7059	0.094
Mof_H 	H 	0.0732	0.1171	0.6712	0.107
Mof_H 	H 	0.2002	0.0261	0.6881	0.027
Mof_H 	H 	0.1999	0.0698	0.7272	0.043
Mof_H 	H 	0.3126	0.1392	0.6917	0.014
Mof_H 	H 	0.2388	0.167	0.6626	0.056
Mof_H 	H 	0.117	0.2909	0.6804	0.023
Mof_H 	H 	0.693	0.1108	0.5532	0.385
Mof_H 	H 	0.6682	0.0966	0.512	0.365
Mof_H 	H 	0.7021	0.0134	0.5355	0.349
Mof_H 	H 	0.8068	0.0174	0.4771	0.238
Mof_H 	H 	0.0239	0.0428	0.4367	0.363
Mof_H 	H 	0.958	0.9608	0.4457	0.332
Mof_H 	H 	0.9224	0.0441	0.4227	0.345
Mof_H 	H 	0.1019	0.1234	0.4617	0.019
Mof_H 	H 	0.0772	0.2782	0.4698	0.072
Mof_H 	H 	0.0874	0.2691	0.5122	0.083
Mof_H 	H 	0.2228	0.3298	0.4889	0.034
Mof_H 	H 	0.2325	0.2473	0.4617	0.054
Mof_H 	H 	0.0816	0.5552	0.8339	0.386
Mof_H 	H 	0.0702	0.6239	0.8014	0.39
Mof_H 	H 	0.9869	0.5637	0.8139	0.363
Mof_H 	H 	0.0067	0.5416	0.7433	0.246
Mof_H 	H 	0.0431	0.3961	0.6687	0.331
Mof_H 	H 	0.9585	0.4457	0.6862	0.301
Mof_H 	H 	0.0456	0.5024	0.6752	0.311
Mof_H 	H 	0.2477	0.2388	0.7343	0.077
Mof_H 	H 	0.2703	0.2946	0.6988	0.069
Mof_H 	H 	0.9498	0.2175	0.69	0.179
Mof_H 	H 	0.9668	0.1605	0.511	0.176
Mof_H 	H 	0.1457	0.3573	0.7488	0.173
Mof_H 	H 	0.8368	0.8124	0.4068	0.377
Mof_H 	H 	0.8071	0.8413	0.4462	0.352
Mof_H 	H 	0.9044	0.7986	0.4396	0.348
Mof_H 	H 	0.831	0.7051	0.4918	0.24
Mof_H 	H 	0.736	0.5035	0.5287	0.382
Mof_H 	H 	0.8262	0.5606	0.5339	0.347
Mof_H 	H 	0.7304	0.6082	0.5383	0.369
Mof_H 	H 	0.6865	0.4248	0.4937	0.015
Mof_H 	H 	0.5598	0.4525	0.4559	0.095
Mof_H 	H 	0.6171	0.4268	0.4212	0.107
Mof_H 	H 	0.5261	0.2998	0.4381	0.028
Mof_H 	H 	0.5698	0.3001	0.4772	0.044
Mof_H 	H 	0.6392	0.1874	0.4417	0.014
Mof_H 	H 	0.667	0.2612	0.4126	0.056
Mof_H 	H 	0.7909	0.383	0.4304	0.023
Mof_H 	H 	0.6108	0.807	0.3032	0.386
Mof_H 	H 	0.5966	0.8318	0.262	0.365
Mof_H 	H 	0.5134	0.7979	0.2855	0.35
Mof_H 	H 	0.5174	0.6932	0.2271	0.24
Mof_H 	H 	0.5428	0.4761	0.1867	0.38
Mof_H 	H 	0.4608	0.542	0.1957	0.348
Mof_H 	H 	0.5441	0.5776	0.1727	0.357
Mof_H 	H 	0.6234	0.3981	0.2117	0.018
Mof_H 	H 	0.7782	0.4228	0.2198	0.073
Mof_H 	H 	0.7691	0.4126	0.2622	0.083
Mof_H 	H 	0.8298	0.2772	0.2389	0.036
Mof_H 	H 	0.7473	0.2675	0.2117	0.055
Mof_H 	H 	0.0552	0.4184	0.5839	0.391
Mof_H 	H 	0.1239	0.4298	0.5514	0.395
Mof_H 	H 	0.0637	0.5131	0.5639	0.371
Mof_H 	H 	0.0416	0.4933	0.4933	0.245
Mof_H 	H 	0.8961	0.4569	0.4187	0.332
Mof_H 	H 	0.9457	0.5415	0.4362	0.304
Mof_H 	H 	0.0024	0.4544	0.4252	0.31
Mof_H 	H 	0.7388	0.2523	0.4843	0.077
Mof_H 	H 	0.7946	0.2297	0.4488	0.07
Mof_H 	H 	0.7175	0.5502	0.44	0.18
Mof_H 	H 	0.6605	0.5332	0.261	0.177
Mof_H 	H 	0.8573	0.3543	0.4988	0.173
Mof_H 	H 	0.1632	0.1876	0.9068	0.377
Mof_H 	H 	0.1929	0.1587	0.9462	0.352
Mof_H 	H 	0.0956	0.2014	0.9396	0.349
Mof_H 	H 	0.169	0.2949	0.9918	0.241
Mof_H 	H 	0.264	0.4965	0.0287	0.382
Mof_H 	H 	0.1738	0.4394	0.0339	0.347
Mof_H 	H 	0.2696	0.3918	0.0383	0.369
Mof_H 	H 	0.3135	0.5752	0.9937	0.015
Mof_H 	H 	0.4402	0.5475	0.9559	0.095
Mof_H 	H 	0.3829	0.5732	0.9212	0.107
Mof_H 	H 	0.4739	0.7002	0.9381	0.028
Mof_H 	H 	0.4302	0.6999	0.9772	0.045
Mof_H 	H 	0.3608	0.8126	0.9417	0.015
Mof_H 	H 	0.333	0.7388	0.9126	0.056
Mof_H 	H 	0.2091	0.617	0.9304	0.023
Mof_H 	H 	0.3892	0.193	0.8032	0.386
Mof_H 	H 	0.4034	0.1682	0.762	0.365
Mof_H 	H 	0.4866	0.2021	0.7855	0.35
Mof_H 	H 	0.4826	0.3068	0.7271	0.24
Mof_H 	H 	0.4572	0.5239	0.6867	0.38
Mof_H 	H 	0.5392	0.458	0.6957	0.348
Mof_H 	H 	0.4559	0.4224	0.6727	0.357
Mof_H 	H 	0.3766	0.6019	0.7117	0.018
Mof_H 	H 	0.2218	0.5772	0.7198	0.073
Mof_H 	H 	0.2309	0.5874	0.7622	0.083
Mof_H 	H 	0.1702	0.7228	0.7389	0.036
Mof_H 	H 	0.2527	0.7325	0.7117	0.055
Mof_H 	H 	0.9448	0.5816	0.0839	0.389
Mof_H 	H 	0.8761	0.5702	0.0514	0.393
Mof_H 	H 	0.9363	0.4869	0.0639	0.369
Mof_H 	H 	0.9584	0.5067	0.9933	0.242
Mof_H 	H 	0.1039	0.5431	0.9187	0.331
Mof_H 	H 	0.0543	0.4585	0.9362	0.302
Mof_H 	H 	0.9976	0.5456	0.9252	0.308
Mof_H 	H 	0.2612	0.7477	0.9843	0.078
Mof_H 	H 	0.2054	0.7703	0.9488	0.07
Mof_H 	H 	0.2825	0.4498	0.94	0.18
Mof_H 	H 	0.3395	0.4668	0.761	0.177
Mof_H 	H 	0.1427	0.6457	0.9988	0.173
Mof_H 	H 	0.1876	0.1632	0.0932	0.377
Mof_H 	H 	0.1587	0.1929	0.0538	0.352
Mof_H 	H 	0.2014	0.0956	0.0604	0.349
Mof_H 	H 	0.2949	0.169	0.0082	0.241
Mof_H 	H 	0.4965	0.264	0.9713	0.382
Mof_H 	H 	0.4394	0.1738	0.9661	0.347
Mof_H 	H 	0.3918	0.2696	0.9617	0.369
Mof_H 	H 	0.5752	0.3135	0.0063	0.015
Mof_H 	H 	0.5475	0.4402	0.0441	0.095
Mof_H 	H 	0.5732	0.3829	0.0788	0.107
Mof_H 	H 	0.7002	0.4739	0.0619	0.028
Mof_H 	H 	0.6999	0.4302	0.0228	0.045
Mof_H 	H 	0.8126	0.3608	0.0583	0.015
Mof_H 	H 	0.7388	0.333	0.0874	0.056
Mof_H 	H 	0.617	0.2091	0.0696	0.023
Mof_H 	H 	0.193	0.3892	0.1968	0.386
Mof_H 	H 	0.1682	0.4034	0.238	0.365
Mof_H 	H 	0.2021	0.4866	0.2145	0.35
Mof_H 	H 	0.3068	0.4826	0.2729	0.24
Mof_H 	H 	0.5239	0.4572	0.3133	0.38
Mof_H 	H 	0.458	0.5392	0.3043	0.348
Mof_H 	H 	0.4224	0.4559	0.3273	0.357
Mof_H 	H 	0.6019	0.3766	0.2883	0.018
Mof_H 	H 	0.5772	0.2218	0.2802	0.073
Mof_H 	H 	0.5874	0.2309	0.2378	0.083
Mof_H 	H 	0.7228	0.1702	0.2611	0.036
Mof_H 	H 	0.7325	0.2527	0.2883	0.055
Mof_H 	H 	0.5816	0.9448	0.9161	0.389
Mof_H 	H 	0.5702	0.8761	0.9486	0.393
Mof_H 	H 	0.4869	0.9363	0.9361	0.369
Mof_H 	H 	0.5067	0.9584	0.0067	0.242
Mof_H 	H 	0.5431	0.1039	0.0813	0.331
Mof_H 	H 	0.4585	0.0543	0.0638	0.302
Mof_H 	H 	0.5456	0.9976	0.0748	0.308
Mof_H 	H 	0.7477	0.2612	0.0157	0.078
Mof_H 	H 	0.7703	0.2054	0.0512	0.07
Mof_H 	H 	0.4498	0.2825	0.06	0.18
Mof_H 	H 	0.4668	0.3395	0.239	0.177
Mof_H 	H 	0.6457	0.1427	0.0012	0.173
Mof_H 	H 	0.8124	0.8368	0.5932	0.377
Mof_H 	H 	0.8413	0.8071	0.5538	0.352
Mof_H 	H 	0.7986	0.9044	0.5604	0.348
Mof_H 	H 	0.7051	0.831	0.5082	0.24
Mof_H 	H 	0.5035	0.736	0.4713	0.382
Mof_H 	H 	0.5606	0.8262	0.4661	0.347
Mof_H 	H 	0.6082	0.7304	0.4617	0.369
Mof_H 	H 	0.4248	0.6865	0.5063	0.015
Mof_H 	H 	0.4525	0.5598	0.5441	0.095
Mof_H 	H 	0.4268	0.6171	0.5788	0.107
Mof_H 	H 	0.2998	0.5261	0.5619	0.028
Mof_H 	H 	0.3001	0.5698	0.5228	0.044
Mof_H 	H 	0.1874	0.6392	0.5583	0.014
Mof_H 	H 	0.2612	0.667	0.5874	0.056
Mof_H 	H 	0.383	0.7909	0.5696	0.023
Mof_H 	H 	0.807	0.6108	0.6968	0.386
Mof_H 	H 	0.8318	0.5966	0.738	0.365
Mof_H 	H 	0.7979	0.5134	0.7145	0.35
Mof_H 	H 	0.6932	0.5174	0.7729	0.24
Mof_H 	H 	0.4761	0.5428	0.8133	0.38
Mof_H 	H 	0.542	0.4608	0.8043	0.348
Mof_H 	H 	0.5776	0.5441	0.8273	0.357
Mof_H 	H 	0.3981	0.6234	0.7883	0.018
Mof_H 	H 	0.4228	0.7782	0.7802	0.073
Mof_H 	H 	0.4126	0.7691	0.7378	0.083
Mof_H 	H 	0.2772	0.8298	0.7611	0.036
Mof_H 	H 	0.2675	0.7473	0.7883	0.055
Mof_H 	H 	0.4184	0.0552	0.4161	0.391
Mof_H 	H 	0.4298	0.1239	0.4486	0.395
Mof_H 	H 	0.5131	0.0637	0.4361	0.371
Mof_H 	H 	0.4933	0.0416	0.5067	0.245
Mof_H 	H 	0.4569	0.8961	0.5813	0.332
Mof_H 	H 	0.5415	0.9457	0.5638	0.304
Mof_H 	H 	0.4544	0.0024	0.5748	0.31
Mof_H 	H 	0.2523	0.7388	0.5157	0.077
Mof_H 	H 	0.2297	0.7946	0.5512	0.07
Mof_H 	H 	0.5502	0.7175	0.56	0.18
Mof_H 	H 	0.5332	0.6605	0.739	0.177
Mof_H 	H 	0.3543	0.8573	0.5012	0.173
Mof_H 	H 	0.6632	0.3124	0.8432	0.377
Mof_H 	H 	0.6929	0.3413	0.8038	0.352
Mof_H 	H 	0.5956	0.2986	0.8104	0.348
Mof_H 	H 	0.669	0.2051	0.7582	0.24
Mof_H 	H 	0.764	0.0035	0.7213	0.381
Mof_H 	H 	0.6738	0.0606	0.7161	0.346
Mof_H 	H 	0.7696	0.1082	0.7117	0.368
Mof_H 	H 	0.8135	0.9248	0.7563	0.014
Mof_H 	H 	0.9402	0.9525	0.7941	0.095
Mof_H 	H 	0.8829	0.9268	0.8288	0.107
Mof_H 	H 	0.9739	0.7998	0.8119	0.027
Mof_H 	H 	0.9302	0.8001	0.7728	0.043
Mof_H 	H 	0.8608	0.6874	0.8083	0.014
Mof_H 	H 	0.833	0.7612	0.8374	0.056
Mof_H 	H 	0.7091	0.883	0.8196	0.023
Mof_H 	H 	0.8892	0.307	0.9468	0.383
Mof_H 	H 	0.9034	0.3318	0.988	0.363
Mof_H 	H 	0.9866	0.2979	0.9645	0.347
Mof_H 	H 	0.9826	0.1932	0.0229	0.236
Mof_H 	H 	0.9572	0.9761	0.0633	0.36
Mof_H 	H 	0.0392	0.042	0.0543	0.328
Mof_H 	H 	0.9559	0.0776	0.0773	0.342
Mof_H 	H 	0.8766	0.8981	0.0383	0.019
Mof_H 	H 	0.7218	0.9228	0.0302	0.072
Mof_H 	H 	0.7309	0.9126	0.9878	0.083
Mof_H 	H 	0.6702	0.7772	0.0111	0.034
Mof_H 	H 	0.7527	0.7675	0.0383	0.054
Mof_H 	H 	0.4448	0.9184	0.6661	0.386
Mof_H 	H 	0.3761	0.9298	0.6986	0.39
Mof_H 	H 	0.4363	0.0131	0.6861	0.363
Mof_H 	H 	0.4584	0.9933	0.7567	0.246
Mof_H 	H 	0.6039	0.9569	0.8313	0.331
Mof_H 	H 	0.5543	0.0415	0.8138	0.3
Mof_H 	H 	0.4976	0.9544	0.8248	0.31
Mof_H 	H 	0.7612	0.7523	0.7657	0.077
Mof_H 	H 	0.7054	0.7297	0.8012	0.069
Mof_H 	H 	0.7825	0.0502	0.81	0.179
Mof_H 	H 	0.8395	0.0332	0.989	0.174
Mof_H 	H 	0.6427	0.8543	0.7512	0.173
Mof_H 	H 	0.3368	0.6876	0.3432	0.377
Mof_H 	H 	0.3071	0.6587	0.3038	0.352
Mof_H 	H 	0.4044	0.7014	0.3104	0.348
Mof_H 	H 	0.331	0.7949	0.2582	0.24
Mof_H 	H 	0.236	0.9965	0.2213	0.381
Mof_H 	H 	0.3262	0.9394	0.2161	0.346
Mof_H 	H 	0.2304	0.8918	0.2117	0.368
Mof_H 	H 	0.1865	0.0752	0.2563	0.015
Mof_H 	H 	0.0598	0.0475	0.2941	0.094
Mof_H 	H 	0.1171	0.0732	0.3288	0.107
Mof_H 	H 	0.0261	0.2002	0.3119	0.027
Mof_H 	H 	0.0698	0.1999	0.2728	0.043
Mof_H 	H 	0.1392	0.3126	0.3083	0.014
Mof_H 	H 	0.167	0.2388	0.3374	0.056
Mof_H 	H 	0.2909	0.117	0.3196	0.023
Mof_H 	H 	0.1108	0.693	0.4468	0.385
Mof_H 	H 	0.0966	0.6682	0.488	0.365
Mof_H 	H 	0.0134	0.7021	0.4645	0.349
Mof_H 	H 	0.0174	0.8068	0.5229	0.238
Mof_H 	H 	0.0428	0.0239	0.5633	0.363
Mof_H 	H 	0.9608	0.958	0.5543	0.332
Mof_H 	H 	0.0441	0.9224	0.5773	0.345
Mof_H 	H 	0.1234	0.1019	0.5383	0.019
Mof_H 	H 	0.2782	0.0772	0.5302	0.072
Mof_H 	H 	0.2691	0.0874	0.4878	0.083
Mof_H 	H 	0.3298	0.2228	0.5111	0.034
Mof_H 	H 	0.2473	0.2325	0.5383	0.054
Mof_H 	H 	0.5552	0.0816	0.1661	0.386
Mof_H 	H 	0.6239	0.0702	0.1986	0.39
Mof_H 	H 	0.5637	0.9869	0.1861	0.363
Mof_H 	H 	0.5416	0.0067	0.2567	0.246
Mof_H 	H 	0.3961	0.0431	0.3313	0.331
Mof_H 	H 	0.4457	0.9585	0.3138	0.301
Mof_H 	H 	0.5024	0.0456	0.3248	0.311
Mof_H 	H 	0.2388	0.2477	0.2657	0.077
Mof_H 	H 	0.2946	0.2703	0.3012	0.069
Mof_H 	H 	0.2175	0.9498	0.31	0.179
Mof_H 	H 	0.1605	0.9668	0.489	0.176
Mof_H 	H 	0.3573	0.1457	0.2512	0.173
Mof_C 	C 	0.2974	0.6588	0.18221	-1.2
Mof_C 	C 	0.20268	0.69761	0.18852	0.691
Mof_C 	C 	0.16928	0.6972	0.22405	-0.713
Mof_C 	C 	0.08562	0.7359	0.23521	0.554
Mof_C 	C 	0.0624	0.7358	0.27518	-1.12
Mof_C 	C 	0.93367	0.8023	0.21765	0.076
Mof_C 	C 	0.9135	0.8914	0.19683	-0.19
Mof_C 	C 	0.8124	0.9182	0.20166	-0.049
Mof_C 	C 	0.7509	0.8427	0.18846	-0.072
Mof_C 	C 	0.8697	0.7249	0.20576	0.051
Mof_C 	C 	0.2915	0.9219	0.03137	-1.204
Mof_C 	C 	0.19421	0.90071	0.02098	0.691
Mof_C 	C 	0.1564	0.9418	0.98995	-0.695
Mof_C 	C 	0.06777	0.92645	0.97677	0.539
Mof_C 	C 	0.0382	0.974	0.94236	-1.06
Mof_C 	C 	0.9123	0.8556	0.98641	0.061
Mof_C 	C 	0.8906	0.7542	0.98905	-0.162
Mof_C 	C 	0.7885	0.7353	0.98578	-0.067
Mof_C 	C 	0.9477	0.4348	0.31084	-1.242
Mof_C 	C 	0.91936	0.50844	0.28481	0.71
Mof_C 	C 	0.95428	0.50658	0.24926	-0.697
Mof_C 	C 	0.93573	0.57065	0.22201	0.523
Mof_C 	C 	0.9758	0.5552	0.18463	-1.013
Mof_C 	C 	0.7683	0.7534	0.20885	-0.154
Mof_C 	C 	0.7026	0.3412	0.68221	-1.2
Mof_C 	C 	0.79732	0.30239	0.68852	0.691
Mof_C 	C 	0.83072	0.3028	0.72405	-0.713
Mof_C 	C 	0.91438	0.2641	0.73521	0.554
Mof_C 	C 	0.9376	0.2642	0.77518	-1.12
Mof_C 	C 	0.06633	0.1977	0.71765	0.076
Mof_C 	C 	0.0865	0.1086	0.69683	-0.189
Mof_C 	C 	0.1876	0.0818	0.70166	-0.049
Mof_C 	C 	0.2491	0.1573	0.68846	-0.071
Mof_C 	C 	0.1303	0.2751	0.70576	0.051
Mof_C 	C 	0.7085	0.0781	0.53137	-1.209
Mof_C 	C 	0.80579	0.09929	0.52098	0.696
Mof_C 	C 	0.8436	0.0582	0.48995	-0.701
Mof_C 	C 	0.93223	0.07355	0.47677	0.543
Mof_C 	C 	0.9618	0.026	0.44236	-1.071
Mof_C 	C 	0.0877	0.1444	0.48641	0.061
Mof_C 	C 	0.1094	0.2458	0.48905	-0.161
Mof_C 	C 	0.2115	0.2647	0.48578	-0.067
Mof_C 	C 	0.0523	0.5652	0.81084	-1.242
Mof_C 	C 	0.08064	0.49156	0.78481	0.71
Mof_C 	C 	0.04572	0.49342	0.74926	-0.698
Mof_C 	C 	0.06427	0.42935	0.72201	0.524
Mof_C 	C 	0.0242	0.4448	0.68463	-1.015
Mof_C 	C 	0.2317	0.2466	0.70885	-0.154
Mof_C 	C 	0.8412	0.7974	0.43221	-1.199
Mof_C 	C 	0.80239	0.70268	0.43852	0.691
Mof_C 	C 	0.8028	0.66928	0.47405	-0.713
Mof_C 	C 	0.7641	0.58562	0.48521	0.554
Mof_C 	C 	0.7642	0.5624	0.52518	-1.122
Mof_C 	C 	0.6977	0.43367	0.46765	0.075
Mof_C 	C 	0.6086	0.4135	0.44683	-0.188
Mof_C 	C 	0.5818	0.3124	0.45166	-0.05
Mof_C 	C 	0.6573	0.2509	0.43846	-0.07
Mof_C 	C 	0.7751	0.3697	0.45576	0.052
Mof_C 	C 	0.5781	0.7915	0.28137	-1.213
Mof_C 	C 	0.59929	0.69421	0.27098	0.7
Mof_C 	C 	0.5582	0.6564	0.23995	-0.711
Mof_C 	C 	0.57355	0.56777	0.22677	0.556
Mof_C 	C 	0.526	0.5382	0.19236	-1.117
Mof_C 	C 	0.6444	0.4123	0.23641	0.064
Mof_C 	C 	0.7458	0.3906	0.23905	-0.162
Mof_C 	C 	0.7647	0.2885	0.23578	-0.067
Mof_C 	C 	0.0652	0.4477	0.56084	-1.26
Mof_C 	C 	0.99156	0.41936	0.53481	0.715
Mof_C 	C 	0.99342	0.45428	0.49926	-0.701
Mof_C 	C 	0.92935	0.43573	0.47201	0.526
Mof_C 	C 	0.9448	0.4758	0.43463	-1.019
Mof_C 	C 	0.7466	0.2683	0.45885	-0.155
Mof_C 	C 	0.1588	0.2026	0.93221	-1.2
Mof_C 	C 	0.19761	0.29732	0.93852	0.691
Mof_C 	C 	0.1972	0.33072	0.97405	-0.713
Mof_C 	C 	0.2359	0.41438	0.98521	0.555
Mof_C 	C 	0.2358	0.4376	0.02518	-1.123
Mof_C 	C 	0.3023	0.56633	0.96765	0.075
Mof_C 	C 	0.3914	0.5865	0.94683	-0.188
Mof_C 	C 	0.4182	0.6876	0.95166	-0.051
Mof_C 	C 	0.3427	0.7491	0.93846	-0.07
Mof_C 	C 	0.2249	0.6303	0.95576	0.052
Mof_C 	C 	0.4219	0.2085	0.78137	-1.213
Mof_C 	C 	0.40071	0.30579	0.77098	0.7
Mof_C 	C 	0.4418	0.3436	0.73995	-0.711
Mof_C 	C 	0.42645	0.43223	0.72677	0.556
Mof_C 	C 	0.474	0.4618	0.69236	-1.117
Mof_C 	C 	0.3556	0.5877	0.73641	0.064
Mof_C 	C 	0.2542	0.6094	0.73905	-0.162
Mof_C 	C 	0.2353	0.7115	0.73578	-0.067
Mof_C 	C 	0.9348	0.5523	0.06084	-1.253
Mof_C 	C 	0.00844	0.58064	0.03481	0.709
Mof_C 	C 	0.00658	0.54572	0.99926	-0.694
Mof_C 	C 	0.07065	0.56427	0.97201	0.522
Mof_C 	C 	0.0552	0.5242	0.93463	-1.013
Mof_C 	C 	0.2534	0.7317	0.95885	-0.155
Mof_C 	C 	0.2026	0.1588	0.06779	-1.2
Mof_C 	C 	0.29732	0.19761	0.06148	0.691
Mof_C 	C 	0.33072	0.1972	0.02595	-0.713
Mof_C 	C 	0.41438	0.2359	0.01479	0.555
Mof_C 	C 	0.4376	0.2358	0.97482	-1.123
Mof_C 	C 	0.56633	0.3023	0.03235	0.075
Mof_C 	C 	0.5865	0.3914	0.05317	-0.188
Mof_C 	C 	0.6876	0.4182	0.04834	-0.051
Mof_C 	C 	0.7491	0.3427	0.06154	-0.07
Mof_C 	C 	0.6303	0.2249	0.04424	0.052
Mof_C 	C 	0.2085	0.4219	0.21863	-1.213
Mof_C 	C 	0.30579	0.40071	0.22902	0.7
Mof_C 	C 	0.3436	0.4418	0.26005	-0.711
Mof_C 	C 	0.43223	0.42645	0.27323	0.556
Mof_C 	C 	0.4618	0.474	0.30764	-1.117
Mof_C 	C 	0.5877	0.3556	0.26359	0.064
Mof_C 	C 	0.6094	0.2542	0.26095	-0.162
Mof_C 	C 	0.7115	0.2353	0.26422	-0.067
Mof_C 	C 	0.5523	0.9348	0.93916	-1.253
Mof_C 	C 	0.58064	0.00844	0.96519	0.709
Mof_C 	C 	0.54572	0.00658	0.00074	-0.694
Mof_C 	C 	0.56427	0.07065	0.02799	0.522
Mof_C 	C 	0.5242	0.0552	0.06537	-1.013
Mof_C 	C 	0.7317	0.2534	0.04115	-0.155
Mof_C 	C 	0.7974	0.8412	0.56779	-1.199
Mof_C 	C 	0.70268	0.80239	0.56148	0.691
Mof_C 	C 	0.66928	0.8028	0.52595	-0.713
Mof_C 	C 	0.58562	0.7641	0.51479	0.554
Mof_C 	C 	0.5624	0.7642	0.47482	-1.122
Mof_C 	C 	0.43367	0.6977	0.53235	0.075
Mof_C 	C 	0.4135	0.6086	0.55317	-0.188
Mof_C 	C 	0.3124	0.5818	0.54834	-0.05
Mof_C 	C 	0.2509	0.6573	0.56154	-0.07
Mof_C 	C 	0.3697	0.7751	0.54424	0.052
Mof_C 	C 	0.7915	0.5781	0.71863	-1.213
Mof_C 	C 	0.69421	0.59929	0.72902	0.7
Mof_C 	C 	0.6564	0.5582	0.76005	-0.711
Mof_C 	C 	0.56777	0.57355	0.77323	0.556
Mof_C 	C 	0.5382	0.526	0.80764	-1.117
Mof_C 	C 	0.4123	0.6444	0.76359	0.064
Mof_C 	C 	0.3906	0.7458	0.76095	-0.162
Mof_C 	C 	0.2885	0.7647	0.76422	-0.067
Mof_C 	C 	0.4477	0.0652	0.43916	-1.26
Mof_C 	C 	0.41936	0.99156	0.46519	0.715
Mof_C 	C 	0.45428	0.99342	0.50074	-0.701
Mof_C 	C 	0.43573	0.92935	0.52799	0.526
Mof_C 	C 	0.4758	0.9448	0.56537	-1.019
Mof_C 	C 	0.2683	0.7466	0.54115	-0.155
Mof_C 	C 	0.6588	0.2974	0.81779	-1.2
Mof_C 	C 	0.69761	0.20268	0.81148	0.691
Mof_C 	C 	0.6972	0.16928	0.77595	-0.713
Mof_C 	C 	0.7359	0.08562	0.76479	0.554
Mof_C 	C 	0.7358	0.0624	0.72482	-1.12
Mof_C 	C 	0.8023	0.93367	0.78235	0.076
Mof_C 	C 	0.8914	0.9135	0.80317	-0.19
Mof_C 	C 	0.9182	0.8124	0.79834	-0.049
Mof_C 	C 	0.8427	0.7509	0.81154	-0.072
Mof_C 	C 	0.7249	0.8697	0.79424	0.051
Mof_C 	C 	0.9219	0.2915	0.96863	-1.204
Mof_C 	C 	0.90071	0.19421	0.97902	0.691
Mof_C 	C 	0.9418	0.1564	0.01005	-0.695
Mof_C 	C 	0.92645	0.06777	0.02323	0.539
Mof_C 	C 	0.974	0.0382	0.05764	-1.06
Mof_C 	C 	0.8556	0.9123	0.01359	0.061
Mof_C 	C 	0.7542	0.8906	0.01095	-0.162
Mof_C 	C 	0.7353	0.7885	0.01422	-0.067
Mof_C 	C 	0.4348	0.9477	0.68916	-1.242
Mof_C 	C 	0.50844	0.91936	0.71519	0.71
Mof_C 	C 	0.50658	0.95428	0.75074	-0.697
Mof_C 	C 	0.57065	0.93573	0.77799	0.523
Mof_C 	C 	0.5552	0.9758	0.81537	-1.013
Mof_C 	C 	0.7534	0.7683	0.79115	-0.154
Mof_C 	C 	0.3412	0.7026	0.31779	-1.2
Mof_C 	C 	0.30239	0.79732	0.31148	0.691
Mof_C 	C 	0.3028	0.83072	0.27595	-0.713
Mof_C 	C 	0.2641	0.91438	0.26479	0.554
Mof_C 	C 	0.2642	0.9376	0.22482	-1.12
Mof_C 	C 	0.1977	0.06633	0.28235	0.076
Mof_C 	C 	0.1086	0.0865	0.30317	-0.189
Mof_C 	C 	0.0818	0.1876	0.29834	-0.049
Mof_C 	C 	0.1573	0.2491	0.31154	-0.071
Mof_C 	C 	0.2751	0.1303	0.29424	0.051
Mof_C 	C 	0.0781	0.7085	0.46863	-1.209
Mof_C 	C 	0.09929	0.80579	0.47902	0.696
Mof_C 	C 	0.0582	0.8436	0.51005	-0.701
Mof_C 	C 	0.07355	0.93223	0.52323	0.543
Mof_C 	C 	0.026	0.9618	0.55764	-1.071
Mof_C 	C 	0.1444	0.0877	0.51359	0.061
Mof_C 	C 	0.2458	0.1094	0.51095	-0.161
Mof_C 	C 	0.2647	0.2115	0.51422	-0.067
Mof_C 	C 	0.5652	0.0523	0.18916	-1.242
Mof_C 	C 	0.49156	0.08064	0.21519	0.71
Mof_C 	C 	0.49342	0.04572	0.25074	-0.698
Mof_C 	C 	0.42935	0.06427	0.27799	0.524
Mof_C 	C 	0.4448	0.0242	0.31537	-1.015
Mof_C 	C 	0.2466	0.2317	0.29115	-0.154
Mof_N 	N 	0.02885	0.77365	0.21154	-0.329
Mof_N 	N 	0.01021	0.87111	0.99344	-0.32
Mof_N 	N 	0.14978	0.93275	0.12941	0.062
Mof_N 	N 	0.93035	0.7616	0.10075	0.069
Mof_N 	N 	0.3329	0.69585	0.06654	0.068
Mof_N 	N 	0.88376	0.64341	0.22851	-0.315
Mof_N 	N 	0.97115	0.22635	0.71154	-0.329
Mof_N 	N 	0.98979	0.12889	0.49344	-0.323
Mof_N 	N 	0.85022	0.06725	0.62941	0.062
Mof_N 	N 	0.06965	0.2384	0.60075	0.069
Mof_N 	N 	0.6671	0.30415	0.56654	0.068
Mof_N 	N 	0.11624	0.35659	0.72851	-0.316
Mof_N 	N 	0.72635	0.52885	0.46154	-0.328
Mof_N 	N 	0.62889	0.51021	0.24344	-0.328
Mof_N 	N 	0.56725	0.64978	0.37941	0.062
Mof_N 	N 	0.7384	0.43035	0.35075	0.069
Mof_N 	N 	0.80415	0.8329	0.31654	0.068
Mof_N 	N 	0.85659	0.38376	0.47851	-0.316
Mof_N 	N 	0.27365	0.47115	0.96154	-0.328
Mof_N 	N 	0.37111	0.48979	0.74344	-0.328
Mof_N 	N 	0.43275	0.35022	0.87941	0.062
Mof_N 	N 	0.2616	0.56965	0.85075	0.069
Mof_N 	N 	0.19585	0.1671	0.81654	0.068
Mof_N 	N 	0.14341	0.61624	0.97851	-0.315
Mof_N 	N 	0.47115	0.27365	0.03846	-0.328
Mof_N 	N 	0.48979	0.37111	0.25656	-0.328
Mof_N 	N 	0.35022	0.43275	0.12059	0.062
Mof_N 	N 	0.56965	0.2616	0.14925	0.069
Mof_N 	N 	0.1671	0.19585	0.18346	0.068
Mof_N 	N 	0.61624	0.14341	0.02149	-0.315
Mof_N 	N 	0.52885	0.72635	0.53846	-0.328
Mof_N 	N 	0.51021	0.62889	0.75656	-0.328
Mof_N 	N 	0.64978	0.56725	0.62059	0.062
Mof_N 	N 	0.43035	0.7384	0.64925	0.069
Mof_N 	N 	0.8329	0.80415	0.68346	0.068
Mof_N 	N 	0.38376	0.85659	0.52149	-0.316
Mof_N 	N 	0.77365	0.02885	0.78846	-0.329
Mof_N 	N 	0.87111	0.01021	0.00656	-0.32
Mof_N 	N 	0.93275	0.14978	0.87059	0.062
Mof_N 	N 	0.7616	0.93035	0.89925	0.069
Mof_N 	N 	0.69585	0.3329	0.93346	0.068
Mof_N 	N 	0.64341	0.88376	0.77149	-0.315
Mof_N 	N 	0.22635	0.97115	0.28846	-0.329
Mof_N 	N 	0.12889	0.98979	0.50656	-0.323
Mof_N 	N 	0.06725	0.85022	0.37059	0.062
Mof_N 	N 	0.2384	0.06965	0.39925	0.069
Mof_N 	N 	0.30415	0.6671	0.43346	0.068
Mof_N 	N 	0.35659	0.11624	0.27149	-0.316
Mof_O 	O 	0.15979	0.73107	0.16175	-0.59
Mof_O 	O 	0.14947	0.84442	0.04092	-0.561
Mof_O 	O 	0.22038	0.89218	0.11797	-0.297
Mof_O 	O 	0.07421	0.8926	0.12531	-0.262
Mof_O 	O 	0.97353	0.79607	0.07466	-0.286
Mof_O 	O 	0.97724	0.71385	0.1235	-0.337
Mof_O 	O 	0.31953	0.73516	0.09715	-0.318
Mof_O 	O 	0.26317	0.66882	0.05029	-0.306
Mof_O 	O 	0.86365	0.56982	0.29577	-0.577
Mof_O 	O 	0.15485	0.00852	0.14396	-0.168
Mof_O 	O 	0.8488	0.7735	0.10485	-0.162
Mof_O 	O 	0.4102	0.687	0.05424	-0.154
Mof_O 	O 	0.84021	0.26893	0.66175	-0.59
Mof_O 	O 	0.85053	0.15558	0.54092	-0.563
Mof_O 	O 	0.77962	0.10782	0.61797	-0.297
Mof_O 	O 	0.92579	0.1074	0.62531	-0.262
Mof_O 	O 	0.02647	0.20393	0.57466	-0.287
Mof_O 	O 	0.02276	0.28615	0.6235	-0.338
Mof_O 	O 	0.68047	0.26484	0.59715	-0.318
Mof_O 	O 	0.73683	0.33118	0.55029	-0.306
Mof_O 	O 	0.13635	0.43018	0.79577	-0.578
Mof_O 	O 	0.84515	0.99148	0.64396	-0.168
Mof_O 	O 	0.1512	0.2265	0.60485	-0.162
Mof_O 	O 	0.5898	0.313	0.55424	-0.154
Mof_O 	O 	0.76893	0.65979	0.41175	-0.59
Mof_O 	O 	0.65558	0.64947	0.29092	-0.564
Mof_O 	O 	0.60782	0.72038	0.36797	-0.297
Mof_O 	O 	0.6074	0.57421	0.37531	-0.262
Mof_O 	O 	0.70393	0.47353	0.32466	-0.287
Mof_O 	O 	0.78615	0.47724	0.3735	-0.338
Mof_O 	O 	0.76484	0.81953	0.34715	-0.319
Mof_O 	O 	0.83118	0.76317	0.30029	-0.306
Mof_O 	O 	0.93018	0.36365	0.54577	-0.579
Mof_O 	O 	0.49148	0.65485	0.39396	-0.168
Mof_O 	O 	0.7265	0.3488	0.35485	-0.161
Mof_O 	O 	0.813	0.9102	0.30424	-0.155
Mof_O 	O 	0.23107	0.34021	0.91175	-0.59
Mof_O 	O 	0.34442	0.35053	0.79092	-0.564
Mof_O 	O 	0.39218	0.27962	0.86797	-0.297
Mof_O 	O 	0.3926	0.42579	0.87531	-0.262
Mof_O 	O 	0.29607	0.52647	0.82466	-0.287
Mof_O 	O 	0.21385	0.52276	0.8735	-0.338
Mof_O 	O 	0.23516	0.18047	0.84715	-0.319
Mof_O 	O 	0.16882	0.23683	0.80029	-0.306
Mof_O 	O 	0.06982	0.63635	0.04577	-0.578
Mof_O 	O 	0.50852	0.34515	0.89396	-0.168
Mof_O 	O 	0.2735	0.6512	0.85485	-0.161
Mof_O 	O 	0.187	0.0898	0.80424	-0.155
Mof_O 	O 	0.34021	0.23107	0.08825	-0.59
Mof_O 	O 	0.35053	0.34442	0.20908	-0.564
Mof_O 	O 	0.27962	0.39218	0.13203	-0.297
Mof_O 	O 	0.42579	0.3926	0.12469	-0.262
Mof_O 	O 	0.52647	0.29607	0.17534	-0.287
Mof_O 	O 	0.52276	0.21385	0.1265	-0.338
Mof_O 	O 	0.18047	0.23516	0.15285	-0.319
Mof_O 	O 	0.23683	0.16882	0.19971	-0.306
Mof_O 	O 	0.63635	0.06982	0.95423	-0.578
Mof_O 	O 	0.34515	0.50852	0.10604	-0.168
Mof_O 	O 	0.6512	0.2735	0.14515	-0.161
Mof_O 	O 	0.0898	0.187	0.19576	-0.155
Mof_O 	O 	0.65979	0.76893	0.58825	-0.59
Mof_O 	O 	0.64947	0.65558	0.70908	-0.564
Mof_O 	O 	0.72038	0.60782	0.63203	-0.297
Mof_O 	O 	0.57421	0.6074	0.62469	-0.262
Mof_O 	O 	0.47353	0.70393	0.67534	-0.287
Mof_O 	O 	0.47724	0.78615	0.6265	-0.338
Mof_O 	O 	0.81953	0.76484	0.65285	-0.319
Mof_O 	O 	0.76317	0.83118	0.69971	-0.306
Mof_O 	O 	0.36365	0.93018	0.45423	-0.579
Mof_O 	O 	0.65485	0.49148	0.60604	-0.168
Mof_O 	O 	0.3488	0.7265	0.64515	-0.161
Mof_O 	O 	0.9102	0.813	0.69576	-0.155
Mof_O 	O 	0.73107	0.15979	0.83825	-0.59
Mof_O 	O 	0.84442	0.14947	0.95908	-0.561
Mof_O 	O 	0.89218	0.22038	0.88203	-0.297
Mof_O 	O 	0.8926	0.07421	0.87469	-0.262
Mof_O 	O 	0.79607	0.97353	0.92534	-0.286
Mof_O 	O 	0.71385	0.97724	0.8765	-0.337
Mof_O 	O 	0.73516	0.31953	0.90285	-0.318
Mof_O 	O 	0.66882	0.26317	0.94971	-0.306
Mof_O 	O 	0.56982	0.86365	0.70423	-0.577
Mof_O 	O 	0.00852	0.15485	0.85604	-0.168
Mof_O 	O 	0.7735	0.8488	0.89515	-0.162
Mof_O 	O 	0.687	0.4102	0.94576	-0.154
Mof_O 	O 	0.26893	0.84021	0.33825	-0.59
Mof_O 	O 	0.15558	0.85053	0.45908	-0.563
Mof_O 	O 	0.10782	0.77962	0.38203	-0.297
Mof_O 	O 	0.1074	0.92579	0.37469	-0.262
Mof_O 	O 	0.20393	0.02647	0.42534	-0.287
Mof_O 	O 	0.28615	0.02276	0.3765	-0.338
Mof_O 	O 	0.26484	0.68047	0.40285	-0.318
Mof_O 	O 	0.33118	0.73683	0.44971	-0.306
Mof_O 	O 	0.43018	0.13635	0.20423	-0.578
Mof_O 	O 	0.99148	0.84515	0.35604	-0.168
Mof_O 	O 	0.2265	0.1512	0.39515	-0.162
Mof_O 	O 	0.313	0.5898	0.44576	-0.154
_end
