data_functionalizedCrystal
_audit_creation_method	'EQeq! by Chris Wilmer'
_symmetry_space_group_name_H-M	'P1'
_symmetry_Int_Tables_number	1
_symmetry_cell_setting	triclinic
loop_
_symmetry_equiv_pos_as_xyz
  x,y,z
_cell_length_a	5.0696
_cell_length_b	9.6081
_cell_length_c	12.5328
_cell_angle_alpha	89.12
_cell_angle_beta	85.508
_cell_angle_gamma	76.862
loop_
_atom_site_label
_atom_site_type_symbol
_atom_site_fract_x
_atom_site_fract_y
_atom_site_fract_z
_atom_site_charge
Mof_Co	Co	0.83382	0.10633	0.59655	1.153
Mof_Co	Co	0.16618	0.89367	0.40345	1.191
Mof_Co	Co	0.5	0	-0	0.982
Mof_P 	P 	0.6838	0.78652	0.55723	0.456
Mof_P 	P 	0.3774	0.96745	0.74681	0.486
Mof_P 	P 	0.3162	0.21348	0.44277	0.452
Mof_P 	P 	0.6226	0.03255	0.25319	0.381
Mof_H 	H 	0.9458	0.6241	0.4796	0.266
Mof_H 	H 	0.9259	0.8496	0.733	0.246
Mof_H 	H 	0.481	0.4341	0.6246	0.017
Mof_H 	H 	0.1588	0.2797	0.7575	0.015
Mof_H 	H 	0.9817	0.5223	0.8269	0.054
Mof_H 	H 	0.3201	0.6719	0.7109	0.078
Mof_H 	H 	0.4357	0.6844	0.8216	0.071
Mof_H 	H 	0.0542	0.3759	0.5204	0.26
Mof_H 	H 	0.0741	0.1504	0.267	0.229
Mof_H 	H 	0.519	0.5659	0.3754	0.019
Mof_H 	H 	0.8412	0.7203	0.2425	0.038
Mof_H 	H 	0.0183	0.4777	0.1731	0.01
Mof_H 	H 	0.6799	0.3281	0.2891	0.075
Mof_H 	H 	0.5643	0.3156	0.1784	0.034
Mof_C 	C 	0.6291	0.4252	0.6656	0.096
Mof_C 	C 	0.9997	0.3414	0.7389	0.007
Mof_C 	C 	0.9038	0.4754	0.7778	0.004
Mof_C 	C 	0.4852	0.6699	0.7456	-0.065
Mof_C 	C 	0.6058	0.7943	0.7028	0.001
Mof_C 	C 	0.3709	0.5748	0.3344	0.088
Mof_C 	C 	0.0003	0.6586	0.2611	-0.037
Mof_C 	C 	0.0962	0.5246	0.2222	0.013
Mof_C 	C 	0.5148	0.3301	0.2544	-0.052
Mof_C 	C 	0.3942	0.2057	0.2972	-0.006
Mof_N 	N 	0.6671	0.5278	0.7295	-0.096
Mof_N 	N 	0.8285	0.3093	0.6678	-0.222
Mof_N 	N 	0.3329	0.4722	0.2705	-0.106
Mof_N 	N 	0.1715	0.6907	0.3322	-0.214
Mof_O 	O 	0.8277	0.9033	0.5236	-0.458
Mof_O 	O 	0.4314	0.7801	0.5059	-0.395
Mof_O 	O 	0.8967	0.6381	0.5432	-0.425
Mof_O 	O 	0.5381	0.0789	0.7167	-0.469
Mof_O 	O 	0.1143	0.9849	0.6937	-0.385
Mof_O 	O 	0.3242	0.9562	0.8675	-0.387
Mof_O 	O 	0.8538	0.7853	0.7549	-0.353
Mof_O 	O 	0.1723	0.0967	0.4764	-0.529
Mof_O 	O 	0.5686	0.2199	0.4941	-0.407
Mof_O 	O 	0.1033	0.3619	0.4568	-0.425
Mof_O 	O 	0.4619	0.9211	0.2833	-0.362
Mof_O 	O 	0.8857	0.0151	0.3063	-0.445
Mof_O 	O 	0.6758	0.0438	0.1325	-0.504
Mof_O 	O 	0.1462	0.2147	0.2451	-0.38
_end
