data_functionalizedCrystal
_audit_creation_method	'EQeq! by Chris Wilmer'
_symmetry_space_group_name_H-M	'P1'
_symmetry_Int_Tables_number	1
_symmetry_cell_setting	triclinic
loop_
_symmetry_equiv_pos_as_xyz
  x,y,z
_cell_length_a	15.2229
_cell_length_b	15.2229
_cell_length_c	6.8862
_cell_angle_alpha	90
_cell_angle_beta	90
_cell_angle_gamma	120
loop_
_atom_site_label
_atom_site_type_symbol
_atom_site_fract_x
_atom_site_fract_y
_atom_site_fract_z
_atom_site_charge
Mof_C 	C 	0.0856	0.4606	0.965	-0.015
Mof_C 	C 	0.02	0.428	0.145	0.021
Mof_C 	C 	0.5394	0.625	0.965	-0.017
Mof_C 	C 	0.572	0.592	0.145	0.022
Mof_C 	C 	0.375	0.9144	0.965	-0.015
Mof_C 	C 	0.408	0.98	0.145	0.021
Mof_C 	C 	0.4606	0.0856	0.035	-0.016
Mof_C 	C 	0.428	0.02	0.855	0.02
Mof_C 	C 	0.625	0.5394	0.035	-0.018
Mof_C 	C 	0.592	0.572	0.855	0.021
Mof_C 	C 	0.9144	0.375	0.035	-0.016
Mof_C 	C 	0.98	0.408	0.855	0.02
Mof_C 	C 	0.9144	0.5394	0.035	-0.016
Mof_C 	C 	0.98	0.572	0.855	0.02
Mof_C 	C 	0.4606	0.375	0.035	-0.018
Mof_C 	C 	0.428	0.408	0.855	0.021
Mof_C 	C 	0.625	0.0856	0.035	-0.016
Mof_C 	C 	0.592	0.02	0.855	0.02
Mof_C 	C 	0.5394	0.9144	0.965	-0.016
Mof_C 	C 	0.572	0.98	0.145	0.02
Mof_C 	C 	0.375	0.4606	0.965	-0.018
Mof_C 	C 	0.408	0.428	0.145	0.021
Mof_C 	C 	0.0856	0.625	0.965	-0.016
Mof_C 	C 	0.02	0.592	0.145	0.02
Mof_C 	C 	0.108	0.554	0.887	-0.019
Mof_C 	C 	0.995	0.4975	0.765	-0.02
Mof_N 	N 	0.0857	0.54285	0.0957	-0.194
Mof_Cu	Cu	0.22046	0.61023	0.2472	0.717
Mof_C 	C 	0.446	0.554	0.887	-0.018
Mof_C 	C 	0.5025	0.4975	0.765	-0.02
Mof_N 	N 	0.45715	0.54285	0.0957	-0.194
Mof_Cu	Cu	0.38977	0.61023	0.2472	0.718
Mof_C 	C 	0.446	0.892	0.887	-0.019
Mof_C 	C 	0.5025	0.005	0.765	-0.02
Mof_N 	N 	0.45715	0.9143	0.0957	-0.194
Mof_Cu	Cu	0.38977	0.77954	0.2472	0.717
Mof_C 	C 	0.554	0.108	0.113	-0.019
Mof_C 	C 	0.4975	0.995	0.235	-0.02
Mof_N 	N 	0.54285	0.0857	0.9043	-0.194
Mof_Cu	Cu	0.61023	0.22046	0.7528	0.717
Mof_C 	C 	0.554	0.446	0.113	-0.018
Mof_C 	C 	0.4975	0.5025	0.235	-0.02
Mof_N 	N 	0.54285	0.45715	0.9043	-0.194
Mof_Cu	Cu	0.61023	0.38977	0.7528	0.718
Mof_C 	C 	0.892	0.446	0.113	-0.019
Mof_C 	C 	0.005	0.5025	0.235	-0.02
Mof_N 	N 	0.9143	0.45715	0.9043	-0.194
Mof_Cu	Cu	0.77954	0.38977	0.7528	0.717
Mof_C 	C 	0.33333	0.66667	0.86	-0.174
Mof_N 	N 	0.33333	0.66667	0.018	-0.345
Mof_Cu	Cu	0.33333	0.66667	0.5806	0.723
Mof_C 	C 	0.66667	0.33333	0.14	-0.174
Mof_N 	N 	0.66667	0.33333	0.982	-0.345
Mof_Cu	Cu	0.66667	0.33333	0.4194	0.723
Mof_I 	I 	0.23508	0.47017	0.46309	-0.561
Mof_I 	I 	0.52983	0.76491	0.46309	-0.561
Mof_I 	I 	0.23509	0.76492	0.46309	-0.561
Mof_I 	I 	0.47017	0.23508	0.53691	-0.561
Mof_I 	I 	0.76491	0.52983	0.53691	-0.561
Mof_I 	I 	0.76492	0.23509	0.53691	-0.561
_end
