data_functionalizedCrystal
_audit_creation_method	'EQeq! by Chris Wilmer'
_symmetry_space_group_name_H-M	'P1'
_symmetry_Int_Tables_number	1
_symmetry_cell_setting	triclinic
loop_
_symmetry_equiv_pos_as_xyz
  x,y,z
_cell_length_a	11.38
_cell_length_b	7.182
_cell_length_c	6.628
_cell_angle_alpha	90
_cell_angle_beta	109.754
_cell_angle_gamma	90
loop_
_atom_site_label
_atom_site_type_symbol
_atom_site_fract_x
_atom_site_fract_y
_atom_site_fract_z
_atom_site_charge
Mof_O 	O 	0.5082	0.3026	0.3376	-0.405
Mof_O 	O 	0.673	0.2495	0.1162	-0.37
Mof_O 	O 	0.8472	0.1126	0.1185	-0.267
Mof_C 	C 	0.7358	0.1532	0.035	0.224
Mof_H 	H 	0.6951	0.1071	0.8981	0.073
Mof_O 	O 	0.0082	0.8026	0.3376	-0.317
Mof_O 	O 	0.173	0.7495	0.1162	-0.401
Mof_O 	O 	0.3472	0.6126	0.1185	-0.431
Mof_C 	C 	0.2358	0.6532	0.035	0.246
Mof_H 	H 	0.1951	0.6071	0.8981	0.016
Mof_O 	O 	0.4918	0.3026	0.6624	-0.362
Mof_O 	O 	0.327	0.2495	0.8838	-0.455
Mof_O 	O 	0.1528	0.1126	0.8815	-0.41
Mof_C 	C 	0.2642	0.1532	0.965	0.81
Mof_H 	H 	0.3049	0.1071	0.1019	-0.281
Mof_O 	O 	0.9918	0.8026	0.6624	-0.113
Mof_O 	O 	0.827	0.7495	0.8838	-0.405
Mof_O 	O 	0.6528	0.6126	0.8815	-0.481
Mof_C 	C 	0.7642	0.6532	0.965	0.804
Mof_H 	H 	0.8049	0.6071	0.1019	-0.286
Mof_Gd	Gd	0.5	0.44955	-0	1.416
Mof_Gd	Gd	-0	0.94955	-0	0.942
Mof_C 	C 	0.5	0.381	0.5	0.507
Mof_H 	H 	0.5	0.5107	0.5	-0.145
Mof_C 	C 	2.78734e-17	0.881	0.5	0.014
Mof_H 	H 	1.39367e-17	0.0107	0.5	0.077
_end
