# CIF file generated by openbabel 3.1.0, see https://openbabel.org
data_I
_chemical_name_common 'image0'
_cell_length_a 6.965
_cell_length_b 26.433
_cell_length_c 17.879
_cell_angle_alpha 90
_cell_angle_beta 97.9
_cell_angle_gamma 90
_space_group_name_H-M_alt 'P 1'
_space_group_name_Hall 'P 1'
loop_
    _symmetry_equiv_pos_as_xyz
    x,y,z
loop_
    _atom_site_label
    _atom_site_type_symbol
    _atom_site_fract_x
    _atom_site_fract_y
    _atom_site_fract_z
    _atom_site_occupancy
    O1       O        0.57990    0.98011    0.10114    1.000
    Tb1      Tb       0.68186    0.07002    0.93359    1.000
    Tb2      Tb       0.23679    0.93173    0.45074    1.000
    O2       O        0.81640    0.98167    0.91948    1.000
    O3       O        0.70690    0.34360    0.01452    1.000
    O4       O        0.69210    0.05160    0.05906    1.000
    C1       C        0.60680    0.10432    0.18640    1.000
    H1       H        0.62700    0.12310    0.14420    1.000
    C2       C        0.94890    0.93236    0.67130    1.000
    C3       C        0.89700    0.90067    0.81680    1.000
    H2       H        0.87880    0.89020    0.86500    1.000
    C4       C        0.51870    0.01812    0.38270    1.000
    C5       C        0.57270    0.02311    0.24560    1.000
    H3       H        0.56630    0.98800    0.24270    1.000
    O5       O        0.39170    0.11827    0.95980    1.000
    C6       C        0.58100    0.12921    0.25350    1.000
    O6       O        0.84670    0.03839    0.83212    1.000
    O7       O        0.45000    0.38381    0.04200    1.000
    C7       C        0.60230    0.05142    0.18220    1.000
    C8       C        0.89460    0.95229    0.79940    1.000
    C9       C        0.85280    0.99258    0.85390    1.000
    O8       O        0.04360    0.92006    0.54993    1.000
    C10      C        0.91910    0.96755    0.72640    1.000
    H4       H        0.91540    0.00180    0.71440    1.000
    C11      C        0.48840    0.15826    0.97140    1.000
    O9       O        0.43390    0.97607    0.37413    1.000
    O10      O        0.93900    0.99638    0.57851    1.000
    C12      C        0.49630    0.25140    0.99590    1.000
    H5       H        0.63090    0.24950    0.00400    1.000
    C13      C        0.92630    0.86474    0.76240    1.000
    C14      C        0.01340    0.79090    0.85060    1.000
    H6       H        0.05180    0.81310    0.89020    1.000
    C15      C        0.18610    0.21111    0.96600    1.000
    H7       H        0.11130    0.18220    0.95480    1.000
    C16      C        0.97800    0.95110    0.59370    1.000
    O11      O        0.57460    0.03769    0.44595    1.000
    C17      C        0.38890    0.20746    0.97900    1.000
    C18      C        0.09690    0.25805    0.96980    1.000
    H8       H        0.96250    0.26040    0.96070    1.000
    C19      C        0.93610    0.80966    0.77960    1.000
    N1       N        0.59250    0.29116    0.26960    1.000
    C20      C        0.65470    0.26176    0.32830    1.000
    H9       H        0.70280    0.27730    0.37370    1.000
    C21      C        0.52970    0.26800    0.20450    1.000
    H10      H        0.48770    0.28780    0.16250    1.000
    C22      C        0.62590    0.02607    0.10870    1.000
    C23      C        0.52710    0.34467    0.02030    1.000
    C24      C        0.40660    0.29812    0.00090    1.000
    C25      C        0.95160    0.88133    0.68920    1.000
    H11      H        0.97040    0.85760    0.65250    1.000
    C26      C        0.65230    0.20955    0.32590    1.000
    H12      H        0.69430    0.19090    0.36910    1.000
    C27      C        0.58630    0.18503    0.25820    1.000
    C28      C        0.52410    0.21573    0.19650    1.000
    H13      H        0.47890    0.20130    0.15000    1.000
    C29      C        0.55700    0.09970    0.31690    1.000
    H14      H        0.54390    0.11570    0.36220    1.000
    C30      C        0.87730    0.77290    0.72470    1.000
    H15      H        0.82260    0.78270    0.67650    1.000
    N2       N        0.97850    0.70442    0.80990    1.000
    C31      C        0.03260    0.73920    0.86180    1.000
    H16      H        0.08750    0.72810    0.90930    1.000
    C32      C        0.90080    0.72160    0.74230    1.000
    H17      H        0.85980    0.69810    0.70480    1.000
    C33      C        0.55260    0.04786    0.31360    1.000
    C34      C        0.20640    0.30139    0.98720    1.000
    H18      H        0.14560    0.33250    0.98950    1.000
    O12      O        0.67210    0.15759    0.97298    1.000
    O13      O        0.42010    0.48011    0.39886    1.000
    Tb3      Tb       0.31814    0.57002    0.56641    1.000
    Tb4      Tb       0.76321    0.43173    0.04926    1.000
    O14      O        0.18360    0.48167    0.58052    1.000
    O15      O        0.29310    0.84360    0.48548    1.000
    O16      O        0.30790    0.55160    0.44094    1.000
    C35      C        0.39320    0.60432    0.31360    1.000
    H19      H        0.37300    0.62310    0.35580    1.000
    C36      C        0.05110    0.43236    0.82870    1.000
    C37      C        0.10300    0.40067    0.68320    1.000
    H20      H        0.12120    0.39020    0.63500    1.000
    C38      C        0.48130    0.51812    0.11730    1.000
    C39      C        0.42730    0.52311    0.25440    1.000
    H21      H        0.43370    0.48800    0.25730    1.000
    O17      O        0.60830    0.61827    0.54020    1.000
    C40      C        0.41900    0.62921    0.24650    1.000
    O18      O        0.15330    0.53839    0.66788    1.000
    O19      O        0.55000    0.88381    0.45800    1.000
    C41      C        0.39770    0.55142    0.31780    1.000
    C42      C        0.10540    0.45229    0.70060    1.000
    C43      C        0.14720    0.49258    0.64610    1.000
    O20      O        0.95640    0.42006    0.95007    1.000
    C44      C        0.08090    0.46755    0.77360    1.000
    H22      H        0.08460    0.50180    0.78560    1.000
    C45      C        0.51160    0.65826    0.52860    1.000
    O21      O        0.56610    0.47607    0.12587    1.000
    O22      O        0.06100    0.49638    0.92149    1.000
    C46      C        0.50370    0.75140    0.50410    1.000
    H23      H        0.36910    0.74950    0.49600    1.000
    C47      C        0.07370    0.36474    0.73760    1.000
    C48      C        0.98660    0.29090    0.64940    1.000
    H24      H        0.94820    0.31310    0.60980    1.000
    C49      C        0.81390    0.71111    0.53400    1.000
    H25      H        0.88870    0.68220    0.54520    1.000
    C50      C        0.02200    0.45110    0.90630    1.000
    O23      O        0.42540    0.53769    0.05405    1.000
    C51      C        0.61110    0.70746    0.52100    1.000
    C52      C        0.90310    0.75805    0.53020    1.000
    H26      H        0.03750    0.76040    0.53930    1.000
    C53      C        0.06390    0.30966    0.72040    1.000
    N3       N        0.40750    0.79116    0.23040    1.000
    C54      C        0.34530    0.76176    0.17170    1.000
    H27      H        0.29720    0.77730    0.12630    1.000
    C55      C        0.47030    0.76800    0.29550    1.000
    H28      H        0.51230    0.78780    0.33750    1.000
    C56      C        0.37410    0.52607    0.39130    1.000
    C57      C        0.47290    0.84467    0.47970    1.000
    C58      C        0.59340    0.79812    0.49910    1.000
    C59      C        0.04840    0.38133    0.81080    1.000
    H29      H        0.02960    0.35760    0.84750    1.000
    C60      C        0.34770    0.70955    0.17410    1.000
    H30      H        0.30570    0.69090    0.13090    1.000
    C61      C        0.41370    0.68503    0.24180    1.000
    C62      C        0.47590    0.71573    0.30350    1.000
    H31      H        0.52110    0.70130    0.35000    1.000
    C63      C        0.44300    0.59970    0.18310    1.000
    H32      H        0.45610    0.61570    0.13780    1.000
    C64      C        0.12270    0.27290    0.77530    1.000
    H33      H        0.17740    0.28270    0.82350    1.000
    N4       N        0.02150    0.20442    0.69010    1.000
    C65      C        0.96740    0.23920    0.63820    1.000
    H34      H        0.91250    0.22810    0.59070    1.000
    C66      C        0.09920    0.22160    0.75770    1.000
    H35      H        0.14020    0.19810    0.79520    1.000
    C67      C        0.44740    0.54786    0.18640    1.000
    C68      C        0.79360    0.80139    0.51280    1.000
    H36      H        0.85440    0.83250    0.51050    1.000
    O24      O        0.32790    0.65759    0.52702    1.000
    O25      O        0.42010    0.01989    0.89886    1.000
    Tb5      Tb       0.31814    0.92998    0.06641    1.000
    Tb6      Tb       0.76321    0.06827    0.54926    1.000
    O26      O        0.18360    0.01833    0.08052    1.000
    O27      O        0.29310    0.65640    0.98548    1.000
    O28      O        0.30790    0.94840    0.94094    1.000
    C69      C        0.39320    0.89568    0.81360    1.000
    H37      H        0.37300    0.87690    0.85580    1.000
    C70      C        0.05110    0.06764    0.32870    1.000
    C71      C        0.10300    0.09933    0.18320    1.000
    H38      H        0.12120    0.10980    0.13500    1.000
    C72      C        0.48130    0.98188    0.61730    1.000
    C73      C        0.42730    0.97689    0.75440    1.000
    H39      H        0.43370    0.01200    0.75730    1.000
    O29      O        0.60830    0.88173    0.04020    1.000
    C74      C        0.41900    0.87079    0.74650    1.000
    O30      O        0.15330    0.96161    0.16788    1.000
    O31      O        0.55000    0.61619    0.95800    1.000
    C75      C        0.39770    0.94858    0.81780    1.000
    C76      C        0.10540    0.04771    0.20060    1.000
    C77      C        0.14720    0.00742    0.14610    1.000
    O32      O        0.95640    0.07994    0.45007    1.000
    C78      C        0.08090    0.03245    0.27360    1.000
    H40      H        0.08460    0.99820    0.28560    1.000
    C79      C        0.51160    0.84174    0.02860    1.000
    O33      O        0.56610    0.02393    0.62587    1.000
    O34      O        0.06100    0.00362    0.42149    1.000
    C80      C        0.50370    0.74860    0.00410    1.000
    H41      H        0.36910    0.75050    0.99600    1.000
    C81      C        0.07370    0.13526    0.23760    1.000
    C82      C        0.98660    0.20910    0.14940    1.000
    H42      H        0.94820    0.18690    0.10980    1.000
    C83      C        0.81390    0.78889    0.03400    1.000
    H43      H        0.88870    0.81780    0.04520    1.000
    C84      C        0.02200    0.04890    0.40630    1.000
    O35      O        0.42540    0.96231    0.55405    1.000
    C85      C        0.61110    0.79254    0.02100    1.000
    C86      C        0.90310    0.74195    0.03020    1.000
    H44      H        0.03750    0.73960    0.03930    1.000
    C87      C        0.06390    0.19034    0.22040    1.000
    N5       N        0.40750    0.70884    0.73040    1.000
    C88      C        0.34530    0.73824    0.67170    1.000
    H45      H        0.29720    0.72270    0.62630    1.000
    C89      C        0.47030    0.73200    0.79550    1.000
    H46      H        0.51230    0.71220    0.83750    1.000
    C90      C        0.37410    0.97393    0.89130    1.000
    C91      C        0.47290    0.65533    0.97970    1.000
    C92      C        0.59340    0.70188    0.99910    1.000
    C93      C        0.04840    0.11867    0.31080    1.000
    H47      H        0.02960    0.14240    0.34750    1.000
    C94      C        0.34770    0.79045    0.67410    1.000
    H48      H        0.30570    0.80910    0.63090    1.000
    C95      C        0.41370    0.81497    0.74180    1.000
    C96      C        0.47590    0.78427    0.80350    1.000
    H49      H        0.52110    0.79870    0.85000    1.000
    C97      C        0.44300    0.90030    0.68310    1.000
    H50      H        0.45610    0.88430    0.63780    1.000
    C98      C        0.12270    0.22710    0.27530    1.000
    H51      H        0.17740    0.21730    0.32350    1.000
    N6       N        0.02150    0.29558    0.19010    1.000
    C99      C        0.96740    0.26080    0.13820    1.000
    H52      H        0.91250    0.27190    0.09070    1.000
    C100     C        0.09920    0.27840    0.25770    1.000
    H53      H        0.14020    0.30190    0.29520    1.000
    C101     C        0.44740    0.95214    0.68640    1.000
    C102     C        0.79360    0.69861    0.01280    1.000
    H54      H        0.85440    0.66750    0.01050    1.000
    O36      O        0.32790    0.84241    0.02702    1.000
    O37      O        0.57990    0.51989    0.60114    1.000
    Tb7      Tb       0.68186    0.42998    0.43359    1.000
    Tb8      Tb       0.23679    0.56827    0.95074    1.000
    O38      O        0.81640    0.51833    0.41948    1.000
    O39      O        0.70690    0.15640    0.51452    1.000
    O40      O        0.69210    0.44840    0.55906    1.000
    C103     C        0.60680    0.39568    0.68640    1.000
    H55      H        0.62700    0.37690    0.64420    1.000
    C104     C        0.94890    0.56764    0.17130    1.000
    C105     C        0.89700    0.59933    0.31680    1.000
    H56      H        0.87880    0.60980    0.36500    1.000
    C106     C        0.51870    0.48188    0.88270    1.000
    C107     C        0.57270    0.47689    0.74560    1.000
    H57      H        0.56630    0.51200    0.74270    1.000
    O41      O        0.39170    0.38173    0.45980    1.000
    C108     C        0.58100    0.37079    0.75350    1.000
    O42      O        0.84670    0.46161    0.33212    1.000
    O43      O        0.45000    0.11619    0.54200    1.000
    C109     C        0.60230    0.44858    0.68220    1.000
    C110     C        0.89460    0.54771    0.29940    1.000
    C111     C        0.85280    0.50742    0.35390    1.000
    O44      O        0.04360    0.57994    0.04993    1.000
    C112     C        0.91910    0.53245    0.22640    1.000
    H58      H        0.91540    0.49820    0.21440    1.000
    C113     C        0.48840    0.34174    0.47140    1.000
    O45      O        0.43390    0.52393    0.87413    1.000
    O46      O        0.93900    0.50362    0.07851    1.000
    C114     C        0.49630    0.24860    0.49590    1.000
    H59      H        0.63090    0.25050    0.50400    1.000
    C115     C        0.92630    0.63526    0.26240    1.000
    C116     C        0.01340    0.70910    0.35060    1.000
    H60      H        0.05180    0.68690    0.39020    1.000
    C117     C        0.18610    0.28889    0.46600    1.000
    H61      H        0.11130    0.31780    0.45480    1.000
    C118     C        0.97800    0.54890    0.09370    1.000
    O47      O        0.57460    0.46231    0.94595    1.000
    C119     C        0.38890    0.29254    0.47900    1.000
    C120     C        0.09690    0.24195    0.46980    1.000
    H62      H        0.96250    0.23960    0.46070    1.000
    C121     C        0.93610    0.69034    0.27960    1.000
    N7       N        0.59250    0.20884    0.76960    1.000
    C122     C        0.65470    0.23824    0.82830    1.000
    H63      H        0.70280    0.22270    0.87370    1.000
    C123     C        0.52970    0.23200    0.70450    1.000
    H64      H        0.48770    0.21220    0.66250    1.000
    C124     C        0.62590    0.47393    0.60870    1.000
    C125     C        0.52710    0.15533    0.52030    1.000
    C126     C        0.40660    0.20188    0.50090    1.000
    C127     C        0.95160    0.61867    0.18920    1.000
    H65      H        0.97040    0.64240    0.15250    1.000
    C128     C        0.65230    0.29045    0.82590    1.000
    H66      H        0.69430    0.30910    0.86910    1.000
    C129     C        0.58630    0.31497    0.75820    1.000
    C130     C        0.52410    0.28427    0.69650    1.000
    H67      H        0.47890    0.29870    0.65000    1.000
    C131     C        0.55700    0.40030    0.81690    1.000
    H68      H        0.54390    0.38430    0.86220    1.000
    C132     C        0.87730    0.72710    0.22470    1.000
    H69      H        0.82260    0.71730    0.17650    1.000
    N8       N        0.97850    0.79558    0.30990    1.000
    C133     C        0.03260    0.76080    0.36180    1.000
    H70      H        0.08750    0.77190    0.40930    1.000
    C134     C        0.90080    0.77840    0.24230    1.000
    H71      H        0.85980    0.80190    0.20480    1.000
    C135     C        0.55260    0.45214    0.81360    1.000
    C136     C        0.20640    0.19861    0.48720    1.000
    H72      H        0.14560    0.16750    0.48950    1.000
    O48      O        0.67210    0.34241    0.47298    1.000
