# CIF file generated by openbabel 3.1.0, see https://openbabel.org
data_I
_chemical_name_common 'image0'
_cell_length_a 13.9325
_cell_length_b 26.873
_cell_length_c 27.147
_cell_angle_alpha 90
_cell_angle_beta 90
_cell_angle_gamma 90
_space_group_name_H-M_alt 'P 1'
_space_group_name_Hall 'P 1'
loop_
    _symmetry_equiv_pos_as_xyz
    x,y,z
loop_
    _atom_site_label
    _atom_site_type_symbol
    _atom_site_fract_x
    _atom_site_fract_y
    _atom_site_fract_z
    _atom_site_occupancy
    Cd1      Cd       0.30793    0.62932    0.04194    1.000
    Cd2      Cd       0.90765    0.78380    0.86201    1.000
    Ti1      Ti       0.68726    0.44401    0.78086    1.000
    Ti2      Ti       0.55557    0.52149    0.69699    1.000
    O1       O        0.66320    0.37657    0.76810    1.000
    O2       O        0.77680    0.42870    0.83250    1.000
    O3       O        0.59530    0.51000    0.63180    1.000
    O4       O        0.45910    0.57160    0.67990    1.000
    O5       O        0.62200    0.47270    0.72860    1.000
    O6       O        0.76750    0.82530    0.88950    1.000
    O7       O        0.64450    0.82140    0.93500    1.000
    N1       N        0.76830    0.51450    0.78370    1.000
    H1       H        0.73120    0.53920    0.76380    1.000
    N2       N        0.80890    0.43110    0.72720    1.000
    H2       H        0.85660    0.40860    0.74340    1.000
    N3       N        0.68250    0.18380    0.52230    1.000
    N4       N        0.18750    0.58420    0.00160    1.000
    N5       N        0.44490    0.46240    0.67730    1.000
    H3       H        0.40040    0.47730    0.65240    1.000
    N6       N        0.46160    0.51700    0.76270    1.000
    H4       H        0.49490    0.49580    0.78770    1.000
    N7       N        0.61090    0.27750    0.42200    1.000
    N8       N        0.04000    0.73970    0.82950    1.000
    C1       C        0.86250    0.51020    0.76070    1.000
    H5       H        0.90520    0.49270    0.78470    1.000
    C2       C        0.85890    0.47920    0.71520    1.000
    H6       H        0.81840    0.49720    0.69060    1.000
    C3       C        0.96200    0.47160    0.69150    1.000
    H7       H        0.00380    0.45410    0.71530    1.000
    H8       H        0.95600    0.45030    0.66180    1.000
    C4       C        0.00870    0.52070    0.67710    1.000
    H9       H        0.97130    0.53740    0.65090    1.000
    H10      H        0.07490    0.51520    0.66510    1.000
    C5       C        0.00920    0.55300    0.72540    1.000
    H11      H        0.05180    0.53680    0.74980    1.000
    H12      H        0.03730    0.58600    0.71760    1.000
    C6       C        0.90950    0.56120    0.74950    1.000
    H13      H        0.91680    0.58040    0.78040    1.000
    H14      H        0.86790    0.58050    0.72690    1.000
    C7       C        0.77570    0.40630    0.68110    1.000
    H15      H        0.83230    0.39980    0.66010    1.000
    H16      H        0.73350    0.42970    0.66310    1.000
    C8       C        0.66780    0.34471    0.73025    1.000
    C9       C        0.61740    0.30010    0.73205    1.000
    C10      C        0.62000    0.26769    0.69220    1.000
    H17      H        0.58560    0.23720    0.69340    1.000
    C11      C        0.67290    0.27989    0.65048    1.000
    C12      C        0.72330    0.32450    0.64868    1.000
    H18      H        0.75950    0.33280    0.62020    1.000
    C13      C        0.72080    0.35690    0.68860    1.000
    C14      C        0.55580    0.28630    0.77750    1.000
    C15      C        0.47520    0.32510    0.78560    1.000
    H19      H        0.50380    0.35730    0.79440    1.000
    H20      H        0.43310    0.31390    0.81230    1.000
    H21      H        0.43780    0.32870    0.75520    1.000
    C16      C        0.61960    0.28430    0.82420    1.000
    H22      H        0.66030    0.25460    0.82290    1.000
    H23      H        0.57870    0.28290    0.85350    1.000
    H24      H        0.66000    0.31410    0.82560    1.000
    C17      C        0.50220    0.23510    0.77240    1.000
    H25      H        0.44490    0.23940    0.75190    1.000
    H26      H        0.48310    0.22330    0.80520    1.000
    H27      H        0.54500    0.21070    0.75710    1.000
    C18      C        0.67690    0.24680    0.60620    1.000
    C19      C        0.74210    0.25100    0.57000    1.000
    H28      H        0.79040    0.27570    0.57330    1.000
    C20      C        0.74320    0.22220    0.52960    1.000
    H29      H        0.78920    0.22930    0.50470    1.000
    C21      C        0.61460    0.17910    0.55850    1.000
    H30      H        0.56670    0.15430    0.55460    1.000
    C22      C        0.61200    0.20780    0.59940    1.000
    H31      H        0.56510    0.20140    0.62400    1.000
    C23      C        0.76990    0.53320    0.83390    1.000
    H32      H        0.70520    0.53020    0.84880    1.000
    H33      H        0.78850    0.56870    0.83410    1.000
    C24      C        0.84160    0.50312    0.86370    1.000
    C25      C        0.84040    0.45141    0.86280    1.000
    C26      C        0.90760    0.42463    0.88980    1.000
    C27      C        0.97610    0.44957    0.91770    1.000
    H34      H        0.02210    0.43130    0.93610    1.000
    C28      C        0.97730    0.50130    0.91860    1.000
    C29      C        0.91000    0.52806    0.89160    1.000
    H35      H        0.91090    0.56340    0.89220    1.000
    C30      C        0.91190    0.36590    0.88750    1.000
    C31      C        0.92490    0.34850    0.83330    1.000
    H36      H        0.86310    0.35020    0.81620    1.000
    H37      H        0.94870    0.31420    0.83280    1.000
    H38      H        0.97120    0.37030    0.81670    1.000
    C32      C        0.81870    0.34720    0.90750    1.000
    H39      H        0.81430    0.35530    0.94260    1.000
    H40      H        0.81510    0.31110    0.90310    1.000
    H41      H        0.76560    0.36310    0.88970    1.000
    C33      C        0.99920    0.34570    0.91310    1.000
    H42      H        0.05380    0.36790    0.90710    1.000
    H43      H        0.01380    0.31250    0.90020    1.000
    H44      H        0.98680    0.34360    0.94860    1.000
    C34      C        0.05130    0.52820    0.94910    1.000
    C35      C        0.08350    0.57310    0.93270    1.000
    H45      H        0.05990    0.58630    0.90260    1.000
    C36      C        0.15190    0.60020    0.96060    1.000
    H46      H        0.17260    0.63160    0.94850    1.000
    C37      C        0.15050    0.54050    0.01900    1.000
    H47      H        0.17170    0.52830    0.05000    1.000
    C38      C        0.08380    0.51370    0.99310    1.000
    H48      H        0.05970    0.48380    0.00700    1.000
    C39      C        0.38740    0.44760    0.71950    1.000
    H49      H        0.42620    0.42360    0.73940    1.000
    C40      C        0.36900    0.49290    0.75090    1.000
    H50      H        0.32870    0.51690    0.73180    1.000
    C41      C        0.31360    0.47760    0.79840    1.000
    H51      H        0.35320    0.45460    0.81840    1.000
    H52      H        0.29910    0.50740    0.81850    1.000
    C42      C        0.22020    0.45190    0.78270    1.000
    H53      H        0.18340    0.44260    0.81250    1.000
    H54      H        0.18080    0.47570    0.76360    1.000
    C43      C        0.23750    0.40660    0.75240    1.000
    H55      H        0.17560    0.39140    0.74270    1.000
    H56      H        0.27440    0.38180    0.77170    1.000
    C44      C        0.29520    0.42230    0.70560    1.000
    H57      H        0.30940    0.39240    0.68560    1.000
    H58      H        0.25570    0.44520    0.68540    1.000
    C45      C        0.49190    0.41880    0.65390    1.000
    H59      H        0.44190    0.39370    0.64660    1.000
    H60      H        0.53660    0.40390    0.67810    1.000
    C46      C        0.60840    0.39669    0.52939    1.000
    C47      C        0.55320    0.39123    0.57171    1.000
    H61      H        0.51890    0.36120    0.57730    1.000
    C48      C        0.54830    0.42969    0.60586    1.000
    C49      C        0.59850    0.47361    0.59768    1.000
    C50      C        0.65370    0.47907    0.55536    1.000
    C51      C        0.65860    0.44060    0.52121    1.000
    H62      H        0.69630    0.44430    0.49230    1.000
    C52      C        0.71050    0.52740    0.54570    1.000
    C53      C        0.76770    0.52600    0.49660    1.000
    H63      H        0.81720    0.50020    0.49850    1.000
    H64      H        0.79810    0.55840    0.49100    1.000
    H65      H        0.72390    0.51860    0.46940    1.000
    C54      C        0.64760    0.57350    0.54510    1.000
    H66      H        0.60610    0.57270    0.51600    1.000
    H67      H        0.68810    0.60320    0.54410    1.000
    H68      H        0.60780    0.57410    0.57490    1.000
    C55      C        0.78630    0.53610    0.58670    1.000
    H69      H        0.75410    0.53820    0.61870    1.000
    H70      H        0.82060    0.56730    0.58020    1.000
    H71      H        0.83210    0.50850    0.58700    1.000
    C56      C        0.61070    0.35520    0.49330    1.000
    C57      C        0.54520    0.31740    0.49360    1.000
    H72      H        0.49650    0.31760    0.51810    1.000
    C58      C        0.54660    0.27890    0.45980    1.000
    H73      H        0.50140    0.25270    0.46310    1.000
    C59      C        0.67130    0.31460    0.42050    1.000
    H74      H        0.71470    0.31570    0.39350    1.000
    C60      C        0.67750    0.35240    0.45510    1.000
    H75      H        0.72720    0.37650    0.45280    1.000
    C61      C        0.45090    0.56720    0.78390    1.000
    H76      H        0.51500    0.58300    0.78650    1.000
    H77      H        0.42390    0.56450    0.81750    1.000
    C62      C        0.38650    0.59971    0.75305    1.000
    C63      C        0.39230    0.60012    0.70194    1.000
    C64      C        0.32780    0.62830    0.67460    1.000
    C65      C        0.25750    0.65610    0.69838    1.000
    H78      H        0.21340    0.67530    0.67970    1.000
    C66      C        0.25170    0.65560    0.74949    1.000
    C67      C        0.31630    0.62750    0.77683    1.000
    H79      H        0.31230    0.62720    0.81180    1.000
    C68      C        0.33400    0.62710    0.61800    1.000
    C69      C        0.31730    0.57240    0.59940    1.000
    H80      H        0.36680    0.55050    0.61320    1.000
    H81      H        0.32100    0.57160    0.56330    1.000
    H82      H        0.25380    0.56090    0.61000    1.000
    C70      C        0.43050    0.65120    0.60000    1.000
    H83      H        0.43640    0.68480    0.61380    1.000
    H84      H        0.43070    0.65310    0.56400    1.000
    H85      H        0.48470    0.63080    0.61110    1.000
    C71      C        0.25090    0.66000    0.59590    1.000
    H86      H        0.18880    0.64510    0.60420    1.000
    H87      H        0.25780    0.66180    0.56000    1.000
    H88      H        0.25450    0.69360    0.60980    1.000
    C72      C        0.17760    0.68500    0.77550    1.000
    C73      C        0.13460    0.66720    0.81870    1.000
    H89      H        0.15420    0.63610    0.83190    1.000
    C74      C        0.06550    0.69390    0.84180    1.000
    H90      H        0.03300    0.67870    0.86870    1.000
    C75      C        0.08240    0.75830    0.78860    1.000
    H91      H        0.06510    0.79080    0.77790    1.000
    C76      C        0.14780    0.73280    0.76240    1.000
    H92      H        0.17480    0.74780    0.73390    1.000
    C77      C        0.68610    0.81190    0.89650    1.000
    C78      C        0.63170    0.78030    0.85450    1.000
    H93      H        0.66050    0.78750    0.82240    1.000
    H94      H        0.56370    0.78950    0.85400    1.000
    H95      H        0.63790    0.74470    0.86170    1.000
    Cd3      Cd       0.19207    0.37068    0.54194    1.000
    Cd4      Cd       0.59235    0.21620    0.36201    1.000
    Ti3      Ti       0.81274    0.55599    0.28086    1.000
    Ti4      Ti       0.94443    0.47851    0.19699    1.000
    O8       O        0.83680    0.62343    0.26810    1.000
    O9       O        0.72320    0.57130    0.33250    1.000
    O10      O        0.90470    0.49000    0.13180    1.000
    O11      O        0.04090    0.42840    0.17990    1.000
    O12      O        0.87800    0.52730    0.22860    1.000
    O13      O        0.73250    0.17470    0.38950    1.000
    O14      O        0.85550    0.17860    0.43500    1.000
    N9       N        0.73170    0.48550    0.28370    1.000
    H96      H        0.76880    0.46080    0.26380    1.000
    N10      N        0.69110    0.56890    0.22720    1.000
    H97      H        0.64340    0.59140    0.24340    1.000
    N11      N        0.81750    0.81620    0.02230    1.000
    N12      N        0.31250    0.41580    0.50160    1.000
    N13      N        0.05510    0.53760    0.17730    1.000
    H98      H        0.09960    0.52270    0.15240    1.000
    N14      N        0.03840    0.48300    0.26270    1.000
    H99      H        0.00510    0.50420    0.28770    1.000
    N15      N        0.88910    0.72250    0.92200    1.000
    N16      N        0.46000    0.26030    0.32950    1.000
    C79      C        0.63750    0.48980    0.26070    1.000
    H100     H        0.59480    0.50730    0.28470    1.000
    C80      C        0.64110    0.52080    0.21520    1.000
    H101     H        0.68160    0.50280    0.19060    1.000
    C81      C        0.53800    0.52840    0.19150    1.000
    H102     H        0.49620    0.54590    0.21530    1.000
    H103     H        0.54400    0.54970    0.16180    1.000
    C82      C        0.49130    0.47930    0.17710    1.000
    H104     H        0.52870    0.46260    0.15090    1.000
    H105     H        0.42510    0.48480    0.16510    1.000
    C83      C        0.49080    0.44700    0.22540    1.000
    H106     H        0.44820    0.46320    0.24980    1.000
    H107     H        0.46270    0.41400    0.21760    1.000
    C84      C        0.59050    0.43880    0.24950    1.000
    H108     H        0.58320    0.41960    0.28040    1.000
    H109     H        0.63210    0.41950    0.22690    1.000
    C85      C        0.72430    0.59370    0.18110    1.000
    H110     H        0.66770    0.60020    0.16010    1.000
    H111     H        0.76650    0.57030    0.16310    1.000
    C86      C        0.83220    0.65529    0.23025    1.000
    C87      C        0.88260    0.69990    0.23205    1.000
    C88      C        0.88000    0.73231    0.19220    1.000
    H112     H        0.91440    0.76280    0.19340    1.000
    C89      C        0.82710    0.72011    0.15048    1.000
    C90      C        0.77670    0.67550    0.14868    1.000
    H113     H        0.74050    0.66720    0.12020    1.000
    C91      C        0.77920    0.64310    0.18860    1.000
    C92      C        0.94420    0.71370    0.27750    1.000
    C93      C        0.02480    0.67490    0.28560    1.000
    H114     H        0.99620    0.64270    0.29440    1.000
    H115     H        0.06690    0.68610    0.31230    1.000
    H116     H        0.06220    0.67130    0.25520    1.000
    C94      C        0.88040    0.71570    0.32420    1.000
    H117     H        0.83970    0.74540    0.32290    1.000
    H118     H        0.92130    0.71710    0.35350    1.000
    H119     H        0.84000    0.68590    0.32560    1.000
    C95      C        0.99780    0.76490    0.27240    1.000
    H120     H        0.05510    0.76060    0.25190    1.000
    H121     H        0.01690    0.77670    0.30520    1.000
    H122     H        0.95500    0.78930    0.25710    1.000
    C96      C        0.82310    0.75320    0.10620    1.000
    C97      C        0.75790    0.74900    0.07000    1.000
    H123     H        0.70960    0.72430    0.07330    1.000
    C98      C        0.75680    0.77780    0.02960    1.000
    H124     H        0.71080    0.77070    0.00470    1.000
    C99      C        0.88540    0.82090    0.05850    1.000
    H125     H        0.93330    0.84570    0.05460    1.000
    C100     C        0.88800    0.79220    0.09940    1.000
    H126     H        0.93490    0.79860    0.12400    1.000
    C101     C        0.73010    0.46680    0.33390    1.000
    H127     H        0.79480    0.46980    0.34880    1.000
    H128     H        0.71150    0.43130    0.33410    1.000
    C102     C        0.65840    0.49688    0.36370    1.000
    C103     C        0.65960    0.54859    0.36280    1.000
    C104     C        0.59240    0.57537    0.38980    1.000
    C105     C        0.52390    0.55043    0.41770    1.000
    H129     H        0.47790    0.56870    0.43610    1.000
    C106     C        0.52270    0.49870    0.41860    1.000
    C107     C        0.59000    0.47194    0.39160    1.000
    H130     H        0.58910    0.43660    0.39220    1.000
    C108     C        0.58810    0.63410    0.38750    1.000
    C109     C        0.57510    0.65150    0.33330    1.000
    H131     H        0.63690    0.64980    0.31620    1.000
    H132     H        0.55130    0.68580    0.33280    1.000
    H133     H        0.52880    0.62970    0.31670    1.000
    C110     C        0.68130    0.65280    0.40750    1.000
    H134     H        0.68570    0.64470    0.44260    1.000
    H135     H        0.68490    0.68890    0.40310    1.000
    H136     H        0.73440    0.63690    0.38970    1.000
    C111     C        0.50080    0.65430    0.41310    1.000
    H137     H        0.44620    0.63210    0.40710    1.000
    H138     H        0.48620    0.68750    0.40020    1.000
    H139     H        0.51320    0.65640    0.44860    1.000
    C112     C        0.44870    0.47180    0.44910    1.000
    C113     C        0.41650    0.42690    0.43270    1.000
    H140     H        0.44010    0.41370    0.40260    1.000
    C114     C        0.34810    0.39980    0.46060    1.000
    H141     H        0.32740    0.36840    0.44850    1.000
    C115     C        0.34950    0.45950    0.51900    1.000
    H142     H        0.32830    0.47170    0.55000    1.000
    C116     C        0.41620    0.48630    0.49310    1.000
    H143     H        0.44030    0.51620    0.50700    1.000
    C117     C        0.11260    0.55240    0.21950    1.000
    H144     H        0.07380    0.57640    0.23940    1.000
    C118     C        0.13100    0.50710    0.25090    1.000
    H145     H        0.17130    0.48310    0.23180    1.000
    C119     C        0.18640    0.52240    0.29840    1.000
    H146     H        0.14680    0.54540    0.31840    1.000
    H147     H        0.20090    0.49260    0.31850    1.000
    C120     C        0.27980    0.54810    0.28270    1.000
    H148     H        0.31660    0.55740    0.31250    1.000
    H149     H        0.31920    0.52430    0.26360    1.000
    C121     C        0.26250    0.59340    0.25240    1.000
    H150     H        0.32440    0.60860    0.24270    1.000
    H151     H        0.22560    0.61820    0.27170    1.000
    C122     C        0.20480    0.57770    0.20560    1.000
    H152     H        0.19060    0.60760    0.18560    1.000
    H153     H        0.24430    0.55480    0.18540    1.000
    C123     C        0.00810    0.58120    0.15390    1.000
    H154     H        0.05810    0.60630    0.14660    1.000
    H155     H        0.96340    0.59610    0.17810    1.000
    C124     C        0.89160    0.60331    0.02939    1.000
    C125     C        0.94680    0.60877    0.07171    1.000
    H156     H        0.98110    0.63880    0.07730    1.000
    C126     C        0.95170    0.57031    0.10586    1.000
    C127     C        0.90150    0.52639    0.09768    1.000
    C128     C        0.84630    0.52093    0.05536    1.000
    C129     C        0.84140    0.55940    0.02121    1.000
    H157     H        0.80370    0.55570    0.99230    1.000
    C130     C        0.78950    0.47260    0.04570    1.000
    C131     C        0.73230    0.47400    0.99660    1.000
    H158     H        0.68280    0.49980    0.99850    1.000
    H159     H        0.70190    0.44160    0.99100    1.000
    H160     H        0.77610    0.48140    0.96940    1.000
    C132     C        0.85240    0.42650    0.04510    1.000
    H161     H        0.89390    0.42730    0.01600    1.000
    H162     H        0.81190    0.39680    0.04410    1.000
    H163     H        0.89220    0.42590    0.07490    1.000
    C133     C        0.71370    0.46390    0.08670    1.000
    H164     H        0.74590    0.46180    0.11870    1.000
    H165     H        0.67940    0.43270    0.08020    1.000
    H166     H        0.66790    0.49150    0.08700    1.000
    C134     C        0.88930    0.64480    0.99330    1.000
    C135     C        0.95480    0.68260    0.99360    1.000
    H167     H        0.00350    0.68240    0.01810    1.000
    C136     C        0.95340    0.72110    0.95980    1.000
    H168     H        0.99860    0.74730    0.96310    1.000
    C137     C        0.82870    0.68540    0.92050    1.000
    H169     H        0.78530    0.68430    0.89350    1.000
    C138     C        0.82250    0.64760    0.95510    1.000
    H170     H        0.77280    0.62350    0.95280    1.000
    C139     C        0.04910    0.43280    0.28390    1.000
    H171     H        0.98500    0.41700    0.28650    1.000
    H172     H        0.07610    0.43550    0.31750    1.000
    C140     C        0.11350    0.40029    0.25305    1.000
    C141     C        0.10770    0.39988    0.20194    1.000
    C142     C        0.17220    0.37170    0.17460    1.000
    C143     C        0.24250    0.34390    0.19838    1.000
    H173     H        0.28660    0.32470    0.17970    1.000
    C144     C        0.24830    0.34440    0.24949    1.000
    C145     C        0.18370    0.37250    0.27683    1.000
    H174     H        0.18770    0.37280    0.31180    1.000
    C146     C        0.16600    0.37290    0.11800    1.000
    C147     C        0.18270    0.42760    0.09940    1.000
    H175     H        0.13320    0.44950    0.11320    1.000
    H176     H        0.17900    0.42840    0.06330    1.000
    H177     H        0.24620    0.43910    0.11000    1.000
    C148     C        0.06950    0.34880    0.10000    1.000
    H178     H        0.06360    0.31520    0.11380    1.000
    H179     H        0.06930    0.34690    0.06400    1.000
    H180     H        0.01530    0.36920    0.11110    1.000
    C149     C        0.24910    0.34000    0.09590    1.000
    H181     H        0.31120    0.35490    0.10420    1.000
    H182     H        0.24220    0.33820    0.06000    1.000
    H183     H        0.24550    0.30640    0.10980    1.000
    C150     C        0.32240    0.31500    0.27550    1.000
    C151     C        0.36540    0.33280    0.31870    1.000
    H184     H        0.34580    0.36390    0.33190    1.000
    C152     C        0.43450    0.30610    0.34180    1.000
    H185     H        0.46700    0.32130    0.36870    1.000
    C153     C        0.41760    0.24170    0.28860    1.000
    H186     H        0.43490    0.20920    0.27790    1.000
    C154     C        0.35220    0.26720    0.26240    1.000
    H187     H        0.32520    0.25220    0.23390    1.000
    C155     C        0.81390    0.18810    0.39650    1.000
    C156     C        0.86830    0.21970    0.35450    1.000
    H188     H        0.83950    0.21250    0.32240    1.000
    H189     H        0.93630    0.21050    0.35400    1.000
    H190     H        0.86210    0.25530    0.36170    1.000
    Cd5      Cd       0.69207    0.12932    0.45806    1.000
    Cd6      Cd       0.09235    0.28380    0.63799    1.000
    Ti5      Ti       0.31274    0.94401    0.71914    1.000
    Ti6      Ti       0.44443    0.02149    0.80301    1.000
    O15      O        0.33680    0.87657    0.73190    1.000
    O16      O        0.22320    0.92870    0.66750    1.000
    O17      O        0.40470    0.01000    0.86820    1.000
    O18      O        0.54090    0.07160    0.82010    1.000
    O19      O        0.37800    0.97270    0.77140    1.000
    O20      O        0.23250    0.32530    0.61050    1.000
    O21      O        0.35550    0.32140    0.56500    1.000
    N17      N        0.23170    0.01450    0.71630    1.000
    H191     H        0.26880    0.03920    0.73620    1.000
    N18      N        0.19110    0.93110    0.77280    1.000
    H192     H        0.14340    0.90860    0.75660    1.000
    N19      N        0.31750    0.68380    0.97770    1.000
    N20      N        0.81250    0.08420    0.49840    1.000
    N21      N        0.55510    0.96240    0.82270    1.000
    H193     H        0.59960    0.97730    0.84760    1.000
    N22      N        0.53840    0.01700    0.73730    1.000
    H194     H        0.50510    0.99580    0.71230    1.000
    N23      N        0.38910    0.77750    0.07800    1.000
    N24      N        0.96000    0.23970    0.67050    1.000
    C157     C        0.13750    0.01020    0.73930    1.000
    H195     H        0.09480    0.99270    0.71530    1.000
    C158     C        0.14110    0.97920    0.78480    1.000
    H196     H        0.18160    0.99720    0.80940    1.000
    C159     C        0.03800    0.97160    0.80850    1.000
    H197     H        0.99620    0.95410    0.78470    1.000
    H198     H        0.04400    0.95030    0.83820    1.000
    C160     C        0.99130    0.02070    0.82290    1.000
    H199     H        0.02870    0.03740    0.84910    1.000
    H200     H        0.92510    0.01520    0.83490    1.000
    C161     C        0.99080    0.05300    0.77460    1.000
    H201     H        0.94820    0.03680    0.75020    1.000
    H202     H        0.96270    0.08600    0.78240    1.000
    C162     C        0.09050    0.06120    0.75050    1.000
    H203     H        0.08320    0.08040    0.71960    1.000
    H204     H        0.13210    0.08050    0.77310    1.000
    C163     C        0.22430    0.90630    0.81890    1.000
    H205     H        0.16770    0.89980    0.83990    1.000
    H206     H        0.26650    0.92970    0.83690    1.000
    C164     C        0.33220    0.84471    0.76975    1.000
    C165     C        0.38260    0.80010    0.76795    1.000
    C166     C        0.38000    0.76769    0.80780    1.000
    H207     H        0.41440    0.73720    0.80660    1.000
    C167     C        0.32710    0.77989    0.84952    1.000
    C168     C        0.27670    0.82450    0.85132    1.000
    H208     H        0.24050    0.83280    0.87980    1.000
    C169     C        0.27920    0.85690    0.81140    1.000
    C170     C        0.44420    0.78630    0.72250    1.000
    C171     C        0.52480    0.82510    0.71440    1.000
    H209     H        0.49620    0.85730    0.70560    1.000
    H210     H        0.56690    0.81390    0.68770    1.000
    H211     H        0.56220    0.82870    0.74480    1.000
    C172     C        0.38040    0.78430    0.67580    1.000
    H212     H        0.33970    0.75460    0.67710    1.000
    H213     H        0.42130    0.78290    0.64650    1.000
    H214     H        0.34000    0.81410    0.67440    1.000
    C173     C        0.49780    0.73510    0.72760    1.000
    H215     H        0.55510    0.73940    0.74810    1.000
    H216     H        0.51690    0.72330    0.69480    1.000
    H217     H        0.45500    0.71070    0.74290    1.000
    C174     C        0.32310    0.74680    0.89380    1.000
    C175     C        0.25790    0.75100    0.93000    1.000
    H218     H        0.20960    0.77570    0.92670    1.000
    C176     C        0.25680    0.72220    0.97040    1.000
    H219     H        0.21080    0.72930    0.99530    1.000
    C177     C        0.38540    0.67910    0.94150    1.000
    H220     H        0.43330    0.65430    0.94540    1.000
    C178     C        0.38800    0.70780    0.90060    1.000
    H221     H        0.43490    0.70140    0.87600    1.000
    C179     C        0.23010    0.03320    0.66610    1.000
    H222     H        0.29480    0.03020    0.65120    1.000
    H223     H        0.21150    0.06870    0.66590    1.000
    C180     C        0.15840    0.00312    0.63630    1.000
    C181     C        0.15960    0.95141    0.63720    1.000
    C182     C        0.09240    0.92463    0.61020    1.000
    C183     C        0.02390    0.94957    0.58230    1.000
    H224     H        0.97790    0.93130    0.56390    1.000
    C184     C        0.02270    0.00130    0.58140    1.000
    C185     C        0.09000    0.02806    0.60840    1.000
    H225     H        0.08910    0.06340    0.60780    1.000
    C186     C        0.08810    0.86590    0.61250    1.000
    C187     C        0.07510    0.84850    0.66670    1.000
    H226     H        0.13690    0.85020    0.68380    1.000
    H227     H        0.05130    0.81420    0.66720    1.000
    H228     H        0.02880    0.87030    0.68330    1.000
    C188     C        0.18130    0.84720    0.59250    1.000
    H229     H        0.18570    0.85530    0.55740    1.000
    H230     H        0.18490    0.81110    0.59690    1.000
    H231     H        0.23440    0.86310    0.61030    1.000
    C189     C        0.00080    0.84570    0.58690    1.000
    H232     H        0.94620    0.86790    0.59290    1.000
    H233     H        0.98620    0.81250    0.59980    1.000
    H234     H        0.01320    0.84360    0.55140    1.000
    C190     C        0.94870    0.02820    0.55090    1.000
    C191     C        0.91650    0.07310    0.56730    1.000
    H235     H        0.94010    0.08630    0.59740    1.000
    C192     C        0.84810    0.10020    0.53940    1.000
    H236     H        0.82740    0.13160    0.55150    1.000
    C193     C        0.84950    0.04050    0.48100    1.000
    H237     H        0.82830    0.02830    0.45000    1.000
    C194     C        0.91620    0.01370    0.50690    1.000
    H238     H        0.94030    0.98380    0.49300    1.000
    C195     C        0.61260    0.94760    0.78050    1.000
    H239     H        0.57380    0.92360    0.76060    1.000
    C196     C        0.63100    0.99290    0.74910    1.000
    H240     H        0.67130    0.01690    0.76820    1.000
    C197     C        0.68640    0.97760    0.70160    1.000
    H241     H        0.64680    0.95460    0.68160    1.000
    H242     H        0.70090    0.00740    0.68150    1.000
    C198     C        0.77980    0.95190    0.71730    1.000
    H243     H        0.81660    0.94260    0.68750    1.000
    H244     H        0.81920    0.97570    0.73640    1.000
    C199     C        0.76250    0.90660    0.74760    1.000
    H245     H        0.82440    0.89140    0.75730    1.000
    H246     H        0.72560    0.88180    0.72830    1.000
    C200     C        0.70480    0.92230    0.79440    1.000
    H247     H        0.69060    0.89240    0.81440    1.000
    H248     H        0.74430    0.94520    0.81460    1.000
    C201     C        0.50810    0.91880    0.84610    1.000
    H249     H        0.55810    0.89370    0.85340    1.000
    H250     H        0.46340    0.90390    0.82190    1.000
    C202     C        0.39160    0.89669    0.97061    1.000
    C203     C        0.44680    0.89123    0.92829    1.000
    H251     H        0.48110    0.86120    0.92270    1.000
    C204     C        0.45170    0.92969    0.89414    1.000
    C205     C        0.40150    0.97361    0.90232    1.000
    C206     C        0.34630    0.97907    0.94464    1.000
    C207     C        0.34140    0.94060    0.97879    1.000
    H252     H        0.30370    0.94430    0.00770    1.000
    C208     C        0.28950    0.02740    0.95430    1.000
    C209     C        0.23230    0.02600    0.00340    1.000
    H253     H        0.18280    0.00020    0.00150    1.000
    H254     H        0.20190    0.05840    0.00900    1.000
    H255     H        0.27610    0.01860    0.03060    1.000
    C210     C        0.35240    0.07350    0.95490    1.000
    H256     H        0.39390    0.07270    0.98400    1.000
    H257     H        0.31190    0.10320    0.95590    1.000
    H258     H        0.39220    0.07410    0.92510    1.000
    C211     C        0.21370    0.03610    0.91330    1.000
    H259     H        0.24590    0.03820    0.88130    1.000
    H260     H        0.17940    0.06730    0.91980    1.000
    H261     H        0.16790    0.00850    0.91300    1.000
    C212     C        0.38930    0.85520    0.00670    1.000
    C213     C        0.45480    0.81740    0.00640    1.000
    H262     H        0.50350    0.81760    0.98190    1.000
    C214     C        0.45340    0.77890    0.04020    1.000
    H263     H        0.49860    0.75270    0.03690    1.000
    C215     C        0.32870    0.81460    0.07950    1.000
    H264     H        0.28530    0.81570    0.10650    1.000
    C216     C        0.32250    0.85240    0.04490    1.000
    H265     H        0.27280    0.87650    0.04720    1.000
    C217     C        0.54910    0.06720    0.71610    1.000
    H266     H        0.48500    0.08300    0.71350    1.000
    H267     H        0.57610    0.06450    0.68250    1.000
    C218     C        0.61350    0.09971    0.74695    1.000
    C219     C        0.60770    0.10012    0.79806    1.000
    C220     C        0.67220    0.12830    0.82540    1.000
    C221     C        0.74250    0.15610    0.80162    1.000
    H268     H        0.78660    0.17530    0.82030    1.000
    C222     C        0.74830    0.15560    0.75051    1.000
    C223     C        0.68370    0.12750    0.72317    1.000
    H269     H        0.68770    0.12720    0.68820    1.000
    C224     C        0.66600    0.12710    0.88200    1.000
    C225     C        0.68270    0.07240    0.90060    1.000
    H270     H        0.63320    0.05050    0.88680    1.000
    H271     H        0.67900    0.07160    0.93670    1.000
    H272     H        0.74620    0.06090    0.89000    1.000
    C226     C        0.56950    0.15120    0.90000    1.000
    H273     H        0.56360    0.18480    0.88620    1.000
    H274     H        0.56930    0.15310    0.93600    1.000
    H275     H        0.51530    0.13080    0.88890    1.000
    C227     C        0.74910    0.16000    0.90410    1.000
    H276     H        0.81120    0.14510    0.89580    1.000
    H277     H        0.74220    0.16180    0.94000    1.000
    H278     H        0.74550    0.19360    0.89020    1.000
    C228     C        0.82240    0.18500    0.72450    1.000
    C229     C        0.86540    0.16720    0.68130    1.000
    H279     H        0.84580    0.13610    0.66810    1.000
    C230     C        0.93450    0.19390    0.65820    1.000
    H280     H        0.96700    0.17870    0.63130    1.000
    C231     C        0.91760    0.25830    0.71140    1.000
    H281     H        0.93490    0.29080    0.72210    1.000
    C232     C        0.85220    0.23280    0.73760    1.000
    H282     H        0.82520    0.24780    0.76610    1.000
    C233     C        0.31390    0.31190    0.60350    1.000
    C234     C        0.36830    0.28030    0.64550    1.000
    H283     H        0.33950    0.28750    0.67760    1.000
    H284     H        0.43630    0.28950    0.64600    1.000
    H285     H        0.36210    0.24470    0.63830    1.000
    Cd7      Cd       0.80793    0.87068    0.95806    1.000
    Cd8      Cd       0.40765    0.71620    0.13799    1.000
    Ti7      Ti       0.18726    0.05599    0.21914    1.000
    Ti8      Ti       0.05557    0.97851    0.30301    1.000
    O22      O        0.16320    0.12343    0.23190    1.000
    O23      O        0.27680    0.07130    0.16750    1.000
    O24      O        0.09530    0.99000    0.36820    1.000
    O25      O        0.95910    0.92840    0.32010    1.000
    O26      O        0.12200    0.02730    0.27140    1.000
    O27      O        0.26750    0.67470    0.11050    1.000
    O28      O        0.14450    0.67860    0.06500    1.000
    N25      N        0.26830    0.98550    0.21630    1.000
    H286     H        0.23120    0.96080    0.23620    1.000
    N26      N        0.30890    0.06890    0.27280    1.000
    H287     H        0.35660    0.09140    0.25660    1.000
    N27      N        0.18250    0.31620    0.47770    1.000
    N28      N        0.68750    0.91580    0.99840    1.000
    N29      N        0.94490    0.03760    0.32270    1.000
    H288     H        0.90040    0.02270    0.34760    1.000
    N30      N        0.96160    0.98300    0.23730    1.000
    H289     H        0.99490    0.00420    0.21230    1.000
    N31      N        0.11090    0.22250    0.57800    1.000
    N32      N        0.54000    0.76030    0.17050    1.000
    C235     C        0.36250    0.98980    0.23930    1.000
    H290     H        0.40520    0.00730    0.21530    1.000
    C236     C        0.35890    0.02080    0.28480    1.000
    H291     H        0.31840    0.00280    0.30940    1.000
    C237     C        0.46200    0.02840    0.30850    1.000
    H292     H        0.50380    0.04590    0.28470    1.000
    H293     H        0.45600    0.04970    0.33820    1.000
    C238     C        0.50870    0.97930    0.32290    1.000
    H294     H        0.47130    0.96260    0.34910    1.000
    H295     H        0.57490    0.98480    0.33490    1.000
    C239     C        0.50920    0.94700    0.27460    1.000
    H296     H        0.55180    0.96320    0.25020    1.000
    H297     H        0.53730    0.91400    0.28240    1.000
    C240     C        0.40950    0.93880    0.25050    1.000
    H298     H        0.41680    0.91960    0.21960    1.000
    H299     H        0.36790    0.91950    0.27310    1.000
    C241     C        0.27570    0.09370    0.31890    1.000
    H300     H        0.33230    0.10020    0.33990    1.000
    H301     H        0.23350    0.07030    0.33690    1.000
    C242     C        0.16780    0.15529    0.26975    1.000
    C243     C        0.11740    0.19990    0.26795    1.000
    C244     C        0.12000    0.23231    0.30780    1.000
    H302     H        0.08560    0.26280    0.30660    1.000
    C245     C        0.17290    0.22011    0.34952    1.000
    C246     C        0.22330    0.17550    0.35132    1.000
    H303     H        0.25950    0.16720    0.37980    1.000
    C247     C        0.22080    0.14310    0.31140    1.000
    C248     C        0.05580    0.21370    0.22250    1.000
    C249     C        0.97520    0.17490    0.21440    1.000
    H304     H        0.00380    0.14270    0.20560    1.000
    H305     H        0.93310    0.18610    0.18770    1.000
    H306     H        0.93780    0.17130    0.24480    1.000
    C250     C        0.11960    0.21570    0.17580    1.000
    H307     H        0.16030    0.24540    0.17710    1.000
    H308     H        0.07870    0.21710    0.14650    1.000
    H309     H        0.16000    0.18590    0.17440    1.000
    C251     C        0.00220    0.26490    0.22760    1.000
    H310     H        0.94490    0.26060    0.24810    1.000
    H311     H        0.98310    0.27670    0.19480    1.000
    H312     H        0.04500    0.28930    0.24290    1.000
    C252     C        0.17690    0.25320    0.39380    1.000
    C253     C        0.24210    0.24900    0.43000    1.000
    H313     H        0.29040    0.22430    0.42670    1.000
    C254     C        0.24320    0.27780    0.47040    1.000
    H314     H        0.28920    0.27070    0.49530    1.000
    C255     C        0.11460    0.32090    0.44150    1.000
    H315     H        0.06670    0.34570    0.44540    1.000
    C256     C        0.11200    0.29220    0.40060    1.000
    H316     H        0.06510    0.29860    0.37600    1.000
    C257     C        0.26990    0.96680    0.16610    1.000
    H317     H        0.20520    0.96980    0.15120    1.000
    H318     H        0.28850    0.93130    0.16590    1.000
    C258     C        0.34160    0.99688    0.13630    1.000
    C259     C        0.34040    0.04859    0.13720    1.000
    C260     C        0.40760    0.07537    0.11020    1.000
    C261     C        0.47610    0.05043    0.08230    1.000
    H319     H        0.52210    0.06870    0.06390    1.000
    C262     C        0.47730    0.99870    0.08140    1.000
    C263     C        0.41000    0.97194    0.10840    1.000
    H320     H        0.41090    0.93660    0.10780    1.000
    C264     C        0.41190    0.13410    0.11250    1.000
    C265     C        0.42490    0.15150    0.16670    1.000
    H321     H        0.36310    0.14980    0.18380    1.000
    H322     H        0.44870    0.18580    0.16720    1.000
    H323     H        0.47120    0.12970    0.18330    1.000
    C266     C        0.31870    0.15280    0.09250    1.000
    H324     H        0.31430    0.14470    0.05740    1.000
    H325     H        0.31510    0.18890    0.09690    1.000
    H326     H        0.26560    0.13690    0.11030    1.000
    C267     C        0.49920    0.15430    0.08690    1.000
    H327     H        0.55380    0.13210    0.09290    1.000
    H328     H        0.51380    0.18750    0.09980    1.000
    H329     H        0.48680    0.15640    0.05140    1.000
    C268     C        0.55130    0.97180    0.05090    1.000
    C269     C        0.58350    0.92690    0.06730    1.000
    H330     H        0.55990    0.91370    0.09740    1.000
    C270     C        0.65190    0.89980    0.03940    1.000
    H331     H        0.67260    0.86840    0.05150    1.000
    C271     C        0.65050    0.95950    0.98100    1.000
    H332     H        0.67170    0.97170    0.95000    1.000
    C272     C        0.58380    0.98630    0.00690    1.000
    H333     H        0.55970    0.01620    0.99300    1.000
    C273     C        0.88740    0.05240    0.28050    1.000
    H334     H        0.92620    0.07640    0.26060    1.000
    C274     C        0.86900    0.00710    0.24910    1.000
    H335     H        0.82870    0.98310    0.26820    1.000
    C275     C        0.81360    0.02240    0.20160    1.000
    H336     H        0.85320    0.04540    0.18160    1.000
    H337     H        0.79910    0.99260    0.18150    1.000
    C276     C        0.72020    0.04810    0.21730    1.000
    H338     H        0.68340    0.05740    0.18750    1.000
    H339     H        0.68080    0.02430    0.23640    1.000
    C277     C        0.73750    0.09340    0.24760    1.000
    H340     H        0.67560    0.10860    0.25730    1.000
    H341     H        0.77440    0.11820    0.22830    1.000
    C278     C        0.79520    0.07770    0.29440    1.000
    H342     H        0.80940    0.10760    0.31440    1.000
    H343     H        0.75570    0.05480    0.31460    1.000
    C279     C        0.99190    0.08120    0.34610    1.000
    H344     H        0.94190    0.10630    0.35340    1.000
    H345     H        0.03660    0.09610    0.32190    1.000
    C280     C        0.10840    0.10331    0.47061    1.000
    C281     C        0.05320    0.10877    0.42829    1.000
    H346     H        0.01890    0.13880    0.42270    1.000
    C282     C        0.04830    0.07031    0.39414    1.000
    C283     C        0.09850    0.02639    0.40232    1.000
    C284     C        0.15370    0.02093    0.44464    1.000
    C285     C        0.15860    0.05940    0.47879    1.000
    H347     H        0.19630    0.05570    0.50770    1.000
    C286     C        0.21050    0.97260    0.45430    1.000
    C287     C        0.26770    0.97400    0.50340    1.000
    H348     H        0.31720    0.99980    0.50150    1.000
    H349     H        0.29810    0.94160    0.50900    1.000
    H350     H        0.22390    0.98140    0.53060    1.000
    C288     C        0.14760    0.92650    0.45490    1.000
    H351     H        0.10610    0.92730    0.48400    1.000
    H352     H        0.18810    0.89680    0.45590    1.000
    H353     H        0.10780    0.92590    0.42510    1.000
    C289     C        0.28630    0.96390    0.41330    1.000
    H354     H        0.25410    0.96180    0.38130    1.000
    H355     H        0.32060    0.93270    0.41980    1.000
    H356     H        0.33210    0.99150    0.41300    1.000
    C290     C        0.11070    0.14480    0.50670    1.000
    C291     C        0.04520    0.18260    0.50640    1.000
    H357     H        0.99650    0.18240    0.48190    1.000
    C292     C        0.04660    0.22110    0.54020    1.000
    H358     H        0.00140    0.24730    0.53690    1.000
    C293     C        0.17130    0.18540    0.57950    1.000
    H359     H        0.21470    0.18430    0.60650    1.000
    C294     C        0.17750    0.14760    0.54490    1.000
    H360     H        0.22720    0.12350    0.54720    1.000
    C295     C        0.95090    0.93280    0.21610    1.000
    H361     H        0.01500    0.91700    0.21350    1.000
    H362     H        0.92390    0.93550    0.18250    1.000
    C296     C        0.88650    0.90029    0.24695    1.000
    C297     C        0.89230    0.89988    0.29806    1.000
    C298     C        0.82780    0.87170    0.32540    1.000
    C299     C        0.75750    0.84390    0.30162    1.000
    H363     H        0.71340    0.82470    0.32030    1.000
    C300     C        0.75170    0.84440    0.25051    1.000
    C301     C        0.81630    0.87250    0.22317    1.000
    H364     H        0.81230    0.87280    0.18820    1.000
    C302     C        0.83400    0.87290    0.38200    1.000
    C303     C        0.81730    0.92760    0.40060    1.000
    H365     H        0.86680    0.94950    0.38680    1.000
    H366     H        0.82100    0.92840    0.43670    1.000
    H367     H        0.75380    0.93910    0.39000    1.000
    C304     C        0.93050    0.84880    0.40000    1.000
    H368     H        0.93640    0.81520    0.38620    1.000
    H369     H        0.93070    0.84690    0.43600    1.000
    H370     H        0.98470    0.86920    0.38890    1.000
    C305     C        0.75090    0.84000    0.40410    1.000
    H371     H        0.68880    0.85490    0.39580    1.000
    H372     H        0.75780    0.83820    0.44000    1.000
    H373     H        0.75450    0.80640    0.39020    1.000
    C306     C        0.67760    0.81500    0.22450    1.000
    C307     C        0.63460    0.83280    0.18130    1.000
    H374     H        0.65420    0.86390    0.16810    1.000
    C308     C        0.56550    0.80610    0.15820    1.000
    H375     H        0.53300    0.82130    0.13130    1.000
    C309     C        0.58240    0.74170    0.21140    1.000
    H376     H        0.56510    0.70920    0.22210    1.000
    C310     C        0.64780    0.76720    0.23760    1.000
    H377     H        0.67480    0.75220    0.26610    1.000
    C311     C        0.18610    0.68810    0.10350    1.000
    C312     C        0.13170    0.71970    0.14550    1.000
    H378     H        0.16050    0.71250    0.17760    1.000
    H379     H        0.06370    0.71050    0.14600    1.000
    H380     H        0.13790    0.75530    0.13830    1.000
