data_functionalizedCrystal
_audit_creation_method	'EQeq! by Chris Wilmer'
_symmetry_space_group_name_H-M	'P1'
_symmetry_Int_Tables_number	1
_symmetry_cell_setting	triclinic
loop_
_symmetry_equiv_pos_as_xyz
  x,y,z
_cell_length_a	20.4926
_cell_length_b	20.4926
_cell_length_c	20.4926
_cell_angle_alpha	90
_cell_angle_beta	90
_cell_angle_gamma	90
loop_
_atom_site_label
_atom_site_type_symbol
_atom_site_fract_x
_atom_site_fract_y
_atom_site_fract_z
_atom_site_charge
Mof_O 	O 	0.1338	0.8081	0.2438	-0.502
Mof_O 	O 	0.0612	0.8811	0.2123	-0.365
Mof_N 	N 	0.9979	0.6515	0.0112	-0.255
Mof_H 	H 	0.9611	0.6649	0.9938	0.162
Mof_N 	N 	0.9901	0.576	0.9313	-0.181
Mof_C 	C 	0.0873	0.827	0.2074	0.39
Mof_C 	C 	0.0656	0.7799	0.1561	-0.196
Mof_C 	C 	0.0146	0.796	0.1145	0.117
Mof_H 	H 	0.9943	0.8374	0.1182	-0.01
Mof_C 	C 	0.9933	0.7528	0.0681	-0.217
Mof_H 	H 	0.9586	0.7648	0.0397	0.101
Mof_C 	C 	0.0223	0.6905	0.0621	0.198
Mof_C 	C 	0.0741	0.6757	0.1046	-0.227
Mof_H 	H 	0.0958	0.6349	0.1008	0.116
Mof_C 	C 	0.0933	0.7186	0.1507	0.133
Mof_H 	H 	0.1267	0.7063	0.1803	-0.007
Mof_C 	C 	0.0231	0.5962	0.9852	0.192
Mof_O 	O 	0.3662	0.1919	0.7438	-0.501
Mof_O 	O 	0.4388	0.1189	0.7123	-0.365
Mof_N 	N 	0.5021	0.3485	0.5112	-0.255
Mof_H 	H 	0.5389	0.3351	0.4938	0.162
Mof_N 	N 	0.5099	0.424	0.4313	-0.182
Mof_C 	C 	0.4127	0.173	0.7074	0.389
Mof_C 	C 	0.4344	0.2201	0.6561	-0.195
Mof_C 	C 	0.4854	0.204	0.6145	0.116
Mof_H 	H 	0.5057	0.1626	0.6182	-0.01
Mof_C 	C 	0.5067	0.2472	0.5681	-0.216
Mof_H 	H 	0.5414	0.2352	0.5397	0.1
Mof_C 	C 	0.4777	0.3095	0.5621	0.197
Mof_C 	C 	0.4259	0.3243	0.6046	-0.226
Mof_H 	H 	0.4042	0.3651	0.6008	0.116
Mof_C 	C 	0.4067	0.2814	0.6507	0.133
Mof_H 	H 	0.3733	0.2937	0.6803	-0.007
Mof_C 	C 	0.4769	0.4038	0.4852	0.193
Mof_O 	O 	0.8662	0.3081	0.2562	-0.501
Mof_O 	O 	0.9388	0.3811	0.2877	-0.365
Mof_N 	N 	0.0021	0.1515	0.4888	-0.254
Mof_H 	H 	0.0389	0.1649	0.5062	0.162
Mof_N 	N 	0.0099	0.076	0.5687	-0.181
Mof_C 	C 	0.9127	0.327	0.2926	0.389
Mof_C 	C 	0.9344	0.2799	0.3439	-0.194
Mof_C 	C 	0.9854	0.296	0.3855	0.114
Mof_H 	H 	0.0057	0.3374	0.3818	-0.009
Mof_C 	C 	0.0067	0.2528	0.4319	-0.214
Mof_H 	H 	0.0414	0.2648	0.4603	0.1
Mof_C 	C 	0.9777	0.1905	0.4379	0.195
Mof_C 	C 	0.9259	0.1757	0.3954	-0.225
Mof_H 	H 	0.9042	0.1349	0.3992	0.115
Mof_C 	C 	0.9067	0.2186	0.3493	0.132
Mof_H 	H 	0.8733	0.2063	0.3197	-0.007
Mof_C 	C 	0.9769	0.0962	0.5148	0.192
Mof_O 	O 	0.6338	0.6919	0.7562	-0.501
Mof_O 	O 	0.5612	0.6189	0.7877	-0.365
Mof_N 	N 	0.4979	0.8485	0.9888	-0.255
Mof_H 	H 	0.4611	0.8351	0.0062	0.162
Mof_N 	N 	0.4901	0.924	0.0687	-0.181
Mof_C 	C 	0.5873	0.673	0.7926	0.389
Mof_C 	C 	0.5656	0.7201	0.8439	-0.195
Mof_C 	C 	0.5146	0.704	0.8855	0.116
Mof_H 	H 	0.4943	0.6626	0.8818	-0.01
Mof_C 	C 	0.4933	0.7472	0.9319	-0.216
Mof_H 	H 	0.4586	0.7352	0.9603	0.1
Mof_C 	C 	0.5223	0.8095	0.9379	0.197
Mof_C 	C 	0.5741	0.8243	0.8954	-0.226
Mof_H 	H 	0.5958	0.8651	0.8992	0.116
Mof_C 	C 	0.5933	0.7814	0.8493	0.133
Mof_H 	H 	0.6267	0.7937	0.8197	-0.007
Mof_C 	C 	0.5231	0.9038	0.0148	0.192
Mof_O 	O 	0.2438	0.1338	0.8081	-0.501
Mof_O 	O 	0.2123	0.0612	0.8811	-0.365
Mof_N 	N 	0.0112	0.9979	0.6515	-0.255
Mof_H 	H 	0.9938	0.9611	0.6649	0.162
Mof_N 	N 	0.9313	0.9901	0.576	-0.181
Mof_C 	C 	0.2074	0.0873	0.827	0.39
Mof_C 	C 	0.1561	0.0656	0.7799	-0.196
Mof_C 	C 	0.1145	0.0146	0.796	0.117
Mof_H 	H 	0.1182	0.9943	0.8374	-0.01
Mof_C 	C 	0.0681	0.9933	0.7528	-0.217
Mof_H 	H 	0.0397	0.9586	0.7648	0.101
Mof_C 	C 	0.0621	0.0223	0.6905	0.198
Mof_C 	C 	0.1046	0.0741	0.6757	-0.227
Mof_H 	H 	0.1008	0.0958	0.6349	0.116
Mof_C 	C 	0.1507	0.0933	0.7186	0.133
Mof_H 	H 	0.1803	0.1267	0.7063	-0.007
Mof_C 	C 	0.9852	0.0231	0.5962	0.192
Mof_O 	O 	0.7438	0.3662	0.1919	-0.501
Mof_O 	O 	0.7123	0.4388	0.1189	-0.365
Mof_N 	N 	0.5112	0.5021	0.3485	-0.255
Mof_H 	H 	0.4938	0.5389	0.3351	0.162
Mof_N 	N 	0.4313	0.5099	0.424	-0.182
Mof_C 	C 	0.7074	0.4127	0.173	0.389
Mof_C 	C 	0.6561	0.4344	0.2201	-0.195
Mof_C 	C 	0.6145	0.4854	0.204	0.116
Mof_H 	H 	0.6182	0.5057	0.1626	-0.01
Mof_C 	C 	0.5681	0.5067	0.2472	-0.216
Mof_H 	H 	0.5397	0.5414	0.2352	0.1
Mof_C 	C 	0.5621	0.4777	0.3095	0.197
Mof_C 	C 	0.6046	0.4259	0.3243	-0.226
Mof_H 	H 	0.6008	0.4042	0.3651	0.116
Mof_C 	C 	0.6507	0.4067	0.2814	0.133
Mof_H 	H 	0.6803	0.3733	0.2937	-0.007
Mof_C 	C 	0.4852	0.4769	0.4038	0.193
Mof_O 	O 	0.2562	0.8662	0.3081	-0.501
Mof_O 	O 	0.2877	0.9388	0.3811	-0.365
Mof_N 	N 	0.4888	0.0021	0.1515	-0.254
Mof_H 	H 	0.5062	0.0389	0.1649	0.162
Mof_N 	N 	0.5687	0.0099	0.076	-0.181
Mof_C 	C 	0.2926	0.9127	0.327	0.389
Mof_C 	C 	0.3439	0.9344	0.2799	-0.194
Mof_C 	C 	0.3855	0.9854	0.296	0.114
Mof_H 	H 	0.3818	0.0057	0.3374	-0.009
Mof_C 	C 	0.4319	0.0067	0.2528	-0.214
Mof_H 	H 	0.4603	0.0414	0.2648	0.1
Mof_C 	C 	0.4379	0.9777	0.1905	0.195
Mof_C 	C 	0.3954	0.9259	0.1757	-0.225
Mof_H 	H 	0.3992	0.9042	0.1349	0.115
Mof_C 	C 	0.3493	0.9067	0.2186	0.132
Mof_H 	H 	0.3197	0.8733	0.2063	-0.007
Mof_C 	C 	0.5148	0.9769	0.0962	0.192
Mof_O 	O 	0.7562	0.6338	0.6919	-0.501
Mof_O 	O 	0.7877	0.5612	0.6189	-0.365
Mof_N 	N 	0.9888	0.4979	0.8485	-0.255
Mof_H 	H 	0.0062	0.4611	0.8351	0.162
Mof_N 	N 	0.0687	0.4901	0.924	-0.181
Mof_C 	C 	0.7926	0.5873	0.673	0.389
Mof_C 	C 	0.8439	0.5656	0.7201	-0.195
Mof_C 	C 	0.8855	0.5146	0.704	0.116
Mof_H 	H 	0.8818	0.4943	0.6626	-0.01
Mof_C 	C 	0.9319	0.4933	0.7472	-0.216
Mof_H 	H 	0.9603	0.4586	0.7352	0.1
Mof_C 	C 	0.9379	0.5223	0.8095	0.197
Mof_C 	C 	0.8954	0.5741	0.8243	-0.226
Mof_H 	H 	0.8992	0.5958	0.8651	0.116
Mof_C 	C 	0.8493	0.5933	0.7814	0.133
Mof_H 	H 	0.8197	0.6267	0.7937	-0.007
Mof_C 	C 	0.0148	0.5231	0.9038	0.192
Mof_O 	O 	0.8081	0.2438	0.1338	-0.501
Mof_O 	O 	0.8811	0.2123	0.0612	-0.365
Mof_N 	N 	0.6515	0.0112	0.9979	-0.255
Mof_H 	H 	0.6649	0.9938	0.9611	0.162
Mof_N 	N 	0.576	0.9313	0.9901	-0.181
Mof_C 	C 	0.827	0.2074	0.0873	0.39
Mof_C 	C 	0.7799	0.1561	0.0656	-0.196
Mof_C 	C 	0.796	0.1145	0.0146	0.117
Mof_H 	H 	0.8374	0.1182	0.9943	-0.01
Mof_C 	C 	0.7528	0.0681	0.9933	-0.217
Mof_H 	H 	0.7648	0.0397	0.9586	0.101
Mof_C 	C 	0.6905	0.0621	0.0223	0.198
Mof_C 	C 	0.6757	0.1046	0.0741	-0.227
Mof_H 	H 	0.6349	0.1008	0.0958	0.116
Mof_C 	C 	0.7186	0.1507	0.0933	0.133
Mof_H 	H 	0.7063	0.1803	0.1267	-0.007
Mof_C 	C 	0.5962	0.9852	0.0231	0.192
Mof_O 	O 	0.1919	0.7438	0.3662	-0.501
Mof_O 	O 	0.1189	0.7123	0.4388	-0.365
Mof_N 	N 	0.3485	0.5112	0.5021	-0.255
Mof_H 	H 	0.3351	0.4938	0.5389	0.162
Mof_N 	N 	0.424	0.4313	0.5099	-0.182
Mof_C 	C 	0.173	0.7074	0.4127	0.389
Mof_C 	C 	0.2201	0.6561	0.4344	-0.195
Mof_C 	C 	0.204	0.6145	0.4854	0.116
Mof_H 	H 	0.1626	0.6182	0.5057	-0.01
Mof_C 	C 	0.2472	0.5681	0.5067	-0.216
Mof_H 	H 	0.2352	0.5397	0.5414	0.1
Mof_C 	C 	0.3095	0.5621	0.4777	0.197
Mof_C 	C 	0.3243	0.6046	0.4259	-0.226
Mof_H 	H 	0.3651	0.6008	0.4042	0.116
Mof_C 	C 	0.2814	0.6507	0.4067	0.133
Mof_H 	H 	0.2937	0.6803	0.3733	-0.007
Mof_C 	C 	0.4038	0.4852	0.4769	0.193
Mof_O 	O 	0.3081	0.2562	0.8662	-0.501
Mof_O 	O 	0.3811	0.2877	0.9388	-0.365
Mof_N 	N 	0.1515	0.4888	0.0021	-0.254
Mof_H 	H 	0.1649	0.5062	0.0389	0.162
Mof_N 	N 	0.076	0.5687	0.0099	-0.181
Mof_C 	C 	0.327	0.2926	0.9127	0.389
Mof_C 	C 	0.2799	0.3439	0.9344	-0.194
Mof_C 	C 	0.296	0.3855	0.9854	0.114
Mof_H 	H 	0.3374	0.3818	0.0057	-0.009
Mof_C 	C 	0.2528	0.4319	0.0067	-0.214
Mof_H 	H 	0.2648	0.4603	0.0414	0.1
Mof_C 	C 	0.1905	0.4379	0.9777	0.195
Mof_C 	C 	0.1757	0.3954	0.9259	-0.225
Mof_H 	H 	0.1349	0.3992	0.9042	0.115
Mof_C 	C 	0.2186	0.3493	0.9067	0.132
Mof_H 	H 	0.2063	0.3197	0.8733	-0.007
Mof_C 	C 	0.0962	0.5148	0.9769	0.192
Mof_O 	O 	0.6919	0.7562	0.6338	-0.501
Mof_O 	O 	0.6189	0.7877	0.5612	-0.365
Mof_N 	N 	0.8485	0.9888	0.4979	-0.255
Mof_H 	H 	0.8351	0.0062	0.4611	0.162
Mof_N 	N 	0.924	0.0687	0.4901	-0.181
Mof_C 	C 	0.673	0.7926	0.5873	0.389
Mof_C 	C 	0.7201	0.8439	0.5656	-0.195
Mof_C 	C 	0.704	0.8855	0.5146	0.116
Mof_H 	H 	0.6626	0.8818	0.4943	-0.01
Mof_C 	C 	0.7472	0.9319	0.4933	-0.216
Mof_H 	H 	0.7352	0.9603	0.4586	0.1
Mof_C 	C 	0.8095	0.9379	0.5223	0.197
Mof_C 	C 	0.8243	0.8954	0.5741	-0.226
Mof_H 	H 	0.8651	0.8992	0.5958	0.116
Mof_C 	C 	0.7814	0.8493	0.5933	0.133
Mof_H 	H 	0.7937	0.8197	0.6267	-0.007
Mof_C 	C 	0.9038	0.0148	0.5231	0.192
Mof_Sm	Sm	0.15332	0.84668	0.34668	1.661
Mof_Sm	Sm	0.34668	0.15332	0.84668	1.661
Mof_Sm	Sm	0.84668	0.34668	0.15332	1.661
Mof_Sm	Sm	0.65332	0.65332	0.65332	1.661
Mof_O 	O 	0.2344	0.6171	0.1794	-0.552
Mof_O 	O 	0.2086	0.5332	0.1162	-0.353
Mof_N 	N 	0.0073	0.4904	0.3497	-0.254
Mof_H 	H 	0.9882	0.4536	0.3384	0.153
Mof_N 	N 	0.0116	0.571	0.4295	-0.18
Mof_C 	C 	0.2017	0.5662	0.1665	0.426
Mof_C 	C 	0.1519	0.5461	0.2169	-0.212
Mof_C 	C 	0.147	0.5785	0.2749	0.141
Mof_H 	H 	0.1759	0.6136	0.2837	-0.013
Mof_C 	C 	0.1007	0.5614	0.3211	-0.232
Mof_H 	H 	0.0984	0.5842	0.3614	0.122
Mof_C 	C 	0.0576	0.5104	0.308	0.206
Mof_C 	C 	0.0626	0.4777	0.2483	-0.232
Mof_H 	H 	0.0333	0.4431	0.2386	0.094
Mof_C 	C 	0.109	0.4948	0.204	0.129
Mof_H 	H 	0.1123	0.4717	0.164	-0.017
Mof_C 	C 	0.9833	0.5182	0.4046	0.194
Mof_O 	O 	0.2656	0.3829	0.6794	-0.552
Mof_O 	O 	0.2914	0.4668	0.6162	-0.353
Mof_N 	N 	0.4927	0.5096	0.8497	-0.254
Mof_H 	H 	0.5118	0.5464	0.8384	0.153
Mof_N 	N 	0.4884	0.429	0.9295	-0.18
Mof_C 	C 	0.2983	0.4338	0.6665	0.426
Mof_C 	C 	0.3481	0.4539	0.7169	-0.212
Mof_C 	C 	0.353	0.4215	0.7749	0.141
Mof_H 	H 	0.3241	0.3864	0.7837	-0.013
Mof_C 	C 	0.3993	0.4386	0.8211	-0.232
Mof_H 	H 	0.4016	0.4158	0.8614	0.122
Mof_C 	C 	0.4424	0.4896	0.808	0.206
Mof_C 	C 	0.4374	0.5223	0.7483	-0.232
Mof_H 	H 	0.4667	0.5569	0.7386	0.094
Mof_C 	C 	0.391	0.5052	0.704	0.129
Mof_H 	H 	0.3877	0.5283	0.664	-0.017
Mof_C 	C 	0.5167	0.4818	0.9046	0.194
Mof_O 	O 	0.7656	0.1171	0.3206	-0.552
Mof_O 	O 	0.7914	0.0332	0.3838	-0.353
Mof_N 	N 	0.9927	0.9904	0.1503	-0.255
Mof_H 	H 	0.0118	0.9536	0.1616	0.153
Mof_N 	N 	0.9884	0.071	0.0705	-0.181
Mof_C 	C 	0.7983	0.0662	0.3335	0.426
Mof_C 	C 	0.8481	0.0461	0.2831	-0.212
Mof_C 	C 	0.853	0.0785	0.2251	0.141
Mof_H 	H 	0.8241	0.1136	0.2163	-0.013
Mof_C 	C 	0.8993	0.0614	0.1789	-0.232
Mof_H 	H 	0.9016	0.0842	0.1386	0.122
Mof_C 	C 	0.9424	0.0104	0.192	0.206
Mof_C 	C 	0.9374	0.9777	0.2517	-0.232
Mof_H 	H 	0.9667	0.9431	0.2614	0.093
Mof_C 	C 	0.891	0.9948	0.296	0.129
Mof_H 	H 	0.8877	0.9717	0.336	-0.017
Mof_C 	C 	0.0167	0.0182	0.0954	0.195
Mof_O 	O 	0.7344	0.8829	0.8206	-0.552
Mof_O 	O 	0.7086	0.9668	0.8838	-0.353
Mof_N 	N 	0.5073	0.0096	0.6503	-0.254
Mof_H 	H 	0.4882	0.0464	0.6616	0.153
Mof_N 	N 	0.5116	0.929	0.5705	-0.18
Mof_C 	C 	0.7017	0.9338	0.8335	0.426
Mof_C 	C 	0.6519	0.9539	0.7831	-0.212
Mof_C 	C 	0.647	0.9215	0.7251	0.141
Mof_H 	H 	0.6759	0.8864	0.7163	-0.013
Mof_C 	C 	0.6007	0.9386	0.6789	-0.232
Mof_H 	H 	0.5984	0.9158	0.6386	0.122
Mof_C 	C 	0.5576	0.9896	0.692	0.206
Mof_C 	C 	0.5626	0.0223	0.7517	-0.231
Mof_H 	H 	0.5333	0.0569	0.7614	0.093
Mof_C 	C 	0.609	0.0052	0.796	0.129
Mof_H 	H 	0.6123	0.0283	0.836	-0.017
Mof_C 	C 	0.4833	0.9818	0.5954	0.194
Mof_O 	O 	0.1794	0.2344	0.6171	-0.552
Mof_O 	O 	0.1162	0.2086	0.5332	-0.353
Mof_N 	N 	0.3497	0.0073	0.4904	-0.254
Mof_H 	H 	0.3384	0.9882	0.4536	0.153
Mof_N 	N 	0.4295	0.0116	0.571	-0.18
Mof_C 	C 	0.1665	0.2017	0.5662	0.426
Mof_C 	C 	0.2169	0.1519	0.5461	-0.212
Mof_C 	C 	0.2749	0.147	0.5785	0.141
Mof_H 	H 	0.2837	0.1759	0.6136	-0.013
Mof_C 	C 	0.3211	0.1007	0.5614	-0.232
Mof_H 	H 	0.3614	0.0984	0.5842	0.122
Mof_C 	C 	0.308	0.0576	0.5104	0.206
Mof_C 	C 	0.2483	0.0626	0.4777	-0.232
Mof_H 	H 	0.2386	0.0333	0.4431	0.094
Mof_C 	C 	0.204	0.109	0.4948	0.129
Mof_H 	H 	0.164	0.1123	0.4717	-0.017
Mof_C 	C 	0.4046	0.9833	0.5182	0.194
Mof_O 	O 	0.6794	0.2656	0.3829	-0.552
Mof_O 	O 	0.6162	0.2914	0.4668	-0.353
Mof_N 	N 	0.8497	0.4927	0.5096	-0.254
Mof_H 	H 	0.8384	0.5118	0.5464	0.153
Mof_N 	N 	0.9295	0.4884	0.429	-0.18
Mof_C 	C 	0.6665	0.2983	0.4338	0.426
Mof_C 	C 	0.7169	0.3481	0.4539	-0.212
Mof_C 	C 	0.7749	0.353	0.4215	0.141
Mof_H 	H 	0.7837	0.3241	0.3864	-0.013
Mof_C 	C 	0.8211	0.3993	0.4386	-0.232
Mof_H 	H 	0.8614	0.4016	0.4158	0.122
Mof_C 	C 	0.808	0.4424	0.4896	0.206
Mof_C 	C 	0.7483	0.4374	0.5223	-0.232
Mof_H 	H 	0.7386	0.4667	0.5569	0.094
Mof_C 	C 	0.704	0.391	0.5052	0.129
Mof_H 	H 	0.664	0.3877	0.5283	-0.017
Mof_C 	C 	0.9046	0.5167	0.4818	0.194
Mof_O 	O 	0.3206	0.7656	0.1171	-0.552
Mof_O 	O 	0.3838	0.7914	0.0332	-0.353
Mof_N 	N 	0.1503	0.9927	0.9904	-0.255
Mof_H 	H 	0.1616	0.0118	0.9536	0.153
Mof_N 	N 	0.0705	0.9884	0.071	-0.181
Mof_C 	C 	0.3335	0.7983	0.0662	0.426
Mof_C 	C 	0.2831	0.8481	0.0461	-0.212
Mof_C 	C 	0.2251	0.853	0.0785	0.141
Mof_H 	H 	0.2163	0.8241	0.1136	-0.013
Mof_C 	C 	0.1789	0.8993	0.0614	-0.232
Mof_H 	H 	0.1386	0.9016	0.0842	0.122
Mof_C 	C 	0.192	0.9424	0.0104	0.206
Mof_C 	C 	0.2517	0.9374	0.9777	-0.232
Mof_H 	H 	0.2614	0.9667	0.9431	0.093
Mof_C 	C 	0.296	0.891	0.9948	0.129
Mof_H 	H 	0.336	0.8877	0.9717	-0.017
Mof_C 	C 	0.0954	0.0167	0.0182	0.195
Mof_O 	O 	0.8206	0.7344	0.8829	-0.552
Mof_O 	O 	0.8838	0.7086	0.9668	-0.353
Mof_N 	N 	0.6503	0.5073	0.0096	-0.254
Mof_H 	H 	0.6616	0.4882	0.0464	0.153
Mof_N 	N 	0.5705	0.5116	0.929	-0.18
Mof_C 	C 	0.8335	0.7017	0.9338	0.426
Mof_C 	C 	0.7831	0.6519	0.9539	-0.212
Mof_C 	C 	0.7251	0.647	0.9215	0.141
Mof_H 	H 	0.7163	0.6759	0.8864	-0.013
Mof_C 	C 	0.6789	0.6007	0.9386	-0.232
Mof_H 	H 	0.6386	0.5984	0.9158	0.122
Mof_C 	C 	0.692	0.5576	0.9896	0.206
Mof_C 	C 	0.7517	0.5626	0.0223	-0.231
Mof_H 	H 	0.7614	0.5333	0.0569	0.093
Mof_C 	C 	0.796	0.609	0.0052	0.129
Mof_H 	H 	0.836	0.6123	0.0283	-0.017
Mof_C 	C 	0.5954	0.4833	0.9818	0.194
Mof_O 	O 	0.6171	0.1794	0.2344	-0.552
Mof_O 	O 	0.5332	0.1162	0.2086	-0.353
Mof_N 	N 	0.4904	0.3497	0.0073	-0.254
Mof_H 	H 	0.4536	0.3384	0.9882	0.153
Mof_N 	N 	0.571	0.4295	0.0116	-0.18
Mof_C 	C 	0.5662	0.1665	0.2017	0.426
Mof_C 	C 	0.5461	0.2169	0.1519	-0.212
Mof_C 	C 	0.5785	0.2749	0.147	0.141
Mof_H 	H 	0.6136	0.2837	0.1759	-0.013
Mof_C 	C 	0.5614	0.3211	0.1007	-0.232
Mof_H 	H 	0.5842	0.3614	0.0984	0.122
Mof_C 	C 	0.5104	0.308	0.0576	0.206
Mof_C 	C 	0.4777	0.2483	0.0626	-0.232
Mof_H 	H 	0.4431	0.2386	0.0333	0.094
Mof_C 	C 	0.4948	0.204	0.109	0.129
Mof_H 	H 	0.4717	0.164	0.1123	-0.017
Mof_C 	C 	0.5182	0.4046	0.9833	0.194
Mof_O 	O 	0.3829	0.6794	0.2656	-0.552
Mof_O 	O 	0.4668	0.6162	0.2914	-0.353
Mof_N 	N 	0.5096	0.8497	0.4927	-0.254
Mof_H 	H 	0.5464	0.8384	0.5118	0.153
Mof_N 	N 	0.429	0.9295	0.4884	-0.18
Mof_C 	C 	0.4338	0.6665	0.2983	0.426
Mof_C 	C 	0.4539	0.7169	0.3481	-0.212
Mof_C 	C 	0.4215	0.7749	0.353	0.141
Mof_H 	H 	0.3864	0.7837	0.3241	-0.013
Mof_C 	C 	0.4386	0.8211	0.3993	-0.232
Mof_H 	H 	0.4158	0.8614	0.4016	0.122
Mof_C 	C 	0.4896	0.808	0.4424	0.206
Mof_C 	C 	0.5223	0.7483	0.4374	-0.232
Mof_H 	H 	0.5569	0.7386	0.4667	0.094
Mof_C 	C 	0.5052	0.704	0.391	0.129
Mof_H 	H 	0.5283	0.664	0.3877	-0.017
Mof_C 	C 	0.4818	0.9046	0.5167	0.194
Mof_O 	O 	0.1171	0.3206	0.7656	-0.552
Mof_O 	O 	0.0332	0.3838	0.7914	-0.353
Mof_N 	N 	0.9904	0.1503	0.9927	-0.255
Mof_H 	H 	0.9536	0.1616	0.0118	0.153
Mof_N 	N 	0.071	0.0705	0.9884	-0.181
Mof_C 	C 	0.0662	0.3335	0.7983	0.426
Mof_C 	C 	0.0461	0.2831	0.8481	-0.212
Mof_C 	C 	0.0785	0.2251	0.853	0.141
Mof_H 	H 	0.1136	0.2163	0.8241	-0.013
Mof_C 	C 	0.0614	0.1789	0.8993	-0.232
Mof_H 	H 	0.0842	0.1386	0.9016	0.122
Mof_C 	C 	0.0104	0.192	0.9424	0.206
Mof_C 	C 	0.9777	0.2517	0.9374	-0.232
Mof_H 	H 	0.9431	0.2614	0.9667	0.093
Mof_C 	C 	0.9948	0.296	0.891	0.129
Mof_H 	H 	0.9717	0.336	0.8877	-0.017
Mof_C 	C 	0.0182	0.0954	0.0167	0.195
Mof_O 	O 	0.8829	0.8206	0.7344	-0.552
Mof_O 	O 	0.9668	0.8838	0.7086	-0.353
Mof_N 	N 	0.0096	0.6503	0.5073	-0.254
Mof_H 	H 	0.0464	0.6616	0.4882	0.153
Mof_N 	N 	0.929	0.5705	0.5116	-0.18
Mof_C 	C 	0.9338	0.8335	0.7017	0.426
Mof_C 	C 	0.9539	0.7831	0.6519	-0.212
Mof_C 	C 	0.9215	0.7251	0.647	0.141
Mof_H 	H 	0.8864	0.7163	0.6759	-0.013
Mof_C 	C 	0.9386	0.6789	0.6007	-0.232
Mof_H 	H 	0.9158	0.6386	0.5984	0.122
Mof_C 	C 	0.9896	0.692	0.5576	0.206
Mof_C 	C 	0.0223	0.7517	0.5626	-0.231
Mof_H 	H 	0.0569	0.7614	0.5333	0.093
Mof_C 	C 	0.0052	0.796	0.609	0.129
Mof_H 	H 	0.0283	0.836	0.6123	-0.017
Mof_C 	C 	0.9818	0.5954	0.4833	0.194
Mof_Sm	Sm	0.33357	0.66643	0.16643	1.733
Mof_Sm	Sm	0.16643	0.33357	0.66643	1.733
Mof_Sm	Sm	0.66643	0.16643	0.33357	1.733
Mof_Sm	Sm	0.83357	0.83357	0.83357	1.733
_end
