data_functionalizedCrystal
_audit_creation_method	'EQeq! by Chris Wilmer'
_symmetry_space_group_name_H-M	'P1'
_symmetry_Int_Tables_number	1
_symmetry_cell_setting	triclinic
loop_
_symmetry_equiv_pos_as_xyz
  x,y,z
_cell_length_a	43.127
_cell_length_b	43.127
_cell_length_c	43.127
_cell_angle_alpha	90
_cell_angle_beta	90
_cell_angle_gamma	90
loop_
_atom_site_label
_atom_site_type_symbol
_atom_site_fract_x
_atom_site_fract_y
_atom_site_fract_z
_atom_site_charge
Mof_C 	C 	0.1222	0.3207	0.54184	0.364
Mof_C 	C 	0.10616	0.3041	0.56664	-0.1
Mof_C 	C 	0.116	0.2746	0.5764	0
Mof_H 	H 	0.133	0.2647	0.5665	0.044
Mof_C 	C 	0.1447	0.2238	0.6136	-0.038
Mof_H 	H 	0.159	0.2391	0.6066	0.046
Mof_C 	C 	0.1543	0.1955	0.6265	-0.06
Mof_H 	H 	0.1756	0.1923	0.6314	0.043
Mof_C 	C 	0.0884	0.2059	0.6185	-0.037
Mof_H 	H 	0.0669	0.21	0.6158	0.044
Mof_C 	C 	0.1297	0.1772	0.5998	-0.071
Mof_H 	H 	0.1356	0.1614	0.5856	0.053
Mof_O 	O 	0.1473	0.30814	0.53156	-0.405
Mof_O 	O 	0.11089	0.34526	0.53202	-0.412
Mof_C 	C 	0.1222	0.8207	0.04184	0.364
Mof_C 	C 	0.10616	0.8041	0.06664	-0.101
Mof_C 	C 	0.116	0.7746	0.0764	0
Mof_H 	H 	0.133	0.7647	0.0665	0.044
Mof_C 	C 	0.1447	0.7238	0.1136	-0.039
Mof_H 	H 	0.159	0.7391	0.1066	0.044
Mof_C 	C 	0.1543	0.6955	0.1265	-0.062
Mof_H 	H 	0.1756	0.6923	0.1314	0.042
Mof_C 	C 	0.0884	0.7059	0.1185	-0.038
Mof_H 	H 	0.0669	0.71	0.1158	0.042
Mof_C 	C 	0.1297	0.6772	0.0998	-0.072
Mof_H 	H 	0.1356	0.6614	0.0856	0.051
Mof_O 	O 	0.1473	0.80814	0.03156	-0.407
Mof_O 	O 	0.11089	0.84526	0.03202	-0.414
Mof_C 	C 	0.6222	0.3207	0.04184	0.363
Mof_C 	C 	0.60616	0.3041	0.06664	-0.102
Mof_C 	C 	0.616	0.2746	0.0764	-0.001
Mof_H 	H 	0.633	0.2647	0.0665	0.043
Mof_C 	C 	0.6447	0.2238	0.1136	-0.039
Mof_H 	H 	0.659	0.2391	0.1066	0.044
Mof_C 	C 	0.6543	0.1955	0.1265	-0.062
Mof_H 	H 	0.6756	0.1923	0.1314	0.042
Mof_C 	C 	0.5884	0.2059	0.1185	-0.038
Mof_H 	H 	0.5669	0.21	0.1158	0.043
Mof_C 	C 	0.6297	0.1772	0.0998	-0.072
Mof_H 	H 	0.6356	0.1614	0.0856	0.051
Mof_O 	O 	0.6473	0.30814	0.03156	-0.407
Mof_O 	O 	0.61089	0.34526	0.03202	-0.414
Mof_C 	C 	0.6222	0.8207	0.54184	0.363
Mof_C 	C 	0.60616	0.8041	0.56664	-0.101
Mof_C 	C 	0.616	0.7746	0.5764	-0.002
Mof_H 	H 	0.633	0.7647	0.5665	0.043
Mof_C 	C 	0.6447	0.7238	0.6136	-0.039
Mof_H 	H 	0.659	0.7391	0.6066	0.044
Mof_C 	C 	0.6543	0.6955	0.6265	-0.062
Mof_H 	H 	0.6756	0.6923	0.6314	0.042
Mof_C 	C 	0.5884	0.7059	0.6185	-0.038
Mof_H 	H 	0.5669	0.71	0.6158	0.044
Mof_C 	C 	0.6297	0.6772	0.5998	-0.072
Mof_H 	H 	0.6356	0.6614	0.5856	0.052
Mof_O 	O 	0.6473	0.80814	0.53156	-0.406
Mof_O 	O 	0.61089	0.84526	0.53202	-0.412
Mof_C 	C 	0.8778	0.6793	0.54184	0.363
Mof_C 	C 	0.89384	0.6959	0.56664	-0.1
Mof_C 	C 	0.884	0.7254	0.5764	-0.002
Mof_H 	H 	0.867	0.7353	0.5665	0.044
Mof_C 	C 	0.8553	0.7762	0.6136	-0.039
Mof_H 	H 	0.841	0.7609	0.6066	0.044
Mof_C 	C 	0.8457	0.8045	0.6265	-0.062
Mof_H 	H 	0.8244	0.8077	0.6314	0.042
Mof_C 	C 	0.9116	0.7941	0.6185	-0.038
Mof_H 	H 	0.9331	0.79	0.6158	0.044
Mof_C 	C 	0.8703	0.8228	0.5998	-0.072
Mof_H 	H 	0.8644	0.8386	0.5856	0.052
Mof_O 	O 	0.8527	0.69186	0.53156	-0.406
Mof_O 	O 	0.88911	0.65474	0.53202	-0.412
Mof_C 	C 	0.8778	0.1793	0.04184	0.363
Mof_C 	C 	0.89384	0.1959	0.06664	-0.101
Mof_C 	C 	0.884	0.2254	0.0764	-0.002
Mof_H 	H 	0.867	0.2353	0.0665	0.043
Mof_C 	C 	0.8553	0.2762	0.1136	-0.039
Mof_H 	H 	0.841	0.2609	0.1066	0.044
Mof_C 	C 	0.8457	0.3045	0.1265	-0.062
Mof_H 	H 	0.8244	0.3077	0.1314	0.042
Mof_C 	C 	0.9116	0.2941	0.1185	-0.038
Mof_H 	H 	0.9331	0.29	0.1158	0.044
Mof_C 	C 	0.8703	0.3228	0.0998	-0.072
Mof_H 	H 	0.8644	0.3386	0.0856	0.052
Mof_O 	O 	0.8527	0.19186	0.03156	-0.407
Mof_O 	O 	0.88911	0.15474	0.03202	-0.413
Mof_C 	C 	0.3778	0.6793	0.04184	0.363
Mof_C 	C 	0.39384	0.6959	0.06664	-0.102
Mof_C 	C 	0.384	0.7254	0.0764	-0.001
Mof_H 	H 	0.367	0.7353	0.0665	0.043
Mof_C 	C 	0.3553	0.7762	0.1136	-0.039
Mof_H 	H 	0.341	0.7609	0.1066	0.044
Mof_C 	C 	0.3457	0.8045	0.1265	-0.062
Mof_H 	H 	0.3244	0.8077	0.1314	0.042
Mof_C 	C 	0.4116	0.7941	0.1185	-0.038
Mof_H 	H 	0.4331	0.79	0.1158	0.043
Mof_C 	C 	0.3703	0.8228	0.0998	-0.072
Mof_H 	H 	0.3644	0.8386	0.0856	0.052
Mof_O 	O 	0.3527	0.69186	0.03156	-0.407
Mof_O 	O 	0.38911	0.65474	0.03202	-0.414
Mof_C 	C 	0.3778	0.1793	0.54184	0.363
Mof_C 	C 	0.39384	0.1959	0.56664	-0.101
Mof_C 	C 	0.384	0.2254	0.5764	-0.001
Mof_H 	H 	0.367	0.2353	0.5665	0.044
Mof_C 	C 	0.3553	0.2762	0.6136	-0.039
Mof_H 	H 	0.341	0.2609	0.6066	0.045
Mof_C 	C 	0.3457	0.3045	0.6265	-0.062
Mof_H 	H 	0.3244	0.3077	0.6314	0.042
Mof_C 	C 	0.4116	0.2941	0.6185	-0.038
Mof_H 	H 	0.4331	0.29	0.6158	0.044
Mof_C 	C 	0.3703	0.3228	0.5998	-0.072
Mof_H 	H 	0.3644	0.3386	0.5856	0.052
Mof_O 	O 	0.3527	0.19186	0.53156	-0.406
Mof_O 	O 	0.38911	0.15474	0.53202	-0.412
Mof_C 	C 	0.8778	0.3207	0.45816	0.363
Mof_C 	C 	0.89384	0.3041	0.43336	-0.1
Mof_C 	C 	0.884	0.2746	0.4236	-0.002
Mof_H 	H 	0.867	0.2647	0.4335	0.044
Mof_C 	C 	0.8553	0.2238	0.3864	-0.039
Mof_H 	H 	0.841	0.2391	0.3934	0.044
Mof_C 	C 	0.8457	0.1955	0.3735	-0.062
Mof_H 	H 	0.8244	0.1923	0.3686	0.042
Mof_C 	C 	0.9116	0.2059	0.3815	-0.038
Mof_H 	H 	0.9331	0.21	0.3842	0.044
Mof_C 	C 	0.8703	0.1772	0.4002	-0.072
Mof_H 	H 	0.8644	0.1614	0.4144	0.052
Mof_O 	O 	0.8527	0.30814	0.46844	-0.406
Mof_O 	O 	0.88911	0.34526	0.46798	-0.412
Mof_C 	C 	0.8778	0.8207	0.95816	0.362
Mof_C 	C 	0.89384	0.8041	0.93336	-0.099
Mof_C 	C 	0.884	0.7746	0.9236	-0.002
Mof_H 	H 	0.867	0.7647	0.9335	0.044
Mof_C 	C 	0.8553	0.7238	0.8864	-0.039
Mof_H 	H 	0.841	0.7391	0.8934	0.045
Mof_C 	C 	0.8457	0.6955	0.8735	-0.062
Mof_H 	H 	0.8244	0.6923	0.8686	0.042
Mof_C 	C 	0.9116	0.7059	0.8815	-0.038
Mof_H 	H 	0.9331	0.71	0.8842	0.045
Mof_C 	C 	0.8703	0.6772	0.9002	-0.072
Mof_H 	H 	0.8644	0.6614	0.9144	0.052
Mof_O 	O 	0.8527	0.80814	0.96844	-0.403
Mof_O 	O 	0.88911	0.84526	0.96798	-0.409
Mof_C 	C 	0.3778	0.3207	0.95816	0.363
Mof_C 	C 	0.39384	0.3041	0.93336	-0.1
Mof_C 	C 	0.384	0.2746	0.9236	-0.002
Mof_H 	H 	0.367	0.2647	0.9335	0.044
Mof_C 	C 	0.3553	0.2238	0.8864	-0.039
Mof_H 	H 	0.341	0.2391	0.8934	0.045
Mof_C 	C 	0.3457	0.1955	0.8735	-0.061
Mof_H 	H 	0.3244	0.1923	0.8686	0.042
Mof_C 	C 	0.4116	0.2059	0.8815	-0.038
Mof_H 	H 	0.4331	0.21	0.8842	0.044
Mof_C 	C 	0.3703	0.1772	0.9002	-0.072
Mof_H 	H 	0.3644	0.1614	0.9144	0.052
Mof_O 	O 	0.3527	0.30814	0.96844	-0.403
Mof_O 	O 	0.38911	0.34526	0.96798	-0.409
Mof_C 	C 	0.3778	0.8207	0.45816	0.363
Mof_C 	C 	0.39384	0.8041	0.43336	-0.101
Mof_C 	C 	0.384	0.7746	0.4236	-0.002
Mof_H 	H 	0.367	0.7647	0.4335	0.044
Mof_C 	C 	0.3553	0.7238	0.3864	-0.039
Mof_H 	H 	0.341	0.7391	0.3934	0.044
Mof_C 	C 	0.3457	0.6955	0.3735	-0.062
Mof_H 	H 	0.3244	0.6923	0.3686	0.042
Mof_C 	C 	0.4116	0.7059	0.3815	-0.038
Mof_H 	H 	0.4331	0.71	0.3842	0.044
Mof_C 	C 	0.3703	0.6772	0.4002	-0.072
Mof_H 	H 	0.3644	0.6614	0.4144	0.052
Mof_O 	O 	0.3527	0.80814	0.46844	-0.406
Mof_O 	O 	0.38911	0.84526	0.46798	-0.412
Mof_C 	C 	0.1222	0.6793	0.45816	0.363
Mof_C 	C 	0.10616	0.6959	0.43336	-0.101
Mof_C 	C 	0.116	0.7254	0.4236	-0.001
Mof_H 	H 	0.133	0.7353	0.4335	0.043
Mof_C 	C 	0.1447	0.7762	0.3864	-0.039
Mof_H 	H 	0.159	0.7609	0.3934	0.044
Mof_C 	C 	0.1543	0.8045	0.3735	-0.062
Mof_H 	H 	0.1756	0.8077	0.3686	0.042
Mof_C 	C 	0.0884	0.7941	0.3815	-0.038
Mof_H 	H 	0.0669	0.79	0.3842	0.043
Mof_C 	C 	0.1297	0.8228	0.4002	-0.072
Mof_H 	H 	0.1356	0.8386	0.4144	0.052
Mof_O 	O 	0.1473	0.69186	0.46844	-0.406
Mof_O 	O 	0.11089	0.65474	0.46798	-0.413
Mof_C 	C 	0.1222	0.1793	0.95816	0.363
Mof_C 	C 	0.10616	0.1959	0.93336	-0.1
Mof_C 	C 	0.116	0.2254	0.9236	-0.002
Mof_H 	H 	0.133	0.2353	0.9335	0.044
Mof_C 	C 	0.1447	0.2762	0.8864	-0.039
Mof_H 	H 	0.159	0.2609	0.8934	0.045
Mof_C 	C 	0.1543	0.3045	0.8735	-0.061
Mof_H 	H 	0.1756	0.3077	0.8686	0.042
Mof_C 	C 	0.0884	0.2941	0.8815	-0.038
Mof_H 	H 	0.0669	0.29	0.8842	0.043
Mof_C 	C 	0.1297	0.3228	0.9002	-0.072
Mof_H 	H 	0.1356	0.3386	0.9144	0.052
Mof_O 	O 	0.1473	0.19186	0.96844	-0.403
Mof_O 	O 	0.11089	0.15474	0.96798	-0.41
Mof_C 	C 	0.6222	0.6793	0.95816	0.363
Mof_C 	C 	0.60616	0.6959	0.93336	-0.1
Mof_C 	C 	0.616	0.7254	0.9236	-0.002
Mof_H 	H 	0.633	0.7353	0.9335	0.044
Mof_C 	C 	0.6447	0.7762	0.8864	-0.039
Mof_H 	H 	0.659	0.7609	0.8934	0.045
Mof_C 	C 	0.6543	0.8045	0.8735	-0.061
Mof_H 	H 	0.6756	0.8077	0.8686	0.042
Mof_C 	C 	0.5884	0.7941	0.8815	-0.038
Mof_H 	H 	0.5669	0.79	0.8842	0.044
Mof_C 	C 	0.6297	0.8228	0.9002	-0.072
Mof_H 	H 	0.6356	0.8386	0.9144	0.052
Mof_O 	O 	0.6473	0.69186	0.96844	-0.403
Mof_O 	O 	0.61089	0.65474	0.96798	-0.409
Mof_C 	C 	0.6222	0.1793	0.45816	0.363
Mof_C 	C 	0.60616	0.1959	0.43336	-0.101
Mof_C 	C 	0.616	0.2254	0.4236	-0.001
Mof_H 	H 	0.633	0.2353	0.4335	0.043
Mof_C 	C 	0.6447	0.2762	0.3864	-0.039
Mof_H 	H 	0.659	0.2609	0.3934	0.045
Mof_C 	C 	0.6543	0.3045	0.3735	-0.062
Mof_H 	H 	0.6756	0.3077	0.3686	0.042
Mof_C 	C 	0.5884	0.2941	0.3815	-0.038
Mof_H 	H 	0.5669	0.29	0.3842	0.044
Mof_C 	C 	0.6297	0.3228	0.4002	-0.072
Mof_H 	H 	0.6356	0.3386	0.4144	0.052
Mof_O 	O 	0.6473	0.19186	0.46844	-0.406
Mof_O 	O 	0.61089	0.15474	0.46798	-0.412
Mof_C 	C 	0.54184	0.1222	0.3207	0.363
Mof_C 	C 	0.56664	0.10616	0.3041	-0.101
Mof_C 	C 	0.5764	0.116	0.2746	-0.001
Mof_H 	H 	0.5665	0.133	0.2647	0.043
Mof_C 	C 	0.6136	0.1447	0.2238	-0.039
Mof_H 	H 	0.6066	0.159	0.2391	0.045
Mof_C 	C 	0.6265	0.1543	0.1955	-0.061
Mof_H 	H 	0.6314	0.1756	0.1923	0.042
Mof_C 	C 	0.6185	0.0884	0.2059	-0.038
Mof_H 	H 	0.6158	0.0669	0.21	0.043
Mof_C 	C 	0.5998	0.1297	0.1772	-0.072
Mof_H 	H 	0.5856	0.1356	0.1614	0.052
Mof_O 	O 	0.53156	0.1473	0.30814	-0.406
Mof_O 	O 	0.53202	0.11089	0.34526	-0.413
Mof_C 	C 	0.54184	0.6222	0.8207	0.363
Mof_C 	C 	0.56664	0.60616	0.8041	-0.101
Mof_C 	C 	0.5764	0.616	0.7746	-0.002
Mof_H 	H 	0.5665	0.633	0.7647	0.043
Mof_C 	C 	0.6136	0.6447	0.7238	-0.039
Mof_H 	H 	0.6066	0.659	0.7391	0.044
Mof_C 	C 	0.6265	0.6543	0.6955	-0.062
Mof_H 	H 	0.6314	0.6756	0.6923	0.042
Mof_C 	C 	0.6185	0.5884	0.7059	-0.038
Mof_H 	H 	0.6158	0.5669	0.71	0.044
Mof_C 	C 	0.5998	0.6297	0.6772	-0.072
Mof_H 	H 	0.5856	0.6356	0.6614	0.052
Mof_O 	O 	0.53156	0.6473	0.80814	-0.406
Mof_O 	O 	0.53202	0.61089	0.84526	-0.412
Mof_C 	C 	0.04184	0.1222	0.8207	0.363
Mof_C 	C 	0.06664	0.10616	0.8041	-0.102
Mof_C 	C 	0.0764	0.116	0.7746	-0.001
Mof_H 	H 	0.0665	0.133	0.7647	0.043
Mof_C 	C 	0.1136	0.1447	0.7238	-0.039
Mof_H 	H 	0.1066	0.159	0.7391	0.044
Mof_C 	C 	0.1265	0.1543	0.6955	-0.062
Mof_H 	H 	0.1314	0.1756	0.6923	0.042
Mof_C 	C 	0.1185	0.0884	0.7059	-0.038
Mof_H 	H 	0.1158	0.0669	0.71	0.042
Mof_C 	C 	0.0998	0.1297	0.6772	-0.072
Mof_H 	H 	0.0856	0.1356	0.6614	0.051
Mof_O 	O 	0.03156	0.1473	0.80814	-0.407
Mof_O 	O 	0.03202	0.11089	0.84526	-0.414
Mof_C 	C 	0.04184	0.6222	0.3207	0.363
Mof_C 	C 	0.06664	0.60616	0.3041	-0.102
Mof_C 	C 	0.0764	0.616	0.2746	-0.001
Mof_H 	H 	0.0665	0.633	0.2647	0.043
Mof_C 	C 	0.1136	0.6447	0.2238	-0.039
Mof_H 	H 	0.1066	0.659	0.2391	0.044
Mof_C 	C 	0.1265	0.6543	0.1955	-0.062
Mof_H 	H 	0.1314	0.6756	0.1923	0.042
Mof_C 	C 	0.1185	0.5884	0.2059	-0.038
Mof_H 	H 	0.1158	0.5669	0.21	0.043
Mof_C 	C 	0.0998	0.6297	0.1772	-0.072
Mof_H 	H 	0.0856	0.6356	0.1614	0.051
Mof_O 	O 	0.03156	0.6473	0.30814	-0.407
Mof_O 	O 	0.03202	0.61089	0.34526	-0.414
Mof_C 	C 	0.54184	0.8778	0.6793	0.363
Mof_C 	C 	0.56664	0.89384	0.6959	-0.1
Mof_C 	C 	0.5764	0.884	0.7254	-0.002
Mof_H 	H 	0.5665	0.867	0.7353	0.044
Mof_C 	C 	0.6136	0.8553	0.7762	-0.039
Mof_H 	H 	0.6066	0.841	0.7609	0.044
Mof_C 	C 	0.6265	0.8457	0.8045	-0.062
Mof_H 	H 	0.6314	0.8244	0.8077	0.042
Mof_C 	C 	0.6185	0.9116	0.7941	-0.038
Mof_H 	H 	0.6158	0.9331	0.79	0.044
Mof_C 	C 	0.5998	0.8703	0.8228	-0.072
Mof_H 	H 	0.5856	0.8644	0.8386	0.052
Mof_O 	O 	0.53156	0.8527	0.69186	-0.406
Mof_O 	O 	0.53202	0.88911	0.65474	-0.412
Mof_C 	C 	0.54184	0.3778	0.1793	0.363
Mof_C 	C 	0.56664	0.39384	0.1959	-0.101
Mof_C 	C 	0.5764	0.384	0.2254	-0.001
Mof_H 	H 	0.5665	0.367	0.2353	0.044
Mof_C 	C 	0.6136	0.3553	0.2762	-0.039
Mof_H 	H 	0.6066	0.341	0.2609	0.045
Mof_C 	C 	0.6265	0.3457	0.3045	-0.062
Mof_H 	H 	0.6314	0.3244	0.3077	0.042
Mof_C 	C 	0.6185	0.4116	0.2941	-0.038
Mof_H 	H 	0.6158	0.4331	0.29	0.044
Mof_C 	C 	0.5998	0.3703	0.3228	-0.072
Mof_H 	H 	0.5856	0.3644	0.3386	0.052
Mof_O 	O 	0.53156	0.3527	0.19186	-0.406
Mof_O 	O 	0.53202	0.38911	0.15474	-0.412
Mof_C 	C 	0.04184	0.8778	0.1793	0.363
Mof_C 	C 	0.06664	0.89384	0.1959	-0.101
Mof_C 	C 	0.0764	0.884	0.2254	-0.002
Mof_H 	H 	0.0665	0.867	0.2353	0.043
Mof_C 	C 	0.1136	0.8553	0.2762	-0.039
Mof_H 	H 	0.1066	0.841	0.2609	0.044
Mof_C 	C 	0.1265	0.8457	0.3045	-0.062
Mof_H 	H 	0.1314	0.8244	0.3077	0.042
Mof_C 	C 	0.1185	0.9116	0.2941	-0.038
Mof_H 	H 	0.1158	0.9331	0.29	0.044
Mof_C 	C 	0.0998	0.8703	0.3228	-0.072
Mof_H 	H 	0.0856	0.8644	0.3386	0.052
Mof_O 	O 	0.03156	0.8527	0.19186	-0.407
Mof_O 	O 	0.03202	0.88911	0.15474	-0.413
Mof_C 	C 	0.04184	0.3778	0.6793	0.363
Mof_C 	C 	0.06664	0.39384	0.6959	-0.102
Mof_C 	C 	0.0764	0.384	0.7254	-0.001
Mof_H 	H 	0.0665	0.367	0.7353	0.043
Mof_C 	C 	0.1136	0.3553	0.7762	-0.039
Mof_H 	H 	0.1066	0.341	0.7609	0.044
Mof_C 	C 	0.1265	0.3457	0.8045	-0.062
Mof_H 	H 	0.1314	0.3244	0.8077	0.042
Mof_C 	C 	0.1185	0.4116	0.7941	-0.038
Mof_H 	H 	0.1158	0.4331	0.79	0.043
Mof_C 	C 	0.0998	0.3703	0.8228	-0.072
Mof_H 	H 	0.0856	0.3644	0.8386	0.052
Mof_O 	O 	0.03156	0.3527	0.69186	-0.407
Mof_O 	O 	0.03202	0.38911	0.65474	-0.414
Mof_C 	C 	0.45816	0.8778	0.3207	0.363
Mof_C 	C 	0.43336	0.89384	0.3041	-0.1
Mof_C 	C 	0.4236	0.884	0.2746	-0.002
Mof_H 	H 	0.4335	0.867	0.2647	0.044
Mof_C 	C 	0.3864	0.8553	0.2238	-0.039
Mof_H 	H 	0.3934	0.841	0.2391	0.044
Mof_C 	C 	0.3735	0.8457	0.1955	-0.062
Mof_H 	H 	0.3686	0.8244	0.1923	0.042
Mof_C 	C 	0.3815	0.9116	0.2059	-0.038
Mof_H 	H 	0.3842	0.9331	0.21	0.044
Mof_C 	C 	0.4002	0.8703	0.1772	-0.072
Mof_H 	H 	0.4144	0.8644	0.1614	0.052
Mof_O 	O 	0.46844	0.8527	0.30814	-0.406
Mof_O 	O 	0.46798	0.88911	0.34526	-0.412
Mof_C 	C 	0.45816	0.3778	0.8207	0.363
Mof_C 	C 	0.43336	0.39384	0.8041	-0.101
Mof_C 	C 	0.4236	0.384	0.7746	-0.002
Mof_H 	H 	0.4335	0.367	0.7647	0.044
Mof_C 	C 	0.3864	0.3553	0.7238	-0.039
Mof_H 	H 	0.3934	0.341	0.7391	0.044
Mof_C 	C 	0.3735	0.3457	0.6955	-0.062
Mof_H 	H 	0.3686	0.3244	0.6923	0.042
Mof_C 	C 	0.3815	0.4116	0.7059	-0.038
Mof_H 	H 	0.3842	0.4331	0.71	0.044
Mof_C 	C 	0.4002	0.3703	0.6772	-0.072
Mof_H 	H 	0.4144	0.3644	0.6614	0.052
Mof_O 	O 	0.46844	0.3527	0.80814	-0.406
Mof_O 	O 	0.46798	0.38911	0.84526	-0.412
Mof_C 	C 	0.95816	0.8778	0.8207	0.362
Mof_C 	C 	0.93336	0.89384	0.8041	-0.099
Mof_C 	C 	0.9236	0.884	0.7746	-0.002
Mof_H 	H 	0.9335	0.867	0.7647	0.044
Mof_C 	C 	0.8864	0.8553	0.7238	-0.039
Mof_H 	H 	0.8934	0.841	0.7391	0.045
Mof_C 	C 	0.8735	0.8457	0.6955	-0.062
Mof_H 	H 	0.8686	0.8244	0.6923	0.042
Mof_C 	C 	0.8815	0.9116	0.7059	-0.038
Mof_H 	H 	0.8842	0.9331	0.71	0.045
Mof_C 	C 	0.9002	0.8703	0.6772	-0.072
Mof_H 	H 	0.9144	0.8644	0.6614	0.052
Mof_O 	O 	0.96844	0.8527	0.80814	-0.403
Mof_O 	O 	0.96798	0.88911	0.84526	-0.409
Mof_C 	C 	0.95816	0.3778	0.3207	0.363
Mof_C 	C 	0.93336	0.39384	0.3041	-0.1
Mof_C 	C 	0.9236	0.384	0.2746	-0.002
Mof_H 	H 	0.9335	0.367	0.2647	0.044
Mof_C 	C 	0.8864	0.3553	0.2238	-0.039
Mof_H 	H 	0.8934	0.341	0.2391	0.045
Mof_C 	C 	0.8735	0.3457	0.1955	-0.061
Mof_H 	H 	0.8686	0.3244	0.1923	0.042
Mof_C 	C 	0.8815	0.4116	0.2059	-0.038
Mof_H 	H 	0.8842	0.4331	0.21	0.044
Mof_C 	C 	0.9002	0.3703	0.1772	-0.072
Mof_H 	H 	0.9144	0.3644	0.1614	0.052
Mof_O 	O 	0.96844	0.3527	0.30814	-0.403
Mof_O 	O 	0.96798	0.38911	0.34526	-0.409
Mof_C 	C 	0.45816	0.1222	0.6793	0.363
Mof_C 	C 	0.43336	0.10616	0.6959	-0.101
Mof_C 	C 	0.4236	0.116	0.7254	-0.001
Mof_H 	H 	0.4335	0.133	0.7353	0.043
Mof_C 	C 	0.3864	0.1447	0.7762	-0.039
Mof_H 	H 	0.3934	0.159	0.7609	0.044
Mof_C 	C 	0.3735	0.1543	0.8045	-0.062
Mof_H 	H 	0.3686	0.1756	0.8077	0.042
Mof_C 	C 	0.3815	0.0884	0.7941	-0.038
Mof_H 	H 	0.3842	0.0669	0.79	0.043
Mof_C 	C 	0.4002	0.1297	0.8228	-0.072
Mof_H 	H 	0.4144	0.1356	0.8386	0.052
Mof_O 	O 	0.46844	0.1473	0.69186	-0.406
Mof_O 	O 	0.46798	0.11089	0.65474	-0.413
Mof_C 	C 	0.45816	0.6222	0.1793	0.363
Mof_C 	C 	0.43336	0.60616	0.1959	-0.101
Mof_C 	C 	0.4236	0.616	0.2254	-0.001
Mof_H 	H 	0.4335	0.633	0.2353	0.043
Mof_C 	C 	0.3864	0.6447	0.2762	-0.039
Mof_H 	H 	0.3934	0.659	0.2609	0.045
Mof_C 	C 	0.3735	0.6543	0.3045	-0.062
Mof_H 	H 	0.3686	0.6756	0.3077	0.042
Mof_C 	C 	0.3815	0.5884	0.2941	-0.038
Mof_H 	H 	0.3842	0.5669	0.29	0.044
Mof_C 	C 	0.4002	0.6297	0.3228	-0.072
Mof_H 	H 	0.4144	0.6356	0.3386	0.052
Mof_O 	O 	0.46844	0.6473	0.19186	-0.406
Mof_O 	O 	0.46798	0.61089	0.15474	-0.412
Mof_C 	C 	0.95816	0.1222	0.1793	0.363
Mof_C 	C 	0.93336	0.10616	0.1959	-0.1
Mof_C 	C 	0.9236	0.116	0.2254	-0.002
Mof_H 	H 	0.9335	0.133	0.2353	0.044
Mof_C 	C 	0.8864	0.1447	0.2762	-0.039
Mof_H 	H 	0.8934	0.159	0.2609	0.045
Mof_C 	C 	0.8735	0.1543	0.3045	-0.061
Mof_H 	H 	0.8686	0.1756	0.3077	0.042
Mof_C 	C 	0.8815	0.0884	0.2941	-0.038
Mof_H 	H 	0.8842	0.0669	0.29	0.043
Mof_C 	C 	0.9002	0.1297	0.3228	-0.072
Mof_H 	H 	0.9144	0.1356	0.3386	0.052
Mof_O 	O 	0.96844	0.1473	0.19186	-0.403
Mof_O 	O 	0.96798	0.11089	0.15474	-0.41
Mof_C 	C 	0.95816	0.6222	0.6793	0.363
Mof_C 	C 	0.93336	0.60616	0.6959	-0.1
Mof_C 	C 	0.9236	0.616	0.7254	-0.002
Mof_H 	H 	0.9335	0.633	0.7353	0.044
Mof_C 	C 	0.8864	0.6447	0.7762	-0.039
Mof_H 	H 	0.8934	0.659	0.7609	0.045
Mof_C 	C 	0.8735	0.6543	0.8045	-0.061
Mof_H 	H 	0.8686	0.6756	0.8077	0.042
Mof_C 	C 	0.8815	0.5884	0.7941	-0.038
Mof_H 	H 	0.8842	0.5669	0.79	0.044
Mof_C 	C 	0.9002	0.6297	0.8228	-0.072
Mof_H 	H 	0.9144	0.6356	0.8386	0.052
Mof_O 	O 	0.96844	0.6473	0.69186	-0.403
Mof_O 	O 	0.96798	0.61089	0.65474	-0.409
Mof_C 	C 	0.3207	0.54184	0.1222	0.363
Mof_C 	C 	0.3041	0.56664	0.10616	-0.101
Mof_C 	C 	0.2746	0.5764	0.116	-0.001
Mof_H 	H 	0.2647	0.5665	0.133	0.043
Mof_C 	C 	0.2238	0.6136	0.1447	-0.039
Mof_H 	H 	0.2391	0.6066	0.159	0.045
Mof_C 	C 	0.1955	0.6265	0.1543	-0.061
Mof_H 	H 	0.1923	0.6314	0.1756	0.042
Mof_C 	C 	0.2059	0.6185	0.0884	-0.038
Mof_H 	H 	0.21	0.6158	0.0669	0.043
Mof_C 	C 	0.1772	0.5998	0.1297	-0.072
Mof_H 	H 	0.1614	0.5856	0.1356	0.052
Mof_O 	O 	0.30814	0.53156	0.1473	-0.406
Mof_O 	O 	0.34526	0.53202	0.11089	-0.413
Mof_C 	C 	0.3207	0.04184	0.6222	0.363
Mof_C 	C 	0.3041	0.06664	0.60616	-0.102
Mof_C 	C 	0.2746	0.0764	0.616	-0.001
Mof_H 	H 	0.2647	0.0665	0.633	0.043
Mof_C 	C 	0.2238	0.1136	0.6447	-0.039
Mof_H 	H 	0.2391	0.1066	0.659	0.044
Mof_C 	C 	0.1955	0.1265	0.6543	-0.062
Mof_H 	H 	0.1923	0.1314	0.6756	0.042
Mof_C 	C 	0.2059	0.1185	0.5884	-0.038
Mof_H 	H 	0.21	0.1158	0.5669	0.043
Mof_C 	C 	0.1772	0.0998	0.6297	-0.072
Mof_H 	H 	0.1614	0.0856	0.6356	0.051
Mof_O 	O 	0.30814	0.03156	0.6473	-0.407
Mof_O 	O 	0.34526	0.03202	0.61089	-0.414
Mof_C 	C 	0.8207	0.54184	0.6222	0.363
Mof_C 	C 	0.8041	0.56664	0.60616	-0.101
Mof_C 	C 	0.7746	0.5764	0.616	-0.002
Mof_H 	H 	0.7647	0.5665	0.633	0.043
Mof_C 	C 	0.7238	0.6136	0.6447	-0.039
Mof_H 	H 	0.7391	0.6066	0.659	0.044
Mof_C 	C 	0.6955	0.6265	0.6543	-0.062
Mof_H 	H 	0.6923	0.6314	0.6756	0.042
Mof_C 	C 	0.7059	0.6185	0.5884	-0.038
Mof_H 	H 	0.71	0.6158	0.5669	0.044
Mof_C 	C 	0.6772	0.5998	0.6297	-0.072
Mof_H 	H 	0.6614	0.5856	0.6356	0.052
Mof_O 	O 	0.80814	0.53156	0.6473	-0.406
Mof_O 	O 	0.84526	0.53202	0.61089	-0.412
Mof_C 	C 	0.8207	0.04184	0.1222	0.363
Mof_C 	C 	0.8041	0.06664	0.10616	-0.102
Mof_C 	C 	0.7746	0.0764	0.116	-0.001
Mof_H 	H 	0.7647	0.0665	0.133	0.043
Mof_C 	C 	0.7238	0.1136	0.1447	-0.039
Mof_H 	H 	0.7391	0.1066	0.159	0.044
Mof_C 	C 	0.6955	0.1265	0.1543	-0.062
Mof_H 	H 	0.6923	0.1314	0.1756	0.042
Mof_C 	C 	0.7059	0.1185	0.0884	-0.038
Mof_H 	H 	0.71	0.1158	0.0669	0.042
Mof_C 	C 	0.6772	0.0998	0.1297	-0.072
Mof_H 	H 	0.6614	0.0856	0.1356	0.051
Mof_O 	O 	0.80814	0.03156	0.1473	-0.407
Mof_O 	O 	0.84526	0.03202	0.11089	-0.414
Mof_C 	C 	0.6793	0.54184	0.8778	0.363
Mof_C 	C 	0.6959	0.56664	0.89384	-0.1
Mof_C 	C 	0.7254	0.5764	0.884	-0.002
Mof_H 	H 	0.7353	0.5665	0.867	0.044
Mof_C 	C 	0.7762	0.6136	0.8553	-0.039
Mof_H 	H 	0.7609	0.6066	0.841	0.044
Mof_C 	C 	0.8045	0.6265	0.8457	-0.062
Mof_H 	H 	0.8077	0.6314	0.8244	0.042
Mof_C 	C 	0.7941	0.6185	0.9116	-0.038
Mof_H 	H 	0.79	0.6158	0.9331	0.044
Mof_C 	C 	0.8228	0.5998	0.8703	-0.072
Mof_H 	H 	0.8386	0.5856	0.8644	0.052
Mof_O 	O 	0.69186	0.53156	0.8527	-0.406
Mof_O 	O 	0.65474	0.53202	0.88911	-0.412
Mof_C 	C 	0.6793	0.04184	0.3778	0.363
Mof_C 	C 	0.6959	0.06664	0.39384	-0.102
Mof_C 	C 	0.7254	0.0764	0.384	-0.001
Mof_H 	H 	0.7353	0.0665	0.367	0.043
Mof_C 	C 	0.7762	0.1136	0.3553	-0.039
Mof_H 	H 	0.7609	0.1066	0.341	0.044
Mof_C 	C 	0.8045	0.1265	0.3457	-0.062
Mof_H 	H 	0.8077	0.1314	0.3244	0.042
Mof_C 	C 	0.7941	0.1185	0.4116	-0.038
Mof_H 	H 	0.79	0.1158	0.4331	0.043
Mof_C 	C 	0.8228	0.0998	0.3703	-0.072
Mof_H 	H 	0.8386	0.0856	0.3644	0.052
Mof_O 	O 	0.69186	0.03156	0.3527	-0.407
Mof_O 	O 	0.65474	0.03202	0.38911	-0.414
Mof_C 	C 	0.1793	0.54184	0.3778	0.363
Mof_C 	C 	0.1959	0.56664	0.39384	-0.101
Mof_C 	C 	0.2254	0.5764	0.384	-0.001
Mof_H 	H 	0.2353	0.5665	0.367	0.044
Mof_C 	C 	0.2762	0.6136	0.3553	-0.039
Mof_H 	H 	0.2609	0.6066	0.341	0.045
Mof_C 	C 	0.3045	0.6265	0.3457	-0.062
Mof_H 	H 	0.3077	0.6314	0.3244	0.042
Mof_C 	C 	0.2941	0.6185	0.4116	-0.038
Mof_H 	H 	0.29	0.6158	0.4331	0.044
Mof_C 	C 	0.3228	0.5998	0.3703	-0.072
Mof_H 	H 	0.3386	0.5856	0.3644	0.052
Mof_O 	O 	0.19186	0.53156	0.3527	-0.406
Mof_O 	O 	0.15474	0.53202	0.38911	-0.412
Mof_C 	C 	0.1793	0.04184	0.8778	0.363
Mof_C 	C 	0.1959	0.06664	0.89384	-0.101
Mof_C 	C 	0.2254	0.0764	0.884	-0.002
Mof_H 	H 	0.2353	0.0665	0.867	0.043
Mof_C 	C 	0.2762	0.1136	0.8553	-0.039
Mof_H 	H 	0.2609	0.1066	0.841	0.044
Mof_C 	C 	0.3045	0.1265	0.8457	-0.062
Mof_H 	H 	0.3077	0.1314	0.8244	0.042
Mof_C 	C 	0.2941	0.1185	0.9116	-0.038
Mof_H 	H 	0.29	0.1158	0.9331	0.044
Mof_C 	C 	0.3228	0.0998	0.8703	-0.072
Mof_H 	H 	0.3386	0.0856	0.8644	0.052
Mof_O 	O 	0.19186	0.03156	0.8527	-0.407
Mof_O 	O 	0.15474	0.03202	0.88911	-0.413
Mof_C 	C 	0.3207	0.45816	0.8778	0.363
Mof_C 	C 	0.3041	0.43336	0.89384	-0.1
Mof_C 	C 	0.2746	0.4236	0.884	-0.002
Mof_H 	H 	0.2647	0.4335	0.867	0.044
Mof_C 	C 	0.2238	0.3864	0.8553	-0.039
Mof_H 	H 	0.2391	0.3934	0.841	0.044
Mof_C 	C 	0.1955	0.3735	0.8457	-0.062
Mof_H 	H 	0.1923	0.3686	0.8244	0.042
Mof_C 	C 	0.2059	0.3815	0.9116	-0.038
Mof_H 	H 	0.21	0.3842	0.9331	0.044
Mof_C 	C 	0.1772	0.4002	0.8703	-0.072
Mof_H 	H 	0.1614	0.4144	0.8644	0.052
Mof_O 	O 	0.30814	0.46844	0.8527	-0.406
Mof_O 	O 	0.34526	0.46798	0.88911	-0.412
Mof_C 	C 	0.3207	0.95816	0.3778	0.363
Mof_C 	C 	0.3041	0.93336	0.39384	-0.1
Mof_C 	C 	0.2746	0.9236	0.384	-0.002
Mof_H 	H 	0.2647	0.9335	0.367	0.044
Mof_C 	C 	0.2238	0.8864	0.3553	-0.039
Mof_H 	H 	0.2391	0.8934	0.341	0.045
Mof_C 	C 	0.1955	0.8735	0.3457	-0.061
Mof_H 	H 	0.1923	0.8686	0.3244	0.042
Mof_C 	C 	0.2059	0.8815	0.4116	-0.038
Mof_H 	H 	0.21	0.8842	0.4331	0.044
Mof_C 	C 	0.1772	0.9002	0.3703	-0.072
Mof_H 	H 	0.1614	0.9144	0.3644	0.052
Mof_O 	O 	0.30814	0.96844	0.3527	-0.403
Mof_O 	O 	0.34526	0.96798	0.38911	-0.409
Mof_C 	C 	0.8207	0.45816	0.3778	0.363
Mof_C 	C 	0.8041	0.43336	0.39384	-0.101
Mof_C 	C 	0.7746	0.4236	0.384	-0.002
Mof_H 	H 	0.7647	0.4335	0.367	0.044
Mof_C 	C 	0.7238	0.3864	0.3553	-0.039
Mof_H 	H 	0.7391	0.3934	0.341	0.044
Mof_C 	C 	0.6955	0.3735	0.3457	-0.062
Mof_H 	H 	0.6923	0.3686	0.3244	0.042
Mof_C 	C 	0.7059	0.3815	0.4116	-0.038
Mof_H 	H 	0.71	0.3842	0.4331	0.044
Mof_C 	C 	0.6772	0.4002	0.3703	-0.072
Mof_H 	H 	0.6614	0.4144	0.3644	0.052
Mof_O 	O 	0.80814	0.46844	0.3527	-0.406
Mof_O 	O 	0.84526	0.46798	0.38911	-0.412
Mof_C 	C 	0.8207	0.95816	0.8778	0.362
Mof_C 	C 	0.8041	0.93336	0.89384	-0.099
Mof_C 	C 	0.7746	0.9236	0.884	-0.002
Mof_H 	H 	0.7647	0.9335	0.867	0.044
Mof_C 	C 	0.7238	0.8864	0.8553	-0.039
Mof_H 	H 	0.7391	0.8934	0.841	0.045
Mof_C 	C 	0.6955	0.8735	0.8457	-0.062
Mof_H 	H 	0.6923	0.8686	0.8244	0.042
Mof_C 	C 	0.7059	0.8815	0.9116	-0.038
Mof_H 	H 	0.71	0.8842	0.9331	0.045
Mof_C 	C 	0.6772	0.9002	0.8703	-0.072
Mof_H 	H 	0.6614	0.9144	0.8644	0.052
Mof_O 	O 	0.80814	0.96844	0.8527	-0.403
Mof_O 	O 	0.84526	0.96798	0.88911	-0.409
Mof_C 	C 	0.6793	0.45816	0.1222	0.363
Mof_C 	C 	0.6959	0.43336	0.10616	-0.101
Mof_C 	C 	0.7254	0.4236	0.116	-0.001
Mof_H 	H 	0.7353	0.4335	0.133	0.043
Mof_C 	C 	0.7762	0.3864	0.1447	-0.039
Mof_H 	H 	0.7609	0.3934	0.159	0.044
Mof_C 	C 	0.8045	0.3735	0.1543	-0.062
Mof_H 	H 	0.8077	0.3686	0.1756	0.042
Mof_C 	C 	0.7941	0.3815	0.0884	-0.038
Mof_H 	H 	0.79	0.3842	0.0669	0.043
Mof_C 	C 	0.8228	0.4002	0.1297	-0.072
Mof_H 	H 	0.8386	0.4144	0.1356	0.052
Mof_O 	O 	0.69186	0.46844	0.1473	-0.406
Mof_O 	O 	0.65474	0.46798	0.11089	-0.413
Mof_C 	C 	0.6793	0.95816	0.6222	0.363
Mof_C 	C 	0.6959	0.93336	0.60616	-0.1
Mof_C 	C 	0.7254	0.9236	0.616	-0.002
Mof_H 	H 	0.7353	0.9335	0.633	0.044
Mof_C 	C 	0.7762	0.8864	0.6447	-0.039
Mof_H 	H 	0.7609	0.8934	0.659	0.045
Mof_C 	C 	0.8045	0.8735	0.6543	-0.061
Mof_H 	H 	0.8077	0.8686	0.6756	0.042
Mof_C 	C 	0.7941	0.8815	0.5884	-0.038
Mof_H 	H 	0.79	0.8842	0.5669	0.044
Mof_C 	C 	0.8228	0.9002	0.6297	-0.072
Mof_H 	H 	0.8386	0.9144	0.6356	0.052
Mof_O 	O 	0.69186	0.96844	0.6473	-0.403
Mof_O 	O 	0.65474	0.96798	0.61089	-0.409
Mof_C 	C 	0.1793	0.45816	0.6222	0.363
Mof_C 	C 	0.1959	0.43336	0.60616	-0.101
Mof_C 	C 	0.2254	0.4236	0.616	-0.001
Mof_H 	H 	0.2353	0.4335	0.633	0.043
Mof_C 	C 	0.2762	0.3864	0.6447	-0.039
Mof_H 	H 	0.2609	0.3934	0.659	0.045
Mof_C 	C 	0.3045	0.3735	0.6543	-0.062
Mof_H 	H 	0.3077	0.3686	0.6756	0.042
Mof_C 	C 	0.2941	0.3815	0.5884	-0.038
Mof_H 	H 	0.29	0.3842	0.5669	0.044
Mof_C 	C 	0.3228	0.4002	0.6297	-0.072
Mof_H 	H 	0.3386	0.4144	0.6356	0.052
Mof_O 	O 	0.19186	0.46844	0.6473	-0.406
Mof_O 	O 	0.15474	0.46798	0.61089	-0.412
Mof_C 	C 	0.1793	0.95816	0.1222	0.363
Mof_C 	C 	0.1959	0.93336	0.10616	-0.1
Mof_C 	C 	0.2254	0.9236	0.116	-0.002
Mof_H 	H 	0.2353	0.9335	0.133	0.044
Mof_C 	C 	0.2762	0.8864	0.1447	-0.039
Mof_H 	H 	0.2609	0.8934	0.159	0.045
Mof_C 	C 	0.3045	0.8735	0.1543	-0.061
Mof_H 	H 	0.3077	0.8686	0.1756	0.042
Mof_C 	C 	0.2941	0.8815	0.0884	-0.038
Mof_H 	H 	0.29	0.8842	0.0669	0.043
Mof_C 	C 	0.3228	0.9002	0.1297	-0.072
Mof_H 	H 	0.3386	0.9144	0.1356	0.052
Mof_O 	O 	0.19186	0.96844	0.1473	-0.403
Mof_O 	O 	0.15474	0.96798	0.11089	-0.41
Mof_C 	C 	0.3207	0.1222	0.45816	0.363
Mof_C 	C 	0.3041	0.10616	0.43336	-0.101
Mof_C 	C 	0.2746	0.116	0.4236	-0.001
Mof_H 	H 	0.2647	0.133	0.4335	0.043
Mof_C 	C 	0.2238	0.1447	0.3864	-0.039
Mof_H 	H 	0.2391	0.159	0.3934	0.045
Mof_C 	C 	0.1955	0.1543	0.3735	-0.061
Mof_H 	H 	0.1923	0.1756	0.3686	0.042
Mof_C 	C 	0.2059	0.0884	0.3815	-0.038
Mof_H 	H 	0.21	0.0669	0.3842	0.043
Mof_C 	C 	0.1772	0.1297	0.4002	-0.072
Mof_H 	H 	0.1614	0.1356	0.4144	0.052
Mof_O 	O 	0.30814	0.1473	0.46844	-0.406
Mof_O 	O 	0.34526	0.11089	0.46798	-0.413
Mof_C 	C 	0.3207	0.6222	0.95816	0.363
Mof_C 	C 	0.3041	0.60616	0.93336	-0.1
Mof_C 	C 	0.2746	0.616	0.9236	-0.002
Mof_H 	H 	0.2647	0.633	0.9335	0.044
Mof_C 	C 	0.2238	0.6447	0.8864	-0.039
Mof_H 	H 	0.2391	0.659	0.8934	0.045
Mof_C 	C 	0.1955	0.6543	0.8735	-0.061
Mof_H 	H 	0.1923	0.6756	0.8686	0.042
Mof_C 	C 	0.2059	0.5884	0.8815	-0.038
Mof_H 	H 	0.21	0.5669	0.8842	0.044
Mof_C 	C 	0.1772	0.6297	0.9002	-0.072
Mof_H 	H 	0.1614	0.6356	0.9144	0.052
Mof_O 	O 	0.30814	0.6473	0.96844	-0.403
Mof_O 	O 	0.34526	0.61089	0.96798	-0.409
Mof_C 	C 	0.8207	0.1222	0.95816	0.363
Mof_C 	C 	0.8041	0.10616	0.93336	-0.1
Mof_C 	C 	0.7746	0.116	0.9236	-0.002
Mof_H 	H 	0.7647	0.133	0.9335	0.044
Mof_C 	C 	0.7238	0.1447	0.8864	-0.039
Mof_H 	H 	0.7391	0.159	0.8934	0.045
Mof_C 	C 	0.6955	0.1543	0.8735	-0.061
Mof_H 	H 	0.6923	0.1756	0.8686	0.042
Mof_C 	C 	0.7059	0.0884	0.8815	-0.038
Mof_H 	H 	0.71	0.0669	0.8842	0.043
Mof_C 	C 	0.6772	0.1297	0.9002	-0.072
Mof_H 	H 	0.6614	0.1356	0.9144	0.052
Mof_O 	O 	0.80814	0.1473	0.96844	-0.403
Mof_O 	O 	0.84526	0.11089	0.96798	-0.41
Mof_C 	C 	0.8207	0.6222	0.45816	0.363
Mof_C 	C 	0.8041	0.60616	0.43336	-0.101
Mof_C 	C 	0.7746	0.616	0.4236	-0.002
Mof_H 	H 	0.7647	0.633	0.4335	0.044
Mof_C 	C 	0.7238	0.6447	0.3864	-0.039
Mof_H 	H 	0.7391	0.659	0.3934	0.044
Mof_C 	C 	0.6955	0.6543	0.3735	-0.062
Mof_H 	H 	0.6923	0.6756	0.3686	0.042
Mof_C 	C 	0.7059	0.5884	0.3815	-0.038
Mof_H 	H 	0.71	0.5669	0.3842	0.044
Mof_C 	C 	0.6772	0.6297	0.4002	-0.072
Mof_H 	H 	0.6614	0.6356	0.4144	0.052
Mof_O 	O 	0.80814	0.6473	0.46844	-0.406
Mof_O 	O 	0.84526	0.61089	0.46798	-0.412
Mof_C 	C 	0.6793	0.8778	0.45816	0.363
Mof_C 	C 	0.6959	0.89384	0.43336	-0.1
Mof_C 	C 	0.7254	0.884	0.4236	-0.002
Mof_H 	H 	0.7353	0.867	0.4335	0.044
Mof_C 	C 	0.7762	0.8553	0.3864	-0.039
Mof_H 	H 	0.7609	0.841	0.3934	0.044
Mof_C 	C 	0.8045	0.8457	0.3735	-0.062
Mof_H 	H 	0.8077	0.8244	0.3686	0.042
Mof_C 	C 	0.7941	0.9116	0.3815	-0.038
Mof_H 	H 	0.79	0.9331	0.3842	0.044
Mof_C 	C 	0.8228	0.8703	0.4002	-0.072
Mof_H 	H 	0.8386	0.8644	0.4144	0.052
Mof_O 	O 	0.69186	0.8527	0.46844	-0.406
Mof_O 	O 	0.65474	0.88911	0.46798	-0.412
Mof_C 	C 	0.6793	0.3778	0.95816	0.363
Mof_C 	C 	0.6959	0.39384	0.93336	-0.1
Mof_C 	C 	0.7254	0.384	0.9236	-0.002
Mof_H 	H 	0.7353	0.367	0.9335	0.044
Mof_C 	C 	0.7762	0.3553	0.8864	-0.039
Mof_H 	H 	0.7609	0.341	0.8934	0.045
Mof_C 	C 	0.8045	0.3457	0.8735	-0.061
Mof_H 	H 	0.8077	0.3244	0.8686	0.042
Mof_C 	C 	0.7941	0.4116	0.8815	-0.038
Mof_H 	H 	0.79	0.4331	0.8842	0.044
Mof_C 	C 	0.8228	0.3703	0.9002	-0.072
Mof_H 	H 	0.8386	0.3644	0.9144	0.052
Mof_O 	O 	0.69186	0.3527	0.96844	-0.403
Mof_O 	O 	0.65474	0.38911	0.96798	-0.409
Mof_C 	C 	0.1793	0.8778	0.95816	0.362
Mof_C 	C 	0.1959	0.89384	0.93336	-0.099
Mof_C 	C 	0.2254	0.884	0.9236	-0.002
Mof_H 	H 	0.2353	0.867	0.9335	0.044
Mof_C 	C 	0.2762	0.8553	0.8864	-0.039
Mof_H 	H 	0.2609	0.841	0.8934	0.045
Mof_C 	C 	0.3045	0.8457	0.8735	-0.061
Mof_H 	H 	0.3077	0.8244	0.8686	0.042
Mof_C 	C 	0.2941	0.9116	0.8815	-0.038
Mof_H 	H 	0.29	0.9331	0.8842	0.045
Mof_C 	C 	0.3228	0.8703	0.9002	-0.071
Mof_H 	H 	0.3386	0.8644	0.9144	0.053
Mof_O 	O 	0.19186	0.8527	0.96844	-0.403
Mof_O 	O 	0.15474	0.88911	0.96798	-0.409
Mof_C 	C 	0.1793	0.3778	0.45816	0.363
Mof_C 	C 	0.1959	0.39384	0.43336	-0.101
Mof_C 	C 	0.2254	0.384	0.4236	-0.001
Mof_H 	H 	0.2353	0.367	0.4335	0.044
Mof_C 	C 	0.2762	0.3553	0.3864	-0.039
Mof_H 	H 	0.2609	0.341	0.3934	0.045
Mof_C 	C 	0.3045	0.3457	0.3735	-0.061
Mof_H 	H 	0.3077	0.3244	0.3686	0.042
Mof_C 	C 	0.2941	0.4116	0.3815	-0.038
Mof_H 	H 	0.29	0.4331	0.3842	0.044
Mof_C 	C 	0.3228	0.3703	0.4002	-0.072
Mof_H 	H 	0.3386	0.3644	0.4144	0.052
Mof_O 	O 	0.19186	0.3527	0.46844	-0.406
Mof_O 	O 	0.15474	0.38911	0.46798	-0.412
Mof_C 	C 	0.3207	0.8778	0.54184	0.363
Mof_C 	C 	0.3041	0.89384	0.56664	-0.1
Mof_C 	C 	0.2746	0.884	0.5764	-0.002
Mof_H 	H 	0.2647	0.867	0.5665	0.044
Mof_C 	C 	0.2238	0.8553	0.6136	-0.039
Mof_H 	H 	0.2391	0.841	0.6066	0.044
Mof_C 	C 	0.1955	0.8457	0.6265	-0.062
Mof_H 	H 	0.1923	0.8244	0.6314	0.042
Mof_C 	C 	0.2059	0.9116	0.6185	-0.038
Mof_H 	H 	0.21	0.9331	0.6158	0.044
Mof_C 	C 	0.1772	0.8703	0.5998	-0.072
Mof_H 	H 	0.1614	0.8644	0.5856	0.052
Mof_O 	O 	0.30814	0.8527	0.53156	-0.406
Mof_O 	O 	0.34526	0.88911	0.53202	-0.412
Mof_C 	C 	0.3207	0.3778	0.04184	0.363
Mof_C 	C 	0.3041	0.39384	0.06664	-0.102
Mof_C 	C 	0.2746	0.384	0.0764	-0.001
Mof_H 	H 	0.2647	0.367	0.0665	0.043
Mof_C 	C 	0.2238	0.3553	0.1136	-0.039
Mof_H 	H 	0.2391	0.341	0.1066	0.044
Mof_C 	C 	0.1955	0.3457	0.1265	-0.062
Mof_H 	H 	0.1923	0.3244	0.1314	0.042
Mof_C 	C 	0.2059	0.4116	0.1185	-0.038
Mof_H 	H 	0.21	0.4331	0.1158	0.043
Mof_C 	C 	0.1772	0.3703	0.0998	-0.072
Mof_H 	H 	0.1614	0.3644	0.0856	0.051
Mof_O 	O 	0.30814	0.3527	0.03156	-0.407
Mof_O 	O 	0.34526	0.38911	0.03202	-0.414
Mof_C 	C 	0.8207	0.8778	0.04184	0.363
Mof_C 	C 	0.8041	0.89384	0.06664	-0.101
Mof_C 	C 	0.7746	0.884	0.0764	-0.002
Mof_H 	H 	0.7647	0.867	0.0665	0.043
Mof_C 	C 	0.7238	0.8553	0.1136	-0.039
Mof_H 	H 	0.7391	0.841	0.1066	0.044
Mof_C 	C 	0.6955	0.8457	0.1265	-0.062
Mof_H 	H 	0.6923	0.8244	0.1314	0.042
Mof_C 	C 	0.7059	0.9116	0.1185	-0.038
Mof_H 	H 	0.71	0.9331	0.1158	0.044
Mof_C 	C 	0.6772	0.8703	0.0998	-0.072
Mof_H 	H 	0.6614	0.8644	0.0856	0.052
Mof_O 	O 	0.80814	0.8527	0.03156	-0.407
Mof_O 	O 	0.84526	0.88911	0.03202	-0.413
Mof_C 	C 	0.8207	0.3778	0.54184	0.363
Mof_C 	C 	0.8041	0.39384	0.56664	-0.101
Mof_C 	C 	0.7746	0.384	0.5764	-0.002
Mof_H 	H 	0.7647	0.367	0.5665	0.044
Mof_C 	C 	0.7238	0.3553	0.6136	-0.039
Mof_H 	H 	0.7391	0.341	0.6066	0.044
Mof_C 	C 	0.6955	0.3457	0.6265	-0.062
Mof_H 	H 	0.6923	0.3244	0.6314	0.042
Mof_C 	C 	0.7059	0.4116	0.6185	-0.038
Mof_H 	H 	0.71	0.4331	0.6158	0.044
Mof_C 	C 	0.6772	0.3703	0.5998	-0.072
Mof_H 	H 	0.6614	0.3644	0.5856	0.052
Mof_O 	O 	0.80814	0.3527	0.53156	-0.406
Mof_O 	O 	0.84526	0.38911	0.53202	-0.412
Mof_C 	C 	0.6793	0.1222	0.54184	0.363
Mof_C 	C 	0.6959	0.10616	0.56664	-0.101
Mof_C 	C 	0.7254	0.116	0.5764	-0.001
Mof_H 	H 	0.7353	0.133	0.5665	0.043
Mof_C 	C 	0.7762	0.1447	0.6136	-0.039
Mof_H 	H 	0.7609	0.159	0.6066	0.044
Mof_C 	C 	0.8045	0.1543	0.6265	-0.062
Mof_H 	H 	0.8077	0.1756	0.6314	0.042
Mof_C 	C 	0.7941	0.0884	0.6185	-0.038
Mof_H 	H 	0.79	0.0669	0.6158	0.043
Mof_C 	C 	0.8228	0.1297	0.5998	-0.072
Mof_H 	H 	0.8386	0.1356	0.5856	0.052
Mof_O 	O 	0.69186	0.1473	0.53156	-0.406
Mof_O 	O 	0.65474	0.11089	0.53202	-0.413
Mof_C 	C 	0.6793	0.6222	0.04184	0.363
Mof_C 	C 	0.6959	0.60616	0.06664	-0.102
Mof_C 	C 	0.7254	0.616	0.0764	-0.001
Mof_H 	H 	0.7353	0.633	0.0665	0.043
Mof_C 	C 	0.7762	0.6447	0.1136	-0.039
Mof_H 	H 	0.7609	0.659	0.1066	0.044
Mof_C 	C 	0.8045	0.6543	0.1265	-0.062
Mof_H 	H 	0.8077	0.6756	0.1314	0.042
Mof_C 	C 	0.7941	0.5884	0.1185	-0.038
Mof_H 	H 	0.79	0.5669	0.1158	0.043
Mof_C 	C 	0.8228	0.6297	0.0998	-0.072
Mof_H 	H 	0.8386	0.6356	0.0856	0.052
Mof_O 	O 	0.69186	0.6473	0.03156	-0.407
Mof_O 	O 	0.65474	0.61089	0.03202	-0.414
Mof_C 	C 	0.1793	0.1222	0.04184	0.363
Mof_C 	C 	0.1959	0.10616	0.06664	-0.102
Mof_C 	C 	0.2254	0.116	0.0764	-0.001
Mof_H 	H 	0.2353	0.133	0.0665	0.043
Mof_C 	C 	0.2762	0.1447	0.1136	-0.039
Mof_H 	H 	0.2609	0.159	0.1066	0.044
Mof_C 	C 	0.3045	0.1543	0.1265	-0.062
Mof_H 	H 	0.3077	0.1756	0.1314	0.042
Mof_C 	C 	0.2941	0.0884	0.1185	-0.038
Mof_H 	H 	0.29	0.0669	0.1158	0.042
Mof_C 	C 	0.3228	0.1297	0.0998	-0.072
Mof_H 	H 	0.3386	0.1356	0.0856	0.051
Mof_O 	O 	0.19186	0.1473	0.03156	-0.407
Mof_O 	O 	0.15474	0.11089	0.03202	-0.414
Mof_C 	C 	0.1793	0.6222	0.54184	0.363
Mof_C 	C 	0.1959	0.60616	0.56664	-0.101
Mof_C 	C 	0.2254	0.616	0.5764	-0.001
Mof_H 	H 	0.2353	0.633	0.5665	0.043
Mof_C 	C 	0.2762	0.6447	0.6136	-0.039
Mof_H 	H 	0.2609	0.659	0.6066	0.044
Mof_C 	C 	0.3045	0.6543	0.6265	-0.062
Mof_H 	H 	0.3077	0.6756	0.6314	0.042
Mof_C 	C 	0.2941	0.5884	0.6185	-0.038
Mof_H 	H 	0.29	0.5669	0.6158	0.044
Mof_C 	C 	0.3228	0.6297	0.5998	-0.072
Mof_H 	H 	0.3386	0.6356	0.5856	0.052
Mof_O 	O 	0.19186	0.6473	0.53156	-0.406
Mof_O 	O 	0.15474	0.61089	0.53202	-0.412
Mof_C 	C 	0.1222	0.54184	0.6793	0.363
Mof_C 	C 	0.10616	0.56664	0.6959	-0.101
Mof_C 	C 	0.116	0.5764	0.7254	-0.001
Mof_H 	H 	0.133	0.5665	0.7353	0.043
Mof_C 	C 	0.1447	0.6136	0.7762	-0.039
Mof_H 	H 	0.159	0.6066	0.7609	0.044
Mof_C 	C 	0.1543	0.6265	0.8045	-0.062
Mof_H 	H 	0.1756	0.6314	0.8077	0.042
Mof_C 	C 	0.0884	0.6185	0.7941	-0.038
Mof_H 	H 	0.0669	0.6158	0.79	0.043
Mof_C 	C 	0.1297	0.5998	0.8228	-0.072
Mof_H 	H 	0.1356	0.5856	0.8386	0.052
Mof_O 	O 	0.1473	0.53156	0.69186	-0.406
Mof_O 	O 	0.11089	0.53202	0.65474	-0.413
Mof_C 	C 	0.1222	0.04184	0.1793	0.363
Mof_C 	C 	0.10616	0.06664	0.1959	-0.102
Mof_C 	C 	0.116	0.0764	0.2254	-0.001
Mof_H 	H 	0.133	0.0665	0.2353	0.043
Mof_C 	C 	0.1447	0.1136	0.2762	-0.039
Mof_H 	H 	0.159	0.1066	0.2609	0.044
Mof_C 	C 	0.1543	0.1265	0.3045	-0.062
Mof_H 	H 	0.1756	0.1314	0.3077	0.042
Mof_C 	C 	0.0884	0.1185	0.2941	-0.038
Mof_H 	H 	0.0669	0.1158	0.29	0.042
Mof_C 	C 	0.1297	0.0998	0.3228	-0.072
Mof_H 	H 	0.1356	0.0856	0.3386	0.051
Mof_O 	O 	0.1473	0.03156	0.19186	-0.407
Mof_O 	O 	0.11089	0.03202	0.15474	-0.414
Mof_C 	C 	0.6222	0.54184	0.1793	0.363
Mof_C 	C 	0.60616	0.56664	0.1959	-0.101
Mof_C 	C 	0.616	0.5764	0.2254	-0.001
Mof_H 	H 	0.633	0.5665	0.2353	0.043
Mof_C 	C 	0.6447	0.6136	0.2762	-0.039
Mof_H 	H 	0.659	0.6066	0.2609	0.044
Mof_C 	C 	0.6543	0.6265	0.3045	-0.062
Mof_H 	H 	0.6756	0.6314	0.3077	0.042
Mof_C 	C 	0.5884	0.6185	0.2941	-0.038
Mof_H 	H 	0.5669	0.6158	0.29	0.044
Mof_C 	C 	0.6297	0.5998	0.3228	-0.072
Mof_H 	H 	0.6356	0.5856	0.3386	0.052
Mof_O 	O 	0.6473	0.53156	0.19186	-0.406
Mof_O 	O 	0.61089	0.53202	0.15474	-0.412
Mof_C 	C 	0.6222	0.04184	0.6793	0.363
Mof_C 	C 	0.60616	0.06664	0.6959	-0.102
Mof_C 	C 	0.616	0.0764	0.7254	-0.001
Mof_H 	H 	0.633	0.0665	0.7353	0.043
Mof_C 	C 	0.6447	0.1136	0.7762	-0.039
Mof_H 	H 	0.659	0.1066	0.7609	0.044
Mof_C 	C 	0.6543	0.1265	0.8045	-0.062
Mof_H 	H 	0.6756	0.1314	0.8077	0.042
Mof_C 	C 	0.5884	0.1185	0.7941	-0.038
Mof_H 	H 	0.5669	0.1158	0.79	0.043
Mof_C 	C 	0.6297	0.0998	0.8228	-0.072
Mof_H 	H 	0.6356	0.0856	0.8386	0.052
Mof_O 	O 	0.6473	0.03156	0.69186	-0.407
Mof_O 	O 	0.61089	0.03202	0.65474	-0.414
Mof_C 	C 	0.8778	0.54184	0.3207	0.363
Mof_C 	C 	0.89384	0.56664	0.3041	-0.1
Mof_C 	C 	0.884	0.5764	0.2746	-0.002
Mof_H 	H 	0.867	0.5665	0.2647	0.044
Mof_C 	C 	0.8553	0.6136	0.2238	-0.039
Mof_H 	H 	0.841	0.6066	0.2391	0.044
Mof_C 	C 	0.8457	0.6265	0.1955	-0.062
Mof_H 	H 	0.8244	0.6314	0.1923	0.042
Mof_C 	C 	0.9116	0.6185	0.2059	-0.038
Mof_H 	H 	0.9331	0.6158	0.21	0.044
Mof_C 	C 	0.8703	0.5998	0.1772	-0.072
Mof_H 	H 	0.8644	0.5856	0.1614	0.052
Mof_O 	O 	0.8527	0.53156	0.30814	-0.406
Mof_O 	O 	0.88911	0.53202	0.34526	-0.412
Mof_C 	C 	0.8778	0.04184	0.8207	0.363
Mof_C 	C 	0.89384	0.06664	0.8041	-0.101
Mof_C 	C 	0.884	0.0764	0.7746	-0.002
Mof_H 	H 	0.867	0.0665	0.7647	0.043
Mof_C 	C 	0.8553	0.1136	0.7238	-0.039
Mof_H 	H 	0.841	0.1066	0.7391	0.044
Mof_C 	C 	0.8457	0.1265	0.6955	-0.062
Mof_H 	H 	0.8244	0.1314	0.6923	0.042
Mof_C 	C 	0.9116	0.1185	0.7059	-0.038
Mof_H 	H 	0.9331	0.1158	0.71	0.044
Mof_C 	C 	0.8703	0.0998	0.6772	-0.072
Mof_H 	H 	0.8644	0.0856	0.6614	0.052
Mof_O 	O 	0.8527	0.03156	0.80814	-0.407
Mof_O 	O 	0.88911	0.03202	0.84526	-0.413
Mof_C 	C 	0.3778	0.54184	0.8207	0.363
Mof_C 	C 	0.39384	0.56664	0.8041	-0.101
Mof_C 	C 	0.384	0.5764	0.7746	-0.002
Mof_H 	H 	0.367	0.5665	0.7647	0.044
Mof_C 	C 	0.3553	0.6136	0.7238	-0.039
Mof_H 	H 	0.341	0.6066	0.7391	0.044
Mof_C 	C 	0.3457	0.6265	0.6955	-0.062
Mof_H 	H 	0.3244	0.6314	0.6923	0.042
Mof_C 	C 	0.4116	0.6185	0.7059	-0.038
Mof_H 	H 	0.4331	0.6158	0.71	0.044
Mof_C 	C 	0.3703	0.5998	0.6772	-0.072
Mof_H 	H 	0.3644	0.5856	0.6614	0.052
Mof_O 	O 	0.3527	0.53156	0.80814	-0.406
Mof_O 	O 	0.38911	0.53202	0.84526	-0.412
Mof_C 	C 	0.3778	0.04184	0.3207	0.363
Mof_C 	C 	0.39384	0.06664	0.3041	-0.102
Mof_C 	C 	0.384	0.0764	0.2746	-0.001
Mof_H 	H 	0.367	0.0665	0.2647	0.043
Mof_C 	C 	0.3553	0.1136	0.2238	-0.039
Mof_H 	H 	0.341	0.1066	0.2391	0.044
Mof_C 	C 	0.3457	0.1265	0.1955	-0.062
Mof_H 	H 	0.3244	0.1314	0.1923	0.042
Mof_C 	C 	0.4116	0.1185	0.2059	-0.038
Mof_H 	H 	0.4331	0.1158	0.21	0.043
Mof_C 	C 	0.3703	0.0998	0.1772	-0.072
Mof_H 	H 	0.3644	0.0856	0.1614	0.051
Mof_O 	O 	0.3527	0.03156	0.30814	-0.407
Mof_O 	O 	0.38911	0.03202	0.34526	-0.414
Mof_C 	C 	0.8778	0.45816	0.6793	0.363
Mof_C 	C 	0.89384	0.43336	0.6959	-0.1
Mof_C 	C 	0.884	0.4236	0.7254	-0.002
Mof_H 	H 	0.867	0.4335	0.7353	0.044
Mof_C 	C 	0.8553	0.3864	0.7762	-0.039
Mof_H 	H 	0.841	0.3934	0.7609	0.044
Mof_C 	C 	0.8457	0.3735	0.8045	-0.062
Mof_H 	H 	0.8244	0.3686	0.8077	0.042
Mof_C 	C 	0.9116	0.3815	0.7941	-0.038
Mof_H 	H 	0.9331	0.3842	0.79	0.044
Mof_C 	C 	0.8703	0.4002	0.8228	-0.072
Mof_H 	H 	0.8644	0.4144	0.8386	0.052
Mof_O 	O 	0.8527	0.46844	0.69186	-0.406
Mof_O 	O 	0.88911	0.46798	0.65474	-0.412
Mof_C 	C 	0.8778	0.95816	0.1793	0.362
Mof_C 	C 	0.89384	0.93336	0.1959	-0.099
Mof_C 	C 	0.884	0.9236	0.2254	-0.002
Mof_H 	H 	0.867	0.9335	0.2353	0.044
Mof_C 	C 	0.8553	0.8864	0.2762	-0.039
Mof_H 	H 	0.841	0.8934	0.2609	0.045
Mof_C 	C 	0.8457	0.8735	0.3045	-0.061
Mof_H 	H 	0.8244	0.8686	0.3077	0.042
Mof_C 	C 	0.9116	0.8815	0.2941	-0.038
Mof_H 	H 	0.9331	0.8842	0.29	0.045
Mof_C 	C 	0.8703	0.9002	0.3228	-0.071
Mof_H 	H 	0.8644	0.9144	0.3386	0.053
Mof_O 	O 	0.8527	0.96844	0.19186	-0.403
Mof_O 	O 	0.88911	0.96798	0.15474	-0.409
Mof_C 	C 	0.3778	0.45816	0.1793	0.363
Mof_C 	C 	0.39384	0.43336	0.1959	-0.101
Mof_C 	C 	0.384	0.4236	0.2254	-0.001
Mof_H 	H 	0.367	0.4335	0.2353	0.044
Mof_C 	C 	0.3553	0.3864	0.2762	-0.039
Mof_H 	H 	0.341	0.3934	0.2609	0.045
Mof_C 	C 	0.3457	0.3735	0.3045	-0.061
Mof_H 	H 	0.3244	0.3686	0.3077	0.042
Mof_C 	C 	0.4116	0.3815	0.2941	-0.038
Mof_H 	H 	0.4331	0.3842	0.29	0.044
Mof_C 	C 	0.3703	0.4002	0.3228	-0.072
Mof_H 	H 	0.3644	0.4144	0.3386	0.052
Mof_O 	O 	0.3527	0.46844	0.19186	-0.406
Mof_O 	O 	0.38911	0.46798	0.15474	-0.412
Mof_C 	C 	0.3778	0.95816	0.6793	0.363
Mof_C 	C 	0.39384	0.93336	0.6959	-0.1
Mof_C 	C 	0.384	0.9236	0.7254	-0.002
Mof_H 	H 	0.367	0.9335	0.7353	0.044
Mof_C 	C 	0.3553	0.8864	0.7762	-0.039
Mof_H 	H 	0.341	0.8934	0.7609	0.045
Mof_C 	C 	0.3457	0.8735	0.8045	-0.061
Mof_H 	H 	0.3244	0.8686	0.8077	0.042
Mof_C 	C 	0.4116	0.8815	0.7941	-0.038
Mof_H 	H 	0.4331	0.8842	0.79	0.044
Mof_C 	C 	0.3703	0.9002	0.8228	-0.072
Mof_H 	H 	0.3644	0.9144	0.8386	0.052
Mof_O 	O 	0.3527	0.96844	0.69186	-0.403
Mof_O 	O 	0.38911	0.96798	0.65474	-0.409
Mof_C 	C 	0.1222	0.45816	0.3207	0.363
Mof_C 	C 	0.10616	0.43336	0.3041	-0.101
Mof_C 	C 	0.116	0.4236	0.2746	-0.001
Mof_H 	H 	0.133	0.4335	0.2647	0.043
Mof_C 	C 	0.1447	0.3864	0.2238	-0.039
Mof_H 	H 	0.159	0.3934	0.2391	0.045
Mof_C 	C 	0.1543	0.3735	0.1955	-0.061
Mof_H 	H 	0.1756	0.3686	0.1923	0.042
Mof_C 	C 	0.0884	0.3815	0.2059	-0.038
Mof_H 	H 	0.0669	0.3842	0.21	0.043
Mof_C 	C 	0.1297	0.4002	0.1772	-0.072
Mof_H 	H 	0.1356	0.4144	0.1614	0.052
Mof_O 	O 	0.1473	0.46844	0.30814	-0.406
Mof_O 	O 	0.11089	0.46798	0.34526	-0.413
Mof_C 	C 	0.1222	0.95816	0.8207	0.363
Mof_C 	C 	0.10616	0.93336	0.8041	-0.1
Mof_C 	C 	0.116	0.9236	0.7746	-0.002
Mof_H 	H 	0.133	0.9335	0.7647	0.044
Mof_C 	C 	0.1447	0.8864	0.7238	-0.039
Mof_H 	H 	0.159	0.8934	0.7391	0.045
Mof_C 	C 	0.1543	0.8735	0.6955	-0.061
Mof_H 	H 	0.1756	0.8686	0.6923	0.042
Mof_C 	C 	0.0884	0.8815	0.7059	-0.038
Mof_H 	H 	0.0669	0.8842	0.71	0.043
Mof_C 	C 	0.1297	0.9002	0.6772	-0.072
Mof_H 	H 	0.1356	0.9144	0.6614	0.052
Mof_O 	O 	0.1473	0.96844	0.80814	-0.403
Mof_O 	O 	0.11089	0.96798	0.84526	-0.41
Mof_C 	C 	0.6222	0.45816	0.8207	0.363
Mof_C 	C 	0.60616	0.43336	0.8041	-0.101
Mof_C 	C 	0.616	0.4236	0.7746	-0.002
Mof_H 	H 	0.633	0.4335	0.7647	0.044
Mof_C 	C 	0.6447	0.3864	0.7238	-0.039
Mof_H 	H 	0.659	0.3934	0.7391	0.044
Mof_C 	C 	0.6543	0.3735	0.6955	-0.062
Mof_H 	H 	0.6756	0.3686	0.6923	0.042
Mof_C 	C 	0.5884	0.3815	0.7059	-0.038
Mof_H 	H 	0.5669	0.3842	0.71	0.044
Mof_C 	C 	0.6297	0.4002	0.6772	-0.072
Mof_H 	H 	0.6356	0.4144	0.6614	0.052
Mof_O 	O 	0.6473	0.46844	0.80814	-0.406
Mof_O 	O 	0.61089	0.46798	0.84526	-0.412
Mof_C 	C 	0.6222	0.95816	0.3207	0.363
Mof_C 	C 	0.60616	0.93336	0.3041	-0.1
Mof_C 	C 	0.616	0.9236	0.2746	-0.002
Mof_H 	H 	0.633	0.9335	0.2647	0.044
Mof_C 	C 	0.6447	0.8864	0.2238	-0.039
Mof_H 	H 	0.659	0.8934	0.2391	0.045
Mof_C 	C 	0.6543	0.8735	0.1955	-0.061
Mof_H 	H 	0.6756	0.8686	0.1923	0.042
Mof_C 	C 	0.5884	0.8815	0.2059	-0.038
Mof_H 	H 	0.5669	0.8842	0.21	0.044
Mof_C 	C 	0.6297	0.9002	0.1772	-0.072
Mof_H 	H 	0.6356	0.9144	0.1614	0.052
Mof_O 	O 	0.6473	0.96844	0.30814	-0.403
Mof_O 	O 	0.61089	0.96798	0.34526	-0.409
Mof_C 	C 	0.54184	0.3207	0.8778	0.363
Mof_C 	C 	0.56664	0.3041	0.89384	-0.1
Mof_C 	C 	0.5764	0.2746	0.884	-0.002
Mof_H 	H 	0.5665	0.2647	0.867	0.044
Mof_C 	C 	0.6136	0.2238	0.8553	-0.039
Mof_H 	H 	0.6066	0.2391	0.841	0.044
Mof_C 	C 	0.6265	0.1955	0.8457	-0.062
Mof_H 	H 	0.6314	0.1923	0.8244	0.042
Mof_C 	C 	0.6185	0.2059	0.9116	-0.038
Mof_H 	H 	0.6158	0.21	0.9331	0.044
Mof_C 	C 	0.5998	0.1772	0.8703	-0.072
Mof_H 	H 	0.5856	0.1614	0.8644	0.052
Mof_O 	O 	0.53156	0.30814	0.8527	-0.406
Mof_O 	O 	0.53202	0.34526	0.88911	-0.412
Mof_C 	C 	0.54184	0.8207	0.3778	0.363
Mof_C 	C 	0.56664	0.8041	0.39384	-0.101
Mof_C 	C 	0.5764	0.7746	0.384	-0.002
Mof_H 	H 	0.5665	0.7647	0.367	0.044
Mof_C 	C 	0.6136	0.7238	0.3553	-0.039
Mof_H 	H 	0.6066	0.7391	0.341	0.044
Mof_C 	C 	0.6265	0.6955	0.3457	-0.062
Mof_H 	H 	0.6314	0.6923	0.3244	0.042
Mof_C 	C 	0.6185	0.7059	0.4116	-0.038
Mof_H 	H 	0.6158	0.71	0.4331	0.044
Mof_C 	C 	0.5998	0.6772	0.3703	-0.072
Mof_H 	H 	0.5856	0.6614	0.3644	0.052
Mof_O 	O 	0.53156	0.80814	0.3527	-0.406
Mof_O 	O 	0.53202	0.84526	0.38911	-0.412
Mof_C 	C 	0.04184	0.3207	0.3778	0.363
Mof_C 	C 	0.06664	0.3041	0.39384	-0.102
Mof_C 	C 	0.0764	0.2746	0.384	-0.001
Mof_H 	H 	0.0665	0.2647	0.367	0.043
Mof_C 	C 	0.1136	0.2238	0.3553	-0.039
Mof_H 	H 	0.1066	0.2391	0.341	0.044
Mof_C 	C 	0.1265	0.1955	0.3457	-0.062
Mof_H 	H 	0.1314	0.1923	0.3244	0.042
Mof_C 	C 	0.1185	0.2059	0.4116	-0.038
Mof_H 	H 	0.1158	0.21	0.4331	0.043
Mof_C 	C 	0.0998	0.1772	0.3703	-0.072
Mof_H 	H 	0.0856	0.1614	0.3644	0.051
Mof_O 	O 	0.03156	0.30814	0.3527	-0.407
Mof_O 	O 	0.03202	0.34526	0.38911	-0.414
Mof_C 	C 	0.04184	0.8207	0.8778	0.363
Mof_C 	C 	0.06664	0.8041	0.89384	-0.101
Mof_C 	C 	0.0764	0.7746	0.884	-0.002
Mof_H 	H 	0.0665	0.7647	0.867	0.043
Mof_C 	C 	0.1136	0.7238	0.8553	-0.039
Mof_H 	H 	0.1066	0.7391	0.841	0.044
Mof_C 	C 	0.1265	0.6955	0.8457	-0.062
Mof_H 	H 	0.1314	0.6923	0.8244	0.042
Mof_C 	C 	0.1185	0.7059	0.9116	-0.038
Mof_H 	H 	0.1158	0.71	0.9331	0.044
Mof_C 	C 	0.0998	0.6772	0.8703	-0.072
Mof_H 	H 	0.0856	0.6614	0.8644	0.052
Mof_O 	O 	0.03156	0.80814	0.8527	-0.407
Mof_O 	O 	0.03202	0.84526	0.88911	-0.413
Mof_C 	C 	0.54184	0.6793	0.1222	0.363
Mof_C 	C 	0.56664	0.6959	0.10616	-0.101
Mof_C 	C 	0.5764	0.7254	0.116	-0.001
Mof_H 	H 	0.5665	0.7353	0.133	0.043
Mof_C 	C 	0.6136	0.7762	0.1447	-0.039
Mof_H 	H 	0.6066	0.7609	0.159	0.044
Mof_C 	C 	0.6265	0.8045	0.1543	-0.062
Mof_H 	H 	0.6314	0.8077	0.1756	0.042
Mof_C 	C 	0.6185	0.7941	0.0884	-0.038
Mof_H 	H 	0.6158	0.79	0.0669	0.043
Mof_C 	C 	0.5998	0.8228	0.1297	-0.072
Mof_H 	H 	0.5856	0.8386	0.1356	0.052
Mof_O 	O 	0.53156	0.69186	0.1473	-0.406
Mof_O 	O 	0.53202	0.65474	0.11089	-0.413
Mof_C 	C 	0.54184	0.1793	0.6222	0.363
Mof_C 	C 	0.56664	0.1959	0.60616	-0.101
Mof_C 	C 	0.5764	0.2254	0.616	-0.001
Mof_H 	H 	0.5665	0.2353	0.633	0.043
Mof_C 	C 	0.6136	0.2762	0.6447	-0.039
Mof_H 	H 	0.6066	0.2609	0.659	0.044
Mof_C 	C 	0.6265	0.3045	0.6543	-0.062
Mof_H 	H 	0.6314	0.3077	0.6756	0.042
Mof_C 	C 	0.6185	0.2941	0.5884	-0.038
Mof_H 	H 	0.6158	0.29	0.5669	0.044
Mof_C 	C 	0.5998	0.3228	0.6297	-0.072
Mof_H 	H 	0.5856	0.3386	0.6356	0.052
Mof_O 	O 	0.53156	0.19186	0.6473	-0.406
Mof_O 	O 	0.53202	0.15474	0.61089	-0.412
Mof_C 	C 	0.04184	0.6793	0.6222	0.363
Mof_C 	C 	0.06664	0.6959	0.60616	-0.102
Mof_C 	C 	0.0764	0.7254	0.616	-0.001
Mof_H 	H 	0.0665	0.7353	0.633	0.043
Mof_C 	C 	0.1136	0.7762	0.6447	-0.039
Mof_H 	H 	0.1066	0.7609	0.659	0.044
Mof_C 	C 	0.1265	0.8045	0.6543	-0.062
Mof_H 	H 	0.1314	0.8077	0.6756	0.042
Mof_C 	C 	0.1185	0.7941	0.5884	-0.038
Mof_H 	H 	0.1158	0.79	0.5669	0.043
Mof_C 	C 	0.0998	0.8228	0.6297	-0.072
Mof_H 	H 	0.0856	0.8386	0.6356	0.052
Mof_O 	O 	0.03156	0.69186	0.6473	-0.407
Mof_O 	O 	0.03202	0.65474	0.61089	-0.414
Mof_C 	C 	0.04184	0.1793	0.1222	0.363
Mof_C 	C 	0.06664	0.1959	0.10616	-0.102
Mof_C 	C 	0.0764	0.2254	0.116	-0.001
Mof_H 	H 	0.0665	0.2353	0.133	0.043
Mof_C 	C 	0.1136	0.2762	0.1447	-0.039
Mof_H 	H 	0.1066	0.2609	0.159	0.044
Mof_C 	C 	0.1265	0.3045	0.1543	-0.062
Mof_H 	H 	0.1314	0.3077	0.1756	0.042
Mof_C 	C 	0.1185	0.2941	0.0884	-0.038
Mof_H 	H 	0.1158	0.29	0.0669	0.042
Mof_C 	C 	0.0998	0.3228	0.1297	-0.072
Mof_H 	H 	0.0856	0.3386	0.1356	0.051
Mof_O 	O 	0.03156	0.19186	0.1473	-0.407
Mof_O 	O 	0.03202	0.15474	0.11089	-0.414
Mof_C 	C 	0.45816	0.3207	0.1222	0.363
Mof_C 	C 	0.43336	0.3041	0.10616	-0.101
Mof_C 	C 	0.4236	0.2746	0.116	-0.001
Mof_H 	H 	0.4335	0.2647	0.133	0.043
Mof_C 	C 	0.3864	0.2238	0.1447	-0.039
Mof_H 	H 	0.3934	0.2391	0.159	0.045
Mof_C 	C 	0.3735	0.1955	0.1543	-0.061
Mof_H 	H 	0.3686	0.1923	0.1756	0.042
Mof_C 	C 	0.3815	0.2059	0.0884	-0.038
Mof_H 	H 	0.3842	0.21	0.0669	0.043
Mof_C 	C 	0.4002	0.1772	0.1297	-0.072
Mof_H 	H 	0.4144	0.1614	0.1356	0.052
Mof_O 	O 	0.46844	0.30814	0.1473	-0.406
Mof_O 	O 	0.46798	0.34526	0.11089	-0.413
Mof_C 	C 	0.45816	0.8207	0.6222	0.363
Mof_C 	C 	0.43336	0.8041	0.60616	-0.101
Mof_C 	C 	0.4236	0.7746	0.616	-0.002
Mof_H 	H 	0.4335	0.7647	0.633	0.044
Mof_C 	C 	0.3864	0.7238	0.6447	-0.039
Mof_H 	H 	0.3934	0.7391	0.659	0.044
Mof_C 	C 	0.3735	0.6955	0.6543	-0.062
Mof_H 	H 	0.3686	0.6923	0.6756	0.042
Mof_C 	C 	0.3815	0.7059	0.5884	-0.038
Mof_H 	H 	0.3842	0.71	0.5669	0.044
Mof_C 	C 	0.4002	0.6772	0.6297	-0.072
Mof_H 	H 	0.4144	0.6614	0.6356	0.052
Mof_O 	O 	0.46844	0.80814	0.6473	-0.406
Mof_O 	O 	0.46798	0.84526	0.61089	-0.412
Mof_C 	C 	0.95816	0.3207	0.6222	0.363
Mof_C 	C 	0.93336	0.3041	0.60616	-0.1
Mof_C 	C 	0.9236	0.2746	0.616	-0.002
Mof_H 	H 	0.9335	0.2647	0.633	0.044
Mof_C 	C 	0.8864	0.2238	0.6447	-0.039
Mof_H 	H 	0.8934	0.2391	0.659	0.045
Mof_C 	C 	0.8735	0.1955	0.6543	-0.061
Mof_H 	H 	0.8686	0.1923	0.6756	0.042
Mof_C 	C 	0.8815	0.2059	0.5884	-0.038
Mof_H 	H 	0.8842	0.21	0.5669	0.044
Mof_C 	C 	0.9002	0.1772	0.6297	-0.072
Mof_H 	H 	0.9144	0.1614	0.6356	0.052
Mof_O 	O 	0.96844	0.30814	0.6473	-0.403
Mof_O 	O 	0.96798	0.34526	0.61089	-0.409
Mof_C 	C 	0.95816	0.8207	0.1222	0.363
Mof_C 	C 	0.93336	0.8041	0.10616	-0.1
Mof_C 	C 	0.9236	0.7746	0.116	-0.002
Mof_H 	H 	0.9335	0.7647	0.133	0.044
Mof_C 	C 	0.8864	0.7238	0.1447	-0.039
Mof_H 	H 	0.8934	0.7391	0.159	0.045
Mof_C 	C 	0.8735	0.6955	0.1543	-0.061
Mof_H 	H 	0.8686	0.6923	0.1756	0.042
Mof_C 	C 	0.8815	0.7059	0.0884	-0.038
Mof_H 	H 	0.8842	0.71	0.0669	0.043
Mof_C 	C 	0.9002	0.6772	0.1297	-0.072
Mof_H 	H 	0.9144	0.6614	0.1356	0.052
Mof_O 	O 	0.96844	0.80814	0.1473	-0.403
Mof_O 	O 	0.96798	0.84526	0.11089	-0.41
Mof_C 	C 	0.45816	0.6793	0.8778	0.363
Mof_C 	C 	0.43336	0.6959	0.89384	-0.1
Mof_C 	C 	0.4236	0.7254	0.884	-0.002
Mof_H 	H 	0.4335	0.7353	0.867	0.044
Mof_C 	C 	0.3864	0.7762	0.8553	-0.039
Mof_H 	H 	0.3934	0.7609	0.841	0.044
Mof_C 	C 	0.3735	0.8045	0.8457	-0.062
Mof_H 	H 	0.3686	0.8077	0.8244	0.042
Mof_C 	C 	0.3815	0.7941	0.9116	-0.038
Mof_H 	H 	0.3842	0.79	0.9331	0.044
Mof_C 	C 	0.4002	0.8228	0.8703	-0.072
Mof_H 	H 	0.4144	0.8386	0.8644	0.052
Mof_O 	O 	0.46844	0.69186	0.8527	-0.406
Mof_O 	O 	0.46798	0.65474	0.88911	-0.412
Mof_C 	C 	0.45816	0.1793	0.3778	0.363
Mof_C 	C 	0.43336	0.1959	0.39384	-0.101
Mof_C 	C 	0.4236	0.2254	0.384	-0.001
Mof_H 	H 	0.4335	0.2353	0.367	0.044
Mof_C 	C 	0.3864	0.2762	0.3553	-0.039
Mof_H 	H 	0.3934	0.2609	0.341	0.045
Mof_C 	C 	0.3735	0.3045	0.3457	-0.061
Mof_H 	H 	0.3686	0.3077	0.3244	0.042
Mof_C 	C 	0.3815	0.2941	0.4116	-0.038
Mof_H 	H 	0.3842	0.29	0.4331	0.044
Mof_C 	C 	0.4002	0.3228	0.3703	-0.072
Mof_H 	H 	0.4144	0.3386	0.3644	0.052
Mof_O 	O 	0.46844	0.19186	0.3527	-0.406
Mof_O 	O 	0.46798	0.15474	0.38911	-0.412
Mof_C 	C 	0.95816	0.6793	0.3778	0.363
Mof_C 	C 	0.93336	0.6959	0.39384	-0.1
Mof_C 	C 	0.9236	0.7254	0.384	-0.002
Mof_H 	H 	0.9335	0.7353	0.367	0.044
Mof_C 	C 	0.8864	0.7762	0.3553	-0.039
Mof_H 	H 	0.8934	0.7609	0.341	0.045
Mof_C 	C 	0.8735	0.8045	0.3457	-0.061
Mof_H 	H 	0.8686	0.8077	0.3244	0.042
Mof_C 	C 	0.8815	0.7941	0.4116	-0.038
Mof_H 	H 	0.8842	0.79	0.4331	0.044
Mof_C 	C 	0.9002	0.8228	0.3703	-0.072
Mof_H 	H 	0.9144	0.8386	0.3644	0.052
Mof_O 	O 	0.96844	0.69186	0.3527	-0.403
Mof_O 	O 	0.96798	0.65474	0.38911	-0.409
Mof_C 	C 	0.95816	0.1793	0.8778	0.362
Mof_C 	C 	0.93336	0.1959	0.89384	-0.099
Mof_C 	C 	0.9236	0.2254	0.884	-0.002
Mof_H 	H 	0.9335	0.2353	0.867	0.044
Mof_C 	C 	0.8864	0.2762	0.8553	-0.039
Mof_H 	H 	0.8934	0.2609	0.841	0.045
Mof_C 	C 	0.8735	0.3045	0.8457	-0.061
Mof_H 	H 	0.8686	0.3077	0.8244	0.042
Mof_C 	C 	0.8815	0.2941	0.9116	-0.038
Mof_H 	H 	0.8842	0.29	0.9331	0.045
Mof_C 	C 	0.9002	0.3228	0.8703	-0.071
Mof_H 	H 	0.9144	0.3386	0.8644	0.053
Mof_O 	O 	0.96844	0.19186	0.8527	-0.403
Mof_O 	O 	0.96798	0.15474	0.88911	-0.409
Mof_C 	C 	0.8778	0.6793	0.45816	0.363
Mof_C 	C 	0.89384	0.6959	0.43336	-0.1
Mof_C 	C 	0.884	0.7254	0.4236	-0.002
Mof_H 	H 	0.867	0.7353	0.4335	0.044
Mof_C 	C 	0.8553	0.7762	0.3864	-0.039
Mof_H 	H 	0.841	0.7609	0.3934	0.044
Mof_C 	C 	0.8457	0.8045	0.3735	-0.062
Mof_H 	H 	0.8244	0.8077	0.3686	0.042
Mof_C 	C 	0.9116	0.7941	0.3815	-0.038
Mof_H 	H 	0.9331	0.79	0.3842	0.044
Mof_C 	C 	0.8703	0.8228	0.4002	-0.072
Mof_H 	H 	0.8644	0.8386	0.4144	0.052
Mof_O 	O 	0.8527	0.69186	0.46844	-0.406
Mof_O 	O 	0.88911	0.65474	0.46798	-0.412
Mof_C 	C 	0.8778	0.1793	0.95816	0.362
Mof_C 	C 	0.89384	0.1959	0.93336	-0.099
Mof_C 	C 	0.884	0.2254	0.9236	-0.002
Mof_H 	H 	0.867	0.2353	0.9335	0.044
Mof_C 	C 	0.8553	0.2762	0.8864	-0.039
Mof_H 	H 	0.841	0.2609	0.8934	0.045
Mof_C 	C 	0.8457	0.3045	0.8735	-0.061
Mof_H 	H 	0.8244	0.3077	0.8686	0.042
Mof_C 	C 	0.9116	0.2941	0.8815	-0.038
Mof_H 	H 	0.9331	0.29	0.8842	0.045
Mof_C 	C 	0.8703	0.3228	0.9002	-0.071
Mof_H 	H 	0.8644	0.3386	0.9144	0.053
Mof_O 	O 	0.8527	0.19186	0.96844	-0.403
Mof_O 	O 	0.88911	0.15474	0.96798	-0.409
Mof_C 	C 	0.3778	0.6793	0.95816	0.363
Mof_C 	C 	0.39384	0.6959	0.93336	-0.1
Mof_C 	C 	0.384	0.7254	0.9236	-0.002
Mof_H 	H 	0.367	0.7353	0.9335	0.044
Mof_C 	C 	0.3553	0.7762	0.8864	-0.039
Mof_H 	H 	0.341	0.7609	0.8934	0.045
Mof_C 	C 	0.3457	0.8045	0.8735	-0.061
Mof_H 	H 	0.3244	0.8077	0.8686	0.042
Mof_C 	C 	0.4116	0.7941	0.8815	-0.038
Mof_H 	H 	0.4331	0.79	0.8842	0.044
Mof_C 	C 	0.3703	0.8228	0.9002	-0.072
Mof_H 	H 	0.3644	0.8386	0.9144	0.052
Mof_O 	O 	0.3527	0.69186	0.96844	-0.403
Mof_O 	O 	0.38911	0.65474	0.96798	-0.409
Mof_C 	C 	0.3778	0.1793	0.45816	0.363
Mof_C 	C 	0.39384	0.1959	0.43336	-0.101
Mof_C 	C 	0.384	0.2254	0.4236	-0.001
Mof_H 	H 	0.367	0.2353	0.4335	0.044
Mof_C 	C 	0.3553	0.2762	0.3864	-0.039
Mof_H 	H 	0.341	0.2609	0.3934	0.045
Mof_C 	C 	0.3457	0.3045	0.3735	-0.061
Mof_H 	H 	0.3244	0.3077	0.3686	0.042
Mof_C 	C 	0.4116	0.2941	0.3815	-0.038
Mof_H 	H 	0.4331	0.29	0.3842	0.044
Mof_C 	C 	0.3703	0.3228	0.4002	-0.072
Mof_H 	H 	0.3644	0.3386	0.4144	0.052
Mof_O 	O 	0.3527	0.19186	0.46844	-0.406
Mof_O 	O 	0.38911	0.15474	0.46798	-0.412
Mof_C 	C 	0.1222	0.3207	0.45816	0.363
Mof_C 	C 	0.10616	0.3041	0.43336	-0.101
Mof_C 	C 	0.116	0.2746	0.4236	-0.001
Mof_H 	H 	0.133	0.2647	0.4335	0.043
Mof_C 	C 	0.1447	0.2238	0.3864	-0.039
Mof_H 	H 	0.159	0.2391	0.3934	0.045
Mof_C 	C 	0.1543	0.1955	0.3735	-0.061
Mof_H 	H 	0.1756	0.1923	0.3686	0.042
Mof_C 	C 	0.0884	0.2059	0.3815	-0.038
Mof_H 	H 	0.0669	0.21	0.3842	0.043
Mof_C 	C 	0.1297	0.1772	0.4002	-0.072
Mof_H 	H 	0.1356	0.1614	0.4144	0.052
Mof_O 	O 	0.1473	0.30814	0.46844	-0.406
Mof_O 	O 	0.11089	0.34526	0.46798	-0.413
Mof_C 	C 	0.1222	0.8207	0.95816	0.363
Mof_C 	C 	0.10616	0.8041	0.93336	-0.1
Mof_C 	C 	0.116	0.7746	0.9236	-0.002
Mof_H 	H 	0.133	0.7647	0.9335	0.044
Mof_C 	C 	0.1447	0.7238	0.8864	-0.039
Mof_H 	H 	0.159	0.7391	0.8934	0.045
Mof_C 	C 	0.1543	0.6955	0.8735	-0.061
Mof_H 	H 	0.1756	0.6923	0.8686	0.042
Mof_C 	C 	0.0884	0.7059	0.8815	-0.038
Mof_H 	H 	0.0669	0.71	0.8842	0.043
Mof_C 	C 	0.1297	0.6772	0.9002	-0.072
Mof_H 	H 	0.1356	0.6614	0.9144	0.052
Mof_O 	O 	0.1473	0.80814	0.96844	-0.403
Mof_O 	O 	0.11089	0.84526	0.96798	-0.41
Mof_C 	C 	0.6222	0.3207	0.95816	0.363
Mof_C 	C 	0.60616	0.3041	0.93336	-0.1
Mof_C 	C 	0.616	0.2746	0.9236	-0.002
Mof_H 	H 	0.633	0.2647	0.9335	0.044
Mof_C 	C 	0.6447	0.2238	0.8864	-0.039
Mof_H 	H 	0.659	0.2391	0.8934	0.045
Mof_C 	C 	0.6543	0.1955	0.8735	-0.061
Mof_H 	H 	0.6756	0.1923	0.8686	0.042
Mof_C 	C 	0.5884	0.2059	0.8815	-0.038
Mof_H 	H 	0.5669	0.21	0.8842	0.044
Mof_C 	C 	0.6297	0.1772	0.9002	-0.072
Mof_H 	H 	0.6356	0.1614	0.9144	0.052
Mof_O 	O 	0.6473	0.30814	0.96844	-0.403
Mof_O 	O 	0.61089	0.34526	0.96798	-0.409
Mof_C 	C 	0.6222	0.8207	0.45816	0.363
Mof_C 	C 	0.60616	0.8041	0.43336	-0.101
Mof_C 	C 	0.616	0.7746	0.4236	-0.002
Mof_H 	H 	0.633	0.7647	0.4335	0.044
Mof_C 	C 	0.6447	0.7238	0.3864	-0.039
Mof_H 	H 	0.659	0.7391	0.3934	0.044
Mof_C 	C 	0.6543	0.6955	0.3735	-0.062
Mof_H 	H 	0.6756	0.6923	0.3686	0.042
Mof_C 	C 	0.5884	0.7059	0.3815	-0.038
Mof_H 	H 	0.5669	0.71	0.3842	0.044
Mof_C 	C 	0.6297	0.6772	0.4002	-0.072
Mof_H 	H 	0.6356	0.6614	0.4144	0.052
Mof_O 	O 	0.6473	0.80814	0.46844	-0.406
Mof_O 	O 	0.61089	0.84526	0.46798	-0.412
Mof_C 	C 	0.1222	0.6793	0.54184	0.363
Mof_C 	C 	0.10616	0.6959	0.56664	-0.101
Mof_C 	C 	0.116	0.7254	0.5764	-0.001
Mof_H 	H 	0.133	0.7353	0.5665	0.043
Mof_C 	C 	0.1447	0.7762	0.6136	-0.039
Mof_H 	H 	0.159	0.7609	0.6066	0.044
Mof_C 	C 	0.1543	0.8045	0.6265	-0.062
Mof_H 	H 	0.1756	0.8077	0.6314	0.042
Mof_C 	C 	0.0884	0.7941	0.6185	-0.038
Mof_H 	H 	0.0669	0.79	0.6158	0.043
Mof_C 	C 	0.1297	0.8228	0.5998	-0.072
Mof_H 	H 	0.1356	0.8386	0.5856	0.052
Mof_O 	O 	0.1473	0.69186	0.53156	-0.406
Mof_O 	O 	0.11089	0.65474	0.53202	-0.413
Mof_C 	C 	0.1222	0.1793	0.04184	0.363
Mof_C 	C 	0.10616	0.1959	0.06664	-0.102
Mof_C 	C 	0.116	0.2254	0.0764	-0.001
Mof_H 	H 	0.133	0.2353	0.0665	0.043
Mof_C 	C 	0.1447	0.2762	0.1136	-0.039
Mof_H 	H 	0.159	0.2609	0.1066	0.044
Mof_C 	C 	0.1543	0.3045	0.1265	-0.062
Mof_H 	H 	0.1756	0.3077	0.1314	0.042
Mof_C 	C 	0.0884	0.2941	0.1185	-0.038
Mof_H 	H 	0.0669	0.29	0.1158	0.042
Mof_C 	C 	0.1297	0.3228	0.0998	-0.072
Mof_H 	H 	0.1356	0.3386	0.0856	0.051
Mof_O 	O 	0.1473	0.19186	0.03156	-0.407
Mof_O 	O 	0.11089	0.15474	0.03202	-0.414
Mof_C 	C 	0.6222	0.6793	0.04184	0.363
Mof_C 	C 	0.60616	0.6959	0.06664	-0.102
Mof_C 	C 	0.616	0.7254	0.0764	-0.001
Mof_H 	H 	0.633	0.7353	0.0665	0.043
Mof_C 	C 	0.6447	0.7762	0.1136	-0.039
Mof_H 	H 	0.659	0.7609	0.1066	0.044
Mof_C 	C 	0.6543	0.8045	0.1265	-0.062
Mof_H 	H 	0.6756	0.8077	0.1314	0.042
Mof_C 	C 	0.5884	0.7941	0.1185	-0.038
Mof_H 	H 	0.5669	0.79	0.1158	0.043
Mof_C 	C 	0.6297	0.8228	0.0998	-0.072
Mof_H 	H 	0.6356	0.8386	0.0856	0.052
Mof_O 	O 	0.6473	0.69186	0.03156	-0.407
Mof_O 	O 	0.61089	0.65474	0.03202	-0.414
Mof_C 	C 	0.6222	0.1793	0.54184	0.363
Mof_C 	C 	0.60616	0.1959	0.56664	-0.101
Mof_C 	C 	0.616	0.2254	0.5764	-0.001
Mof_H 	H 	0.633	0.2353	0.5665	0.043
Mof_C 	C 	0.6447	0.2762	0.6136	-0.039
Mof_H 	H 	0.659	0.2609	0.6066	0.044
Mof_C 	C 	0.6543	0.3045	0.6265	-0.062
Mof_H 	H 	0.6756	0.3077	0.6314	0.042
Mof_C 	C 	0.5884	0.2941	0.6185	-0.038
Mof_H 	H 	0.5669	0.29	0.6158	0.044
Mof_C 	C 	0.6297	0.3228	0.5998	-0.072
Mof_H 	H 	0.6356	0.3386	0.5856	0.052
Mof_O 	O 	0.6473	0.19186	0.53156	-0.406
Mof_O 	O 	0.61089	0.15474	0.53202	-0.412
Mof_C 	C 	0.8778	0.3207	0.54184	0.363
Mof_C 	C 	0.89384	0.3041	0.56664	-0.1
Mof_C 	C 	0.884	0.2746	0.5764	-0.002
Mof_H 	H 	0.867	0.2647	0.5665	0.044
Mof_C 	C 	0.8553	0.2238	0.6136	-0.039
Mof_H 	H 	0.841	0.2391	0.6066	0.044
Mof_C 	C 	0.8457	0.1955	0.6265	-0.062
Mof_H 	H 	0.8244	0.1923	0.6314	0.042
Mof_C 	C 	0.9116	0.2059	0.6185	-0.038
Mof_H 	H 	0.9331	0.21	0.6158	0.044
Mof_C 	C 	0.8703	0.1772	0.5998	-0.072
Mof_H 	H 	0.8644	0.1614	0.5856	0.052
Mof_O 	O 	0.8527	0.30814	0.53156	-0.406
Mof_O 	O 	0.88911	0.34526	0.53202	-0.412
Mof_C 	C 	0.8778	0.8207	0.04184	0.363
Mof_C 	C 	0.89384	0.8041	0.06664	-0.101
Mof_C 	C 	0.884	0.7746	0.0764	-0.002
Mof_H 	H 	0.867	0.7647	0.0665	0.043
Mof_C 	C 	0.8553	0.7238	0.1136	-0.039
Mof_H 	H 	0.841	0.7391	0.1066	0.044
Mof_C 	C 	0.8457	0.6955	0.1265	-0.062
Mof_H 	H 	0.8244	0.6923	0.1314	0.042
Mof_C 	C 	0.9116	0.7059	0.1185	-0.038
Mof_H 	H 	0.9331	0.71	0.1158	0.044
Mof_C 	C 	0.8703	0.6772	0.0998	-0.072
Mof_H 	H 	0.8644	0.6614	0.0856	0.052
Mof_O 	O 	0.8527	0.80814	0.03156	-0.407
Mof_O 	O 	0.88911	0.84526	0.03202	-0.413
Mof_C 	C 	0.3778	0.3207	0.04184	0.363
Mof_C 	C 	0.39384	0.3041	0.06664	-0.102
Mof_C 	C 	0.384	0.2746	0.0764	-0.001
Mof_H 	H 	0.367	0.2647	0.0665	0.043
Mof_C 	C 	0.3553	0.2238	0.1136	-0.039
Mof_H 	H 	0.341	0.2391	0.1066	0.044
Mof_C 	C 	0.3457	0.1955	0.1265	-0.062
Mof_H 	H 	0.3244	0.1923	0.1314	0.042
Mof_C 	C 	0.4116	0.2059	0.1185	-0.038
Mof_H 	H 	0.4331	0.21	0.1158	0.043
Mof_C 	C 	0.3703	0.1772	0.0998	-0.072
Mof_H 	H 	0.3644	0.1614	0.0856	0.051
Mof_O 	O 	0.3527	0.30814	0.03156	-0.407
Mof_O 	O 	0.38911	0.34526	0.03202	-0.414
Mof_C 	C 	0.3778	0.8207	0.54184	0.363
Mof_C 	C 	0.39384	0.8041	0.56664	-0.101
Mof_C 	C 	0.384	0.7746	0.5764	-0.002
Mof_H 	H 	0.367	0.7647	0.5665	0.044
Mof_C 	C 	0.3553	0.7238	0.6136	-0.039
Mof_H 	H 	0.341	0.7391	0.6066	0.044
Mof_C 	C 	0.3457	0.6955	0.6265	-0.062
Mof_H 	H 	0.3244	0.6923	0.6314	0.042
Mof_C 	C 	0.4116	0.7059	0.6185	-0.038
Mof_H 	H 	0.4331	0.71	0.6158	0.044
Mof_C 	C 	0.3703	0.6772	0.5998	-0.072
Mof_H 	H 	0.3644	0.6614	0.5856	0.052
Mof_O 	O 	0.3527	0.80814	0.53156	-0.406
Mof_O 	O 	0.38911	0.84526	0.53202	-0.412
Mof_C 	C 	0.45816	0.8778	0.6793	0.363
Mof_C 	C 	0.43336	0.89384	0.6959	-0.1
Mof_C 	C 	0.4236	0.884	0.7254	-0.002
Mof_H 	H 	0.4335	0.867	0.7353	0.044
Mof_C 	C 	0.3864	0.8553	0.7762	-0.039
Mof_H 	H 	0.3934	0.841	0.7609	0.044
Mof_C 	C 	0.3735	0.8457	0.8045	-0.062
Mof_H 	H 	0.3686	0.8244	0.8077	0.042
Mof_C 	C 	0.3815	0.9116	0.7941	-0.038
Mof_H 	H 	0.3842	0.9331	0.79	0.044
Mof_C 	C 	0.4002	0.8703	0.8228	-0.072
Mof_H 	H 	0.4144	0.8644	0.8386	0.052
Mof_O 	O 	0.46844	0.8527	0.69186	-0.406
Mof_O 	O 	0.46798	0.88911	0.65474	-0.412
Mof_C 	C 	0.45816	0.3778	0.1793	0.363
Mof_C 	C 	0.43336	0.39384	0.1959	-0.101
Mof_C 	C 	0.4236	0.384	0.2254	-0.001
Mof_H 	H 	0.4335	0.367	0.2353	0.044
Mof_C 	C 	0.3864	0.3553	0.2762	-0.039
Mof_H 	H 	0.3934	0.341	0.2609	0.045
Mof_C 	C 	0.3735	0.3457	0.3045	-0.061
Mof_H 	H 	0.3686	0.3244	0.3077	0.042
Mof_C 	C 	0.3815	0.4116	0.2941	-0.038
Mof_H 	H 	0.3842	0.4331	0.29	0.044
Mof_C 	C 	0.4002	0.3703	0.3228	-0.072
Mof_H 	H 	0.4144	0.3644	0.3386	0.052
Mof_O 	O 	0.46844	0.3527	0.19186	-0.406
Mof_O 	O 	0.46798	0.38911	0.15474	-0.412
Mof_C 	C 	0.95816	0.8778	0.1793	0.362
Mof_C 	C 	0.93336	0.89384	0.1959	-0.099
Mof_C 	C 	0.9236	0.884	0.2254	-0.002
Mof_H 	H 	0.9335	0.867	0.2353	0.044
Mof_C 	C 	0.8864	0.8553	0.2762	-0.039
Mof_H 	H 	0.8934	0.841	0.2609	0.045
Mof_C 	C 	0.8735	0.8457	0.3045	-0.061
Mof_H 	H 	0.8686	0.8244	0.3077	0.042
Mof_C 	C 	0.8815	0.9116	0.2941	-0.038
Mof_H 	H 	0.8842	0.9331	0.29	0.045
Mof_C 	C 	0.9002	0.8703	0.3228	-0.071
Mof_H 	H 	0.9144	0.8644	0.3386	0.053
Mof_O 	O 	0.96844	0.8527	0.19186	-0.403
Mof_O 	O 	0.96798	0.88911	0.15474	-0.409
Mof_C 	C 	0.95816	0.3778	0.6793	0.363
Mof_C 	C 	0.93336	0.39384	0.6959	-0.1
Mof_C 	C 	0.9236	0.384	0.7254	-0.002
Mof_H 	H 	0.9335	0.367	0.7353	0.044
Mof_C 	C 	0.8864	0.3553	0.7762	-0.039
Mof_H 	H 	0.8934	0.341	0.7609	0.045
Mof_C 	C 	0.8735	0.3457	0.8045	-0.061
Mof_H 	H 	0.8686	0.3244	0.8077	0.042
Mof_C 	C 	0.8815	0.4116	0.7941	-0.038
Mof_H 	H 	0.8842	0.4331	0.79	0.044
Mof_C 	C 	0.9002	0.3703	0.8228	-0.072
Mof_H 	H 	0.9144	0.3644	0.8386	0.052
Mof_O 	O 	0.96844	0.3527	0.69186	-0.403
Mof_O 	O 	0.96798	0.38911	0.65474	-0.409
Mof_C 	C 	0.45816	0.1222	0.3207	0.363
Mof_C 	C 	0.43336	0.10616	0.3041	-0.101
Mof_C 	C 	0.4236	0.116	0.2746	-0.001
Mof_H 	H 	0.4335	0.133	0.2647	0.043
Mof_C 	C 	0.3864	0.1447	0.2238	-0.039
Mof_H 	H 	0.3934	0.159	0.2391	0.045
Mof_C 	C 	0.3735	0.1543	0.1955	-0.061
Mof_H 	H 	0.3686	0.1756	0.1923	0.042
Mof_C 	C 	0.3815	0.0884	0.2059	-0.038
Mof_H 	H 	0.3842	0.0669	0.21	0.043
Mof_C 	C 	0.4002	0.1297	0.1772	-0.072
Mof_H 	H 	0.4144	0.1356	0.1614	0.052
Mof_O 	O 	0.46844	0.1473	0.30814	-0.406
Mof_O 	O 	0.46798	0.11089	0.34526	-0.413
Mof_C 	C 	0.45816	0.6222	0.8207	0.363
Mof_C 	C 	0.43336	0.60616	0.8041	-0.101
Mof_C 	C 	0.4236	0.616	0.7746	-0.002
Mof_H 	H 	0.4335	0.633	0.7647	0.044
Mof_C 	C 	0.3864	0.6447	0.7238	-0.039
Mof_H 	H 	0.3934	0.659	0.7391	0.044
Mof_C 	C 	0.3735	0.6543	0.6955	-0.062
Mof_H 	H 	0.3686	0.6756	0.6923	0.042
Mof_C 	C 	0.3815	0.5884	0.7059	-0.038
Mof_H 	H 	0.3842	0.5669	0.71	0.044
Mof_C 	C 	0.4002	0.6297	0.6772	-0.072
Mof_H 	H 	0.4144	0.6356	0.6614	0.052
Mof_O 	O 	0.46844	0.6473	0.80814	-0.406
Mof_O 	O 	0.46798	0.61089	0.84526	-0.412
Mof_C 	C 	0.95816	0.1222	0.8207	0.363
Mof_C 	C 	0.93336	0.10616	0.8041	-0.1
Mof_C 	C 	0.9236	0.116	0.7746	-0.002
Mof_H 	H 	0.9335	0.133	0.7647	0.044
Mof_C 	C 	0.8864	0.1447	0.7238	-0.039
Mof_H 	H 	0.8934	0.159	0.7391	0.045
Mof_C 	C 	0.8735	0.1543	0.6955	-0.061
Mof_H 	H 	0.8686	0.1756	0.6923	0.042
Mof_C 	C 	0.8815	0.0884	0.7059	-0.038
Mof_H 	H 	0.8842	0.0669	0.71	0.043
Mof_C 	C 	0.9002	0.1297	0.6772	-0.072
Mof_H 	H 	0.9144	0.1356	0.6614	0.052
Mof_O 	O 	0.96844	0.1473	0.80814	-0.403
Mof_O 	O 	0.96798	0.11089	0.84526	-0.41
Mof_C 	C 	0.95816	0.6222	0.3207	0.363
Mof_C 	C 	0.93336	0.60616	0.3041	-0.1
Mof_C 	C 	0.9236	0.616	0.2746	-0.002
Mof_H 	H 	0.9335	0.633	0.2647	0.044
Mof_C 	C 	0.8864	0.6447	0.2238	-0.039
Mof_H 	H 	0.8934	0.659	0.2391	0.045
Mof_C 	C 	0.8735	0.6543	0.1955	-0.061
Mof_H 	H 	0.8686	0.6756	0.1923	0.042
Mof_C 	C 	0.8815	0.5884	0.2059	-0.038
Mof_H 	H 	0.8842	0.5669	0.21	0.044
Mof_C 	C 	0.9002	0.6297	0.1772	-0.072
Mof_H 	H 	0.9144	0.6356	0.1614	0.052
Mof_O 	O 	0.96844	0.6473	0.30814	-0.403
Mof_O 	O 	0.96798	0.61089	0.34526	-0.409
Mof_C 	C 	0.54184	0.1222	0.6793	0.363
Mof_C 	C 	0.56664	0.10616	0.6959	-0.101
Mof_C 	C 	0.5764	0.116	0.7254	-0.001
Mof_H 	H 	0.5665	0.133	0.7353	0.043
Mof_C 	C 	0.6136	0.1447	0.7762	-0.039
Mof_H 	H 	0.6066	0.159	0.7609	0.044
Mof_C 	C 	0.6265	0.1543	0.8045	-0.062
Mof_H 	H 	0.6314	0.1756	0.8077	0.042
Mof_C 	C 	0.6185	0.0884	0.7941	-0.038
Mof_H 	H 	0.6158	0.0669	0.79	0.043
Mof_C 	C 	0.5998	0.1297	0.8228	-0.072
Mof_H 	H 	0.5856	0.1356	0.8386	0.052
Mof_O 	O 	0.53156	0.1473	0.69186	-0.406
Mof_O 	O 	0.53202	0.11089	0.65474	-0.413
Mof_C 	C 	0.54184	0.6222	0.1793	0.363
Mof_C 	C 	0.56664	0.60616	0.1959	-0.101
Mof_C 	C 	0.5764	0.616	0.2254	-0.001
Mof_H 	H 	0.5665	0.633	0.2353	0.043
Mof_C 	C 	0.6136	0.6447	0.2762	-0.039
Mof_H 	H 	0.6066	0.659	0.2609	0.044
Mof_C 	C 	0.6265	0.6543	0.3045	-0.062
Mof_H 	H 	0.6314	0.6756	0.3077	0.042
Mof_C 	C 	0.6185	0.5884	0.2941	-0.038
Mof_H 	H 	0.6158	0.5669	0.29	0.044
Mof_C 	C 	0.5998	0.6297	0.3228	-0.072
Mof_H 	H 	0.5856	0.6356	0.3386	0.052
Mof_O 	O 	0.53156	0.6473	0.19186	-0.406
Mof_O 	O 	0.53202	0.61089	0.15474	-0.412
Mof_C 	C 	0.04184	0.1222	0.1793	0.363
Mof_C 	C 	0.06664	0.10616	0.1959	-0.102
Mof_C 	C 	0.0764	0.116	0.2254	-0.001
Mof_H 	H 	0.0665	0.133	0.2353	0.043
Mof_C 	C 	0.1136	0.1447	0.2762	-0.039
Mof_H 	H 	0.1066	0.159	0.2609	0.044
Mof_C 	C 	0.1265	0.1543	0.3045	-0.062
Mof_H 	H 	0.1314	0.1756	0.3077	0.042
Mof_C 	C 	0.1185	0.0884	0.2941	-0.038
Mof_H 	H 	0.1158	0.0669	0.29	0.042
Mof_C 	C 	0.0998	0.1297	0.3228	-0.072
Mof_H 	H 	0.0856	0.1356	0.3386	0.051
Mof_O 	O 	0.03156	0.1473	0.19186	-0.407
Mof_O 	O 	0.03202	0.11089	0.15474	-0.414
Mof_C 	C 	0.04184	0.6222	0.6793	0.363
Mof_C 	C 	0.06664	0.60616	0.6959	-0.102
Mof_C 	C 	0.0764	0.616	0.7254	-0.001
Mof_H 	H 	0.0665	0.633	0.7353	0.043
Mof_C 	C 	0.1136	0.6447	0.7762	-0.039
Mof_H 	H 	0.1066	0.659	0.7609	0.044
Mof_C 	C 	0.1265	0.6543	0.8045	-0.062
Mof_H 	H 	0.1314	0.6756	0.8077	0.042
Mof_C 	C 	0.1185	0.5884	0.7941	-0.038
Mof_H 	H 	0.1158	0.5669	0.79	0.043
Mof_C 	C 	0.0998	0.6297	0.8228	-0.072
Mof_H 	H 	0.0856	0.6356	0.8386	0.052
Mof_O 	O 	0.03156	0.6473	0.69186	-0.407
Mof_O 	O 	0.03202	0.61089	0.65474	-0.414
Mof_C 	C 	0.54184	0.8778	0.3207	0.363
Mof_C 	C 	0.56664	0.89384	0.3041	-0.1
Mof_C 	C 	0.5764	0.884	0.2746	-0.002
Mof_H 	H 	0.5665	0.867	0.2647	0.044
Mof_C 	C 	0.6136	0.8553	0.2238	-0.039
Mof_H 	H 	0.6066	0.841	0.2391	0.044
Mof_C 	C 	0.6265	0.8457	0.1955	-0.062
Mof_H 	H 	0.6314	0.8244	0.1923	0.042
Mof_C 	C 	0.6185	0.9116	0.2059	-0.038
Mof_H 	H 	0.6158	0.9331	0.21	0.044
Mof_C 	C 	0.5998	0.8703	0.1772	-0.072
Mof_H 	H 	0.5856	0.8644	0.1614	0.052
Mof_O 	O 	0.53156	0.8527	0.30814	-0.406
Mof_O 	O 	0.53202	0.88911	0.34526	-0.412
Mof_C 	C 	0.54184	0.3778	0.8207	0.363
Mof_C 	C 	0.56664	0.39384	0.8041	-0.101
Mof_C 	C 	0.5764	0.384	0.7746	-0.002
Mof_H 	H 	0.5665	0.367	0.7647	0.044
Mof_C 	C 	0.6136	0.3553	0.7238	-0.039
Mof_H 	H 	0.6066	0.341	0.7391	0.044
Mof_C 	C 	0.6265	0.3457	0.6955	-0.062
Mof_H 	H 	0.6314	0.3244	0.6923	0.042
Mof_C 	C 	0.6185	0.4116	0.7059	-0.038
Mof_H 	H 	0.6158	0.4331	0.71	0.044
Mof_C 	C 	0.5998	0.3703	0.6772	-0.072
Mof_H 	H 	0.5856	0.3644	0.6614	0.052
Mof_O 	O 	0.53156	0.3527	0.80814	-0.406
Mof_O 	O 	0.53202	0.38911	0.84526	-0.412
Mof_C 	C 	0.04184	0.8778	0.8207	0.363
Mof_C 	C 	0.06664	0.89384	0.8041	-0.101
Mof_C 	C 	0.0764	0.884	0.7746	-0.002
Mof_H 	H 	0.0665	0.867	0.7647	0.043
Mof_C 	C 	0.1136	0.8553	0.7238	-0.039
Mof_H 	H 	0.1066	0.841	0.7391	0.044
Mof_C 	C 	0.1265	0.8457	0.6955	-0.062
Mof_H 	H 	0.1314	0.8244	0.6923	0.042
Mof_C 	C 	0.1185	0.9116	0.7059	-0.038
Mof_H 	H 	0.1158	0.9331	0.71	0.044
Mof_C 	C 	0.0998	0.8703	0.6772	-0.072
Mof_H 	H 	0.0856	0.8644	0.6614	0.052
Mof_O 	O 	0.03156	0.8527	0.80814	-0.407
Mof_O 	O 	0.03202	0.88911	0.84526	-0.413
Mof_C 	C 	0.04184	0.3778	0.3207	0.363
Mof_C 	C 	0.06664	0.39384	0.3041	-0.102
Mof_C 	C 	0.0764	0.384	0.2746	-0.001
Mof_H 	H 	0.0665	0.367	0.2647	0.043
Mof_C 	C 	0.1136	0.3553	0.2238	-0.039
Mof_H 	H 	0.1066	0.341	0.2391	0.044
Mof_C 	C 	0.1265	0.3457	0.1955	-0.062
Mof_H 	H 	0.1314	0.3244	0.1923	0.042
Mof_C 	C 	0.1185	0.4116	0.2059	-0.038
Mof_H 	H 	0.1158	0.4331	0.21	0.043
Mof_C 	C 	0.0998	0.3703	0.1772	-0.072
Mof_H 	H 	0.0856	0.3644	0.1614	0.051
Mof_O 	O 	0.03156	0.3527	0.30814	-0.407
Mof_O 	O 	0.03202	0.38911	0.34526	-0.414
Mof_C 	C 	0.6793	0.45816	0.8778	0.363
Mof_C 	C 	0.6959	0.43336	0.89384	-0.1
Mof_C 	C 	0.7254	0.4236	0.884	-0.002
Mof_H 	H 	0.7353	0.4335	0.867	0.044
Mof_C 	C 	0.7762	0.3864	0.8553	-0.039
Mof_H 	H 	0.7609	0.3934	0.841	0.044
Mof_C 	C 	0.8045	0.3735	0.8457	-0.062
Mof_H 	H 	0.8077	0.3686	0.8244	0.042
Mof_C 	C 	0.7941	0.3815	0.9116	-0.038
Mof_H 	H 	0.79	0.3842	0.9331	0.044
Mof_C 	C 	0.8228	0.4002	0.8703	-0.072
Mof_H 	H 	0.8386	0.4144	0.8644	0.052
Mof_O 	O 	0.69186	0.46844	0.8527	-0.406
Mof_O 	O 	0.65474	0.46798	0.88911	-0.412
Mof_C 	C 	0.6793	0.95816	0.3778	0.363
Mof_C 	C 	0.6959	0.93336	0.39384	-0.1
Mof_C 	C 	0.7254	0.9236	0.384	-0.002
Mof_H 	H 	0.7353	0.9335	0.367	0.044
Mof_C 	C 	0.7762	0.8864	0.3553	-0.039
Mof_H 	H 	0.7609	0.8934	0.341	0.045
Mof_C 	C 	0.8045	0.8735	0.3457	-0.061
Mof_H 	H 	0.8077	0.8686	0.3244	0.042
Mof_C 	C 	0.7941	0.8815	0.4116	-0.038
Mof_H 	H 	0.79	0.8842	0.4331	0.044
Mof_C 	C 	0.8228	0.9002	0.3703	-0.072
Mof_H 	H 	0.8386	0.9144	0.3644	0.052
Mof_O 	O 	0.69186	0.96844	0.3527	-0.403
Mof_O 	O 	0.65474	0.96798	0.38911	-0.409
Mof_C 	C 	0.1793	0.45816	0.3778	0.363
Mof_C 	C 	0.1959	0.43336	0.39384	-0.101
Mof_C 	C 	0.2254	0.4236	0.384	-0.001
Mof_H 	H 	0.2353	0.4335	0.367	0.044
Mof_C 	C 	0.2762	0.3864	0.3553	-0.039
Mof_H 	H 	0.2609	0.3934	0.341	0.045
Mof_C 	C 	0.3045	0.3735	0.3457	-0.061
Mof_H 	H 	0.3077	0.3686	0.3244	0.042
Mof_C 	C 	0.2941	0.3815	0.4116	-0.038
Mof_H 	H 	0.29	0.3842	0.4331	0.044
Mof_C 	C 	0.3228	0.4002	0.3703	-0.072
Mof_H 	H 	0.3386	0.4144	0.3644	0.052
Mof_O 	O 	0.19186	0.46844	0.3527	-0.406
Mof_O 	O 	0.15474	0.46798	0.38911	-0.412
Mof_C 	C 	0.1793	0.95816	0.8778	0.362
Mof_C 	C 	0.1959	0.93336	0.89384	-0.099
Mof_C 	C 	0.2254	0.9236	0.884	-0.002
Mof_H 	H 	0.2353	0.9335	0.867	0.044
Mof_C 	C 	0.2762	0.8864	0.8553	-0.039
Mof_H 	H 	0.2609	0.8934	0.841	0.045
Mof_C 	C 	0.3045	0.8735	0.8457	-0.061
Mof_H 	H 	0.3077	0.8686	0.8244	0.042
Mof_C 	C 	0.2941	0.8815	0.9116	-0.038
Mof_H 	H 	0.29	0.8842	0.9331	0.045
Mof_C 	C 	0.3228	0.9002	0.8703	-0.071
Mof_H 	H 	0.3386	0.9144	0.8644	0.053
Mof_O 	O 	0.19186	0.96844	0.8527	-0.403
Mof_O 	O 	0.15474	0.96798	0.88911	-0.409
Mof_C 	C 	0.3207	0.45816	0.1222	0.363
Mof_C 	C 	0.3041	0.43336	0.10616	-0.101
Mof_C 	C 	0.2746	0.4236	0.116	-0.001
Mof_H 	H 	0.2647	0.4335	0.133	0.043
Mof_C 	C 	0.2238	0.3864	0.1447	-0.039
Mof_H 	H 	0.2391	0.3934	0.159	0.045
Mof_C 	C 	0.1955	0.3735	0.1543	-0.061
Mof_H 	H 	0.1923	0.3686	0.1756	0.042
Mof_C 	C 	0.2059	0.3815	0.0884	-0.038
Mof_H 	H 	0.21	0.3842	0.0669	0.043
Mof_C 	C 	0.1772	0.4002	0.1297	-0.072
Mof_H 	H 	0.1614	0.4144	0.1356	0.052
Mof_O 	O 	0.30814	0.46844	0.1473	-0.406
Mof_O 	O 	0.34526	0.46798	0.11089	-0.413
Mof_C 	C 	0.3207	0.95816	0.6222	0.363
Mof_C 	C 	0.3041	0.93336	0.60616	-0.1
Mof_C 	C 	0.2746	0.9236	0.616	-0.002
Mof_H 	H 	0.2647	0.9335	0.633	0.044
Mof_C 	C 	0.2238	0.8864	0.6447	-0.039
Mof_H 	H 	0.2391	0.8934	0.659	0.045
Mof_C 	C 	0.1955	0.8735	0.6543	-0.061
Mof_H 	H 	0.1923	0.8686	0.6756	0.042
Mof_C 	C 	0.2059	0.8815	0.5884	-0.038
Mof_H 	H 	0.21	0.8842	0.5669	0.044
Mof_C 	C 	0.1772	0.9002	0.6297	-0.072
Mof_H 	H 	0.1614	0.9144	0.6356	0.052
Mof_O 	O 	0.30814	0.96844	0.6473	-0.403
Mof_O 	O 	0.34526	0.96798	0.61089	-0.409
Mof_C 	C 	0.8207	0.45816	0.6222	0.363
Mof_C 	C 	0.8041	0.43336	0.60616	-0.101
Mof_C 	C 	0.7746	0.4236	0.616	-0.002
Mof_H 	H 	0.7647	0.4335	0.633	0.044
Mof_C 	C 	0.7238	0.3864	0.6447	-0.039
Mof_H 	H 	0.7391	0.3934	0.659	0.044
Mof_C 	C 	0.6955	0.3735	0.6543	-0.062
Mof_H 	H 	0.6923	0.3686	0.6756	0.042
Mof_C 	C 	0.7059	0.3815	0.5884	-0.038
Mof_H 	H 	0.71	0.3842	0.5669	0.044
Mof_C 	C 	0.6772	0.4002	0.6297	-0.072
Mof_H 	H 	0.6614	0.4144	0.6356	0.052
Mof_O 	O 	0.80814	0.46844	0.6473	-0.406
Mof_O 	O 	0.84526	0.46798	0.61089	-0.412
Mof_C 	C 	0.8207	0.95816	0.1222	0.363
Mof_C 	C 	0.8041	0.93336	0.10616	-0.1
Mof_C 	C 	0.7746	0.9236	0.116	-0.002
Mof_H 	H 	0.7647	0.9335	0.133	0.044
Mof_C 	C 	0.7238	0.8864	0.1447	-0.039
Mof_H 	H 	0.7391	0.8934	0.159	0.045
Mof_C 	C 	0.6955	0.8735	0.1543	-0.061
Mof_H 	H 	0.6923	0.8686	0.1756	0.042
Mof_C 	C 	0.7059	0.8815	0.0884	-0.038
Mof_H 	H 	0.71	0.8842	0.0669	0.043
Mof_C 	C 	0.6772	0.9002	0.1297	-0.072
Mof_H 	H 	0.6614	0.9144	0.1356	0.052
Mof_O 	O 	0.80814	0.96844	0.1473	-0.403
Mof_O 	O 	0.84526	0.96798	0.11089	-0.41
Mof_C 	C 	0.6793	0.54184	0.1222	0.363
Mof_C 	C 	0.6959	0.56664	0.10616	-0.101
Mof_C 	C 	0.7254	0.5764	0.116	-0.001
Mof_H 	H 	0.7353	0.5665	0.133	0.043
Mof_C 	C 	0.7762	0.6136	0.1447	-0.039
Mof_H 	H 	0.7609	0.6066	0.159	0.044
Mof_C 	C 	0.8045	0.6265	0.1543	-0.062
Mof_H 	H 	0.8077	0.6314	0.1756	0.042
Mof_C 	C 	0.7941	0.6185	0.0884	-0.038
Mof_H 	H 	0.79	0.6158	0.0669	0.043
Mof_C 	C 	0.8228	0.5998	0.1297	-0.072
Mof_H 	H 	0.8386	0.5856	0.1356	0.052
Mof_O 	O 	0.69186	0.53156	0.1473	-0.406
Mof_O 	O 	0.65474	0.53202	0.11089	-0.413
Mof_C 	C 	0.6793	0.04184	0.6222	0.363
Mof_C 	C 	0.6959	0.06664	0.60616	-0.102
Mof_C 	C 	0.7254	0.0764	0.616	-0.001
Mof_H 	H 	0.7353	0.0665	0.633	0.043
Mof_C 	C 	0.7762	0.1136	0.6447	-0.039
Mof_H 	H 	0.7609	0.1066	0.659	0.044
Mof_C 	C 	0.8045	0.1265	0.6543	-0.062
Mof_H 	H 	0.8077	0.1314	0.6756	0.042
Mof_C 	C 	0.7941	0.1185	0.5884	-0.038
Mof_H 	H 	0.79	0.1158	0.5669	0.043
Mof_C 	C 	0.8228	0.0998	0.6297	-0.072
Mof_H 	H 	0.8386	0.0856	0.6356	0.052
Mof_O 	O 	0.69186	0.03156	0.6473	-0.407
Mof_O 	O 	0.65474	0.03202	0.61089	-0.414
Mof_C 	C 	0.1793	0.54184	0.6222	0.363
Mof_C 	C 	0.1959	0.56664	0.60616	-0.101
Mof_C 	C 	0.2254	0.5764	0.616	-0.001
Mof_H 	H 	0.2353	0.5665	0.633	0.043
Mof_C 	C 	0.2762	0.6136	0.6447	-0.039
Mof_H 	H 	0.2609	0.6066	0.659	0.044
Mof_C 	C 	0.3045	0.6265	0.6543	-0.062
Mof_H 	H 	0.3077	0.6314	0.6756	0.042
Mof_C 	C 	0.2941	0.6185	0.5884	-0.038
Mof_H 	H 	0.29	0.6158	0.5669	0.044
Mof_C 	C 	0.3228	0.5998	0.6297	-0.072
Mof_H 	H 	0.3386	0.5856	0.6356	0.052
Mof_O 	O 	0.19186	0.53156	0.6473	-0.406
Mof_O 	O 	0.15474	0.53202	0.61089	-0.412
Mof_C 	C 	0.1793	0.04184	0.1222	0.363
Mof_C 	C 	0.1959	0.06664	0.10616	-0.102
Mof_C 	C 	0.2254	0.0764	0.116	-0.001
Mof_H 	H 	0.2353	0.0665	0.133	0.043
Mof_C 	C 	0.2762	0.1136	0.1447	-0.039
Mof_H 	H 	0.2609	0.1066	0.159	0.044
Mof_C 	C 	0.3045	0.1265	0.1543	-0.062
Mof_H 	H 	0.3077	0.1314	0.1756	0.042
Mof_C 	C 	0.2941	0.1185	0.0884	-0.038
Mof_H 	H 	0.29	0.1158	0.0669	0.042
Mof_C 	C 	0.3228	0.0998	0.1297	-0.072
Mof_H 	H 	0.3386	0.0856	0.1356	0.051
Mof_O 	O 	0.19186	0.03156	0.1473	-0.407
Mof_O 	O 	0.15474	0.03202	0.11089	-0.414
Mof_C 	C 	0.3207	0.54184	0.8778	0.363
Mof_C 	C 	0.3041	0.56664	0.89384	-0.1
Mof_C 	C 	0.2746	0.5764	0.884	-0.002
Mof_H 	H 	0.2647	0.5665	0.867	0.044
Mof_C 	C 	0.2238	0.6136	0.8553	-0.039
Mof_H 	H 	0.2391	0.6066	0.841	0.044
Mof_C 	C 	0.1955	0.6265	0.8457	-0.062
Mof_H 	H 	0.1923	0.6314	0.8244	0.042
Mof_C 	C 	0.2059	0.6185	0.9116	-0.038
Mof_H 	H 	0.21	0.6158	0.9331	0.044
Mof_C 	C 	0.1772	0.5998	0.8703	-0.072
Mof_H 	H 	0.1614	0.5856	0.8644	0.052
Mof_O 	O 	0.30814	0.53156	0.8527	-0.406
Mof_O 	O 	0.34526	0.53202	0.88911	-0.412
Mof_C 	C 	0.3207	0.04184	0.3778	0.363
Mof_C 	C 	0.3041	0.06664	0.39384	-0.102
Mof_C 	C 	0.2746	0.0764	0.384	-0.001
Mof_H 	H 	0.2647	0.0665	0.367	0.043
Mof_C 	C 	0.2238	0.1136	0.3553	-0.039
Mof_H 	H 	0.2391	0.1066	0.341	0.044
Mof_C 	C 	0.1955	0.1265	0.3457	-0.062
Mof_H 	H 	0.1923	0.1314	0.3244	0.042
Mof_C 	C 	0.2059	0.1185	0.4116	-0.038
Mof_H 	H 	0.21	0.1158	0.4331	0.043
Mof_C 	C 	0.1772	0.0998	0.3703	-0.072
Mof_H 	H 	0.1614	0.0856	0.3644	0.051
Mof_O 	O 	0.30814	0.03156	0.3527	-0.407
Mof_O 	O 	0.34526	0.03202	0.38911	-0.414
Mof_C 	C 	0.8207	0.54184	0.3778	0.363
Mof_C 	C 	0.8041	0.56664	0.39384	-0.101
Mof_C 	C 	0.7746	0.5764	0.384	-0.002
Mof_H 	H 	0.7647	0.5665	0.367	0.044
Mof_C 	C 	0.7238	0.6136	0.3553	-0.039
Mof_H 	H 	0.7391	0.6066	0.341	0.044
Mof_C 	C 	0.6955	0.6265	0.3457	-0.062
Mof_H 	H 	0.6923	0.6314	0.3244	0.042
Mof_C 	C 	0.7059	0.6185	0.4116	-0.038
Mof_H 	H 	0.71	0.6158	0.4331	0.044
Mof_C 	C 	0.6772	0.5998	0.3703	-0.072
Mof_H 	H 	0.6614	0.5856	0.3644	0.052
Mof_O 	O 	0.80814	0.53156	0.3527	-0.406
Mof_O 	O 	0.84526	0.53202	0.38911	-0.412
Mof_C 	C 	0.8207	0.04184	0.8778	0.363
Mof_C 	C 	0.8041	0.06664	0.89384	-0.101
Mof_C 	C 	0.7746	0.0764	0.884	-0.002
Mof_H 	H 	0.7647	0.0665	0.867	0.043
Mof_C 	C 	0.7238	0.1136	0.8553	-0.039
Mof_H 	H 	0.7391	0.1066	0.841	0.044
Mof_C 	C 	0.6955	0.1265	0.8457	-0.062
Mof_H 	H 	0.6923	0.1314	0.8244	0.042
Mof_C 	C 	0.7059	0.1185	0.9116	-0.038
Mof_H 	H 	0.71	0.1158	0.9331	0.044
Mof_C 	C 	0.6772	0.0998	0.8703	-0.072
Mof_H 	H 	0.6614	0.0856	0.8644	0.052
Mof_O 	O 	0.80814	0.03156	0.8527	-0.407
Mof_O 	O 	0.84526	0.03202	0.88911	-0.413
Mof_C 	C 	0.6793	0.8778	0.54184	0.363
Mof_C 	C 	0.6959	0.89384	0.56664	-0.1
Mof_C 	C 	0.7254	0.884	0.5764	-0.002
Mof_H 	H 	0.7353	0.867	0.5665	0.044
Mof_C 	C 	0.7762	0.8553	0.6136	-0.039
Mof_H 	H 	0.7609	0.841	0.6066	0.044
Mof_C 	C 	0.8045	0.8457	0.6265	-0.062
Mof_H 	H 	0.8077	0.8244	0.6314	0.042
Mof_C 	C 	0.7941	0.9116	0.6185	-0.038
Mof_H 	H 	0.79	0.9331	0.6158	0.044
Mof_C 	C 	0.8228	0.8703	0.5998	-0.072
Mof_H 	H 	0.8386	0.8644	0.5856	0.052
Mof_O 	O 	0.69186	0.8527	0.53156	-0.406
Mof_O 	O 	0.65474	0.88911	0.53202	-0.412
Mof_C 	C 	0.6793	0.3778	0.04184	0.363
Mof_C 	C 	0.6959	0.39384	0.06664	-0.102
Mof_C 	C 	0.7254	0.384	0.0764	-0.001
Mof_H 	H 	0.7353	0.367	0.0665	0.043
Mof_C 	C 	0.7762	0.3553	0.1136	-0.039
Mof_H 	H 	0.7609	0.341	0.1066	0.044
Mof_C 	C 	0.8045	0.3457	0.1265	-0.062
Mof_H 	H 	0.8077	0.3244	0.1314	0.042
Mof_C 	C 	0.7941	0.4116	0.1185	-0.038
Mof_H 	H 	0.79	0.4331	0.1158	0.043
Mof_C 	C 	0.8228	0.3703	0.0998	-0.072
Mof_H 	H 	0.8386	0.3644	0.0856	0.052
Mof_O 	O 	0.69186	0.3527	0.03156	-0.407
Mof_O 	O 	0.65474	0.38911	0.03202	-0.414
Mof_C 	C 	0.1793	0.8778	0.04184	0.363
Mof_C 	C 	0.1959	0.89384	0.06664	-0.101
Mof_C 	C 	0.2254	0.884	0.0764	-0.002
Mof_H 	H 	0.2353	0.867	0.0665	0.043
Mof_C 	C 	0.2762	0.8553	0.1136	-0.039
Mof_H 	H 	0.2609	0.841	0.1066	0.044
Mof_C 	C 	0.3045	0.8457	0.1265	-0.062
Mof_H 	H 	0.3077	0.8244	0.1314	0.042
Mof_C 	C 	0.2941	0.9116	0.1185	-0.038
Mof_H 	H 	0.29	0.9331	0.1158	0.044
Mof_C 	C 	0.3228	0.8703	0.0998	-0.072
Mof_H 	H 	0.3386	0.8644	0.0856	0.052
Mof_O 	O 	0.19186	0.8527	0.03156	-0.407
Mof_O 	O 	0.15474	0.88911	0.03202	-0.413
Mof_C 	C 	0.1793	0.3778	0.54184	0.363
Mof_C 	C 	0.1959	0.39384	0.56664	-0.101
Mof_C 	C 	0.2254	0.384	0.5764	-0.001
Mof_H 	H 	0.2353	0.367	0.5665	0.044
Mof_C 	C 	0.2762	0.3553	0.6136	-0.039
Mof_H 	H 	0.2609	0.341	0.6066	0.045
Mof_C 	C 	0.3045	0.3457	0.6265	-0.062
Mof_H 	H 	0.3077	0.3244	0.6314	0.042
Mof_C 	C 	0.2941	0.4116	0.6185	-0.038
Mof_H 	H 	0.29	0.4331	0.6158	0.044
Mof_C 	C 	0.3228	0.3703	0.5998	-0.072
Mof_H 	H 	0.3386	0.3644	0.5856	0.052
Mof_O 	O 	0.19186	0.3527	0.53156	-0.406
Mof_O 	O 	0.15474	0.38911	0.53202	-0.412
Mof_C 	C 	0.3207	0.1222	0.54184	0.363
Mof_C 	C 	0.3041	0.10616	0.56664	-0.101
Mof_C 	C 	0.2746	0.116	0.5764	-0.001
Mof_H 	H 	0.2647	0.133	0.5665	0.043
Mof_C 	C 	0.2238	0.1447	0.6136	-0.039
Mof_H 	H 	0.2391	0.159	0.6066	0.045
Mof_C 	C 	0.1955	0.1543	0.6265	-0.061
Mof_H 	H 	0.1923	0.1756	0.6314	0.042
Mof_C 	C 	0.2059	0.0884	0.6185	-0.038
Mof_H 	H 	0.21	0.0669	0.6158	0.043
Mof_C 	C 	0.1772	0.1297	0.5998	-0.072
Mof_H 	H 	0.1614	0.1356	0.5856	0.052
Mof_O 	O 	0.30814	0.1473	0.53156	-0.406
Mof_O 	O 	0.34526	0.11089	0.53202	-0.413
Mof_C 	C 	0.3207	0.6222	0.04184	0.363
Mof_C 	C 	0.3041	0.60616	0.06664	-0.102
Mof_C 	C 	0.2746	0.616	0.0764	-0.001
Mof_H 	H 	0.2647	0.633	0.0665	0.043
Mof_C 	C 	0.2238	0.6447	0.1136	-0.039
Mof_H 	H 	0.2391	0.659	0.1066	0.044
Mof_C 	C 	0.1955	0.6543	0.1265	-0.062
Mof_H 	H 	0.1923	0.6756	0.1314	0.042
Mof_C 	C 	0.2059	0.5884	0.1185	-0.038
Mof_H 	H 	0.21	0.5669	0.1158	0.043
Mof_C 	C 	0.1772	0.6297	0.0998	-0.072
Mof_H 	H 	0.1614	0.6356	0.0856	0.051
Mof_O 	O 	0.30814	0.6473	0.03156	-0.407
Mof_O 	O 	0.34526	0.61089	0.03202	-0.414
Mof_C 	C 	0.8207	0.1222	0.04184	0.363
Mof_C 	C 	0.8041	0.10616	0.06664	-0.102
Mof_C 	C 	0.7746	0.116	0.0764	-0.001
Mof_H 	H 	0.7647	0.133	0.0665	0.043
Mof_C 	C 	0.7238	0.1447	0.1136	-0.039
Mof_H 	H 	0.7391	0.159	0.1066	0.044
Mof_C 	C 	0.6955	0.1543	0.1265	-0.062
Mof_H 	H 	0.6923	0.1756	0.1314	0.042
Mof_C 	C 	0.7059	0.0884	0.1185	-0.038
Mof_H 	H 	0.71	0.0669	0.1158	0.042
Mof_C 	C 	0.6772	0.1297	0.0998	-0.072
Mof_H 	H 	0.6614	0.1356	0.0856	0.051
Mof_O 	O 	0.80814	0.1473	0.03156	-0.407
Mof_O 	O 	0.84526	0.11089	0.03202	-0.414
Mof_C 	C 	0.8207	0.6222	0.54184	0.363
Mof_C 	C 	0.8041	0.60616	0.56664	-0.101
Mof_C 	C 	0.7746	0.616	0.5764	-0.002
Mof_H 	H 	0.7647	0.633	0.5665	0.043
Mof_C 	C 	0.7238	0.6447	0.6136	-0.039
Mof_H 	H 	0.7391	0.659	0.6066	0.044
Mof_C 	C 	0.6955	0.6543	0.6265	-0.062
Mof_H 	H 	0.6923	0.6756	0.6314	0.042
Mof_C 	C 	0.7059	0.5884	0.6185	-0.038
Mof_H 	H 	0.71	0.5669	0.6158	0.044
Mof_C 	C 	0.6772	0.6297	0.5998	-0.072
Mof_H 	H 	0.6614	0.6356	0.5856	0.052
Mof_O 	O 	0.80814	0.6473	0.53156	-0.406
Mof_O 	O 	0.84526	0.61089	0.53202	-0.412
Mof_C 	C 	0.6793	0.1222	0.45816	0.363
Mof_C 	C 	0.6959	0.10616	0.43336	-0.101
Mof_C 	C 	0.7254	0.116	0.4236	-0.001
Mof_H 	H 	0.7353	0.133	0.4335	0.043
Mof_C 	C 	0.7762	0.1447	0.3864	-0.039
Mof_H 	H 	0.7609	0.159	0.3934	0.044
Mof_C 	C 	0.8045	0.1543	0.3735	-0.062
Mof_H 	H 	0.8077	0.1756	0.3686	0.042
Mof_C 	C 	0.7941	0.0884	0.3815	-0.038
Mof_H 	H 	0.79	0.0669	0.3842	0.043
Mof_C 	C 	0.8228	0.1297	0.4002	-0.072
Mof_H 	H 	0.8386	0.1356	0.4144	0.052
Mof_O 	O 	0.69186	0.1473	0.46844	-0.406
Mof_O 	O 	0.65474	0.11089	0.46798	-0.413
Mof_C 	C 	0.6793	0.6222	0.95816	0.363
Mof_C 	C 	0.6959	0.60616	0.93336	-0.1
Mof_C 	C 	0.7254	0.616	0.9236	-0.002
Mof_H 	H 	0.7353	0.633	0.9335	0.044
Mof_C 	C 	0.7762	0.6447	0.8864	-0.039
Mof_H 	H 	0.7609	0.659	0.8934	0.045
Mof_C 	C 	0.8045	0.6543	0.8735	-0.061
Mof_H 	H 	0.8077	0.6756	0.8686	0.042
Mof_C 	C 	0.7941	0.5884	0.8815	-0.038
Mof_H 	H 	0.79	0.5669	0.8842	0.044
Mof_C 	C 	0.8228	0.6297	0.9002	-0.072
Mof_H 	H 	0.8386	0.6356	0.9144	0.052
Mof_O 	O 	0.69186	0.6473	0.96844	-0.403
Mof_O 	O 	0.65474	0.61089	0.96798	-0.409
Mof_C 	C 	0.1793	0.1222	0.95816	0.363
Mof_C 	C 	0.1959	0.10616	0.93336	-0.1
Mof_C 	C 	0.2254	0.116	0.9236	-0.002
Mof_H 	H 	0.2353	0.133	0.9335	0.044
Mof_C 	C 	0.2762	0.1447	0.8864	-0.039
Mof_H 	H 	0.2609	0.159	0.8934	0.045
Mof_C 	C 	0.3045	0.1543	0.8735	-0.061
Mof_H 	H 	0.3077	0.1756	0.8686	0.042
Mof_C 	C 	0.2941	0.0884	0.8815	-0.038
Mof_H 	H 	0.29	0.0669	0.8842	0.043
Mof_C 	C 	0.3228	0.1297	0.9002	-0.072
Mof_H 	H 	0.3386	0.1356	0.9144	0.052
Mof_O 	O 	0.19186	0.1473	0.96844	-0.403
Mof_O 	O 	0.15474	0.11089	0.96798	-0.41
Mof_C 	C 	0.1793	0.6222	0.45816	0.363
Mof_C 	C 	0.1959	0.60616	0.43336	-0.101
Mof_C 	C 	0.2254	0.616	0.4236	-0.001
Mof_H 	H 	0.2353	0.633	0.4335	0.043
Mof_C 	C 	0.2762	0.6447	0.3864	-0.039
Mof_H 	H 	0.2609	0.659	0.3934	0.045
Mof_C 	C 	0.3045	0.6543	0.3735	-0.062
Mof_H 	H 	0.3077	0.6756	0.3686	0.042
Mof_C 	C 	0.2941	0.5884	0.3815	-0.038
Mof_H 	H 	0.29	0.5669	0.3842	0.044
Mof_C 	C 	0.3228	0.6297	0.4002	-0.072
Mof_H 	H 	0.3386	0.6356	0.4144	0.052
Mof_O 	O 	0.19186	0.6473	0.46844	-0.406
Mof_O 	O 	0.15474	0.61089	0.46798	-0.412
Mof_C 	C 	0.3207	0.8778	0.45816	0.363
Mof_C 	C 	0.3041	0.89384	0.43336	-0.1
Mof_C 	C 	0.2746	0.884	0.4236	-0.002
Mof_H 	H 	0.2647	0.867	0.4335	0.044
Mof_C 	C 	0.2238	0.8553	0.3864	-0.039
Mof_H 	H 	0.2391	0.841	0.3934	0.044
Mof_C 	C 	0.1955	0.8457	0.3735	-0.062
Mof_H 	H 	0.1923	0.8244	0.3686	0.042
Mof_C 	C 	0.2059	0.9116	0.3815	-0.038
Mof_H 	H 	0.21	0.9331	0.3842	0.044
Mof_C 	C 	0.1772	0.8703	0.4002	-0.072
Mof_H 	H 	0.1614	0.8644	0.4144	0.052
Mof_O 	O 	0.30814	0.8527	0.46844	-0.406
Mof_O 	O 	0.34526	0.88911	0.46798	-0.412
Mof_C 	C 	0.3207	0.3778	0.95816	0.363
Mof_C 	C 	0.3041	0.39384	0.93336	-0.1
Mof_C 	C 	0.2746	0.384	0.9236	-0.002
Mof_H 	H 	0.2647	0.367	0.9335	0.044
Mof_C 	C 	0.2238	0.3553	0.8864	-0.039
Mof_H 	H 	0.2391	0.341	0.8934	0.045
Mof_C 	C 	0.1955	0.3457	0.8735	-0.061
Mof_H 	H 	0.1923	0.3244	0.8686	0.042
Mof_C 	C 	0.2059	0.4116	0.8815	-0.038
Mof_H 	H 	0.21	0.4331	0.8842	0.044
Mof_C 	C 	0.1772	0.3703	0.9002	-0.072
Mof_H 	H 	0.1614	0.3644	0.9144	0.052
Mof_O 	O 	0.30814	0.3527	0.96844	-0.403
Mof_O 	O 	0.34526	0.38911	0.96798	-0.409
Mof_C 	C 	0.8207	0.8778	0.95816	0.362
Mof_C 	C 	0.8041	0.89384	0.93336	-0.099
Mof_C 	C 	0.7746	0.884	0.9236	-0.002
Mof_H 	H 	0.7647	0.867	0.9335	0.044
Mof_C 	C 	0.7238	0.8553	0.8864	-0.039
Mof_H 	H 	0.7391	0.841	0.8934	0.045
Mof_C 	C 	0.6955	0.8457	0.8735	-0.062
Mof_H 	H 	0.6923	0.8244	0.8686	0.042
Mof_C 	C 	0.7059	0.9116	0.8815	-0.038
Mof_H 	H 	0.71	0.9331	0.8842	0.045
Mof_C 	C 	0.6772	0.8703	0.9002	-0.072
Mof_H 	H 	0.6614	0.8644	0.9144	0.052
Mof_O 	O 	0.80814	0.8527	0.96844	-0.403
Mof_O 	O 	0.84526	0.88911	0.96798	-0.409
Mof_C 	C 	0.8207	0.3778	0.45816	0.363
Mof_C 	C 	0.8041	0.39384	0.43336	-0.101
Mof_C 	C 	0.7746	0.384	0.4236	-0.002
Mof_H 	H 	0.7647	0.367	0.4335	0.044
Mof_C 	C 	0.7238	0.3553	0.3864	-0.039
Mof_H 	H 	0.7391	0.341	0.3934	0.044
Mof_C 	C 	0.6955	0.3457	0.3735	-0.062
Mof_H 	H 	0.6923	0.3244	0.3686	0.042
Mof_C 	C 	0.7059	0.4116	0.3815	-0.038
Mof_H 	H 	0.71	0.4331	0.3842	0.044
Mof_C 	C 	0.6772	0.3703	0.4002	-0.072
Mof_H 	H 	0.6614	0.3644	0.4144	0.052
Mof_O 	O 	0.80814	0.3527	0.46844	-0.406
Mof_O 	O 	0.84526	0.38911	0.46798	-0.412
Mof_C 	C 	0.8778	0.45816	0.3207	0.363
Mof_C 	C 	0.89384	0.43336	0.3041	-0.1
Mof_C 	C 	0.884	0.4236	0.2746	-0.002
Mof_H 	H 	0.867	0.4335	0.2647	0.044
Mof_C 	C 	0.8553	0.3864	0.2238	-0.039
Mof_H 	H 	0.841	0.3934	0.2391	0.044
Mof_C 	C 	0.8457	0.3735	0.1955	-0.062
Mof_H 	H 	0.8244	0.3686	0.1923	0.042
Mof_C 	C 	0.9116	0.3815	0.2059	-0.038
Mof_H 	H 	0.9331	0.3842	0.21	0.044
Mof_C 	C 	0.8703	0.4002	0.1772	-0.072
Mof_H 	H 	0.8644	0.4144	0.1614	0.052
Mof_O 	O 	0.8527	0.46844	0.30814	-0.406
Mof_O 	O 	0.88911	0.46798	0.34526	-0.412
Mof_C 	C 	0.8778	0.95816	0.8207	0.362
Mof_C 	C 	0.89384	0.93336	0.8041	-0.099
Mof_C 	C 	0.884	0.9236	0.7746	-0.002
Mof_H 	H 	0.867	0.9335	0.7647	0.044
Mof_C 	C 	0.8553	0.8864	0.7238	-0.039
Mof_H 	H 	0.841	0.8934	0.7391	0.045
Mof_C 	C 	0.8457	0.8735	0.6955	-0.062
Mof_H 	H 	0.8244	0.8686	0.6923	0.042
Mof_C 	C 	0.9116	0.8815	0.7059	-0.038
Mof_H 	H 	0.9331	0.8842	0.71	0.045
Mof_C 	C 	0.8703	0.9002	0.6772	-0.072
Mof_H 	H 	0.8644	0.9144	0.6614	0.052
Mof_O 	O 	0.8527	0.96844	0.80814	-0.403
Mof_O 	O 	0.88911	0.96798	0.84526	-0.409
Mof_C 	C 	0.3778	0.45816	0.8207	0.363
Mof_C 	C 	0.39384	0.43336	0.8041	-0.101
Mof_C 	C 	0.384	0.4236	0.7746	-0.002
Mof_H 	H 	0.367	0.4335	0.7647	0.044
Mof_C 	C 	0.3553	0.3864	0.7238	-0.039
Mof_H 	H 	0.341	0.3934	0.7391	0.044
Mof_C 	C 	0.3457	0.3735	0.6955	-0.062
Mof_H 	H 	0.3244	0.3686	0.6923	0.042
Mof_C 	C 	0.4116	0.3815	0.7059	-0.038
Mof_H 	H 	0.4331	0.3842	0.71	0.044
Mof_C 	C 	0.3703	0.4002	0.6772	-0.072
Mof_H 	H 	0.3644	0.4144	0.6614	0.052
Mof_O 	O 	0.3527	0.46844	0.80814	-0.406
Mof_O 	O 	0.38911	0.46798	0.84526	-0.412
Mof_C 	C 	0.3778	0.95816	0.3207	0.363
Mof_C 	C 	0.39384	0.93336	0.3041	-0.1
Mof_C 	C 	0.384	0.9236	0.2746	-0.002
Mof_H 	H 	0.367	0.9335	0.2647	0.044
Mof_C 	C 	0.3553	0.8864	0.2238	-0.039
Mof_H 	H 	0.341	0.8934	0.2391	0.045
Mof_C 	C 	0.3457	0.8735	0.1955	-0.061
Mof_H 	H 	0.3244	0.8686	0.1923	0.042
Mof_C 	C 	0.4116	0.8815	0.2059	-0.038
Mof_H 	H 	0.4331	0.8842	0.21	0.044
Mof_C 	C 	0.3703	0.9002	0.1772	-0.072
Mof_H 	H 	0.3644	0.9144	0.1614	0.052
Mof_O 	O 	0.3527	0.96844	0.30814	-0.403
Mof_O 	O 	0.38911	0.96798	0.34526	-0.409
Mof_C 	C 	0.1222	0.45816	0.6793	0.363
Mof_C 	C 	0.10616	0.43336	0.6959	-0.101
Mof_C 	C 	0.116	0.4236	0.7254	-0.001
Mof_H 	H 	0.133	0.4335	0.7353	0.043
Mof_C 	C 	0.1447	0.3864	0.7762	-0.039
Mof_H 	H 	0.159	0.3934	0.7609	0.044
Mof_C 	C 	0.1543	0.3735	0.8045	-0.062
Mof_H 	H 	0.1756	0.3686	0.8077	0.042
Mof_C 	C 	0.0884	0.3815	0.7941	-0.038
Mof_H 	H 	0.0669	0.3842	0.79	0.043
Mof_C 	C 	0.1297	0.4002	0.8228	-0.072
Mof_H 	H 	0.1356	0.4144	0.8386	0.052
Mof_O 	O 	0.1473	0.46844	0.69186	-0.406
Mof_O 	O 	0.11089	0.46798	0.65474	-0.413
Mof_C 	C 	0.1222	0.95816	0.1793	0.363
Mof_C 	C 	0.10616	0.93336	0.1959	-0.1
Mof_C 	C 	0.116	0.9236	0.2254	-0.002
Mof_H 	H 	0.133	0.9335	0.2353	0.044
Mof_C 	C 	0.1447	0.8864	0.2762	-0.039
Mof_H 	H 	0.159	0.8934	0.2609	0.045
Mof_C 	C 	0.1543	0.8735	0.3045	-0.061
Mof_H 	H 	0.1756	0.8686	0.3077	0.042
Mof_C 	C 	0.0884	0.8815	0.2941	-0.038
Mof_H 	H 	0.0669	0.8842	0.29	0.043
Mof_C 	C 	0.1297	0.9002	0.3228	-0.072
Mof_H 	H 	0.1356	0.9144	0.3386	0.052
Mof_O 	O 	0.1473	0.96844	0.19186	-0.403
Mof_O 	O 	0.11089	0.96798	0.15474	-0.41
Mof_C 	C 	0.6222	0.45816	0.1793	0.363
Mof_C 	C 	0.60616	0.43336	0.1959	-0.101
Mof_C 	C 	0.616	0.4236	0.2254	-0.001
Mof_H 	H 	0.633	0.4335	0.2353	0.043
Mof_C 	C 	0.6447	0.3864	0.2762	-0.039
Mof_H 	H 	0.659	0.3934	0.2609	0.045
Mof_C 	C 	0.6543	0.3735	0.3045	-0.062
Mof_H 	H 	0.6756	0.3686	0.3077	0.042
Mof_C 	C 	0.5884	0.3815	0.2941	-0.038
Mof_H 	H 	0.5669	0.3842	0.29	0.044
Mof_C 	C 	0.6297	0.4002	0.3228	-0.072
Mof_H 	H 	0.6356	0.4144	0.3386	0.052
Mof_O 	O 	0.6473	0.46844	0.19186	-0.406
Mof_O 	O 	0.61089	0.46798	0.15474	-0.412
Mof_C 	C 	0.6222	0.95816	0.6793	0.363
Mof_C 	C 	0.60616	0.93336	0.6959	-0.1
Mof_C 	C 	0.616	0.9236	0.7254	-0.002
Mof_H 	H 	0.633	0.9335	0.7353	0.044
Mof_C 	C 	0.6447	0.8864	0.7762	-0.039
Mof_H 	H 	0.659	0.8934	0.7609	0.045
Mof_C 	C 	0.6543	0.8735	0.8045	-0.061
Mof_H 	H 	0.6756	0.8686	0.8077	0.042
Mof_C 	C 	0.5884	0.8815	0.7941	-0.038
Mof_H 	H 	0.5669	0.8842	0.79	0.044
Mof_C 	C 	0.6297	0.9002	0.8228	-0.072
Mof_H 	H 	0.6356	0.9144	0.8386	0.052
Mof_O 	O 	0.6473	0.96844	0.69186	-0.403
Mof_O 	O 	0.61089	0.96798	0.65474	-0.409
Mof_C 	C 	0.1222	0.54184	0.3207	0.363
Mof_C 	C 	0.10616	0.56664	0.3041	-0.101
Mof_C 	C 	0.116	0.5764	0.2746	-0.001
Mof_H 	H 	0.133	0.5665	0.2647	0.043
Mof_C 	C 	0.1447	0.6136	0.2238	-0.039
Mof_H 	H 	0.159	0.6066	0.2391	0.045
Mof_C 	C 	0.1543	0.6265	0.1955	-0.061
Mof_H 	H 	0.1756	0.6314	0.1923	0.042
Mof_C 	C 	0.0884	0.6185	0.2059	-0.038
Mof_H 	H 	0.0669	0.6158	0.21	0.043
Mof_C 	C 	0.1297	0.5998	0.1772	-0.072
Mof_H 	H 	0.1356	0.5856	0.1614	0.052
Mof_O 	O 	0.1473	0.53156	0.30814	-0.406
Mof_O 	O 	0.11089	0.53202	0.34526	-0.413
Mof_C 	C 	0.1222	0.04184	0.8207	0.363
Mof_C 	C 	0.10616	0.06664	0.8041	-0.102
Mof_C 	C 	0.116	0.0764	0.7746	-0.001
Mof_H 	H 	0.133	0.0665	0.7647	0.043
Mof_C 	C 	0.1447	0.1136	0.7238	-0.039
Mof_H 	H 	0.159	0.1066	0.7391	0.044
Mof_C 	C 	0.1543	0.1265	0.6955	-0.062
Mof_H 	H 	0.1756	0.1314	0.6923	0.042
Mof_C 	C 	0.0884	0.1185	0.7059	-0.038
Mof_H 	H 	0.0669	0.1158	0.71	0.042
Mof_C 	C 	0.1297	0.0998	0.6772	-0.072
Mof_H 	H 	0.1356	0.0856	0.6614	0.051
Mof_O 	O 	0.1473	0.03156	0.80814	-0.407
Mof_O 	O 	0.11089	0.03202	0.84526	-0.414
Mof_C 	C 	0.6222	0.54184	0.8207	0.363
Mof_C 	C 	0.60616	0.56664	0.8041	-0.101
Mof_C 	C 	0.616	0.5764	0.7746	-0.002
Mof_H 	H 	0.633	0.5665	0.7647	0.043
Mof_C 	C 	0.6447	0.6136	0.7238	-0.039
Mof_H 	H 	0.659	0.6066	0.7391	0.044
Mof_C 	C 	0.6543	0.6265	0.6955	-0.062
Mof_H 	H 	0.6756	0.6314	0.6923	0.042
Mof_C 	C 	0.5884	0.6185	0.7059	-0.038
Mof_H 	H 	0.5669	0.6158	0.71	0.044
Mof_C 	C 	0.6297	0.5998	0.6772	-0.072
Mof_H 	H 	0.6356	0.5856	0.6614	0.052
Mof_O 	O 	0.6473	0.53156	0.80814	-0.406
Mof_O 	O 	0.61089	0.53202	0.84526	-0.412
Mof_C 	C 	0.6222	0.04184	0.3207	0.363
Mof_C 	C 	0.60616	0.06664	0.3041	-0.102
Mof_C 	C 	0.616	0.0764	0.2746	-0.001
Mof_H 	H 	0.633	0.0665	0.2647	0.043
Mof_C 	C 	0.6447	0.1136	0.2238	-0.039
Mof_H 	H 	0.659	0.1066	0.2391	0.044
Mof_C 	C 	0.6543	0.1265	0.1955	-0.062
Mof_H 	H 	0.6756	0.1314	0.1923	0.042
Mof_C 	C 	0.5884	0.1185	0.2059	-0.038
Mof_H 	H 	0.5669	0.1158	0.21	0.043
Mof_C 	C 	0.6297	0.0998	0.1772	-0.072
Mof_H 	H 	0.6356	0.0856	0.1614	0.051
Mof_O 	O 	0.6473	0.03156	0.30814	-0.407
Mof_O 	O 	0.61089	0.03202	0.34526	-0.414
Mof_C 	C 	0.8778	0.54184	0.6793	0.363
Mof_C 	C 	0.89384	0.56664	0.6959	-0.1
Mof_C 	C 	0.884	0.5764	0.7254	-0.002
Mof_H 	H 	0.867	0.5665	0.7353	0.044
Mof_C 	C 	0.8553	0.6136	0.7762	-0.039
Mof_H 	H 	0.841	0.6066	0.7609	0.044
Mof_C 	C 	0.8457	0.6265	0.8045	-0.062
Mof_H 	H 	0.8244	0.6314	0.8077	0.042
Mof_C 	C 	0.9116	0.6185	0.7941	-0.038
Mof_H 	H 	0.9331	0.6158	0.79	0.044
Mof_C 	C 	0.8703	0.5998	0.8228	-0.072
Mof_H 	H 	0.8644	0.5856	0.8386	0.052
Mof_O 	O 	0.8527	0.53156	0.69186	-0.406
Mof_O 	O 	0.88911	0.53202	0.65474	-0.412
Mof_C 	C 	0.8778	0.04184	0.1793	0.363
Mof_C 	C 	0.89384	0.06664	0.1959	-0.101
Mof_C 	C 	0.884	0.0764	0.2254	-0.002
Mof_H 	H 	0.867	0.0665	0.2353	0.043
Mof_C 	C 	0.8553	0.1136	0.2762	-0.039
Mof_H 	H 	0.841	0.1066	0.2609	0.044
Mof_C 	C 	0.8457	0.1265	0.3045	-0.062
Mof_H 	H 	0.8244	0.1314	0.3077	0.042
Mof_C 	C 	0.9116	0.1185	0.2941	-0.038
Mof_H 	H 	0.9331	0.1158	0.29	0.044
Mof_C 	C 	0.8703	0.0998	0.3228	-0.072
Mof_H 	H 	0.8644	0.0856	0.3386	0.052
Mof_O 	O 	0.8527	0.03156	0.19186	-0.407
Mof_O 	O 	0.88911	0.03202	0.15474	-0.413
Mof_C 	C 	0.3778	0.54184	0.1793	0.363
Mof_C 	C 	0.39384	0.56664	0.1959	-0.101
Mof_C 	C 	0.384	0.5764	0.2254	-0.001
Mof_H 	H 	0.367	0.5665	0.2353	0.044
Mof_C 	C 	0.3553	0.6136	0.2762	-0.039
Mof_H 	H 	0.341	0.6066	0.2609	0.045
Mof_C 	C 	0.3457	0.6265	0.3045	-0.062
Mof_H 	H 	0.3244	0.6314	0.3077	0.042
Mof_C 	C 	0.4116	0.6185	0.2941	-0.038
Mof_H 	H 	0.4331	0.6158	0.29	0.044
Mof_C 	C 	0.3703	0.5998	0.3228	-0.072
Mof_H 	H 	0.3644	0.5856	0.3386	0.052
Mof_O 	O 	0.3527	0.53156	0.19186	-0.406
Mof_O 	O 	0.38911	0.53202	0.15474	-0.412
Mof_C 	C 	0.3778	0.04184	0.6793	0.363
Mof_C 	C 	0.39384	0.06664	0.6959	-0.102
Mof_C 	C 	0.384	0.0764	0.7254	-0.001
Mof_H 	H 	0.367	0.0665	0.7353	0.043
Mof_C 	C 	0.3553	0.1136	0.7762	-0.039
Mof_H 	H 	0.341	0.1066	0.7609	0.044
Mof_C 	C 	0.3457	0.1265	0.8045	-0.062
Mof_H 	H 	0.3244	0.1314	0.8077	0.042
Mof_C 	C 	0.4116	0.1185	0.7941	-0.038
Mof_H 	H 	0.4331	0.1158	0.79	0.043
Mof_C 	C 	0.3703	0.0998	0.8228	-0.072
Mof_H 	H 	0.3644	0.0856	0.8386	0.052
Mof_O 	O 	0.3527	0.03156	0.69186	-0.407
Mof_O 	O 	0.38911	0.03202	0.65474	-0.414
Mof_C 	C 	0.45816	0.6793	0.1222	0.363
Mof_C 	C 	0.43336	0.6959	0.10616	-0.101
Mof_C 	C 	0.4236	0.7254	0.116	-0.001
Mof_H 	H 	0.4335	0.7353	0.133	0.043
Mof_C 	C 	0.3864	0.7762	0.1447	-0.039
Mof_H 	H 	0.3934	0.7609	0.159	0.044
Mof_C 	C 	0.3735	0.8045	0.1543	-0.062
Mof_H 	H 	0.3686	0.8077	0.1756	0.042
Mof_C 	C 	0.3815	0.7941	0.0884	-0.038
Mof_H 	H 	0.3842	0.79	0.0669	0.043
Mof_C 	C 	0.4002	0.8228	0.1297	-0.072
Mof_H 	H 	0.4144	0.8386	0.1356	0.052
Mof_O 	O 	0.46844	0.69186	0.1473	-0.406
Mof_O 	O 	0.46798	0.65474	0.11089	-0.413
Mof_C 	C 	0.45816	0.1793	0.6222	0.363
Mof_C 	C 	0.43336	0.1959	0.60616	-0.101
Mof_C 	C 	0.4236	0.2254	0.616	-0.001
Mof_H 	H 	0.4335	0.2353	0.633	0.043
Mof_C 	C 	0.3864	0.2762	0.6447	-0.039
Mof_H 	H 	0.3934	0.2609	0.659	0.045
Mof_C 	C 	0.3735	0.3045	0.6543	-0.062
Mof_H 	H 	0.3686	0.3077	0.6756	0.042
Mof_C 	C 	0.3815	0.2941	0.5884	-0.038
Mof_H 	H 	0.3842	0.29	0.5669	0.044
Mof_C 	C 	0.4002	0.3228	0.6297	-0.072
Mof_H 	H 	0.4144	0.3386	0.6356	0.052
Mof_O 	O 	0.46844	0.19186	0.6473	-0.406
Mof_O 	O 	0.46798	0.15474	0.61089	-0.412
Mof_C 	C 	0.95816	0.6793	0.6222	0.363
Mof_C 	C 	0.93336	0.6959	0.60616	-0.1
Mof_C 	C 	0.9236	0.7254	0.616	-0.002
Mof_H 	H 	0.9335	0.7353	0.633	0.044
Mof_C 	C 	0.8864	0.7762	0.6447	-0.039
Mof_H 	H 	0.8934	0.7609	0.659	0.045
Mof_C 	C 	0.8735	0.8045	0.6543	-0.061
Mof_H 	H 	0.8686	0.8077	0.6756	0.042
Mof_C 	C 	0.8815	0.7941	0.5884	-0.038
Mof_H 	H 	0.8842	0.79	0.5669	0.044
Mof_C 	C 	0.9002	0.8228	0.6297	-0.072
Mof_H 	H 	0.9144	0.8386	0.6356	0.052
Mof_O 	O 	0.96844	0.69186	0.6473	-0.403
Mof_O 	O 	0.96798	0.65474	0.61089	-0.409
Mof_C 	C 	0.95816	0.1793	0.1222	0.363
Mof_C 	C 	0.93336	0.1959	0.10616	-0.1
Mof_C 	C 	0.9236	0.2254	0.116	-0.002
Mof_H 	H 	0.9335	0.2353	0.133	0.044
Mof_C 	C 	0.8864	0.2762	0.1447	-0.039
Mof_H 	H 	0.8934	0.2609	0.159	0.045
Mof_C 	C 	0.8735	0.3045	0.1543	-0.061
Mof_H 	H 	0.8686	0.3077	0.1756	0.042
Mof_C 	C 	0.8815	0.2941	0.0884	-0.038
Mof_H 	H 	0.8842	0.29	0.0669	0.043
Mof_C 	C 	0.9002	0.3228	0.1297	-0.072
Mof_H 	H 	0.9144	0.3386	0.1356	0.052
Mof_O 	O 	0.96844	0.19186	0.1473	-0.403
Mof_O 	O 	0.96798	0.15474	0.11089	-0.41
Mof_C 	C 	0.45816	0.3207	0.8778	0.363
Mof_C 	C 	0.43336	0.3041	0.89384	-0.1
Mof_C 	C 	0.4236	0.2746	0.884	-0.002
Mof_H 	H 	0.4335	0.2647	0.867	0.044
Mof_C 	C 	0.3864	0.2238	0.8553	-0.039
Mof_H 	H 	0.3934	0.2391	0.841	0.044
Mof_C 	C 	0.3735	0.1955	0.8457	-0.062
Mof_H 	H 	0.3686	0.1923	0.8244	0.042
Mof_C 	C 	0.3815	0.2059	0.9116	-0.038
Mof_H 	H 	0.3842	0.21	0.9331	0.044
Mof_C 	C 	0.4002	0.1772	0.8703	-0.072
Mof_H 	H 	0.4144	0.1614	0.8644	0.052
Mof_O 	O 	0.46844	0.30814	0.8527	-0.406
Mof_O 	O 	0.46798	0.34526	0.88911	-0.412
Mof_C 	C 	0.45816	0.8207	0.3778	0.363
Mof_C 	C 	0.43336	0.8041	0.39384	-0.101
Mof_C 	C 	0.4236	0.7746	0.384	-0.002
Mof_H 	H 	0.4335	0.7647	0.367	0.044
Mof_C 	C 	0.3864	0.7238	0.3553	-0.039
Mof_H 	H 	0.3934	0.7391	0.341	0.044
Mof_C 	C 	0.3735	0.6955	0.3457	-0.062
Mof_H 	H 	0.3686	0.6923	0.3244	0.042
Mof_C 	C 	0.3815	0.7059	0.4116	-0.038
Mof_H 	H 	0.3842	0.71	0.4331	0.044
Mof_C 	C 	0.4002	0.6772	0.3703	-0.072
Mof_H 	H 	0.4144	0.6614	0.3644	0.052
Mof_O 	O 	0.46844	0.80814	0.3527	-0.406
Mof_O 	O 	0.46798	0.84526	0.38911	-0.412
Mof_C 	C 	0.95816	0.3207	0.3778	0.363
Mof_C 	C 	0.93336	0.3041	0.39384	-0.1
Mof_C 	C 	0.9236	0.2746	0.384	-0.002
Mof_H 	H 	0.9335	0.2647	0.367	0.044
Mof_C 	C 	0.8864	0.2238	0.3553	-0.039
Mof_H 	H 	0.8934	0.2391	0.341	0.045
Mof_C 	C 	0.8735	0.1955	0.3457	-0.061
Mof_H 	H 	0.8686	0.1923	0.3244	0.042
Mof_C 	C 	0.8815	0.2059	0.4116	-0.038
Mof_H 	H 	0.8842	0.21	0.4331	0.044
Mof_C 	C 	0.9002	0.1772	0.3703	-0.072
Mof_H 	H 	0.9144	0.1614	0.3644	0.052
Mof_O 	O 	0.96844	0.30814	0.3527	-0.403
Mof_O 	O 	0.96798	0.34526	0.38911	-0.409
Mof_C 	C 	0.95816	0.8207	0.8778	0.362
Mof_C 	C 	0.93336	0.8041	0.89384	-0.099
Mof_C 	C 	0.9236	0.7746	0.884	-0.002
Mof_H 	H 	0.9335	0.7647	0.867	0.044
Mof_C 	C 	0.8864	0.7238	0.8553	-0.039
Mof_H 	H 	0.8934	0.7391	0.841	0.045
Mof_C 	C 	0.8735	0.6955	0.8457	-0.062
Mof_H 	H 	0.8686	0.6923	0.8244	0.042
Mof_C 	C 	0.8815	0.7059	0.9116	-0.038
Mof_H 	H 	0.8842	0.71	0.9331	0.045
Mof_C 	C 	0.9002	0.6772	0.8703	-0.072
Mof_H 	H 	0.9144	0.6614	0.8644	0.052
Mof_O 	O 	0.96844	0.80814	0.8527	-0.403
Mof_O 	O 	0.96798	0.84526	0.88911	-0.409
Mof_C 	C 	0.54184	0.6793	0.8778	0.363
Mof_C 	C 	0.56664	0.6959	0.89384	-0.1
Mof_C 	C 	0.5764	0.7254	0.884	-0.002
Mof_H 	H 	0.5665	0.7353	0.867	0.044
Mof_C 	C 	0.6136	0.7762	0.8553	-0.039
Mof_H 	H 	0.6066	0.7609	0.841	0.044
Mof_C 	C 	0.6265	0.8045	0.8457	-0.062
Mof_H 	H 	0.6314	0.8077	0.8244	0.042
Mof_C 	C 	0.6185	0.7941	0.9116	-0.038
Mof_H 	H 	0.6158	0.79	0.9331	0.044
Mof_C 	C 	0.5998	0.8228	0.8703	-0.072
Mof_H 	H 	0.5856	0.8386	0.8644	0.052
Mof_O 	O 	0.53156	0.69186	0.8527	-0.406
Mof_O 	O 	0.53202	0.65474	0.88911	-0.412
Mof_C 	C 	0.54184	0.1793	0.3778	0.363
Mof_C 	C 	0.56664	0.1959	0.39384	-0.101
Mof_C 	C 	0.5764	0.2254	0.384	-0.001
Mof_H 	H 	0.5665	0.2353	0.367	0.044
Mof_C 	C 	0.6136	0.2762	0.3553	-0.039
Mof_H 	H 	0.6066	0.2609	0.341	0.045
Mof_C 	C 	0.6265	0.3045	0.3457	-0.062
Mof_H 	H 	0.6314	0.3077	0.3244	0.042
Mof_C 	C 	0.6185	0.2941	0.4116	-0.038
Mof_H 	H 	0.6158	0.29	0.4331	0.044
Mof_C 	C 	0.5998	0.3228	0.3703	-0.072
Mof_H 	H 	0.5856	0.3386	0.3644	0.052
Mof_O 	O 	0.53156	0.19186	0.3527	-0.406
Mof_O 	O 	0.53202	0.15474	0.38911	-0.412
Mof_C 	C 	0.04184	0.6793	0.3778	0.363
Mof_C 	C 	0.06664	0.6959	0.39384	-0.102
Mof_C 	C 	0.0764	0.7254	0.384	-0.001
Mof_H 	H 	0.0665	0.7353	0.367	0.043
Mof_C 	C 	0.1136	0.7762	0.3553	-0.039
Mof_H 	H 	0.1066	0.7609	0.341	0.044
Mof_C 	C 	0.1265	0.8045	0.3457	-0.062
Mof_H 	H 	0.1314	0.8077	0.3244	0.042
Mof_C 	C 	0.1185	0.7941	0.4116	-0.038
Mof_H 	H 	0.1158	0.79	0.4331	0.043
Mof_C 	C 	0.0998	0.8228	0.3703	-0.072
Mof_H 	H 	0.0856	0.8386	0.3644	0.052
Mof_O 	O 	0.03156	0.69186	0.3527	-0.407
Mof_O 	O 	0.03202	0.65474	0.38911	-0.414
Mof_C 	C 	0.04184	0.1793	0.8778	0.363
Mof_C 	C 	0.06664	0.1959	0.89384	-0.101
Mof_C 	C 	0.0764	0.2254	0.884	-0.002
Mof_H 	H 	0.0665	0.2353	0.867	0.043
Mof_C 	C 	0.1136	0.2762	0.8553	-0.039
Mof_H 	H 	0.1066	0.2609	0.841	0.044
Mof_C 	C 	0.1265	0.3045	0.8457	-0.062
Mof_H 	H 	0.1314	0.3077	0.8244	0.042
Mof_C 	C 	0.1185	0.2941	0.9116	-0.038
Mof_H 	H 	0.1158	0.29	0.9331	0.044
Mof_C 	C 	0.0998	0.3228	0.8703	-0.072
Mof_H 	H 	0.0856	0.3386	0.8644	0.052
Mof_O 	O 	0.03156	0.19186	0.8527	-0.407
Mof_O 	O 	0.03202	0.15474	0.88911	-0.413
Mof_C 	C 	0.54184	0.3207	0.1222	0.363
Mof_C 	C 	0.56664	0.3041	0.10616	-0.101
Mof_C 	C 	0.5764	0.2746	0.116	-0.001
Mof_H 	H 	0.5665	0.2647	0.133	0.043
Mof_C 	C 	0.6136	0.2238	0.1447	-0.039
Mof_H 	H 	0.6066	0.2391	0.159	0.045
Mof_C 	C 	0.6265	0.1955	0.1543	-0.061
Mof_H 	H 	0.6314	0.1923	0.1756	0.042
Mof_C 	C 	0.6185	0.2059	0.0884	-0.038
Mof_H 	H 	0.6158	0.21	0.0669	0.043
Mof_C 	C 	0.5998	0.1772	0.1297	-0.072
Mof_H 	H 	0.5856	0.1614	0.1356	0.052
Mof_O 	O 	0.53156	0.30814	0.1473	-0.406
Mof_O 	O 	0.53202	0.34526	0.11089	-0.413
Mof_C 	C 	0.54184	0.8207	0.6222	0.363
Mof_C 	C 	0.56664	0.8041	0.60616	-0.101
Mof_C 	C 	0.5764	0.7746	0.616	-0.002
Mof_H 	H 	0.5665	0.7647	0.633	0.043
Mof_C 	C 	0.6136	0.7238	0.6447	-0.039
Mof_H 	H 	0.6066	0.7391	0.659	0.044
Mof_C 	C 	0.6265	0.6955	0.6543	-0.062
Mof_H 	H 	0.6314	0.6923	0.6756	0.042
Mof_C 	C 	0.6185	0.7059	0.5884	-0.038
Mof_H 	H 	0.6158	0.71	0.5669	0.044
Mof_C 	C 	0.5998	0.6772	0.6297	-0.072
Mof_H 	H 	0.5856	0.6614	0.6356	0.052
Mof_O 	O 	0.53156	0.80814	0.6473	-0.406
Mof_O 	O 	0.53202	0.84526	0.61089	-0.412
Mof_C 	C 	0.04184	0.3207	0.6222	0.363
Mof_C 	C 	0.06664	0.3041	0.60616	-0.102
Mof_C 	C 	0.0764	0.2746	0.616	-0.001
Mof_H 	H 	0.0665	0.2647	0.633	0.043
Mof_C 	C 	0.1136	0.2238	0.6447	-0.039
Mof_H 	H 	0.1066	0.2391	0.659	0.044
Mof_C 	C 	0.1265	0.1955	0.6543	-0.062
Mof_H 	H 	0.1314	0.1923	0.6756	0.042
Mof_C 	C 	0.1185	0.2059	0.5884	-0.038
Mof_H 	H 	0.1158	0.21	0.5669	0.043
Mof_C 	C 	0.0998	0.1772	0.6297	-0.072
Mof_H 	H 	0.0856	0.1614	0.6356	0.051
Mof_O 	O 	0.03156	0.30814	0.6473	-0.407
Mof_O 	O 	0.03202	0.34526	0.61089	-0.414
Mof_C 	C 	0.04184	0.8207	0.1222	0.363
Mof_C 	C 	0.06664	0.8041	0.10616	-0.102
Mof_C 	C 	0.0764	0.7746	0.116	-0.001
Mof_H 	H 	0.0665	0.7647	0.133	0.043
Mof_C 	C 	0.1136	0.7238	0.1447	-0.039
Mof_H 	H 	0.1066	0.7391	0.159	0.044
Mof_C 	C 	0.1265	0.6955	0.1543	-0.062
Mof_H 	H 	0.1314	0.6923	0.1756	0.042
Mof_C 	C 	0.1185	0.7059	0.0884	-0.038
Mof_H 	H 	0.1158	0.71	0.0669	0.042
Mof_C 	C 	0.0998	0.6772	0.1297	-0.072
Mof_H 	H 	0.0856	0.6614	0.1356	0.051
Mof_O 	O 	0.03156	0.80814	0.1473	-0.407
Mof_O 	O 	0.03202	0.84526	0.11089	-0.414
Mof_Cu	Cu	0.17315	0.32685	0.5	0.909
Mof_Cu	Cu	0.12951	0.37049	0.5	0.914
Mof_Cu	Cu	0.17315	0.82685	-0	0.906
Mof_Cu	Cu	0.12951	0.87049	-0	0.912
Mof_Cu	Cu	0.82685	0.67315	0.5	0.909
Mof_Cu	Cu	0.87049	0.62951	0.5	0.914
Mof_Cu	Cu	0.82685	0.17315	-0	0.906
Mof_Cu	Cu	0.87049	0.12951	-0	0.912
Mof_Cu	Cu	0.82685	0.32685	0.5	0.909
Mof_Cu	Cu	0.87049	0.37049	0.5	0.914
Mof_Cu	Cu	0.82685	0.82685	-0	0.906
Mof_Cu	Cu	0.87049	0.87049	-0	0.912
Mof_Cu	Cu	0.17315	0.67315	0.5	0.909
Mof_Cu	Cu	0.12951	0.62951	0.5	0.914
Mof_Cu	Cu	0.17315	0.17315	-0	0.906
Mof_Cu	Cu	0.12951	0.12951	-0	0.911
Mof_Cu	Cu	0.5	0.17315	0.32685	0.909
Mof_Cu	Cu	0.5	0.12951	0.37049	0.914
Mof_Cu	Cu	3.10019e-33	0.17315	0.82685	0.906
Mof_Cu	Cu	3.26381e-33	0.12951	0.87049	0.912
Mof_Cu	Cu	0.5	0.82685	0.67315	0.909
Mof_Cu	Cu	0.5	0.87049	0.62951	0.914
Mof_Cu	Cu	1.90803e-33	0.82685	0.17315	0.906
Mof_Cu	Cu	-7.73232e-34	0.87049	0.12951	0.912
Mof_Cu	Cu	0.5	0.82685	0.32685	0.909
Mof_Cu	Cu	0.5	0.87049	0.37049	0.914
Mof_Cu	Cu	3.10019e-33	0.82685	0.82685	0.906
Mof_Cu	Cu	3.26381e-33	0.87049	0.87049	0.912
Mof_Cu	Cu	0.5	0.17315	0.67315	0.909
Mof_Cu	Cu	0.5	0.12951	0.62951	0.914
Mof_Cu	Cu	-3.12724e-33	0.17315	0.17315	0.906
Mof_Cu	Cu	-2.03205e-33	0.12951	0.12951	0.911
Mof_Cu	Cu	0.32685	0.5	0.17315	0.909
Mof_Cu	Cu	0.37049	0.5	0.12951	0.914
Mof_Cu	Cu	0.32685	5.03527e-33	0.67315	0.906
Mof_Cu	Cu	0.37049	5.03527e-33	0.62951	0.911
Mof_Cu	Cu	0.67315	0.5	0.82685	0.909
Mof_Cu	Cu	0.62951	0.5	0.87049	0.914
Mof_Cu	Cu	0.67315	0	0.32685	0.906
Mof_Cu	Cu	0.62951	0	0.37049	0.911
Mof_Cu	Cu	0.32685	0.5	0.82685	0.909
Mof_Cu	Cu	0.37049	0.5	0.87049	0.914
Mof_Cu	Cu	0.32685	0	0.32685	0.906
Mof_Cu	Cu	0.37049	0	0.37049	0.912
Mof_Cu	Cu	0.67315	0.5	0.17315	0.909
Mof_Cu	Cu	0.62951	0.5	0.12951	0.914
Mof_Cu	Cu	0.67315	5.03527e-33	0.67315	0.906
Mof_Cu	Cu	0.62951	5.03527e-33	0.62951	0.911
Mof_Cu	Cu	0.32685	0.17315	0.5	0.909
Mof_Cu	Cu	0.37049	0.12951	0.5	0.914
Mof_Cu	Cu	0.32685	0.67315	-0	0.906
Mof_Cu	Cu	0.37049	0.62951	-0	0.911
Mof_Cu	Cu	0.67315	0.82685	0.5	0.909
Mof_Cu	Cu	0.62951	0.87049	0.5	0.914
Mof_Cu	Cu	0.67315	0.32685	-0	0.906
Mof_Cu	Cu	0.62951	0.37049	-0	0.911
Mof_Cu	Cu	0.32685	0.82685	0.5	0.909
Mof_Cu	Cu	0.37049	0.87049	0.5	0.914
Mof_Cu	Cu	0.32685	0.32685	-0	0.906
Mof_Cu	Cu	0.37049	0.37049	-0	0.912
Mof_Cu	Cu	0.67315	0.17315	0.5	0.909
Mof_Cu	Cu	0.62951	0.12951	0.5	0.914
Mof_Cu	Cu	0.67315	0.67315	-0	0.906
Mof_Cu	Cu	0.62951	0.62951	-0	0.911
Mof_Cu	Cu	0.17315	0.5	0.67315	0.909
Mof_Cu	Cu	0.12951	0.5	0.62951	0.914
Mof_Cu	Cu	0.17315	-1.25882e-33	0.17315	0.906
Mof_Cu	Cu	0.12951	-1.25882e-33	0.12951	0.911
Mof_Cu	Cu	0.82685	0.5	0.32685	0.909
Mof_Cu	Cu	0.87049	0.5	0.37049	0.914
Mof_Cu	Cu	0.82685	0	0.82685	0.906
Mof_Cu	Cu	0.87049	0	0.87049	0.912
Mof_Cu	Cu	0.82685	0.5	0.67315	0.909
Mof_Cu	Cu	0.87049	0.5	0.62951	0.914
Mof_Cu	Cu	0.82685	-1.25882e-33	0.17315	0.906
Mof_Cu	Cu	0.87049	-1.25882e-33	0.12951	0.912
Mof_Cu	Cu	0.17315	0.5	0.32685	0.909
Mof_Cu	Cu	0.12951	0.5	0.37049	0.914
Mof_Cu	Cu	0.17315	0	0.82685	0.906
Mof_Cu	Cu	0.12951	0	0.87049	0.912
Mof_Cu	Cu	0.5	0.32685	0.82685	0.909
Mof_Cu	Cu	0.5	0.37049	0.87049	0.914
Mof_Cu	Cu	1.22549e-33	0.32685	0.32685	0.906
Mof_Cu	Cu	1.38912e-33	0.37049	0.37049	0.912
Mof_Cu	Cu	0.5	0.67315	0.17315	0.909
Mof_Cu	Cu	0.5	0.62951	0.12951	0.914
Mof_Cu	Cu	7.55918e-33	0.67315	0.67315	0.906
Mof_Cu	Cu	1.24308e-32	0.62951	0.62951	0.911
Mof_Cu	Cu	0.5	0.32685	0.17315	0.909
Mof_Cu	Cu	0.5	0.37049	0.12951	0.914
Mof_Cu	Cu	2.52391e-33	0.32685	0.67315	0.906
Mof_Cu	Cu	2.36028e-33	0.37049	0.62951	0.911
Mof_Cu	Cu	0.5	0.67315	0.82685	0.909
Mof_Cu	Cu	0.5	0.62951	0.87049	0.914
Mof_Cu	Cu	1.22549e-33	0.67315	0.32685	0.906
Mof_Cu	Cu	1.38912e-33	0.62951	0.37049	0.911
Mof_C 	C 	0.08108	0.3184	0.58108	0.041
Mof_H 	H 	0.0738	0.3378	0.5738	0.049
Mof_C 	C 	0.1007	0.2603	0.6007	-0.023
Mof_C 	C 	0.1116	0.228	0.6116	0.038
Mof_C 	C 	0.1322	0.1716	0.6322	0.126
Mof_C 	C 	0.08108	0.8184	0.08108	0.042
Mof_H 	H 	0.0738	0.8378	0.0738	0.048
Mof_C 	C 	0.1007	0.7603	0.1007	-0.024
Mof_C 	C 	0.1116	0.728	0.1116	0.038
Mof_C 	C 	0.1322	0.6716	0.1322	0.126
Mof_C 	C 	0.58108	0.8184	0.58108	0.041
Mof_H 	H 	0.5738	0.8378	0.5738	0.049
Mof_C 	C 	0.6007	0.7603	0.6007	-0.023
Mof_C 	C 	0.6116	0.728	0.6116	0.038
Mof_C 	C 	0.6322	0.6716	0.6322	0.126
Mof_C 	C 	0.91892	0.6816	0.58108	0.041
Mof_H 	H 	0.9262	0.6622	0.5738	0.05
Mof_C 	C 	0.8993	0.7397	0.6007	-0.022
Mof_C 	C 	0.8884	0.772	0.6116	0.038
Mof_C 	C 	0.8678	0.8284	0.6322	0.126
Mof_C 	C 	0.91892	0.1816	0.08108	0.041
Mof_H 	H 	0.9262	0.1622	0.0738	0.049
Mof_C 	C 	0.8993	0.2397	0.1007	-0.023
Mof_C 	C 	0.8884	0.272	0.1116	0.038
Mof_C 	C 	0.8678	0.3284	0.1322	0.126
Mof_C 	C 	0.91892	0.3184	0.41892	0.041
Mof_H 	H 	0.9262	0.3378	0.4262	0.05
Mof_C 	C 	0.8993	0.2603	0.3993	-0.022
Mof_C 	C 	0.8884	0.228	0.3884	0.038
Mof_C 	C 	0.8678	0.1716	0.3678	0.126
Mof_C 	C 	0.91892	0.8184	0.91892	0.04
Mof_H 	H 	0.9262	0.8378	0.9262	0.051
Mof_C 	C 	0.8993	0.7603	0.8993	-0.022
Mof_C 	C 	0.8884	0.728	0.8884	0.038
Mof_C 	C 	0.8678	0.6716	0.8678	0.126
Mof_C 	C 	0.08108	0.6816	0.41892	0.041
Mof_H 	H 	0.0738	0.6622	0.4262	0.049
Mof_C 	C 	0.1007	0.7397	0.3993	-0.023
Mof_C 	C 	0.1116	0.772	0.3884	0.038
Mof_C 	C 	0.1322	0.8284	0.3678	0.126
Mof_C 	C 	0.08108	0.1816	0.91892	0.041
Mof_H 	H 	0.0738	0.1622	0.9262	0.049
Mof_C 	C 	0.1007	0.2397	0.8993	-0.023
Mof_C 	C 	0.1116	0.272	0.8884	0.038
Mof_C 	C 	0.1322	0.3284	0.8678	0.126
Mof_C 	C 	0.58108	0.6816	0.91892	0.041
Mof_H 	H 	0.5738	0.6622	0.9262	0.05
Mof_C 	C 	0.6007	0.7397	0.8993	-0.022
Mof_C 	C 	0.6116	0.772	0.8884	0.038
Mof_C 	C 	0.6322	0.8284	0.8678	0.126
Mof_C 	C 	0.58108	0.08108	0.3184	0.041
Mof_H 	H 	0.5738	0.0738	0.3378	0.049
Mof_C 	C 	0.6007	0.1007	0.2603	-0.023
Mof_C 	C 	0.6116	0.1116	0.228	0.038
Mof_C 	C 	0.6322	0.1322	0.1716	0.126
Mof_C 	C 	0.58108	0.58108	0.8184	0.041
Mof_H 	H 	0.5738	0.5738	0.8378	0.049
Mof_C 	C 	0.6007	0.6007	0.7603	-0.023
Mof_C 	C 	0.6116	0.6116	0.728	0.038
Mof_C 	C 	0.6322	0.6322	0.6716	0.126
Mof_C 	C 	0.58108	0.91892	0.6816	0.041
Mof_H 	H 	0.5738	0.9262	0.6622	0.05
Mof_C 	C 	0.6007	0.8993	0.7397	-0.022
Mof_C 	C 	0.6116	0.8884	0.772	0.038
Mof_C 	C 	0.6322	0.8678	0.8284	0.126
Mof_C 	C 	0.58108	0.41892	0.1816	0.041
Mof_H 	H 	0.5738	0.4262	0.1622	0.049
Mof_C 	C 	0.6007	0.3993	0.2397	-0.023
Mof_C 	C 	0.6116	0.3884	0.272	0.038
Mof_C 	C 	0.6322	0.3678	0.3284	0.126
Mof_C 	C 	0.41892	0.91892	0.3184	0.041
Mof_H 	H 	0.4262	0.9262	0.3378	0.05
Mof_C 	C 	0.3993	0.8993	0.2603	-0.022
Mof_C 	C 	0.3884	0.8884	0.228	0.038
Mof_C 	C 	0.3678	0.8678	0.1716	0.126
Mof_C 	C 	0.41892	0.41892	0.8184	0.041
Mof_H 	H 	0.4262	0.4262	0.8378	0.049
Mof_C 	C 	0.3993	0.3993	0.7603	-0.023
Mof_C 	C 	0.3884	0.3884	0.728	0.038
Mof_C 	C 	0.3678	0.3678	0.6716	0.126
Mof_C 	C 	0.91892	0.91892	0.8184	0.04
Mof_H 	H 	0.9262	0.9262	0.8378	0.051
Mof_C 	C 	0.8993	0.8993	0.7603	-0.022
Mof_C 	C 	0.8884	0.8884	0.728	0.038
Mof_C 	C 	0.8678	0.8678	0.6716	0.126
Mof_C 	C 	0.41892	0.08108	0.6816	0.041
Mof_H 	H 	0.4262	0.0738	0.6622	0.049
Mof_C 	C 	0.3993	0.1007	0.7397	-0.023
Mof_C 	C 	0.3884	0.1116	0.772	0.038
Mof_C 	C 	0.3678	0.1322	0.8284	0.126
Mof_C 	C 	0.41892	0.58108	0.1816	0.041
Mof_H 	H 	0.4262	0.5738	0.1622	0.049
Mof_C 	C 	0.3993	0.6007	0.2397	-0.023
Mof_C 	C 	0.3884	0.6116	0.272	0.038
Mof_C 	C 	0.3678	0.6322	0.3284	0.126
Mof_C 	C 	0.91892	0.58108	0.6816	0.041
Mof_H 	H 	0.9262	0.5738	0.6622	0.05
Mof_C 	C 	0.8993	0.6007	0.7397	-0.022
Mof_C 	C 	0.8884	0.6116	0.772	0.038
Mof_C 	C 	0.8678	0.6322	0.8284	0.126
Mof_C 	C 	0.3184	0.58108	0.08108	0.041
Mof_H 	H 	0.3378	0.5738	0.0738	0.049
Mof_C 	C 	0.2603	0.6007	0.1007	-0.023
Mof_C 	C 	0.228	0.6116	0.1116	0.038
Mof_C 	C 	0.1716	0.6322	0.1322	0.126
Mof_C 	C 	0.8184	0.58108	0.58108	0.041
Mof_H 	H 	0.8378	0.5738	0.5738	0.049
Mof_C 	C 	0.7603	0.6007	0.6007	-0.023
Mof_C 	C 	0.728	0.6116	0.6116	0.038
Mof_C 	C 	0.6716	0.6322	0.6322	0.126
Mof_C 	C 	0.6816	0.58108	0.91892	0.041
Mof_H 	H 	0.6622	0.5738	0.9262	0.05
Mof_C 	C 	0.7397	0.6007	0.8993	-0.022
Mof_C 	C 	0.772	0.6116	0.8884	0.038
Mof_C 	C 	0.8284	0.6322	0.8678	0.126
Mof_C 	C 	0.1816	0.58108	0.41892	0.041
Mof_H 	H 	0.1622	0.5738	0.4262	0.049
Mof_C 	C 	0.2397	0.6007	0.3993	-0.023
Mof_C 	C 	0.272	0.6116	0.3884	0.038
Mof_C 	C 	0.3284	0.6322	0.3678	0.126
Mof_C 	C 	0.3184	0.41892	0.91892	0.041
Mof_H 	H 	0.3378	0.4262	0.9262	0.05
Mof_C 	C 	0.2603	0.3993	0.8993	-0.022
Mof_C 	C 	0.228	0.3884	0.8884	0.038
Mof_C 	C 	0.1716	0.3678	0.8678	0.126
Mof_C 	C 	0.8184	0.41892	0.41892	0.041
Mof_H 	H 	0.8378	0.4262	0.4262	0.049
Mof_C 	C 	0.7603	0.3993	0.3993	-0.023
Mof_C 	C 	0.728	0.3884	0.3884	0.038
Mof_C 	C 	0.6716	0.3678	0.3678	0.126
Mof_C 	C 	0.8184	0.91892	0.91892	0.04
Mof_H 	H 	0.8378	0.9262	0.9262	0.051
Mof_C 	C 	0.7603	0.8993	0.8993	-0.022
Mof_C 	C 	0.728	0.8884	0.8884	0.038
Mof_C 	C 	0.6716	0.8678	0.8678	0.126
Mof_C 	C 	0.6816	0.41892	0.08108	0.041
Mof_H 	H 	0.6622	0.4262	0.0738	0.049
Mof_C 	C 	0.7397	0.3993	0.1007	-0.023
Mof_C 	C 	0.772	0.3884	0.1116	0.038
Mof_C 	C 	0.8284	0.3678	0.1322	0.126
Mof_C 	C 	0.6816	0.91892	0.58108	0.041
Mof_H 	H 	0.6622	0.9262	0.5738	0.05
Mof_C 	C 	0.7397	0.8993	0.6007	-0.022
Mof_C 	C 	0.772	0.8884	0.6116	0.038
Mof_C 	C 	0.8284	0.8678	0.6322	0.126
Mof_C 	C 	0.1816	0.41892	0.58108	0.041
Mof_H 	H 	0.1622	0.4262	0.5738	0.049
Mof_C 	C 	0.2397	0.3993	0.6007	-0.023
Mof_C 	C 	0.272	0.3884	0.6116	0.038
Mof_C 	C 	0.3284	0.3678	0.6322	0.126
Mof_C 	C 	0.3184	0.08108	0.41892	0.041
Mof_H 	H 	0.3378	0.0738	0.4262	0.049
Mof_C 	C 	0.2603	0.1007	0.3993	-0.023
Mof_C 	C 	0.228	0.1116	0.3884	0.038
Mof_C 	C 	0.1716	0.1322	0.3678	0.126
Mof_C 	C 	0.3184	0.58108	0.91892	0.041
Mof_H 	H 	0.3378	0.5738	0.9262	0.05
Mof_C 	C 	0.2603	0.6007	0.8993	-0.022
Mof_C 	C 	0.228	0.6116	0.8884	0.038
Mof_C 	C 	0.1716	0.6322	0.8678	0.126
Mof_C 	C 	0.8184	0.08108	0.91892	0.041
Mof_H 	H 	0.8378	0.0738	0.9262	0.05
Mof_C 	C 	0.7603	0.1007	0.8993	-0.023
Mof_C 	C 	0.728	0.1116	0.8884	0.038
Mof_C 	C 	0.6716	0.1322	0.8678	0.126
Mof_C 	C 	0.6816	0.91892	0.41892	0.041
Mof_H 	H 	0.6622	0.9262	0.4262	0.05
Mof_C 	C 	0.7397	0.8993	0.3993	-0.022
Mof_C 	C 	0.772	0.8884	0.3884	0.038
Mof_C 	C 	0.8284	0.8678	0.3678	0.126
Mof_C 	C 	0.1816	0.91892	0.91892	0.04
Mof_H 	H 	0.1622	0.9262	0.9262	0.05
Mof_C 	C 	0.2397	0.8993	0.8993	-0.022
Mof_C 	C 	0.272	0.8884	0.8884	0.038
Mof_C 	C 	0.3284	0.8678	0.8678	0.125
Mof_C 	C 	0.3184	0.91892	0.58108	0.041
Mof_H 	H 	0.3378	0.9262	0.5738	0.05
Mof_C 	C 	0.2603	0.8993	0.6007	-0.022
Mof_C 	C 	0.228	0.8884	0.6116	0.038
Mof_C 	C 	0.1716	0.8678	0.6322	0.126
Mof_C 	C 	0.8184	0.91892	0.08108	0.041
Mof_H 	H 	0.8378	0.9262	0.0738	0.05
Mof_C 	C 	0.7603	0.8993	0.1007	-0.023
Mof_C 	C 	0.728	0.8884	0.1116	0.038
Mof_C 	C 	0.6716	0.8678	0.1322	0.126
Mof_C 	C 	0.6816	0.08108	0.58108	0.041
Mof_H 	H 	0.6622	0.0738	0.5738	0.049
Mof_C 	C 	0.7397	0.1007	0.6007	-0.023
Mof_C 	C 	0.772	0.1116	0.6116	0.038
Mof_C 	C 	0.8284	0.1322	0.6322	0.126
Mof_C 	C 	0.1816	0.08108	0.08108	0.042
Mof_H 	H 	0.1622	0.0738	0.0738	0.048
Mof_C 	C 	0.2397	0.1007	0.1007	-0.024
Mof_C 	C 	0.272	0.1116	0.1116	0.038
Mof_C 	C 	0.3284	0.1322	0.1322	0.126
Mof_C 	C 	0.1816	0.58108	0.58108	0.041
Mof_H 	H 	0.1622	0.5738	0.5738	0.049
Mof_C 	C 	0.2397	0.6007	0.6007	-0.023
Mof_C 	C 	0.272	0.6116	0.6116	0.038
Mof_C 	C 	0.3284	0.6322	0.6322	0.126
Mof_C 	C 	0.08108	0.58108	0.6816	0.041
Mof_H 	H 	0.0738	0.5738	0.6622	0.049
Mof_C 	C 	0.1007	0.6007	0.7397	-0.023
Mof_C 	C 	0.1116	0.6116	0.772	0.038
Mof_C 	C 	0.1322	0.6322	0.8284	0.126
Mof_C 	C 	0.08108	0.08108	0.1816	0.042
Mof_H 	H 	0.0738	0.0738	0.1622	0.048
Mof_C 	C 	0.1007	0.1007	0.2397	-0.024
Mof_C 	C 	0.1116	0.1116	0.272	0.038
Mof_C 	C 	0.1322	0.1322	0.3284	0.126
Mof_C 	C 	0.58108	0.58108	0.1816	0.041
Mof_H 	H 	0.5738	0.5738	0.1622	0.049
Mof_C 	C 	0.6007	0.6007	0.2397	-0.023
Mof_C 	C 	0.6116	0.6116	0.272	0.038
Mof_C 	C 	0.6322	0.6322	0.3284	0.126
Mof_C 	C 	0.91892	0.58108	0.3184	0.041
Mof_H 	H 	0.9262	0.5738	0.3378	0.05
Mof_C 	C 	0.8993	0.6007	0.2603	-0.022
Mof_C 	C 	0.8884	0.6116	0.228	0.038
Mof_C 	C 	0.8678	0.6322	0.1716	0.126
Mof_C 	C 	0.91892	0.08108	0.8184	0.041
Mof_H 	H 	0.9262	0.0738	0.8378	0.05
Mof_C 	C 	0.8993	0.1007	0.7603	-0.023
Mof_C 	C 	0.8884	0.1116	0.728	0.038
Mof_C 	C 	0.8678	0.1322	0.6716	0.126
Mof_C 	C 	0.91892	0.41892	0.6816	0.041
Mof_H 	H 	0.9262	0.4262	0.6622	0.05
Mof_C 	C 	0.8993	0.3993	0.7397	-0.022
Mof_C 	C 	0.8884	0.3884	0.772	0.038
Mof_C 	C 	0.8678	0.3678	0.8284	0.126
Mof_C 	C 	0.91892	0.91892	0.1816	0.04
Mof_H 	H 	0.9262	0.9262	0.1622	0.05
Mof_C 	C 	0.8993	0.8993	0.2397	-0.022
Mof_C 	C 	0.8884	0.8884	0.272	0.038
Mof_C 	C 	0.8678	0.8678	0.3284	0.125
Mof_C 	C 	0.08108	0.41892	0.3184	0.041
Mof_H 	H 	0.0738	0.4262	0.3378	0.049
Mof_C 	C 	0.1007	0.3993	0.2603	-0.023
Mof_C 	C 	0.1116	0.3884	0.228	0.038
Mof_C 	C 	0.1322	0.3678	0.1716	0.126
Mof_C 	C 	0.08108	0.91892	0.8184	0.041
Mof_H 	H 	0.0738	0.9262	0.8378	0.05
Mof_C 	C 	0.1007	0.8993	0.7603	-0.023
Mof_C 	C 	0.1116	0.8884	0.728	0.038
Mof_C 	C 	0.1322	0.8678	0.6716	0.126
Mof_C 	C 	0.58108	0.91892	0.3184	0.041
Mof_H 	H 	0.5738	0.9262	0.3378	0.05
Mof_C 	C 	0.6007	0.8993	0.2603	-0.022
Mof_C 	C 	0.6116	0.8884	0.228	0.038
Mof_C 	C 	0.6322	0.8678	0.1716	0.126
Mof_C 	C 	0.58108	0.3184	0.91892	0.041
Mof_H 	H 	0.5738	0.3378	0.9262	0.05
Mof_C 	C 	0.6007	0.2603	0.8993	-0.022
Mof_C 	C 	0.6116	0.228	0.8884	0.038
Mof_C 	C 	0.6322	0.1716	0.8678	0.126
Mof_C 	C 	0.58108	0.8184	0.41892	0.041
Mof_H 	H 	0.5738	0.8378	0.4262	0.049
Mof_C 	C 	0.6007	0.7603	0.3993	-0.023
Mof_C 	C 	0.6116	0.728	0.3884	0.038
Mof_C 	C 	0.6322	0.6716	0.3678	0.126
Mof_C 	C 	0.58108	0.6816	0.08108	0.041
Mof_H 	H 	0.5738	0.6622	0.0738	0.049
Mof_C 	C 	0.6007	0.7397	0.1007	-0.023
Mof_C 	C 	0.6116	0.772	0.1116	0.038
Mof_C 	C 	0.6322	0.8284	0.1322	0.126
Mof_C 	C 	0.58108	0.1816	0.58108	0.041
Mof_H 	H 	0.5738	0.1622	0.5738	0.049
Mof_C 	C 	0.6007	0.2397	0.6007	-0.023
Mof_C 	C 	0.6116	0.272	0.6116	0.038
Mof_C 	C 	0.6322	0.3284	0.6322	0.126
Mof_C 	C 	0.41892	0.3184	0.08108	0.041
Mof_H 	H 	0.4262	0.3378	0.0738	0.049
Mof_C 	C 	0.3993	0.2603	0.1007	-0.023
Mof_C 	C 	0.3884	0.228	0.1116	0.038
Mof_C 	C 	0.3678	0.1716	0.1322	0.126
Mof_C 	C 	0.41892	0.8184	0.58108	0.041
Mof_H 	H 	0.4262	0.8378	0.5738	0.049
Mof_C 	C 	0.3993	0.7603	0.6007	-0.023
Mof_C 	C 	0.3884	0.728	0.6116	0.038
Mof_C 	C 	0.3678	0.6716	0.6322	0.126
Mof_C 	C 	0.91892	0.3184	0.58108	0.041
Mof_H 	H 	0.9262	0.3378	0.5738	0.05
Mof_C 	C 	0.8993	0.2603	0.6007	-0.022
Mof_C 	C 	0.8884	0.228	0.6116	0.038
Mof_C 	C 	0.8678	0.1716	0.6322	0.126
Mof_C 	C 	0.41892	0.6816	0.91892	0.041
Mof_H 	H 	0.4262	0.6622	0.9262	0.05
Mof_C 	C 	0.3993	0.7397	0.8993	-0.022
Mof_C 	C 	0.3884	0.772	0.8884	0.038
Mof_C 	C 	0.3678	0.8284	0.8678	0.126
Mof_C 	C 	0.41892	0.1816	0.41892	0.041
Mof_H 	H 	0.4262	0.1622	0.4262	0.049
Mof_C 	C 	0.3993	0.2397	0.3993	-0.023
Mof_C 	C 	0.3884	0.272	0.3884	0.038
Mof_C 	C 	0.3678	0.3284	0.3678	0.126
Mof_C 	C 	0.91892	0.1816	0.91892	0.04
Mof_H 	H 	0.9262	0.1622	0.9262	0.05
Mof_C 	C 	0.8993	0.2397	0.8993	-0.022
Mof_C 	C 	0.8884	0.272	0.8884	0.038
Mof_C 	C 	0.8678	0.3284	0.8678	0.125
Mof_C 	C 	0.91892	0.6816	0.41892	0.041
Mof_H 	H 	0.9262	0.6622	0.4262	0.05
Mof_C 	C 	0.8993	0.7397	0.3993	-0.022
Mof_C 	C 	0.8884	0.772	0.3884	0.038
Mof_C 	C 	0.8678	0.8284	0.3678	0.126
Mof_C 	C 	0.08108	0.3184	0.41892	0.041
Mof_H 	H 	0.0738	0.3378	0.4262	0.049
Mof_C 	C 	0.1007	0.2603	0.3993	-0.023
Mof_C 	C 	0.1116	0.228	0.3884	0.038
Mof_C 	C 	0.1322	0.1716	0.3678	0.126
Mof_C 	C 	0.08108	0.8184	0.91892	0.041
Mof_H 	H 	0.0738	0.8378	0.9262	0.05
Mof_C 	C 	0.1007	0.7603	0.8993	-0.023
Mof_C 	C 	0.1116	0.728	0.8884	0.038
Mof_C 	C 	0.1322	0.6716	0.8678	0.126
Mof_C 	C 	0.08108	0.6816	0.58108	0.041
Mof_H 	H 	0.0738	0.6622	0.5738	0.049
Mof_C 	C 	0.1007	0.7397	0.6007	-0.023
Mof_C 	C 	0.1116	0.772	0.6116	0.038
Mof_C 	C 	0.1322	0.8284	0.6322	0.126
Mof_C 	C 	0.08108	0.1816	0.08108	0.042
Mof_H 	H 	0.0738	0.1622	0.0738	0.048
Mof_C 	C 	0.1007	0.2397	0.1007	-0.024
Mof_C 	C 	0.1116	0.272	0.1116	0.038
Mof_C 	C 	0.1322	0.3284	0.1322	0.126
Mof_C 	C 	0.91892	0.8184	0.08108	0.041
Mof_H 	H 	0.9262	0.8378	0.0738	0.05
Mof_C 	C 	0.8993	0.7603	0.1007	-0.023
Mof_C 	C 	0.8884	0.728	0.1116	0.038
Mof_C 	C 	0.8678	0.6716	0.1322	0.126
Mof_C 	C 	0.41892	0.91892	0.6816	0.041
Mof_H 	H 	0.4262	0.9262	0.6622	0.05
Mof_C 	C 	0.3993	0.8993	0.7397	-0.022
Mof_C 	C 	0.3884	0.8884	0.772	0.038
Mof_C 	C 	0.3678	0.8678	0.8284	0.126
Mof_C 	C 	0.41892	0.41892	0.1816	0.041
Mof_H 	H 	0.4262	0.4262	0.1622	0.049
Mof_C 	C 	0.3993	0.3993	0.2397	-0.023
Mof_C 	C 	0.3884	0.3884	0.272	0.038
Mof_C 	C 	0.3678	0.3678	0.3284	0.126
Mof_C 	C 	0.41892	0.08108	0.3184	0.041
Mof_H 	H 	0.4262	0.0738	0.3378	0.049
Mof_C 	C 	0.3993	0.1007	0.2603	-0.023
Mof_C 	C 	0.3884	0.1116	0.228	0.038
Mof_C 	C 	0.3678	0.1322	0.1716	0.126
Mof_C 	C 	0.41892	0.58108	0.8184	0.041
Mof_H 	H 	0.4262	0.5738	0.8378	0.049
Mof_C 	C 	0.3993	0.6007	0.7603	-0.023
Mof_C 	C 	0.3884	0.6116	0.728	0.038
Mof_C 	C 	0.3678	0.6322	0.6716	0.126
Mof_C 	C 	0.58108	0.08108	0.6816	0.041
Mof_H 	H 	0.5738	0.0738	0.6622	0.049
Mof_C 	C 	0.6007	0.1007	0.7397	-0.023
Mof_C 	C 	0.6116	0.1116	0.772	0.038
Mof_C 	C 	0.6322	0.1322	0.8284	0.126
Mof_C 	C 	0.58108	0.41892	0.8184	0.041
Mof_H 	H 	0.5738	0.4262	0.8378	0.049
Mof_C 	C 	0.6007	0.3993	0.7603	-0.023
Mof_C 	C 	0.6116	0.3884	0.728	0.038
Mof_C 	C 	0.6322	0.3678	0.6716	0.126
Mof_C 	C 	0.6816	0.41892	0.91892	0.041
Mof_H 	H 	0.6622	0.4262	0.9262	0.05
Mof_C 	C 	0.7397	0.3993	0.8993	-0.022
Mof_C 	C 	0.772	0.3884	0.8884	0.038
Mof_C 	C 	0.8284	0.3678	0.8678	0.126
Mof_C 	C 	0.1816	0.41892	0.41892	0.041
Mof_H 	H 	0.1622	0.4262	0.4262	0.049
Mof_C 	C 	0.2397	0.3993	0.3993	-0.023
Mof_C 	C 	0.272	0.3884	0.3884	0.038
Mof_C 	C 	0.3284	0.3678	0.3678	0.126
Mof_C 	C 	0.3184	0.41892	0.08108	0.041
Mof_H 	H 	0.3378	0.4262	0.0738	0.049
Mof_C 	C 	0.2603	0.3993	0.1007	-0.023
Mof_C 	C 	0.228	0.3884	0.1116	0.038
Mof_C 	C 	0.1716	0.3678	0.1322	0.126
Mof_C 	C 	0.8184	0.41892	0.58108	0.041
Mof_H 	H 	0.8378	0.4262	0.5738	0.049
Mof_C 	C 	0.7603	0.3993	0.6007	-0.023
Mof_C 	C 	0.728	0.3884	0.6116	0.038
Mof_C 	C 	0.6716	0.3678	0.6322	0.126
Mof_C 	C 	0.6816	0.58108	0.08108	0.041
Mof_H 	H 	0.6622	0.5738	0.0738	0.049
Mof_C 	C 	0.7397	0.6007	0.1007	-0.023
Mof_C 	C 	0.772	0.6116	0.1116	0.038
Mof_C 	C 	0.8284	0.6322	0.1322	0.126
Mof_C 	C 	0.8184	0.58108	0.41892	0.041
Mof_H 	H 	0.8378	0.5738	0.4262	0.049
Mof_C 	C 	0.7603	0.6007	0.3993	-0.023
Mof_C 	C 	0.728	0.6116	0.3884	0.038
Mof_C 	C 	0.6716	0.6322	0.3678	0.126
Mof_C 	C 	0.1816	0.91892	0.08108	0.041
Mof_H 	H 	0.1622	0.9262	0.0738	0.049
Mof_C 	C 	0.2397	0.8993	0.1007	-0.023
Mof_C 	C 	0.272	0.8884	0.1116	0.038
Mof_C 	C 	0.3284	0.8678	0.1322	0.126
Mof_C 	C 	0.3184	0.08108	0.58108	0.041
Mof_H 	H 	0.3378	0.0738	0.5738	0.049
Mof_C 	C 	0.2603	0.1007	0.6007	-0.023
Mof_C 	C 	0.228	0.1116	0.6116	0.038
Mof_C 	C 	0.1716	0.1322	0.6322	0.126
Mof_C 	C 	0.8184	0.08108	0.08108	0.042
Mof_H 	H 	0.8378	0.0738	0.0738	0.048
Mof_C 	C 	0.7603	0.1007	0.1007	-0.024
Mof_C 	C 	0.728	0.1116	0.1116	0.038
Mof_C 	C 	0.6716	0.1322	0.1322	0.126
Mof_C 	C 	0.6816	0.08108	0.41892	0.041
Mof_H 	H 	0.6622	0.0738	0.4262	0.049
Mof_C 	C 	0.7397	0.1007	0.3993	-0.023
Mof_C 	C 	0.772	0.1116	0.3884	0.038
Mof_C 	C 	0.8284	0.1322	0.3678	0.126
Mof_C 	C 	0.1816	0.08108	0.91892	0.041
Mof_H 	H 	0.1622	0.0738	0.9262	0.049
Mof_C 	C 	0.2397	0.1007	0.8993	-0.023
Mof_C 	C 	0.272	0.1116	0.8884	0.038
Mof_C 	C 	0.3284	0.1322	0.8678	0.126
Mof_C 	C 	0.3184	0.91892	0.41892	0.041
Mof_H 	H 	0.3378	0.9262	0.4262	0.05
Mof_C 	C 	0.2603	0.8993	0.3993	-0.022
Mof_C 	C 	0.228	0.8884	0.3884	0.038
Mof_C 	C 	0.1716	0.8678	0.3678	0.126
Mof_C 	C 	0.91892	0.41892	0.3184	0.041
Mof_H 	H 	0.9262	0.4262	0.3378	0.05
Mof_C 	C 	0.8993	0.3993	0.2603	-0.022
Mof_C 	C 	0.8884	0.3884	0.228	0.038
Mof_C 	C 	0.8678	0.3678	0.1716	0.126
Mof_C 	C 	0.08108	0.41892	0.6816	0.041
Mof_H 	H 	0.0738	0.4262	0.6622	0.049
Mof_C 	C 	0.1007	0.3993	0.7397	-0.023
Mof_C 	C 	0.1116	0.3884	0.772	0.038
Mof_C 	C 	0.1322	0.3678	0.8284	0.126
Mof_C 	C 	0.08108	0.91892	0.1816	0.041
Mof_H 	H 	0.0738	0.9262	0.1622	0.049
Mof_C 	C 	0.1007	0.8993	0.2397	-0.023
Mof_C 	C 	0.1116	0.8884	0.272	0.038
Mof_C 	C 	0.1322	0.8678	0.3284	0.126
Mof_C 	C 	0.08108	0.58108	0.3184	0.041
Mof_H 	H 	0.0738	0.5738	0.3378	0.049
Mof_C 	C 	0.1007	0.6007	0.2603	-0.023
Mof_C 	C 	0.1116	0.6116	0.228	0.038
Mof_C 	C 	0.1322	0.6322	0.1716	0.126
Mof_C 	C 	0.08108	0.08108	0.8184	0.042
Mof_H 	H 	0.0738	0.0738	0.8378	0.048
Mof_C 	C 	0.1007	0.1007	0.7603	-0.024
Mof_C 	C 	0.1116	0.1116	0.728	0.038
Mof_C 	C 	0.1322	0.1322	0.6716	0.126
Mof_C 	C 	0.91892	0.08108	0.1816	0.041
Mof_H 	H 	0.9262	0.0738	0.1622	0.049
Mof_C 	C 	0.8993	0.1007	0.2397	-0.023
Mof_C 	C 	0.8884	0.1116	0.272	0.038
Mof_C 	C 	0.8678	0.1322	0.3284	0.126
Mof_C 	C 	0.41892	0.6816	0.08108	0.041
Mof_H 	H 	0.4262	0.6622	0.0738	0.049
Mof_C 	C 	0.3993	0.7397	0.1007	-0.023
Mof_C 	C 	0.3884	0.772	0.1116	0.038
Mof_C 	C 	0.3678	0.8284	0.1322	0.126
Mof_C 	C 	0.41892	0.1816	0.58108	0.041
Mof_H 	H 	0.4262	0.1622	0.5738	0.049
Mof_C 	C 	0.3993	0.2397	0.6007	-0.023
Mof_C 	C 	0.3884	0.272	0.6116	0.038
Mof_C 	C 	0.3678	0.3284	0.6322	0.126
Mof_C 	C 	0.41892	0.3184	0.91892	0.041
Mof_H 	H 	0.4262	0.3378	0.9262	0.05
Mof_C 	C 	0.3993	0.2603	0.8993	-0.022
Mof_C 	C 	0.3884	0.228	0.8884	0.038
Mof_C 	C 	0.3678	0.1716	0.8678	0.126
Mof_C 	C 	0.41892	0.8184	0.41892	0.041
Mof_H 	H 	0.4262	0.8378	0.4262	0.049
Mof_C 	C 	0.3993	0.7603	0.3993	-0.023
Mof_C 	C 	0.3884	0.728	0.3884	0.038
Mof_C 	C 	0.3678	0.6716	0.3678	0.126
Mof_C 	C 	0.58108	0.1816	0.41892	0.041
Mof_H 	H 	0.5738	0.1622	0.4262	0.049
Mof_C 	C 	0.6007	0.2397	0.3993	-0.023
Mof_C 	C 	0.6116	0.272	0.3884	0.038
Mof_C 	C 	0.6322	0.3284	0.3678	0.126
Mof_C 	C 	0.58108	0.3184	0.08108	0.041
Mof_H 	H 	0.5738	0.3378	0.0738	0.049
Mof_C 	C 	0.6007	0.2603	0.1007	-0.023
Mof_C 	C 	0.6116	0.228	0.1116	0.038
Mof_C 	C 	0.6322	0.1716	0.1322	0.126
Mof_N 	N 	0.1427	0.1427	0.6427	-0.174
Mof_N 	N 	0.6427	0.6427	0.6427	-0.174
Mof_N 	N 	0.8573	0.8573	0.6427	-0.174
Mof_N 	N 	0.8573	0.1427	0.3573	-0.174
Mof_N 	N 	0.8573	0.6427	0.8573	-0.174
Mof_N 	N 	0.1427	0.8573	0.3573	-0.174
Mof_N 	N 	0.6427	0.8573	0.8573	-0.174
Mof_N 	N 	0.6427	0.1427	0.1427	-0.174
Mof_N 	N 	0.6427	0.3573	0.3573	-0.174
Mof_N 	N 	0.3573	0.8573	0.1427	-0.174
Mof_N 	N 	0.3573	0.3573	0.6427	-0.174
Mof_N 	N 	0.3573	0.1427	0.8573	-0.174
Mof_N 	N 	0.3573	0.6427	0.3573	-0.174
Mof_N 	N 	0.1427	0.6427	0.1427	-0.174
Mof_N 	N 	0.1427	0.3573	0.8573	-0.174
Mof_N 	N 	0.8573	0.3573	0.1427	-0.174
Mof_N 	N 	0.1427	0.1427	0.3573	-0.174
Mof_N 	N 	0.1427	0.6427	0.8573	-0.174
Mof_N 	N 	0.6427	0.1427	0.8573	-0.174
Mof_N 	N 	0.8573	0.8573	0.3573	-0.174
Mof_N 	N 	0.1427	0.8573	0.6427	-0.174
Mof_N 	N 	0.6427	0.3573	0.6427	-0.174
Mof_N 	N 	0.8573	0.1427	0.6427	-0.174
Mof_N 	N 	0.6427	0.6427	0.3573	-0.174
Mof_N 	N 	0.8573	0.6427	0.1427	-0.174
Mof_N 	N 	0.8573	0.3573	0.8573	-0.174
Mof_N 	N 	0.1427	0.3573	0.1427	-0.174
Mof_N 	N 	0.6427	0.8573	0.1427	-0.174
Mof_N 	N 	0.3573	0.1427	0.1427	-0.174
Mof_N 	N 	0.3573	0.6427	0.6427	-0.174
Mof_N 	N 	0.3573	0.8573	0.8573	-0.174
Mof_N 	N 	0.3573	0.3573	0.3573	-0.174
_end
