data_functionalizedCrystal
_audit_creation_method	'EQeq! by Chris Wilmer'
_symmetry_space_group_name_H-M	'P1'
_symmetry_Int_Tables_number	1
_symmetry_cell_setting	triclinic
loop_
_symmetry_equiv_pos_as_xyz
  x,y,z
_cell_length_a	25.5845
_cell_length_b	24.5597
_cell_length_c	19.0518
_cell_angle_alpha	90
_cell_angle_beta	105.291
_cell_angle_gamma	90
loop_
_atom_site_label
_atom_site_type_symbol
_atom_site_fract_x
_atom_site_fract_y
_atom_site_fract_z
_atom_site_charge
Mof_C 	C 	0.19699	0.36695	0.8868	0.134
Mof_C 	C 	0.0159	0.409	0.707	0.038
Mof_C 	C 	0.03798	0.33745	0.78722	0.023
Mof_H 	H 	0.0241	0.4459	0.6839	-0.002
Mof_H 	H 	0.0638	0.3105	0.813	0.001
Mof_C 	C 	0.96311	0.40909	0.71459	-0.037
Mof_C 	C 	0.98494	0.33753	0.79489	-0.029
Mof_H 	H 	0.9401	0.4401	0.6986	0.021
Mof_H 	H 	0.976	0.32	0.8374	0.021
Mof_C 	C 	0.14996	0.25182	0.70217	0.186
Mof_C 	C 	0.35887	0.42092	0.91794	0.079
Mof_H 	H 	0.3463	0.387	0.9311	-0.012
Mof_C 	C 	0.1573	0.54806	0.7543	0.372
Mof_C 	C 	0.10872	0.37268	0.565	0.204
Mof_C 	C 	0.17112	0.48828	0.7601	0.205
Mof_C 	C 	0.25342	0.2281	0.5646	0.004
Mof_H 	H 	0.2562	0.2115	0.6105	0.016
Mof_C 	C 	0.32424	0.30622	0.7601	0.204
Mof_C 	C 	0.3756	0.273	0.787	0.409
Mof_C 	C 	0.40847	0.4408	0.9593	-0.177
Mof_H 	H 	0.4294	0.4207	0.9996	0.061
Mof_C 	C 	0.48001	0.5135	0.9791	-0.097
Mof_H 	H 	0.4856	0.5512	0.973	0.04
Mof_C 	C 	0.23384	0.3018	0.4896	0.003
Mof_H 	H 	0.2225	0.3385	0.4807	0.014
Mof_C 	C 	0.1946	0.3566	0.965	0.642
Mof_C 	C 	0.39375	0.5193	0.884	-0.183
Mof_H 	H 	0.4039	0.5545	0.8715	0.06
Mof_C 	C 	0.3232	0.4605	0.6019	0.5
Mof_C 	C 	0.0698	0.3914	0.4938	0.403
Mof_C 	C 	0.3454	0.49651	0.8455	0.085
Mof_H 	H 	0.3231	0.5165	0.8062	-0.019
Mof_C 	C 	0.4236	0.313	0.8036	-0.686
Mof_H 	H 	0.4215	0.3361	0.7611	0.206
Mof_H 	H 	0.4577	0.2925	0.8151	0.195
Mof_H 	H 	0.4222	0.3357	0.8453	0.218
Mof_C 	C 	0.1887	0.5777	0.8225	-0.665
Mof_H 	H 	0.2277	0.5726	0.8286	0.209
Mof_H 	H 	0.1787	0.5629	0.8649	0.199
Mof_H 	H 	0.1801	0.6166	0.8179	0.193
Mof_C 	C 	0.28943	0.4264	0.6422	0.175
Mof_C 	C 	0.0768	0.3601	0.4296	-0.71
Mof_H 	H 	0.0548	0.3767	0.3848	0.201
Mof_H 	H 	0.0651	0.3223	0.4327	0.209
Mof_H 	H 	0.115	0.3606	0.4293	0.223
Mof_C 	C 	0.3355	0.5164	0.6349	-0.784
Mof_H 	H 	0.3557	0.5129	0.6861	0.241
Mof_H 	H 	0.3015	0.5359	0.6316	0.225
Mof_H 	H 	0.3573	0.5367	0.6085	0.227
Mof_C 	C 	0.3734	0.2431	0.8523	-0.738
Mof_H 	H 	0.3504	0.2109	0.8386	0.205
Mof_H 	H 	0.3583	0.2667	0.8836	0.222
Mof_H 	H 	0.4101	0.2318	0.8787	0.208
Mof_C 	C 	0.0974	0.5574	0.745	-0.67
Mof_H 	H 	0.0872	0.5433	0.7876	0.2
Mof_H 	H 	0.0766	0.5385	0.7013	0.205
Mof_H 	H 	0.0896	0.5965	0.7401	0.188
Mof_C 	C 	0.1565	0.4037	0.9787	-0.804
Mof_H 	H 	0.126	0.4082	0.9355	0.253
Mof_H 	H 	0.1771	0.4378	0.9886	0.231
Mof_H 	H 	0.1428	0.3944	0.0206	0.225
Mof_C 	C 	0.1403	0.1936	0.7277	0.474
Mof_C 	C 	0.3758	0.4302	0.6097	-0.794
Mof_H 	H 	0.3944	0.4262	0.6614	0.239
Mof_H 	H 	0.3989	0.4506	0.5853	0.242
Mof_H 	H 	0.3682	0.3941	0.5874	0.242
Mof_C 	C 	0.246	0.3642	0.0192	-0.99
Mof_H 	H 	0.2719	0.3367	0.0122	0.285
Mof_H 	H 	0.2405	0.3604	0.0679	0.281
Mof_H 	H 	0.2601	0.4006	0.0139	0.293
Mof_C 	C 	0.0812	0.1809	0.6995	-0.754
Mof_H 	H 	0.0598	0.2116	0.7096	0.232
Mof_H 	H 	0.0725	0.1482	0.7236	0.22
Mof_H 	H 	0.0726	0.1747	0.6469	0.224
Mof_C 	C 	0.1436	0.1952	0.809	-0.727
Mof_H 	H 	0.1091	0.2084	0.8158	0.219
Mof_H 	H 	0.1728	0.2198	0.8336	0.214
Mof_H 	H 	0.1509	0.1586	0.8295	0.206
Mof_C 	C 	0.2948	0.465	0.5233	-0.826
Mof_H 	H 	0.3127	0.4928	0.5008	0.253
Mof_H 	H 	0.257	0.4754	0.5178	0.244
Mof_H 	H 	0.2961	0.4299	0.4996	0.258
Mof_C 	C 	0.3854	0.235	0.7275	-0.675
Mof_H 	H 	0.3833	0.2561	0.6832	0.209
Mof_H 	H 	0.3578	0.2064	0.7172	0.201
Mof_H 	H 	0.4214	0.2184	0.7443	0.189
Mof_C 	C 	0.1766	0.5697	0.6903	-0.655
Mof_H 	H 	0.2158	0.5642	0.7	0.196
Mof_H 	H 	0.1684	0.6086	0.684	0.179
Mof_H 	H 	0.1581	0.5501	0.6459	0.19
Mof_C 	C 	0.0867	0.4509	0.4846	-0.669
Mof_H 	H 	0.0732	0.4746	0.5174	0.198
Mof_H 	H 	0.0713	0.4625	0.4342	0.192
Mof_H 	H 	0.1263	0.4533	0.4965	0.2
Mof_C 	C 	0.0124	0.3893	0.4993	-0.706
Mof_H 	H 	0.0095	0.4091	0.5428	0.221
Mof_H 	H 	0.0017	0.3512	0.5027	0.206
Mof_H 	H 	0.9884	0.4061	0.456	0.2
Mof_C 	C 	0.1744	0.1519	0.7066	-0.816
Mof_H 	H 	0.2125	0.1588	0.7315	0.242
Mof_H 	H 	0.1695	0.1531	0.6538	0.25
Mof_H 	H 	0.164	0.1158	0.7204	0.239
Mof_C 	C 	0.1655	0.3076	0.9662	-1.03
Mof_H 	H 	0.1375	0.3035	0.9201	0.316
Mof_H 	H 	0.1485	0.3074	0.0067	0.294
Mof_H 	H 	0.1912	0.2774	0.9719	0.289
Mof_N 	N 	0.05206	0.37355	0.74158	-0.161
Mof_N 	N 	0.32843	0.44735	0.861	-0.19
Mof_C 	C 	0.42697	0.4912	0.9404	0.095
Mof_N 	N 	0.23728	0.27981	0.5545	-0.157
Mof_O 	O 	0.15401	0.36285	0.83922	-0.343
Mof_O 	O 	0.13333	0.4538	0.74066	-0.346
Mof_O 	O 	0.24216	0.38046	0.87697	-0.333
Mof_O 	O 	0.09524	0.38197	0.62246	-0.352
Mof_O 	O 	0.22044	0.47616	0.78356	-0.351
Mof_O 	O 	0.31671	0.34362	0.8009	-0.351
Mof_O 	O 	0.1834	0.25812	0.66564	-0.343
Mof_O 	O 	0.12283	0.28851	0.72135	-0.347
Mof_O 	O 	0.29272	0.29424	0.70037	-0.342
Mof_O 	O 	0.26206	0.38765	0.60748	-0.34
Mof_O 	O 	0.20584	0.36854	0.71938	-0.553
Mof_O 	O 	0.1527	0.35118	0.56212	-0.346
Mof_O 	O 	0.29485	0.43759	0.70741	-0.343
Mof_Fe	Fe	0.13459	0.37108	0.72886	0.942
Mof_Fe	Fe	0.26159	0.40516	0.78471	0.953
Mof_Fe	Fe	0.21988	0.32734	0.64172	0.932
Mof_Co	Co	0.86541	0.37108	0.77114	1.201
Mof_Co	Co	0.73841	0.40516	0.71529	1.205
Mof_Co	Co	0.78012	0.32734	0.85828	1.198
Mof_C 	C 	0.69699	0.86695	0.8868	0.132
Mof_C 	C 	0.5159	0.909	0.707	0.036
Mof_C 	C 	0.53798	0.83745	0.78722	0.021
Mof_H 	H 	0.5241	0.9459	0.6839	-0.003
Mof_H 	H 	0.5638	0.8105	0.813	-0
Mof_C 	C 	0.46311	0.90909	0.71459	-0.037
Mof_C 	C 	0.48494	0.83753	0.79489	-0.028
Mof_H 	H 	0.4401	0.9401	0.6986	0.021
Mof_H 	H 	0.476	0.82	0.8374	0.021
Mof_C 	C 	0.64996	0.75182	0.70217	0.186
Mof_C 	C 	0.85887	0.92092	0.91794	0.079
Mof_H 	H 	0.8463	0.887	0.9311	-0.013
Mof_C 	C 	0.6573	0.04806	0.7543	0.372
Mof_C 	C 	0.60872	0.87268	0.565	0.204
Mof_C 	C 	0.67112	0.98828	0.7601	0.205
Mof_C 	C 	0.75342	0.7281	0.5646	0.004
Mof_H 	H 	0.7562	0.7115	0.6105	0.016
Mof_C 	C 	0.82424	0.80622	0.7601	0.204
Mof_C 	C 	0.8756	0.773	0.787	0.408
Mof_C 	C 	0.90847	0.9408	0.9593	-0.177
Mof_H 	H 	0.9294	0.9207	0.9996	0.06
Mof_C 	C 	0.98001	0.0135	0.9791	-0.097
Mof_H 	H 	0.9856	0.0512	0.973	0.039
Mof_C 	C 	0.73384	0.8018	0.4896	0.003
Mof_H 	H 	0.7225	0.8385	0.4807	0.014
Mof_C 	C 	0.6946	0.8566	0.965	0.647
Mof_C 	C 	0.89375	0.0193	0.884	-0.182
Mof_H 	H 	0.9039	0.0545	0.8715	0.059
Mof_C 	C 	0.8232	0.9605	0.6019	0.499
Mof_C 	C 	0.5698	0.8914	0.4938	0.403
Mof_C 	C 	0.8454	0.99651	0.8455	0.084
Mof_H 	H 	0.8231	0.0165	0.8062	-0.019
Mof_C 	C 	0.9236	0.813	0.8036	-0.685
Mof_H 	H 	0.9215	0.8361	0.7611	0.206
Mof_H 	H 	0.9577	0.7925	0.8151	0.195
Mof_H 	H 	0.9222	0.8357	0.8453	0.218
Mof_C 	C 	0.6887	0.0777	0.8225	-0.664
Mof_H 	H 	0.7277	0.0726	0.8286	0.208
Mof_H 	H 	0.6787	0.0629	0.8649	0.198
Mof_H 	H 	0.6801	0.1166	0.8179	0.192
Mof_C 	C 	0.78943	0.9264	0.6422	0.175
Mof_C 	C 	0.5768	0.8601	0.4296	-0.71
Mof_H 	H 	0.5548	0.8767	0.3848	0.201
Mof_H 	H 	0.5651	0.8223	0.4327	0.209
Mof_H 	H 	0.615	0.8606	0.4293	0.223
Mof_C 	C 	0.8355	0.0164	0.6349	-0.784
Mof_H 	H 	0.8557	0.0129	0.6861	0.241
Mof_H 	H 	0.8015	0.0359	0.6316	0.225
Mof_H 	H 	0.8573	0.0367	0.6085	0.227
Mof_C 	C 	0.8734	0.7431	0.8523	-0.737
Mof_H 	H 	0.8504	0.7109	0.8386	0.205
Mof_H 	H 	0.8583	0.7667	0.8836	0.222
Mof_H 	H 	0.9101	0.7318	0.8787	0.208
Mof_C 	C 	0.5974	0.0574	0.745	-0.669
Mof_H 	H 	0.5872	0.0433	0.7876	0.199
Mof_H 	H 	0.5766	0.0385	0.7013	0.205
Mof_H 	H 	0.5896	0.0965	0.7401	0.187
Mof_C 	C 	0.6565	0.9037	0.9787	-0.814
Mof_H 	H 	0.626	0.9082	0.9355	0.255
Mof_H 	H 	0.6771	0.9378	0.9886	0.233
Mof_H 	H 	0.6428	0.8944	0.0206	0.229
Mof_C 	C 	0.6403	0.6936	0.7277	0.473
Mof_C 	C 	0.8758	0.9302	0.6097	-0.794
Mof_H 	H 	0.8944	0.9262	0.6614	0.239
Mof_H 	H 	0.8989	0.9506	0.5853	0.242
Mof_H 	H 	0.8682	0.8941	0.5874	0.241
Mof_C 	C 	0.746	0.8642	0.0192	-0.994
Mof_H 	H 	0.7719	0.8367	0.0122	0.286
Mof_H 	H 	0.7405	0.8604	0.0679	0.282
Mof_H 	H 	0.7601	0.9006	0.0139	0.295
Mof_C 	C 	0.5812	0.6809	0.6995	-0.753
Mof_H 	H 	0.5598	0.7116	0.7096	0.231
Mof_H 	H 	0.5725	0.6482	0.7236	0.219
Mof_H 	H 	0.5726	0.6747	0.6469	0.224
Mof_C 	C 	0.6436	0.6952	0.809	-0.726
Mof_H 	H 	0.6091	0.7084	0.8158	0.218
Mof_H 	H 	0.6728	0.7198	0.8336	0.214
Mof_H 	H 	0.6509	0.6586	0.8295	0.205
Mof_C 	C 	0.7948	0.965	0.5233	-0.826
Mof_H 	H 	0.8127	0.9928	0.5008	0.253
Mof_H 	H 	0.757	0.9754	0.5178	0.244
Mof_H 	H 	0.7961	0.9299	0.4996	0.258
Mof_C 	C 	0.8854	0.735	0.7275	-0.675
Mof_H 	H 	0.8833	0.7561	0.6832	0.209
Mof_H 	H 	0.8578	0.7064	0.7172	0.2
Mof_H 	H 	0.9214	0.7184	0.7443	0.188
Mof_C 	C 	0.6766	0.0697	0.6903	-0.655
Mof_H 	H 	0.7158	0.0642	0.7	0.196
Mof_H 	H 	0.6684	0.1086	0.684	0.179
Mof_H 	H 	0.6581	0.0501	0.6459	0.19
Mof_C 	C 	0.5867	0.9509	0.4846	-0.669
Mof_H 	H 	0.5732	0.9746	0.5174	0.198
Mof_H 	H 	0.5713	0.9625	0.4342	0.193
Mof_H 	H 	0.6263	0.9533	0.4965	0.2
Mof_C 	C 	0.5124	0.8893	0.4993	-0.705
Mof_H 	H 	0.5095	0.9091	0.5428	0.221
Mof_H 	H 	0.5017	0.8512	0.5027	0.206
Mof_H 	H 	0.4884	0.9061	0.456	0.2
Mof_C 	C 	0.6744	0.6519	0.7066	-0.815
Mof_H 	H 	0.7125	0.6588	0.7315	0.242
Mof_H 	H 	0.6695	0.6531	0.6538	0.25
Mof_H 	H 	0.664	0.6158	0.7204	0.238
Mof_C 	C 	0.6655	0.8076	0.9662	-1.042
Mof_H 	H 	0.6375	0.8035	0.9201	0.319
Mof_H 	H 	0.6485	0.8074	0.0067	0.299
Mof_H 	H 	0.6912	0.7774	0.9719	0.292
Mof_N 	N 	0.55206	0.87355	0.74158	-0.16
Mof_N 	N 	0.82843	0.94735	0.861	-0.19
Mof_C 	C 	0.92697	0.9912	0.9404	0.093
Mof_N 	N 	0.73728	0.77981	0.5545	-0.157
Mof_O 	O 	0.65401	0.86285	0.83922	-0.343
Mof_O 	O 	0.63333	0.9538	0.74066	-0.346
Mof_O 	O 	0.74216	0.88046	0.87697	-0.333
Mof_O 	O 	0.59524	0.88197	0.62246	-0.352
Mof_O 	O 	0.72044	0.97616	0.78356	-0.351
Mof_O 	O 	0.81671	0.84362	0.8009	-0.351
Mof_O 	O 	0.6834	0.75812	0.66564	-0.343
Mof_O 	O 	0.62283	0.78851	0.72135	-0.347
Mof_O 	O 	0.79272	0.79424	0.70037	-0.342
Mof_O 	O 	0.76206	0.88765	0.60748	-0.34
Mof_O 	O 	0.70584	0.86854	0.71938	-0.553
Mof_O 	O 	0.6527	0.85118	0.56212	-0.346
Mof_O 	O 	0.79485	0.93759	0.70741	-0.343
Mof_Fe	Fe	0.63459	0.87108	0.72886	0.942
Mof_Fe	Fe	0.76159	0.90516	0.78471	0.953
Mof_Fe	Fe	0.71988	0.82734	0.64172	0.932
Mof_Co	Co	0.36541	0.87108	0.77114	1.201
Mof_Co	Co	0.23841	0.90516	0.71529	1.205
Mof_Co	Co	0.28012	0.82734	0.85828	1.198
Mof_C 	C 	0.80301	0.36695	0.6132	0.12
Mof_C 	C 	0.9841	0.409	0.793	0.024
Mof_C 	C 	0.96202	0.33745	0.71278	0.007
Mof_H 	H 	0.9759	0.4459	0.8161	-0.002
Mof_H 	H 	0.9362	0.3105	0.687	-0
Mof_C 	C 	0.03689	0.40909	0.78541	-0.025
Mof_C 	C 	0.01506	0.33753	0.70511	-0.016
Mof_H 	H 	0.0599	0.4401	0.8014	0.021
Mof_H 	H 	0.024	0.32	0.6626	0.022
Mof_C 	C 	0.85004	0.25182	0.79783	0.176
Mof_C 	C 	0.64113	0.42092	0.58206	0.064
Mof_H 	H 	0.6537	0.387	0.5689	-0.012
Mof_C 	C 	0.8427	0.54806	0.7457	0.383
Mof_C 	C 	0.89128	0.37268	0.935	0.199
Mof_C 	C 	0.82888	0.48828	0.7399	0.195
Mof_C 	C 	0.74658	0.2281	0.9354	-0
Mof_H 	H 	0.7438	0.2115	0.8895	0.013
Mof_C 	C 	0.67576	0.30622	0.7399	0.195
Mof_C 	C 	0.6244	0.273	0.713	0.42
Mof_C 	C 	0.59153	0.4408	0.5407	-0.165
Mof_H 	H 	0.5706	0.4207	0.5004	0.057
Mof_C 	C 	0.51999	0.5135	0.5209	-0.095
Mof_H 	H 	0.5144	0.5512	0.527	0.039
Mof_C 	C 	0.76616	0.3018	0.0104	-0
Mof_H 	H 	0.7775	0.3385	0.0193	0.012
Mof_C 	C 	0.8054	0.3566	0.535	0.663
Mof_C 	C 	0.60625	0.5193	0.616	-0.17
Mof_H 	H 	0.5961	0.5545	0.6285	0.056
Mof_C 	C 	0.6768	0.4605	0.8981	0.513
Mof_C 	C 	0.9302	0.3914	0.0062	0.4
Mof_C 	C 	0.6546	0.49651	0.6545	0.07
Mof_H 	H 	0.6769	0.5165	0.6938	-0.018
Mof_C 	C 	0.5764	0.313	0.6964	-0.696
Mof_H 	H 	0.5785	0.3361	0.7389	0.209
Mof_H 	H 	0.5423	0.2925	0.6849	0.198
Mof_H 	H 	0.5778	0.3357	0.6547	0.222
Mof_C 	C 	0.8113	0.5777	0.6775	-0.674
Mof_H 	H 	0.7723	0.5726	0.6714	0.212
Mof_H 	H 	0.8213	0.5629	0.6351	0.202
Mof_H 	H 	0.8199	0.6166	0.6821	0.195
Mof_C 	C 	0.71057	0.4264	0.8578	0.164
Mof_C 	C 	0.9232	0.3601	0.0704	-0.708
Mof_H 	H 	0.9452	0.3767	0.1152	0.201
Mof_H 	H 	0.9349	0.3223	0.0673	0.209
Mof_H 	H 	0.885	0.3606	0.0707	0.224
Mof_C 	C 	0.6645	0.5164	0.8651	-0.795
Mof_H 	H 	0.6443	0.5129	0.8139	0.245
Mof_H 	H 	0.6985	0.5359	0.8684	0.228
Mof_H 	H 	0.6427	0.5367	0.8915	0.23
Mof_C 	C 	0.6266	0.2431	0.6477	-0.747
Mof_H 	H 	0.6496	0.2109	0.6614	0.208
Mof_H 	H 	0.6417	0.2667	0.6164	0.225
Mof_H 	H 	0.5899	0.2318	0.6213	0.211
Mof_C 	C 	0.9026	0.5574	0.755	-0.679
Mof_H 	H 	0.9128	0.5433	0.7124	0.203
Mof_H 	H 	0.9234	0.5385	0.7987	0.208
Mof_H 	H 	0.9104	0.5965	0.7599	0.19
Mof_C 	C 	0.8435	0.4037	0.5213	-0.823
Mof_H 	H 	0.874	0.4082	0.5645	0.258
Mof_H 	H 	0.8229	0.4378	0.5114	0.237
Mof_H 	H 	0.8572	0.3944	0.4794	0.232
Mof_C 	C 	0.8597	0.1936	0.7723	0.484
Mof_C 	C 	0.6242	0.4302	0.8903	-0.804
Mof_H 	H 	0.6056	0.4262	0.8386	0.243
Mof_H 	H 	0.6011	0.4506	0.9147	0.245
Mof_H 	H 	0.6318	0.3941	0.9126	0.244
Mof_C 	C 	0.754	0.3642	0.4808	-1.009
Mof_H 	H 	0.7281	0.3367	0.4878	0.291
Mof_H 	H 	0.7595	0.3604	0.4321	0.287
Mof_H 	H 	0.7399	0.4006	0.4861	0.3
Mof_C 	C 	0.9188	0.1809	0.8005	-0.761
Mof_H 	H 	0.9402	0.2116	0.7904	0.235
Mof_H 	H 	0.9275	0.1482	0.7764	0.222
Mof_H 	H 	0.9274	0.1747	0.8531	0.226
Mof_C 	C 	0.8564	0.1952	0.691	-0.735
Mof_H 	H 	0.8909	0.2084	0.6842	0.221
Mof_H 	H 	0.8272	0.2198	0.6664	0.215
Mof_H 	H 	0.8491	0.1586	0.6705	0.208
Mof_C 	C 	0.7052	0.465	0.9767	-0.84
Mof_H 	H 	0.6873	0.4928	0.9992	0.257
Mof_H 	H 	0.743	0.4754	0.9822	0.248
Mof_H 	H 	0.7039	0.4299	0.0004	0.263
Mof_C 	C 	0.6146	0.235	0.7725	-0.684
Mof_H 	H 	0.6167	0.2561	0.8168	0.212
Mof_H 	H 	0.6422	0.2064	0.7828	0.204
Mof_H 	H 	0.5786	0.2184	0.7557	0.191
Mof_C 	C 	0.8234	0.5697	0.8097	-0.664
Mof_H 	H 	0.7842	0.5642	0.8	0.198
Mof_H 	H 	0.8316	0.6086	0.816	0.182
Mof_H 	H 	0.8419	0.5501	0.8541	0.192
Mof_C 	C 	0.9133	0.4509	0.0154	-0.661
Mof_H 	H 	0.9268	0.4746	0.9826	0.195
Mof_H 	H 	0.9287	0.4625	0.0658	0.191
Mof_H 	H 	0.8737	0.4533	0.0035	0.198
Mof_C 	C 	0.9876	0.3893	0.0007	-0.684
Mof_H 	H 	0.9905	0.4091	0.9572	0.214
Mof_H 	H 	0.9983	0.3512	0.9973	0.199
Mof_H 	H 	0.0116	0.4061	0.044	0.193
Mof_C 	C 	0.8256	0.1519	0.7934	-0.825
Mof_H 	H 	0.7875	0.1588	0.7685	0.245
Mof_H 	H 	0.8305	0.1531	0.8462	0.254
Mof_H 	H 	0.836	0.1158	0.7796	0.241
Mof_C 	C 	0.8345	0.3076	0.5338	-1.055
Mof_H 	H 	0.8625	0.3035	0.5799	0.324
Mof_H 	H 	0.8515	0.3074	0.4933	0.302
Mof_H 	H 	0.8088	0.2774	0.5281	0.296
Mof_N 	N 	0.94794	0.37355	0.75842	-0.181
Mof_N 	N 	0.67157	0.44735	0.639	-0.213
Mof_C 	C 	0.57303	0.4912	0.5596	0.087
Mof_N 	N 	0.76272	0.27981	0.9455	-0.186
Mof_O 	O 	0.84599	0.36285	0.66078	-0.384
Mof_O 	O 	0.86667	0.4538	0.75934	-0.388
Mof_O 	O 	0.75784	0.38046	0.62303	-0.374
Mof_O 	O 	0.90476	0.38197	0.87754	-0.396
Mof_O 	O 	0.77956	0.47616	0.71644	-0.392
Mof_O 	O 	0.68329	0.34362	0.6991	-0.393
Mof_O 	O 	0.8166	0.25812	0.83436	-0.387
Mof_O 	O 	0.87717	0.28851	0.77865	-0.389
Mof_O 	O 	0.70728	0.29424	0.79963	-0.385
Mof_O 	O 	0.73794	0.38765	0.89252	-0.383
Mof_O 	O 	0.79416	0.36854	0.78062	-0.679
Mof_O 	O 	0.8473	0.35118	0.93788	-0.392
Mof_O 	O 	0.70515	0.43759	0.79259	-0.384
Mof_C 	C 	0.30301	0.86695	0.6132	0.12
Mof_C 	C 	0.4841	0.909	0.793	0.025
Mof_C 	C 	0.46202	0.83745	0.71278	0.008
Mof_H 	H 	0.4759	0.9459	0.8161	-0.003
Mof_H 	H 	0.4362	0.8105	0.687	-0
Mof_C 	C 	0.53689	0.90909	0.78541	-0.026
Mof_C 	C 	0.51506	0.83753	0.70511	-0.016
Mof_H 	H 	0.5599	0.9401	0.8014	0.021
Mof_H 	H 	0.524	0.82	0.6626	0.022
Mof_C 	C 	0.35004	0.75182	0.79783	0.176
Mof_C 	C 	0.14113	0.92092	0.58206	0.064
Mof_H 	H 	0.1537	0.887	0.5689	-0.012
Mof_C 	C 	0.3427	0.04806	0.7457	0.383
Mof_C 	C 	0.39128	0.87268	0.935	0.196
Mof_C 	C 	0.32888	0.98828	0.7399	0.195
Mof_C 	C 	0.24658	0.7281	0.9354	-0.001
Mof_H 	H 	0.2438	0.7115	0.8895	0.014
Mof_C 	C 	0.17576	0.80622	0.7399	0.195
Mof_C 	C 	0.1244	0.773	0.713	0.42
Mof_C 	C 	0.09153	0.9408	0.5407	-0.165
Mof_H 	H 	0.0706	0.9207	0.5004	0.057
Mof_C 	C 	0.01999	0.0135	0.5209	-0.095
Mof_H 	H 	0.0144	0.0512	0.527	0.039
Mof_C 	C 	0.26616	0.8018	0.0104	-0.003
Mof_H 	H 	0.2775	0.8385	0.0193	0.012
Mof_C 	C 	0.3054	0.8566	0.535	0.663
Mof_C 	C 	0.10625	0.0193	0.616	-0.17
Mof_H 	H 	0.0961	0.0545	0.6285	0.056
Mof_C 	C 	0.1768	0.9605	0.8981	0.51
Mof_C 	C 	0.4302	0.8914	0.0062	0.412
Mof_C 	C 	0.1546	0.99651	0.6545	0.07
Mof_H 	H 	0.1769	0.0165	0.6938	-0.018
Mof_C 	C 	0.0764	0.813	0.6964	-0.696
Mof_H 	H 	0.0785	0.8361	0.7389	0.21
Mof_H 	H 	0.0423	0.7925	0.6849	0.199
Mof_H 	H 	0.0778	0.8357	0.6547	0.222
Mof_C 	C 	0.3113	0.0777	0.6775	-0.674
Mof_H 	H 	0.2723	0.0726	0.6714	0.212
Mof_H 	H 	0.3213	0.0629	0.6351	0.202
Mof_H 	H 	0.3199	0.1166	0.6821	0.195
Mof_C 	C 	0.21057	0.9264	0.8578	0.165
Mof_C 	C 	0.4232	0.8601	0.0704	-0.718
Mof_H 	H 	0.4452	0.8767	0.1152	0.203
Mof_H 	H 	0.4349	0.8223	0.0673	0.211
Mof_H 	H 	0.385	0.8606	0.0707	0.226
Mof_C 	C 	0.1645	0.0164	0.8651	-0.793
Mof_H 	H 	0.1443	0.0129	0.8139	0.245
Mof_H 	H 	0.1985	0.0359	0.8684	0.228
Mof_H 	H 	0.1427	0.0367	0.8915	0.23
Mof_C 	C 	0.1266	0.7431	0.6477	-0.748
Mof_H 	H 	0.1496	0.7109	0.6614	0.208
Mof_H 	H 	0.1417	0.7667	0.6164	0.225
Mof_H 	H 	0.0899	0.7318	0.6213	0.211
Mof_C 	C 	0.4026	0.0574	0.755	-0.679
Mof_H 	H 	0.4128	0.0433	0.7124	0.203
Mof_H 	H 	0.4234	0.0385	0.7987	0.208
Mof_H 	H 	0.4104	0.0965	0.7599	0.19
Mof_C 	C 	0.3435	0.9037	0.5213	-0.823
Mof_H 	H 	0.374	0.9082	0.5645	0.258
Mof_H 	H 	0.3229	0.9378	0.5114	0.237
Mof_H 	H 	0.3572	0.8944	0.4794	0.232
Mof_C 	C 	0.3597	0.6936	0.7723	0.484
Mof_C 	C 	0.1242	0.9302	0.8903	-0.803
Mof_H 	H 	0.1056	0.9262	0.8386	0.242
Mof_H 	H 	0.1011	0.9506	0.9147	0.245
Mof_H 	H 	0.1318	0.8941	0.9126	0.245
Mof_C 	C 	0.254	0.8642	0.4808	-1.009
Mof_H 	H 	0.2281	0.8367	0.4878	0.291
Mof_H 	H 	0.2595	0.8604	0.4321	0.287
Mof_H 	H 	0.2399	0.9006	0.4861	0.3
Mof_C 	C 	0.4188	0.6809	0.8005	-0.762
Mof_H 	H 	0.4402	0.7116	0.7904	0.235
Mof_H 	H 	0.4275	0.6482	0.7764	0.222
Mof_H 	H 	0.4274	0.6747	0.8531	0.227
Mof_C 	C 	0.3564	0.6952	0.691	-0.735
Mof_H 	H 	0.3909	0.7084	0.6842	0.221
Mof_H 	H 	0.3272	0.7198	0.6664	0.215
Mof_H 	H 	0.3491	0.6586	0.6705	0.208
Mof_C 	C 	0.2052	0.965	0.9767	-0.832
Mof_H 	H 	0.1873	0.9928	0.9992	0.255
Mof_H 	H 	0.243	0.9754	0.9822	0.246
Mof_H 	H 	0.2039	0.9299	0.0004	0.26
Mof_C 	C 	0.1146	0.735	0.7725	-0.685
Mof_H 	H 	0.1167	0.7561	0.8168	0.213
Mof_H 	H 	0.1422	0.7064	0.7828	0.204
Mof_H 	H 	0.0786	0.7184	0.7557	0.192
Mof_C 	C 	0.3234	0.0697	0.8097	-0.664
Mof_H 	H 	0.2842	0.0642	0.8	0.198
Mof_H 	H 	0.3316	0.1086	0.816	0.182
Mof_H 	H 	0.3419	0.0501	0.8541	0.192
Mof_C 	C 	0.4133	0.9509	0.0154	-0.675
Mof_H 	H 	0.4268	0.9746	0.9826	0.2
Mof_H 	H 	0.4287	0.9625	0.0658	0.194
Mof_H 	H 	0.3737	0.9533	0.0035	0.202
Mof_C 	C 	0.4876	0.8893	0.0007	-0.713
Mof_H 	H 	0.4905	0.9091	0.9572	0.224
Mof_H 	H 	0.4983	0.8512	0.9973	0.208
Mof_H 	H 	0.5116	0.9061	0.044	0.202
Mof_C 	C 	0.3256	0.6519	0.7934	-0.825
Mof_H 	H 	0.2875	0.6588	0.7685	0.245
Mof_H 	H 	0.3305	0.6531	0.8462	0.254
Mof_H 	H 	0.336	0.6158	0.7796	0.241
Mof_C 	C 	0.3345	0.8076	0.5338	-1.056
Mof_H 	H 	0.3625	0.8035	0.5799	0.324
Mof_H 	H 	0.3515	0.8074	0.4933	0.302
Mof_H 	H 	0.3088	0.7774	0.5281	0.296
Mof_N 	N 	0.44794	0.87355	0.75842	-0.182
Mof_N 	N 	0.17157	0.94735	0.639	-0.213
Mof_C 	C 	0.07303	0.9912	0.5596	0.087
Mof_N 	N 	0.26272	0.77981	0.9455	-0.184
Mof_O 	O 	0.34599	0.86285	0.66078	-0.384
Mof_O 	O 	0.36667	0.9538	0.75934	-0.388
Mof_O 	O 	0.25784	0.88046	0.62303	-0.374
Mof_O 	O 	0.40476	0.88197	0.87754	-0.395
Mof_O 	O 	0.27956	0.97616	0.71644	-0.392
Mof_O 	O 	0.18329	0.84362	0.6991	-0.393
Mof_O 	O 	0.3166	0.75812	0.83436	-0.386
Mof_O 	O 	0.37717	0.78851	0.77865	-0.389
Mof_O 	O 	0.20728	0.79424	0.79963	-0.385
Mof_O 	O 	0.23794	0.88765	0.89252	-0.383
Mof_O 	O 	0.29416	0.86854	0.78062	-0.679
Mof_O 	O 	0.3473	0.85118	0.93788	-0.391
Mof_O 	O 	0.20515	0.93759	0.79259	-0.384
Mof_C 	C 	0.80301	0.63305	0.1132	0.133
Mof_C 	C 	0.9841	0.591	0.293	0.037
Mof_C 	C 	0.96202	0.66255	0.21278	0.022
Mof_H 	H 	0.9759	0.5541	0.3161	-0.003
Mof_H 	H 	0.9362	0.6895	0.187	-0
Mof_C 	C 	0.03689	0.59091	0.28541	-0.038
Mof_C 	C 	0.01506	0.66247	0.20511	-0.029
Mof_H 	H 	0.0599	0.5599	0.3014	0.021
Mof_H 	H 	0.024	0.68	0.1626	0.021
Mof_C 	C 	0.85004	0.74818	0.29783	0.186
Mof_C 	C 	0.64113	0.57908	0.08206	0.079
Mof_H 	H 	0.6537	0.613	0.0689	-0.012
Mof_C 	C 	0.8427	0.45194	0.2457	0.372
Mof_C 	C 	0.89128	0.62732	0.435	0.204
Mof_C 	C 	0.82888	0.51172	0.2399	0.205
Mof_C 	C 	0.74658	0.7719	0.4354	0.004
Mof_H 	H 	0.7438	0.7885	0.3895	0.016
Mof_C 	C 	0.67576	0.69378	0.2399	0.204
Mof_C 	C 	0.6244	0.727	0.213	0.409
Mof_C 	C 	0.59153	0.5592	0.0407	-0.177
Mof_H 	H 	0.5706	0.5793	0.0004	0.061
Mof_C 	C 	0.51999	0.4865	0.0209	-0.097
Mof_H 	H 	0.5144	0.4488	0.027	0.04
Mof_C 	C 	0.76616	0.6982	0.5104	0.003
Mof_H 	H 	0.7775	0.6615	0.5193	0.014
Mof_C 	C 	0.8054	0.6434	0.035	0.642
Mof_C 	C 	0.60625	0.4807	0.116	-0.183
Mof_H 	H 	0.5961	0.4455	0.1285	0.06
Mof_C 	C 	0.6768	0.5395	0.3981	0.5
Mof_C 	C 	0.9302	0.6086	0.5062	0.403
Mof_C 	C 	0.6546	0.50349	0.1545	0.085
Mof_H 	H 	0.6769	0.4835	0.1938	-0.019
Mof_C 	C 	0.5764	0.687	0.1964	-0.686
Mof_H 	H 	0.5785	0.6639	0.2389	0.206
Mof_H 	H 	0.5423	0.7075	0.1849	0.195
Mof_H 	H 	0.5778	0.6643	0.1547	0.218
Mof_C 	C 	0.8113	0.4223	0.1775	-0.665
Mof_H 	H 	0.7723	0.4274	0.1714	0.209
Mof_H 	H 	0.8213	0.4371	0.1351	0.199
Mof_H 	H 	0.8199	0.3834	0.1821	0.193
Mof_C 	C 	0.71057	0.5736	0.3578	0.175
Mof_C 	C 	0.9232	0.6399	0.5704	-0.71
Mof_H 	H 	0.9452	0.6233	0.6152	0.201
Mof_H 	H 	0.9349	0.6777	0.5673	0.209
Mof_H 	H 	0.885	0.6394	0.5707	0.223
Mof_C 	C 	0.6645	0.4836	0.3651	-0.784
Mof_H 	H 	0.6443	0.4871	0.3139	0.241
Mof_H 	H 	0.6985	0.4641	0.3684	0.225
Mof_H 	H 	0.6427	0.4633	0.3915	0.227
Mof_C 	C 	0.6266	0.7569	0.1477	-0.738
Mof_H 	H 	0.6496	0.7891	0.1614	0.205
Mof_H 	H 	0.6417	0.7333	0.1164	0.222
Mof_H 	H 	0.5899	0.7682	0.1213	0.208
Mof_C 	C 	0.9026	0.4426	0.255	-0.67
Mof_H 	H 	0.9128	0.4567	0.2124	0.2
Mof_H 	H 	0.9234	0.4615	0.2987	0.205
Mof_H 	H 	0.9104	0.4035	0.2599	0.188
Mof_C 	C 	0.8435	0.5963	0.0213	-0.804
Mof_H 	H 	0.874	0.5918	0.0645	0.253
Mof_H 	H 	0.8229	0.5622	0.0114	0.231
Mof_H 	H 	0.8572	0.6056	0.9794	0.225
Mof_C 	C 	0.8597	0.8064	0.2723	0.474
Mof_C 	C 	0.6242	0.5698	0.3903	-0.794
Mof_H 	H 	0.6056	0.5738	0.3386	0.239
Mof_H 	H 	0.6011	0.5494	0.4147	0.242
Mof_H 	H 	0.6318	0.6059	0.4126	0.242
Mof_C 	C 	0.754	0.6358	0.9808	-0.99
Mof_H 	H 	0.7281	0.6633	0.9878	0.285
Mof_H 	H 	0.7595	0.6396	0.9321	0.281
Mof_H 	H 	0.7399	0.5994	0.9861	0.293
Mof_C 	C 	0.9188	0.8191	0.3005	-0.754
Mof_H 	H 	0.9402	0.7884	0.2904	0.232
Mof_H 	H 	0.9275	0.8518	0.2764	0.22
Mof_H 	H 	0.9274	0.8253	0.3531	0.224
Mof_C 	C 	0.8564	0.8048	0.191	-0.727
Mof_H 	H 	0.8909	0.7916	0.1842	0.219
Mof_H 	H 	0.8272	0.7802	0.1664	0.214
Mof_H 	H 	0.8491	0.8414	0.1705	0.206
Mof_C 	C 	0.7052	0.535	0.4767	-0.826
Mof_H 	H 	0.6873	0.5072	0.4992	0.253
Mof_H 	H 	0.743	0.5246	0.4822	0.244
Mof_H 	H 	0.7039	0.5701	0.5004	0.258
Mof_C 	C 	0.6146	0.765	0.2725	-0.675
Mof_H 	H 	0.6167	0.7439	0.3168	0.209
Mof_H 	H 	0.6422	0.7936	0.2828	0.201
Mof_H 	H 	0.5786	0.7816	0.2557	0.189
Mof_C 	C 	0.8234	0.4303	0.3097	-0.655
Mof_H 	H 	0.7842	0.4358	0.3	0.196
Mof_H 	H 	0.8316	0.3914	0.316	0.179
Mof_H 	H 	0.8419	0.4499	0.3541	0.19
Mof_C 	C 	0.9133	0.5491	0.5154	-0.669
Mof_H 	H 	0.9268	0.5254	0.4826	0.198
Mof_H 	H 	0.9287	0.5375	0.5658	0.192
Mof_H 	H 	0.8737	0.5467	0.5035	0.2
Mof_C 	C 	0.9876	0.6107	0.5007	-0.706
Mof_H 	H 	0.9905	0.5909	0.4572	0.221
Mof_H 	H 	0.9983	0.6488	0.4973	0.206
Mof_H 	H 	0.0116	0.5939	0.544	0.2
Mof_C 	C 	0.8256	0.8481	0.2934	-0.816
Mof_H 	H 	0.7875	0.8412	0.2685	0.242
Mof_H 	H 	0.8305	0.8469	0.3462	0.25
Mof_H 	H 	0.836	0.8842	0.2796	0.239
Mof_C 	C 	0.8345	0.6924	0.0338	-1.03
Mof_H 	H 	0.8625	0.6965	0.0799	0.316
Mof_H 	H 	0.8515	0.6926	0.9933	0.294
Mof_H 	H 	0.8088	0.7226	0.0281	0.289
Mof_N 	N 	0.94794	0.62645	0.25842	-0.161
Mof_N 	N 	0.67157	0.55265	0.139	-0.19
Mof_C 	C 	0.57303	0.5088	0.0596	0.095
Mof_N 	N 	0.76272	0.72019	0.4455	-0.157
Mof_O 	O 	0.84599	0.63715	0.16078	-0.343
Mof_O 	O 	0.86667	0.5462	0.25934	-0.346
Mof_O 	O 	0.75784	0.61954	0.12303	-0.333
Mof_O 	O 	0.90476	0.61803	0.37754	-0.352
Mof_O 	O 	0.77956	0.52384	0.21644	-0.351
Mof_O 	O 	0.68329	0.65638	0.1991	-0.351
Mof_O 	O 	0.8166	0.74188	0.33436	-0.343
Mof_O 	O 	0.87717	0.71149	0.27865	-0.347
Mof_O 	O 	0.70728	0.70576	0.29963	-0.342
Mof_O 	O 	0.73794	0.61235	0.39252	-0.34
Mof_O 	O 	0.79416	0.63146	0.28062	-0.553
Mof_O 	O 	0.8473	0.64882	0.43788	-0.346
Mof_O 	O 	0.70515	0.56241	0.29259	-0.343
Mof_Fe	Fe	0.86541	0.62892	0.27114	0.942
Mof_Fe	Fe	0.73841	0.59484	0.21529	0.953
Mof_Fe	Fe	0.78012	0.67266	0.35828	0.932
Mof_Co	Co	0.13459	0.62892	0.22886	1.201
Mof_Co	Co	0.26159	0.59484	0.28471	1.205
Mof_Co	Co	0.21988	0.67266	0.14172	1.198
Mof_C 	C 	0.30301	0.13305	0.1132	0.132
Mof_C 	C 	0.4841	0.091	0.293	0.036
Mof_C 	C 	0.46202	0.16255	0.21278	0.021
Mof_H 	H 	0.4759	0.0541	0.3161	-0.003
Mof_H 	H 	0.4362	0.1895	0.187	-0
Mof_C 	C 	0.53689	0.09091	0.28541	-0.037
Mof_C 	C 	0.51506	0.16247	0.20511	-0.028
Mof_H 	H 	0.5599	0.0599	0.3014	0.021
Mof_H 	H 	0.524	0.18	0.1626	0.021
Mof_C 	C 	0.35004	0.24818	0.29783	0.186
Mof_C 	C 	0.14113	0.07908	0.08206	0.079
Mof_H 	H 	0.1537	0.113	0.0689	-0.013
Mof_C 	C 	0.3427	0.95194	0.2457	0.372
Mof_C 	C 	0.39128	0.12732	0.435	0.204
Mof_C 	C 	0.32888	0.01172	0.2399	0.205
Mof_C 	C 	0.24658	0.2719	0.4354	0.004
Mof_H 	H 	0.2438	0.2885	0.3895	0.016
Mof_C 	C 	0.17576	0.19378	0.2399	0.204
Mof_C 	C 	0.1244	0.227	0.213	0.408
Mof_C 	C 	0.09153	0.0592	0.0407	-0.177
Mof_H 	H 	0.0706	0.0793	0.0004	0.06
Mof_C 	C 	0.01999	0.9865	0.0209	-0.097
Mof_H 	H 	0.0144	0.9488	0.027	0.039
Mof_C 	C 	0.26616	0.1982	0.5104	0.003
Mof_H 	H 	0.2775	0.1615	0.5193	0.014
Mof_C 	C 	0.3054	0.1434	0.035	0.647
Mof_C 	C 	0.10625	0.9807	0.116	-0.182
Mof_H 	H 	0.0961	0.9455	0.1285	0.059
Mof_C 	C 	0.1768	0.0395	0.3981	0.499
Mof_C 	C 	0.4302	0.1086	0.5062	0.403
Mof_C 	C 	0.1546	0.00349	0.1545	0.084
Mof_H 	H 	0.1769	0.9835	0.1938	-0.019
Mof_C 	C 	0.0764	0.187	0.1964	-0.685
Mof_H 	H 	0.0785	0.1639	0.2389	0.206
Mof_H 	H 	0.0423	0.2075	0.1849	0.195
Mof_H 	H 	0.0778	0.1643	0.1547	0.218
Mof_C 	C 	0.3113	0.9223	0.1775	-0.664
Mof_H 	H 	0.2723	0.9274	0.1714	0.208
Mof_H 	H 	0.3213	0.9371	0.1351	0.198
Mof_H 	H 	0.3199	0.8834	0.1821	0.192
Mof_C 	C 	0.21057	0.0736	0.3578	0.175
Mof_C 	C 	0.4232	0.1399	0.5704	-0.71
Mof_H 	H 	0.4452	0.1233	0.6152	0.201
Mof_H 	H 	0.4349	0.1777	0.5673	0.209
Mof_H 	H 	0.385	0.1394	0.5707	0.223
Mof_C 	C 	0.1645	0.9836	0.3651	-0.784
Mof_H 	H 	0.1443	0.9871	0.3139	0.241
Mof_H 	H 	0.1985	0.9641	0.3684	0.225
Mof_H 	H 	0.1427	0.9633	0.3915	0.227
Mof_C 	C 	0.1266	0.2569	0.1477	-0.737
Mof_H 	H 	0.1496	0.2891	0.1614	0.205
Mof_H 	H 	0.1417	0.2333	0.1164	0.222
Mof_H 	H 	0.0899	0.2682	0.1213	0.208
Mof_C 	C 	0.4026	0.9426	0.255	-0.669
Mof_H 	H 	0.4128	0.9567	0.2124	0.199
Mof_H 	H 	0.4234	0.9615	0.2987	0.205
Mof_H 	H 	0.4104	0.9035	0.2599	0.187
Mof_C 	C 	0.3435	0.0963	0.0213	-0.814
Mof_H 	H 	0.374	0.0918	0.0645	0.255
Mof_H 	H 	0.3229	0.0622	0.0114	0.233
Mof_H 	H 	0.3572	0.1056	0.9794	0.229
Mof_C 	C 	0.3597	0.3064	0.2723	0.473
Mof_C 	C 	0.1242	0.0698	0.3903	-0.794
Mof_H 	H 	0.1056	0.0738	0.3386	0.239
Mof_H 	H 	0.1011	0.0494	0.4147	0.242
Mof_H 	H 	0.1318	0.1059	0.4126	0.241
Mof_C 	C 	0.254	0.1358	0.9808	-0.994
Mof_H 	H 	0.2281	0.1633	0.9878	0.286
Mof_H 	H 	0.2595	0.1396	0.9321	0.282
Mof_H 	H 	0.2399	0.0994	0.9861	0.295
Mof_C 	C 	0.4188	0.3191	0.3005	-0.753
Mof_H 	H 	0.4402	0.2884	0.2904	0.231
Mof_H 	H 	0.4275	0.3518	0.2764	0.219
Mof_H 	H 	0.4274	0.3253	0.3531	0.224
Mof_C 	C 	0.3564	0.3048	0.191	-0.726
Mof_H 	H 	0.3909	0.2916	0.1842	0.218
Mof_H 	H 	0.3272	0.2802	0.1664	0.214
Mof_H 	H 	0.3491	0.3414	0.1705	0.205
Mof_C 	C 	0.2052	0.035	0.4767	-0.826
Mof_H 	H 	0.1873	0.0072	0.4992	0.253
Mof_H 	H 	0.243	0.0246	0.4822	0.244
Mof_H 	H 	0.2039	0.0701	0.5004	0.258
Mof_C 	C 	0.1146	0.265	0.2725	-0.675
Mof_H 	H 	0.1167	0.2439	0.3168	0.209
Mof_H 	H 	0.1422	0.2936	0.2828	0.2
Mof_H 	H 	0.0786	0.2816	0.2557	0.188
Mof_C 	C 	0.3234	0.9303	0.3097	-0.655
Mof_H 	H 	0.2842	0.9358	0.3	0.196
Mof_H 	H 	0.3316	0.8914	0.316	0.179
Mof_H 	H 	0.3419	0.9499	0.3541	0.19
Mof_C 	C 	0.4133	0.0491	0.5154	-0.669
Mof_H 	H 	0.4268	0.0254	0.4826	0.198
Mof_H 	H 	0.4287	0.0375	0.5658	0.193
Mof_H 	H 	0.3737	0.0467	0.5035	0.2
Mof_C 	C 	0.4876	0.1107	0.5007	-0.705
Mof_H 	H 	0.4905	0.0909	0.4572	0.221
Mof_H 	H 	0.4983	0.1488	0.4973	0.206
Mof_H 	H 	0.5116	0.0939	0.544	0.2
Mof_C 	C 	0.3256	0.3481	0.2934	-0.815
Mof_H 	H 	0.2875	0.3412	0.2685	0.242
Mof_H 	H 	0.3305	0.3469	0.3462	0.25
Mof_H 	H 	0.336	0.3842	0.2796	0.238
Mof_C 	C 	0.3345	0.1924	0.0338	-1.042
Mof_H 	H 	0.3625	0.1965	0.0799	0.319
Mof_H 	H 	0.3515	0.1926	0.9933	0.299
Mof_H 	H 	0.3088	0.2226	0.0281	0.292
Mof_N 	N 	0.44794	0.12645	0.25842	-0.16
Mof_N 	N 	0.17157	0.05265	0.139	-0.19
Mof_C 	C 	0.07303	0.0088	0.0596	0.093
Mof_N 	N 	0.26272	0.22019	0.4455	-0.157
Mof_O 	O 	0.34599	0.13715	0.16078	-0.343
Mof_O 	O 	0.36667	0.0462	0.25934	-0.346
Mof_O 	O 	0.25784	0.11954	0.12303	-0.333
Mof_O 	O 	0.40476	0.11803	0.37754	-0.352
Mof_O 	O 	0.27956	0.02384	0.21644	-0.351
Mof_O 	O 	0.18329	0.15638	0.1991	-0.351
Mof_O 	O 	0.3166	0.24188	0.33436	-0.343
Mof_O 	O 	0.37717	0.21149	0.27865	-0.347
Mof_O 	O 	0.20728	0.20576	0.29963	-0.342
Mof_O 	O 	0.23794	0.11235	0.39252	-0.34
Mof_O 	O 	0.29416	0.13146	0.28062	-0.553
Mof_O 	O 	0.3473	0.14882	0.43788	-0.346
Mof_O 	O 	0.20515	0.06241	0.29259	-0.343
Mof_Fe	Fe	0.36541	0.12892	0.27114	0.942
Mof_Fe	Fe	0.23841	0.09484	0.21529	0.953
Mof_Fe	Fe	0.28012	0.17266	0.35828	0.932
Mof_Co	Co	0.63459	0.12892	0.22886	1.201
Mof_Co	Co	0.76159	0.09484	0.28471	1.205
Mof_Co	Co	0.71988	0.17266	0.14172	1.198
Mof_C 	C 	0.19699	0.63305	0.3868	0.12
Mof_C 	C 	0.0159	0.591	0.207	0.024
Mof_C 	C 	0.03798	0.66255	0.28722	0.007
Mof_H 	H 	0.0241	0.5541	0.1839	-0.002
Mof_H 	H 	0.0638	0.6895	0.313	-0
Mof_C 	C 	0.96311	0.59091	0.21459	-0.025
Mof_C 	C 	0.98494	0.66247	0.29489	-0.016
Mof_H 	H 	0.9401	0.5599	0.1986	0.021
Mof_H 	H 	0.976	0.68	0.3374	0.022
Mof_C 	C 	0.14996	0.74818	0.20217	0.176
Mof_C 	C 	0.35887	0.57908	0.41794	0.064
Mof_H 	H 	0.3463	0.613	0.4311	-0.012
Mof_C 	C 	0.1573	0.45194	0.2543	0.383
Mof_C 	C 	0.10872	0.62732	0.065	0.199
Mof_C 	C 	0.17112	0.51172	0.2601	0.195
Mof_C 	C 	0.25342	0.7719	0.0646	-0
Mof_H 	H 	0.2562	0.7885	0.1105	0.013
Mof_C 	C 	0.32424	0.69378	0.2601	0.195
Mof_C 	C 	0.3756	0.727	0.287	0.42
Mof_C 	C 	0.40847	0.5592	0.4593	-0.165
Mof_H 	H 	0.4294	0.5793	0.4996	0.057
Mof_C 	C 	0.48001	0.4865	0.4791	-0.095
Mof_H 	H 	0.4856	0.4488	0.473	0.039
Mof_C 	C 	0.23384	0.6982	0.9896	-0
Mof_H 	H 	0.2225	0.6615	0.9807	0.012
Mof_C 	C 	0.1946	0.6434	0.465	0.663
Mof_C 	C 	0.39375	0.4807	0.384	-0.17
Mof_H 	H 	0.4039	0.4455	0.3715	0.056
Mof_C 	C 	0.3232	0.5395	0.1019	0.513
Mof_C 	C 	0.0698	0.6086	0.9938	0.4
Mof_C 	C 	0.3454	0.50349	0.3455	0.07
Mof_H 	H 	0.3231	0.4835	0.3062	-0.018
Mof_C 	C 	0.4236	0.687	0.3036	-0.696
Mof_H 	H 	0.4215	0.6639	0.2611	0.209
Mof_H 	H 	0.4577	0.7075	0.3151	0.198
Mof_H 	H 	0.4222	0.6643	0.3453	0.222
Mof_C 	C 	0.1887	0.4223	0.3225	-0.674
Mof_H 	H 	0.2277	0.4274	0.3286	0.212
Mof_H 	H 	0.1787	0.4371	0.3649	0.202
Mof_H 	H 	0.1801	0.3834	0.3179	0.195
Mof_C 	C 	0.28943	0.5736	0.1422	0.164
Mof_C 	C 	0.0768	0.6399	0.9296	-0.708
Mof_H 	H 	0.0548	0.6233	0.8848	0.201
Mof_H 	H 	0.0651	0.6777	0.9327	0.209
Mof_H 	H 	0.115	0.6394	0.9293	0.224
Mof_C 	C 	0.3355	0.4836	0.1349	-0.795
Mof_H 	H 	0.3557	0.4871	0.1861	0.245
Mof_H 	H 	0.3015	0.4641	0.1316	0.228
Mof_H 	H 	0.3573	0.4633	0.1085	0.23
Mof_C 	C 	0.3734	0.7569	0.3523	-0.747
Mof_H 	H 	0.3504	0.7891	0.3386	0.208
Mof_H 	H 	0.3583	0.7333	0.3836	0.225
Mof_H 	H 	0.4101	0.7682	0.3787	0.211
Mof_C 	C 	0.0974	0.4426	0.245	-0.679
Mof_H 	H 	0.0872	0.4567	0.2876	0.203
Mof_H 	H 	0.0766	0.4615	0.2013	0.208
Mof_H 	H 	0.0896	0.4035	0.2401	0.19
Mof_C 	C 	0.1565	0.5963	0.4787	-0.823
Mof_H 	H 	0.126	0.5918	0.4355	0.258
Mof_H 	H 	0.1771	0.5622	0.4886	0.237
Mof_H 	H 	0.1428	0.6056	0.5206	0.232
Mof_C 	C 	0.1403	0.8064	0.2277	0.484
Mof_C 	C 	0.3758	0.5698	0.1097	-0.804
Mof_H 	H 	0.3944	0.5738	0.1614	0.243
Mof_H 	H 	0.3989	0.5494	0.0853	0.245
Mof_H 	H 	0.3682	0.6059	0.0874	0.244
Mof_C 	C 	0.246	0.6358	0.5192	-1.009
Mof_H 	H 	0.2719	0.6633	0.5122	0.291
Mof_H 	H 	0.2405	0.6396	0.5679	0.287
Mof_H 	H 	0.2601	0.5994	0.5139	0.3
Mof_C 	C 	0.0812	0.8191	0.1995	-0.761
Mof_H 	H 	0.0598	0.7884	0.2096	0.235
Mof_H 	H 	0.0725	0.8518	0.2236	0.222
Mof_H 	H 	0.0726	0.8253	0.1469	0.226
Mof_C 	C 	0.1436	0.8048	0.309	-0.735
Mof_H 	H 	0.1091	0.7916	0.3158	0.221
Mof_H 	H 	0.1728	0.7802	0.3336	0.215
Mof_H 	H 	0.1509	0.8414	0.3295	0.208
Mof_C 	C 	0.2948	0.535	0.0233	-0.84
Mof_H 	H 	0.3127	0.5072	0.0008	0.257
Mof_H 	H 	0.257	0.5246	0.0178	0.248
Mof_H 	H 	0.2961	0.5701	0.9996	0.263
Mof_C 	C 	0.3854	0.765	0.2275	-0.684
Mof_H 	H 	0.3833	0.7439	0.1832	0.212
Mof_H 	H 	0.3578	0.7936	0.2172	0.204
Mof_H 	H 	0.4214	0.7816	0.2443	0.191
Mof_C 	C 	0.1766	0.4303	0.1903	-0.664
Mof_H 	H 	0.2158	0.4358	0.2	0.198
Mof_H 	H 	0.1684	0.3914	0.184	0.182
Mof_H 	H 	0.1581	0.4499	0.1459	0.192
Mof_C 	C 	0.0867	0.5491	0.9846	-0.661
Mof_H 	H 	0.0732	0.5254	0.0174	0.195
Mof_H 	H 	0.0713	0.5375	0.9342	0.191
Mof_H 	H 	0.1263	0.5467	0.9965	0.198
Mof_C 	C 	0.0124	0.6107	0.9993	-0.684
Mof_H 	H 	0.0095	0.5909	0.0428	0.214
Mof_H 	H 	0.0017	0.6488	0.0027	0.199
Mof_H 	H 	0.9884	0.5939	0.956	0.193
Mof_C 	C 	0.1744	0.8481	0.2066	-0.825
Mof_H 	H 	0.2125	0.8412	0.2315	0.245
Mof_H 	H 	0.1695	0.8469	0.1538	0.254
Mof_H 	H 	0.164	0.8842	0.2204	0.241
Mof_C 	C 	0.1655	0.6924	0.4662	-1.055
Mof_H 	H 	0.1375	0.6965	0.4201	0.324
Mof_H 	H 	0.1485	0.6926	0.5067	0.302
Mof_H 	H 	0.1912	0.7226	0.4719	0.296
Mof_N 	N 	0.05206	0.62645	0.24158	-0.181
Mof_N 	N 	0.32843	0.55265	0.361	-0.213
Mof_C 	C 	0.42697	0.5088	0.4404	0.087
Mof_N 	N 	0.23728	0.72019	0.0545	-0.186
Mof_O 	O 	0.15401	0.63715	0.33922	-0.384
Mof_O 	O 	0.13333	0.5462	0.24066	-0.388
Mof_O 	O 	0.24216	0.61954	0.37697	-0.374
Mof_O 	O 	0.09524	0.61803	0.12246	-0.396
Mof_O 	O 	0.22044	0.52384	0.28356	-0.392
Mof_O 	O 	0.31671	0.65638	0.3009	-0.393
Mof_O 	O 	0.1834	0.74188	0.16564	-0.387
Mof_O 	O 	0.12283	0.71149	0.22135	-0.389
Mof_O 	O 	0.29272	0.70576	0.20037	-0.385
Mof_O 	O 	0.26206	0.61235	0.10748	-0.383
Mof_O 	O 	0.20584	0.63146	0.21938	-0.679
Mof_O 	O 	0.1527	0.64882	0.06212	-0.392
Mof_O 	O 	0.29485	0.56241	0.20741	-0.384
Mof_C 	C 	0.69699	0.13305	0.3868	0.12
Mof_C 	C 	0.5159	0.091	0.207	0.025
Mof_C 	C 	0.53798	0.16255	0.28722	0.008
Mof_H 	H 	0.5241	0.0541	0.1839	-0.003
Mof_H 	H 	0.5638	0.1895	0.313	-0
Mof_C 	C 	0.46311	0.09091	0.21459	-0.026
Mof_C 	C 	0.48494	0.16247	0.29489	-0.016
Mof_H 	H 	0.4401	0.0599	0.1986	0.021
Mof_H 	H 	0.476	0.18	0.3374	0.022
Mof_C 	C 	0.64996	0.24818	0.20217	0.176
Mof_C 	C 	0.85887	0.07908	0.41794	0.064
Mof_H 	H 	0.8463	0.113	0.4311	-0.012
Mof_C 	C 	0.6573	0.95194	0.2543	0.383
Mof_C 	C 	0.60872	0.12732	0.065	0.196
Mof_C 	C 	0.67112	0.01172	0.2601	0.195
Mof_C 	C 	0.75342	0.2719	0.0646	-0.001
Mof_H 	H 	0.7562	0.2885	0.1105	0.014
Mof_C 	C 	0.82424	0.19378	0.2601	0.195
Mof_C 	C 	0.8756	0.227	0.287	0.42
Mof_C 	C 	0.90847	0.0592	0.4593	-0.165
Mof_H 	H 	0.9294	0.0793	0.4996	0.057
Mof_C 	C 	0.98001	0.9865	0.4791	-0.095
Mof_H 	H 	0.9856	0.9488	0.473	0.039
Mof_C 	C 	0.73384	0.1982	0.9896	-0.003
Mof_H 	H 	0.7225	0.1615	0.9807	0.012
Mof_C 	C 	0.6946	0.1434	0.465	0.663
Mof_C 	C 	0.89375	0.9807	0.384	-0.17
Mof_H 	H 	0.9039	0.9455	0.3715	0.056
Mof_C 	C 	0.8232	0.0395	0.1019	0.51
Mof_C 	C 	0.5698	0.1086	0.9938	0.412
Mof_C 	C 	0.8454	0.00349	0.3455	0.07
Mof_H 	H 	0.8231	0.9835	0.3062	-0.018
Mof_C 	C 	0.9236	0.187	0.3036	-0.696
Mof_H 	H 	0.9215	0.1639	0.2611	0.21
Mof_H 	H 	0.9577	0.2075	0.3151	0.199
Mof_H 	H 	0.9222	0.1643	0.3453	0.222
Mof_C 	C 	0.6887	0.9223	0.3225	-0.674
Mof_H 	H 	0.7277	0.9274	0.3286	0.212
Mof_H 	H 	0.6787	0.9371	0.3649	0.202
Mof_H 	H 	0.6801	0.8834	0.3179	0.195
Mof_C 	C 	0.78943	0.0736	0.1422	0.165
Mof_C 	C 	0.5768	0.1399	0.9296	-0.718
Mof_H 	H 	0.5548	0.1233	0.8848	0.203
Mof_H 	H 	0.5651	0.1777	0.9327	0.211
Mof_H 	H 	0.615	0.1394	0.9293	0.226
Mof_C 	C 	0.8355	0.9836	0.1349	-0.793
Mof_H 	H 	0.8557	0.9871	0.1861	0.245
Mof_H 	H 	0.8015	0.9641	0.1316	0.228
Mof_H 	H 	0.8573	0.9633	0.1085	0.23
Mof_C 	C 	0.8734	0.2569	0.3523	-0.748
Mof_H 	H 	0.8504	0.2891	0.3386	0.208
Mof_H 	H 	0.8583	0.2333	0.3836	0.225
Mof_H 	H 	0.9101	0.2682	0.3787	0.211
Mof_C 	C 	0.5974	0.9426	0.245	-0.679
Mof_H 	H 	0.5872	0.9567	0.2876	0.203
Mof_H 	H 	0.5766	0.9615	0.2013	0.208
Mof_H 	H 	0.5896	0.9035	0.2401	0.19
Mof_C 	C 	0.6565	0.0963	0.4787	-0.823
Mof_H 	H 	0.626	0.0918	0.4355	0.258
Mof_H 	H 	0.6771	0.0622	0.4886	0.237
Mof_H 	H 	0.6428	0.1056	0.5206	0.232
Mof_C 	C 	0.6403	0.3064	0.2277	0.484
Mof_C 	C 	0.8758	0.0698	0.1097	-0.803
Mof_H 	H 	0.8944	0.0738	0.1614	0.242
Mof_H 	H 	0.8989	0.0494	0.0853	0.245
Mof_H 	H 	0.8682	0.1059	0.0874	0.245
Mof_C 	C 	0.746	0.1358	0.5192	-1.009
Mof_H 	H 	0.7719	0.1633	0.5122	0.291
Mof_H 	H 	0.7405	0.1396	0.5679	0.287
Mof_H 	H 	0.7601	0.0994	0.5139	0.3
Mof_C 	C 	0.5812	0.3191	0.1995	-0.762
Mof_H 	H 	0.5598	0.2884	0.2096	0.235
Mof_H 	H 	0.5725	0.3518	0.2236	0.222
Mof_H 	H 	0.5726	0.3253	0.1469	0.227
Mof_C 	C 	0.6436	0.3048	0.309	-0.735
Mof_H 	H 	0.6091	0.2916	0.3158	0.221
Mof_H 	H 	0.6728	0.2802	0.3336	0.215
Mof_H 	H 	0.6509	0.3414	0.3295	0.208
Mof_C 	C 	0.7948	0.035	0.0233	-0.832
Mof_H 	H 	0.8127	0.0072	0.0008	0.255
Mof_H 	H 	0.757	0.0246	0.0178	0.246
Mof_H 	H 	0.7961	0.0701	0.9996	0.26
Mof_C 	C 	0.8854	0.265	0.2275	-0.685
Mof_H 	H 	0.8833	0.2439	0.1832	0.213
Mof_H 	H 	0.8578	0.2936	0.2172	0.204
Mof_H 	H 	0.9214	0.2816	0.2443	0.192
Mof_C 	C 	0.6766	0.9303	0.1903	-0.664
Mof_H 	H 	0.7158	0.9358	0.2	0.198
Mof_H 	H 	0.6684	0.8914	0.184	0.182
Mof_H 	H 	0.6581	0.9499	0.1459	0.192
Mof_C 	C 	0.5867	0.0491	0.9846	-0.675
Mof_H 	H 	0.5732	0.0254	0.0174	0.2
Mof_H 	H 	0.5713	0.0375	0.9342	0.194
Mof_H 	H 	0.6263	0.0467	0.9965	0.202
Mof_C 	C 	0.5124	0.1107	0.9993	-0.713
Mof_H 	H 	0.5095	0.0909	0.0428	0.224
Mof_H 	H 	0.5017	0.1488	0.0027	0.208
Mof_H 	H 	0.4884	0.0939	0.956	0.202
Mof_C 	C 	0.6744	0.3481	0.2066	-0.825
Mof_H 	H 	0.7125	0.3412	0.2315	0.245
Mof_H 	H 	0.6695	0.3469	0.1538	0.254
Mof_H 	H 	0.664	0.3842	0.2204	0.241
Mof_C 	C 	0.6655	0.1924	0.4662	-1.056
Mof_H 	H 	0.6375	0.1965	0.4201	0.324
Mof_H 	H 	0.6485	0.1926	0.5067	0.302
Mof_H 	H 	0.6912	0.2226	0.4719	0.296
Mof_N 	N 	0.55206	0.12645	0.24158	-0.182
Mof_N 	N 	0.82843	0.05265	0.361	-0.213
Mof_C 	C 	0.92697	0.0088	0.4404	0.087
Mof_N 	N 	0.73728	0.22019	0.0545	-0.184
Mof_O 	O 	0.65401	0.13715	0.33922	-0.384
Mof_O 	O 	0.63333	0.0462	0.24066	-0.388
Mof_O 	O 	0.74216	0.11954	0.37697	-0.374
Mof_O 	O 	0.59524	0.11803	0.12246	-0.395
Mof_O 	O 	0.72044	0.02384	0.28356	-0.392
Mof_O 	O 	0.81671	0.15638	0.3009	-0.393
Mof_O 	O 	0.6834	0.24188	0.16564	-0.386
Mof_O 	O 	0.62283	0.21149	0.22135	-0.389
Mof_O 	O 	0.79272	0.20576	0.20037	-0.385
Mof_O 	O 	0.76206	0.11235	0.10748	-0.383
Mof_O 	O 	0.70584	0.13146	0.21938	-0.679
Mof_O 	O 	0.6527	0.14882	0.06212	-0.391
Mof_O 	O 	0.79485	0.06241	0.20741	-0.384
_end
