data_functionalizedCrystal
_audit_creation_method	'EQeq! by Chris Wilmer'
_symmetry_space_group_name_H-M	'P1'
_symmetry_Int_Tables_number	1
_symmetry_cell_setting	triclinic
loop_
_symmetry_equiv_pos_as_xyz
  x,y,z
_cell_length_a	27.1653
_cell_length_b	27.1653
_cell_length_c	37.9051
_cell_angle_alpha	90
_cell_angle_beta	90
_cell_angle_gamma	90
loop_
_atom_site_label
_atom_site_type_symbol
_atom_site_fract_x
_atom_site_fract_y
_atom_site_fract_z
_atom_site_charge
Mof_Rb	Rb	0.75769	0.29044	0.99755	3.933
Mof_Rb	Rb	0.53238	0.98887	0.75087	3.92
Mof_Rb	Rb	0.24231	0.70956	0.49755	3.904
Mof_Rb	Rb	0.46762	0.01113	0.25087	3.92
Mof_Rb	Rb	0.20956	0.25769	0.24755	3.904
Mof_Rb	Rb	0.51113	0.03238	0.00087	3.9
Mof_Rb	Rb	0.79044	0.74231	0.74755	3.904
Mof_Rb	Rb	0.48887	0.96762	0.50087	3.92
Mof_Rb	Rb	0.74231	0.79044	0.25245	3.904
Mof_Rb	Rb	0.96762	0.48887	0.49913	3.92
Mof_Rb	Rb	0.25769	0.20956	0.75245	3.904
Mof_Rb	Rb	0.03238	0.51113	0.99913	3.945
Mof_Rb	Rb	0.29044	0.75769	0.00245	3.881
Mof_Rb	Rb	0.98887	0.53238	0.24913	3.92
Mof_Rb	Rb	0.70956	0.24231	0.50245	3.904
Mof_Rb	Rb	0.01113	0.46762	0.74913	3.92
Mof_Rb	Rb	0.40217	0.40217	-0	2.802
Mof_Rb	Rb	0.59783	0.59783	0.5	2.817
Mof_Rb	Rb	0.09783	0.90217	0.25	2.817
Mof_Rb	Rb	0.90217	0.09783	0.75	2.817
Mof_H 	H 	0.9831	0.7001	0.1053	0.148
Mof_H 	H 	0.6873	0.0675	0.8641	0.148
Mof_H 	H 	0.805	0.371	0.0373	-0.016
Mof_H 	H 	0.6878	0.3935	0.0271	0.245
Mof_H 	H 	0.7384	0.6238	0.9551	0.138
Mof_H 	H 	0.6078	0.3792	0.0311	0.18
Mof_H 	H 	0.5845	0.4596	0.131	0.178
Mof_H 	H 	0.5376	0.6068	0.024	0.172
Mof_H 	H 	0.5472	0.4927	0.1929	0.185
Mof_H 	H 	0.6701	0.573	0.2339	0.179
Mof_H 	H 	0.6005	0.7502	0.1609	0.127
Mof_H 	H 	0.6944	0.6164	0.2799	0.177
Mof_H 	H 	0.8504	0.6019	0.2397	0.178
Mof_H 	H 	0.9191	0.6122	0.2448	0.104
Mof_H 	H 	0.9532	0.5105	0.1523	0.222
Mof_H 	H 	0.8759	0.4068	0.048	0.161
Mof_H 	H 	0.957	0.5783	0.9663	0.057
Mof_H 	H 	0.4622	0.0159	0.8769	0.168
Mof_H 	H 	0.3865	0.124	0.8028	0.169
Mof_H 	H 	0.5494	0.099	0.7021	0.16
Mof_H 	H 	0.5008	0.0696	0.9064	0.213
Mof_H 	H 	0.5545	0.3592	0.9964	0.061
Mof_H 	H 	0.5756	0.2041	0.99	0.164
Mof_H 	H 	0.7615	0.2715	0.9243	-0.029
Mof_H 	H 	0.4209	0.4299	0.9099	0.167
Mof_H 	H 	0.5313	0.376	0.9884	0.167
Mof_H 	H 	0.6254	0.4946	0.9232	0.182
Mof_H 	H 	0.3426	0.331	0.7984	0.018
Mof_H 	H 	0.3994	0.4204	0.8907	0.061
Mof_H 	H 	0.3424	0.1463	0.7592	0.085
Mof_H 	H 	0.3425	0.3049	0.7918	0.219
Mof_H 	H 	0.5727	0.3014	0.7118	0.132
Mof_H 	H 	0.8563	0.4607	0.9794	-0.017
Mof_H 	H 	0.7895	0.4057	0.9761	-0.052
Mof_H 	H 	0.7564	0.4372	0.0422	-0.002
Mof_H 	H 	0.703	0.463	0.9798	0.048
Mof_H 	H 	0.7627	0.5327	0.0189	0.045
Mof_H 	H 	0.6954	0.5656	0.9817	0.041
Mof_H 	H 	0.7241	0.5444	0.9481	0.05
Mof_H 	H 	0.631	0.4685	0.9967	0.004
Mof_H 	H 	0.575	0.4438	0.0417	0.012
Mof_H 	H 	0.6496	0.4687	0.0907	0.054
Mof_H 	H 	0.5601	0.5258	0.0827	0.053
Mof_H 	H 	0.6582	0.5549	0.0602	0.042
Mof_H 	H 	0.6124	0.6221	0.0326	0.032
Mof_H 	H 	0.6062	0.6237	0.0745	0.046
Mof_H 	H 	0.5441	0.5572	0.1307	0.022
Mof_H 	H 	0.5614	0.5678	0.1923	0.055
Mof_H 	H 	0.66	0.5474	0.1731	0.056
Mof_H 	H 	0.6224	0.6379	0.1998	0.042
Mof_H 	H 	0.6561	0.6193	0.1289	0.042
Mof_H 	H 	0.6248	0.699	0.117	0.029
Mof_H 	H 	0.666	0.7023	0.147	0.018
Mof_H 	H 	0.6736	0.678	0.2258	-0.068
Mof_H 	H 	0.7466	0.6695	0.2607	-0.088
Mof_H 	H 	0.7759	0.5968	0.2082	0.045
Mof_H 	H 	0.8248	0.6886	0.2186	-0.02
Mof_H 	H 	0.7585	0.67	0.16	0.032
Mof_H 	H 	0.7655	0.757	0.1494	-0.016
Mof_H 	H 	0.8183	0.7309	0.1463	0.039
Mof_H 	H 	0.8957	0.681	0.2026	0.003
Mof_H 	H 	0.9587	0.6208	0.1966	-0.102
Mof_H 	H 	0.8846	0.5618	0.163	0.027
Mof_H 	H 	0.9698	0.6011	0.1294	0.028
Mof_H 	H 	0.8705	0.6372	0.1187	0.041
Mof_H 	H 	0.9045	0.6976	0.0829	0.043
Mof_H 	H 	0.9145	0.6436	0.0677	0.046
Mof_H 	H 	0.9911	0.5521	0.0891	-0.062
Mof_H 	H 	0.9798	0.4694	0.0666	-0.118
Mof_H 	H 	0.8776	0.478	0.0849	0.051
Mof_H 	H 	0.9101	0.4777	0.0124	-0.069
Mof_H 	H 	0.88	0.5663	0.0487	0.051
Mof_H 	H 	0.9042	0.6098	0.999	-0.009
Mof_H 	H 	0.8657	0.568	0.9871	0.03
Mof_H 	H 	0.5475	0.0364	0.8448	-0.053
Mof_H 	H 	0.4671	0.031	0.8204	-0.067
Mof_H 	H 	0.4591	0.1335	0.8391	0.044
Mof_H 	H 	0.4603	0.1006	0.7671	-0.039
Mof_H 	H 	0.543	0.1481	0.8018	0.051
Mof_H 	H 	0.5883	0.1256	0.7506	-0.062
Mof_H 	H 	0.5436	0.1613	0.7405	0.012
Mof_H 	H 	0.6545	0.1622	0.9558	-0.016
Mof_H 	H 	0.6052	0.0928	0.9524	-0.021
Mof_H 	H 	0.534	0.1469	0.9136	-0.015
Mof_H 	H 	0.5947	0.0699	0.8831	0.042
Mof_H 	H 	0.6064	0.1721	0.8709	0.038
Mof_H 	H 	0.682	0.1451	0.8426	0.003
Mof_H 	H 	0.6331	0.1308	0.8215	0.011
Mof_H 	H 	0.6415	0.3832	0.9667	-0.033
Mof_H 	H 	0.6442	0.311	0.0025	-0.125
Mof_H 	H 	0.5645	0.2767	0.9587	0.023
Mof_H 	H 	0.6615	0.2359	0.9624	-0.102
Mof_H 	H 	0.6252	0.2918	0.9046	0.051
Mof_H 	H 	0.7097	0.2873	0.8858	-0.023
Mof_H 	H 	0.6861	0.2335	0.8882	0.008
Mof_H 	H 	0.4785	0.489	0.8839	0.004
Mof_H 	H 	0.494	0.474	0.9458	0.006
Mof_H 	H 	0.501	0.3723	0.9289	-0.027
Mof_H 	H 	0.5843	0.4287	0.9505	0.04
Mof_H 	H 	0.5678	0.3989	0.8782	0.035
Mof_H 	H 	0.6322	0.455	0.8649	0.052
Mof_H 	H 	0.6497	0.4082	0.8871	0.043
Mof_H 	H 	0.3963	0.3726	0.757	0.003
Mof_H 	H 	0.3684	0.4261	0.8028	0.065
Mof_H 	H 	0.4168	0.3596	0.8497	0.014
Mof_H 	H 	0.4418	0.4619	0.8389	0.056
Mof_H 	H 	0.5021	0.3829	0.8108	0.029
Mof_H 	H 	0.545	0.4411	0.78	0.063
Mof_H 	H 	0.5391	0.4635	0.8189	0.064
Mof_H 	H 	0.4337	0.1555	0.7353	-0.003
Mof_H 	H 	0.3671	0.2102	0.7348	-0.123
Mof_H 	H 	0.398	0.2439	0.8031	0.004
Mof_H 	H 	0.4082	0.3039	0.7409	0.034
Mof_H 	H 	0.4902	0.2562	0.7744	0.049
Mof_H 	H 	0.5069	0.3314	0.741	0.046
Mof_H 	H 	0.4899	0.3025	0.7063	0.056
Mof_H 	H 	0.0169	0.2999	0.6053	0.149
Mof_H 	H 	0.3127	0.9325	0.3641	0.149
Mof_H 	H 	0.195	0.629	0.5373	-0.015
Mof_H 	H 	0.3122	0.6065	0.5271	0.244
Mof_H 	H 	0.2616	0.3762	0.4551	0.138
Mof_H 	H 	0.3922	0.6208	0.5311	0.18
Mof_H 	H 	0.4155	0.5404	0.631	0.178
Mof_H 	H 	0.4624	0.3932	0.524	0.173
Mof_H 	H 	0.4528	0.5073	0.6929	0.185
Mof_H 	H 	0.3299	0.427	0.7339	0.179
Mof_H 	H 	0.3995	0.2498	0.6609	0.127
Mof_H 	H 	0.3056	0.3836	0.7799	0.177
Mof_H 	H 	0.1496	0.3981	0.7397	0.178
Mof_H 	H 	0.0809	0.3878	0.7448	0.104
Mof_H 	H 	0.0468	0.4895	0.6523	0.222
Mof_H 	H 	0.1241	0.5932	0.548	0.161
Mof_H 	H 	0.043	0.4217	0.4663	0.056
Mof_H 	H 	0.5378	0.9841	0.3769	0.168
Mof_H 	H 	0.6135	0.876	0.3028	0.169
Mof_H 	H 	0.4506	0.901	0.2021	0.16
Mof_H 	H 	0.4992	0.9304	0.4064	0.213
Mof_H 	H 	0.4455	0.6408	0.4964	0.053
Mof_H 	H 	0.4244	0.7959	0.49	0.164
Mof_H 	H 	0.2385	0.7285	0.4243	-0.028
Mof_H 	H 	0.5791	0.5701	0.4099	0.167
Mof_H 	H 	0.4687	0.624	0.4884	0.17
Mof_H 	H 	0.3746	0.5054	0.4232	0.182
Mof_H 	H 	0.6574	0.669	0.2984	0.018
Mof_H 	H 	0.6006	0.5796	0.3907	0.061
Mof_H 	H 	0.6576	0.8537	0.2592	0.085
Mof_H 	H 	0.6575	0.6951	0.2918	0.219
Mof_H 	H 	0.4273	0.6986	0.2118	0.132
Mof_H 	H 	0.1437	0.5393	0.4794	-0.017
Mof_H 	H 	0.2105	0.5943	0.4761	-0.049
Mof_H 	H 	0.2436	0.5628	0.5422	-0.002
Mof_H 	H 	0.297	0.537	0.4798	0.041
Mof_H 	H 	0.2373	0.4673	0.5189	0.053
Mof_H 	H 	0.3046	0.4344	0.4817	0.038
Mof_H 	H 	0.2759	0.4556	0.4481	0.048
Mof_H 	H 	0.369	0.5315	0.4967	-0.002
Mof_H 	H 	0.425	0.5562	0.5417	0.014
Mof_H 	H 	0.3504	0.5313	0.5907	0.054
Mof_H 	H 	0.4399	0.4742	0.5827	0.053
Mof_H 	H 	0.3418	0.4451	0.5602	0.042
Mof_H 	H 	0.3876	0.3779	0.5326	0.033
Mof_H 	H 	0.3938	0.3763	0.5745	0.046
Mof_H 	H 	0.4559	0.4428	0.6307	0.022
Mof_H 	H 	0.4386	0.4322	0.6923	0.055
Mof_H 	H 	0.34	0.4526	0.6731	0.056
Mof_H 	H 	0.3776	0.3621	0.6998	0.042
Mof_H 	H 	0.3439	0.3807	0.6289	0.042
Mof_H 	H 	0.3752	0.301	0.617	0.029
Mof_H 	H 	0.334	0.2977	0.647	0.019
Mof_H 	H 	0.3264	0.322	0.7258	-0.068
Mof_H 	H 	0.2534	0.3305	0.7607	-0.088
Mof_H 	H 	0.2241	0.4032	0.7082	0.045
Mof_H 	H 	0.1752	0.3114	0.7186	-0.02
Mof_H 	H 	0.2415	0.33	0.66	0.032
Mof_H 	H 	0.2345	0.243	0.6494	-0.016
Mof_H 	H 	0.1817	0.2691	0.6463	0.039
Mof_H 	H 	0.1043	0.319	0.7026	0.003
Mof_H 	H 	0.0413	0.3792	0.6966	-0.102
Mof_H 	H 	0.1154	0.4382	0.663	0.027
Mof_H 	H 	0.0302	0.3989	0.6294	0.028
Mof_H 	H 	0.1295	0.3628	0.6187	0.041
Mof_H 	H 	0.0955	0.3024	0.5829	0.044
Mof_H 	H 	0.0855	0.3564	0.5677	0.047
Mof_H 	H 	0.0089	0.4479	0.5891	-0.061
Mof_H 	H 	0.0202	0.5306	0.5666	-0.117
Mof_H 	H 	0.1224	0.522	0.5849	0.051
Mof_H 	H 	0.0899	0.5223	0.5124	-0.065
Mof_H 	H 	0.12	0.4337	0.5487	0.049
Mof_H 	H 	0.0958	0.3902	0.499	-0.008
Mof_H 	H 	0.1343	0.432	0.4871	0.031
Mof_H 	H 	0.4525	0.9636	0.3448	-0.053
Mof_H 	H 	0.5329	0.969	0.3204	-0.067
Mof_H 	H 	0.5409	0.8665	0.3391	0.044
Mof_H 	H 	0.5397	0.8994	0.2671	-0.039
Mof_H 	H 	0.457	0.8519	0.3018	0.051
Mof_H 	H 	0.4117	0.8744	0.2506	-0.062
Mof_H 	H 	0.4564	0.8387	0.2405	0.012
Mof_H 	H 	0.3455	0.8378	0.4558	-0.016
Mof_H 	H 	0.3948	0.9072	0.4524	-0.022
Mof_H 	H 	0.466	0.8531	0.4136	-0.015
Mof_H 	H 	0.4053	0.9301	0.3831	0.042
Mof_H 	H 	0.3936	0.8279	0.3709	0.038
Mof_H 	H 	0.318	0.8549	0.3426	0.003
Mof_H 	H 	0.3669	0.8692	0.3215	0.011
Mof_H 	H 	0.3585	0.6168	0.4667	-0.035
Mof_H 	H 	0.3558	0.689	0.5025	-0.116
Mof_H 	H 	0.4355	0.7233	0.4587	0.021
Mof_H 	H 	0.3385	0.7641	0.4624	-0.101
Mof_H 	H 	0.3748	0.7082	0.4046	0.05
Mof_H 	H 	0.2903	0.7127	0.3858	-0.022
Mof_H 	H 	0.3139	0.7665	0.3882	0.009
Mof_H 	H 	0.5215	0.511	0.3839	0.004
Mof_H 	H 	0.506	0.526	0.4458	0.006
Mof_H 	H 	0.499	0.6277	0.4289	-0.028
Mof_H 	H 	0.4157	0.5713	0.4505	0.04
Mof_H 	H 	0.4322	0.6011	0.3782	0.035
Mof_H 	H 	0.3678	0.545	0.3649	0.052
Mof_H 	H 	0.3503	0.5918	0.3871	0.043
Mof_H 	H 	0.6037	0.6274	0.257	0.003
Mof_H 	H 	0.6316	0.5739	0.3028	0.065
Mof_H 	H 	0.5832	0.6404	0.3497	0.014
Mof_H 	H 	0.5582	0.5381	0.3389	0.056
Mof_H 	H 	0.4979	0.6171	0.3108	0.029
Mof_H 	H 	0.455	0.5589	0.28	0.063
Mof_H 	H 	0.4609	0.5365	0.3189	0.064
Mof_H 	H 	0.5663	0.8445	0.2353	-0.003
Mof_H 	H 	0.6329	0.7898	0.2348	-0.123
Mof_H 	H 	0.602	0.7561	0.3031	0.004
Mof_H 	H 	0.5918	0.6961	0.2409	0.034
Mof_H 	H 	0.5098	0.7438	0.2744	0.049
Mof_H 	H 	0.4931	0.6686	0.241	0.046
Mof_H 	H 	0.5101	0.6975	0.2063	0.056
Mof_H 	H 	0.7999	0.4831	0.3553	0.149
Mof_H 	H 	0.4325	0.1873	0.1141	0.149
Mof_H 	H 	0.129	0.305	0.2873	-0.015
Mof_H 	H 	0.1065	0.1878	0.2771	0.244
Mof_H 	H 	0.8762	0.2384	0.2051	0.138
Mof_H 	H 	0.1208	0.1078	0.2811	0.18
Mof_H 	H 	0.0404	0.0845	0.381	0.178
Mof_H 	H 	0.8932	0.0376	0.274	0.173
Mof_H 	H 	0.0073	0.0472	0.4429	0.185
Mof_H 	H 	0.927	0.1701	0.4839	0.179
Mof_H 	H 	0.7498	0.1005	0.4109	0.127
Mof_H 	H 	0.8836	0.1944	0.5299	0.177
Mof_H 	H 	0.8981	0.3504	0.4897	0.178
Mof_H 	H 	0.8878	0.4191	0.4948	0.104
Mof_H 	H 	0.9895	0.4532	0.4023	0.222
Mof_H 	H 	0.0932	0.3759	0.298	0.161
Mof_H 	H 	0.9217	0.457	0.2163	0.056
Mof_H 	H 	0.4841	0.9622	0.1269	0.168
Mof_H 	H 	0.376	0.8865	0.0528	0.169
Mof_H 	H 	0.401	0.0494	0.9521	0.162
Mof_H 	H 	0.4304	0.0008	0.1564	0.213
Mof_H 	H 	0.1408	0.0545	0.2464	0.054
Mof_H 	H 	0.2959	0.0756	0.24	0.164
Mof_H 	H 	0.2285	0.2615	0.1743	-0.028
Mof_H 	H 	0.0701	0.9209	0.1599	0.167
Mof_H 	H 	0.124	0.0313	0.2384	0.17
Mof_H 	H 	0.0054	0.1254	0.1732	0.182
Mof_H 	H 	0.169	0.8426	0.0484	0.018
Mof_H 	H 	0.0796	0.8994	0.1407	0.061
Mof_H 	H 	0.3537	0.8424	0.0092	0.083
Mof_H 	H 	0.1951	0.8425	0.0418	0.219
Mof_H 	H 	0.1986	0.0727	0.9618	0.133
Mof_H 	H 	0.0393	0.3563	0.2294	-0.017
Mof_H 	H 	0.0943	0.2895	0.2261	-0.049
Mof_H 	H 	0.0628	0.2564	0.2922	-0.002
Mof_H 	H 	0.037	0.203	0.2298	0.041
Mof_H 	H 	0.9673	0.2627	0.2689	0.053
Mof_H 	H 	0.9344	0.1954	0.2317	0.038
Mof_H 	H 	0.9556	0.2241	0.1981	0.047
Mof_H 	H 	0.0315	0.131	0.2467	-0.002
Mof_H 	H 	0.0562	0.075	0.2917	0.014
Mof_H 	H 	0.0313	0.1496	0.3407	0.054
Mof_H 	H 	0.9742	0.0601	0.3327	0.053
Mof_H 	H 	0.9451	0.1582	0.3102	0.042
Mof_H 	H 	0.8779	0.1124	0.2826	0.033
Mof_H 	H 	0.8763	0.1062	0.3245	0.046
Mof_H 	H 	0.9428	0.0441	0.3807	0.021
Mof_H 	H 	0.9322	0.0614	0.4423	0.055
Mof_H 	H 	0.9526	0.16	0.4231	0.056
Mof_H 	H 	0.8621	0.1224	0.4498	0.042
Mof_H 	H 	0.8807	0.1561	0.3789	0.042
Mof_H 	H 	0.801	0.1248	0.367	0.029
Mof_H 	H 	0.7977	0.166	0.397	0.019
Mof_H 	H 	0.822	0.1736	0.4758	-0.068
Mof_H 	H 	0.8305	0.2466	0.5107	-0.088
Mof_H 	H 	0.9032	0.2759	0.4582	0.045
Mof_H 	H 	0.8114	0.3248	0.4686	-0.02
Mof_H 	H 	0.83	0.2585	0.41	0.032
Mof_H 	H 	0.743	0.2655	0.3994	-0.016
Mof_H 	H 	0.7691	0.3183	0.3963	0.039
Mof_H 	H 	0.819	0.3957	0.4526	0.003
Mof_H 	H 	0.8792	0.4587	0.4466	-0.102
Mof_H 	H 	0.9382	0.3846	0.413	0.027
Mof_H 	H 	0.8989	0.4698	0.3794	0.028
Mof_H 	H 	0.8628	0.3705	0.3687	0.041
Mof_H 	H 	0.8024	0.4045	0.3329	0.044
Mof_H 	H 	0.8564	0.4145	0.3177	0.047
Mof_H 	H 	0.9479	0.4911	0.3391	-0.061
Mof_H 	H 	0.0306	0.4798	0.3166	-0.117
Mof_H 	H 	0.022	0.3776	0.3349	0.051
Mof_H 	H 	0.0223	0.4101	0.2624	-0.065
Mof_H 	H 	0.9337	0.38	0.2987	0.049
Mof_H 	H 	0.8902	0.4042	0.249	-0.008
Mof_H 	H 	0.932	0.3657	0.2371	0.031
Mof_H 	H 	0.4636	0.0475	0.0948	-0.053
Mof_H 	H 	0.469	0.9671	0.0704	-0.067
Mof_H 	H 	0.3665	0.9591	0.0891	0.044
Mof_H 	H 	0.3994	0.9603	0.0171	-0.041
Mof_H 	H 	0.3519	0.043	0.0518	0.054
Mof_H 	H 	0.3744	0.0883	0.0006	-0.07
Mof_H 	H 	0.3387	0.0436	0.9905	0.008
Mof_H 	H 	0.3378	0.1545	0.2058	-0.016
Mof_H 	H 	0.4072	0.1052	0.2024	-0.022
Mof_H 	H 	0.3531	0.034	0.1636	-0.015
Mof_H 	H 	0.4301	0.0947	0.1331	0.042
Mof_H 	H 	0.3279	0.1064	0.1209	0.038
Mof_H 	H 	0.3549	0.182	0.0926	0.003
Mof_H 	H 	0.3692	0.1331	0.0715	0.011
Mof_H 	H 	0.1168	0.1415	0.2167	-0.035
Mof_H 	H 	0.189	0.1442	0.2525	-0.116
Mof_H 	H 	0.2233	0.0645	0.2087	0.021
Mof_H 	H 	0.2641	0.1615	0.2124	-0.101
Mof_H 	H 	0.2082	0.1252	0.1546	0.05
Mof_H 	H 	0.2127	0.2097	0.1358	-0.023
Mof_H 	H 	0.2665	0.1861	0.1382	0.009
Mof_H 	H 	0.011	0.9785	0.1339	0.004
Mof_H 	H 	0.026	0.994	0.1958	0.006
Mof_H 	H 	0.1277	0.001	0.1789	-0.028
Mof_H 	H 	0.0713	0.0843	0.2005	0.04
Mof_H 	H 	0.1011	0.0678	0.1282	0.035
Mof_H 	H 	0.045	0.1322	0.1149	0.052
Mof_H 	H 	0.0918	0.1497	0.1371	0.043
Mof_H 	H 	0.1274	0.8963	0.007	0.001
Mof_H 	H 	0.0739	0.8684	0.0528	0.065
Mof_H 	H 	0.1404	0.9168	0.0997	0.014
Mof_H 	H 	0.0381	0.9418	0.0889	0.055
Mof_H 	H 	0.1171	0.0021	0.0608	0.029
Mof_H 	H 	0.0589	0.045	0.03	0.062
Mof_H 	H 	0.0365	0.0391	0.0689	0.063
Mof_H 	H 	0.3445	0.9337	0.9853	0.003
Mof_H 	H 	0.2898	0.8671	0.9848	-0.117
Mof_H 	H 	0.2561	0.898	0.0531	0.004
Mof_H 	H 	0.1961	0.9082	0.9909	0.039
Mof_H 	H 	0.2438	0.9902	0.0244	0.051
Mof_H 	H 	0.1686	0.0069	0.991	0.046
Mof_H 	H 	0.1975	0.9899	0.9563	0.053
Mof_H 	H 	0.2001	0.5169	0.8553	0.149
Mof_H 	H 	0.5675	0.8127	0.6141	0.149
Mof_H 	H 	0.871	0.695	0.7873	-0.015
Mof_H 	H 	0.8935	0.8122	0.7771	0.244
Mof_H 	H 	0.1238	0.7616	0.7051	0.138
Mof_H 	H 	0.8792	0.8922	0.7811	0.18
Mof_H 	H 	0.9596	0.9155	0.881	0.178
Mof_H 	H 	0.1068	0.9624	0.774	0.173
Mof_H 	H 	0.9927	0.9528	0.9429	0.185
Mof_H 	H 	0.073	0.8299	0.9839	0.181
Mof_H 	H 	0.2502	0.8995	0.9109	0.127
Mof_H 	H 	0.1164	0.8056	0.0299	0.178
Mof_H 	H 	0.1019	0.6496	0.9897	0.183
Mof_H 	H 	0.1122	0.5809	0.9948	0.106
Mof_H 	H 	0.0105	0.5468	0.9023	0.222
Mof_H 	H 	0.9068	0.6241	0.798	0.161
Mof_H 	H 	0.0783	0.543	0.7163	0.056
Mof_H 	H 	0.5159	0.0378	0.6269	0.168
Mof_H 	H 	0.624	0.1135	0.5528	0.169
Mof_H 	H 	0.599	0.9506	0.4521	0.16
Mof_H 	H 	0.5696	0.9992	0.6564	0.213
Mof_H 	H 	0.8592	0.9455	0.7464	0.053
Mof_H 	H 	0.7041	0.9244	0.74	0.164
Mof_H 	H 	0.7715	0.7385	0.6743	-0.028
Mof_H 	H 	0.9299	0.0791	0.6599	0.167
Mof_H 	H 	0.876	0.9687	0.7384	0.17
Mof_H 	H 	0.9946	0.8746	0.6732	0.182
Mof_H 	H 	0.831	0.1574	0.5484	0.018
Mof_H 	H 	0.9204	0.1006	0.6407	0.061
Mof_H 	H 	0.6463	0.1576	0.5092	0.085
Mof_H 	H 	0.8049	0.1575	0.5418	0.219
Mof_H 	H 	0.8014	0.9273	0.4618	0.132
Mof_H 	H 	0.9607	0.6437	0.7294	-0.017
Mof_H 	H 	0.9057	0.7105	0.7261	-0.049
Mof_H 	H 	0.9372	0.7436	0.7922	-0.002
Mof_H 	H 	0.963	0.797	0.7298	0.041
Mof_H 	H 	0.0327	0.7373	0.7689	0.053
Mof_H 	H 	0.0656	0.8046	0.7317	0.038
Mof_H 	H 	0.0444	0.7759	0.6981	0.048
Mof_H 	H 	0.9685	0.869	0.7467	-0.002
Mof_H 	H 	0.9438	0.925	0.7917	0.014
Mof_H 	H 	0.9687	0.8504	0.8407	0.054
Mof_H 	H 	0.0258	0.9399	0.8327	0.053
Mof_H 	H 	0.0549	0.8418	0.8102	0.042
Mof_H 	H 	0.1221	0.8876	0.7826	0.033
Mof_H 	H 	0.1237	0.8938	0.8245	0.046
Mof_H 	H 	0.0572	0.9559	0.8807	0.021
Mof_H 	H 	0.0678	0.9386	0.9423	0.055
Mof_H 	H 	0.0474	0.84	0.9231	0.056
Mof_H 	H 	0.1379	0.8776	0.9498	0.042
Mof_H 	H 	0.1193	0.8439	0.8789	0.042
Mof_H 	H 	0.199	0.8752	0.867	0.029
Mof_H 	H 	0.2023	0.834	0.897	0.019
Mof_H 	H 	0.178	0.8264	0.9758	-0.065
Mof_H 	H 	0.1695	0.7534	0.0107	-0.093
Mof_H 	H 	0.0968	0.7241	0.9582	0.045
Mof_H 	H 	0.1886	0.6752	0.9686	-0.018
Mof_H 	H 	0.17	0.7415	0.91	0.032
Mof_H 	H 	0.257	0.7345	0.8994	-0.015
Mof_H 	H 	0.2309	0.6817	0.8963	0.039
Mof_H 	H 	0.181	0.6043	0.9526	0.004
Mof_H 	H 	0.1208	0.5413	0.9466	-0.103
Mof_H 	H 	0.0618	0.6154	0.913	0.028
Mof_H 	H 	0.1011	0.5302	0.8794	0.028
Mof_H 	H 	0.1372	0.6295	0.8687	0.041
Mof_H 	H 	0.1976	0.5955	0.8329	0.044
Mof_H 	H 	0.1436	0.5855	0.8177	0.047
Mof_H 	H 	0.0521	0.5089	0.8391	-0.061
Mof_H 	H 	0.9694	0.5202	0.8166	-0.117
Mof_H 	H 	0.978	0.6224	0.8349	0.051
Mof_H 	H 	0.9777	0.5899	0.7624	-0.065
Mof_H 	H 	0.0663	0.62	0.7987	0.049
Mof_H 	H 	0.1098	0.5958	0.749	-0.008
Mof_H 	H 	0.068	0.6343	0.7371	0.031
Mof_H 	H 	0.5364	0.9525	0.5948	-0.053
Mof_H 	H 	0.531	0.0329	0.5704	-0.067
Mof_H 	H 	0.6335	0.0409	0.5891	0.044
Mof_H 	H 	0.6006	0.0397	0.5171	-0.039
Mof_H 	H 	0.6481	0.957	0.5518	0.051
Mof_H 	H 	0.6256	0.9117	0.5006	-0.062
Mof_H 	H 	0.6613	0.9564	0.4905	0.012
Mof_H 	H 	0.6622	0.8455	0.7058	-0.016
Mof_H 	H 	0.5928	0.8948	0.7024	-0.022
Mof_H 	H 	0.6469	0.966	0.6636	-0.015
Mof_H 	H 	0.5699	0.9053	0.6331	0.042
Mof_H 	H 	0.6721	0.8936	0.6209	0.038
Mof_H 	H 	0.6451	0.818	0.5926	0.003
Mof_H 	H 	0.6308	0.8669	0.5715	0.011
Mof_H 	H 	0.8832	0.8585	0.7167	-0.035
Mof_H 	H 	0.811	0.8558	0.7525	-0.116
Mof_H 	H 	0.7767	0.9355	0.7087	0.021
Mof_H 	H 	0.7359	0.8385	0.7124	-0.101
Mof_H 	H 	0.7918	0.8748	0.6546	0.05
Mof_H 	H 	0.7873	0.7903	0.6358	-0.022
Mof_H 	H 	0.7335	0.8139	0.6382	0.009
Mof_H 	H 	0.989	0.0215	0.6339	0.004
Mof_H 	H 	0.974	0.006	0.6958	0.006
Mof_H 	H 	0.8723	0.999	0.6789	-0.028
Mof_H 	H 	0.9287	0.9157	0.7005	0.04
Mof_H 	H 	0.8989	0.9322	0.6282	0.035
Mof_H 	H 	0.955	0.8678	0.6149	0.052
Mof_H 	H 	0.9082	0.8503	0.6371	0.044
Mof_H 	H 	0.8726	0.1037	0.507	0.003
Mof_H 	H 	0.9261	0.1316	0.5528	0.065
Mof_H 	H 	0.8596	0.0832	0.5997	0.014
Mof_H 	H 	0.9619	0.0582	0.5889	0.056
Mof_H 	H 	0.8829	0.9979	0.5608	0.029
Mof_H 	H 	0.9411	0.955	0.53	0.063
Mof_H 	H 	0.9635	0.9609	0.5689	0.063
Mof_H 	H 	0.6555	0.0663	0.4853	-0.002
Mof_H 	H 	0.7102	0.1329	0.4848	-0.123
Mof_H 	H 	0.7439	0.102	0.5531	0.004
Mof_H 	H 	0.8039	0.0918	0.4909	0.034
Mof_H 	H 	0.7562	0.0098	0.5244	0.049
Mof_H 	H 	0.8314	0.9931	0.491	0.046
Mof_H 	H 	0.8025	0.0101	0.4563	0.055
Mof_H 	H 	0.5169	0.2001	0.1447	0.149
Mof_H 	H 	0.8127	0.5675	0.3859	0.149
Mof_H 	H 	0.695	0.871	0.2127	-0.015
Mof_H 	H 	0.8122	0.8935	0.2229	0.244
Mof_H 	H 	0.7616	0.1238	0.2949	0.138
Mof_H 	H 	0.8922	0.8792	0.2189	0.18
Mof_H 	H 	0.9155	0.9596	0.119	0.178
Mof_H 	H 	0.9624	0.1068	0.226	0.173
Mof_H 	H 	0.9528	0.9927	0.0571	0.185
Mof_H 	H 	0.8299	0.073	0.0161	0.177
Mof_H 	H 	0.8995	0.2502	0.0891	0.127
Mof_H 	H 	0.8056	0.1164	0.9701	0.176
Mof_H 	H 	0.6496	0.1019	0.0103	0.173
Mof_H 	H 	0.5809	0.1122	0.0052	0.102
Mof_H 	H 	0.5468	0.0105	0.0977	0.222
Mof_H 	H 	0.6241	0.9068	0.202	0.161
Mof_H 	H 	0.543	0.0783	0.2837	0.056
Mof_H 	H 	0.0378	0.5159	0.3731	0.168
Mof_H 	H 	0.1135	0.624	0.4472	0.169
Mof_H 	H 	0.9506	0.599	0.5479	0.16
Mof_H 	H 	0.9992	0.5696	0.3436	0.213
Mof_H 	H 	0.9455	0.8592	0.2536	0.054
Mof_H 	H 	0.9244	0.7041	0.26	0.164
Mof_H 	H 	0.7385	0.7715	0.3257	-0.028
Mof_H 	H 	0.0791	0.9299	0.3401	0.167
Mof_H 	H 	0.9687	0.876	0.2616	0.17
Mof_H 	H 	0.8746	0.9946	0.3268	0.182
Mof_H 	H 	0.1574	0.831	0.4516	0.018
Mof_H 	H 	0.1006	0.9204	0.3593	0.061
Mof_H 	H 	0.1576	0.6463	0.4908	0.085
Mof_H 	H 	0.1575	0.8049	0.4582	0.219
Mof_H 	H 	0.9273	0.8014	0.5382	0.132
Mof_H 	H 	0.6437	0.9607	0.2706	-0.017
Mof_H 	H 	0.7105	0.9057	0.2739	-0.049
Mof_H 	H 	0.7436	0.9372	0.2078	-0.002
Mof_H 	H 	0.797	0.963	0.2702	0.041
Mof_H 	H 	0.7373	0.0327	0.2311	0.053
Mof_H 	H 	0.8046	0.0656	0.2683	0.038
Mof_H 	H 	0.7759	0.0444	0.3019	0.048
Mof_H 	H 	0.869	0.9685	0.2533	-0.002
Mof_H 	H 	0.925	0.9438	0.2083	0.014
Mof_H 	H 	0.8504	0.9687	0.1593	0.054
Mof_H 	H 	0.9399	0.0258	0.1673	0.053
Mof_H 	H 	0.8418	0.0549	0.1898	0.042
Mof_H 	H 	0.8876	0.1221	0.2174	0.033
Mof_H 	H 	0.8938	0.1237	0.1755	0.046
Mof_H 	H 	0.9559	0.0572	0.1193	0.021
Mof_H 	H 	0.9386	0.0678	0.0577	0.054
Mof_H 	H 	0.84	0.0474	0.0769	0.056
Mof_H 	H 	0.8776	0.1379	0.0502	0.041
Mof_H 	H 	0.8439	0.1193	0.1211	0.042
Mof_H 	H 	0.8752	0.199	0.133	0.029
Mof_H 	H 	0.834	0.2023	0.103	0.018
Mof_H 	H 	0.8264	0.178	0.0242	-0.071
Mof_H 	H 	0.7534	0.1695	0.9893	-0.082
Mof_H 	H 	0.7241	0.0968	0.0418	0.045
Mof_H 	H 	0.6752	0.1886	0.0314	-0.022
Mof_H 	H 	0.7415	0.17	0.09	0.032
Mof_H 	H 	0.7345	0.257	0.1006	-0.017
Mof_H 	H 	0.6817	0.2309	0.1037	0.039
Mof_H 	H 	0.6043	0.181	0.0474	0.002
Mof_H 	H 	0.5413	0.1208	0.0534	-0.102
Mof_H 	H 	0.6154	0.0618	0.087	0.027
Mof_H 	H 	0.5302	0.1011	0.1206	0.028
Mof_H 	H 	0.6295	0.1372	0.1313	0.041
Mof_H 	H 	0.5955	0.1976	0.1671	0.044
Mof_H 	H 	0.5855	0.1436	0.1823	0.047
Mof_H 	H 	0.5089	0.0521	0.1609	-0.061
Mof_H 	H 	0.5202	0.9694	0.1834	-0.117
Mof_H 	H 	0.6224	0.978	0.1651	0.051
Mof_H 	H 	0.5899	0.9777	0.2376	-0.065
Mof_H 	H 	0.62	0.0663	0.2013	0.049
Mof_H 	H 	0.5958	0.1098	0.251	-0.008
Mof_H 	H 	0.6343	0.068	0.2629	0.031
Mof_H 	H 	0.9525	0.5364	0.4052	-0.053
Mof_H 	H 	0.0329	0.531	0.4296	-0.067
Mof_H 	H 	0.0409	0.6335	0.4109	0.044
Mof_H 	H 	0.0397	0.6006	0.4829	-0.039
Mof_H 	H 	0.957	0.6481	0.4482	0.051
Mof_H 	H 	0.9117	0.6256	0.4994	-0.062
Mof_H 	H 	0.9564	0.6613	0.5095	0.012
Mof_H 	H 	0.8455	0.6622	0.2942	-0.016
Mof_H 	H 	0.8948	0.5928	0.2976	-0.022
Mof_H 	H 	0.966	0.6469	0.3364	-0.015
Mof_H 	H 	0.9053	0.5699	0.3669	0.042
Mof_H 	H 	0.8936	0.6721	0.3791	0.038
Mof_H 	H 	0.818	0.6451	0.4074	0.003
Mof_H 	H 	0.8669	0.6308	0.4285	0.011
Mof_H 	H 	0.8585	0.8832	0.2833	-0.035
Mof_H 	H 	0.8558	0.811	0.2475	-0.116
Mof_H 	H 	0.9355	0.7767	0.2913	0.021
Mof_H 	H 	0.8385	0.7359	0.2876	-0.101
Mof_H 	H 	0.8748	0.7918	0.3454	0.05
Mof_H 	H 	0.7903	0.7873	0.3642	-0.022
Mof_H 	H 	0.8139	0.7335	0.3618	0.009
Mof_H 	H 	0.0215	0.989	0.3661	0.004
Mof_H 	H 	0.006	0.974	0.3042	0.006
Mof_H 	H 	0.999	0.8723	0.3211	-0.028
Mof_H 	H 	0.9157	0.9287	0.2995	0.04
Mof_H 	H 	0.9322	0.8989	0.3718	0.035
Mof_H 	H 	0.8678	0.955	0.3851	0.052
Mof_H 	H 	0.8503	0.9082	0.3629	0.044
Mof_H 	H 	0.1037	0.8726	0.493	0.003
Mof_H 	H 	0.1316	0.9261	0.4472	0.065
Mof_H 	H 	0.0832	0.8596	0.4003	0.014
Mof_H 	H 	0.0582	0.9619	0.4111	0.055
Mof_H 	H 	0.9979	0.8829	0.4392	0.029
Mof_H 	H 	0.955	0.9411	0.47	0.063
Mof_H 	H 	0.9609	0.9635	0.4311	0.063
Mof_H 	H 	0.0663	0.6555	0.5147	-0.002
Mof_H 	H 	0.1329	0.7102	0.5152	-0.123
Mof_H 	H 	0.102	0.7439	0.4469	0.004
Mof_H 	H 	0.0918	0.8039	0.5091	0.034
Mof_H 	H 	0.0098	0.7562	0.4756	0.049
Mof_H 	H 	0.9931	0.8314	0.509	0.046
Mof_H 	H 	0.0101	0.8025	0.5437	0.055
Mof_H 	H 	0.4831	0.7999	0.6447	0.149
Mof_H 	H 	0.1873	0.4325	0.8859	0.149
Mof_H 	H 	0.305	0.129	0.7127	-0.015
Mof_H 	H 	0.1878	0.1065	0.7229	0.244
Mof_H 	H 	0.2384	0.8762	0.7949	0.138
Mof_H 	H 	0.1078	0.1208	0.7189	0.18
Mof_H 	H 	0.0845	0.0404	0.619	0.178
Mof_H 	H 	0.0376	0.8932	0.726	0.173
Mof_H 	H 	0.0472	0.0073	0.5571	0.185
Mof_H 	H 	0.1701	0.927	0.5161	0.179
Mof_H 	H 	0.1005	0.7498	0.5891	0.127
Mof_H 	H 	0.1944	0.8836	0.4701	0.177
Mof_H 	H 	0.3504	0.8981	0.5103	0.178
Mof_H 	H 	0.4191	0.8878	0.5052	0.104
Mof_H 	H 	0.4532	0.9895	0.5977	0.222
Mof_H 	H 	0.3759	0.0932	0.702	0.161
Mof_H 	H 	0.457	0.9217	0.7837	0.056
Mof_H 	H 	0.9622	0.4841	0.8731	0.168
Mof_H 	H 	0.8865	0.376	0.9472	0.169
Mof_H 	H 	0.0494	0.401	0.0479	0.159
Mof_H 	H 	0.0008	0.4304	0.8436	0.213
Mof_H 	H 	0.0545	0.1408	0.7536	0.054
Mof_H 	H 	0.0756	0.2959	0.76	0.164
Mof_H 	H 	0.2615	0.2285	0.8257	-0.028
Mof_H 	H 	0.9209	0.0701	0.8401	0.167
Mof_H 	H 	0.0313	0.124	0.7616	0.17
Mof_H 	H 	0.1254	0.0054	0.8268	0.182
Mof_H 	H 	0.8426	0.169	0.9516	0.018
Mof_H 	H 	0.8994	0.0796	0.8593	0.061
Mof_H 	H 	0.8424	0.3537	0.9908	0.088
Mof_H 	H 	0.8425	0.1951	0.9582	0.22
Mof_H 	H 	0.0727	0.1986	0.0382	0.131
Mof_H 	H 	0.3563	0.0393	0.7706	-0.017
Mof_H 	H 	0.2895	0.0943	0.7739	-0.049
Mof_H 	H 	0.2564	0.0628	0.7078	-0.002
Mof_H 	H 	0.203	0.037	0.7702	0.041
Mof_H 	H 	0.2627	0.9673	0.7311	0.053
Mof_H 	H 	0.1954	0.9344	0.7683	0.038
Mof_H 	H 	0.2241	0.9556	0.8019	0.047
Mof_H 	H 	0.131	0.0315	0.7533	-0.002
Mof_H 	H 	0.075	0.0562	0.7083	0.014
Mof_H 	H 	0.1496	0.0313	0.6593	0.054
Mof_H 	H 	0.0601	0.9742	0.6673	0.053
Mof_H 	H 	0.1582	0.9451	0.6898	0.042
Mof_H 	H 	0.1124	0.8779	0.7174	0.033
Mof_H 	H 	0.1062	0.8763	0.6755	0.046
Mof_H 	H 	0.0441	0.9428	0.6193	0.021
Mof_H 	H 	0.0614	0.9322	0.5577	0.055
Mof_H 	H 	0.16	0.9526	0.5769	0.056
Mof_H 	H 	0.1224	0.8621	0.5502	0.042
Mof_H 	H 	0.1561	0.8807	0.6211	0.042
Mof_H 	H 	0.1248	0.801	0.633	0.029
Mof_H 	H 	0.166	0.7977	0.603	0.019
Mof_H 	H 	0.1736	0.822	0.5242	-0.068
Mof_H 	H 	0.2466	0.8305	0.4893	-0.088
Mof_H 	H 	0.2759	0.9032	0.5418	0.045
Mof_H 	H 	0.3248	0.8114	0.5314	-0.02
Mof_H 	H 	0.2585	0.83	0.59	0.032
Mof_H 	H 	0.2655	0.743	0.6006	-0.016
Mof_H 	H 	0.3183	0.7691	0.6037	0.039
Mof_H 	H 	0.3957	0.819	0.5474	0.003
Mof_H 	H 	0.4587	0.8792	0.5534	-0.102
Mof_H 	H 	0.3846	0.9382	0.587	0.027
Mof_H 	H 	0.4698	0.8989	0.6206	0.028
Mof_H 	H 	0.3705	0.8628	0.6313	0.041
Mof_H 	H 	0.4045	0.8024	0.6671	0.044
Mof_H 	H 	0.4145	0.8564	0.6823	0.047
Mof_H 	H 	0.4911	0.9479	0.6609	-0.061
Mof_H 	H 	0.4798	0.0306	0.6834	-0.117
Mof_H 	H 	0.3776	0.022	0.6651	0.051
Mof_H 	H 	0.4101	0.0223	0.7376	-0.065
Mof_H 	H 	0.38	0.9337	0.7013	0.049
Mof_H 	H 	0.4042	0.8902	0.751	-0.008
Mof_H 	H 	0.3657	0.932	0.7629	0.031
Mof_H 	H 	0.0475	0.4636	0.9052	-0.054
Mof_H 	H 	0.9671	0.469	0.9296	-0.068
Mof_H 	H 	0.9591	0.3665	0.9109	0.044
Mof_H 	H 	0.9603	0.3994	0.9829	-0.037
Mof_H 	H 	0.043	0.3519	0.9482	0.049
Mof_H 	H 	0.0883	0.3744	0.9994	-0.053
Mof_H 	H 	0.0436	0.3387	0.0095	0.015
Mof_H 	H 	0.1545	0.3378	0.7942	-0.016
Mof_H 	H 	0.1052	0.4072	0.7976	-0.022
Mof_H 	H 	0.034	0.3531	0.8364	-0.015
Mof_H 	H 	0.0947	0.4301	0.8669	0.041
Mof_H 	H 	0.1064	0.3279	0.8791	0.038
Mof_H 	H 	0.182	0.3549	0.9074	0.004
Mof_H 	H 	0.1331	0.3692	0.9285	0.012
Mof_H 	H 	0.1415	0.1168	0.7833	-0.035
Mof_H 	H 	0.1442	0.189	0.7475	-0.116
Mof_H 	H 	0.0645	0.2233	0.7913	0.021
Mof_H 	H 	0.1615	0.2641	0.7876	-0.101
Mof_H 	H 	0.1252	0.2082	0.8454	0.05
Mof_H 	H 	0.2097	0.2127	0.8642	-0.022
Mof_H 	H 	0.1861	0.2665	0.8618	0.009
Mof_H 	H 	0.9785	0.011	0.8661	0.004
Mof_H 	H 	0.994	0.026	0.8042	0.006
Mof_H 	H 	0.001	0.1277	0.8211	-0.028
Mof_H 	H 	0.0843	0.0713	0.7995	0.04
Mof_H 	H 	0.0678	0.1011	0.8718	0.035
Mof_H 	H 	0.1322	0.045	0.8851	0.052
Mof_H 	H 	0.1497	0.0918	0.8629	0.044
Mof_H 	H 	0.8963	0.1274	0.993	0.006
Mof_H 	H 	0.8684	0.0739	0.9472	0.066
Mof_H 	H 	0.9168	0.1404	0.9003	0.014
Mof_H 	H 	0.9418	0.0381	0.9111	0.056
Mof_H 	H 	0.0021	0.1171	0.9392	0.03
Mof_H 	H 	0.045	0.0589	0.97	0.065
Mof_H 	H 	0.0391	0.0365	0.9311	0.064
Mof_H 	H 	0.9337	0.3445	0.0147	-0.009
Mof_H 	H 	0.8671	0.2898	0.0152	-0.129
Mof_H 	H 	0.898	0.2561	0.9469	0.004
Mof_H 	H 	0.9082	0.1961	0.0091	0.029
Mof_H 	H 	0.9902	0.2438	0.9756	0.047
Mof_H 	H 	0.0069	0.1686	0.009	0.046
Mof_H 	H 	0.9899	0.1975	0.0437	0.057
Mof_H 	H 	0.7001	0.9831	0.8947	0.149
Mof_H 	H 	0.0675	0.6873	0.1359	0.149
Mof_H 	H 	0.371	0.805	0.9627	-0.015
Mof_H 	H 	0.3935	0.6878	0.9729	0.244
Mof_H 	H 	0.6238	0.7384	0.0449	0.138
Mof_H 	H 	0.3792	0.6078	0.9689	0.18
Mof_H 	H 	0.4596	0.5845	0.869	0.178
Mof_H 	H 	0.6068	0.5376	0.976	0.175
Mof_H 	H 	0.4927	0.5472	0.8071	0.185
Mof_H 	H 	0.573	0.6701	0.7661	0.179
Mof_H 	H 	0.7502	0.6005	0.8391	0.127
Mof_H 	H 	0.6164	0.6944	0.7201	0.177
Mof_H 	H 	0.6019	0.8504	0.7603	0.178
Mof_H 	H 	0.6122	0.9191	0.7552	0.104
Mof_H 	H 	0.5105	0.9532	0.8477	0.222
Mof_H 	H 	0.4068	0.8759	0.952	0.162
Mof_H 	H 	0.5783	0.957	0.0337	0.056
Mof_H 	H 	0.0159	0.4622	0.1231	0.168
Mof_H 	H 	0.124	0.3865	0.1972	0.169
Mof_H 	H 	0.099	0.5494	0.2979	0.16
Mof_H 	H 	0.0696	0.5008	0.0936	0.213
Mof_H 	H 	0.3592	0.5545	0.0036	0.047
Mof_H 	H 	0.2041	0.5756	0.01	0.164
Mof_H 	H 	0.2715	0.7615	0.0757	-0.027
Mof_H 	H 	0.4299	0.4209	0.0901	0.167
Mof_H 	H 	0.376	0.5313	0.0116	0.172
Mof_H 	H 	0.4946	0.6254	0.0768	0.182
Mof_H 	H 	0.331	0.3426	0.2016	0.018
Mof_H 	H 	0.4204	0.3994	0.1093	0.061
Mof_H 	H 	0.1463	0.3424	0.2408	0.085
Mof_H 	H 	0.3049	0.3425	0.2082	0.219
Mof_H 	H 	0.3014	0.5727	0.2882	0.132
Mof_H 	H 	0.4607	0.8563	0.0206	-0.017
Mof_H 	H 	0.4057	0.7895	0.0239	-0.048
Mof_H 	H 	0.4372	0.7564	0.9578	-0.002
Mof_H 	H 	0.463	0.703	0.0202	0.035
Mof_H 	H 	0.5327	0.7627	0.9811	0.06
Mof_H 	H 	0.5656	0.6954	0.0183	0.034
Mof_H 	H 	0.5444	0.7241	0.0519	0.045
Mof_H 	H 	0.4685	0.631	0.0033	-0.008
Mof_H 	H 	0.4438	0.575	0.9583	0.016
Mof_H 	H 	0.4687	0.6496	0.9093	0.053
Mof_H 	H 	0.5258	0.5601	0.9173	0.053
Mof_H 	H 	0.5549	0.6582	0.9398	0.043
Mof_H 	H 	0.6221	0.6124	0.9674	0.034
Mof_H 	H 	0.6237	0.6062	0.9255	0.046
Mof_H 	H 	0.5572	0.5441	0.8693	0.022
Mof_H 	H 	0.5678	0.5614	0.8077	0.055
Mof_H 	H 	0.5474	0.66	0.8269	0.056
Mof_H 	H 	0.6379	0.6224	0.8002	0.042
Mof_H 	H 	0.6193	0.6561	0.8711	0.042
Mof_H 	H 	0.699	0.6248	0.883	0.029
Mof_H 	H 	0.7023	0.666	0.853	0.019
Mof_H 	H 	0.678	0.6736	0.7742	-0.068
Mof_H 	H 	0.6695	0.7466	0.7393	-0.088
Mof_H 	H 	0.5968	0.7759	0.7918	0.045
Mof_H 	H 	0.6886	0.8248	0.7814	-0.02
Mof_H 	H 	0.67	0.7585	0.84	0.032
Mof_H 	H 	0.757	0.7655	0.8506	-0.016
Mof_H 	H 	0.7309	0.8183	0.8537	0.039
Mof_H 	H 	0.681	0.8957	0.7974	0.003
Mof_H 	H 	0.6208	0.9587	0.8034	-0.102
Mof_H 	H 	0.5618	0.8846	0.837	0.027
Mof_H 	H 	0.6011	0.9698	0.8706	0.028
Mof_H 	H 	0.6372	0.8705	0.8813	0.041
Mof_H 	H 	0.6976	0.9045	0.9171	0.045
Mof_H 	H 	0.6436	0.9145	0.9323	0.048
Mof_H 	H 	0.5521	0.9911	0.9109	-0.061
Mof_H 	H 	0.4694	0.9798	0.9334	-0.115
Mof_H 	H 	0.478	0.8776	0.9151	0.05
Mof_H 	H 	0.4777	0.9101	0.9876	-0.062
Mof_H 	H 	0.5663	0.88	0.9513	0.048
Mof_H 	H 	0.6098	0.9042	0.001	-0.007
Mof_H 	H 	0.568	0.8657	0.0129	0.032
Mof_H 	H 	0.0364	0.5475	0.1552	-0.053
Mof_H 	H 	0.031	0.4671	0.1796	-0.067
Mof_H 	H 	0.1335	0.4591	0.1609	0.044
Mof_H 	H 	0.1006	0.4603	0.2329	-0.039
Mof_H 	H 	0.1481	0.543	0.1982	0.051
Mof_H 	H 	0.1256	0.5883	0.2494	-0.062
Mof_H 	H 	0.1613	0.5436	0.2595	0.012
Mof_H 	H 	0.1622	0.6545	0.0442	-0.016
Mof_H 	H 	0.0928	0.6052	0.0476	-0.024
Mof_H 	H 	0.1469	0.534	0.0864	-0.016
Mof_H 	H 	0.0699	0.5947	0.1169	0.041
Mof_H 	H 	0.1721	0.6064	0.1291	0.038
Mof_H 	H 	0.1451	0.682	0.1574	0.003
Mof_H 	H 	0.1308	0.6331	0.1785	0.011
Mof_H 	H 	0.3832	0.6415	0.0333	-0.037
Mof_H 	H 	0.311	0.6442	0.9975	-0.107
Mof_H 	H 	0.2767	0.5645	0.0413	0.02
Mof_H 	H 	0.2359	0.6615	0.0376	-0.1
Mof_H 	H 	0.2918	0.6252	0.0954	0.05
Mof_H 	H 	0.2873	0.7097	0.1142	-0.022
Mof_H 	H 	0.2335	0.6861	0.1118	0.009
Mof_H 	H 	0.489	0.4785	0.1161	0.004
Mof_H 	H 	0.474	0.494	0.0542	0.005
Mof_H 	H 	0.3723	0.501	0.0711	-0.028
Mof_H 	H 	0.4287	0.5843	0.0495	0.04
Mof_H 	H 	0.3989	0.5678	0.1218	0.035
Mof_H 	H 	0.455	0.6322	0.1351	0.052
Mof_H 	H 	0.4082	0.6497	0.1129	0.044
Mof_H 	H 	0.3726	0.3963	0.243	0.003
Mof_H 	H 	0.4261	0.3684	0.1972	0.065
Mof_H 	H 	0.3596	0.4168	0.1503	0.014
Mof_H 	H 	0.4619	0.4418	0.1611	0.056
Mof_H 	H 	0.3829	0.5021	0.1892	0.029
Mof_H 	H 	0.4411	0.545	0.22	0.063
Mof_H 	H 	0.4635	0.5391	0.1811	0.064
Mof_H 	H 	0.1555	0.4337	0.2647	-0.003
Mof_H 	H 	0.2102	0.3671	0.2652	-0.123
Mof_H 	H 	0.2439	0.398	0.1969	0.004
Mof_H 	H 	0.3039	0.4082	0.2591	0.034
Mof_H 	H 	0.2562	0.4902	0.2256	0.049
Mof_H 	H 	0.3314	0.5069	0.259	0.046
Mof_H 	H 	0.3025	0.4899	0.2937	0.056
Mof_H 	H 	0.2999	0.0169	0.3947	0.149
Mof_H 	H 	0.9325	0.3127	0.6359	0.149
Mof_H 	H 	0.629	0.195	0.4627	-0.015
Mof_H 	H 	0.6065	0.3122	0.4729	0.244
Mof_H 	H 	0.3762	0.2616	0.5449	0.138
Mof_H 	H 	0.6208	0.3922	0.4689	0.18
Mof_H 	H 	0.5404	0.4155	0.369	0.178
Mof_H 	H 	0.3932	0.4624	0.476	0.173
Mof_H 	H 	0.5073	0.4528	0.3071	0.185
Mof_H 	H 	0.427	0.3299	0.2661	0.179
Mof_H 	H 	0.2498	0.3995	0.3391	0.127
Mof_H 	H 	0.3836	0.3056	0.2201	0.177
Mof_H 	H 	0.3981	0.1496	0.2603	0.178
Mof_H 	H 	0.3878	0.0809	0.2552	0.104
Mof_H 	H 	0.4895	0.0468	0.3477	0.222
Mof_H 	H 	0.5932	0.1241	0.452	0.161
Mof_H 	H 	0.4217	0.043	0.5337	0.056
Mof_H 	H 	0.9841	0.5378	0.6231	0.168
Mof_H 	H 	0.876	0.6135	0.6972	0.169
Mof_H 	H 	0.901	0.4506	0.7979	0.16
Mof_H 	H 	0.9304	0.4992	0.5936	0.213
Mof_H 	H 	0.6408	0.4455	0.5036	0.053
Mof_H 	H 	0.7959	0.4244	0.51	0.164
Mof_H 	H 	0.7285	0.2385	0.5757	-0.028
Mof_H 	H 	0.5701	0.5791	0.5901	0.167
Mof_H 	H 	0.624	0.4687	0.5116	0.17
Mof_H 	H 	0.5054	0.3746	0.5768	0.182
Mof_H 	H 	0.669	0.6574	0.7016	0.018
Mof_H 	H 	0.5796	0.6006	0.6093	0.061
Mof_H 	H 	0.8537	0.6576	0.7408	0.085
Mof_H 	H 	0.6951	0.6575	0.7082	0.219
Mof_H 	H 	0.6986	0.4273	0.7882	0.132
Mof_H 	H 	0.5393	0.1437	0.5206	-0.017
Mof_H 	H 	0.5943	0.2105	0.5239	-0.05
Mof_H 	H 	0.5628	0.2436	0.4578	-0.002
Mof_H 	H 	0.537	0.297	0.5202	0.041
Mof_H 	H 	0.4673	0.2373	0.4811	0.053
Mof_H 	H 	0.4344	0.3046	0.5183	0.038
Mof_H 	H 	0.4556	0.2759	0.5519	0.048
Mof_H 	H 	0.5315	0.369	0.5033	-0.002
Mof_H 	H 	0.5562	0.425	0.4583	0.014
Mof_H 	H 	0.5313	0.3504	0.4093	0.054
Mof_H 	H 	0.4742	0.4399	0.4173	0.053
Mof_H 	H 	0.4451	0.3418	0.4398	0.042
Mof_H 	H 	0.3779	0.3876	0.4674	0.033
Mof_H 	H 	0.3763	0.3938	0.4255	0.046
Mof_H 	H 	0.4428	0.4559	0.3693	0.022
Mof_H 	H 	0.4322	0.4386	0.3077	0.055
Mof_H 	H 	0.4526	0.34	0.3269	0.056
Mof_H 	H 	0.3621	0.3776	0.3002	0.042
Mof_H 	H 	0.3807	0.3439	0.3711	0.042
Mof_H 	H 	0.301	0.3752	0.383	0.029
Mof_H 	H 	0.2977	0.334	0.353	0.019
Mof_H 	H 	0.322	0.3264	0.2742	-0.068
Mof_H 	H 	0.3305	0.2534	0.2393	-0.088
Mof_H 	H 	0.4032	0.2241	0.2918	0.045
Mof_H 	H 	0.3114	0.1752	0.2814	-0.02
Mof_H 	H 	0.33	0.2415	0.34	0.032
Mof_H 	H 	0.243	0.2345	0.3506	-0.016
Mof_H 	H 	0.2691	0.1817	0.3537	0.039
Mof_H 	H 	0.319	0.1043	0.2974	0.003
Mof_H 	H 	0.3792	0.0413	0.3034	-0.102
Mof_H 	H 	0.4382	0.1154	0.337	0.027
Mof_H 	H 	0.3989	0.0302	0.3706	0.028
Mof_H 	H 	0.3628	0.1295	0.3813	0.041
Mof_H 	H 	0.3024	0.0955	0.4171	0.044
Mof_H 	H 	0.3564	0.0855	0.4323	0.047
Mof_H 	H 	0.4479	0.0089	0.4109	-0.061
Mof_H 	H 	0.5306	0.0202	0.4334	-0.117
Mof_H 	H 	0.522	0.1224	0.4151	0.051
Mof_H 	H 	0.5223	0.0899	0.4876	-0.065
Mof_H 	H 	0.4337	0.12	0.4513	0.049
Mof_H 	H 	0.3902	0.0958	0.501	-0.008
Mof_H 	H 	0.432	0.1343	0.5129	0.031
Mof_H 	H 	0.9636	0.4525	0.6552	-0.053
Mof_H 	H 	0.969	0.5329	0.6796	-0.067
Mof_H 	H 	0.8665	0.5409	0.6609	0.044
Mof_H 	H 	0.8994	0.5397	0.7329	-0.039
Mof_H 	H 	0.8519	0.457	0.6982	0.051
Mof_H 	H 	0.8744	0.4117	0.7494	-0.062
Mof_H 	H 	0.8387	0.4564	0.7595	0.011
Mof_H 	H 	0.8378	0.3455	0.5442	-0.016
Mof_H 	H 	0.9072	0.3948	0.5476	-0.022
Mof_H 	H 	0.8531	0.466	0.5864	-0.015
Mof_H 	H 	0.9301	0.4053	0.6169	0.042
Mof_H 	H 	0.8279	0.3936	0.6291	0.038
Mof_H 	H 	0.8549	0.318	0.6574	0.003
Mof_H 	H 	0.8692	0.3669	0.6785	0.011
Mof_H 	H 	0.6168	0.3585	0.5333	-0.035
Mof_H 	H 	0.689	0.3558	0.4975	-0.116
Mof_H 	H 	0.7233	0.4355	0.5413	0.021
Mof_H 	H 	0.7641	0.3385	0.5376	-0.101
Mof_H 	H 	0.7082	0.3748	0.5954	0.05
Mof_H 	H 	0.7127	0.2903	0.6142	-0.022
Mof_H 	H 	0.7665	0.3139	0.6118	0.009
Mof_H 	H 	0.511	0.5215	0.6161	0.004
Mof_H 	H 	0.526	0.506	0.5542	0.006
Mof_H 	H 	0.6277	0.499	0.5711	-0.028
Mof_H 	H 	0.5713	0.4157	0.5495	0.04
Mof_H 	H 	0.6011	0.4322	0.6218	0.035
Mof_H 	H 	0.545	0.3678	0.6351	0.052
Mof_H 	H 	0.5918	0.3503	0.6129	0.043
Mof_H 	H 	0.6274	0.6037	0.743	0.003
Mof_H 	H 	0.5739	0.6316	0.6972	0.065
Mof_H 	H 	0.6404	0.5832	0.6503	0.014
Mof_H 	H 	0.5381	0.5582	0.6611	0.056
Mof_H 	H 	0.6171	0.4979	0.6892	0.029
Mof_H 	H 	0.5589	0.455	0.72	0.063
Mof_H 	H 	0.5365	0.4609	0.6811	0.064
Mof_H 	H 	0.8445	0.5663	0.7647	-0.003
Mof_H 	H 	0.7898	0.6329	0.7652	-0.123
Mof_H 	H 	0.7561	0.602	0.6969	0.004
Mof_H 	H 	0.6961	0.5918	0.7591	0.034
Mof_H 	H 	0.7438	0.5098	0.7256	0.049
Mof_H 	H 	0.6686	0.4931	0.759	0.046
Mof_H 	H 	0.6975	0.5101	0.7937	0.056
Mof_C 	C 	0.82626	0.46794	0.99371	0.223
Mof_C 	C 	0.79684	0.41987	0.99987	-0.031
Mof_C 	C 	0.74932	0.42952	0.01692	0.163
Mof_C 	C 	0.71993	0.47281	0.00211	-0.018
Mof_C 	C 	0.75281	0.51794	0.99575	0.067
Mof_C 	C 	0.7285	0.5578	0.97216	0.023
Mof_C 	C 	0.63491	0.4822	0.02103	0.141
Mof_C 	C 	0.61069	0.44611	0.04784	0.069
Mof_C 	C 	0.6142	0.4692	0.0836	0.048
Mof_C 	C 	0.59669	0.52367	0.08509	0.031
Mof_C 	C 	0.62195	0.55238	0.0559	0.049
Mof_C 	C 	0.5979	0.6047	0.05304	0.027
Mof_C 	C 	0.57785	0.56723	0.1385	0.168
Mof_C 	C 	0.5859	0.5506	0.17695	0.022
Mof_C 	C 	0.63576	0.56535	0.18823	0.063
Mof_C 	C 	0.64384	0.61916	0.1831	0.042
Mof_C 	C 	0.63169	0.63425	0.14549	0.039
Mof_C 	C 	0.6324	0.6902	0.14178	0.034
Mof_C 	C 	0.70485	0.6663	0.21463	0.209
Mof_C 	C 	0.73752	0.6437	0.24306	0.035
Mof_C 	C 	0.7851	0.6247	0.22412	0.063
Mof_C 	C 	0.8081	0.6646	0.20258	0.032
Mof_C 	C 	0.76996	0.69236	0.17923	0.068
Mof_C 	C 	0.7914	0.7395	0.1628	0.038
Mof_C 	C 	0.89287	0.65586	0.18344	0.17
Mof_C 	C 	0.9235	0.61073	0.194	0.064
Mof_C 	C 	0.91945	0.57361	0.16439	0.071
Mof_C 	C 	0.9334	0.5953	0.12972	0.044
Mof_C 	C 	0.90628	0.64493	0.12109	0.046
Mof_C 	C 	0.9226	0.6666	0.0871	0.003
Mof_C 	C 	0.95787	0.5416	0.08054	0.183
Mof_C 	C 	0.95382	0.4835	0.08232	0.038
Mof_C 	C 	0.90348	0.46868	0.06736	0.033
Mof_C 	C 	0.89121	0.494	0.03179	0.061
Mof_C 	C 	0.9038	0.54982	0.03233	0.011
Mof_C 	C 	0.899	0.5739	0.99701	0.107
Mof_C 	C 	0.53116	0.06636	0.83492	0.186
Mof_C 	C 	0.47668	0.05956	0.83559	0.03
Mof_C 	C 	0.45355	0.10636	0.82172	0.041
Mof_C 	C 	0.47384	0.12171	0.78638	0.053
Mof_C 	C 	0.53049	0.12136	0.78605	0.006
Mof_C 	C 	0.55194	0.12799	0.74923	0.126
Mof_C 	C 	0.63002	0.16012	0.93607	0.208
Mof_C 	C 	0.58964	0.12507	0.94634	-0.038
Mof_C 	C 	0.5538	0.1163	0.91716	0.163
Mof_C 	C 	0.5814	0.10422	0.88224	0.006
Mof_C 	C 	0.6209	0.13887	0.87523	0.042
Mof_C 	C 	0.6521	0.1242	0.84324	0.047
Mof_C 	C 	0.62931	0.351	0.95738	0.173
Mof_C 	C 	0.6141	0.31827	0.98819	0.064
Mof_C 	C 	0.59457	0.26916	0.97296	0.035
Mof_C 	C 	0.63321	0.24843	0.94815	0.08
Mof_C 	C 	0.6518	0.2837	0.92185	-0.011
Mof_C 	C 	0.6967	0.2623	0.9023	0.104
Mof_C 	C 	0.49722	0.45894	0.89109	0.171
Mof_C 	C 	0.4846	0.4455	0.93053	0.046
Mof_C 	C 	0.5141	0.4017	0.94173	0.11
Mof_C 	C 	0.56823	0.40601	0.93321	0.024
Mof_C 	C 	0.57737	0.42549	0.89509	0.056
Mof_C 	C 	0.62988	0.4387	0.88816	-0.006
Mof_C 	C 	0.41473	0.37422	0.77981	0.17
Mof_C 	C 	0.37847	0.3916	0.80878	-0.009
Mof_C 	C 	0.406	0.3936	0.84338	0.095
Mof_C 	C 	0.4521	0.42652	0.83973	0.007
Mof_C 	C 	0.48377	0.41416	0.80621	0.083
Mof_C 	C 	0.5209	0.4541	0.79728	-0.048
Mof_C 	C 	0.43609	0.18576	0.75024	0.177
Mof_C 	C 	0.38381	0.20345	0.75783	0.027
Mof_C 	C 	0.38639	0.25184	0.77874	0.127
Mof_C 	C 	0.42326	0.28901	0.76244	0.012
Mof_C 	C 	0.47215	0.26535	0.75242	0.054
Mof_C 	C 	0.5049	0.2985	0.72997	0.008
Mof_C 	C 	0.17374	0.53206	0.49371	0.219
Mof_C 	C 	0.20316	0.58013	0.49987	-0.039
Mof_C 	C 	0.25068	0.57048	0.51692	0.164
Mof_C 	C 	0.28007	0.52719	0.50211	-0.003
Mof_C 	C 	0.24719	0.48206	0.49575	0.05
Mof_C 	C 	0.2715	0.4422	0.47216	0.031
Mof_C 	C 	0.36509	0.5178	0.52103	0.15
Mof_C 	C 	0.38931	0.55389	0.54784	0.065
Mof_C 	C 	0.3858	0.5308	0.5836	0.049
Mof_C 	C 	0.40331	0.47633	0.58509	0.03
Mof_C 	C 	0.37805	0.44762	0.5559	0.05
Mof_C 	C 	0.4021	0.3953	0.55304	0.027
Mof_C 	C 	0.42215	0.43277	0.6385	0.168
Mof_C 	C 	0.4141	0.4494	0.67695	0.022
Mof_C 	C 	0.36424	0.43465	0.68823	0.063
Mof_C 	C 	0.35616	0.38084	0.6831	0.042
Mof_C 	C 	0.36831	0.36575	0.64549	0.039
Mof_C 	C 	0.3676	0.3098	0.64178	0.034
Mof_C 	C 	0.29515	0.3337	0.71463	0.209
Mof_C 	C 	0.26248	0.3563	0.74306	0.035
Mof_C 	C 	0.2149	0.3753	0.72412	0.063
Mof_C 	C 	0.1919	0.3354	0.70258	0.032
Mof_C 	C 	0.23004	0.30764	0.67923	0.068
Mof_C 	C 	0.2086	0.2605	0.6628	0.037
Mof_C 	C 	0.10713	0.34414	0.68344	0.17
Mof_C 	C 	0.0765	0.38927	0.694	0.064
Mof_C 	C 	0.08055	0.42639	0.66439	0.071
Mof_C 	C 	0.0666	0.4047	0.62972	0.044
Mof_C 	C 	0.09372	0.35507	0.62109	0.046
Mof_C 	C 	0.0774	0.3334	0.5871	0.002
Mof_C 	C 	0.04213	0.4584	0.58054	0.183
Mof_C 	C 	0.04618	0.5165	0.58232	0.037
Mof_C 	C 	0.09652	0.53132	0.56736	0.034
Mof_C 	C 	0.10879	0.506	0.53179	0.058
Mof_C 	C 	0.0962	0.45018	0.53233	0.018
Mof_C 	C 	0.101	0.4261	0.49701	0.098
Mof_C 	C 	0.46884	0.93364	0.33492	0.186
Mof_C 	C 	0.52332	0.94044	0.33559	0.03
Mof_C 	C 	0.54645	0.89364	0.32172	0.041
Mof_C 	C 	0.52616	0.87829	0.28638	0.053
Mof_C 	C 	0.46951	0.87864	0.28605	0.006
Mof_C 	C 	0.44806	0.87201	0.24923	0.126
Mof_C 	C 	0.36998	0.83988	0.43607	0.208
Mof_C 	C 	0.41036	0.87493	0.44634	-0.037
Mof_C 	C 	0.4462	0.8837	0.41716	0.163
Mof_C 	C 	0.4186	0.89578	0.38224	0.006
Mof_C 	C 	0.3791	0.86113	0.37523	0.041
Mof_C 	C 	0.3479	0.8758	0.34324	0.047
Mof_C 	C 	0.37069	0.649	0.45738	0.179
Mof_C 	C 	0.3859	0.68173	0.48819	0.048
Mof_C 	C 	0.40543	0.73084	0.47296	0.041
Mof_C 	C 	0.36679	0.75157	0.44815	0.077
Mof_C 	C 	0.3482	0.7163	0.42185	-0.009
Mof_C 	C 	0.3033	0.7377	0.4023	0.103
Mof_C 	C 	0.50278	0.54106	0.39109	0.171
Mof_C 	C 	0.5154	0.5545	0.43053	0.046
Mof_C 	C 	0.4859	0.5983	0.44173	0.111
Mof_C 	C 	0.43177	0.59399	0.43321	0.024
Mof_C 	C 	0.42263	0.57451	0.39509	0.056
Mof_C 	C 	0.37012	0.5613	0.38816	-0.006
Mof_C 	C 	0.58527	0.62578	0.27981	0.17
Mof_C 	C 	0.62153	0.6084	0.30878	-0.009
Mof_C 	C 	0.594	0.6064	0.34338	0.095
Mof_C 	C 	0.5479	0.57348	0.33973	0.007
Mof_C 	C 	0.51623	0.58584	0.30621	0.083
Mof_C 	C 	0.4791	0.5459	0.29728	-0.048
Mof_C 	C 	0.56391	0.81424	0.25024	0.177
Mof_C 	C 	0.61619	0.79655	0.25783	0.027
Mof_C 	C 	0.61361	0.74816	0.27874	0.127
Mof_C 	C 	0.57674	0.71099	0.26244	0.012
Mof_C 	C 	0.52785	0.73465	0.25242	0.054
Mof_C 	C 	0.4951	0.7015	0.22997	0.008
Mof_C 	C 	0.03206	0.32626	0.24371	0.219
Mof_C 	C 	0.08013	0.29684	0.24987	-0.039
Mof_C 	C 	0.07048	0.24932	0.26692	0.164
Mof_C 	C 	0.02719	0.21993	0.25211	-0.002
Mof_C 	C 	0.98206	0.25281	0.24575	0.05
Mof_C 	C 	0.9422	0.2285	0.22216	0.032
Mof_C 	C 	0.0178	0.13491	0.27103	0.151
Mof_C 	C 	0.05389	0.11069	0.29784	0.065
Mof_C 	C 	0.0308	0.1142	0.3336	0.05
Mof_C 	C 	0.97633	0.09669	0.33509	0.03
Mof_C 	C 	0.94762	0.12195	0.3059	0.05
Mof_C 	C 	0.8953	0.0979	0.30304	0.027
Mof_C 	C 	0.93277	0.07785	0.3885	0.168
Mof_C 	C 	0.9494	0.0859	0.42695	0.021
Mof_C 	C 	0.93465	0.13576	0.43823	0.063
Mof_C 	C 	0.88084	0.14384	0.4331	0.042
Mof_C 	C 	0.86575	0.13169	0.39549	0.039
Mof_C 	C 	0.8098	0.1324	0.39178	0.034
Mof_C 	C 	0.8337	0.20485	0.46463	0.209
Mof_C 	C 	0.8563	0.23752	0.49306	0.035
Mof_C 	C 	0.8753	0.2851	0.47412	0.063
Mof_C 	C 	0.8354	0.3081	0.45258	0.032
Mof_C 	C 	0.80764	0.26996	0.42923	0.068
Mof_C 	C 	0.7605	0.2914	0.4128	0.037
Mof_C 	C 	0.84414	0.39287	0.43344	0.17
Mof_C 	C 	0.88927	0.4235	0.444	0.064
Mof_C 	C 	0.92639	0.41945	0.41439	0.071
Mof_C 	C 	0.9047	0.4334	0.37972	0.044
Mof_C 	C 	0.85507	0.40628	0.37109	0.046
Mof_C 	C 	0.8334	0.4226	0.3371	0.002
Mof_C 	C 	0.9584	0.45787	0.33054	0.183
Mof_C 	C 	0.0165	0.45382	0.33232	0.037
Mof_C 	C 	0.03132	0.40348	0.31736	0.034
Mof_C 	C 	0.006	0.39121	0.28179	0.058
Mof_C 	C 	0.95018	0.4038	0.28233	0.018
Mof_C 	C 	0.9261	0.399	0.24701	0.098
Mof_C 	C 	0.43364	0.03116	0.08492	0.185
Mof_C 	C 	0.44044	0.97668	0.08559	0.031
Mof_C 	C 	0.39364	0.95355	0.07172	0.04
Mof_C 	C 	0.37829	0.97384	0.03638	0.055
Mof_C 	C 	0.37864	0.03049	0.03605	-0.004
Mof_C 	C 	0.37201	0.05194	0.99923	0.145
Mof_C 	C 	0.33988	0.13002	0.18607	0.208
Mof_C 	C 	0.37493	0.08964	0.19634	-0.037
Mof_C 	C 	0.3837	0.0538	0.16716	0.163
Mof_C 	C 	0.39578	0.0814	0.13224	0.006
Mof_C 	C 	0.36113	0.1209	0.12523	0.041
Mof_C 	C 	0.3758	0.1521	0.09324	0.047
Mof_C 	C 	0.149	0.12931	0.20738	0.179
Mof_C 	C 	0.18173	0.1141	0.23819	0.048
Mof_C 	C 	0.23084	0.09457	0.22296	0.041
Mof_C 	C 	0.25157	0.13321	0.19815	0.077
Mof_C 	C 	0.2163	0.1518	0.17185	-0.01
Mof_C 	C 	0.2377	0.1967	0.1523	0.103
Mof_C 	C 	0.04106	0.99722	0.14109	0.17
Mof_C 	C 	0.0545	0.9846	0.18053	0.046
Mof_C 	C 	0.0983	0.0141	0.19173	0.111
Mof_C 	C 	0.09399	0.06823	0.18321	0.024
Mof_C 	C 	0.07451	0.07737	0.14509	0.056
Mof_C 	C 	0.0613	0.12988	0.13816	-0.006
Mof_C 	C 	0.12578	0.91473	0.02981	0.17
Mof_C 	C 	0.1084	0.87847	0.05878	-0.009
Mof_C 	C 	0.1064	0.906	0.09338	0.095
Mof_C 	C 	0.07348	0.9521	0.08973	0.007
Mof_C 	C 	0.08584	0.98377	0.05621	0.082
Mof_C 	C 	0.0459	0.0209	0.04728	-0.047
Mof_C 	C 	0.31424	0.93609	0.00024	0.168
Mof_C 	C 	0.29655	0.88381	0.00783	0.023
Mof_C 	C 	0.24816	0.88639	0.02874	0.129
Mof_C 	C 	0.21099	0.92326	0.01244	0.008
Mof_C 	C 	0.23465	0.97215	0.00242	0.045
Mof_C 	C 	0.2015	0.0049	0.97997	0.017
Mof_C 	C 	0.96794	0.67374	0.74371	0.219
Mof_C 	C 	0.91987	0.70316	0.74987	-0.039
Mof_C 	C 	0.92952	0.75068	0.76692	0.164
Mof_C 	C 	0.97281	0.78007	0.75211	-0.003
Mof_C 	C 	0.01794	0.74719	0.74575	0.05
Mof_C 	C 	0.0578	0.7715	0.72216	0.032
Mof_C 	C 	0.9822	0.86509	0.77103	0.151
Mof_C 	C 	0.94611	0.88931	0.79784	0.065
Mof_C 	C 	0.9692	0.8858	0.8336	0.05
Mof_C 	C 	0.02367	0.90331	0.83509	0.03
Mof_C 	C 	0.05238	0.87805	0.8059	0.05
Mof_C 	C 	0.1047	0.9021	0.80304	0.027
Mof_C 	C 	0.06723	0.92215	0.8885	0.169
Mof_C 	C 	0.0506	0.9141	0.92695	0.021
Mof_C 	C 	0.06535	0.86424	0.93823	0.063
Mof_C 	C 	0.11916	0.85616	0.9331	0.041
Mof_C 	C 	0.13425	0.86831	0.89549	0.039
Mof_C 	C 	0.1902	0.8676	0.89178	0.033
Mof_C 	C 	0.1663	0.79515	0.96463	0.205
Mof_C 	C 	0.1437	0.76248	0.99306	0.047
Mof_C 	C 	0.1247	0.7149	0.97412	0.066
Mof_C 	C 	0.1646	0.6919	0.95258	0.031
Mof_C 	C 	0.19236	0.73004	0.92923	0.068
Mof_C 	C 	0.2395	0.7086	0.9128	0.037
Mof_C 	C 	0.15586	0.60713	0.93344	0.169
Mof_C 	C 	0.11073	0.5765	0.944	0.065
Mof_C 	C 	0.07361	0.58055	0.91439	0.071
Mof_C 	C 	0.0953	0.5666	0.87972	0.044
Mof_C 	C 	0.14493	0.59372	0.87109	0.046
Mof_C 	C 	0.1666	0.5774	0.8371	0.002
Mof_C 	C 	0.0416	0.54213	0.83054	0.183
Mof_C 	C 	0.9835	0.54618	0.83232	0.037
Mof_C 	C 	0.96868	0.59652	0.81736	0.034
Mof_C 	C 	0.994	0.60879	0.78179	0.058
Mof_C 	C 	0.04982	0.5962	0.78233	0.018
Mof_C 	C 	0.0739	0.601	0.74701	0.098
Mof_C 	C 	0.56636	0.96884	0.58492	0.186
Mof_C 	C 	0.55956	0.02332	0.58559	0.03
Mof_C 	C 	0.60636	0.04645	0.57172	0.041
Mof_C 	C 	0.62171	0.02616	0.53638	0.053
Mof_C 	C 	0.62136	0.96951	0.53605	0.006
Mof_C 	C 	0.62799	0.94806	0.49923	0.126
Mof_C 	C 	0.66012	0.86998	0.68607	0.208
Mof_C 	C 	0.62507	0.91036	0.69634	-0.037
Mof_C 	C 	0.6163	0.9462	0.66716	0.163
Mof_C 	C 	0.60422	0.9186	0.63224	0.006
Mof_C 	C 	0.63887	0.8791	0.62523	0.041
Mof_C 	C 	0.6242	0.8479	0.59324	0.047
Mof_C 	C 	0.851	0.87069	0.70738	0.179
Mof_C 	C 	0.81827	0.8859	0.73819	0.048
Mof_C 	C 	0.76916	0.90543	0.72296	0.041
Mof_C 	C 	0.74843	0.86679	0.69815	0.077
Mof_C 	C 	0.7837	0.8482	0.67185	-0.009
Mof_C 	C 	0.7623	0.8033	0.6523	0.103
Mof_C 	C 	0.95894	0.00278	0.64109	0.17
Mof_C 	C 	0.9455	0.0154	0.68053	0.046
Mof_C 	C 	0.9017	0.9859	0.69173	0.111
Mof_C 	C 	0.90601	0.93177	0.68321	0.024
Mof_C 	C 	0.92549	0.92263	0.64509	0.056
Mof_C 	C 	0.9387	0.87012	0.63816	-0.006
Mof_C 	C 	0.87422	0.08527	0.52981	0.17
Mof_C 	C 	0.8916	0.12153	0.55878	-0.009
Mof_C 	C 	0.8936	0.094	0.59338	0.095
Mof_C 	C 	0.92652	0.0479	0.58973	0.007
Mof_C 	C 	0.91416	0.01623	0.55621	0.082
Mof_C 	C 	0.9541	0.9791	0.54728	-0.047
Mof_C 	C 	0.68576	0.06391	0.50024	0.177
Mof_C 	C 	0.70345	0.11619	0.50783	0.027
Mof_C 	C 	0.75184	0.11361	0.52874	0.127
Mof_C 	C 	0.78901	0.07674	0.51244	0.012
Mof_C 	C 	0.76535	0.02785	0.50242	0.053
Mof_C 	C 	0.7985	0.9951	0.47997	0.009
Mof_C 	C 	0.67374	0.96794	0.25629	0.219
Mof_C 	C 	0.70316	0.91987	0.25013	-0.039
Mof_C 	C 	0.75068	0.92952	0.23308	0.164
Mof_C 	C 	0.78007	0.97281	0.24789	-0.003
Mof_C 	C 	0.74719	0.01794	0.25425	0.05
Mof_C 	C 	0.7715	0.0578	0.27784	0.032
Mof_C 	C 	0.86509	0.9822	0.22897	0.151
Mof_C 	C 	0.88931	0.94611	0.20216	0.065
Mof_C 	C 	0.8858	0.9692	0.1664	0.05
Mof_C 	C 	0.90331	0.02367	0.16491	0.03
Mof_C 	C 	0.87805	0.05238	0.1941	0.05
Mof_C 	C 	0.9021	0.1047	0.19696	0.027
Mof_C 	C 	0.92215	0.06723	0.1115	0.168
Mof_C 	C 	0.9141	0.0506	0.07305	0.022
Mof_C 	C 	0.86424	0.06535	0.06177	0.062
Mof_C 	C 	0.85616	0.11916	0.0669	0.042
Mof_C 	C 	0.86831	0.13425	0.10451	0.038
Mof_C 	C 	0.8676	0.1902	0.10822	0.034
Mof_C 	C 	0.79515	0.1663	0.03537	0.214
Mof_C 	C 	0.76248	0.1437	0.00694	0.022
Mof_C 	C 	0.7149	0.1247	0.02588	0.06
Mof_C 	C 	0.6919	0.1646	0.04742	0.034
Mof_C 	C 	0.73004	0.19236	0.07077	0.067
Mof_C 	C 	0.7086	0.2395	0.0872	0.038
Mof_C 	C 	0.60713	0.15586	0.06656	0.171
Mof_C 	C 	0.5765	0.11073	0.056	0.063
Mof_C 	C 	0.58055	0.07361	0.08561	0.072
Mof_C 	C 	0.5666	0.0953	0.12028	0.044
Mof_C 	C 	0.59372	0.14493	0.12891	0.046
Mof_C 	C 	0.5774	0.1666	0.1629	0.002
Mof_C 	C 	0.54213	0.0416	0.16946	0.183
Mof_C 	C 	0.54618	0.9835	0.16768	0.037
Mof_C 	C 	0.59652	0.96868	0.18264	0.034
Mof_C 	C 	0.60879	0.994	0.21821	0.058
Mof_C 	C 	0.5962	0.04982	0.21767	0.018
Mof_C 	C 	0.601	0.0739	0.25299	0.098
Mof_C 	C 	0.96884	0.56636	0.41508	0.186
Mof_C 	C 	0.02332	0.55956	0.41441	0.03
Mof_C 	C 	0.04645	0.60636	0.42828	0.041
Mof_C 	C 	0.02616	0.62171	0.46362	0.053
Mof_C 	C 	0.96951	0.62136	0.46395	0.006
Mof_C 	C 	0.94806	0.62799	0.50077	0.126
Mof_C 	C 	0.86998	0.66012	0.31393	0.208
Mof_C 	C 	0.91036	0.62507	0.30366	-0.037
Mof_C 	C 	0.9462	0.6163	0.33284	0.163
Mof_C 	C 	0.9186	0.60422	0.36776	0.006
Mof_C 	C 	0.8791	0.63887	0.37477	0.041
Mof_C 	C 	0.8479	0.6242	0.40676	0.047
Mof_C 	C 	0.87069	0.851	0.29262	0.179
Mof_C 	C 	0.8859	0.81827	0.26181	0.048
Mof_C 	C 	0.90543	0.76916	0.27704	0.041
Mof_C 	C 	0.86679	0.74843	0.30185	0.077
Mof_C 	C 	0.8482	0.7837	0.32815	-0.009
Mof_C 	C 	0.8033	0.7623	0.3477	0.103
Mof_C 	C 	0.00278	0.95894	0.35891	0.17
Mof_C 	C 	0.0154	0.9455	0.31947	0.046
Mof_C 	C 	0.9859	0.9017	0.30827	0.111
Mof_C 	C 	0.93177	0.90601	0.31679	0.024
Mof_C 	C 	0.92263	0.92549	0.35491	0.056
Mof_C 	C 	0.87012	0.9387	0.36184	-0.006
Mof_C 	C 	0.08527	0.87422	0.47019	0.17
Mof_C 	C 	0.12153	0.8916	0.44122	-0.009
Mof_C 	C 	0.094	0.8936	0.40662	0.095
Mof_C 	C 	0.0479	0.92652	0.41027	0.007
Mof_C 	C 	0.01623	0.91416	0.44379	0.082
Mof_C 	C 	0.9791	0.9541	0.45272	-0.047
Mof_C 	C 	0.06391	0.68576	0.49976	0.177
Mof_C 	C 	0.11619	0.70345	0.49217	0.028
Mof_C 	C 	0.11361	0.75184	0.47126	0.127
Mof_C 	C 	0.07674	0.78901	0.48756	0.012
Mof_C 	C 	0.02785	0.76535	0.49758	0.053
Mof_C 	C 	0.9951	0.7985	0.52003	0.009
Mof_C 	C 	0.32626	0.03206	0.75629	0.219
Mof_C 	C 	0.29684	0.08013	0.75013	-0.039
Mof_C 	C 	0.24932	0.07048	0.73308	0.164
Mof_C 	C 	0.21993	0.02719	0.74789	-0.002
Mof_C 	C 	0.25281	0.98206	0.75425	0.05
Mof_C 	C 	0.2285	0.9422	0.77784	0.032
Mof_C 	C 	0.13491	0.0178	0.72897	0.151
Mof_C 	C 	0.11069	0.05389	0.70216	0.065
Mof_C 	C 	0.1142	0.0308	0.6664	0.05
Mof_C 	C 	0.09669	0.97633	0.66491	0.03
Mof_C 	C 	0.12195	0.94762	0.6941	0.05
Mof_C 	C 	0.0979	0.8953	0.69696	0.027
Mof_C 	C 	0.07785	0.93277	0.6115	0.168
Mof_C 	C 	0.0859	0.9494	0.57305	0.021
Mof_C 	C 	0.13576	0.93465	0.56177	0.063
Mof_C 	C 	0.14384	0.88084	0.5669	0.042
Mof_C 	C 	0.13169	0.86575	0.60451	0.039
Mof_C 	C 	0.1324	0.8098	0.60822	0.034
Mof_C 	C 	0.20485	0.8337	0.53537	0.209
Mof_C 	C 	0.23752	0.8563	0.50694	0.035
Mof_C 	C 	0.2851	0.8753	0.52588	0.063
Mof_C 	C 	0.3081	0.8354	0.54742	0.032
Mof_C 	C 	0.26996	0.80764	0.57077	0.068
Mof_C 	C 	0.2914	0.7605	0.5872	0.037
Mof_C 	C 	0.39287	0.84414	0.56656	0.17
Mof_C 	C 	0.4235	0.88927	0.556	0.064
Mof_C 	C 	0.41945	0.92639	0.58561	0.071
Mof_C 	C 	0.4334	0.9047	0.62028	0.044
Mof_C 	C 	0.40628	0.85507	0.62891	0.046
Mof_C 	C 	0.4226	0.8334	0.6629	0.002
Mof_C 	C 	0.45787	0.9584	0.66946	0.183
Mof_C 	C 	0.45382	0.0165	0.66768	0.037
Mof_C 	C 	0.40348	0.03132	0.68264	0.034
Mof_C 	C 	0.39121	0.006	0.71821	0.058
Mof_C 	C 	0.4038	0.95018	0.71767	0.018
Mof_C 	C 	0.399	0.9261	0.75299	0.098
Mof_C 	C 	0.03116	0.43364	0.91508	0.187
Mof_C 	C 	0.97668	0.44044	0.91441	0.03
Mof_C 	C 	0.95355	0.39364	0.92828	0.042
Mof_C 	C 	0.97384	0.37829	0.96362	0.05
Mof_C 	C 	0.03049	0.37864	0.96395	0.015
Mof_C 	C 	0.05194	0.37201	0.00077	0.108
Mof_C 	C 	0.13002	0.33988	0.81393	0.208
Mof_C 	C 	0.08964	0.37493	0.80366	-0.037
Mof_C 	C 	0.0538	0.3837	0.83284	0.163
Mof_C 	C 	0.0814	0.39578	0.86776	0.006
Mof_C 	C 	0.1209	0.36113	0.87477	0.042
Mof_C 	C 	0.1521	0.3758	0.90676	0.046
Mof_C 	C 	0.12931	0.149	0.79262	0.179
Mof_C 	C 	0.1141	0.18173	0.76181	0.048
Mof_C 	C 	0.09457	0.23084	0.77704	0.041
Mof_C 	C 	0.13321	0.25157	0.80185	0.077
Mof_C 	C 	0.1518	0.2163	0.82815	-0.009
Mof_C 	C 	0.1967	0.2377	0.8477	0.102
Mof_C 	C 	0.99722	0.04106	0.85891	0.17
Mof_C 	C 	0.9846	0.0545	0.81947	0.046
Mof_C 	C 	0.0141	0.0983	0.80827	0.111
Mof_C 	C 	0.06823	0.09399	0.81679	0.024
Mof_C 	C 	0.07737	0.07451	0.85491	0.056
Mof_C 	C 	0.12988	0.0613	0.86184	-0.006
Mof_C 	C 	0.91473	0.12578	0.97019	0.17
Mof_C 	C 	0.87847	0.1084	0.94122	-0.009
Mof_C 	C 	0.906	0.1064	0.90662	0.095
Mof_C 	C 	0.9521	0.07348	0.91027	0.007
Mof_C 	C 	0.98377	0.08584	0.94379	0.082
Mof_C 	C 	0.0209	0.0459	0.95272	-0.048
Mof_C 	C 	0.93609	0.31424	0.99976	0.188
Mof_C 	C 	0.88381	0.29655	0.99217	0.033
Mof_C 	C 	0.88639	0.24816	0.97126	0.125
Mof_C 	C 	0.92326	0.21099	0.98756	0.018
Mof_C 	C 	0.97215	0.23465	0.99758	0.062
Mof_C 	C 	0.0049	0.2015	0.02003	0.003
Mof_C 	C 	0.46794	0.82626	0.00629	0.214
Mof_C 	C 	0.41987	0.79684	0.00013	-0.046
Mof_C 	C 	0.42952	0.74932	0.98308	0.166
Mof_C 	C 	0.47281	0.71993	0.99789	0.013
Mof_C 	C 	0.51794	0.75281	0.00425	0.034
Mof_C 	C 	0.5578	0.7285	0.02784	0.039
Mof_C 	C 	0.4822	0.63491	0.97897	0.16
Mof_C 	C 	0.44611	0.61069	0.95216	0.062
Mof_C 	C 	0.4692	0.6142	0.9164	0.05
Mof_C 	C 	0.52367	0.59669	0.91491	0.03
Mof_C 	C 	0.55238	0.62195	0.9441	0.05
Mof_C 	C 	0.6047	0.5979	0.94696	0.027
Mof_C 	C 	0.56723	0.57785	0.8615	0.168
Mof_C 	C 	0.5506	0.5859	0.82305	0.022
Mof_C 	C 	0.56535	0.63576	0.81177	0.063
Mof_C 	C 	0.61916	0.64384	0.8169	0.042
Mof_C 	C 	0.63425	0.63169	0.85451	0.039
Mof_C 	C 	0.6902	0.6324	0.85822	0.034
Mof_C 	C 	0.6663	0.70485	0.78537	0.209
Mof_C 	C 	0.6437	0.73752	0.75694	0.035
Mof_C 	C 	0.6247	0.7851	0.77588	0.063
Mof_C 	C 	0.6646	0.8081	0.79742	0.032
Mof_C 	C 	0.69236	0.76996	0.82077	0.068
Mof_C 	C 	0.7395	0.7914	0.8372	0.037
Mof_C 	C 	0.65586	0.89287	0.81656	0.17
Mof_C 	C 	0.61073	0.9235	0.806	0.064
Mof_C 	C 	0.57361	0.91945	0.83561	0.071
Mof_C 	C 	0.5953	0.9334	0.87028	0.044
Mof_C 	C 	0.64493	0.90628	0.87891	0.046
Mof_C 	C 	0.6666	0.9226	0.9129	0.001
Mof_C 	C 	0.5416	0.95787	0.91946	0.184
Mof_C 	C 	0.4835	0.95382	0.91768	0.036
Mof_C 	C 	0.46868	0.90348	0.93264	0.036
Mof_C 	C 	0.494	0.89121	0.96821	0.055
Mof_C 	C 	0.54982	0.9038	0.96767	0.025
Mof_C 	C 	0.5739	0.899	0.00299	0.091
Mof_C 	C 	0.06636	0.53116	0.16508	0.186
Mof_C 	C 	0.05956	0.47668	0.16441	0.03
Mof_C 	C 	0.10636	0.45355	0.17828	0.041
Mof_C 	C 	0.12171	0.47384	0.21362	0.053
Mof_C 	C 	0.12136	0.53049	0.21395	0.006
Mof_C 	C 	0.12799	0.55194	0.25077	0.126
Mof_C 	C 	0.16012	0.63002	0.06393	0.207
Mof_C 	C 	0.12507	0.58964	0.05366	-0.036
Mof_C 	C 	0.1163	0.5538	0.08284	0.163
Mof_C 	C 	0.10422	0.5814	0.11776	0.006
Mof_C 	C 	0.13887	0.6209	0.12477	0.041
Mof_C 	C 	0.1242	0.6521	0.15676	0.047
Mof_C 	C 	0.351	0.62931	0.04262	0.184
Mof_C 	C 	0.31827	0.6141	0.01181	0.032
Mof_C 	C 	0.26916	0.59457	0.02704	0.046
Mof_C 	C 	0.24843	0.63321	0.05185	0.075
Mof_C 	C 	0.2837	0.6518	0.07815	-0.008
Mof_C 	C 	0.2623	0.6967	0.0977	0.101
Mof_C 	C 	0.45894	0.49722	0.10891	0.171
Mof_C 	C 	0.4455	0.4846	0.06947	0.046
Mof_C 	C 	0.4017	0.5141	0.05827	0.111
Mof_C 	C 	0.40601	0.56823	0.06679	0.025
Mof_C 	C 	0.42549	0.57737	0.10491	0.056
Mof_C 	C 	0.4387	0.62988	0.11184	-0.006
Mof_C 	C 	0.37422	0.41473	0.22019	0.17
Mof_C 	C 	0.3916	0.37847	0.19122	-0.009
Mof_C 	C 	0.3936	0.406	0.15662	0.095
Mof_C 	C 	0.42652	0.4521	0.16027	0.007
Mof_C 	C 	0.41416	0.48377	0.19379	0.083
Mof_C 	C 	0.4541	0.5209	0.20272	-0.048
Mof_C 	C 	0.18576	0.43609	0.24976	0.177
Mof_C 	C 	0.20345	0.38381	0.24217	0.027
Mof_C 	C 	0.25184	0.38639	0.22126	0.127
Mof_C 	C 	0.28901	0.42326	0.23756	0.012
Mof_C 	C 	0.26535	0.47215	0.24758	0.054
Mof_C 	C 	0.2985	0.5049	0.27003	0.008
Mof_C 	C 	0.53206	0.17374	0.50629	0.219
Mof_C 	C 	0.58013	0.20316	0.50013	-0.039
Mof_C 	C 	0.57048	0.25068	0.48308	0.164
Mof_C 	C 	0.52719	0.28007	0.49789	-0.003
Mof_C 	C 	0.48206	0.24719	0.50425	0.05
Mof_C 	C 	0.4422	0.2715	0.52784	0.031
Mof_C 	C 	0.5178	0.36509	0.47897	0.15
Mof_C 	C 	0.55389	0.38931	0.45216	0.065
Mof_C 	C 	0.5308	0.3858	0.4164	0.049
Mof_C 	C 	0.47633	0.40331	0.41491	0.03
Mof_C 	C 	0.44762	0.37805	0.4441	0.05
Mof_C 	C 	0.3953	0.4021	0.44696	0.027
Mof_C 	C 	0.43277	0.42215	0.3615	0.168
Mof_C 	C 	0.4494	0.4141	0.32305	0.022
Mof_C 	C 	0.43465	0.36424	0.31177	0.063
Mof_C 	C 	0.38084	0.35616	0.3169	0.042
Mof_C 	C 	0.36575	0.36831	0.35451	0.039
Mof_C 	C 	0.3098	0.3676	0.35822	0.034
Mof_C 	C 	0.3337	0.29515	0.28537	0.209
Mof_C 	C 	0.3563	0.26248	0.25694	0.035
Mof_C 	C 	0.3753	0.2149	0.27588	0.063
Mof_C 	C 	0.3354	0.1919	0.29742	0.032
Mof_C 	C 	0.30764	0.23004	0.32077	0.068
Mof_C 	C 	0.2605	0.2086	0.3372	0.037
Mof_C 	C 	0.34414	0.10713	0.31656	0.17
Mof_C 	C 	0.38927	0.0765	0.306	0.064
Mof_C 	C 	0.42639	0.08055	0.33561	0.071
Mof_C 	C 	0.4047	0.0666	0.37028	0.044
Mof_C 	C 	0.35507	0.09372	0.37891	0.046
Mof_C 	C 	0.3334	0.0774	0.4129	0.002
Mof_C 	C 	0.4584	0.04213	0.41946	0.183
Mof_C 	C 	0.5165	0.04618	0.41768	0.037
Mof_C 	C 	0.53132	0.09652	0.43264	0.034
Mof_C 	C 	0.506	0.10879	0.46821	0.058
Mof_C 	C 	0.45018	0.0962	0.46767	0.018
Mof_C 	C 	0.4261	0.101	0.50299	0.098
Mof_C 	C 	0.93364	0.46884	0.66508	0.186
Mof_C 	C 	0.94044	0.52332	0.66441	0.03
Mof_C 	C 	0.89364	0.54645	0.67828	0.041
Mof_C 	C 	0.87829	0.52616	0.71362	0.053
Mof_C 	C 	0.87864	0.46951	0.71395	0.006
Mof_C 	C 	0.87201	0.44806	0.75077	0.126
Mof_C 	C 	0.83988	0.36998	0.56393	0.208
Mof_C 	C 	0.87493	0.41036	0.55366	-0.037
Mof_C 	C 	0.8837	0.4462	0.58284	0.163
Mof_C 	C 	0.89578	0.4186	0.61776	0.006
Mof_C 	C 	0.86113	0.3791	0.62477	0.041
Mof_C 	C 	0.8758	0.3479	0.65676	0.047
Mof_C 	C 	0.649	0.37069	0.54262	0.179
Mof_C 	C 	0.68173	0.3859	0.51181	0.048
Mof_C 	C 	0.73084	0.40543	0.52704	0.041
Mof_C 	C 	0.75157	0.36679	0.55185	0.077
Mof_C 	C 	0.7163	0.3482	0.57815	-0.009
Mof_C 	C 	0.7377	0.3033	0.5977	0.103
Mof_C 	C 	0.54106	0.50278	0.60891	0.171
Mof_C 	C 	0.5545	0.5154	0.56947	0.046
Mof_C 	C 	0.5983	0.4859	0.55827	0.111
Mof_C 	C 	0.59399	0.43177	0.56679	0.024
Mof_C 	C 	0.57451	0.42263	0.60491	0.056
Mof_C 	C 	0.5613	0.37012	0.61184	-0.006
Mof_C 	C 	0.62578	0.58527	0.72019	0.17
Mof_C 	C 	0.6084	0.62153	0.69122	-0.009
Mof_C 	C 	0.6064	0.594	0.65662	0.095
Mof_C 	C 	0.57348	0.5479	0.66027	0.007
Mof_C 	C 	0.58584	0.51623	0.69379	0.083
Mof_C 	C 	0.5459	0.4791	0.70272	-0.048
Mof_C 	C 	0.81424	0.56391	0.74976	0.177
Mof_C 	C 	0.79655	0.61619	0.74217	0.027
Mof_C 	C 	0.74816	0.61361	0.72126	0.127
Mof_C 	C 	0.71099	0.57674	0.73756	0.012
Mof_C 	C 	0.73465	0.52785	0.74758	0.054
Mof_C 	C 	0.7015	0.4951	0.77003	0.008
Mof_O 	O 	0.975	0.6765	0.0867	-0.266
Mof_O 	O 	0.6667	0.0739	0.8434	-0.307
Mof_O 	O 	0.79681	0.50277	0.97609	-0.219
Mof_O 	O 	0.82474	0.3849	0.01812	-0.369
Mof_O 	O 	0.71995	0.38637	0.01649	-0.675
Mof_O 	O 	0.68426	0.48568	0.02871	-0.203
Mof_O 	O 	0.7554	0.60007	0.97028	-0.253
Mof_O 	O 	0.61204	0.52993	0.02242	-0.225
Mof_O 	O 	0.63015	0.4	0.04486	-0.319
Mof_O 	O 	0.58767	0.44078	0.10907	-0.262
Mof_O 	O 	0.61247	0.54241	0.11871	-0.208
Mof_O 	O 	0.54601	0.6041	0.04911	-0.277
Mof_O 	O 	0.58244	0.61867	0.13601	-0.198
Mof_O 	O 	0.57672	0.49877	0.1787	-0.255
Mof_O 	O 	0.64457	0.55165	0.22388	-0.251
Mof_O 	O 	0.69344	0.63062	0.18985	-0.226
Mof_O 	O 	0.59829	0.71455	0.1645	-0.259
Mof_O 	O 	0.72922	0.70706	0.19972	-0.505
Mof_O 	O 	0.71464	0.60396	0.26042	-0.277
Mof_O 	O 	0.81787	0.60709	0.2502	-0.285
Mof_O 	O 	0.84358	0.64313	0.17974	-0.215
Mof_O 	O 	0.8097	0.77036	0.18979	-0.44
Mof_O 	O 	0.91145	0.67714	0.15105	-0.215
Mof_O 	O 	0.90753	0.5915	0.22525	-0.574
Mof_O 	O 	0.9509	0.53237	0.17278	-0.558
Mof_O 	O 	0.92135	0.56026	0.10344	-0.219
Mof_O 	O 	0.95143	0.55754	0.0458	-0.466
Mof_O 	O 	0.96181	0.46522	0.11668	-0.224
Mof_O 	O 	0.90307	0.41646	0.06361	-0.275
Mof_O 	O 	0.83983	0.48583	0.02666	-0.233
Mof_O 	O 	0.93515	0.55255	0.97528	-0.503
Mof_O 	O 	0.5475	0.07412	0.79907	-0.504
Mof_O 	O 	0.46078	0.05123	0.87162	-0.303
Mof_O 	O 	0.40051	0.09818	0.81779	-0.279
Mof_O 	O 	0.45934	0.17281	0.78173	-0.219
Mof_O 	O 	0.53461	0.09312	0.72535	-0.598
Mof_O 	O 	0.65457	0.14208	0.90463	-0.222
Mof_O 	O 	0.56431	0.14213	0.97654	-0.346
Mof_O 	O 	0.5217	0.07792	0.92656	-0.601
Mof_O 	O 	0.54489	0.10823	0.85515	-0.211
Mof_O 	O 	0.6681	0.32721	0.93884	-0.369
Mof_O 	O 	0.57852	0.34132	0.01081	-0.289
Mof_O 	O 	0.58096	0.23699	0.99985	-0.293
Mof_O 	O 	0.61057	0.20726	0.92971	-0.237
Mof_O 	O 	0.73436	0.2478	0.92553	-0.459
Mof_O 	O 	0.54706	0.4676	0.88811	-0.223
Mof_O 	O 	0.43415	0.4389	0.93303	-0.565
Mof_O 	O 	0.5046	0.39512	0.97772	-0.558
Mof_O 	O 	0.58924	0.35927	0.93606	-0.228
Mof_O 	O 	0.65078	0.47152	0.91513	-0.261
Mof_O 	O 	0.45494	0.40763	0.77531	-0.2
Mof_O 	O 	0.33586	0.36297	0.80935	-0.237
Mof_O 	O 	0.37788	0.41215	0.87085	-0.278
Mof_O 	O 	0.48213	0.41837	0.87022	-0.223
Mof_O 	O 	0.49682	0.4973	0.78258	-0.137
Mof_O 	O 	0.46571	0.22203	0.731	-0.204
Mof_O 	O 	0.35666	0.16994	0.77581	-0.483
Mof_O 	O 	0.34014	0.27192	0.78142	-0.597
Mof_O 	O 	0.43239	0.32679	0.78741	-0.216
Mof_O 	O 	0.5529	0.27911	0.72625	-0.256
Mof_O 	O 	0.025	0.3235	0.5867	-0.266
Mof_O 	O 	0.3333	0.9261	0.3434	-0.307
Mof_O 	O 	0.20319	0.49723	0.47609	-0.216
Mof_O 	O 	0.17526	0.6151	0.51812	-0.362
Mof_O 	O 	0.28005	0.61363	0.51649	-0.671
Mof_O 	O 	0.31574	0.51432	0.52871	-0.207
Mof_O 	O 	0.2446	0.39993	0.47028	-0.256
Mof_O 	O 	0.38796	0.47007	0.52242	-0.225
Mof_O 	O 	0.36985	0.6	0.54486	-0.317
Mof_O 	O 	0.41233	0.55922	0.60907	-0.262
Mof_O 	O 	0.38753	0.45759	0.61871	-0.208
Mof_O 	O 	0.45399	0.3959	0.54911	-0.277
Mof_O 	O 	0.41756	0.38133	0.63601	-0.198
Mof_O 	O 	0.42328	0.50123	0.6787	-0.255
Mof_O 	O 	0.35543	0.44835	0.72388	-0.251
Mof_O 	O 	0.30656	0.36938	0.68985	-0.226
Mof_O 	O 	0.40171	0.28545	0.6645	-0.259
Mof_O 	O 	0.27078	0.29294	0.69972	-0.505
Mof_O 	O 	0.28536	0.39604	0.76042	-0.277
Mof_O 	O 	0.18213	0.39291	0.7502	-0.285
Mof_O 	O 	0.15642	0.35687	0.67974	-0.215
Mof_O 	O 	0.1903	0.22964	0.68979	-0.44
Mof_O 	O 	0.08855	0.32286	0.65105	-0.215
Mof_O 	O 	0.09247	0.4085	0.72525	-0.574
Mof_O 	O 	0.0491	0.46763	0.67278	-0.558
Mof_O 	O 	0.07865	0.43974	0.60344	-0.219
Mof_O 	O 	0.04857	0.44246	0.5458	-0.465
Mof_O 	O 	0.03819	0.53478	0.61668	-0.224
Mof_O 	O 	0.09693	0.58354	0.56361	-0.275
Mof_O 	O 	0.16017	0.51417	0.52666	-0.229
Mof_O 	O 	0.06485	0.44745	0.47528	-0.501
Mof_O 	O 	0.4525	0.92588	0.29907	-0.504
Mof_O 	O 	0.53922	0.94877	0.37162	-0.303
Mof_O 	O 	0.59949	0.90182	0.31779	-0.28
Mof_O 	O 	0.54066	0.82719	0.28173	-0.22
Mof_O 	O 	0.46539	0.90688	0.22535	-0.598
Mof_O 	O 	0.34543	0.85792	0.40463	-0.222
Mof_O 	O 	0.43569	0.85787	0.47654	-0.35
Mof_O 	O 	0.4783	0.92208	0.42656	-0.604
Mof_O 	O 	0.45511	0.89177	0.35515	-0.211
Mof_O 	O 	0.3319	0.67279	0.43884	-0.369
Mof_O 	O 	0.42148	0.65868	0.51081	-0.279
Mof_O 	O 	0.41904	0.76301	0.49985	-0.297
Mof_O 	O 	0.38943	0.79274	0.42971	-0.236
Mof_O 	O 	0.26564	0.7522	0.42553	-0.457
Mof_O 	O 	0.45294	0.5324	0.38811	-0.223
Mof_O 	O 	0.56585	0.5611	0.43303	-0.568
Mof_O 	O 	0.4954	0.60488	0.47772	-0.563
Mof_O 	O 	0.41076	0.64073	0.43606	-0.229
Mof_O 	O 	0.34922	0.52848	0.41513	-0.261
Mof_O 	O 	0.54506	0.59237	0.27531	-0.2
Mof_O 	O 	0.66414	0.63703	0.30935	-0.237
Mof_O 	O 	0.62212	0.58785	0.37085	-0.278
Mof_O 	O 	0.51787	0.58163	0.37022	-0.223
Mof_O 	O 	0.50318	0.5027	0.28258	-0.137
Mof_O 	O 	0.53429	0.77797	0.231	-0.204
Mof_O 	O 	0.64334	0.83006	0.27581	-0.483
Mof_O 	O 	0.65986	0.72808	0.28142	-0.597
Mof_O 	O 	0.56761	0.67321	0.28741	-0.216
Mof_O 	O 	0.4471	0.72089	0.22625	-0.256
Mof_O 	O 	0.8235	0.475	0.3367	-0.266
Mof_O 	O 	0.4261	0.1667	0.0934	-0.308
Mof_O 	O 	0.99723	0.29681	0.22609	-0.216
Mof_O 	O 	0.1151	0.32474	0.26812	-0.362
Mof_O 	O 	0.11363	0.21995	0.26649	-0.671
Mof_O 	O 	0.01432	0.18426	0.27871	-0.207
Mof_O 	O 	0.89993	0.2554	0.22028	-0.256
Mof_O 	O 	0.97007	0.11204	0.27242	-0.225
Mof_O 	O 	0.1	0.13015	0.29486	-0.317
Mof_O 	O 	0.05922	0.08767	0.35907	-0.262
Mof_O 	O 	0.95759	0.11247	0.36871	-0.208
Mof_O 	O 	0.8959	0.04601	0.29911	-0.277
Mof_O 	O 	0.88133	0.08244	0.38601	-0.198
Mof_O 	O 	0.00123	0.07672	0.4287	-0.254
Mof_O 	O 	0.94835	0.14457	0.47388	-0.251
Mof_O 	O 	0.86938	0.19344	0.43985	-0.225
Mof_O 	O 	0.78545	0.09829	0.4145	-0.259
Mof_O 	O 	0.79294	0.22922	0.44972	-0.505
Mof_O 	O 	0.89604	0.21464	0.51042	-0.277
Mof_O 	O 	0.89291	0.31787	0.5002	-0.285
Mof_O 	O 	0.85687	0.34358	0.42974	-0.215
Mof_O 	O 	0.72964	0.3097	0.43979	-0.44
Mof_O 	O 	0.82286	0.41145	0.40105	-0.215
Mof_O 	O 	0.9085	0.40753	0.47525	-0.574
Mof_O 	O 	0.96763	0.4509	0.42278	-0.558
Mof_O 	O 	0.93974	0.42135	0.35344	-0.219
Mof_O 	O 	0.94246	0.45143	0.2958	-0.465
Mof_O 	O 	0.03478	0.46181	0.36668	-0.224
Mof_O 	O 	0.08354	0.40307	0.31361	-0.275
Mof_O 	O 	0.01417	0.33983	0.27666	-0.228
Mof_O 	O 	0.94745	0.43515	0.22528	-0.501
Mof_O 	O 	0.42588	0.0475	0.04907	-0.501
Mof_O 	O 	0.44877	0.96078	0.12162	-0.303
Mof_O 	O 	0.40182	0.90051	0.06779	-0.279
Mof_O 	O 	0.32719	0.95934	0.03173	-0.219
Mof_O 	O 	0.40688	0.03461	0.97535	-0.598
Mof_O 	O 	0.35792	0.15457	0.15463	-0.222
Mof_O 	O 	0.35787	0.06431	0.22654	-0.35
Mof_O 	O 	0.42208	0.0217	0.17656	-0.604
Mof_O 	O 	0.39177	0.04489	0.10515	-0.211
Mof_O 	O 	0.17279	0.1681	0.18884	-0.37
Mof_O 	O 	0.15868	0.07852	0.26081	-0.279
Mof_O 	O 	0.26301	0.08096	0.24985	-0.297
Mof_O 	O 	0.29274	0.11057	0.17971	-0.236
Mof_O 	O 	0.2522	0.23436	0.17553	-0.457
Mof_O 	O 	0.0324	0.04706	0.13811	-0.223
Mof_O 	O 	0.0611	0.93415	0.18303	-0.568
Mof_O 	O 	0.10488	0.0046	0.22772	-0.562
Mof_O 	O 	0.14073	0.08924	0.18606	-0.229
Mof_O 	O 	0.02848	0.15078	0.16513	-0.261
Mof_O 	O 	0.09237	0.95494	0.02531	-0.201
Mof_O 	O 	0.13703	0.83586	0.05935	-0.237
Mof_O 	O 	0.08785	0.87788	0.12085	-0.278
Mof_O 	O 	0.08163	0.98213	0.12022	-0.223
Mof_O 	O 	0.0027	0.99682	0.03258	-0.139
Mof_O 	O 	0.27797	0.96571	0.981	-0.197
Mof_O 	O 	0.33006	0.85666	0.02581	-0.481
Mof_O 	O 	0.22808	0.84014	0.03142	-0.597
Mof_O 	O 	0.17321	0.93239	0.03741	-0.215
Mof_O 	O 	0.22089	0.0529	0.97625	-0.256
Mof_O 	O 	0.1765	0.525	0.8367	-0.266
Mof_O 	O 	0.5739	0.8333	0.5934	-0.307
Mof_O 	O 	0.00277	0.70319	0.72609	-0.216
Mof_O 	O 	0.8849	0.67526	0.76812	-0.362
Mof_O 	O 	0.88637	0.78005	0.76649	-0.671
Mof_O 	O 	0.98568	0.81574	0.77871	-0.207
Mof_O 	O 	0.10007	0.7446	0.72028	-0.256
Mof_O 	O 	0.02993	0.88796	0.77242	-0.225
Mof_O 	O 	0.9	0.86985	0.79486	-0.317
Mof_O 	O 	0.94078	0.91233	0.85907	-0.262
Mof_O 	O 	0.04241	0.88753	0.86871	-0.208
Mof_O 	O 	0.1041	0.95399	0.79911	-0.278
Mof_O 	O 	0.11867	0.91756	0.88601	-0.198
Mof_O 	O 	0.99877	0.92328	0.9287	-0.254
Mof_O 	O 	0.05165	0.85543	0.97388	-0.249
Mof_O 	O 	0.13062	0.80656	0.93985	-0.224
Mof_O 	O 	0.21455	0.90171	0.9145	-0.259
Mof_O 	O 	0.20706	0.77078	0.94972	-0.502
Mof_O 	O 	0.10396	0.78536	0.01042	-0.283
Mof_O 	O 	0.10709	0.68213	0.0002	-0.292
Mof_O 	O 	0.14313	0.65642	0.92974	-0.214
Mof_O 	O 	0.27036	0.6903	0.93979	-0.438
Mof_O 	O 	0.17714	0.58855	0.90105	-0.215
Mof_O 	O 	0.0915	0.59247	0.97525	-0.576
Mof_O 	O 	0.03237	0.5491	0.92278	-0.559
Mof_O 	O 	0.06026	0.57865	0.85344	-0.219
Mof_O 	O 	0.05754	0.54857	0.7958	-0.465
Mof_O 	O 	0.96522	0.53819	0.86668	-0.224
Mof_O 	O 	0.91646	0.59693	0.81361	-0.275
Mof_O 	O 	0.98583	0.66017	0.77666	-0.228
Mof_O 	O 	0.05255	0.56485	0.72528	-0.501
Mof_O 	O 	0.57412	0.9525	0.54907	-0.504
Mof_O 	O 	0.55123	0.03922	0.62162	-0.303
Mof_O 	O 	0.59818	0.09949	0.56779	-0.28
Mof_O 	O 	0.67281	0.04066	0.53173	-0.219
Mof_O 	O 	0.59312	0.96539	0.47535	-0.598
Mof_O 	O 	0.64208	0.84543	0.65463	-0.222
Mof_O 	O 	0.64213	0.93569	0.72654	-0.35
Mof_O 	O 	0.57792	0.9783	0.67656	-0.603
Mof_O 	O 	0.60823	0.95511	0.60515	-0.211
Mof_O 	O 	0.82721	0.8319	0.68884	-0.369
Mof_O 	O 	0.84132	0.92148	0.76081	-0.279
Mof_O 	O 	0.73699	0.91904	0.74985	-0.297
Mof_O 	O 	0.70726	0.88943	0.67971	-0.236
Mof_O 	O 	0.7478	0.76564	0.67553	-0.457
Mof_O 	O 	0.9676	0.95294	0.63811	-0.223
Mof_O 	O 	0.9389	0.06585	0.68303	-0.568
Mof_O 	O 	0.89512	0.9954	0.72772	-0.562
Mof_O 	O 	0.85927	0.91076	0.68606	-0.229
Mof_O 	O 	0.97152	0.84922	0.66513	-0.261
Mof_O 	O 	0.90763	0.04506	0.52531	-0.199
Mof_O 	O 	0.86297	0.16414	0.55935	-0.237
Mof_O 	O 	0.91215	0.12212	0.62085	-0.278
Mof_O 	O 	0.91837	0.01787	0.62022	-0.223
Mof_O 	O 	0.9973	0.00318	0.53258	-0.138
Mof_O 	O 	0.72203	0.03429	0.481	-0.204
Mof_O 	O 	0.66994	0.14334	0.52581	-0.483
Mof_O 	O 	0.77192	0.15986	0.53142	-0.597
Mof_O 	O 	0.82679	0.06761	0.53741	-0.216
Mof_O 	O 	0.77911	0.9471	0.47625	-0.256
Mof_O 	O 	0.525	0.1765	0.1633	-0.266
Mof_O 	O 	0.8333	0.5739	0.4066	-0.307
Mof_O 	O 	0.70319	0.00277	0.27391	-0.216
Mof_O 	O 	0.67526	0.8849	0.23188	-0.362
Mof_O 	O 	0.78005	0.88637	0.23351	-0.671
Mof_O 	O 	0.81574	0.98568	0.22129	-0.207
Mof_O 	O 	0.7446	0.10007	0.27972	-0.256
Mof_O 	O 	0.88796	0.02993	0.22758	-0.225
Mof_O 	O 	0.86985	0.9	0.20514	-0.317
Mof_O 	O 	0.91233	0.94078	0.14093	-0.262
Mof_O 	O 	0.88753	0.04241	0.13129	-0.208
Mof_O 	O 	0.95399	0.1041	0.20089	-0.277
Mof_O 	O 	0.91756	0.11867	0.11399	-0.198
Mof_O 	O 	0.92328	0.99877	0.0713	-0.254
Mof_O 	O 	0.85543	0.05165	0.02612	-0.252
Mof_O 	O 	0.80656	0.13062	0.06015	-0.227
Mof_O 	O 	0.90171	0.21455	0.0855	-0.259
Mof_O 	O 	0.77078	0.20706	0.05028	-0.509
Mof_O 	O 	0.78536	0.10396	0.98958	-0.27
Mof_O 	O 	0.68213	0.10709	0.9998	-0.277
Mof_O 	O 	0.65642	0.14313	0.07026	-0.215
Mof_O 	O 	0.6903	0.27036	0.06021	-0.443
Mof_O 	O 	0.58855	0.17714	0.09895	-0.215
Mof_O 	O 	0.59247	0.0915	0.02475	-0.573
Mof_O 	O 	0.5491	0.03237	0.07722	-0.557
Mof_O 	O 	0.57865	0.06026	0.14656	-0.219
Mof_O 	O 	0.54857	0.05754	0.2042	-0.465
Mof_O 	O 	0.53819	0.96522	0.13332	-0.224
Mof_O 	O 	0.59693	0.91646	0.18639	-0.275
Mof_O 	O 	0.66017	0.98583	0.22334	-0.228
Mof_O 	O 	0.56485	0.05255	0.27472	-0.501
Mof_O 	O 	0.9525	0.57412	0.45093	-0.504
Mof_O 	O 	0.03922	0.55123	0.37838	-0.303
Mof_O 	O 	0.09949	0.59818	0.43221	-0.28
Mof_O 	O 	0.04066	0.67281	0.46827	-0.219
Mof_O 	O 	0.96539	0.59312	0.52465	-0.598
Mof_O 	O 	0.84543	0.64208	0.34537	-0.222
Mof_O 	O 	0.93569	0.64213	0.27346	-0.35
Mof_O 	O 	0.9783	0.57792	0.32344	-0.603
Mof_O 	O 	0.95511	0.60823	0.39485	-0.211
Mof_O 	O 	0.8319	0.82721	0.31116	-0.369
Mof_O 	O 	0.92148	0.84132	0.23919	-0.279
Mof_O 	O 	0.91904	0.73699	0.25015	-0.297
Mof_O 	O 	0.88943	0.70726	0.32029	-0.236
Mof_O 	O 	0.76564	0.7478	0.32447	-0.457
Mof_O 	O 	0.95294	0.9676	0.36189	-0.223
Mof_O 	O 	0.06585	0.9389	0.31697	-0.568
Mof_O 	O 	0.9954	0.89512	0.27228	-0.562
Mof_O 	O 	0.91076	0.85927	0.31394	-0.229
Mof_O 	O 	0.84922	0.97152	0.33487	-0.261
Mof_O 	O 	0.04506	0.90763	0.47469	-0.199
Mof_O 	O 	0.16414	0.86297	0.44065	-0.237
Mof_O 	O 	0.12212	0.91215	0.37915	-0.278
Mof_O 	O 	0.01787	0.91837	0.37978	-0.223
Mof_O 	O 	0.00318	0.9973	0.46742	-0.138
Mof_O 	O 	0.03429	0.72203	0.519	-0.204
Mof_O 	O 	0.14334	0.66994	0.47419	-0.483
Mof_O 	O 	0.15986	0.77192	0.46858	-0.597
Mof_O 	O 	0.06761	0.82679	0.46259	-0.216
Mof_O 	O 	0.9471	0.77911	0.52375	-0.256
Mof_O 	O 	0.475	0.8235	0.6633	-0.266
Mof_O 	O 	0.1667	0.4261	0.9066	-0.307
Mof_O 	O 	0.29681	0.99723	0.77391	-0.216
Mof_O 	O 	0.32474	0.1151	0.73188	-0.362
Mof_O 	O 	0.21995	0.11363	0.73351	-0.671
Mof_O 	O 	0.18426	0.01432	0.72129	-0.207
Mof_O 	O 	0.2554	0.89993	0.77972	-0.256
Mof_O 	O 	0.11204	0.97007	0.72758	-0.225
Mof_O 	O 	0.13015	0.1	0.70514	-0.317
Mof_O 	O 	0.08767	0.05922	0.64093	-0.262
Mof_O 	O 	0.11247	0.95759	0.63129	-0.208
Mof_O 	O 	0.04601	0.8959	0.70089	-0.277
Mof_O 	O 	0.08244	0.88133	0.61399	-0.198
Mof_O 	O 	0.07672	0.00123	0.5713	-0.254
Mof_O 	O 	0.14457	0.94835	0.52612	-0.251
Mof_O 	O 	0.19344	0.86938	0.56015	-0.225
Mof_O 	O 	0.09829	0.78545	0.5855	-0.259
Mof_O 	O 	0.22922	0.79294	0.55028	-0.505
Mof_O 	O 	0.21464	0.89604	0.48958	-0.277
Mof_O 	O 	0.31787	0.89291	0.4998	-0.285
Mof_O 	O 	0.34358	0.85687	0.57026	-0.215
Mof_O 	O 	0.3097	0.72964	0.56021	-0.44
Mof_O 	O 	0.41145	0.82286	0.59895	-0.215
Mof_O 	O 	0.40753	0.9085	0.52475	-0.574
Mof_O 	O 	0.4509	0.96763	0.57722	-0.558
Mof_O 	O 	0.42135	0.93974	0.64656	-0.219
Mof_O 	O 	0.45143	0.94246	0.7042	-0.465
Mof_O 	O 	0.46181	0.03478	0.63332	-0.224
Mof_O 	O 	0.40307	0.08354	0.68639	-0.275
Mof_O 	O 	0.33983	0.01417	0.72334	-0.228
Mof_O 	O 	0.43515	0.94745	0.77472	-0.501
Mof_O 	O 	0.0475	0.42588	0.95093	-0.507
Mof_O 	O 	0.96078	0.44877	0.87838	-0.303
Mof_O 	O 	0.90051	0.40182	0.93221	-0.28
Mof_O 	O 	0.95934	0.32719	0.96827	-0.22
Mof_O 	O 	0.03461	0.40688	0.02465	-0.598
Mof_O 	O 	0.15457	0.35792	0.84537	-0.222
Mof_O 	O 	0.06431	0.35787	0.77346	-0.35
Mof_O 	O 	0.0217	0.42208	0.82344	-0.603
Mof_O 	O 	0.04489	0.39177	0.89485	-0.211
Mof_O 	O 	0.1681	0.17279	0.81116	-0.369
Mof_O 	O 	0.07852	0.15868	0.73919	-0.279
Mof_O 	O 	0.08096	0.26301	0.75015	-0.297
Mof_O 	O 	0.11057	0.29274	0.82029	-0.236
Mof_O 	O 	0.23436	0.2522	0.82447	-0.457
Mof_O 	O 	0.04706	0.0324	0.86189	-0.223
Mof_O 	O 	0.93415	0.0611	0.81697	-0.568
Mof_O 	O 	0.0046	0.10488	0.77228	-0.562
Mof_O 	O 	0.08924	0.14073	0.81394	-0.229
Mof_O 	O 	0.15078	0.02848	0.83487	-0.261
Mof_O 	O 	0.95494	0.09237	0.97469	-0.198
Mof_O 	O 	0.83586	0.13703	0.94065	-0.237
Mof_O 	O 	0.87788	0.08785	0.87915	-0.278
Mof_O 	O 	0.98213	0.08163	0.87978	-0.223
Mof_O 	O 	0.99682	0.0027	0.96742	-0.136
Mof_O 	O 	0.96571	0.27797	0.019	-0.211
Mof_O 	O 	0.85666	0.33006	0.97419	-0.486
Mof_O 	O 	0.84014	0.22808	0.96858	-0.597
Mof_O 	O 	0.93239	0.17321	0.96259	-0.216
Mof_O 	O 	0.0529	0.22089	0.02375	-0.256
Mof_O 	O 	0.6765	0.975	0.9133	-0.265
Mof_O 	O 	0.0739	0.6667	0.1566	-0.307
Mof_O 	O 	0.50277	0.79681	0.02391	-0.213
Mof_O 	O 	0.3849	0.82474	0.98188	-0.356
Mof_O 	O 	0.38637	0.71995	0.98351	-0.667
Mof_O 	O 	0.48568	0.68426	0.97129	-0.211
Mof_O 	O 	0.60007	0.7554	0.02972	-0.259
Mof_O 	O 	0.52993	0.61204	0.97758	-0.224
Mof_O 	O 	0.4	0.63015	0.95514	-0.316
Mof_O 	O 	0.44078	0.58767	0.89093	-0.262
Mof_O 	O 	0.54241	0.61247	0.88129	-0.208
Mof_O 	O 	0.6041	0.54601	0.95089	-0.278
Mof_O 	O 	0.61867	0.58244	0.86399	-0.198
Mof_O 	O 	0.49877	0.57672	0.8213	-0.255
Mof_O 	O 	0.55165	0.64457	0.77612	-0.251
Mof_O 	O 	0.63062	0.69344	0.81015	-0.225
Mof_O 	O 	0.71455	0.59829	0.8355	-0.259
Mof_O 	O 	0.70706	0.72922	0.80028	-0.505
Mof_O 	O 	0.60396	0.71464	0.73958	-0.277
Mof_O 	O 	0.60709	0.81787	0.7498	-0.285
Mof_O 	O 	0.64313	0.84358	0.82026	-0.215
Mof_O 	O 	0.77036	0.8097	0.81021	-0.44
Mof_O 	O 	0.67714	0.91145	0.84895	-0.215
Mof_O 	O 	0.5915	0.90753	0.77475	-0.574
Mof_O 	O 	0.53237	0.9509	0.82722	-0.558
Mof_O 	O 	0.56026	0.92135	0.89656	-0.219
Mof_O 	O 	0.55754	0.95143	0.9542	-0.463
Mof_O 	O 	0.46522	0.96181	0.88332	-0.224
Mof_O 	O 	0.41646	0.90307	0.93639	-0.275
Mof_O 	O 	0.48583	0.83983	0.97334	-0.224
Mof_O 	O 	0.55255	0.93515	0.02472	-0.5
Mof_O 	O 	0.07412	0.5475	0.20093	-0.504
Mof_O 	O 	0.05123	0.46078	0.12838	-0.304
Mof_O 	O 	0.09818	0.40051	0.18221	-0.28
Mof_O 	O 	0.17281	0.45934	0.21827	-0.22
Mof_O 	O 	0.09312	0.53461	0.27465	-0.598
Mof_O 	O 	0.14208	0.65457	0.09537	-0.222
Mof_O 	O 	0.14213	0.56431	0.02346	-0.354
Mof_O 	O 	0.07792	0.5217	0.07344	-0.606
Mof_O 	O 	0.10823	0.54489	0.14485	-0.211
Mof_O 	O 	0.32721	0.6681	0.06116	-0.37
Mof_O 	O 	0.34132	0.57852	0.98919	-0.268
Mof_O 	O 	0.23699	0.58096	0.00015	-0.3
Mof_O 	O 	0.20726	0.61057	0.07029	-0.236
Mof_O 	O 	0.2478	0.73436	0.07447	-0.456
Mof_O 	O 	0.4676	0.54706	0.11189	-0.223
Mof_O 	O 	0.4389	0.43415	0.06697	-0.567
Mof_O 	O 	0.39512	0.5046	0.02228	-0.563
Mof_O 	O 	0.35927	0.58924	0.06394	-0.23
Mof_O 	O 	0.47152	0.65078	0.08487	-0.261
Mof_O 	O 	0.40763	0.45494	0.22469	-0.2
Mof_O 	O 	0.36297	0.33586	0.19065	-0.237
Mof_O 	O 	0.41215	0.37788	0.12915	-0.278
Mof_O 	O 	0.41837	0.48213	0.12978	-0.223
Mof_O 	O 	0.4973	0.49682	0.21742	-0.137
Mof_O 	O 	0.22203	0.46571	0.269	-0.204
Mof_O 	O 	0.16994	0.35666	0.22419	-0.483
Mof_O 	O 	0.27192	0.34014	0.21858	-0.597
Mof_O 	O 	0.32679	0.43239	0.21259	-0.216
Mof_O 	O 	0.27911	0.5529	0.27375	-0.256
Mof_O 	O 	0.3235	0.025	0.4133	-0.266
Mof_O 	O 	0.9261	0.3333	0.6566	-0.307
Mof_O 	O 	0.49723	0.20319	0.52391	-0.216
Mof_O 	O 	0.6151	0.17526	0.48188	-0.362
Mof_O 	O 	0.61363	0.28005	0.48351	-0.671
Mof_O 	O 	0.51432	0.31574	0.47129	-0.207
Mof_O 	O 	0.39993	0.2446	0.52972	-0.256
Mof_O 	O 	0.47007	0.38796	0.47758	-0.225
Mof_O 	O 	0.6	0.36985	0.45514	-0.317
Mof_O 	O 	0.55922	0.41233	0.39093	-0.262
Mof_O 	O 	0.45759	0.38753	0.38129	-0.208
Mof_O 	O 	0.3959	0.45399	0.45089	-0.277
Mof_O 	O 	0.38133	0.41756	0.36399	-0.198
Mof_O 	O 	0.50123	0.42328	0.3213	-0.255
Mof_O 	O 	0.44835	0.35543	0.27612	-0.251
Mof_O 	O 	0.36938	0.30656	0.31015	-0.226
Mof_O 	O 	0.28545	0.40171	0.3355	-0.259
Mof_O 	O 	0.29294	0.27078	0.30028	-0.505
Mof_O 	O 	0.39604	0.28536	0.23958	-0.277
Mof_O 	O 	0.39291	0.18213	0.2498	-0.285
Mof_O 	O 	0.35687	0.15642	0.32026	-0.215
Mof_O 	O 	0.22964	0.1903	0.31021	-0.44
Mof_O 	O 	0.32286	0.08855	0.34895	-0.215
Mof_O 	O 	0.4085	0.09247	0.27475	-0.574
Mof_O 	O 	0.46763	0.0491	0.32722	-0.558
Mof_O 	O 	0.43974	0.07865	0.39656	-0.219
Mof_O 	O 	0.44246	0.04857	0.4542	-0.465
Mof_O 	O 	0.53478	0.03819	0.38332	-0.224
Mof_O 	O 	0.58354	0.09693	0.43639	-0.275
Mof_O 	O 	0.51417	0.16017	0.47334	-0.228
Mof_O 	O 	0.44745	0.06485	0.52472	-0.501
Mof_O 	O 	0.92588	0.4525	0.70093	-0.504
Mof_O 	O 	0.94877	0.53922	0.62838	-0.303
Mof_O 	O 	0.90182	0.59949	0.68221	-0.28
Mof_O 	O 	0.82719	0.54066	0.71827	-0.22
Mof_O 	O 	0.90688	0.46539	0.77465	-0.598
Mof_O 	O 	0.85792	0.34543	0.59537	-0.222
Mof_O 	O 	0.85787	0.43569	0.52346	-0.35
Mof_O 	O 	0.92208	0.4783	0.57344	-0.604
Mof_O 	O 	0.89177	0.45511	0.64485	-0.211
Mof_O 	O 	0.67279	0.3319	0.56116	-0.37
Mof_O 	O 	0.65868	0.42148	0.48919	-0.279
Mof_O 	O 	0.76301	0.41904	0.50015	-0.297
Mof_O 	O 	0.79274	0.38943	0.57029	-0.236
Mof_O 	O 	0.7522	0.26564	0.57447	-0.457
Mof_O 	O 	0.5324	0.45294	0.61189	-0.223
Mof_O 	O 	0.5611	0.56585	0.56697	-0.568
Mof_O 	O 	0.60488	0.4954	0.52228	-0.563
Mof_O 	O 	0.64073	0.41076	0.56394	-0.229
Mof_O 	O 	0.52848	0.34922	0.58487	-0.261
Mof_O 	O 	0.59237	0.54506	0.72469	-0.2
Mof_O 	O 	0.63703	0.66414	0.69065	-0.237
Mof_O 	O 	0.58785	0.62212	0.62915	-0.278
Mof_O 	O 	0.58163	0.51787	0.62978	-0.223
Mof_O 	O 	0.5027	0.50318	0.71742	-0.137
Mof_O 	O 	0.77797	0.53429	0.769	-0.204
Mof_O 	O 	0.83006	0.64334	0.72419	-0.483
Mof_O 	O 	0.72808	0.65986	0.71858	-0.597
Mof_O 	O 	0.67321	0.56761	0.71259	-0.216
Mof_O 	O 	0.72089	0.4471	0.77375	-0.256
_end
