data_functionalizedCrystal
_audit_creation_method	'EQeq! by Chris Wilmer'
_symmetry_space_group_name_H-M	'P1'
_symmetry_Int_Tables_number	1
_symmetry_cell_setting	triclinic
loop_
_symmetry_equiv_pos_as_xyz
  x,y,z
_cell_length_a	11.4507
_cell_length_b	11.4635
_cell_length_c	21.121
_cell_angle_alpha	90
_cell_angle_beta	90
_cell_angle_gamma	90
loop_
_atom_site_label
_atom_site_type_symbol
_atom_site_fract_x
_atom_site_fract_y
_atom_site_fract_z
_atom_site_charge
Mof_C 	C 	0.0469	0.7475	0.7031	0.06
Mof_C 	C 	0.0452	0.6284	0.7008	-0.138
Mof_C 	C 	0.747	0.9628	0.7002	0.084
Mof_C 	C 	0.6275	0.9615	0.6984	-0.098
Mof_H 	H 	0.0832	0.7884	0.6698	0.002
Mof_H 	H 	0.0785	0.59	0.666	0.082
Mof_H 	H 	0.7889	0.9367	0.6652	0.004
Mof_H 	H 	0.5885	0.9349	0.6622	0.07
Mof_C 	C 	0.9531	0.2525	0.7031	0.098
Mof_C 	C 	0.9548	0.3716	0.7008	-0.109
Mof_C 	C 	0.253	0.0372	0.7002	0.056
Mof_C 	C 	0.3725	0.0385	0.6984	-0.133
Mof_H 	H 	0.9168	0.2116	0.6698	-0.009
Mof_H 	H 	0.9215	0.41	0.666	0.085
Mof_H 	H 	0.2111	0.0633	0.6652	-0.006
Mof_H 	H 	0.4115	0.0651	0.6622	0.066
Mof_C 	C 	0.9531	0.7475	0.7969	0.09
Mof_C 	C 	0.9548	0.6284	0.7992	-0.104
Mof_C 	C 	0.253	0.9628	0.7998	0.093
Mof_C 	C 	0.3725	0.9615	0.8016	-0.102
Mof_H 	H 	0.9168	0.7884	0.8302	0.002
Mof_H 	H 	0.9215	0.59	0.834	0.084
Mof_H 	H 	0.2111	0.9367	0.8348	-0.007
Mof_H 	H 	0.4115	0.9349	0.8378	0.07
Mof_C 	C 	0.0469	0.2525	0.7969	0.061
Mof_C 	C 	0.0452	0.3716	0.7992	-0.143
Mof_C 	C 	0.747	0.0372	0.7998	0.054
Mof_C 	C 	0.6275	0.0385	0.8016	-0.128
Mof_H 	H 	0.0832	0.2116	0.8302	-0.012
Mof_H 	H 	0.0785	0.41	0.834	0.08
Mof_H 	H 	0.7889	0.0633	0.8348	0.002
Mof_H 	H 	0.5885	0.0651	0.8378	0.062
Mof_C 	C 	0.9531	0.2525	0.2969	0.098
Mof_C 	C 	0.9548	0.3716	0.2992	-0.109
Mof_C 	C 	0.253	0.0372	0.2998	0.056
Mof_C 	C 	0.3725	0.0385	0.3016	-0.133
Mof_H 	H 	0.9168	0.2116	0.3302	-0.009
Mof_H 	H 	0.9215	0.41	0.334	0.085
Mof_H 	H 	0.2111	0.0633	0.3348	-0.006
Mof_H 	H 	0.4115	0.0651	0.3378	0.066
Mof_C 	C 	0.0469	0.7475	0.2969	0.059
Mof_C 	C 	0.0452	0.6284	0.2992	-0.138
Mof_C 	C 	0.747	0.9628	0.2998	0.085
Mof_C 	C 	0.6275	0.9615	0.3016	-0.097
Mof_H 	H 	0.0832	0.7884	0.3302	0.002
Mof_H 	H 	0.0785	0.59	0.334	0.082
Mof_H 	H 	0.7889	0.9367	0.3348	0.004
Mof_H 	H 	0.5885	0.9349	0.3378	0.07
Mof_C 	C 	0.0469	0.2525	0.2031	0.061
Mof_C 	C 	0.0452	0.3716	0.2008	-0.143
Mof_C 	C 	0.747	0.0372	0.2002	0.054
Mof_C 	C 	0.6275	0.0385	0.1984	-0.128
Mof_H 	H 	0.0832	0.2116	0.1698	-0.011
Mof_H 	H 	0.0785	0.41	0.166	0.083
Mof_H 	H 	0.7889	0.0633	0.1652	0.004
Mof_H 	H 	0.5885	0.0651	0.1622	0.065
Mof_C 	C 	0.9531	0.7475	0.2031	0.09
Mof_C 	C 	0.9548	0.6284	0.2008	-0.104
Mof_C 	C 	0.253	0.9628	0.2002	0.093
Mof_C 	C 	0.3725	0.9615	0.1984	-0.102
Mof_H 	H 	0.9168	0.7884	0.1698	0.004
Mof_H 	H 	0.9215	0.59	0.166	0.086
Mof_H 	H 	0.2111	0.9367	0.1652	-0.006
Mof_H 	H 	0.4115	0.9349	0.1622	0.072
Mof_Au	Au	3.45791e-33	0	0.5	0.171
Mof_Au	Au	-0	0	-0	0.184
Mof_Br	Br	0.79699	0.93891	0.5	-0.236
Mof_Br	Br	0.20301	0.06109	0.5	-0.302
Mof_Br	Br	0.20301	0.93891	-0	-0.249
Mof_Br	Br	0.79699	0.06109	-0	-0.265
Mof_Zn	Zn	5.18687e-33	0	0.75	1.168
Mof_Zn	Zn	1.72896e-33	0	0.25	1.168
Mof_N 	N 	1.35859e-32	0	0.6479	-0.265
Mof_C 	C 	1.32152e-32	0	0.5943	0.05
Mof_N 	N 	5.89298e-33	1.82103e-32	0.8521	-0.263
Mof_C 	C 	2.44739e-32	0	0.9057	0.035
Mof_N 	N 	2.43506e-33	4.55257e-33	0.3521	-0.265
Mof_C 	C 	2.80575e-33	0	0.4057	0.05
Mof_N 	N 	3.29914e-33	0	0.1479	-0.265
Mof_C 	C 	2.92845e-33	0	0.0943	0.047
Mof_N 	N 	5.18687e-33	0.81	0.75	-0.26
Mof_C 	C 	5.18687e-33	0.5645	0.75	0.027
Mof_N 	N 	5.18687e-33	0.19	0.75	-0.275
Mof_C 	C 	5.18687e-33	0.4355	0.75	0.029
Mof_N 	N 	1.72896e-33	0.19	0.25	-0.275
Mof_C 	C 	-2.82361e-33	0.4355	0.25	0.029
Mof_N 	N 	1.99392e-32	0.81	0.25	-0.26
Mof_C 	C 	-2.82361e-33	0.5645	0.25	0.027
Mof_N 	N 	0.8091	0	0.75	-0.254
Mof_C 	C 	0.5643	0	0.75	0.015
Mof_N 	N 	0.1909	0	0.75	-0.267
Mof_C 	C 	0.4357	0	0.75	0.017
Mof_N 	N 	0.1909	0	0.25	-0.267
Mof_C 	C 	0.4357	0	0.25	0.017
Mof_N 	N 	0.8091	0	0.25	-0.254
Mof_C 	C 	0.5643	0	0.25	0.016
Mof_C 	C 	0.571	0.409	0.2115	-0.58
Mof_C 	C 	0.64	0.444	0.1672	0.572
Mof_C 	C 	0.719	0.3391	0.1383	-0.86
Mof_C 	C 	0.775	0.392	0.088	0.633
Mof_H 	H 	0.6166	0.3648	0.2408	0.215
Mof_H 	H 	0.518	0.3583	0.1906	0.209
Mof_H 	H 	0.6923	0.4975	0.187	-0.13
Mof_H 	H 	0.5962	0.484	0.1358	-0.135
Mof_H 	H 	0.7755	0.308	0.1669	0.303
Mof_H 	H 	0.6695	0.2783	0.1241	0.302
Mof_H 	H 	0.8214	0.337	0.0653	-0.148
Mof_H 	H 	0.8233	0.4527	0.1034	-0.158
Mof_H 	H 	0.7172	0.4231	0.0606	-0.15
Mof_C 	C 	0.429	0.591	0.2115	-0.55
Mof_C 	C 	0.36	0.556	0.1672	0.527
Mof_C 	C 	0.281	0.6609	0.1383	-0.799
Mof_C 	C 	0.225	0.608	0.088	0.567
Mof_H 	H 	0.3834	0.6352	0.2408	0.207
Mof_H 	H 	0.482	0.6417	0.1906	0.204
Mof_H 	H 	0.3077	0.5025	0.187	-0.12
Mof_H 	H 	0.4038	0.516	0.1358	-0.122
Mof_H 	H 	0.2245	0.692	0.1669	0.278
Mof_H 	H 	0.3305	0.7217	0.1241	0.285
Mof_H 	H 	0.1786	0.663	0.0653	-0.137
Mof_H 	H 	0.1767	0.5473	0.1034	-0.149
Mof_H 	H 	0.2828	0.5769	0.0606	-0.133
Mof_C 	C 	0.429	0.409	0.2885	-0.542
Mof_C 	C 	0.36	0.444	0.3328	0.522
Mof_C 	C 	0.281	0.3391	0.3617	-0.805
Mof_C 	C 	0.225	0.392	0.412	0.582
Mof_H 	H 	0.3834	0.3648	0.2592	0.202
Mof_H 	H 	0.482	0.3583	0.3094	0.198
Mof_H 	H 	0.3077	0.4975	0.313	-0.117
Mof_H 	H 	0.4038	0.484	0.3642	-0.12
Mof_H 	H 	0.2245	0.308	0.3331	0.278
Mof_H 	H 	0.3305	0.2783	0.3759	0.283
Mof_H 	H 	0.1786	0.337	0.4347	-0.146
Mof_H 	H 	0.1767	0.4527	0.3966	-0.154
Mof_H 	H 	0.2828	0.4231	0.4394	-0.14
Mof_C 	C 	0.571	0.591	0.2885	-0.567
Mof_C 	C 	0.64	0.556	0.3328	0.55
Mof_C 	C 	0.719	0.6609	0.3617	-0.824
Mof_C 	C 	0.775	0.608	0.412	0.587
Mof_H 	H 	0.6166	0.6352	0.2592	0.214
Mof_H 	H 	0.518	0.6417	0.3094	0.208
Mof_H 	H 	0.6923	0.5025	0.313	-0.124
Mof_H 	H 	0.5962	0.516	0.3642	-0.13
Mof_H 	H 	0.7755	0.692	0.3331	0.293
Mof_H 	H 	0.6695	0.7217	0.3759	0.293
Mof_H 	H 	0.8214	0.663	0.4347	-0.135
Mof_H 	H 	0.8233	0.5473	0.3966	-0.146
Mof_H 	H 	0.7172	0.5769	0.4394	-0.14
Mof_N 	N 	0.5	0.5	0.25	0.13
Mof_C 	C 	0.429	0.591	0.7885	-0.523
Mof_C 	C 	0.36	0.556	0.8328	0.493
Mof_C 	C 	0.281	0.6609	0.8617	-0.761
Mof_C 	C 	0.225	0.608	0.912	0.53
Mof_H 	H 	0.3834	0.6352	0.7592	0.199
Mof_H 	H 	0.482	0.6417	0.8094	0.195
Mof_H 	H 	0.3077	0.5025	0.813	-0.11
Mof_H 	H 	0.4038	0.516	0.8642	-0.114
Mof_H 	H 	0.2245	0.692	0.8331	0.266
Mof_H 	H 	0.3305	0.7217	0.8759	0.27
Mof_H 	H 	0.1786	0.663	0.9347	-0.132
Mof_H 	H 	0.1767	0.5473	0.8966	-0.14
Mof_H 	H 	0.2828	0.5769	0.9394	-0.129
Mof_C 	C 	0.571	0.409	0.7885	-0.553
Mof_C 	C 	0.64	0.444	0.8328	0.537
Mof_C 	C 	0.719	0.3391	0.8617	-0.821
Mof_C 	C 	0.775	0.392	0.912	0.595
Mof_H 	H 	0.6166	0.3648	0.7592	0.207
Mof_H 	H 	0.518	0.3583	0.8094	0.2
Mof_H 	H 	0.6923	0.4975	0.813	-0.12
Mof_H 	H 	0.5962	0.484	0.8642	-0.127
Mof_H 	H 	0.7755	0.308	0.8331	0.29
Mof_H 	H 	0.6695	0.2783	0.8759	0.287
Mof_H 	H 	0.8214	0.337	0.9347	-0.143
Mof_H 	H 	0.8233	0.4527	0.8966	-0.149
Mof_H 	H 	0.7172	0.4231	0.9394	-0.146
Mof_C 	C 	0.571	0.591	0.7115	-0.567
Mof_C 	C 	0.64	0.556	0.6672	0.55
Mof_C 	C 	0.719	0.6609	0.6383	-0.825
Mof_C 	C 	0.775	0.608	0.588	0.589
Mof_H 	H 	0.6166	0.6352	0.7408	0.213
Mof_H 	H 	0.518	0.6417	0.6906	0.208
Mof_H 	H 	0.6923	0.5025	0.687	-0.125
Mof_H 	H 	0.5962	0.516	0.6358	-0.13
Mof_H 	H 	0.7755	0.692	0.6669	0.293
Mof_H 	H 	0.6695	0.7217	0.6241	0.293
Mof_H 	H 	0.8214	0.663	0.5653	-0.136
Mof_H 	H 	0.8233	0.5473	0.6034	-0.146
Mof_H 	H 	0.7172	0.5769	0.5606	-0.141
Mof_C 	C 	0.429	0.409	0.7115	-0.542
Mof_C 	C 	0.36	0.444	0.6672	0.522
Mof_C 	C 	0.281	0.3391	0.6383	-0.806
Mof_C 	C 	0.225	0.392	0.588	0.584
Mof_H 	H 	0.3834	0.3648	0.7408	0.201
Mof_H 	H 	0.482	0.3583	0.6906	0.198
Mof_H 	H 	0.3077	0.4975	0.687	-0.117
Mof_H 	H 	0.4038	0.484	0.6358	-0.12
Mof_H 	H 	0.2245	0.308	0.6669	0.278
Mof_H 	H 	0.3305	0.2783	0.6241	0.284
Mof_H 	H 	0.1786	0.337	0.5653	-0.146
Mof_H 	H 	0.1767	0.4527	0.6034	-0.154
Mof_H 	H 	0.2828	0.4231	0.5606	-0.141
Mof_N 	N 	0.5	0.5	0.75	0.124
_end
