data_functionalizedCrystal
_audit_creation_method	'EQeq! by Chris Wilmer'
_symmetry_space_group_name_H-M	'P1'
_symmetry_Int_Tables_number	1
_symmetry_cell_setting	triclinic
loop_
_symmetry_equiv_pos_as_xyz
  x,y,z
_cell_length_a	12.1217
_cell_length_b	15.4505
_cell_length_c	15.5311
_cell_angle_alpha	61.008
_cell_angle_beta	83.217
_cell_angle_gamma	82.867
loop_
_atom_site_label
_atom_site_type_symbol
_atom_site_fract_x
_atom_site_fract_y
_atom_site_fract_z
_atom_site_charge
Mof_Ag	Ag	0.11593	0.53478	0.49727	0.601
Mof_Ag	Ag	0.36585	0.47346	0.47886	0.383
Mof_Ag	Ag	0.46761	0.37848	0.67193	0.636
Mof_Si	Si	0.33665	0.18613	0.15495	1.319
Mof_N 	N 	0.0862	0.43226	0.43552	-0.208
Mof_N 	N 	0.1612	0.45362	0.65442	-0.204
Mof_N 	N 	0.1371	0.69378	0.40471	-0.156
Mof_C 	C 	0.27293	0.25461	0.22372	-0.472
Mof_C 	C 	0.1689	0.30752	0.20347	0.272
Mof_H 	H 	0.1307	0.3122	0.1512	-0.038
Mof_C 	C 	0.1199	0.35348	0.25771	-0.206
Mof_H 	H 	0.0485	0.3884	0.2433	0.158
Mof_C 	C 	0.17601	0.34802	0.333	0.169
Mof_C 	C 	0.28057	0.29672	0.35436	-0.225
Mof_H 	H 	0.3195	0.2935	0.4056	0.204
Mof_C 	C 	0.32699	0.25047	0.29984	0.291
Mof_H 	H 	0.3979	0.2148	0.3149	-0.013
Mof_C 	C 	0.12629	0.39518	0.39015	0.09
Mof_C 	C 	0.28798	0.25416	0.02619	-0.493
Mof_C 	C 	0.2083	0.21913	0.99584	0.289
Mof_H 	H 	0.1764	0.159	0.0415	-0.034
Mof_C 	C 	0.1744	0.2703	0.89988	-0.255
Mof_H 	H 	0.1197	0.2456	0.8802	0.202
Mof_C 	C 	0.2214	0.3578	0.83345	0.148
Mof_C 	C 	0.3007	0.3944	0.86176	-0.266
Mof_H 	H 	0.3324	0.4547	0.816	0.146
Mof_C 	C 	0.3335	0.34236	0.95732	0.281
Mof_H 	H 	0.3884	0.3673	0.9765	-0.057
Mof_C 	C 	0.1873	0.4114	0.7333	0.019
Mof_C 	C 	0.28301	0.05925	0.21825	-0.471
Mof_C 	C 	0.1772	0.04225	0.26653	0.292
Mof_H 	H 	0.1307	0.0962	0.2671	-0.04
Mof_C 	C 	0.1384	0.94868	0.31354	-0.215
Mof_H 	H 	0.0663	0.9384	0.3466	0.194
Mof_C 	C 	0.2057	0.87004	0.31201	0.183
Mof_C 	C 	0.3105	0.88456	0.26326	-0.19
Mof_H 	H 	0.3559	0.8305	0.2617	0.173
Mof_C 	C 	0.3483	0.97826	0.21696	0.287
Mof_H 	H 	0.4202	0.9882	0.1834	-0.035
Mof_C 	C 	0.1668	0.77145	0.36356	0.158
Mof_C 	C 	0.4913	0.17714	0.15215	-1.418
Mof_H 	H 	0.5146	0.1491	0.2194	0.49
Mof_H 	H 	0.5181	0.2434	0.1117	0.474
Mof_H 	H 	0.5227	0.1341	0.1239	0.477
Mof_O 	O 	0.29677	0.53979	0.32462	-0.207
Mof_O 	O 	0.38528	0.6789	0.23266	-0.191
Mof_F 	F 	0.1441	0.7136	0.1906	-0.289
Mof_F 	F 	0.2683	0.7174	0.0825	-0.312
Mof_F 	F 	0.1865	0.58868	0.1666	-0.288
Mof_C 	C 	0.3122	0.62193	0.2522	0.019
Mof_C 	C 	0.2245	0.6604	0.1747	1.3
Mof_O 	O 	0.3142	0.3224	0.5458	1.081
Mof_O 	O 	0.3583	0.2592	0.7028	1.193
Mof_C 	C 	0.3123	0.2613	0.635	1.335
Mof_C 	C 	0.2348	0.1787	0.669	1.762
Mof_F 	F 	0.2821	0.0895	0.7266	-0.847
Mof_F 	F 	0.1471	0.1916	0.7212	-0.48
Mof_F 	F 	0.1985	0.1713	0.596	-0.017
Mof_O 	O 	0.39021	0.61128	0.48519	-0.292
Mof_O 	O 	0.4204	0.53986	0.64447	-0.285
Mof_F 	F 	0.2793	0.7429	0.5601	-0.478
Mof_F 	F 	0.4273	0.71667	0.6292	-0.459
Mof_F 	F 	0.4254	0.78129	0.4726	-0.385
Mof_C 	C 	0.3993	0.60946	0.5643	0.149
Mof_C 	C 	0.3827	0.7113	0.5592	0.846
Mof_F 	F 	0.2411	0.636	0.1157	-0.425
Mof_F 	F 	0.1206	0.6234	0.224	-0.361
Mof_F 	F 	0.1986	0.75	0.1402	-0.365
Mof_O 	O 	0.345	0.302	0.547	-1.33
Mof_O 	O 	0.388	0.238	0.702	-1.32
Mof_C 	C 	0.344	0.2383	0.6348	-1.487
Mof_C 	C 	0.295	0.1428	0.6549	0.385
Mof_F 	F 	0.333	0.069	0.736	0.284
Mof_F 	F 	0.1844	0.16	0.657	-1.193
Mof_F 	F 	0.321	0.1203	0.5835	-0.284
Mof_Ag	Ag	0.88407	0.46522	0.50273	0.602
Mof_Ag	Ag	0.63415	0.52654	0.52114	0.384
Mof_Ag	Ag	0.53239	0.62152	0.32807	0.636
Mof_Si	Si	0.66335	0.81387	0.84505	1.319
Mof_N 	N 	0.9138	0.56774	0.56448	-0.208
Mof_N 	N 	0.8388	0.54638	0.34558	-0.204
Mof_N 	N 	0.8629	0.30622	0.59529	-0.156
Mof_C 	C 	0.72707	0.74539	0.77628	-0.472
Mof_C 	C 	0.8311	0.69248	0.79653	0.272
Mof_H 	H 	0.8693	0.6878	0.8488	-0.038
Mof_C 	C 	0.8801	0.64652	0.74229	-0.206
Mof_H 	H 	0.9515	0.6116	0.7567	0.158
Mof_C 	C 	0.82399	0.65198	0.667	0.169
Mof_C 	C 	0.71943	0.70328	0.64564	-0.225
Mof_H 	H 	0.6805	0.7065	0.5944	0.204
Mof_C 	C 	0.67301	0.74953	0.70016	0.291
Mof_H 	H 	0.6021	0.7852	0.6851	-0.013
Mof_C 	C 	0.87371	0.60482	0.60985	0.09
Mof_C 	C 	0.71202	0.74584	0.97381	-0.493
Mof_C 	C 	0.7917	0.78087	0.00416	0.289
Mof_H 	H 	0.8236	0.841	0.9585	-0.034
Mof_C 	C 	0.8256	0.7297	0.10012	-0.255
Mof_H 	H 	0.8803	0.7544	0.1198	0.202
Mof_C 	C 	0.7786	0.6422	0.16655	0.148
Mof_C 	C 	0.6993	0.6056	0.13824	-0.266
Mof_H 	H 	0.6676	0.5453	0.184	0.146
Mof_C 	C 	0.6665	0.65764	0.04268	0.281
Mof_H 	H 	0.6116	0.6327	0.0235	-0.057
Mof_C 	C 	0.8127	0.5886	0.2667	0.019
Mof_C 	C 	0.71699	0.94075	0.78175	-0.471
Mof_C 	C 	0.8228	0.95775	0.73347	0.292
Mof_H 	H 	0.8693	0.9038	0.7329	-0.04
Mof_C 	C 	0.8616	0.05132	0.68646	-0.215
Mof_H 	H 	0.9337	0.0616	0.6534	0.194
Mof_C 	C 	0.7943	0.12996	0.68799	0.183
Mof_C 	C 	0.6895	0.11544	0.73674	-0.19
Mof_H 	H 	0.6441	0.1695	0.7383	0.173
Mof_C 	C 	0.6517	0.02174	0.78304	0.287
Mof_H 	H 	0.5798	0.0118	0.8166	-0.035
Mof_C 	C 	0.8332	0.22855	0.63644	0.158
Mof_C 	C 	0.5087	0.82286	0.84785	-1.418
Mof_H 	H 	0.4854	0.8509	0.7806	0.49
Mof_H 	H 	0.4819	0.7566	0.8883	0.474
Mof_H 	H 	0.4773	0.8659	0.8761	0.477
Mof_O 	O 	0.70323	0.46021	0.67538	-0.207
Mof_O 	O 	0.61472	0.3211	0.76734	-0.191
Mof_F 	F 	0.8559	0.2864	0.8094	-0.289
Mof_F 	F 	0.7317	0.2826	0.9175	-0.312
Mof_F 	F 	0.8135	0.41132	0.8334	-0.288
Mof_C 	C 	0.6878	0.37807	0.7478	0.019
Mof_C 	C 	0.7755	0.3396	0.8253	1.3
Mof_O 	O 	0.6858	0.6776	0.4542	1.081
Mof_O 	O 	0.6417	0.7408	0.2972	1.193
Mof_C 	C 	0.6877	0.7387	0.365	1.335
Mof_C 	C 	0.7652	0.8213	0.331	1.762
Mof_F 	F 	0.7179	0.9105	0.2734	-0.847
Mof_F 	F 	0.8529	0.8084	0.2788	-0.48
Mof_F 	F 	0.8015	0.8287	0.404	-0.017
Mof_O 	O 	0.60979	0.38872	0.51481	-0.292
Mof_O 	O 	0.5796	0.46014	0.35553	-0.285
Mof_F 	F 	0.7207	0.2571	0.4399	-0.478
Mof_F 	F 	0.5727	0.28333	0.3708	-0.459
Mof_F 	F 	0.5746	0.21871	0.5274	-0.385
Mof_C 	C 	0.6007	0.39054	0.4357	0.149
Mof_C 	C 	0.6173	0.2887	0.4408	0.846
Mof_F 	F 	0.7589	0.364	0.8843	-0.425
Mof_F 	F 	0.8794	0.3766	0.776	-0.361
Mof_F 	F 	0.8014	0.25	0.8598	-0.365
Mof_O 	O 	0.655	0.698	0.453	-1.33
Mof_O 	O 	0.612	0.762	0.298	-1.32
Mof_C 	C 	0.656	0.7617	0.3652	-1.487
Mof_C 	C 	0.705	0.8572	0.3451	0.385
Mof_F 	F 	0.667	0.931	0.264	0.284
Mof_F 	F 	0.8156	0.84	0.343	-1.193
Mof_F 	F 	0.679	0.8797	0.4165	-0.284
_end
