# CIF file generated by openbabel 3.1.0, see https://openbabel.org
data_I
_chemical_name_common 'image0'
_cell_length_a 15.477
_cell_length_b 25.656
_cell_length_c 8.289
_cell_angle_alpha 90
_cell_angle_beta 105.077
_cell_angle_gamma 90
_space_group_name_H-M_alt 'P 1'
_space_group_name_Hall 'P 1'
loop_
    _symmetry_equiv_pos_as_xyz
    x,y,z
loop_
    _atom_site_label
    _atom_site_type_symbol
    _atom_site_fract_x
    _atom_site_fract_y
    _atom_site_fract_z
    _atom_site_occupancy
    Cd1      Cd       0.45314    0.27892    0.17201    1.000
    Cd2      Cd       0.95840    0.47159    0.77039    1.000
    O1       O        0.57316    0.32748    0.33100    1.000
    O2       O        0.59760    0.30204    0.10040    1.000
    O3       O        0.98127    0.45127    0.27710    1.000
    O4       O        0.01199    0.43177    0.54830    1.000
    O5       O        0.03661    0.40624    0.91740    1.000
    O6       O        0.09414    0.47995    0.03230    1.000
    O7       O        0.32388    0.27171    0.58250    1.000
    O8       O        0.41535    0.28073    0.42180    1.000
    N1       N        0.82452    0.41852    0.75270    1.000
    N2       N        0.66440    0.36614    0.72100    1.000
    N3       N        0.69215    0.50411    0.43010    1.000
    N4       N        0.83780    0.49932    0.55940    1.000
    N5       N        0.82378    0.53934    0.45300    1.000
    H1       H        0.86430    0.56000    0.43600    1.000
    N6       N        0.61605    0.65643    0.01950    1.000
    C1       C        0.62170    0.32395    0.23640    1.000
    C2       C        0.71293    0.34851    0.28460    1.000
    C3       C        0.72670    0.39155    0.20050    1.000
    H2       H        0.67980    0.40520    0.11720    1.000
    C4       C        0.81020    0.41580    0.23710    1.000
    H3       H        0.81850    0.44510    0.17670    1.000
    C5       C        0.87980    0.39723    0.36000    1.000
    C6       C        0.96459    0.42893    0.39680    1.000
    C7       C        0.86956    0.35091    0.44880    1.000
    C8       C        0.94100    0.32669    0.56760    1.000
    H4       H        0.99780    0.34150    0.59280    1.000
    C9       C        0.92700    0.28207    0.64470    1.000
    H5       H        0.97470    0.26630    0.72090    1.000
    C10      C        0.84210    0.25934    0.61130    1.000
    H6       H        0.83350    0.22900    0.66650    1.000
    C11      C        0.77250    0.28149    0.49890    1.000
    H7       H        0.71610    0.26630    0.47880    1.000
    C12      C        0.78354    0.32688    0.41190    1.000
    C13      C        0.09410    0.43110    0.02520    1.000
    C14      C        0.16250    0.39962    0.14890    1.000
    C15      C        0.13450    0.35394    0.20450    1.000
    H8       H        0.07450    0.34450    0.16950    1.000
    C16      C        0.19530    0.32126    0.31360    1.000
    H9       H        0.17490    0.29090    0.35250    1.000
    C17      C        0.28346    0.33338    0.36310    1.000
    C18      C        0.34548    0.29321    0.46410    1.000
    C19      C        0.31516    0.38110    0.31450    1.000
    C20      C        0.40540    0.39694    0.37150    1.000
    H10      H        0.44570    0.37620    0.44770    1.000
    C21      C        0.43420    0.44190    0.31650    1.000
    H11      H        0.49400    0.45150    0.35480    1.000
    C22      C        0.37480    0.47412    0.20270    1.000
    H12      H        0.39540    0.50460    0.16450    1.000
    C23      C        0.28650    0.46072    0.14790    1.000
    H13      H        0.24760    0.48220    0.07200    1.000
    C24      C        0.25363    0.41507    0.20420    1.000
    C25      C        0.81880    0.37722    0.84420    1.000
    H14      H        0.87000    0.36510    0.92060    1.000
    C26      C        0.73890    0.35173    0.82940    1.000
    H15      H        0.73740    0.32330    0.89830    1.000
    C27      C        0.66970    0.40754    0.62660    1.000
    H16      H        0.61850    0.41910    0.54880    1.000
    C28      C        0.74896    0.43340    0.64220    1.000
    C29      C        0.75754    0.47912    0.54210    1.000
    C30      C        0.73657    0.54214    0.37760    1.000
    C31      C        0.69602    0.58229    0.25580    1.000
    C32      C        0.74550    0.62203    0.21240    1.000
    H17      H        0.80670    0.62450    0.26120    1.000
    C33      C        0.70260    0.65812    0.09500    1.000
    H18      H        0.73640    0.68500    0.06750    1.000
    C34      C        0.56910    0.61810    0.06240    1.000
    H19      H        0.50830    0.61620    0.01010    1.000
    C35      C        0.60570    0.58091    0.18040    1.000
    H20      H        0.56980    0.55520    0.20870    1.000
    Cd3      Cd       0.54686    0.77892    0.32799    1.000
    Cd4      Cd       0.04160    0.97159    0.72961    1.000
    O9       O        0.42684    0.82748    0.16900    1.000
    O10      O        0.40240    0.80204    0.39960    1.000
    O11      O        0.01873    0.95127    0.22290    1.000
    O12      O        0.98801    0.93177    0.95170    1.000
    O13      O        0.96339    0.90624    0.58260    1.000
    O14      O        0.90586    0.97995    0.46770    1.000
    O15      O        0.67612    0.77171    0.91750    1.000
    O16      O        0.58465    0.78073    0.07820    1.000
    N7       N        0.17548    0.91852    0.74730    1.000
    N8       N        0.33560    0.86614    0.77900    1.000
    N9       N        0.30785    0.00411    0.06990    1.000
    N10      N        0.16220    0.99932    0.94060    1.000
    N11      N        0.17622    0.03934    0.04700    1.000
    H21      H        0.13570    0.06000    0.06400    1.000
    N12      N        0.38395    0.15643    0.48050    1.000
    C36      C        0.37830    0.82395    0.26360    1.000
    C37      C        0.28707    0.84851    0.21540    1.000
    C38      C        0.27330    0.89155    0.29950    1.000
    H22      H        0.32020    0.90520    0.38280    1.000
    C39      C        0.18980    0.91580    0.26290    1.000
    H23      H        0.18150    0.94510    0.32330    1.000
    C40      C        0.12020    0.89723    0.14000    1.000
    C41      C        0.03541    0.92893    0.10320    1.000
    C42      C        0.13044    0.85091    0.05120    1.000
    C43      C        0.05900    0.82669    0.93240    1.000
    H24      H        0.00220    0.84150    0.90720    1.000
    C44      C        0.07300    0.78207    0.85530    1.000
    H25      H        0.02530    0.76630    0.77910    1.000
    C45      C        0.15790    0.75934    0.88870    1.000
    H26      H        0.16650    0.72900    0.83350    1.000
    C46      C        0.22750    0.78149    0.00110    1.000
    H27      H        0.28390    0.76630    0.02120    1.000
    C47      C        0.21646    0.82688    0.08810    1.000
    C48      C        0.90590    0.93110    0.47480    1.000
    C49      C        0.83750    0.89962    0.35110    1.000
    C50      C        0.86550    0.85394    0.29550    1.000
    H28      H        0.92550    0.84450    0.33050    1.000
    C51      C        0.80470    0.82126    0.18640    1.000
    H29      H        0.82510    0.79090    0.14750    1.000
    C52      C        0.71654    0.83338    0.13690    1.000
    C53      C        0.65452    0.79321    0.03590    1.000
    C54      C        0.68484    0.88110    0.18550    1.000
    C55      C        0.59460    0.89694    0.12850    1.000
    H30      H        0.55430    0.87620    0.05230    1.000
    C56      C        0.56580    0.94190    0.18350    1.000
    H31      H        0.50600    0.95150    0.14520    1.000
    C57      C        0.62520    0.97412    0.29730    1.000
    H32      H        0.60460    0.00460    0.33550    1.000
    C58      C        0.71350    0.96072    0.35210    1.000
    H33      H        0.75240    0.98220    0.42800    1.000
    C59      C        0.74637    0.91507    0.29580    1.000
    C60      C        0.18120    0.87722    0.65580    1.000
    H34      H        0.13000    0.86510    0.57940    1.000
    C61      C        0.26110    0.85173    0.67060    1.000
    H35      H        0.26260    0.82330    0.60170    1.000
    C62      C        0.33030    0.90754    0.87340    1.000
    H36      H        0.38150    0.91910    0.95120    1.000
    C63      C        0.25104    0.93340    0.85780    1.000
    C64      C        0.24246    0.97912    0.95790    1.000
    C65      C        0.26343    0.04214    0.12240    1.000
    C66      C        0.30398    0.08229    0.24420    1.000
    C67      C        0.25450    0.12203    0.28760    1.000
    H37      H        0.19330    0.12450    0.23880    1.000
    C68      C        0.29740    0.15812    0.40500    1.000
    H38      H        0.26360    0.18500    0.43250    1.000
    C69      C        0.43090    0.11810    0.43760    1.000
    H39      H        0.49170    0.11620    0.48990    1.000
    C70      C        0.39430    0.08091    0.31960    1.000
    H40      H        0.43020    0.05520    0.29130    1.000
    Cd5      Cd       0.54686    0.72108    0.82799    1.000
    Cd6      Cd       0.04160    0.52841    0.22961    1.000
    O17      O        0.42684    0.67252    0.66900    1.000
    O18      O        0.40240    0.69796    0.89960    1.000
    O19      O        0.01873    0.54873    0.72290    1.000
    O20      O        0.98801    0.56823    0.45170    1.000
    O21      O        0.96339    0.59376    0.08260    1.000
    O22      O        0.90586    0.52005    0.96770    1.000
    O23      O        0.67612    0.72829    0.41750    1.000
    O24      O        0.58465    0.71927    0.57820    1.000
    N13      N        0.17548    0.58148    0.24730    1.000
    N14      N        0.33560    0.63386    0.27900    1.000
    N15      N        0.30785    0.49589    0.56990    1.000
    N16      N        0.16220    0.50068    0.44060    1.000
    N17      N        0.17622    0.46066    0.54700    1.000
    H41      H        0.13570    0.44000    0.56400    1.000
    N18      N        0.38395    0.34357    0.98050    1.000
    C71      C        0.37830    0.67605    0.76360    1.000
    C72      C        0.28707    0.65149    0.71540    1.000
    C73      C        0.27330    0.60845    0.79950    1.000
    H42      H        0.32020    0.59480    0.88280    1.000
    C74      C        0.18980    0.58420    0.76290    1.000
    H43      H        0.18150    0.55490    0.82330    1.000
    C75      C        0.12020    0.60277    0.64000    1.000
    C76      C        0.03541    0.57107    0.60320    1.000
    C77      C        0.13044    0.64909    0.55120    1.000
    C78      C        0.05900    0.67331    0.43240    1.000
    H44      H        0.00220    0.65850    0.40720    1.000
    C79      C        0.07300    0.71793    0.35530    1.000
    H45      H        0.02530    0.73370    0.27910    1.000
    C80      C        0.15790    0.74066    0.38870    1.000
    H46      H        0.16650    0.77100    0.33350    1.000
    C81      C        0.22750    0.71851    0.50110    1.000
    H47      H        0.28390    0.73370    0.52120    1.000
    C82      C        0.21646    0.67312    0.58810    1.000
    C83      C        0.90590    0.56890    0.97480    1.000
    C84      C        0.83750    0.60038    0.85110    1.000
    C85      C        0.86550    0.64606    0.79550    1.000
    H48      H        0.92550    0.65550    0.83050    1.000
    C86      C        0.80470    0.67874    0.68640    1.000
    H49      H        0.82510    0.70910    0.64750    1.000
    C87      C        0.71654    0.66662    0.63690    1.000
    C88      C        0.65452    0.70679    0.53590    1.000
    C89      C        0.68484    0.61890    0.68550    1.000
    C90      C        0.59460    0.60306    0.62850    1.000
    H50      H        0.55430    0.62380    0.55230    1.000
    C91      C        0.56580    0.55810    0.68350    1.000
    H51      H        0.50600    0.54850    0.64520    1.000
    C92      C        0.62520    0.52588    0.79730    1.000
    H52      H        0.60460    0.49540    0.83550    1.000
    C93      C        0.71350    0.53928    0.85210    1.000
    H53      H        0.75240    0.51780    0.92800    1.000
    C94      C        0.74637    0.58493    0.79580    1.000
    C95      C        0.18120    0.62278    0.15580    1.000
    H54      H        0.13000    0.63490    0.07940    1.000
    C96      C        0.26110    0.64827    0.17060    1.000
    H55      H        0.26260    0.67670    0.10170    1.000
    C97      C        0.33030    0.59246    0.37340    1.000
    H56      H        0.38150    0.58090    0.45120    1.000
    C98      C        0.25104    0.56660    0.35780    1.000
    C99      C        0.24246    0.52088    0.45790    1.000
    C100     C        0.26343    0.45786    0.62240    1.000
    C101     C        0.30398    0.41771    0.74420    1.000
    C102     C        0.25450    0.37797    0.78760    1.000
    H57      H        0.19330    0.37550    0.73880    1.000
    C103     C        0.29740    0.34188    0.90500    1.000
    H58      H        0.26360    0.31500    0.93250    1.000
    C104     C        0.43090    0.38190    0.93760    1.000
    H59      H        0.49170    0.38380    0.98990    1.000
    C105     C        0.39430    0.41909    0.81960    1.000
    H60      H        0.43020    0.44480    0.79130    1.000
    Cd7      Cd       0.45314    0.22108    0.67201    1.000
    Cd8      Cd       0.95840    0.02841    0.27039    1.000
    O25      O        0.57316    0.17252    0.83100    1.000
    O26      O        0.59760    0.19796    0.60040    1.000
    O27      O        0.98127    0.04873    0.77710    1.000
    O28      O        0.01199    0.06823    0.04830    1.000
    O29      O        0.03661    0.09376    0.41740    1.000
    O30      O        0.09414    0.02005    0.53230    1.000
    O31      O        0.32388    0.22829    0.08250    1.000
    O32      O        0.41535    0.21927    0.92180    1.000
    N19      N        0.82452    0.08148    0.25270    1.000
    N20      N        0.66440    0.13386    0.22100    1.000
    N21      N        0.69215    0.99589    0.93010    1.000
    N22      N        0.83780    0.00068    0.05940    1.000
    N23      N        0.82378    0.96066    0.95300    1.000
    H61      H        0.86430    0.94000    0.93600    1.000
    N24      N        0.61605    0.84357    0.51950    1.000
    C106     C        0.62170    0.17605    0.73640    1.000
    C107     C        0.71293    0.15149    0.78460    1.000
    C108     C        0.72670    0.10845    0.70050    1.000
    H62      H        0.67980    0.09480    0.61720    1.000
    C109     C        0.81020    0.08420    0.73710    1.000
    H63      H        0.81850    0.05490    0.67670    1.000
    C110     C        0.87980    0.10277    0.86000    1.000
    C111     C        0.96459    0.07107    0.89680    1.000
    C112     C        0.86956    0.14909    0.94880    1.000
    C113     C        0.94100    0.17331    0.06760    1.000
    H64      H        0.99780    0.15850    0.09280    1.000
    C114     C        0.92700    0.21793    0.14470    1.000
    H65      H        0.97470    0.23370    0.22090    1.000
    C115     C        0.84210    0.24066    0.11130    1.000
    H66      H        0.83350    0.27100    0.16650    1.000
    C116     C        0.77250    0.21851    0.99890    1.000
    H67      H        0.71610    0.23370    0.97880    1.000
    C117     C        0.78354    0.17312    0.91190    1.000
    C118     C        0.09410    0.06890    0.52520    1.000
    C119     C        0.16250    0.10038    0.64890    1.000
    C120     C        0.13450    0.14606    0.70450    1.000
    H68      H        0.07450    0.15550    0.66950    1.000
    C121     C        0.19530    0.17874    0.81360    1.000
    H69      H        0.17490    0.20910    0.85250    1.000
    C122     C        0.28346    0.16662    0.86310    1.000
    C123     C        0.34548    0.20679    0.96410    1.000
    C124     C        0.31516    0.11890    0.81450    1.000
    C125     C        0.40540    0.10306    0.87150    1.000
    H70      H        0.44570    0.12380    0.94770    1.000
    C126     C        0.43420    0.05810    0.81650    1.000
    H71      H        0.49400    0.04850    0.85480    1.000
    C127     C        0.37480    0.02588    0.70270    1.000
    H72      H        0.39540    0.99540    0.66450    1.000
    C128     C        0.28650    0.03928    0.64790    1.000
    H73      H        0.24760    0.01780    0.57200    1.000
    C129     C        0.25363    0.08493    0.70420    1.000
    C130     C        0.81880    0.12278    0.34420    1.000
    H74      H        0.87000    0.13490    0.42060    1.000
    C131     C        0.73890    0.14827    0.32940    1.000
    H75      H        0.73740    0.17670    0.39830    1.000
    C132     C        0.66970    0.09246    0.12660    1.000
    H76      H        0.61850    0.08090    0.04880    1.000
    C133     C        0.74896    0.06660    0.14220    1.000
    C134     C        0.75754    0.02088    0.04210    1.000
    C135     C        0.73657    0.95786    0.87760    1.000
    C136     C        0.69602    0.91771    0.75580    1.000
    C137     C        0.74550    0.87797    0.71240    1.000
    H77      H        0.80670    0.87550    0.76120    1.000
    C138     C        0.70260    0.84188    0.59500    1.000
    H78      H        0.73640    0.81500    0.56750    1.000
    C139     C        0.56910    0.88190    0.56240    1.000
    H79      H        0.50830    0.88380    0.51010    1.000
    C140     C        0.60570    0.91909    0.68040    1.000
    H80      H        0.56980    0.94480    0.70870    1.000
