# CIF file generated by openbabel 3.1.0, see https://openbabel.org
data_I
_chemical_name_common 'image0'
_cell_length_a 18.389
_cell_length_b 18.389
_cell_length_c 17.969
_cell_angle_alpha 90
_cell_angle_beta 90
_cell_angle_gamma 120
_space_group_name_H-M_alt 'P 1'
_space_group_name_Hall 'P 1'
loop_
    _symmetry_equiv_pos_as_xyz
    x,y,z
loop_
    _atom_site_label
    _atom_site_type_symbol
    _atom_site_fract_x
    _atom_site_fract_y
    _atom_site_fract_z
    _atom_site_occupancy
    Zn1      Zn       0.75691    0.65858    0.33316    1.000
    O1       O        0.78770    0.71860    0.42930    1.000
    O2       O        0.76030    0.55680    0.34990    1.000
    O3       O        0.87990    0.72900    0.76690    1.000
    C1       C        0.69170    0.50370    0.37070    1.000
    O4       O        0.90700    0.68440    0.66270    1.000
    O5       O        0.63110    0.51300    0.38090    1.000
    C2       C        0.67750    0.41320    0.37700    1.000
    C3       C        0.82210    0.74630    0.57760    1.000
    C4       C        0.74740    0.40100    0.37720    1.000
    H1       H        0.84430    0.71760    0.55130    1.000
    C5       C        0.83350    0.75660    0.65400    1.000
    H2       H        0.80210    0.44750    0.37750    1.000
    C6       C        0.87700    0.72180    0.69680    1.000
    Zn2      Zn       0.34142    0.09833    0.33316    1.000
    O6       O        0.28140    0.06910    0.42930    1.000
    O7       O        0.44320    0.20350    0.34990    1.000
    O8       O        0.27100    0.15090    0.76690    1.000
    C7       C        0.49630    0.18800    0.37070    1.000
    O9       O        0.31560    0.22260    0.66270    1.000
    O10      O        0.48700    0.11810    0.38090    1.000
    C8       C        0.58680    0.26430    0.37700    1.000
    C9       C        0.25370    0.07580    0.57760    1.000
    C10      C        0.59900    0.34640    0.37720    1.000
    H3       H        0.28240    0.12670    0.55130    1.000
    C11      C        0.24340    0.07690    0.65400    1.000
    H4       H        0.55250    0.35460    0.37750    1.000
    C12      C        0.27820    0.15520    0.69680    1.000
    Zn3      Zn       0.90167    0.24309    0.33316    1.000
    O11      O        0.93090    0.21230    0.42930    1.000
    O12      O        0.79650    0.23970    0.34990    1.000
    O13      O        0.84910    0.12010    0.76690    1.000
    C13      C        0.81200    0.30830    0.37070    1.000
    O14      O        0.77740    0.09300    0.66270    1.000
    O15      O        0.88190    0.36890    0.38090    1.000
    C14      C        0.73570    0.32250    0.37700    1.000
    C15      C        0.92420    0.17790    0.57760    1.000
    C16      C        0.65360    0.25260    0.37720    1.000
    H5       H        0.87330    0.15570    0.55130    1.000
    C17      C        0.92310    0.16650    0.65400    1.000
    H6       H        0.64540    0.19790    0.37750    1.000
    C18      C        0.84480    0.12300    0.69680    1.000
    Zn4      Zn       0.24309    0.34142    0.83316    1.000
    O16      O        0.21230    0.28140    0.92930    1.000
    O17      O        0.23970    0.44320    0.84990    1.000
    O18      O        0.12010    0.27100    0.26690    1.000
    C19      C        0.30830    0.49630    0.87070    1.000
    O19      O        0.09300    0.31560    0.16270    1.000
    O20      O        0.36890    0.48700    0.88090    1.000
    C20      C        0.32250    0.58680    0.87700    1.000
    C21      C        0.17790    0.25370    0.07760    1.000
    C22      C        0.25260    0.59900    0.87720    1.000
    H7       H        0.15570    0.28240    0.05130    1.000
    C23      C        0.16650    0.24340    0.15400    1.000
    H8       H        0.19790    0.55250    0.87750    1.000
    C24      C        0.12300    0.27820    0.19680    1.000
    Zn5      Zn       0.65858    0.90167    0.83316    1.000
    O21      O        0.71860    0.93090    0.92930    1.000
    O22      O        0.55680    0.79650    0.84990    1.000
    O23      O        0.72900    0.84910    0.26690    1.000
    C25      C        0.50370    0.81200    0.87070    1.000
    O24      O        0.68440    0.77740    0.16270    1.000
    O25      O        0.51300    0.88190    0.88090    1.000
    C26      C        0.41320    0.73570    0.87700    1.000
    C27      C        0.74630    0.92420    0.07760    1.000
    C28      C        0.40100    0.65360    0.87720    1.000
    H9       H        0.71760    0.87330    0.05130    1.000
    C29      C        0.75660    0.92310    0.15400    1.000
    H10      H        0.44750    0.64540    0.87750    1.000
    C30      C        0.72180    0.84480    0.19680    1.000
    Zn6      Zn       0.09833    0.75691    0.83316    1.000
    O26      O        0.06910    0.78770    0.92930    1.000
    O27      O        0.20350    0.76030    0.84990    1.000
    O28      O        0.15090    0.87990    0.26690    1.000
    C31      C        0.18800    0.69170    0.87070    1.000
    O29      O        0.22260    0.90700    0.16270    1.000
    O30      O        0.11810    0.63110    0.88090    1.000
    C32      C        0.26430    0.67750    0.87700    1.000
    C33      C        0.07580    0.82210    0.07760    1.000
    C34      C        0.34640    0.74740    0.87720    1.000
    H11      H        0.12670    0.84430    0.05130    1.000
    C35      C        0.07690    0.83350    0.15400    1.000
    H12      H        0.35460    0.80210    0.87750    1.000
    C36      C        0.15520    0.87700    0.19680    1.000
    Zn7      Zn       0.34142    0.24309    0.83316    1.000
    O31      O        0.28140    0.21230    0.92930    1.000
    O32      O        0.44320    0.23970    0.84990    1.000
    O33      O        0.27100    0.12010    0.26690    1.000
    C37      C        0.49630    0.30830    0.87070    1.000
    O34      O        0.31560    0.09300    0.16270    1.000
    O35      O        0.48700    0.36890    0.88090    1.000
    C38      C        0.58680    0.32250    0.87700    1.000
    C39      C        0.25370    0.17790    0.07760    1.000
    C40      C        0.59900    0.25260    0.87720    1.000
    H13      H        0.28240    0.15570    0.05130    1.000
    C41      C        0.24340    0.16650    0.15400    1.000
    H14      H        0.55250    0.19790    0.87750    1.000
    C42      C        0.27820    0.12300    0.19680    1.000
    Zn8      Zn       0.90167    0.65858    0.83316    1.000
    O36      O        0.93090    0.71860    0.92930    1.000
    O37      O        0.79650    0.55680    0.84990    1.000
    O38      O        0.84910    0.72900    0.26690    1.000
    C43      C        0.81200    0.50370    0.87070    1.000
    O39      O        0.77740    0.68440    0.16270    1.000
    O40      O        0.88190    0.51300    0.88090    1.000
    C44      C        0.73570    0.41320    0.87700    1.000
    C45      C        0.92420    0.74630    0.07760    1.000
    C46      C        0.65360    0.40100    0.87720    1.000
    H15      H        0.87330    0.71760    0.05130    1.000
    C47      C        0.92310    0.75660    0.15400    1.000
    H16      H        0.64540    0.44750    0.87750    1.000
    C48      C        0.84480    0.72180    0.19680    1.000
    Zn9      Zn       0.75691    0.09833    0.83316    1.000
    O41      O        0.78770    0.06910    0.92930    1.000
    O42      O        0.76030    0.20350    0.84990    1.000
    O43      O        0.87990    0.15090    0.26690    1.000
    C49      C        0.69170    0.18800    0.87070    1.000
    O44      O        0.90700    0.22260    0.16270    1.000
    O45      O        0.63110    0.11810    0.88090    1.000
    C50      C        0.67750    0.26430    0.87700    1.000
    C51      C        0.82210    0.07580    0.07760    1.000
    C52      C        0.74740    0.34640    0.87720    1.000
    H17      H        0.84430    0.12670    0.05130    1.000
    C53      C        0.83350    0.07690    0.15400    1.000
    H18      H        0.80210    0.35460    0.87750    1.000
    C54      C        0.87700    0.15520    0.19680    1.000
    Zn10     Zn       0.65858    0.75691    0.33316    1.000
    O46      O        0.71860    0.78770    0.42930    1.000
    O47      O        0.55680    0.76030    0.34990    1.000
    O48      O        0.72900    0.87990    0.76690    1.000
    C55      C        0.50370    0.69170    0.37070    1.000
    O49      O        0.68440    0.90700    0.66270    1.000
    O50      O        0.51300    0.63110    0.38090    1.000
    C56      C        0.41320    0.67750    0.37700    1.000
    C57      C        0.74630    0.82210    0.57760    1.000
    C58      C        0.40100    0.74740    0.37720    1.000
    H19      H        0.71760    0.84430    0.55130    1.000
    C59      C        0.75660    0.83350    0.65400    1.000
    H20      H        0.44750    0.80210    0.37750    1.000
    C60      C        0.72180    0.87700    0.69680    1.000
    Zn11     Zn       0.09833    0.34142    0.33316    1.000
    O51      O        0.06910    0.28140    0.42930    1.000
    O52      O        0.20350    0.44320    0.34990    1.000
    O53      O        0.15090    0.27100    0.76690    1.000
    C61      C        0.18800    0.49630    0.37070    1.000
    O54      O        0.22260    0.31560    0.66270    1.000
    O55      O        0.11810    0.48700    0.38090    1.000
    C62      C        0.26430    0.58680    0.37700    1.000
    C63      C        0.07580    0.25370    0.57760    1.000
    C64      C        0.34640    0.59900    0.37720    1.000
    H21      H        0.12670    0.28240    0.55130    1.000
    C65      C        0.07690    0.24340    0.65400    1.000
    H22      H        0.35460    0.55250    0.37750    1.000
    C66      C        0.15520    0.27820    0.69680    1.000
    Zn12     Zn       0.24309    0.90167    0.33316    1.000
    O56      O        0.21230    0.93090    0.42930    1.000
    O57      O        0.23970    0.79650    0.34990    1.000
    O58      O        0.12010    0.84910    0.76690    1.000
    C67      C        0.30830    0.81200    0.37070    1.000
    O59      O        0.09300    0.77740    0.66270    1.000
    O60      O        0.36890    0.88190    0.38090    1.000
    C68      C        0.32250    0.73570    0.37700    1.000
    C69      C        0.17790    0.92420    0.57760    1.000
    C70      C        0.25260    0.65360    0.37720    1.000
    H23      H        0.15570    0.87330    0.55130    1.000
    C71      C        0.16650    0.92310    0.65400    1.000
    H24      H        0.19790    0.64540    0.37750    1.000
    C72      C        0.12300    0.84480    0.69680    1.000
    O61      O        0.65710    0.65710    0.29210    1.000
    Co1      Co       0.65066    0.65066    0.17540    1.000
    C73      C        0.76020    0.76020    0.46040    1.000
    C74      C        0.77800    0.77800    0.53940    1.000
    C75      C        0.80370    0.80370    0.69210    1.000
    H25      H        0.81525    0.81525    0.74300    1.000
    O62      O        0.34290    0.00000    0.29210    1.000
    Co2      Co       0.34934    0.00000    0.17540    1.000
    C76      C        0.23980    0.00000    0.46040    1.000
    C77      C        0.22200    0.00000    0.53940    1.000
    C78      C        0.19630    0.00000    0.69210    1.000
    H26      H        0.18475    0.00000    0.74300    1.000
    O63      O        0.00000    0.34290    0.29210    1.000
    Co3      Co       0.00000    0.34934    0.17540    1.000
    C79      C        0.00000    0.23980    0.46040    1.000
    C80      C        0.00000    0.22200    0.53940    1.000
    C81      C        0.00000    0.19630    0.69210    1.000
    H27      H        0.00000    0.18475    0.74300    1.000
    O64      O        0.34290    0.34290    0.79210    1.000
    Co4      Co       0.34934    0.34934    0.67540    1.000
    C82      C        0.23980    0.23980    0.96040    1.000
    C83      C        0.22200    0.22200    0.03940    1.000
    C84      C        0.19630    0.19630    0.19210    1.000
    H28      H        0.18475    0.18475    0.24300    1.000
    O65      O        0.65710    0.00000    0.79210    1.000
    Co5      Co       0.65066    0.00000    0.67540    1.000
    C85      C        0.76020    0.00000    0.96040    1.000
    C86      C        0.77800    0.00000    0.03940    1.000
    C87      C        0.80370    0.00000    0.19210    1.000
    H29      H        0.81525    0.00000    0.24300    1.000
    O66      O        0.00000    0.65710    0.79210    1.000
    Co6      Co       0.00000    0.65066    0.67540    1.000
    C88      C        0.00000    0.76020    0.96040    1.000
    C89      C        0.00000    0.77800    0.03940    1.000
    C90      C        0.00000    0.80370    0.19210    1.000
    H30      H        0.00000    0.81525    0.24300    1.000
