data_functionalizedCrystal
_audit_creation_method	'EQeq! by Chris Wilmer'
_symmetry_space_group_name_H-M	'P1'
_symmetry_Int_Tables_number	1
_symmetry_cell_setting	triclinic
loop_
_symmetry_equiv_pos_as_xyz
  x,y,z
_cell_length_a	16.0985
_cell_length_b	16.0985
_cell_length_c	17.0287
_cell_angle_alpha	90
_cell_angle_beta	90
_cell_angle_gamma	90
loop_
_atom_site_label
_atom_site_type_symbol
_atom_site_fract_x
_atom_site_fract_y
_atom_site_fract_z
_atom_site_charge
Mof_Ni	Ni	0.25225	0.27109	0.27717	1.071
Mof_N 	N 	0.2719	0.2809	0.1566	-0.278
Mof_C 	C 	0.2866	0.2813	0.0923	0.174
Mof_N 	N 	0.308	0.3866	0.2909	-0.272
Mof_C 	C 	0.3335	0.4526	0.2826	0.163
Mof_N 	N 	0.1355	0.3275	0.2623	-0.273
Mof_C 	C 	0.0692	0.3421	0.2453	0.166
Mof_N 	N 	0.8689	0.288	0.2134	-0.269
Mof_C 	C 	0.9301	0.3225	0.2195	0.157
Mof_N 	N 	0.3043	0.6549	0.2389	-0.272
Mof_C 	C 	0.3309	0.5919	0.2552	0.155
Mof_N 	N 	0.2426	0.2647	0.897	-0.273
Mof_C 	C 	0.2731	0.2743	0.9575	0.167
Mof_N 	N 	0.3104	0.3044	0.0203	-0.119
Mof_N 	N 	0.3248	0.2625	0.0205	-0.097
Mof_N 	N 	0.3709	0.5228	0.2747	-0.182
Mof_N 	N 	0.9971	0.3693	0.2212	-0.191
Mof_Ni	Ni	0.74775	0.72891	0.27717	1.071
Mof_N 	N 	0.7281	0.7191	0.1566	-0.278
Mof_C 	C 	0.7134	0.7187	0.0923	0.174
Mof_N 	N 	0.692	0.6134	0.2909	-0.272
Mof_C 	C 	0.6665	0.5474	0.2826	0.163
Mof_N 	N 	0.8645	0.6725	0.2623	-0.273
Mof_C 	C 	0.9308	0.6579	0.2453	0.163
Mof_N 	N 	0.1311	0.712	0.2134	-0.269
Mof_C 	C 	0.0699	0.6775	0.2195	0.158
Mof_N 	N 	0.6957	0.3451	0.2389	-0.272
Mof_C 	C 	0.6691	0.4081	0.2552	0.155
Mof_N 	N 	0.7574	0.7353	0.897	-0.273
Mof_C 	C 	0.7269	0.7257	0.9575	0.166
Mof_N 	N 	0.6896	0.6956	0.0203	-0.118
Mof_N 	N 	0.6752	0.7375	0.0205	-0.096
Mof_N 	N 	0.6291	0.4772	0.2747	-0.181
Mof_N 	N 	0.0029	0.6307	0.2212	-0.188
Mof_Ni	Ni	0.27109	0.74775	0.72283	1.072
Mof_N 	N 	0.2809	0.7281	0.8434	-0.277
Mof_C 	C 	0.2813	0.7134	0.9077	0.175
Mof_N 	N 	0.3866	0.692	0.7091	-0.271
Mof_C 	C 	0.4526	0.6665	0.7174	0.164
Mof_N 	N 	0.3275	0.8645	0.7377	-0.272
Mof_C 	C 	0.3421	0.9308	0.7547	0.164
Mof_N 	N 	0.288	0.1311	0.7866	-0.268
Mof_C 	C 	0.3225	0.0699	0.7805	0.159
Mof_N 	N 	0.6549	0.6957	0.7611	-0.271
Mof_C 	C 	0.5919	0.6691	0.7448	0.156
Mof_N 	N 	0.2647	0.7574	0.103	-0.272
Mof_C 	C 	0.2743	0.7269	0.0425	0.167
Mof_N 	N 	0.3044	0.6896	0.9797	-0.118
Mof_N 	N 	0.2625	0.6752	0.9795	-0.096
Mof_N 	N 	0.5228	0.6291	0.7253	-0.181
Mof_N 	N 	0.3693	0.0029	0.7788	-0.188
Mof_Ni	Ni	0.72891	0.25225	0.72283	1.072
Mof_N 	N 	0.7191	0.2719	0.8434	-0.277
Mof_C 	C 	0.7187	0.2866	0.9077	0.175
Mof_N 	N 	0.6134	0.308	0.7091	-0.271
Mof_C 	C 	0.5474	0.3335	0.7174	0.164
Mof_N 	N 	0.6725	0.1355	0.7377	-0.272
Mof_C 	C 	0.6579	0.0692	0.7547	0.167
Mof_N 	N 	0.712	0.8689	0.7866	-0.268
Mof_C 	C 	0.6775	0.9301	0.7805	0.158
Mof_N 	N 	0.3451	0.3043	0.7611	-0.271
Mof_C 	C 	0.4081	0.3309	0.7448	0.156
Mof_N 	N 	0.7353	0.2426	0.103	-0.272
Mof_C 	C 	0.7257	0.2731	0.0425	0.168
Mof_N 	N 	0.6956	0.3104	0.9797	-0.118
Mof_N 	N 	0.7375	0.3248	0.9795	-0.097
Mof_N 	N 	0.4772	0.3709	0.7253	-0.181
Mof_N 	N 	0.6307	0.9971	0.7788	-0.19
Mof_Ni	Ni	0.24775	0.77109	0.22283	1.072
Mof_N 	N 	0.2281	0.7809	0.3434	-0.277
Mof_C 	C 	0.2134	0.7813	0.4077	0.175
Mof_N 	N 	0.192	0.8866	0.2091	-0.27
Mof_C 	C 	0.1665	0.9526	0.2174	0.162
Mof_N 	N 	0.3645	0.8275	0.2377	-0.272
Mof_C 	C 	0.4308	0.8421	0.2547	0.165
Mof_N 	N 	0.6311	0.788	0.2866	-0.268
Mof_C 	C 	0.5699	0.8225	0.2805	0.158
Mof_N 	N 	0.1957	0.1549	0.2611	-0.271
Mof_C 	C 	0.1691	0.0919	0.2448	0.156
Mof_N 	N 	0.2574	0.7647	0.603	-0.272
Mof_C 	C 	0.2269	0.7743	0.5425	0.167
Mof_N 	N 	0.1896	0.8044	0.4797	-0.118
Mof_N 	N 	0.1752	0.7625	0.4795	-0.096
Mof_N 	N 	0.1291	0.0228	0.2253	-0.18
Mof_N 	N 	0.5029	0.8693	0.2788	-0.189
Mof_Ni	Ni	0.75225	0.22891	0.22283	1.072
Mof_N 	N 	0.7719	0.2191	0.3434	-0.277
Mof_C 	C 	0.7866	0.2187	0.4077	0.175
Mof_N 	N 	0.808	0.1134	0.2091	-0.271
Mof_C 	C 	0.8335	0.0474	0.2174	0.165
Mof_N 	N 	0.6355	0.1725	0.2377	-0.272
Mof_C 	C 	0.5692	0.1579	0.2547	0.166
Mof_N 	N 	0.3689	0.212	0.2866	-0.268
Mof_C 	C 	0.4301	0.1775	0.2805	0.159
Mof_N 	N 	0.8043	0.8451	0.2611	-0.271
Mof_C 	C 	0.8309	0.9081	0.2448	0.155
Mof_N 	N 	0.7426	0.2353	0.603	-0.272
Mof_C 	C 	0.7731	0.2257	0.5425	0.168
Mof_N 	N 	0.8104	0.1956	0.4797	-0.118
Mof_N 	N 	0.8248	0.2375	0.4795	-0.097
Mof_N 	N 	0.8709	0.9772	0.2253	-0.183
Mof_N 	N 	0.4971	0.1307	0.2788	-0.188
Mof_Ni	Ni	0.22891	0.24775	0.77717	1.072
Mof_N 	N 	0.2191	0.2281	0.6566	-0.277
Mof_C 	C 	0.2187	0.2134	0.5923	0.175
Mof_N 	N 	0.1134	0.192	0.7909	-0.271
Mof_C 	C 	0.0474	0.1665	0.7826	0.165
Mof_N 	N 	0.1725	0.3645	0.7623	-0.272
Mof_C 	C 	0.1579	0.4308	0.7453	0.166
Mof_N 	N 	0.212	0.6311	0.7134	-0.268
Mof_C 	C 	0.1775	0.5699	0.7195	0.159
Mof_N 	N 	0.8451	0.1957	0.7389	-0.271
Mof_C 	C 	0.9081	0.1691	0.7552	0.155
Mof_N 	N 	0.2353	0.2574	0.397	-0.272
Mof_C 	C 	0.2257	0.2269	0.4575	0.168
Mof_N 	N 	0.1956	0.1896	0.5203	-0.118
Mof_N 	N 	0.2375	0.1752	0.5205	-0.097
Mof_N 	N 	0.9772	0.1291	0.7747	-0.182
Mof_N 	N 	0.1307	0.5029	0.7212	-0.188
Mof_Ni	Ni	0.77109	0.75225	0.77717	1.072
Mof_N 	N 	0.7809	0.7719	0.6566	-0.277
Mof_C 	C 	0.7813	0.7866	0.5923	0.175
Mof_N 	N 	0.8866	0.808	0.7909	-0.271
Mof_C 	C 	0.9526	0.8335	0.7826	0.161
Mof_N 	N 	0.8275	0.6355	0.7623	-0.272
Mof_C 	C 	0.8421	0.5692	0.7453	0.165
Mof_N 	N 	0.788	0.3689	0.7134	-0.268
Mof_C 	C 	0.8225	0.4301	0.7195	0.158
Mof_N 	N 	0.1549	0.8043	0.7389	-0.271
Mof_C 	C 	0.0919	0.8309	0.7552	0.156
Mof_N 	N 	0.7647	0.7426	0.397	-0.272
Mof_C 	C 	0.7743	0.7731	0.4575	0.167
Mof_N 	N 	0.8044	0.8104	0.5203	-0.119
Mof_N 	N 	0.7625	0.8248	0.5205	-0.096
Mof_N 	N 	0.0228	0.8709	0.7747	-0.18
Mof_N 	N 	0.8693	0.4971	0.7212	-0.189
Mof_C 	C 	0.0788	0.4959	0.4508	0.007
Mof_H 	H 	0.0651	0.5053	0.3949	0.077
Mof_H 	H 	0.1022	0.4393	0.4555	-0.038
Mof_C 	C 	0.1496	0.5627	0.4771	-0.313
Mof_H 	H 	0.1223	0.6156	0.4916	0.036
Mof_H 	H 	0.1787	0.5414	0.5242	0.111
Mof_C 	C 	0.2127	0.5793	0.4135	0.19
Mof_H 	H 	0.2596	0.6103	0.4356	-0.041
Mof_H 	H 	0.1869	0.612	0.3715	0.081
Mof_H 	H 	0.2326	0.5264	0.3921	-0.001
Mof_C 	C 	0.9688	0.5775	0.5311	-0.101
Mof_H 	H 	0.9179	0.5659	0.5618	0.048
Mof_H 	H 	0.9536	0.6157	0.4879	0.071
Mof_C 	C 	0.0308	0.6191	0.5829	0.056
Mof_H 	H 	0.0836	0.6255	0.5537	-0.007
Mof_H 	H 	0.0418	0.5831	0.6289	0.009
Mof_C 	C 	0.0027	0.7033	0.6113	-0.147
Mof_H 	H 	0.049	0.7315	0.6375	0.148
Mof_H 	H 	0.9567	0.6966	0.6485	0.019
Mof_H 	H 	0.9841	0.7367	0.5665	0.117
Mof_C 	C 	0.9307	0.4643	0.4483	-0.262
Mof_H 	H 	0.912	0.416	0.4796	0.183
Mof_H 	H 	0.886	0.5061	0.4541	0.159
Mof_C 	C 	0.9214	0.4395	0.3783	0.069
Mof_H 	H 	0.9383	0.3804	0.3749	0.003
Mof_H 	H 	0.9584	0.4719	0.3435	-0.01
Mof_C 	C 	0.8329	0.448	0.3496	-0.318
Mof_H 	H 	0.828	0.4235	0.2971	0.107
Mof_H 	H 	0.8178	0.5069	0.3473	0.112
Mof_H 	H 	0.7954	0.419	0.3858	-0.069
Mof_C 	C 	0.0014	0.4308	0.5659	0.005
Mof_H 	H 	0.0411	0.449	0.6067	0.026
Mof_H 	H 	0.9456	0.4292	0.5904	0.008
Mof_C 	C 	0.0244	0.3422	0.5417	-0.137
Mof_H 	H 	0.9907	0.3257	0.4956	0.048
Mof_H 	H 	0.0836	0.3406	0.526	0.048
Mof_C 	C 	0.0105	0.2815	0.6065	-0.045
Mof_H 	H 	0.028	0.2261	0.5894	-0.015
Mof_H 	H 	0.9513	0.2804	0.6201	-0.08
Mof_H 	H 	0.0429	0.2981	0.6526	0.04
Mof_C 	C 	0.9212	0.5041	0.4508	0.003
Mof_H 	H 	0.9349	0.4947	0.3949	0.077
Mof_H 	H 	0.8978	0.5607	0.4555	-0.039
Mof_C 	C 	0.8504	0.4373	0.4771	-0.313
Mof_H 	H 	0.8777	0.3844	0.4916	0.035
Mof_H 	H 	0.8213	0.4586	0.5242	0.111
Mof_C 	C 	0.7873	0.4207	0.4135	0.191
Mof_H 	H 	0.7404	0.3897	0.4356	-0.041
Mof_H 	H 	0.8131	0.388	0.3715	0.082
Mof_H 	H 	0.7674	0.4736	0.3921	-0.001
Mof_C 	C 	0.0312	0.4225	0.5311	-0.081
Mof_H 	H 	0.0821	0.4341	0.5618	0.043
Mof_H 	H 	0.0464	0.3843	0.4879	0.064
Mof_C 	C 	0.9692	0.3809	0.5829	0.028
Mof_H 	H 	0.9164	0.3745	0.5537	-0
Mof_H 	H 	0.9582	0.4169	0.6289	0.012
Mof_C 	C 	0.9973	0.2967	0.6113	-0.143
Mof_H 	H 	0.951	0.2685	0.6375	0.151
Mof_H 	H 	0.0433	0.3034	0.6485	0.02
Mof_H 	H 	0.0159	0.2633	0.5665	0.115
Mof_C 	C 	0.0693	0.5357	0.4483	-0.261
Mof_H 	H 	0.088	0.584	0.4796	0.183
Mof_H 	H 	0.114	0.4939	0.4541	0.157
Mof_C 	C 	0.0786	0.5605	0.3783	0.067
Mof_H 	H 	0.0617	0.6196	0.3749	0.004
Mof_H 	H 	0.0416	0.5281	0.3435	-0.008
Mof_C 	C 	0.1671	0.552	0.3496	-0.316
Mof_H 	H 	0.172	0.5765	0.2971	0.106
Mof_H 	H 	0.1822	0.4931	0.3473	0.111
Mof_H 	H 	0.2046	0.581	0.3858	-0.069
Mof_C 	C 	0.9986	0.5692	0.5659	0.018
Mof_H 	H 	0.9589	0.551	0.6067	0.021
Mof_H 	H 	0.0544	0.5708	0.5904	-0.002
Mof_C 	C 	0.9756	0.6578	0.5417	-0.164
Mof_H 	H 	0.0093	0.6743	0.4956	0.057
Mof_H 	H 	0.9164	0.6594	0.526	0.055
Mof_C 	C 	0.9895	0.7185	0.6065	-0.039
Mof_H 	H 	0.972	0.7739	0.5894	-0.018
Mof_H 	H 	0.0487	0.7196	0.6201	-0.077
Mof_H 	H 	0.9571	0.7019	0.6526	0.04
Mof_N 	N 	1.34147e-32	0.5	0.4979	-0.051
Mof_C 	C 	0.4959	0.9212	0.5492	0.003
Mof_H 	H 	0.5053	0.9349	0.6051	0.077
Mof_H 	H 	0.4393	0.8978	0.5445	-0.039
Mof_C 	C 	0.5627	0.8504	0.5229	-0.313
Mof_H 	H 	0.6156	0.8777	0.5084	0.035
Mof_H 	H 	0.5414	0.8213	0.4758	0.111
Mof_C 	C 	0.5793	0.7873	0.5865	0.191
Mof_H 	H 	0.6103	0.7404	0.5644	-0.041
Mof_H 	H 	0.612	0.8131	0.6285	0.082
Mof_H 	H 	0.5264	0.7674	0.6079	-0.001
Mof_C 	C 	0.5775	0.0312	0.4689	-0.081
Mof_H 	H 	0.5659	0.0821	0.4382	0.043
Mof_H 	H 	0.6157	0.0464	0.5121	0.064
Mof_C 	C 	0.6191	0.9692	0.4171	0.028
Mof_H 	H 	0.6255	0.9164	0.4463	-0
Mof_H 	H 	0.5831	0.9582	0.3711	0.012
Mof_C 	C 	0.7033	0.9973	0.3887	-0.142
Mof_H 	H 	0.7315	0.951	0.3625	0.15
Mof_H 	H 	0.6966	0.0433	0.3515	0.02
Mof_H 	H 	0.7367	0.0159	0.4335	0.115
Mof_C 	C 	0.4643	0.0693	0.5517	-0.261
Mof_H 	H 	0.416	0.088	0.5204	0.183
Mof_H 	H 	0.5061	0.114	0.5459	0.156
Mof_C 	C 	0.4395	0.0786	0.6217	0.067
Mof_H 	H 	0.3804	0.0617	0.6251	0.004
Mof_H 	H 	0.4719	0.0416	0.6565	-0.008
Mof_C 	C 	0.448	0.1671	0.6504	-0.316
Mof_H 	H 	0.4235	0.172	0.7029	0.106
Mof_H 	H 	0.5069	0.1822	0.6527	0.111
Mof_H 	H 	0.419	0.2046	0.6142	-0.069
Mof_C 	C 	0.4308	0.9986	0.4341	0.018
Mof_H 	H 	0.449	0.9589	0.3933	0.021
Mof_H 	H 	0.4292	0.0544	0.4096	-0.002
Mof_C 	C 	0.3422	0.9756	0.4583	-0.164
Mof_H 	H 	0.3257	0.0093	0.5044	0.057
Mof_H 	H 	0.3406	0.9164	0.474	0.055
Mof_C 	C 	0.2815	0.9895	0.3935	-0.039
Mof_H 	H 	0.2261	0.972	0.4106	-0.018
Mof_H 	H 	0.2804	0.0487	0.3799	-0.077
Mof_H 	H 	0.2981	0.9571	0.3474	0.04
Mof_C 	C 	0.5041	0.0788	0.5492	0.007
Mof_H 	H 	0.4947	0.0651	0.6051	0.077
Mof_H 	H 	0.5607	0.1022	0.5445	-0.038
Mof_C 	C 	0.4373	0.1496	0.5229	-0.313
Mof_H 	H 	0.3844	0.1223	0.5084	0.036
Mof_H 	H 	0.4586	0.1787	0.4758	0.111
Mof_C 	C 	0.4207	0.2127	0.5865	0.19
Mof_H 	H 	0.3897	0.2596	0.5644	-0.041
Mof_H 	H 	0.388	0.1869	0.6285	0.081
Mof_H 	H 	0.4736	0.2326	0.6079	-0.001
Mof_C 	C 	0.4225	0.9688	0.4689	-0.101
Mof_H 	H 	0.4341	0.9179	0.4382	0.048
Mof_H 	H 	0.3843	0.9536	0.5121	0.071
Mof_C 	C 	0.3809	0.0308	0.4171	0.056
Mof_H 	H 	0.3745	0.0836	0.4463	-0.007
Mof_H 	H 	0.4169	0.0418	0.3711	0.009
Mof_C 	C 	0.2967	0.0027	0.3887	-0.147
Mof_H 	H 	0.2685	0.049	0.3625	0.148
Mof_H 	H 	0.3034	0.9567	0.3515	0.019
Mof_H 	H 	0.2633	0.9841	0.4335	0.117
Mof_C 	C 	0.5357	0.9307	0.5517	-0.262
Mof_H 	H 	0.584	0.912	0.5204	0.183
Mof_H 	H 	0.4939	0.886	0.5459	0.159
Mof_C 	C 	0.5605	0.9214	0.6217	0.069
Mof_H 	H 	0.6196	0.9383	0.6251	0.003
Mof_H 	H 	0.5281	0.9584	0.6565	-0.01
Mof_C 	C 	0.552	0.8329	0.6504	-0.318
Mof_H 	H 	0.5765	0.828	0.7029	0.107
Mof_H 	H 	0.4931	0.8178	0.6527	0.112
Mof_H 	H 	0.581	0.7954	0.6142	-0.069
Mof_C 	C 	0.5692	0.0014	0.4341	0.005
Mof_H 	H 	0.551	0.0411	0.3933	0.026
Mof_H 	H 	0.5708	0.9456	0.4096	0.008
Mof_C 	C 	0.6578	0.0244	0.4583	-0.137
Mof_H 	H 	0.6743	0.9907	0.5044	0.048
Mof_H 	H 	0.6594	0.0836	0.474	0.048
Mof_C 	C 	0.7185	0.0105	0.3935	-0.045
Mof_H 	H 	0.7739	0.028	0.4106	-0.015
Mof_H 	H 	0.7196	0.9513	0.3799	-0.08
Mof_H 	H 	0.7019	0.0429	0.3474	0.04
Mof_N 	N 	0.5	0	0.5021	-0.051
Mof_C 	C 	0.4212	0.9959	0.0492	0.012
Mof_H 	H 	0.4349	0.0053	0.1051	0.078
Mof_H 	H 	0.3978	0.9393	0.0445	-0.039
Mof_C 	C 	0.3504	0.0627	0.0229	-0.309
Mof_H 	H 	0.3777	0.1156	0.0084	0.035
Mof_H 	H 	0.3213	0.0414	0.9758	0.11
Mof_C 	C 	0.2873	0.0793	0.0865	0.188
Mof_H 	H 	0.2404	0.1103	0.0644	-0.04
Mof_H 	H 	0.3131	0.112	0.1285	0.081
Mof_H 	H 	0.2674	0.0264	0.1079	0
Mof_C 	C 	0.5312	0.0775	0.9689	-0.09
Mof_H 	H 	0.5821	0.0659	0.9382	0.046
Mof_H 	H 	0.5464	0.1157	0.0121	0.068
Mof_C 	C 	0.4692	0.1191	0.9171	0.04
Mof_H 	H 	0.4164	0.1255	0.9463	-0.003
Mof_H 	H 	0.4582	0.0831	0.8711	0.011
Mof_C 	C 	0.4973	0.2033	0.8887	-0.144
Mof_H 	H 	0.451	0.2315	0.8625	0.149
Mof_H 	H 	0.5433	0.1966	0.8515	0.02
Mof_H 	H 	0.5159	0.2367	0.9335	0.116
Mof_C 	C 	0.5693	0.9643	0.0517	-0.262
Mof_H 	H 	0.588	0.916	0.0204	0.184
Mof_H 	H 	0.614	0.0061	0.0459	0.164
Mof_C 	C 	0.5786	0.9395	0.1217	0.075
Mof_H 	H 	0.5617	0.8804	0.1251	0.002
Mof_H 	H 	0.5416	0.9719	0.1565	-0.012
Mof_C 	C 	0.6671	0.948	0.1504	-0.327
Mof_H 	H 	0.672	0.9235	0.2029	0.109
Mof_H 	H 	0.6822	0.0069	0.1527	0.116
Mof_H 	H 	0.7046	0.919	0.1142	-0.067
Mof_C 	C 	0.4986	0.9308	0.9341	0.011
Mof_H 	H 	0.4589	0.949	0.8933	0.023
Mof_H 	H 	0.5544	0.9292	0.9096	0.002
Mof_C 	C 	0.4756	0.8422	0.9583	-0.152
Mof_H 	H 	0.5093	0.8257	0.0044	0.053
Mof_H 	H 	0.4164	0.8406	0.974	0.052
Mof_C 	C 	0.4895	0.7815	0.8935	-0.042
Mof_H 	H 	0.472	0.7261	0.9106	-0.017
Mof_H 	H 	0.5487	0.7804	0.8799	-0.078
Mof_H 	H 	0.4571	0.7981	0.8474	0.04
Mof_C 	C 	0.5788	0.0041	0.0492	-0.002
Mof_H 	H 	0.5651	0.9947	0.1051	0.076
Mof_H 	H 	0.6022	0.0607	0.0445	-0.038
Mof_C 	C 	0.6496	0.9373	0.0229	-0.317
Mof_H 	H 	0.6223	0.8844	0.0084	0.037
Mof_H 	H 	0.6787	0.9586	0.9758	0.111
Mof_C 	C 	0.7127	0.9207	0.0865	0.192
Mof_H 	H 	0.7596	0.8897	0.0644	-0.042
Mof_H 	H 	0.6869	0.888	0.1285	0.082
Mof_H 	H 	0.7326	0.9736	0.1079	-0.002
Mof_C 	C 	0.4688	0.9225	0.9689	-0.092
Mof_H 	H 	0.4179	0.9341	0.9382	0.046
Mof_H 	H 	0.4536	0.8843	0.0121	0.068
Mof_C 	C 	0.5308	0.8809	0.9171	0.044
Mof_H 	H 	0.5836	0.8745	0.9463	-0.005
Mof_H 	H 	0.5418	0.9169	0.8711	0.01
Mof_C 	C 	0.5027	0.7967	0.8887	-0.145
Mof_H 	H 	0.549	0.7685	0.8625	0.149
Mof_H 	H 	0.4567	0.8034	0.8515	0.02
Mof_H 	H 	0.4841	0.7633	0.9335	0.116
Mof_C 	C 	0.4307	0.0357	0.0517	-0.261
Mof_H 	H 	0.412	0.084	0.0204	0.182
Mof_H 	H 	0.386	0.9939	0.0459	0.151
Mof_C 	C 	0.4214	0.0605	0.1217	0.061
Mof_H 	H 	0.4383	0.1196	0.1251	0.006
Mof_H 	H 	0.4584	0.0281	0.1565	-0.007
Mof_C 	C 	0.3329	0.052	0.1504	-0.306
Mof_H 	H 	0.328	0.0765	0.2029	0.104
Mof_H 	H 	0.3178	0.9931	0.1527	0.107
Mof_H 	H 	0.2954	0.081	0.1142	-0.07
Mof_C 	C 	0.5014	0.0692	0.9341	0.012
Mof_H 	H 	0.5411	0.051	0.8933	0.024
Mof_H 	H 	0.4456	0.0708	0.9096	0.003
Mof_C 	C 	0.5244	0.1578	0.9583	-0.15
Mof_H 	H 	0.4907	0.1743	0.0044	0.052
Mof_H 	H 	0.5836	0.1594	0.974	0.051
Mof_C 	C 	0.5105	0.2185	0.8935	-0.041
Mof_H 	H 	0.528	0.2739	0.9106	-0.017
Mof_H 	H 	0.4513	0.2196	0.8799	-0.078
Mof_H 	H 	0.5429	0.2019	0.8474	0.04
Mof_N 	N 	0.5	0	0.0021	-0.051
Mof_C 	C 	0.0041	0.4212	0.9508	-0.002
Mof_H 	H 	0.9947	0.4349	0.8949	0.076
Mof_H 	H 	0.0607	0.3978	0.9555	-0.038
Mof_C 	C 	0.9373	0.3504	0.9771	-0.317
Mof_H 	H 	0.8844	0.3777	0.9916	0.037
Mof_H 	H 	0.9586	0.3213	0.0242	0.112
Mof_C 	C 	0.9207	0.2873	0.9135	0.192
Mof_H 	H 	0.8897	0.2404	0.9356	-0.042
Mof_H 	H 	0.888	0.3131	0.8715	0.082
Mof_H 	H 	0.9736	0.2674	0.8921	-0.002
Mof_C 	C 	0.9225	0.5312	0.0311	-0.092
Mof_H 	H 	0.9341	0.5821	0.0618	0.046
Mof_H 	H 	0.8843	0.5464	0.9879	0.068
Mof_C 	C 	0.8809	0.4692	0.0829	0.044
Mof_H 	H 	0.8745	0.4164	0.0537	-0.005
Mof_H 	H 	0.9169	0.4582	0.1289	0.01
Mof_C 	C 	0.7967	0.4973	0.1113	-0.145
Mof_H 	H 	0.7685	0.451	0.1375	0.149
Mof_H 	H 	0.8034	0.5433	0.1485	0.02
Mof_H 	H 	0.7633	0.5159	0.0665	0.116
Mof_C 	C 	0.0357	0.5693	0.9483	-0.261
Mof_H 	H 	0.084	0.588	0.9796	0.182
Mof_H 	H 	0.9939	0.614	0.9541	0.151
Mof_C 	C 	0.0605	0.5786	0.8783	0.061
Mof_H 	H 	0.1196	0.5617	0.8749	0.006
Mof_H 	H 	0.0281	0.5416	0.8435	-0.007
Mof_C 	C 	0.052	0.6671	0.8496	-0.306
Mof_H 	H 	0.0765	0.672	0.7971	0.104
Mof_H 	H 	0.9931	0.6822	0.8473	0.107
Mof_H 	H 	0.081	0.7046	0.8858	-0.07
Mof_C 	C 	0.0692	0.4986	0.0659	0.012
Mof_H 	H 	0.051	0.4589	0.1067	0.024
Mof_H 	H 	0.0708	0.5544	0.0904	0.003
Mof_C 	C 	0.1578	0.4756	0.0417	-0.15
Mof_H 	H 	0.1743	0.5093	0.9956	0.052
Mof_H 	H 	0.1594	0.4164	0.026	0.051
Mof_C 	C 	0.2185	0.4895	0.1065	-0.041
Mof_H 	H 	0.2739	0.472	0.0894	-0.017
Mof_H 	H 	0.2196	0.5487	0.1201	-0.078
Mof_H 	H 	0.2019	0.4571	0.1526	0.04
Mof_C 	C 	0.9959	0.5788	0.9508	0.012
Mof_H 	H 	0.0053	0.5651	0.8949	0.078
Mof_H 	H 	0.9393	0.6022	0.9555	-0.039
Mof_C 	C 	0.0627	0.6496	0.9771	-0.309
Mof_H 	H 	0.1156	0.6223	0.9916	0.035
Mof_H 	H 	0.0414	0.6787	0.0242	0.11
Mof_C 	C 	0.0793	0.7127	0.9135	0.188
Mof_H 	H 	0.1103	0.7596	0.9356	-0.04
Mof_H 	H 	0.112	0.6869	0.8715	0.081
Mof_H 	H 	0.0264	0.7326	0.8921	0
Mof_C 	C 	0.0775	0.4688	0.0311	-0.09
Mof_H 	H 	0.0659	0.4179	0.0618	0.046
Mof_H 	H 	0.1157	0.4536	0.9879	0.068
Mof_C 	C 	0.1191	0.5308	0.0829	0.04
Mof_H 	H 	0.1255	0.5836	0.0537	-0.003
Mof_H 	H 	0.0831	0.5418	0.1289	0.011
Mof_C 	C 	0.2033	0.5027	0.1113	-0.144
Mof_H 	H 	0.2315	0.549	0.1375	0.149
Mof_H 	H 	0.1966	0.4567	0.1485	0.02
Mof_H 	H 	0.2367	0.4841	0.0665	0.116
Mof_C 	C 	0.9643	0.4307	0.9483	-0.262
Mof_H 	H 	0.916	0.412	0.9796	0.184
Mof_H 	H 	0.0061	0.386	0.9541	0.164
Mof_C 	C 	0.9395	0.4214	0.8783	0.075
Mof_H 	H 	0.8804	0.4383	0.8749	0.002
Mof_H 	H 	0.9719	0.4584	0.8435	-0.012
Mof_C 	C 	0.948	0.3329	0.8496	-0.327
Mof_H 	H 	0.9235	0.328	0.7971	0.109
Mof_H 	H 	0.0069	0.3178	0.8473	0.116
Mof_H 	H 	0.919	0.2954	0.8858	-0.067
Mof_C 	C 	0.9308	0.5014	0.0659	0.011
Mof_H 	H 	0.949	0.5411	0.1067	0.023
Mof_H 	H 	0.9292	0.4456	0.0904	0.002
Mof_C 	C 	0.8422	0.5244	0.0417	-0.152
Mof_H 	H 	0.8257	0.4907	0.9956	0.053
Mof_H 	H 	0.8406	0.5836	0.026	0.051
Mof_C 	C 	0.7815	0.5105	0.1065	-0.042
Mof_H 	H 	0.7261	0.528	0.0894	-0.017
Mof_H 	H 	0.7804	0.4513	0.1201	-0.078
Mof_H 	H 	0.7981	0.5429	0.1526	0.04
Mof_N 	N 	-7.48234e-33	0.5	0.9979	-0.051
_end
