# CIF file generated by openbabel 3.1.0, see https://openbabel.org
data_I
_chemical_name_common 'image0'
_cell_length_a 21.9367
_cell_length_b 21.9367
_cell_length_c 16.3377
_cell_angle_alpha 90
_cell_angle_beta 90
_cell_angle_gamma 90
_space_group_name_H-M_alt 'P 1'
_space_group_name_Hall 'P 1'
loop_
    _symmetry_equiv_pos_as_xyz
    x,y,z
loop_
    _atom_site_label
    _atom_site_type_symbol
    _atom_site_fract_x
    _atom_site_fract_y
    _atom_site_fract_z
    _atom_site_occupancy
    Cd1      Cd       0.08029    0.51124    0.04089    1.000
    O1       O        0.08621    0.41788    0.95840    1.000
    O2       O        0.11760    0.32250    0.96390    1.000
    O3       O        0.17460    0.25674    0.05790    1.000
    O4       O        0.21814    0.26395    0.17970    1.000
    N1       N        0.13263    0.44364    0.11210    1.000
    N2       N        0.18360    0.38299    0.19810    1.000
    C1       C        0.11180    0.37590    0.99460    1.000
    C2       C        0.18850    0.28590    0.12160    1.000
    C3       C        0.13870    0.38770    0.07650    1.000
    C4       C        0.17050    0.35040    0.12850    1.000
    C5       C        0.15960    0.43830    0.18580    1.000
    C6       C        0.16100    0.48850    0.24560    1.000
    C7       C        0.11260    0.52280    0.25840    1.000
    H1       H        0.07640    0.51440    0.23100    1.000
    C8       C        0.11530    0.57260    0.31390    1.000
    H2       H        0.08100    0.59720    0.31880    1.000
    C9       C        0.16300    0.58600    0.35860    1.000
    C10      C        0.21720    0.54710    0.34710    1.000
    H3       H        0.25210    0.55370    0.37800    1.000
    C11      C        0.21550    0.50080    0.28980    1.000
    H4       H        0.25020    0.47760    0.28010    1.000
    C12      C        0.16160    0.63970    0.41740    1.000
    C13      C        0.10440    0.67430    0.42430    1.000
    H5       H        0.09230    0.69230    0.37330    1.000
    H6       H        0.10930    0.70560    0.46480    1.000
    H7       H        0.07360    0.64610    0.44200    1.000
    C14      C        0.17900    0.62010    0.50030    1.000
    H8       H        0.14490    0.61380    0.53600    1.000
    H9       H        0.20560    0.65020    0.52340    1.000
    H10      H        0.20080    0.58250    0.49370    1.000
    C15      C        0.20880    0.68220    0.38830    1.000
    H11      H        0.24930    0.66760    0.39900    1.000
    H12      H        0.20330    0.72110    0.41420    1.000
    H13      H        0.20300    0.68630    0.33040    1.000
    C16      C        0.15990    0.55090    0.21710    1.000
    H14      H        0.15950    0.55860    0.16110    1.000
    C17      C        0.15930    0.60000    0.27170    1.000
    H15      H        0.15650    0.64000    0.25320    1.000
    C18      C        0.15640    0.53220    0.38280    1.000
    H16      H        0.15120    0.52510    0.43840    1.000
    C19      C        0.15650    0.48000    0.32650    1.000
    H17      H        0.15340    0.44070    0.34720    1.000
    C20      C        0.14300    0.69920    0.38440    1.000
    H18      H        0.17110    0.71480    0.34440    1.000
    H19      H        0.13780    0.72870    0.42720    1.000
    H20      H        0.10440    0.69140    0.35870    1.000
    C21      C        0.11530    0.62530    0.47970    1.000
    H21      H        0.07370    0.63230    0.46370    1.000
    H22      H        0.12440    0.64900    0.52750    1.000
    H23      H        0.12090    0.58280    0.49170    1.000
    C22      C        0.21740    0.65230    0.46440    1.000
    H24      H        0.22890    0.62170    0.50340    1.000
    H25      H        0.21300    0.69080    0.49160    1.000
    H26      H        0.24830    0.65550    0.42300    1.000
    Cd2      Cd       0.58029    0.01124    0.54089    1.000
    O5       O        0.58621    0.91788    0.45840    1.000
    O6       O        0.61760    0.82250    0.46390    1.000
    O7       O        0.67460    0.75674    0.55790    1.000
    O8       O        0.71814    0.76395    0.67970    1.000
    N3       N        0.63263    0.94364    0.61210    1.000
    N4       N        0.68360    0.88299    0.69810    1.000
    C23      C        0.61180    0.87590    0.49460    1.000
    C24      C        0.68850    0.78590    0.62160    1.000
    C25      C        0.63870    0.88770    0.57650    1.000
    C26      C        0.67050    0.85040    0.62850    1.000
    C27      C        0.65960    0.93830    0.68580    1.000
    C28      C        0.66100    0.98850    0.74560    1.000
    C29      C        0.61260    0.02280    0.75840    1.000
    H27      H        0.57640    0.01440    0.73100    1.000
    C30      C        0.61530    0.07260    0.81390    1.000
    H28      H        0.58100    0.09720    0.81880    1.000
    C31      C        0.66300    0.08600    0.85860    1.000
    C32      C        0.71720    0.04710    0.84710    1.000
    H29      H        0.75210    0.05370    0.87800    1.000
    C33      C        0.71550    0.00080    0.78980    1.000
    H30      H        0.75020    0.97760    0.78010    1.000
    C34      C        0.66160    0.13970    0.91740    1.000
    C35      C        0.60440    0.17430    0.92430    1.000
    H31      H        0.59230    0.19230    0.87330    1.000
    H32      H        0.60930    0.20560    0.96480    1.000
    H33      H        0.57360    0.14610    0.94200    1.000
    C36      C        0.67900    0.12010    0.00030    1.000
    H34      H        0.64490    0.11380    0.03600    1.000
    H35      H        0.70560    0.15020    0.02340    1.000
    H36      H        0.70080    0.08250    0.99370    1.000
    C37      C        0.70880    0.18220    0.88830    1.000
    H37      H        0.74930    0.16760    0.89900    1.000
    H38      H        0.70330    0.22110    0.91420    1.000
    H39      H        0.70300    0.18630    0.83040    1.000
    C38      C        0.65990    0.05090    0.71710    1.000
    H40      H        0.65950    0.05860    0.66110    1.000
    C39      C        0.65930    0.10000    0.77170    1.000
    H41      H        0.65650    0.14000    0.75320    1.000
    C40      C        0.65640    0.03220    0.88280    1.000
    H42      H        0.65120    0.02510    0.93840    1.000
    C41      C        0.65650    0.98000    0.82650    1.000
    H43      H        0.65340    0.94070    0.84720    1.000
    C42      C        0.64300    0.19920    0.88440    1.000
    H44      H        0.67110    0.21480    0.84440    1.000
    H45      H        0.63780    0.22870    0.92720    1.000
    H46      H        0.60440    0.19140    0.85870    1.000
    C43      C        0.61530    0.12530    0.97970    1.000
    H47      H        0.57370    0.13230    0.96370    1.000
    H48      H        0.62440    0.14900    0.02750    1.000
    H49      H        0.62090    0.08280    0.99170    1.000
    C44      C        0.71740    0.15230    0.96440    1.000
    H50      H        0.72890    0.12170    0.00340    1.000
    H51      H        0.71300    0.19080    0.99160    1.000
    H52      H        0.74830    0.15550    0.92300    1.000
    Cd3      Cd       0.41971    0.48876    0.54089    1.000
    O9       O        0.41379    0.58212    0.45840    1.000
    O10      O        0.38240    0.67750    0.46390    1.000
    O11      O        0.32540    0.74326    0.55790    1.000
    O12      O        0.28186    0.73605    0.67970    1.000
    N5       N        0.36737    0.55636    0.61210    1.000
    N6       N        0.31640    0.61701    0.69810    1.000
    C45      C        0.38820    0.62410    0.49460    1.000
    C46      C        0.31150    0.71410    0.62160    1.000
    C47      C        0.36130    0.61230    0.57650    1.000
    C48      C        0.32950    0.64960    0.62850    1.000
    C49      C        0.34040    0.56170    0.68580    1.000
    C50      C        0.33900    0.51150    0.74560    1.000
    C51      C        0.38740    0.47720    0.75840    1.000
    H53      H        0.42360    0.48560    0.73100    1.000
    C52      C        0.38470    0.42740    0.81390    1.000
    H54      H        0.41900    0.40280    0.81880    1.000
    C53      C        0.33700    0.41400    0.85860    1.000
    C54      C        0.28280    0.45290    0.84710    1.000
    H55      H        0.24790    0.44630    0.87800    1.000
    C55      C        0.28450    0.49920    0.78980    1.000
    H56      H        0.24980    0.52240    0.78010    1.000
    C56      C        0.33840    0.36030    0.91740    1.000
    C57      C        0.39560    0.32570    0.92430    1.000
    H57      H        0.40770    0.30770    0.87330    1.000
    H58      H        0.39070    0.29440    0.96480    1.000
    H59      H        0.42640    0.35390    0.94200    1.000
    C58      C        0.32100    0.37990    0.00030    1.000
    H60      H        0.35510    0.38620    0.03600    1.000
    H61      H        0.29440    0.34980    0.02340    1.000
    H62      H        0.29920    0.41750    0.99370    1.000
    C59      C        0.29120    0.31780    0.88830    1.000
    H63      H        0.25070    0.33240    0.89900    1.000
    H64      H        0.29670    0.27890    0.91420    1.000
    H65      H        0.29700    0.31370    0.83040    1.000
    C60      C        0.34010    0.44910    0.71710    1.000
    H66      H        0.34050    0.44140    0.66110    1.000
    C61      C        0.34070    0.40000    0.77170    1.000
    H67      H        0.34350    0.36000    0.75320    1.000
    C62      C        0.34360    0.46780    0.88280    1.000
    H68      H        0.34880    0.47490    0.93840    1.000
    C63      C        0.34350    0.52000    0.82650    1.000
    H69      H        0.34660    0.55930    0.84720    1.000
    C64      C        0.35700    0.30080    0.88440    1.000
    H70      H        0.32890    0.28520    0.84440    1.000
    H71      H        0.36220    0.27130    0.92720    1.000
    H72      H        0.39560    0.30860    0.85870    1.000
    C65      C        0.38470    0.37470    0.97970    1.000
    H73      H        0.42630    0.36770    0.96370    1.000
    H74      H        0.37560    0.35100    0.02750    1.000
    H75      H        0.37910    0.41720    0.99170    1.000
    C66      C        0.28260    0.34770    0.96440    1.000
    H76      H        0.27110    0.37830    0.00340    1.000
    H77      H        0.28700    0.30920    0.99160    1.000
    H78      H        0.25170    0.34450    0.92300    1.000
    Cd4      Cd       0.91971    0.98876    0.04089    1.000
    O13      O        0.91379    0.08212    0.95840    1.000
    O14      O        0.88240    0.17750    0.96390    1.000
    O15      O        0.82540    0.24326    0.05790    1.000
    O16      O        0.78186    0.23605    0.17970    1.000
    N7       N        0.86737    0.05636    0.11210    1.000
    N8       N        0.81640    0.11701    0.19810    1.000
    C67      C        0.88820    0.12410    0.99460    1.000
    C68      C        0.81150    0.21410    0.12160    1.000
    C69      C        0.86130    0.11230    0.07650    1.000
    C70      C        0.82950    0.14960    0.12850    1.000
    C71      C        0.84040    0.06170    0.18580    1.000
    C72      C        0.83900    0.01150    0.24560    1.000
    C73      C        0.88740    0.97720    0.25840    1.000
    H79      H        0.92360    0.98560    0.23100    1.000
    C74      C        0.88470    0.92740    0.31390    1.000
    H80      H        0.91900    0.90280    0.31880    1.000
    C75      C        0.83700    0.91400    0.35860    1.000
    C76      C        0.78280    0.95290    0.34710    1.000
    H81      H        0.74790    0.94630    0.37800    1.000
    C77      C        0.78450    0.99920    0.28980    1.000
    H82      H        0.74980    0.02240    0.28010    1.000
    C78      C        0.83840    0.86030    0.41740    1.000
    C79      C        0.89560    0.82570    0.42430    1.000
    H83      H        0.90770    0.80770    0.37330    1.000
    H84      H        0.89070    0.79440    0.46480    1.000
    H85      H        0.92640    0.85390    0.44200    1.000
    C80      C        0.82100    0.87990    0.50030    1.000
    H86      H        0.85510    0.88620    0.53600    1.000
    H87      H        0.79440    0.84980    0.52340    1.000
    H88      H        0.79920    0.91750    0.49370    1.000
    C81      C        0.79120    0.81780    0.38830    1.000
    H89      H        0.75070    0.83240    0.39900    1.000
    H90      H        0.79670    0.77890    0.41420    1.000
    H91      H        0.79700    0.81370    0.33040    1.000
    C82      C        0.84010    0.94910    0.21710    1.000
    H92      H        0.84050    0.94140    0.16110    1.000
    C83      C        0.84070    0.90000    0.27170    1.000
    H93      H        0.84350    0.86000    0.25320    1.000
    C84      C        0.84360    0.96780    0.38280    1.000
    H94      H        0.84880    0.97490    0.43840    1.000
    C85      C        0.84350    0.02000    0.32650    1.000
    H95      H        0.84660    0.05930    0.34720    1.000
    C86      C        0.85700    0.80080    0.38440    1.000
    H96      H        0.82890    0.78520    0.34440    1.000
    H97      H        0.86220    0.77130    0.42720    1.000
    H98      H        0.89560    0.80860    0.35870    1.000
    C87      C        0.88470    0.87470    0.47970    1.000
    H99      H        0.92630    0.86770    0.46370    1.000
    H100     H        0.87560    0.85100    0.52750    1.000
    H101     H        0.87910    0.91720    0.49170    1.000
    C88      C        0.78260    0.84770    0.46440    1.000
    H102     H        0.77110    0.87830    0.50340    1.000
    H103     H        0.78700    0.80920    0.49160    1.000
    H104     H        0.75170    0.84450    0.42300    1.000
    Cd5      Cd       0.23876    0.33029    0.29089    1.000
    O17      O        0.33212    0.33621    0.20840    1.000
    O18      O        0.42750    0.36760    0.21390    1.000
    O19      O        0.49326    0.42460    0.30790    1.000
    O20      O        0.48605    0.46814    0.42970    1.000
    N9       N        0.30636    0.38263    0.36210    1.000
    N10      N        0.36701    0.43360    0.44810    1.000
    C89      C        0.37410    0.36180    0.24460    1.000
    C90      C        0.46410    0.43850    0.37160    1.000
    C91      C        0.36230    0.38870    0.32650    1.000
    C92      C        0.39960    0.42050    0.37850    1.000
    C93      C        0.31170    0.40960    0.43580    1.000
    C94      C        0.26150    0.41100    0.49560    1.000
    C95      C        0.22720    0.36260    0.50840    1.000
    H105     H        0.23560    0.32640    0.48100    1.000
    C96      C        0.17740    0.36530    0.56390    1.000
    H106     H        0.15280    0.33100    0.56880    1.000
    C97      C        0.16400    0.41300    0.60860    1.000
    C98      C        0.20290    0.46720    0.59710    1.000
    H107     H        0.19630    0.50210    0.62800    1.000
    C99      C        0.24920    0.46550    0.53980    1.000
    H108     H        0.27240    0.50020    0.53010    1.000
    C100     C        0.11030    0.41160    0.66740    1.000
    C101     C        0.07570    0.35440    0.67430    1.000
    H109     H        0.05770    0.34230    0.62330    1.000
    H110     H        0.04440    0.35930    0.71480    1.000
    H111     H        0.10390    0.32360    0.69200    1.000
    C102     C        0.12990    0.42900    0.75030    1.000
    H112     H        0.13620    0.39490    0.78600    1.000
    H113     H        0.09980    0.45560    0.77340    1.000
    H114     H        0.16750    0.45080    0.74370    1.000
    C103     C        0.06780    0.45880    0.63830    1.000
    H115     H        0.08240    0.49930    0.64900    1.000
    H116     H        0.02890    0.45330    0.66420    1.000
    H117     H        0.06370    0.45300    0.58040    1.000
    C104     C        0.19910    0.40990    0.46710    1.000
    H118     H        0.19140    0.40950    0.41110    1.000
    C105     C        0.15000    0.40930    0.52170    1.000
    H119     H        0.11000    0.40650    0.50320    1.000
    C106     C        0.21780    0.40640    0.63280    1.000
    H120     H        0.22490    0.40120    0.68840    1.000
    C107     C        0.27000    0.40650    0.57650    1.000
    H121     H        0.30930    0.40340    0.59720    1.000
    C108     C        0.05080    0.39300    0.63440    1.000
    H122     H        0.03520    0.42110    0.59440    1.000
    H123     H        0.02130    0.38780    0.67720    1.000
    H124     H        0.05860    0.35440    0.60870    1.000
    C109     C        0.12470    0.36530    0.72970    1.000
    H125     H        0.11770    0.32370    0.71370    1.000
    H126     H        0.10100    0.37440    0.77750    1.000
    H127     H        0.16720    0.37090    0.74170    1.000
    C110     C        0.09770    0.46740    0.71440    1.000
    H128     H        0.12830    0.47890    0.75340    1.000
    H129     H        0.05920    0.46300    0.74160    1.000
    H130     H        0.09450    0.49830    0.67300    1.000
    Cd6      Cd       0.73876    0.83029    0.79089    1.000
    O21      O        0.83212    0.83621    0.70840    1.000
    O22      O        0.92750    0.86760    0.71390    1.000
    O23      O        0.99326    0.92460    0.80790    1.000
    O24      O        0.98605    0.96814    0.92970    1.000
    N11      N        0.80636    0.88263    0.86210    1.000
    N12      N        0.86701    0.93360    0.94810    1.000
    C111     C        0.87410    0.86180    0.74460    1.000
    C112     C        0.96410    0.93850    0.87160    1.000
    C113     C        0.86230    0.88870    0.82650    1.000
    C114     C        0.89960    0.92050    0.87850    1.000
    C115     C        0.81170    0.90960    0.93580    1.000
    C116     C        0.76150    0.91100    0.99560    1.000
    C117     C        0.72720    0.86260    0.00840    1.000
    H131     H        0.73560    0.82640    0.98100    1.000
    C118     C        0.67740    0.86530    0.06390    1.000
    H132     H        0.65280    0.83100    0.06880    1.000
    C119     C        0.66400    0.91300    0.10860    1.000
    C120     C        0.70290    0.96720    0.09710    1.000
    H133     H        0.69630    0.00210    0.12800    1.000
    C121     C        0.74920    0.96550    0.03980    1.000
    H134     H        0.77240    0.00020    0.03010    1.000
    C122     C        0.61030    0.91160    0.16740    1.000
    C123     C        0.57570    0.85440    0.17430    1.000
    H135     H        0.55770    0.84230    0.12330    1.000
    H136     H        0.54440    0.85930    0.21480    1.000
    H137     H        0.60390    0.82360    0.19200    1.000
    C124     C        0.62990    0.92900    0.25030    1.000
    H138     H        0.63620    0.89490    0.28600    1.000
    H139     H        0.59980    0.95560    0.27340    1.000
    H140     H        0.66750    0.95080    0.24370    1.000
    C125     C        0.56780    0.95880    0.13830    1.000
    H141     H        0.58240    0.99930    0.14900    1.000
    H142     H        0.52890    0.95330    0.16420    1.000
    H143     H        0.56370    0.95300    0.08040    1.000
    C126     C        0.69910    0.90990    0.96710    1.000
    H144     H        0.69140    0.90950    0.91110    1.000
    C127     C        0.65000    0.90930    0.02170    1.000
    H145     H        0.61000    0.90650    0.00320    1.000
    C128     C        0.71780    0.90640    0.13280    1.000
    H146     H        0.72490    0.90120    0.18840    1.000
    C129     C        0.77000    0.90650    0.07650    1.000
    H147     H        0.80930    0.90340    0.09720    1.000
    C130     C        0.55080    0.89300    0.13440    1.000
    H148     H        0.53520    0.92110    0.09440    1.000
    H149     H        0.52130    0.88780    0.17720    1.000
    H150     H        0.55860    0.85440    0.10870    1.000
    C131     C        0.62470    0.86530    0.22970    1.000
    H151     H        0.61770    0.82370    0.21370    1.000
    H152     H        0.60100    0.87440    0.27750    1.000
    H153     H        0.66720    0.87090    0.24170    1.000
    C132     C        0.59770    0.96740    0.21440    1.000
    H154     H        0.62830    0.97890    0.25340    1.000
    H155     H        0.55920    0.96300    0.24160    1.000
    H156     H        0.59450    0.99830    0.17300    1.000
    Cd7      Cd       0.26124    0.66971    0.79089    1.000
    O25      O        0.16788    0.66379    0.70840    1.000
    O26      O        0.07250    0.63240    0.71390    1.000
    O27      O        0.00674    0.57540    0.80790    1.000
    O28      O        0.01395    0.53186    0.92970    1.000
    N13      N        0.19364    0.61737    0.86210    1.000
    N14      N        0.13299    0.56640    0.94810    1.000
    C133     C        0.12590    0.63820    0.74460    1.000
    C134     C        0.03590    0.56150    0.87160    1.000
    C135     C        0.13770    0.61130    0.82650    1.000
    C136     C        0.10040    0.57950    0.87850    1.000
    C137     C        0.18830    0.59040    0.93580    1.000
    C138     C        0.23850    0.58900    0.99560    1.000
    C139     C        0.27280    0.63740    0.00840    1.000
    H157     H        0.26440    0.67360    0.98100    1.000
    C140     C        0.32260    0.63470    0.06390    1.000
    H158     H        0.34720    0.66900    0.06880    1.000
    C141     C        0.33600    0.58700    0.10860    1.000
    C142     C        0.29710    0.53280    0.09710    1.000
    H159     H        0.30370    0.49790    0.12800    1.000
    C143     C        0.25080    0.53450    0.03980    1.000
    H160     H        0.22760    0.49980    0.03010    1.000
    C144     C        0.38970    0.58840    0.16740    1.000
    C145     C        0.42430    0.64560    0.17430    1.000
    H161     H        0.44230    0.65770    0.12330    1.000
    H162     H        0.45560    0.64070    0.21480    1.000
    H163     H        0.39610    0.67640    0.19200    1.000
    C146     C        0.37010    0.57100    0.25030    1.000
    H164     H        0.36380    0.60510    0.28600    1.000
    H165     H        0.40020    0.54440    0.27340    1.000
    H166     H        0.33250    0.54920    0.24370    1.000
    C147     C        0.43220    0.54120    0.13830    1.000
    H167     H        0.41760    0.50070    0.14900    1.000
    H168     H        0.47110    0.54670    0.16420    1.000
    H169     H        0.43630    0.54700    0.08040    1.000
    C148     C        0.30090    0.59010    0.96710    1.000
    H170     H        0.30860    0.59050    0.91110    1.000
    C149     C        0.35000    0.59070    0.02170    1.000
    H171     H        0.39000    0.59350    0.00320    1.000
    C150     C        0.28220    0.59360    0.13280    1.000
    H172     H        0.27510    0.59880    0.18840    1.000
    C151     C        0.23000    0.59350    0.07650    1.000
    H173     H        0.19070    0.59660    0.09720    1.000
    C152     C        0.44920    0.60700    0.13440    1.000
    H174     H        0.46480    0.57890    0.09440    1.000
    H175     H        0.47870    0.61220    0.17720    1.000
    H176     H        0.44140    0.64560    0.10870    1.000
    C153     C        0.37530    0.63470    0.22970    1.000
    H177     H        0.38230    0.67630    0.21370    1.000
    H178     H        0.39900    0.62560    0.27750    1.000
    H179     H        0.33280    0.62910    0.24170    1.000
    C154     C        0.40230    0.53260    0.21440    1.000
    H180     H        0.37170    0.52110    0.25340    1.000
    H181     H        0.44080    0.53700    0.24160    1.000
    H182     H        0.40550    0.50170    0.17300    1.000
    Cd8      Cd       0.76124    0.16971    0.29089    1.000
    O29      O        0.66788    0.16379    0.20840    1.000
    O30      O        0.57250    0.13240    0.21390    1.000
    O31      O        0.50674    0.07540    0.30790    1.000
    O32      O        0.51395    0.03186    0.42970    1.000
    N15      N        0.69364    0.11737    0.36210    1.000
    N16      N        0.63299    0.06640    0.44810    1.000
    C155     C        0.62590    0.13820    0.24460    1.000
    C156     C        0.53590    0.06150    0.37160    1.000
    C157     C        0.63770    0.11130    0.32650    1.000
    C158     C        0.60040    0.07950    0.37850    1.000
    C159     C        0.68830    0.09040    0.43580    1.000
    C160     C        0.73850    0.08900    0.49560    1.000
    C161     C        0.77280    0.13740    0.50840    1.000
    H183     H        0.76440    0.17360    0.48100    1.000
    C162     C        0.82260    0.13470    0.56390    1.000
    H184     H        0.84720    0.16900    0.56880    1.000
    C163     C        0.83600    0.08700    0.60860    1.000
    C164     C        0.79710    0.03280    0.59710    1.000
    H185     H        0.80370    0.99790    0.62800    1.000
    C165     C        0.75080    0.03450    0.53980    1.000
    H186     H        0.72760    0.99980    0.53010    1.000
    C166     C        0.88970    0.08840    0.66740    1.000
    C167     C        0.92430    0.14560    0.67430    1.000
    H187     H        0.94230    0.15770    0.62330    1.000
    H188     H        0.95560    0.14070    0.71480    1.000
    H189     H        0.89610    0.17640    0.69200    1.000
    C168     C        0.87010    0.07100    0.75030    1.000
    H190     H        0.86380    0.10510    0.78600    1.000
    H191     H        0.90020    0.04440    0.77340    1.000
    H192     H        0.83250    0.04920    0.74370    1.000
    C169     C        0.93220    0.04120    0.63830    1.000
    H193     H        0.91760    0.00070    0.64900    1.000
    H194     H        0.97110    0.04670    0.66420    1.000
    H195     H        0.93630    0.04700    0.58040    1.000
    C170     C        0.80090    0.09010    0.46710    1.000
    H196     H        0.80860    0.09050    0.41110    1.000
    C171     C        0.85000    0.09070    0.52170    1.000
    H197     H        0.89000    0.09350    0.50320    1.000
    C172     C        0.78220    0.09360    0.63280    1.000
    H198     H        0.77510    0.09880    0.68840    1.000
    C173     C        0.73000    0.09350    0.57650    1.000
    H199     H        0.69070    0.09660    0.59720    1.000
    C174     C        0.94920    0.10700    0.63440    1.000
    H200     H        0.96480    0.07890    0.59440    1.000
    H201     H        0.97870    0.11220    0.67720    1.000
    H202     H        0.94140    0.14560    0.60870    1.000
    C175     C        0.87530    0.13470    0.72970    1.000
    H203     H        0.88230    0.17630    0.71370    1.000
    H204     H        0.89900    0.12560    0.77750    1.000
    H205     H        0.83280    0.12910    0.74170    1.000
    C176     C        0.90230    0.03260    0.71440    1.000
    H206     H        0.87170    0.02110    0.75340    1.000
    H207     H        0.94080    0.03700    0.74160    1.000
    H208     H        0.90550    0.00170    0.67300    1.000
    Cd9      Cd       0.91971    0.48876    0.95911    1.000
    O33      O        0.91379    0.58212    0.04160    1.000
    O34      O        0.88240    0.67750    0.03610    1.000
    O35      O        0.82540    0.74326    0.94210    1.000
    O36      O        0.78186    0.73605    0.82030    1.000
    N17      N        0.86737    0.55636    0.88790    1.000
    N18      N        0.81640    0.61701    0.80190    1.000
    C177     C        0.88820    0.62410    0.00540    1.000
    C178     C        0.81150    0.71410    0.87840    1.000
    C179     C        0.86130    0.61230    0.92350    1.000
    C180     C        0.82950    0.64960    0.87150    1.000
    C181     C        0.84040    0.56170    0.81420    1.000
    C182     C        0.83900    0.51150    0.75440    1.000
    C183     C        0.88740    0.47720    0.74160    1.000
    H209     H        0.92360    0.48560    0.76900    1.000
    C184     C        0.88470    0.42740    0.68610    1.000
    H210     H        0.91900    0.40280    0.68120    1.000
    C185     C        0.83700    0.41400    0.64140    1.000
    C186     C        0.78280    0.45290    0.65290    1.000
    H211     H        0.74790    0.44630    0.62200    1.000
    C187     C        0.78450    0.49920    0.71020    1.000
    H212     H        0.74980    0.52240    0.71990    1.000
    C188     C        0.83840    0.36030    0.58260    1.000
    C189     C        0.89560    0.32570    0.57570    1.000
    H213     H        0.90770    0.30770    0.62670    1.000
    H214     H        0.89070    0.29440    0.53520    1.000
    H215     H        0.92640    0.35390    0.55800    1.000
    C190     C        0.82100    0.37990    0.49970    1.000
    H216     H        0.85510    0.38620    0.46400    1.000
    H217     H        0.79440    0.34980    0.47660    1.000
    H218     H        0.79920    0.41750    0.50630    1.000
    C191     C        0.79120    0.31780    0.61170    1.000
    H219     H        0.75070    0.33240    0.60100    1.000
    H220     H        0.79670    0.27890    0.58580    1.000
    H221     H        0.79700    0.31370    0.66960    1.000
    C192     C        0.84010    0.44910    0.78290    1.000
    H222     H        0.84050    0.44140    0.83890    1.000
    C193     C        0.84070    0.40000    0.72830    1.000
    H223     H        0.84350    0.36000    0.74680    1.000
    C194     C        0.84360    0.46780    0.61720    1.000
    H224     H        0.84880    0.47490    0.56160    1.000
    C195     C        0.84350    0.52000    0.67350    1.000
    H225     H        0.84660    0.55930    0.65280    1.000
    C196     C        0.85700    0.30080    0.61560    1.000
    H226     H        0.82890    0.28520    0.65560    1.000
    H227     H        0.86220    0.27130    0.57280    1.000
    H228     H        0.89560    0.30860    0.64130    1.000
    C197     C        0.88470    0.37470    0.52030    1.000
    H229     H        0.92630    0.36770    0.53630    1.000
    H230     H        0.87560    0.35100    0.47250    1.000
    H231     H        0.87910    0.41720    0.50830    1.000
    C198     C        0.78260    0.34770    0.53560    1.000
    H232     H        0.77110    0.37830    0.49660    1.000
    H233     H        0.78700    0.30920    0.50840    1.000
    H234     H        0.75170    0.34450    0.57700    1.000
    Cd10     Cd       0.41971    0.98876    0.45911    1.000
    O37      O        0.41379    0.08212    0.54160    1.000
    O38      O        0.38240    0.17750    0.53610    1.000
    O39      O        0.32540    0.24326    0.44210    1.000
    O40      O        0.28186    0.23605    0.32030    1.000
    N19      N        0.36737    0.05636    0.38790    1.000
    N20      N        0.31640    0.11701    0.30190    1.000
    C199     C        0.38820    0.12410    0.50540    1.000
    C200     C        0.31150    0.21410    0.37840    1.000
    C201     C        0.36130    0.11230    0.42350    1.000
    C202     C        0.32950    0.14960    0.37150    1.000
    C203     C        0.34040    0.06170    0.31420    1.000
    C204     C        0.33900    0.01150    0.25440    1.000
    C205     C        0.38740    0.97720    0.24160    1.000
    H235     H        0.42360    0.98560    0.26900    1.000
    C206     C        0.38470    0.92740    0.18610    1.000
    H236     H        0.41900    0.90280    0.18120    1.000
    C207     C        0.33700    0.91400    0.14140    1.000
    C208     C        0.28280    0.95290    0.15290    1.000
    H237     H        0.24790    0.94630    0.12200    1.000
    C209     C        0.28450    0.99920    0.21020    1.000
    H238     H        0.24980    0.02240    0.21990    1.000
    C210     C        0.33840    0.86030    0.08260    1.000
    C211     C        0.39560    0.82570    0.07570    1.000
    H239     H        0.40770    0.80770    0.12670    1.000
    H240     H        0.39070    0.79440    0.03520    1.000
    H241     H        0.42640    0.85390    0.05800    1.000
    C212     C        0.32100    0.87990    0.99970    1.000
    H242     H        0.35510    0.88620    0.96400    1.000
    H243     H        0.29440    0.84980    0.97660    1.000
    H244     H        0.29920    0.91750    0.00630    1.000
    C213     C        0.29120    0.81780    0.11170    1.000
    H245     H        0.25070    0.83240    0.10100    1.000
    H246     H        0.29670    0.77890    0.08580    1.000
    H247     H        0.29700    0.81370    0.16960    1.000
    C214     C        0.34010    0.94910    0.28290    1.000
    H248     H        0.34050    0.94140    0.33890    1.000
    C215     C        0.34070    0.90000    0.22830    1.000
    H249     H        0.34350    0.86000    0.24680    1.000
    C216     C        0.34360    0.96780    0.11720    1.000
    H250     H        0.34880    0.97490    0.06160    1.000
    C217     C        0.34350    0.02000    0.17350    1.000
    H251     H        0.34660    0.05930    0.15280    1.000
    C218     C        0.35700    0.80080    0.11560    1.000
    H252     H        0.32890    0.78520    0.15560    1.000
    H253     H        0.36220    0.77130    0.07280    1.000
    H254     H        0.39560    0.80860    0.14130    1.000
    C219     C        0.38470    0.87470    0.02030    1.000
    H255     H        0.42630    0.86770    0.03630    1.000
    H256     H        0.37560    0.85100    0.97250    1.000
    H257     H        0.37910    0.91720    0.00830    1.000
    C220     C        0.28260    0.84770    0.03560    1.000
    H258     H        0.27110    0.87830    0.99660    1.000
    H259     H        0.28700    0.80920    0.00840    1.000
    H260     H        0.25170    0.84450    0.07700    1.000
    Cd11     Cd       0.58029    0.51124    0.45911    1.000
    O41      O        0.58621    0.41788    0.54160    1.000
    O42      O        0.61760    0.32250    0.53610    1.000
    O43      O        0.67460    0.25674    0.44210    1.000
    O44      O        0.71814    0.26395    0.32030    1.000
    N21      N        0.63263    0.44364    0.38790    1.000
    N22      N        0.68360    0.38299    0.30190    1.000
    C221     C        0.61180    0.37590    0.50540    1.000
    C222     C        0.68850    0.28590    0.37840    1.000
    C223     C        0.63870    0.38770    0.42350    1.000
    C224     C        0.67050    0.35040    0.37150    1.000
    C225     C        0.65960    0.43830    0.31420    1.000
    C226     C        0.66100    0.48850    0.25440    1.000
    C227     C        0.61260    0.52280    0.24160    1.000
    H261     H        0.57640    0.51440    0.26900    1.000
    C228     C        0.61530    0.57260    0.18610    1.000
    H262     H        0.58100    0.59720    0.18120    1.000
    C229     C        0.66300    0.58600    0.14140    1.000
    C230     C        0.71720    0.54710    0.15290    1.000
    H263     H        0.75210    0.55370    0.12200    1.000
    C231     C        0.71550    0.50080    0.21020    1.000
    H264     H        0.75020    0.47760    0.21990    1.000
    C232     C        0.66160    0.63970    0.08260    1.000
    C233     C        0.60440    0.67430    0.07570    1.000
    H265     H        0.59230    0.69230    0.12670    1.000
    H266     H        0.60930    0.70560    0.03520    1.000
    H267     H        0.57360    0.64610    0.05800    1.000
    C234     C        0.67900    0.62010    0.99970    1.000
    H268     H        0.64490    0.61380    0.96400    1.000
    H269     H        0.70560    0.65020    0.97660    1.000
    H270     H        0.70080    0.58250    0.00630    1.000
    C235     C        0.70880    0.68220    0.11170    1.000
    H271     H        0.74930    0.66760    0.10100    1.000
    H272     H        0.70330    0.72110    0.08580    1.000
    H273     H        0.70300    0.68630    0.16960    1.000
    C236     C        0.65990    0.55090    0.28290    1.000
    H274     H        0.65950    0.55860    0.33890    1.000
    C237     C        0.65930    0.60000    0.22830    1.000
    H275     H        0.65650    0.64000    0.24680    1.000
    C238     C        0.65640    0.53220    0.11720    1.000
    H276     H        0.65120    0.52510    0.06160    1.000
    C239     C        0.65650    0.48000    0.17350    1.000
    H277     H        0.65340    0.44070    0.15280    1.000
    C240     C        0.64300    0.69920    0.11560    1.000
    H278     H        0.67110    0.71480    0.15560    1.000
    H279     H        0.63780    0.72870    0.07280    1.000
    H280     H        0.60440    0.69140    0.14130    1.000
    C241     C        0.61530    0.62530    0.02030    1.000
    H281     H        0.57370    0.63230    0.03630    1.000
    H282     H        0.62440    0.64900    0.97250    1.000
    H283     H        0.62090    0.58280    0.00830    1.000
    C242     C        0.71740    0.65230    0.03560    1.000
    H284     H        0.72890    0.62170    0.99660    1.000
    H285     H        0.71300    0.69080    0.00840    1.000
    H286     H        0.74830    0.65550    0.07700    1.000
    Cd12     Cd       0.08029    0.01124    0.95911    1.000
    O45      O        0.08621    0.91788    0.04160    1.000
    O46      O        0.11760    0.82250    0.03610    1.000
    O47      O        0.17460    0.75674    0.94210    1.000
    O48      O        0.21814    0.76395    0.82030    1.000
    N23      N        0.13263    0.94364    0.88790    1.000
    N24      N        0.18360    0.88299    0.80190    1.000
    C243     C        0.11180    0.87590    0.00540    1.000
    C244     C        0.18850    0.78590    0.87840    1.000
    C245     C        0.13870    0.88770    0.92350    1.000
    C246     C        0.17050    0.85040    0.87150    1.000
    C247     C        0.15960    0.93830    0.81420    1.000
    C248     C        0.16100    0.98850    0.75440    1.000
    C249     C        0.11260    0.02280    0.74160    1.000
    H287     H        0.07640    0.01440    0.76900    1.000
    C250     C        0.11530    0.07260    0.68610    1.000
    H288     H        0.08100    0.09720    0.68120    1.000
    C251     C        0.16300    0.08600    0.64140    1.000
    C252     C        0.21720    0.04710    0.65290    1.000
    H289     H        0.25210    0.05370    0.62200    1.000
    C253     C        0.21550    0.00080    0.71020    1.000
    H290     H        0.25020    0.97760    0.71990    1.000
    C254     C        0.16160    0.13970    0.58260    1.000
    C255     C        0.10440    0.17430    0.57570    1.000
    H291     H        0.09230    0.19230    0.62670    1.000
    H292     H        0.10930    0.20560    0.53520    1.000
    H293     H        0.07360    0.14610    0.55800    1.000
    C256     C        0.17900    0.12010    0.49970    1.000
    H294     H        0.14490    0.11380    0.46400    1.000
    H295     H        0.20560    0.15020    0.47660    1.000
    H296     H        0.20080    0.08250    0.50630    1.000
    C257     C        0.20880    0.18220    0.61170    1.000
    H297     H        0.24930    0.16760    0.60100    1.000
    H298     H        0.20330    0.22110    0.58580    1.000
    H299     H        0.20300    0.18630    0.66960    1.000
    C258     C        0.15990    0.05090    0.78290    1.000
    H300     H        0.15950    0.05860    0.83890    1.000
    C259     C        0.15930    0.10000    0.72830    1.000
    H301     H        0.15650    0.14000    0.74680    1.000
    C260     C        0.15640    0.03220    0.61720    1.000
    H302     H        0.15120    0.02510    0.56160    1.000
    C261     C        0.15650    0.98000    0.67350    1.000
    H303     H        0.15340    0.94070    0.65280    1.000
    C262     C        0.14300    0.19920    0.61560    1.000
    H304     H        0.17110    0.21480    0.65560    1.000
    H305     H        0.13780    0.22870    0.57280    1.000
    H306     H        0.10440    0.19140    0.64130    1.000
    C263     C        0.11530    0.12530    0.52030    1.000
    H307     H        0.07370    0.13230    0.53630    1.000
    H308     H        0.12440    0.14900    0.47250    1.000
    H309     H        0.12090    0.08280    0.50830    1.000
    C264     C        0.21740    0.15230    0.53560    1.000
    H310     H        0.22890    0.12170    0.49660    1.000
    H311     H        0.21300    0.19080    0.50840    1.000
    H312     H        0.24830    0.15550    0.57700    1.000
    Cd13     Cd       0.76124    0.66971    0.70911    1.000
    O49      O        0.66788    0.66379    0.79160    1.000
    O50      O        0.57250    0.63240    0.78610    1.000
    O51      O        0.50674    0.57540    0.69210    1.000
    O52      O        0.51395    0.53186    0.57030    1.000
    N25      N        0.69364    0.61737    0.63790    1.000
    N26      N        0.63299    0.56640    0.55190    1.000
    C265     C        0.62590    0.63820    0.75540    1.000
    C266     C        0.53590    0.56150    0.62840    1.000
    C267     C        0.63770    0.61130    0.67350    1.000
    C268     C        0.60040    0.57950    0.62150    1.000
    C269     C        0.68830    0.59040    0.56420    1.000
    C270     C        0.73850    0.58900    0.50440    1.000
    C271     C        0.77280    0.63740    0.49160    1.000
    H313     H        0.76440    0.67360    0.51900    1.000
    C272     C        0.82260    0.63470    0.43610    1.000
    H314     H        0.84720    0.66900    0.43120    1.000
    C273     C        0.83600    0.58700    0.39140    1.000
    C274     C        0.79710    0.53280    0.40290    1.000
    H315     H        0.80370    0.49790    0.37200    1.000
    C275     C        0.75080    0.53450    0.46020    1.000
    H316     H        0.72760    0.49980    0.46990    1.000
    C276     C        0.88970    0.58840    0.33260    1.000
    C277     C        0.92430    0.64560    0.32570    1.000
    H317     H        0.94230    0.65770    0.37670    1.000
    H318     H        0.95560    0.64070    0.28520    1.000
    H319     H        0.89610    0.67640    0.30800    1.000
    C278     C        0.87010    0.57100    0.24970    1.000
    H320     H        0.86380    0.60510    0.21400    1.000
    H321     H        0.90020    0.54440    0.22660    1.000
    H322     H        0.83250    0.54920    0.25630    1.000
    C279     C        0.93220    0.54120    0.36170    1.000
    H323     H        0.91760    0.50070    0.35100    1.000
    H324     H        0.97110    0.54670    0.33580    1.000
    H325     H        0.93630    0.54700    0.41960    1.000
    C280     C        0.80090    0.59010    0.53290    1.000
    H326     H        0.80860    0.59050    0.58890    1.000
    C281     C        0.85000    0.59070    0.47830    1.000
    H327     H        0.89000    0.59350    0.49680    1.000
    C282     C        0.78220    0.59360    0.36720    1.000
    H328     H        0.77510    0.59880    0.31160    1.000
    C283     C        0.73000    0.59350    0.42350    1.000
    H329     H        0.69070    0.59660    0.40280    1.000
    C284     C        0.94920    0.60700    0.36560    1.000
    H330     H        0.96480    0.57890    0.40560    1.000
    H331     H        0.97870    0.61220    0.32280    1.000
    H332     H        0.94140    0.64560    0.39130    1.000
    C285     C        0.87530    0.63470    0.27030    1.000
    H333     H        0.88230    0.67630    0.28630    1.000
    H334     H        0.89900    0.62560    0.22250    1.000
    H335     H        0.83280    0.62910    0.25830    1.000
    C286     C        0.90230    0.53260    0.28560    1.000
    H336     H        0.87170    0.52110    0.24660    1.000
    H337     H        0.94080    0.53700    0.25840    1.000
    H338     H        0.90550    0.50170    0.32700    1.000
    Cd14     Cd       0.26124    0.16971    0.20911    1.000
    O53      O        0.16788    0.16379    0.29160    1.000
    O54      O        0.07250    0.13240    0.28610    1.000
    O55      O        0.00674    0.07540    0.19210    1.000
    O56      O        0.01395    0.03186    0.07030    1.000
    N27      N        0.19364    0.11737    0.13790    1.000
    N28      N        0.13299    0.06640    0.05190    1.000
    C287     C        0.12590    0.13820    0.25540    1.000
    C288     C        0.03590    0.06150    0.12840    1.000
    C289     C        0.13770    0.11130    0.17350    1.000
    C290     C        0.10040    0.07950    0.12150    1.000
    C291     C        0.18830    0.09040    0.06420    1.000
    C292     C        0.23850    0.08900    0.00440    1.000
    C293     C        0.27280    0.13740    0.99160    1.000
    H339     H        0.26440    0.17360    0.01900    1.000
    C294     C        0.32260    0.13470    0.93610    1.000
    H340     H        0.34720    0.16900    0.93120    1.000
    C295     C        0.33600    0.08700    0.89140    1.000
    C296     C        0.29710    0.03280    0.90290    1.000
    H341     H        0.30370    0.99790    0.87200    1.000
    C297     C        0.25080    0.03450    0.96020    1.000
    H342     H        0.22760    0.99980    0.96990    1.000
    C298     C        0.38970    0.08840    0.83260    1.000
    C299     C        0.42430    0.14560    0.82570    1.000
    H343     H        0.44230    0.15770    0.87670    1.000
    H344     H        0.45560    0.14070    0.78520    1.000
    H345     H        0.39610    0.17640    0.80800    1.000
    C300     C        0.37010    0.07100    0.74970    1.000
    H346     H        0.36380    0.10510    0.71400    1.000
    H347     H        0.40020    0.04440    0.72660    1.000
    H348     H        0.33250    0.04920    0.75630    1.000
    C301     C        0.43220    0.04120    0.86170    1.000
    H349     H        0.41760    0.00070    0.85100    1.000
    H350     H        0.47110    0.04670    0.83580    1.000
    H351     H        0.43630    0.04700    0.91960    1.000
    C302     C        0.30090    0.09010    0.03290    1.000
    H352     H        0.30860    0.09050    0.08890    1.000
    C303     C        0.35000    0.09070    0.97830    1.000
    H353     H        0.39000    0.09350    0.99680    1.000
    C304     C        0.28220    0.09360    0.86720    1.000
    H354     H        0.27510    0.09880    0.81160    1.000
    C305     C        0.23000    0.09350    0.92350    1.000
    H355     H        0.19070    0.09660    0.90280    1.000
    C306     C        0.44920    0.10700    0.86560    1.000
    H356     H        0.46480    0.07890    0.90560    1.000
    H357     H        0.47870    0.11220    0.82280    1.000
    H358     H        0.44140    0.14560    0.89130    1.000
    C307     C        0.37530    0.13470    0.77030    1.000
    H359     H        0.38230    0.17630    0.78630    1.000
    H360     H        0.39900    0.12560    0.72250    1.000
    H361     H        0.33280    0.12910    0.75830    1.000
    C308     C        0.40230    0.03260    0.78560    1.000
    H362     H        0.37170    0.02110    0.74660    1.000
    H363     H        0.44080    0.03700    0.75840    1.000
    H364     H        0.40550    0.00170    0.82700    1.000
    Cd15     Cd       0.73876    0.33029    0.20911    1.000
    O57      O        0.83212    0.33621    0.29160    1.000
    O58      O        0.92750    0.36760    0.28610    1.000
    O59      O        0.99326    0.42460    0.19210    1.000
    O60      O        0.98605    0.46814    0.07030    1.000
    N29      N        0.80636    0.38263    0.13790    1.000
    N30      N        0.86701    0.43360    0.05190    1.000
    C309     C        0.87410    0.36180    0.25540    1.000
    C310     C        0.96410    0.43850    0.12840    1.000
    C311     C        0.86230    0.38870    0.17350    1.000
    C312     C        0.89960    0.42050    0.12150    1.000
    C313     C        0.81170    0.40960    0.06420    1.000
    C314     C        0.76150    0.41100    0.00440    1.000
    C315     C        0.72720    0.36260    0.99160    1.000
    H365     H        0.73560    0.32640    0.01900    1.000
    C316     C        0.67740    0.36530    0.93610    1.000
    H366     H        0.65280    0.33100    0.93120    1.000
    C317     C        0.66400    0.41300    0.89140    1.000
    C318     C        0.70290    0.46720    0.90290    1.000
    H367     H        0.69630    0.50210    0.87200    1.000
    C319     C        0.74920    0.46550    0.96020    1.000
    H368     H        0.77240    0.50020    0.96990    1.000
    C320     C        0.61030    0.41160    0.83260    1.000
    C321     C        0.57570    0.35440    0.82570    1.000
    H369     H        0.55770    0.34230    0.87670    1.000
    H370     H        0.54440    0.35930    0.78520    1.000
    H371     H        0.60390    0.32360    0.80800    1.000
    C322     C        0.62990    0.42900    0.74970    1.000
    H372     H        0.63620    0.39490    0.71400    1.000
    H373     H        0.59980    0.45560    0.72660    1.000
    H374     H        0.66750    0.45080    0.75630    1.000
    C323     C        0.56780    0.45880    0.86170    1.000
    H375     H        0.58240    0.49930    0.85100    1.000
    H376     H        0.52890    0.45330    0.83580    1.000
    H377     H        0.56370    0.45300    0.91960    1.000
    C324     C        0.69910    0.40990    0.03290    1.000
    H378     H        0.69140    0.40950    0.08890    1.000
    C325     C        0.65000    0.40930    0.97830    1.000
    H379     H        0.61000    0.40650    0.99680    1.000
    C326     C        0.71780    0.40640    0.86720    1.000
    H380     H        0.72490    0.40120    0.81160    1.000
    C327     C        0.77000    0.40650    0.92350    1.000
    H381     H        0.80930    0.40340    0.90280    1.000
    C328     C        0.55080    0.39300    0.86560    1.000
    H382     H        0.53520    0.42110    0.90560    1.000
    H383     H        0.52130    0.38780    0.82280    1.000
    H384     H        0.55860    0.35440    0.89130    1.000
    C329     C        0.62470    0.36530    0.77030    1.000
    H385     H        0.61770    0.32370    0.78630    1.000
    H386     H        0.60100    0.37440    0.72250    1.000
    H387     H        0.66720    0.37090    0.75830    1.000
    C330     C        0.59770    0.46740    0.78560    1.000
    H388     H        0.62830    0.47890    0.74660    1.000
    H389     H        0.55920    0.46300    0.75840    1.000
    H390     H        0.59450    0.49830    0.82700    1.000
    Cd16     Cd       0.23876    0.83029    0.70911    1.000
    O61      O        0.33212    0.83621    0.79160    1.000
    O62      O        0.42750    0.86760    0.78610    1.000
    O63      O        0.49326    0.92460    0.69210    1.000
    O64      O        0.48605    0.96814    0.57030    1.000
    N31      N        0.30636    0.88263    0.63790    1.000
    N32      N        0.36701    0.93360    0.55190    1.000
    C331     C        0.37410    0.86180    0.75540    1.000
    C332     C        0.46410    0.93850    0.62840    1.000
    C333     C        0.36230    0.88870    0.67350    1.000
    C334     C        0.39960    0.92050    0.62150    1.000
    C335     C        0.31170    0.90960    0.56420    1.000
    C336     C        0.26150    0.91100    0.50440    1.000
    C337     C        0.22720    0.86260    0.49160    1.000
    H391     H        0.23560    0.82640    0.51900    1.000
    C338     C        0.17740    0.86530    0.43610    1.000
    H392     H        0.15280    0.83100    0.43120    1.000
    C339     C        0.16400    0.91300    0.39140    1.000
    C340     C        0.20290    0.96720    0.40290    1.000
    H393     H        0.19630    0.00210    0.37200    1.000
    C341     C        0.24920    0.96550    0.46020    1.000
    H394     H        0.27240    0.00020    0.46990    1.000
    C342     C        0.11030    0.91160    0.33260    1.000
    C343     C        0.07570    0.85440    0.32570    1.000
    H395     H        0.05770    0.84230    0.37670    1.000
    H396     H        0.04440    0.85930    0.28520    1.000
    H397     H        0.10390    0.82360    0.30800    1.000
    C344     C        0.12990    0.92900    0.24970    1.000
    H398     H        0.13620    0.89490    0.21400    1.000
    H399     H        0.09980    0.95560    0.22660    1.000
    H400     H        0.16750    0.95080    0.25630    1.000
    C345     C        0.06780    0.95880    0.36170    1.000
    H401     H        0.08240    0.99930    0.35100    1.000
    H402     H        0.02890    0.95330    0.33580    1.000
    H403     H        0.06370    0.95300    0.41960    1.000
    C346     C        0.19910    0.90990    0.53290    1.000
    H404     H        0.19140    0.90950    0.58890    1.000
    C347     C        0.15000    0.90930    0.47830    1.000
    H405     H        0.11000    0.90650    0.49680    1.000
    C348     C        0.21780    0.90640    0.36720    1.000
    H406     H        0.22490    0.90120    0.31160    1.000
    C349     C        0.27000    0.90650    0.42350    1.000
    H407     H        0.30930    0.90340    0.40280    1.000
    C350     C        0.05080    0.89300    0.36560    1.000
    H408     H        0.03520    0.92110    0.40560    1.000
    H409     H        0.02130    0.88780    0.32280    1.000
    H410     H        0.05860    0.85440    0.39130    1.000
    C351     C        0.12470    0.86530    0.27030    1.000
    H411     H        0.11770    0.82370    0.28630    1.000
    H412     H        0.10100    0.87440    0.22250    1.000
    H413     H        0.16720    0.87090    0.25830    1.000
    C352     C        0.09770    0.96740    0.28560    1.000
    H414     H        0.12830    0.97890    0.24660    1.000
    H415     H        0.05920    0.96300    0.25840    1.000
    H416     H        0.09450    0.99830    0.32700    1.000
