# CIF file generated by openbabel 3.1.0, see https://openbabel.org
data_I
_chemical_name_common 'UDEMEW_clean5b'
_cell_length_a 51.5521
_cell_length_b 51.5521
_cell_length_c 51.5521
_cell_angle_alpha 60
_cell_angle_beta 60
_cell_angle_gamma 60
_space_group_name_H-M_alt 'P 1'
_space_group_name_Hall 'P 1'
loop_
    _symmetry_equiv_pos_as_xyz
    x,y,z
loop_
    _atom_site_label
    _atom_site_type_symbol
    _atom_site_fract_x
    _atom_site_fract_y
    _atom_site_fract_z
    _atom_site_occupancy
    Cr1      Cr       0.74634    0.89055    0.95500    1.000
    Cr2      Cr       0.58531    0.13928    0.92989    1.000
    O1       O        0.76118    0.80445    0.85440    1.000
    O2       O        0.73951    0.78283    0.83271    1.000
    O3       O        0.55889    0.99271    0.94308    1.000
    O4       O        0.44698    0.04674    0.00357    1.000
    O5       O        0.53276    0.04073    0.94818    1.000
    O6       O        0.72993    0.86735    0.91703    1.000
    O7       O        0.67764    0.95214    0.90269    1.000
    O8       O        0.75723    0.85369    0.94707    1.000
    O9       O        0.88755    0.93086    0.78978    1.000
    O10      O        0.73654    0.92441    0.96755    1.000
    O11      O        0.70453    0.98201    0.89050    1.000
    O12      O        0.59473    0.16727    0.96916    1.000
    O13      O        0.30193    0.10300    0.00097    1.000
    O14      O        0.56832    0.17564    0.94087    1.000
    O15      O        0.34748    0.11342    0.97168    1.000
    O16      O        0.59725    0.10559    0.91740    1.000
    O17      O        0.65013    0.08466    0.90273    1.000
    C1       C        0.37864    0.06475    0.01749    1.000
    C2       C        0.34622    0.07125    0.02258    1.000
    C3       C        0.33057    0.09781    0.99719    1.000
    C4       C        0.76349    0.81042    0.90451    1.000
    C5       C        0.76901    0.81651    0.92482    1.000
    C6       C        0.75053    0.84750    0.93060    1.000
    C7       C        0.64847    0.00575    0.90025    1.000
    C8       C        0.64899    0.03414    0.89694    1.000
    C9       C        0.62094    0.05793    0.90647    1.000
    C10      C        0.59130    0.05401    0.91785    1.000
    C11      C        0.58959    0.02608    0.92083    1.000
    C12      C        0.61864    0.00208    0.91177    1.000
    C13      C        0.55833    0.01976    0.93795    1.000
    C14      C        0.62301    0.08460    0.90853    1.000
    C15      C        0.67891    0.97844    0.89695    1.000
    C16      C        0.68853    0.02860    0.98047    1.000
    C17      C        0.70729    0.00846    0.96148    1.000
    C18      C        0.57534    0.18578    0.95360    1.000
    H1       H        0.39126    0.08004    0.99649    1.000
    H2       H        0.74397    0.82719    0.89547    1.000
    H3       H        0.67161    0.03685    0.88891    1.000
    H4       H        0.56957    0.07194    0.92615    1.000
    H5       H        0.61811    0.97973    0.91544    1.000
    H6       H        0.71339    0.01907    0.93592    1.000
    Cr3      Cr       0.89055    0.74634    0.40811    1.000
    Cr4      Cr       0.13928    0.58531    0.34552    1.000
    O18      O        0.80445    0.76118    0.57997    1.000
    O19      O        0.78283    0.73951    0.64495    1.000
    O20      O        0.99271    0.55889    0.50532    1.000
    O21      O        0.04674    0.44698    0.50271    1.000
    O22      O        0.04073    0.53276    0.47833    1.000
    O23      O        0.86735    0.72993    0.48569    1.000
    O24      O        0.95214    0.67764    0.46753    1.000
    O25      O        0.85369    0.75723    0.44201    1.000
    O26      O        0.93086    0.88755    0.39181    1.000
    O27      O        0.92441    0.73654    0.37150    1.000
    O28      O        0.98201    0.70453    0.42296    1.000
    O29      O        0.16727    0.59473    0.26884    1.000
    O30      O        0.10300    0.30193    0.59410    1.000
    O31      O        0.17564    0.56832    0.31517    1.000
    O32      O        0.11342    0.34748    0.56742    1.000
    O33      O        0.10559    0.59725    0.37976    1.000
    O34      O        0.08466    0.65013    0.36248    1.000
    C19      C        0.06475    0.37864    0.53912    1.000
    C20      C        0.07125    0.34622    0.55995    1.000
    C21      C        0.09781    0.33057    0.57443    1.000
    C22      C        0.81042    0.76349    0.52158    1.000
    C23      C        0.81651    0.76901    0.48966    1.000
    C24      C        0.84750    0.75053    0.47137    1.000
    C25      C        0.00575    0.64847    0.44553    1.000
    C26      C        0.03414    0.64899    0.41993    1.000
    C27      C        0.05793    0.62094    0.41466    1.000
    C28      C        0.05401    0.59130    0.43684    1.000
    C29      C        0.02608    0.58959    0.46350    1.000
    C30      C        0.00208    0.61864    0.46751    1.000
    C31      C        0.01976    0.55833    0.48396    1.000
    C32      C        0.08460    0.62301    0.38386    1.000
    C33      C        0.97844    0.67891    0.44570    1.000
    C34      C        0.02860    0.68853    0.30240    1.000
    C35      C        0.00846    0.70729    0.32277    1.000
    C36      C        0.18578    0.57534    0.28528    1.000
    H7       H        0.08004    0.39126    0.53221    1.000
    H8       H        0.82719    0.74397    0.53337    1.000
    H9       H        0.03685    0.67161    0.40263    1.000
    H10      H        0.07194    0.56957    0.43234    1.000
    H11      H        0.97973    0.61811    0.48672    1.000
    H12      H        0.01907    0.71339    0.33162    1.000
    Cr5      Cr       0.95500    0.40811    0.74634    1.000
    Cr6      Cr       0.92989    0.34552    0.58531    1.000
    O35      O        0.85440    0.57997    0.76118    1.000
    O36      O        0.83271    0.64495    0.73951    1.000
    O37      O        0.94308    0.50532    0.55889    1.000
    O38      O        0.00357    0.50271    0.44698    1.000
    O39      O        0.94818    0.47833    0.53276    1.000
    O40      O        0.91703    0.48569    0.72993    1.000
    O41      O        0.90269    0.46753    0.67764    1.000
    O42      O        0.94707    0.44201    0.75723    1.000
    O43      O        0.78978    0.39181    0.88755    1.000
    O44      O        0.96755    0.37150    0.73654    1.000
    O45      O        0.89050    0.42296    0.70453    1.000
    O46      O        0.96916    0.26884    0.59473    1.000
    O47      O        0.00097    0.59410    0.30193    1.000
    O48      O        0.94087    0.31517    0.56832    1.000
    O49      O        0.97168    0.56742    0.34748    1.000
    O50      O        0.91740    0.37976    0.59725    1.000
    O51      O        0.90273    0.36248    0.65013    1.000
    C37      C        0.01749    0.53912    0.37864    1.000
    C38      C        0.02258    0.55995    0.34622    1.000
    C39      C        0.99719    0.57443    0.33057    1.000
    C40      C        0.90451    0.52158    0.76349    1.000
    C41      C        0.92482    0.48966    0.76901    1.000
    C42      C        0.93060    0.47137    0.75053    1.000
    C43      C        0.90025    0.44553    0.64847    1.000
    C44      C        0.89694    0.41993    0.64899    1.000
    C45      C        0.90647    0.41466    0.62094    1.000
    C46      C        0.91785    0.43684    0.59130    1.000
    C47      C        0.92083    0.46350    0.58959    1.000
    C48      C        0.91177    0.46751    0.61864    1.000
    C49      C        0.93795    0.48396    0.55833    1.000
    C50      C        0.90853    0.38386    0.62301    1.000
    C51      C        0.89695    0.44570    0.67891    1.000
    C52      C        0.98047    0.30240    0.68853    1.000
    C53      C        0.96148    0.32277    0.70729    1.000
    C54      C        0.95360    0.28528    0.57534    1.000
    H13      H        0.99649    0.53221    0.39126    1.000
    H14      H        0.89547    0.53337    0.74397    1.000
    H15      H        0.88891    0.40263    0.67161    1.000
    H16      H        0.92615    0.43234    0.56957    1.000
    H17      H        0.91544    0.48672    0.61811    1.000
    H18      H        0.93592    0.33162    0.71339    1.000
    Cr7      Cr       0.40811    0.95500    0.89055    1.000
    Cr8      Cr       0.34552    0.92989    0.13928    1.000
    O52      O        0.57997    0.85440    0.80445    1.000
    O53      O        0.64495    0.83271    0.78283    1.000
    O54      O        0.50532    0.94308    0.99271    1.000
    O55      O        0.50271    0.00357    0.04674    1.000
    O56      O        0.47833    0.94818    0.04073    1.000
    O57      O        0.48569    0.91703    0.86735    1.000
    O58      O        0.46753    0.90269    0.95214    1.000
    O59      O        0.44201    0.94707    0.85369    1.000
    O60      O        0.39181    0.78978    0.93086    1.000
    O61      O        0.37150    0.96755    0.92441    1.000
    O62      O        0.42296    0.89050    0.98201    1.000
    O63      O        0.26884    0.96916    0.16727    1.000
    O64      O        0.59410    0.00097    0.10300    1.000
    O65      O        0.31517    0.94087    0.17564    1.000
    O66      O        0.56742    0.97168    0.11342    1.000
    O67      O        0.37976    0.91740    0.10559    1.000
    O68      O        0.36248    0.90273    0.08466    1.000
    C55      C        0.53912    0.01749    0.06475    1.000
    C56      C        0.55995    0.02258    0.07125    1.000
    C57      C        0.57443    0.99719    0.09781    1.000
    C58      C        0.52158    0.90451    0.81042    1.000
    C59      C        0.48966    0.92482    0.81651    1.000
    C60      C        0.47137    0.93060    0.84750    1.000
    C61      C        0.44553    0.90025    0.00575    1.000
    C62      C        0.41993    0.89694    0.03414    1.000
    C63      C        0.41466    0.90647    0.05793    1.000
    C64      C        0.43684    0.91785    0.05401    1.000
    C65      C        0.46350    0.92083    0.02608    1.000
    C66      C        0.46751    0.91177    0.00208    1.000
    C67      C        0.48396    0.93795    0.01976    1.000
    C68      C        0.38386    0.90853    0.08460    1.000
    C69      C        0.44570    0.89695    0.97844    1.000
    C70      C        0.30240    0.98047    0.02860    1.000
    C71      C        0.32277    0.96148    0.00846    1.000
    C72      C        0.28528    0.95360    0.18578    1.000
    H19      H        0.53221    0.99649    0.08004    1.000
    H20      H        0.53337    0.89547    0.82719    1.000
    H21      H        0.40263    0.88891    0.03685    1.000
    H22      H        0.43234    0.92615    0.07194    1.000
    H23      H        0.48672    0.91544    0.97973    1.000
    H24      H        0.33162    0.93592    0.01907    1.000
    Cr9      Cr       0.95500    0.74634    0.89055    1.000
    Cr10     Cr       0.92989    0.58531    0.13928    1.000
    O69      O        0.85440    0.76118    0.80445    1.000
    O70      O        0.83271    0.73951    0.78283    1.000
    O71      O        0.94308    0.55889    0.99271    1.000
    O72      O        0.00357    0.44698    0.04674    1.000
    O73      O        0.94818    0.53276    0.04073    1.000
    O74      O        0.91703    0.72993    0.86735    1.000
    O75      O        0.90269    0.67764    0.95214    1.000
    O76      O        0.94707    0.75723    0.85369    1.000
    O77      O        0.78978    0.88755    0.93086    1.000
    O78      O        0.96755    0.73654    0.92441    1.000
    O79      O        0.89050    0.70453    0.98201    1.000
    O80      O        0.96916    0.59473    0.16727    1.000
    O81      O        0.00097    0.30193    0.10300    1.000
    O82      O        0.94087    0.56832    0.17564    1.000
    O83      O        0.97168    0.34748    0.11342    1.000
    O84      O        0.91740    0.59725    0.10559    1.000
    O85      O        0.90273    0.65013    0.08466    1.000
    C73      C        0.01749    0.37864    0.06475    1.000
    C74      C        0.02258    0.34622    0.07125    1.000
    C75      C        0.99719    0.33057    0.09781    1.000
    C76      C        0.90451    0.76349    0.81042    1.000
    C77      C        0.92482    0.76901    0.81651    1.000
    C78      C        0.93060    0.75053    0.84750    1.000
    C79      C        0.90025    0.64847    0.00575    1.000
    C80      C        0.89694    0.64899    0.03414    1.000
    C81      C        0.90647    0.62094    0.05793    1.000
    C82      C        0.91785    0.59130    0.05401    1.000
    C83      C        0.92083    0.58959    0.02608    1.000
    C84      C        0.91177    0.61864    0.00208    1.000
    C85      C        0.93795    0.55833    0.01976    1.000
    C86      C        0.90853    0.62301    0.08460    1.000
    C87      C        0.89695    0.67891    0.97844    1.000
    C88      C        0.98047    0.68853    0.02860    1.000
    C89      C        0.96148    0.70729    0.00846    1.000
    C90      C        0.95360    0.57534    0.18578    1.000
    H25      H        0.99649    0.39126    0.08004    1.000
    H26      H        0.89547    0.74397    0.82719    1.000
    H27      H        0.88891    0.67161    0.03685    1.000
    H28      H        0.92615    0.56957    0.07194    1.000
    H29      H        0.91544    0.61811    0.97973    1.000
    H30      H        0.93592    0.71339    0.01907    1.000
    Cr11     Cr       0.40811    0.89055    0.74634    1.000
    Cr12     Cr       0.34552    0.13928    0.58531    1.000
    O86      O        0.57997    0.80445    0.76118    1.000
    O87      O        0.64495    0.78283    0.73951    1.000
    O88      O        0.50532    0.99271    0.55889    1.000
    O89      O        0.50271    0.04674    0.44698    1.000
    O90      O        0.47833    0.04073    0.53276    1.000
    O91      O        0.48569    0.86735    0.72993    1.000
    O92      O        0.46753    0.95214    0.67764    1.000
    O93      O        0.44201    0.85369    0.75723    1.000
    O94      O        0.39181    0.93086    0.88755    1.000
    O95      O        0.37150    0.92441    0.73654    1.000
    O96      O        0.42296    0.98201    0.70453    1.000
    O97      O        0.26884    0.16727    0.59473    1.000
    O98      O        0.59410    0.10300    0.30193    1.000
    O99      O        0.31517    0.17564    0.56832    1.000
    O100     O        0.56742    0.11342    0.34748    1.000
    O101     O        0.37976    0.10559    0.59725    1.000
    O102     O        0.36248    0.08466    0.65013    1.000
    C91      C        0.53912    0.06475    0.37864    1.000
    C92      C        0.55995    0.07125    0.34622    1.000
    C93      C        0.57443    0.09781    0.33057    1.000
    C94      C        0.52158    0.81042    0.76349    1.000
    C95      C        0.48966    0.81651    0.76901    1.000
    C96      C        0.47137    0.84750    0.75053    1.000
    C97      C        0.44553    0.00575    0.64847    1.000
    C98      C        0.41993    0.03414    0.64899    1.000
    C99      C        0.41466    0.05793    0.62094    1.000
    C100     C        0.43684    0.05401    0.59130    1.000
    C101     C        0.46350    0.02608    0.58959    1.000
    C102     C        0.46751    0.00208    0.61864    1.000
    C103     C        0.48396    0.01976    0.55833    1.000
    C104     C        0.38386    0.08460    0.62301    1.000
    C105     C        0.44570    0.97844    0.67891    1.000
    C106     C        0.30240    0.02860    0.68853    1.000
    C107     C        0.32277    0.00846    0.70729    1.000
    C108     C        0.28528    0.18578    0.57534    1.000
    H31      H        0.53221    0.08004    0.39126    1.000
    H32      H        0.53337    0.82719    0.74397    1.000
    H33      H        0.40263    0.03685    0.67161    1.000
    H34      H        0.43234    0.07194    0.56957    1.000
    H35      H        0.48672    0.97973    0.61811    1.000
    H36      H        0.33162    0.01907    0.71339    1.000
    Cr13     Cr       0.74634    0.95500    0.40811    1.000
    Cr14     Cr       0.58531    0.92989    0.34552    1.000
    O103     O        0.76118    0.85440    0.57997    1.000
    O104     O        0.73951    0.83271    0.64495    1.000
    O105     O        0.55889    0.94308    0.50532    1.000
    O106     O        0.44698    0.00357    0.50271    1.000
    O107     O        0.53276    0.94818    0.47833    1.000
    O108     O        0.72993    0.91703    0.48569    1.000
    O109     O        0.67764    0.90269    0.46753    1.000
    O110     O        0.75723    0.94707    0.44201    1.000
    O111     O        0.88755    0.78978    0.39181    1.000
    O112     O        0.73654    0.96755    0.37150    1.000
    O113     O        0.70453    0.89050    0.42296    1.000
    O114     O        0.59473    0.96916    0.26884    1.000
    O115     O        0.30193    0.00097    0.59410    1.000
    O116     O        0.56832    0.94087    0.31517    1.000
    O117     O        0.34748    0.97168    0.56742    1.000
    O118     O        0.59725    0.91740    0.37976    1.000
    O119     O        0.65013    0.90273    0.36248    1.000
    C109     C        0.37864    0.01749    0.53912    1.000
    C110     C        0.34622    0.02258    0.55995    1.000
    C111     C        0.33057    0.99719    0.57443    1.000
    C112     C        0.76349    0.90451    0.52158    1.000
    C113     C        0.76901    0.92482    0.48966    1.000
    C114     C        0.75053    0.93060    0.47137    1.000
    C115     C        0.64847    0.90025    0.44553    1.000
    C116     C        0.64899    0.89694    0.41993    1.000
    C117     C        0.62094    0.90647    0.41466    1.000
    C118     C        0.59130    0.91785    0.43684    1.000
    C119     C        0.58959    0.92083    0.46350    1.000
    C120     C        0.61864    0.91177    0.46751    1.000
    C121     C        0.55833    0.93795    0.48396    1.000
    C122     C        0.62301    0.90853    0.38386    1.000
    C123     C        0.67891    0.89695    0.44570    1.000
    C124     C        0.68853    0.98047    0.30240    1.000
    C125     C        0.70729    0.96148    0.32277    1.000
    C126     C        0.57534    0.95360    0.28528    1.000
    H37      H        0.39126    0.99649    0.53221    1.000
    H38      H        0.74397    0.89547    0.53337    1.000
    H39      H        0.67161    0.88891    0.40263    1.000
    H40      H        0.56957    0.92615    0.43234    1.000
    H41      H        0.61811    0.91544    0.48672    1.000
    H42      H        0.71339    0.93592    0.33162    1.000
    Cr15     Cr       0.89055    0.40811    0.95500    1.000
    Cr16     Cr       0.13928    0.34552    0.92989    1.000
    O120     O        0.80445    0.57997    0.85440    1.000
    O121     O        0.78283    0.64495    0.83271    1.000
    O122     O        0.99271    0.50532    0.94308    1.000
    O123     O        0.04674    0.50271    0.00357    1.000
    O124     O        0.04073    0.47833    0.94818    1.000
    O125     O        0.86735    0.48569    0.91703    1.000
    O126     O        0.95214    0.46753    0.90269    1.000
    O127     O        0.85369    0.44201    0.94707    1.000
    O128     O        0.93086    0.39181    0.78978    1.000
    O129     O        0.92441    0.37150    0.96755    1.000
    O130     O        0.98201    0.42296    0.89050    1.000
    O131     O        0.16727    0.26884    0.96916    1.000
    O132     O        0.10300    0.59410    0.00097    1.000
    O133     O        0.17564    0.31517    0.94087    1.000
    O134     O        0.11342    0.56742    0.97168    1.000
    O135     O        0.10559    0.37976    0.91740    1.000
    O136     O        0.08466    0.36248    0.90273    1.000
    C127     C        0.06475    0.53912    0.01749    1.000
    C128     C        0.07125    0.55995    0.02258    1.000
    C129     C        0.09781    0.57443    0.99719    1.000
    C130     C        0.81042    0.52158    0.90451    1.000
    C131     C        0.81651    0.48966    0.92482    1.000
    C132     C        0.84750    0.47137    0.93060    1.000
    C133     C        0.00575    0.44553    0.90025    1.000
    C134     C        0.03414    0.41993    0.89694    1.000
    C135     C        0.05793    0.41466    0.90647    1.000
    C136     C        0.05401    0.43684    0.91785    1.000
    C137     C        0.02608    0.46350    0.92083    1.000
    C138     C        0.00208    0.46751    0.91177    1.000
    C139     C        0.01976    0.48396    0.93795    1.000
    C140     C        0.08460    0.38386    0.90853    1.000
    C141     C        0.97844    0.44570    0.89695    1.000
    C142     C        0.02860    0.30240    0.98047    1.000
    C143     C        0.00846    0.32277    0.96148    1.000
    C144     C        0.18578    0.28528    0.95360    1.000
    H43      H        0.08004    0.53221    0.99649    1.000
    H44      H        0.82719    0.53337    0.89547    1.000
    H45      H        0.03685    0.40263    0.88891    1.000
    H46      H        0.07194    0.43234    0.92615    1.000
    H47      H        0.97973    0.48672    0.91544    1.000
    H48      H        0.01907    0.33162    0.93592    1.000
    Cr17     Cr       0.89055    0.95500    0.74634    1.000
    Cr18     Cr       0.13928    0.92989    0.58531    1.000
    O137     O        0.80445    0.85440    0.76118    1.000
    O138     O        0.78283    0.83271    0.73951    1.000
    O139     O        0.99271    0.94308    0.55889    1.000
    O140     O        0.04674    0.00357    0.44698    1.000
    O141     O        0.04073    0.94818    0.53276    1.000
    O142     O        0.86735    0.91703    0.72993    1.000
    O143     O        0.95214    0.90269    0.67764    1.000
    O144     O        0.85369    0.94707    0.75723    1.000
    O145     O        0.93086    0.78978    0.88755    1.000
    O146     O        0.92441    0.96755    0.73654    1.000
    O147     O        0.98201    0.89050    0.70453    1.000
    O148     O        0.16727    0.96916    0.59473    1.000
    O149     O        0.10300    0.00097    0.30193    1.000
    O150     O        0.17564    0.94087    0.56832    1.000
    O151     O        0.11342    0.97168    0.34748    1.000
    O152     O        0.10559    0.91740    0.59725    1.000
    O153     O        0.08466    0.90273    0.65013    1.000
    C145     C        0.06475    0.01749    0.37864    1.000
    C146     C        0.07125    0.02258    0.34622    1.000
    C147     C        0.09781    0.99719    0.33057    1.000
    C148     C        0.81042    0.90451    0.76349    1.000
    C149     C        0.81651    0.92482    0.76901    1.000
    C150     C        0.84750    0.93060    0.75053    1.000
    C151     C        0.00575    0.90025    0.64847    1.000
    C152     C        0.03414    0.89694    0.64899    1.000
    C153     C        0.05793    0.90647    0.62094    1.000
    C154     C        0.05401    0.91785    0.59130    1.000
    C155     C        0.02608    0.92083    0.58959    1.000
    C156     C        0.00208    0.91177    0.61864    1.000
    C157     C        0.01976    0.93795    0.55833    1.000
    C158     C        0.08460    0.90853    0.62301    1.000
    C159     C        0.97844    0.89695    0.67891    1.000
    C160     C        0.02860    0.98047    0.68853    1.000
    C161     C        0.00846    0.96148    0.70729    1.000
    C162     C        0.18578    0.95360    0.57534    1.000
    H49      H        0.08004    0.99649    0.39126    1.000
    H50      H        0.82719    0.89547    0.74397    1.000
    H51      H        0.03685    0.88891    0.67161    1.000
    H52      H        0.07194    0.92615    0.56957    1.000
    H53      H        0.97973    0.91544    0.61811    1.000
    H54      H        0.01907    0.93592    0.71339    1.000
    Cr19     Cr       0.74634    0.40811    0.89055    1.000
    Cr20     Cr       0.58531    0.34552    0.13928    1.000
    O154     O        0.76118    0.57997    0.80445    1.000
    O155     O        0.73951    0.64495    0.78283    1.000
    O156     O        0.55889    0.50532    0.99271    1.000
    O157     O        0.44698    0.50271    0.04674    1.000
    O158     O        0.53276    0.47833    0.04073    1.000
    O159     O        0.72993    0.48569    0.86735    1.000
    O160     O        0.67764    0.46753    0.95214    1.000
    O161     O        0.75723    0.44201    0.85369    1.000
    O162     O        0.88755    0.39181    0.93086    1.000
    O163     O        0.73654    0.37150    0.92441    1.000
    O164     O        0.70453    0.42296    0.98201    1.000
    O165     O        0.59473    0.26884    0.16727    1.000
    O166     O        0.30193    0.59410    0.10300    1.000
    O167     O        0.56832    0.31517    0.17564    1.000
    O168     O        0.34748    0.56742    0.11342    1.000
    O169     O        0.59725    0.37976    0.10559    1.000
    O170     O        0.65013    0.36248    0.08466    1.000
    C163     C        0.37864    0.53912    0.06475    1.000
    C164     C        0.34622    0.55995    0.07125    1.000
    C165     C        0.33057    0.57443    0.09781    1.000
    C166     C        0.76349    0.52158    0.81042    1.000
    C167     C        0.76901    0.48966    0.81651    1.000
    C168     C        0.75053    0.47137    0.84750    1.000
    C169     C        0.64847    0.44553    0.00575    1.000
    C170     C        0.64899    0.41993    0.03414    1.000
    C171     C        0.62094    0.41466    0.05793    1.000
    C172     C        0.59130    0.43684    0.05401    1.000
    C173     C        0.58959    0.46350    0.02608    1.000
    C174     C        0.61864    0.46751    0.00208    1.000
    C175     C        0.55833    0.48396    0.01976    1.000
    C176     C        0.62301    0.38386    0.08460    1.000
    C177     C        0.67891    0.44570    0.97844    1.000
    C178     C        0.68853    0.30240    0.02860    1.000
    C179     C        0.70729    0.32277    0.00846    1.000
    C180     C        0.57534    0.28528    0.18578    1.000
    H55      H        0.39126    0.53221    0.08004    1.000
    H56      H        0.74397    0.53337    0.82719    1.000
    H57      H        0.67161    0.40263    0.03685    1.000
    H58      H        0.56957    0.43234    0.07194    1.000
    H59      H        0.61811    0.48672    0.97973    1.000
    H60      H        0.71339    0.33162    0.01907    1.000
    Cr21     Cr       0.40811    0.74634    0.95500    1.000
    Cr22     Cr       0.34552    0.58531    0.92989    1.000
    O171     O        0.57997    0.76118    0.85440    1.000
    O172     O        0.64495    0.73951    0.83271    1.000
    O173     O        0.50532    0.55889    0.94308    1.000
    O174     O        0.50271    0.44698    0.00357    1.000
    O175     O        0.47833    0.53276    0.94818    1.000
    O176     O        0.48569    0.72993    0.91703    1.000
    O177     O        0.46753    0.67764    0.90269    1.000
    O178     O        0.44201    0.75723    0.94707    1.000
    O179     O        0.39181    0.88755    0.78978    1.000
    O180     O        0.37150    0.73654    0.96755    1.000
    O181     O        0.42296    0.70453    0.89050    1.000
    O182     O        0.26884    0.59473    0.96916    1.000
    O183     O        0.59410    0.30193    0.00097    1.000
    O184     O        0.31517    0.56832    0.94087    1.000
    O185     O        0.56742    0.34748    0.97168    1.000
    O186     O        0.37976    0.59725    0.91740    1.000
    O187     O        0.36248    0.65013    0.90273    1.000
    C181     C        0.53912    0.37864    0.01749    1.000
    C182     C        0.55995    0.34622    0.02258    1.000
    C183     C        0.57443    0.33057    0.99719    1.000
    C184     C        0.52158    0.76349    0.90451    1.000
    C185     C        0.48966    0.76901    0.92482    1.000
    C186     C        0.47137    0.75053    0.93060    1.000
    C187     C        0.44553    0.64847    0.90025    1.000
    C188     C        0.41993    0.64899    0.89694    1.000
    C189     C        0.41466    0.62094    0.90647    1.000
    C190     C        0.43684    0.59130    0.91785    1.000
    C191     C        0.46350    0.58959    0.92083    1.000
    C192     C        0.46751    0.61864    0.91177    1.000
    C193     C        0.48396    0.55833    0.93795    1.000
    C194     C        0.38386    0.62301    0.90853    1.000
    C195     C        0.44570    0.67891    0.89695    1.000
    C196     C        0.30240    0.68853    0.98047    1.000
    C197     C        0.32277    0.70729    0.96148    1.000
    C198     C        0.28528    0.57534    0.95360    1.000
    H61      H        0.53221    0.39126    0.99649    1.000
    H62      H        0.53337    0.74397    0.89547    1.000
    H63      H        0.40263    0.67161    0.88891    1.000
    H64      H        0.43234    0.56957    0.92615    1.000
    H65      H        0.48672    0.61811    0.91544    1.000
    H66      H        0.33162    0.71339    0.93592    1.000
    Cr23     Cr       0.95500    0.89055    0.40811    1.000
    Cr24     Cr       0.92989    0.13928    0.34552    1.000
    O188     O        0.85440    0.80445    0.57997    1.000
    O189     O        0.83271    0.78283    0.64495    1.000
    O190     O        0.94308    0.99271    0.50532    1.000
    O191     O        0.00357    0.04674    0.50271    1.000
    O192     O        0.94818    0.04073    0.47833    1.000
    O193     O        0.91703    0.86735    0.48569    1.000
    O194     O        0.90269    0.95214    0.46753    1.000
    O195     O        0.94707    0.85369    0.44201    1.000
    O196     O        0.78978    0.93086    0.39181    1.000
    O197     O        0.96755    0.92441    0.37150    1.000
    O198     O        0.89050    0.98201    0.42296    1.000
    O199     O        0.96916    0.16727    0.26884    1.000
    O200     O        0.00097    0.10300    0.59410    1.000
    O201     O        0.94087    0.17564    0.31517    1.000
    O202     O        0.97168    0.11342    0.56742    1.000
    O203     O        0.91740    0.10559    0.37976    1.000
    O204     O        0.90273    0.08466    0.36248    1.000
    C199     C        0.01749    0.06475    0.53912    1.000
    C200     C        0.02258    0.07125    0.55995    1.000
    C201     C        0.99719    0.09781    0.57443    1.000
    C202     C        0.90451    0.81042    0.52158    1.000
    C203     C        0.92482    0.81651    0.48966    1.000
    C204     C        0.93060    0.84750    0.47137    1.000
    C205     C        0.90025    0.00575    0.44553    1.000
    C206     C        0.89694    0.03414    0.41993    1.000
    C207     C        0.90647    0.05793    0.41466    1.000
    C208     C        0.91785    0.05401    0.43684    1.000
    C209     C        0.92083    0.02608    0.46350    1.000
    C210     C        0.91177    0.00208    0.46751    1.000
    C211     C        0.93795    0.01976    0.48396    1.000
    C212     C        0.90853    0.08460    0.38386    1.000
    C213     C        0.89695    0.97844    0.44570    1.000
    C214     C        0.98047    0.02860    0.30240    1.000
    C215     C        0.96148    0.00846    0.32277    1.000
    C216     C        0.95360    0.18578    0.28528    1.000
    H67      H        0.99649    0.08004    0.53221    1.000
    H68      H        0.89547    0.82719    0.53337    1.000
    H69      H        0.88891    0.03685    0.40263    1.000
    H70      H        0.92615    0.07194    0.43234    1.000
    H71      H        0.91544    0.97973    0.48672    1.000
    H72      H        0.93592    0.01907    0.33162    1.000
    Cr25     Cr       0.50366    0.35945    0.84189    1.000
    Cr26     Cr       0.66469    0.11072    0.90448    1.000
    O205     O        0.48882    0.44555    0.67003    1.000
    O206     O        0.51049    0.46717    0.60505    1.000
    O207     O        0.69111    0.25729    0.74468    1.000
    O208     O        0.80302    0.20326    0.74729    1.000
    O209     O        0.71724    0.20927    0.77167    1.000
    O210     O        0.52007    0.38265    0.76431    1.000
    O211     O        0.57236    0.29786    0.78247    1.000
    O212     O        0.49277    0.39631    0.80799    1.000
    O213     O        0.36245    0.31914    0.85819    1.000
    O214     O        0.51346    0.32559    0.87850    1.000
    O215     O        0.54547    0.26799    0.82704    1.000
    O216     O        0.65527    0.08273    0.98116    1.000
    O217     O        0.94807    0.14700    0.65590    1.000
    O218     O        0.68168    0.07436    0.93483    1.000
    O219     O        0.90252    0.13658    0.68258    1.000
    O220     O        0.65275    0.14441    0.87024    1.000
    O221     O        0.59987    0.16534    0.88752    1.000
    C217     C        0.87136    0.18525    0.71088    1.000
    C218     C        0.90378    0.17875    0.69005    1.000
    C219     C        0.91943    0.15219    0.67557    1.000
    C220     C        0.48651    0.43958    0.72842    1.000
    C221     C        0.48099    0.43349    0.76034    1.000
    C222     C        0.49947    0.40250    0.77863    1.000
    C223     C        0.60153    0.24425    0.80447    1.000
    C224     C        0.60101    0.21586    0.83007    1.000
    C225     C        0.62906    0.19207    0.83534    1.000
    C226     C        0.65870    0.19599    0.81316    1.000
    C227     C        0.66041    0.22392    0.78650    1.000
    C228     C        0.63136    0.24792    0.78249    1.000
    C229     C        0.69167    0.23024    0.76604    1.000
    C230     C        0.62699    0.16540    0.86614    1.000
    C231     C        0.57109    0.27156    0.80430    1.000
    C232     C        0.56147    0.22140    0.94760    1.000
    C233     C        0.54271    0.24154    0.92723    1.000
    C234     C        0.67466    0.06422    0.96472    1.000
    H73      H        0.85874    0.16996    0.71779    1.000
    H74      H        0.50603    0.42281    0.71663    1.000
    H75      H        0.57839    0.21315    0.84737    1.000
    H76      H        0.68043    0.17806    0.81766    1.000
    H77      H        0.63189    0.27027    0.76328    1.000
    H78      H        0.53661    0.23093    0.91838    1.000
    Cr27     Cr       0.35945    0.50366    0.29500    1.000
    Cr28     Cr       0.11072    0.66469    0.32011    1.000
    O222     O        0.44555    0.48882    0.39560    1.000
    O223     O        0.46717    0.51049    0.41729    1.000
    O224     O        0.25729    0.69111    0.30692    1.000
    O225     O        0.20326    0.80302    0.24643    1.000
    O226     O        0.20927    0.71724    0.30182    1.000
    O227     O        0.38265    0.52007    0.33297    1.000
    O228     O        0.29786    0.57236    0.34731    1.000
    O229     O        0.39631    0.49277    0.30293    1.000
    O230     O        0.31914    0.36245    0.46022    1.000
    O231     O        0.32559    0.51346    0.28245    1.000
    O232     O        0.26799    0.54547    0.35950    1.000
    O233     O        0.08273    0.65527    0.28084    1.000
    O234     O        0.14700    0.94807    0.24903    1.000
    O235     O        0.07436    0.68168    0.30913    1.000
    O236     O        0.13658    0.90252    0.27832    1.000
    O237     O        0.14441    0.65275    0.33260    1.000
    O238     O        0.16534    0.59987    0.34727    1.000
    C235     C        0.18525    0.87136    0.23251    1.000
    C236     C        0.17875    0.90378    0.22742    1.000
    C237     C        0.15219    0.91943    0.25281    1.000
    C238     C        0.43958    0.48651    0.34549    1.000
    C239     C        0.43349    0.48099    0.32518    1.000
    C240     C        0.40250    0.49947    0.31940    1.000
    C241     C        0.24425    0.60153    0.34975    1.000
    C242     C        0.21586    0.60101    0.35306    1.000
    C243     C        0.19207    0.62906    0.34353    1.000
    C244     C        0.19599    0.65870    0.33215    1.000
    C245     C        0.22392    0.66041    0.32917    1.000
    C246     C        0.24792    0.63136    0.33823    1.000
    C247     C        0.23024    0.69167    0.31205    1.000
    C248     C        0.16540    0.62699    0.34147    1.000
    C249     C        0.27156    0.57109    0.35305    1.000
    C250     C        0.22140    0.56147    0.26953    1.000
    C251     C        0.24154    0.54271    0.28852    1.000
    C252     C        0.06422    0.67466    0.29640    1.000
    H79      H        0.16996    0.85874    0.25351    1.000
    H80      H        0.42281    0.50603    0.35453    1.000
    H81      H        0.21315    0.57839    0.36109    1.000
    H82      H        0.17806    0.68043    0.32385    1.000
    H83      H        0.27027    0.63189    0.33456    1.000
    H84      H        0.23093    0.53661    0.31408    1.000
    Cr29     Cr       0.29500    0.84189    0.35945    1.000
    Cr30     Cr       0.32011    0.90448    0.11072    1.000
    O239     O        0.39560    0.67003    0.44555    1.000
    O240     O        0.41729    0.60505    0.46717    1.000
    O241     O        0.30692    0.74468    0.25729    1.000
    O242     O        0.24643    0.74729    0.20326    1.000
    O243     O        0.30182    0.77167    0.20927    1.000
    O244     O        0.33297    0.76431    0.38265    1.000
    O245     O        0.34731    0.78247    0.29786    1.000
    O246     O        0.30293    0.80799    0.39631    1.000
    O247     O        0.46022    0.85819    0.31914    1.000
    O248     O        0.28245    0.87850    0.32559    1.000
    O249     O        0.35950    0.82704    0.26799    1.000
    O250     O        0.28084    0.98116    0.08273    1.000
    O251     O        0.24903    0.65590    0.14700    1.000
    O252     O        0.30913    0.93483    0.07436    1.000
    O253     O        0.27832    0.68258    0.13658    1.000
    O254     O        0.33260    0.87024    0.14441    1.000
    O255     O        0.34727    0.88752    0.16534    1.000
    C253     C        0.23251    0.71088    0.18525    1.000
    C254     C        0.22742    0.69005    0.17875    1.000
    C255     C        0.25281    0.67557    0.15219    1.000
    C256     C        0.34549    0.72842    0.43958    1.000
    C257     C        0.32518    0.76034    0.43349    1.000
    C258     C        0.31940    0.77863    0.40250    1.000
    C259     C        0.34975    0.80447    0.24425    1.000
    C260     C        0.35306    0.83007    0.21586    1.000
    C261     C        0.34353    0.83534    0.19207    1.000
    C262     C        0.33215    0.81316    0.19599    1.000
    C263     C        0.32917    0.78650    0.22392    1.000
    C264     C        0.33823    0.78249    0.24792    1.000
    C265     C        0.31205    0.76604    0.23024    1.000
    C266     C        0.34147    0.86614    0.16540    1.000
    C267     C        0.35305    0.80430    0.27156    1.000
    C268     C        0.26953    0.94760    0.22140    1.000
    C269     C        0.28852    0.92723    0.24154    1.000
    C270     C        0.29640    0.96472    0.06422    1.000
    H85      H        0.25351    0.71779    0.16996    1.000
    H86      H        0.35453    0.71663    0.42281    1.000
    H87      H        0.36109    0.84737    0.21315    1.000
    H88      H        0.32385    0.81766    0.17806    1.000
    H89      H        0.33456    0.76328    0.27027    1.000
    H90      H        0.31408    0.91838    0.23093    1.000
    Cr31     Cr       0.84189    0.29500    0.50366    1.000
    Cr32     Cr       0.90448    0.32011    0.66469    1.000
    O256     O        0.67003    0.39560    0.48882    1.000
    O257     O        0.60505    0.41729    0.51049    1.000
    O258     O        0.74468    0.30692    0.69111    1.000
    O259     O        0.74729    0.24643    0.80302    1.000
    O260     O        0.77167    0.30182    0.71724    1.000
    O261     O        0.76431    0.33297    0.52007    1.000
    O262     O        0.78247    0.34731    0.57236    1.000
    O263     O        0.80799    0.30293    0.49277    1.000
    O264     O        0.85819    0.46022    0.36245    1.000
    O265     O        0.87850    0.28245    0.51346    1.000
    O266     O        0.82704    0.35950    0.54547    1.000
    O267     O        0.98116    0.28084    0.65527    1.000
    O268     O        0.65590    0.24903    0.94807    1.000
    O269     O        0.93483    0.30913    0.68168    1.000
    O270     O        0.68258    0.27832    0.90252    1.000
    O271     O        0.87024    0.33260    0.65275    1.000
    O272     O        0.88752    0.34727    0.59987    1.000
    C271     C        0.71088    0.23251    0.87136    1.000
    C272     C        0.69005    0.22742    0.90378    1.000
    C273     C        0.67557    0.25281    0.91943    1.000
    C274     C        0.72842    0.34549    0.48651    1.000
    C275     C        0.76034    0.32518    0.48099    1.000
    C276     C        0.77863    0.31940    0.49947    1.000
    C277     C        0.80447    0.34975    0.60153    1.000
    C278     C        0.83007    0.35306    0.60101    1.000
    C279     C        0.83534    0.34353    0.62906    1.000
    C280     C        0.81316    0.33215    0.65870    1.000
    C281     C        0.78650    0.32917    0.66041    1.000
    C282     C        0.78249    0.33823    0.63136    1.000
    C283     C        0.76604    0.31205    0.69167    1.000
    C284     C        0.86614    0.34147    0.62699    1.000
    C285     C        0.80430    0.35305    0.57109    1.000
    C286     C        0.94760    0.26953    0.56147    1.000
    C287     C        0.92723    0.28852    0.54271    1.000
    C288     C        0.96472    0.29640    0.67466    1.000
    H91      H        0.71779    0.25351    0.85874    1.000
    H92      H        0.71663    0.35453    0.50603    1.000
    H93      H        0.84737    0.36109    0.57839    1.000
    H94      H        0.81766    0.32385    0.68043    1.000
    H95      H        0.76328    0.33456    0.63189    1.000
    H96      H        0.91838    0.31408    0.53661    1.000
    Cr33     Cr       0.29500    0.50366    0.84189    1.000
    Cr34     Cr       0.32011    0.66469    0.90448    1.000
    O273     O        0.39560    0.48882    0.67003    1.000
    O274     O        0.41729    0.51049    0.60505    1.000
    O275     O        0.30692    0.69111    0.74468    1.000
    O276     O        0.24643    0.80302    0.74729    1.000
    O277     O        0.30182    0.71724    0.77167    1.000
    O278     O        0.33297    0.52007    0.76431    1.000
    O279     O        0.34731    0.57236    0.78247    1.000
    O280     O        0.30293    0.49277    0.80799    1.000
    O281     O        0.46022    0.36245    0.85819    1.000
    O282     O        0.28245    0.51346    0.87850    1.000
    O283     O        0.35950    0.54547    0.82704    1.000
    O284     O        0.28084    0.65527    0.98116    1.000
    O285     O        0.24903    0.94807    0.65590    1.000
    O286     O        0.30913    0.68168    0.93483    1.000
    O287     O        0.27832    0.90252    0.68258    1.000
    O288     O        0.33260    0.65275    0.87024    1.000
    O289     O        0.34727    0.59987    0.88752    1.000
    C289     C        0.23251    0.87136    0.71088    1.000
    C290     C        0.22742    0.90378    0.69005    1.000
    C291     C        0.25281    0.91943    0.67557    1.000
    C292     C        0.34549    0.48651    0.72842    1.000
    C293     C        0.32518    0.48099    0.76034    1.000
    C294     C        0.31940    0.49947    0.77863    1.000
    C295     C        0.34975    0.60153    0.80447    1.000
    C296     C        0.35306    0.60101    0.83007    1.000
    C297     C        0.34353    0.62906    0.83534    1.000
    C298     C        0.33215    0.65870    0.81316    1.000
    C299     C        0.32917    0.66041    0.78650    1.000
    C300     C        0.33823    0.63136    0.78249    1.000
    C301     C        0.31205    0.69167    0.76604    1.000
    C302     C        0.34147    0.62699    0.86614    1.000
    C303     C        0.35305    0.57109    0.80430    1.000
    C304     C        0.26953    0.56147    0.94760    1.000
    C305     C        0.28852    0.54271    0.92723    1.000
    C306     C        0.29640    0.67466    0.96472    1.000
    H97      H        0.25351    0.85874    0.71779    1.000
    H98      H        0.35453    0.50603    0.71663    1.000
    H99      H        0.36109    0.57839    0.84737    1.000
    H100     H        0.32385    0.68043    0.81766    1.000
    H101     H        0.33456    0.63189    0.76328    1.000
    H102     H        0.31408    0.53661    0.91838    1.000
    Cr35     Cr       0.84189    0.35945    0.29500    1.000
    Cr36     Cr       0.90448    0.11072    0.32011    1.000
    O290     O        0.67003    0.44555    0.39560    1.000
    O291     O        0.60505    0.46717    0.41729    1.000
    O292     O        0.74468    0.25729    0.30692    1.000
    O293     O        0.74729    0.20326    0.24643    1.000
    O294     O        0.77167    0.20927    0.30182    1.000
    O295     O        0.76431    0.38265    0.33297    1.000
    O296     O        0.78247    0.29786    0.34731    1.000
    O297     O        0.80799    0.39631    0.30293    1.000
    O298     O        0.85819    0.31914    0.46022    1.000
    O299     O        0.87850    0.32559    0.28245    1.000
    O300     O        0.82704    0.26799    0.35950    1.000
    O301     O        0.98116    0.08273    0.28084    1.000
    O302     O        0.65590    0.14700    0.24903    1.000
    O303     O        0.93483    0.07436    0.30913    1.000
    O304     O        0.68258    0.13658    0.27832    1.000
    O305     O        0.87024    0.14441    0.33260    1.000
    O306     O        0.88752    0.16534    0.34727    1.000
    C307     C        0.71088    0.18525    0.23251    1.000
    C308     C        0.69005    0.17875    0.22742    1.000
    C309     C        0.67557    0.15219    0.25281    1.000
    C310     C        0.72842    0.43958    0.34549    1.000
    C311     C        0.76034    0.43349    0.32518    1.000
    C312     C        0.77863    0.40250    0.31940    1.000
    C313     C        0.80447    0.24425    0.34975    1.000
    C314     C        0.83007    0.21586    0.35306    1.000
    C315     C        0.83534    0.19207    0.34353    1.000
    C316     C        0.81316    0.19599    0.33215    1.000
    C317     C        0.78650    0.22392    0.32917    1.000
    C318     C        0.78249    0.24792    0.33823    1.000
    C319     C        0.76604    0.23024    0.31205    1.000
    C320     C        0.86614    0.16540    0.34147    1.000
    C321     C        0.80430    0.27156    0.35305    1.000
    C322     C        0.94760    0.22140    0.26953    1.000
    C323     C        0.92723    0.24154    0.28852    1.000
    C324     C        0.96472    0.06422    0.29640    1.000
    H103     H        0.71779    0.16996    0.25351    1.000
    H104     H        0.71663    0.42281    0.35453    1.000
    H105     H        0.84737    0.21315    0.36109    1.000
    H106     H        0.81766    0.17806    0.32385    1.000
    H107     H        0.76328    0.27027    0.33456    1.000
    H108     H        0.91838    0.23093    0.31408    1.000
    Cr37     Cr       0.50366    0.29500    0.35945    1.000
    Cr38     Cr       0.66469    0.32011    0.11072    1.000
    O307     O        0.48882    0.39560    0.44555    1.000
    O308     O        0.51049    0.41729    0.46717    1.000
    O309     O        0.69111    0.30692    0.25729    1.000
    O310     O        0.80302    0.24643    0.20326    1.000
    O311     O        0.71724    0.30182    0.20927    1.000
    O312     O        0.52007    0.33297    0.38265    1.000
    O313     O        0.57236    0.34731    0.29786    1.000
    O314     O        0.49277    0.30293    0.39631    1.000
    O315     O        0.36245    0.46022    0.31914    1.000
    O316     O        0.51346    0.28245    0.32559    1.000
    O317     O        0.54547    0.35950    0.26799    1.000
    O318     O        0.65527    0.28084    0.08273    1.000
    O319     O        0.94807    0.24903    0.14700    1.000
    O320     O        0.68168    0.30913    0.07436    1.000
    O321     O        0.90252    0.27832    0.13658    1.000
    O322     O        0.65275    0.33260    0.14441    1.000
    O323     O        0.59987    0.34727    0.16534    1.000
    C325     C        0.87136    0.23251    0.18525    1.000
    C326     C        0.90378    0.22742    0.17875    1.000
    C327     C        0.91943    0.25281    0.15219    1.000
    C328     C        0.48651    0.34549    0.43958    1.000
    C329     C        0.48099    0.32518    0.43349    1.000
    C330     C        0.49947    0.31940    0.40250    1.000
    C331     C        0.60153    0.34975    0.24425    1.000
    C332     C        0.60101    0.35306    0.21586    1.000
    C333     C        0.62906    0.34353    0.19207    1.000
    C334     C        0.65870    0.33215    0.19599    1.000
    C335     C        0.66041    0.32917    0.22392    1.000
    C336     C        0.63136    0.33823    0.24792    1.000
    C337     C        0.69167    0.31205    0.23024    1.000
    C338     C        0.62699    0.34147    0.16540    1.000
    C339     C        0.57109    0.35305    0.27156    1.000
    C340     C        0.56147    0.26953    0.22140    1.000
    C341     C        0.54271    0.28852    0.24154    1.000
    C342     C        0.67466    0.29640    0.06422    1.000
    H109     H        0.85874    0.25351    0.16996    1.000
    H110     H        0.50603    0.35453    0.42281    1.000
    H111     H        0.57839    0.36109    0.21315    1.000
    H112     H        0.68043    0.32385    0.17806    1.000
    H113     H        0.63189    0.33456    0.27027    1.000
    H114     H        0.53661    0.31408    0.23093    1.000
    Cr39     Cr       0.35945    0.84189    0.50366    1.000
    Cr40     Cr       0.11072    0.90448    0.66469    1.000
    O324     O        0.44555    0.67003    0.48882    1.000
    O325     O        0.46717    0.60505    0.51049    1.000
    O326     O        0.25729    0.74468    0.69111    1.000
    O327     O        0.20326    0.74729    0.80302    1.000
    O328     O        0.20927    0.77167    0.71724    1.000
    O329     O        0.38265    0.76431    0.52007    1.000
    O330     O        0.29786    0.78247    0.57236    1.000
    O331     O        0.39631    0.80799    0.49277    1.000
    O332     O        0.31914    0.85819    0.36245    1.000
    O333     O        0.32559    0.87850    0.51346    1.000
    O334     O        0.26799    0.82704    0.54547    1.000
    O335     O        0.08273    0.98116    0.65527    1.000
    O336     O        0.14700    0.65590    0.94807    1.000
    O337     O        0.07436    0.93483    0.68168    1.000
    O338     O        0.13658    0.68258    0.90252    1.000
    O339     O        0.14441    0.87024    0.65275    1.000
    O340     O        0.16534    0.88752    0.59987    1.000
    C343     C        0.18525    0.71088    0.87136    1.000
    C344     C        0.17875    0.69005    0.90378    1.000
    C345     C        0.15219    0.67557    0.91943    1.000
    C346     C        0.43958    0.72842    0.48651    1.000
    C347     C        0.43349    0.76034    0.48099    1.000
    C348     C        0.40250    0.77863    0.49947    1.000
    C349     C        0.24425    0.80447    0.60153    1.000
    C350     C        0.21586    0.83007    0.60101    1.000
    C351     C        0.19207    0.83534    0.62906    1.000
    C352     C        0.19599    0.81316    0.65870    1.000
    C353     C        0.22392    0.78650    0.66041    1.000
    C354     C        0.24792    0.78249    0.63136    1.000
    C355     C        0.23024    0.76604    0.69167    1.000
    C356     C        0.16540    0.86614    0.62699    1.000
    C357     C        0.27156    0.80430    0.57109    1.000
    C358     C        0.22140    0.94760    0.56147    1.000
    C359     C        0.24154    0.92723    0.54271    1.000
    C360     C        0.06422    0.96472    0.67466    1.000
    H115     H        0.16996    0.71779    0.85874    1.000
    H116     H        0.42281    0.71663    0.50603    1.000
    H117     H        0.21315    0.84737    0.57839    1.000
    H118     H        0.17806    0.81766    0.68043    1.000
    H119     H        0.27027    0.76328    0.63189    1.000
    H120     H        0.23093    0.91838    0.53661    1.000
    Cr41     Cr       0.35945    0.29500    0.84189    1.000
    Cr42     Cr       0.11072    0.32011    0.90448    1.000
    O341     O        0.44555    0.39560    0.67003    1.000
    O342     O        0.46717    0.41729    0.60505    1.000
    O343     O        0.25729    0.30692    0.74468    1.000
    O344     O        0.20326    0.24643    0.74729    1.000
    O345     O        0.20927    0.30182    0.77167    1.000
    O346     O        0.38265    0.33297    0.76431    1.000
    O347     O        0.29786    0.34731    0.78247    1.000
    O348     O        0.39631    0.30293    0.80799    1.000
    O349     O        0.31914    0.46022    0.85819    1.000
    O350     O        0.32559    0.28245    0.87850    1.000
    O351     O        0.26799    0.35950    0.82704    1.000
    O352     O        0.08273    0.28084    0.98116    1.000
    O353     O        0.14700    0.24903    0.65590    1.000
    O354     O        0.07436    0.30913    0.93483    1.000
    O355     O        0.13658    0.27832    0.68258    1.000
    O356     O        0.14441    0.33260    0.87024    1.000
    O357     O        0.16534    0.34727    0.88752    1.000
    C361     C        0.18525    0.23251    0.71088    1.000
    C362     C        0.17875    0.22742    0.69005    1.000
    C363     C        0.15219    0.25281    0.67557    1.000
    C364     C        0.43958    0.34549    0.72842    1.000
    C365     C        0.43349    0.32518    0.76034    1.000
    C366     C        0.40250    0.31940    0.77863    1.000
    C367     C        0.24425    0.34975    0.80447    1.000
    C368     C        0.21586    0.35306    0.83007    1.000
    C369     C        0.19207    0.34353    0.83534    1.000
    C370     C        0.19599    0.33215    0.81316    1.000
    C371     C        0.22392    0.32917    0.78650    1.000
    C372     C        0.24792    0.33823    0.78249    1.000
    C373     C        0.23024    0.31205    0.76604    1.000
    C374     C        0.16540    0.34147    0.86614    1.000
    C375     C        0.27156    0.35305    0.80430    1.000
    C376     C        0.22140    0.26953    0.94760    1.000
    C377     C        0.24154    0.28852    0.92723    1.000
    C378     C        0.06422    0.29640    0.96472    1.000
    H121     H        0.16996    0.25351    0.71779    1.000
    H122     H        0.42281    0.35453    0.71663    1.000
    H123     H        0.21315    0.36109    0.84737    1.000
    H124     H        0.17806    0.32385    0.81766    1.000
    H125     H        0.27027    0.33456    0.76328    1.000
    H126     H        0.23093    0.31408    0.91838    1.000
    Cr43     Cr       0.50366    0.84189    0.29500    1.000
    Cr44     Cr       0.66469    0.90448    0.32011    1.000
    O358     O        0.48882    0.67003    0.39560    1.000
    O359     O        0.51049    0.60505    0.41729    1.000
    O360     O        0.69111    0.74468    0.30692    1.000
    O361     O        0.80302    0.74729    0.24643    1.000
    O362     O        0.71724    0.77167    0.30182    1.000
    O363     O        0.52007    0.76431    0.33297    1.000
    O364     O        0.57236    0.78247    0.34731    1.000
    O365     O        0.49277    0.80799    0.30293    1.000
    O366     O        0.36245    0.85819    0.46022    1.000
    O367     O        0.51346    0.87850    0.28245    1.000
    O368     O        0.54547    0.82704    0.35950    1.000
    O369     O        0.65527    0.98116    0.28084    1.000
    O370     O        0.94807    0.65590    0.24903    1.000
    O371     O        0.68168    0.93483    0.30913    1.000
    O372     O        0.90252    0.68258    0.27832    1.000
    O373     O        0.65275    0.87024    0.33260    1.000
    O374     O        0.59987    0.88752    0.34727    1.000
    C379     C        0.87136    0.71088    0.23251    1.000
    C380     C        0.90378    0.69005    0.22742    1.000
    C381     C        0.91943    0.67557    0.25281    1.000
    C382     C        0.48651    0.72842    0.34549    1.000
    C383     C        0.48099    0.76034    0.32518    1.000
    C384     C        0.49947    0.77863    0.31940    1.000
    C385     C        0.60153    0.80447    0.34975    1.000
    C386     C        0.60101    0.83007    0.35306    1.000
    C387     C        0.62906    0.83534    0.34353    1.000
    C388     C        0.65870    0.81316    0.33215    1.000
    C389     C        0.66041    0.78650    0.32917    1.000
    C390     C        0.63136    0.78249    0.33823    1.000
    C391     C        0.69167    0.76604    0.31205    1.000
    C392     C        0.62699    0.86614    0.34147    1.000
    C393     C        0.57109    0.80430    0.35305    1.000
    C394     C        0.56147    0.94760    0.26953    1.000
    C395     C        0.54271    0.92723    0.28852    1.000
    C396     C        0.67466    0.96472    0.29640    1.000
    H127     H        0.85874    0.71779    0.25351    1.000
    H128     H        0.50603    0.71663    0.35453    1.000
    H129     H        0.57839    0.84737    0.36109    1.000
    H130     H        0.68043    0.81766    0.32385    1.000
    H131     H        0.63189    0.76328    0.33456    1.000
    H132     H        0.53661    0.91838    0.31408    1.000
    Cr45     Cr       0.84189    0.50366    0.35945    1.000
    Cr46     Cr       0.90448    0.66469    0.11072    1.000
    O375     O        0.67003    0.48882    0.44555    1.000
    O376     O        0.60505    0.51049    0.46717    1.000
    O377     O        0.74468    0.69111    0.25729    1.000
    O378     O        0.74729    0.80302    0.20326    1.000
    O379     O        0.77167    0.71724    0.20927    1.000
    O380     O        0.76431    0.52007    0.38265    1.000
    O381     O        0.78247    0.57236    0.29786    1.000
    O382     O        0.80799    0.49277    0.39631    1.000
    O383     O        0.85819    0.36245    0.31914    1.000
    O384     O        0.87850    0.51346    0.32559    1.000
    O385     O        0.82704    0.54547    0.26799    1.000
    O386     O        0.98116    0.65527    0.08273    1.000
    O387     O        0.65590    0.94807    0.14700    1.000
    O388     O        0.93483    0.68168    0.07436    1.000
    O389     O        0.68258    0.90252    0.13658    1.000
    O390     O        0.87024    0.65275    0.14441    1.000
    O391     O        0.88752    0.59987    0.16534    1.000
    C397     C        0.71088    0.87136    0.18525    1.000
    C398     C        0.69005    0.90378    0.17875    1.000
    C399     C        0.67557    0.91943    0.15219    1.000
    C400     C        0.72842    0.48651    0.43958    1.000
    C401     C        0.76034    0.48099    0.43349    1.000
    C402     C        0.77863    0.49947    0.40250    1.000
    C403     C        0.80447    0.60153    0.24425    1.000
    C404     C        0.83007    0.60101    0.21586    1.000
    C405     C        0.83534    0.62906    0.19207    1.000
    C406     C        0.81316    0.65870    0.19599    1.000
    C407     C        0.78650    0.66041    0.22392    1.000
    C408     C        0.78249    0.63136    0.24792    1.000
    C409     C        0.76604    0.69167    0.23024    1.000
    C410     C        0.86614    0.62699    0.16540    1.000
    C411     C        0.80430    0.57109    0.27156    1.000
    C412     C        0.94760    0.56147    0.22140    1.000
    C413     C        0.92723    0.54271    0.24154    1.000
    C414     C        0.96472    0.67466    0.06422    1.000
    H133     H        0.71779    0.85874    0.16996    1.000
    H134     H        0.71663    0.50603    0.42281    1.000
    H135     H        0.84737    0.57839    0.21315    1.000
    H136     H        0.81766    0.68043    0.17806    1.000
    H137     H        0.76328    0.63189    0.27027    1.000
    H138     H        0.91838    0.53661    0.23093    1.000
    Cr47     Cr       0.29500    0.35945    0.50366    1.000
    Cr48     Cr       0.32011    0.11072    0.66469    1.000
    O392     O        0.39560    0.44555    0.48882    1.000
    O393     O        0.41729    0.46717    0.51049    1.000
    O394     O        0.30692    0.25729    0.69111    1.000
    O395     O        0.24643    0.20326    0.80302    1.000
    O396     O        0.30182    0.20927    0.71724    1.000
    O397     O        0.33297    0.38265    0.52007    1.000
    O398     O        0.34731    0.29786    0.57236    1.000
    O399     O        0.30293    0.39631    0.49277    1.000
    O400     O        0.46022    0.31914    0.36245    1.000
    O401     O        0.28245    0.32559    0.51346    1.000
    O402     O        0.35950    0.26799    0.54547    1.000
    O403     O        0.28084    0.08273    0.65527    1.000
    O404     O        0.24903    0.14700    0.94807    1.000
    O405     O        0.30913    0.07436    0.68168    1.000
    O406     O        0.27832    0.13658    0.90252    1.000
    O407     O        0.33260    0.14441    0.65275    1.000
    O408     O        0.34727    0.16534    0.59987    1.000
    C415     C        0.23251    0.18525    0.87136    1.000
    C416     C        0.22742    0.17875    0.90378    1.000
    C417     C        0.25281    0.15219    0.91943    1.000
    C418     C        0.34549    0.43958    0.48651    1.000
    C419     C        0.32518    0.43349    0.48099    1.000
    C420     C        0.31940    0.40250    0.49947    1.000
    C421     C        0.34975    0.24425    0.60153    1.000
    C422     C        0.35306    0.21586    0.60101    1.000
    C423     C        0.34353    0.19207    0.62906    1.000
    C424     C        0.33215    0.19599    0.65870    1.000
    C425     C        0.32917    0.22392    0.66041    1.000
    C426     C        0.33823    0.24792    0.63136    1.000
    C427     C        0.31205    0.23024    0.69167    1.000
    C428     C        0.34147    0.16540    0.62699    1.000
    C429     C        0.35305    0.27156    0.57109    1.000
    C430     C        0.26953    0.22140    0.56147    1.000
    C431     C        0.28852    0.24154    0.54271    1.000
    C432     C        0.29640    0.06422    0.67466    1.000
    H139     H        0.25351    0.16996    0.85874    1.000
    H140     H        0.35453    0.42281    0.50603    1.000
    H141     H        0.36109    0.21315    0.57839    1.000
    H142     H        0.32385    0.17806    0.68043    1.000
    H143     H        0.33456    0.27027    0.63189    1.000
    H144     H        0.31408    0.23093    0.53661    1.000
    Cr49     Cr       0.50366    0.35945    0.29500    1.000
    Cr50     Cr       0.66469    0.11072    0.32011    1.000
    O409     O        0.48882    0.44555    0.39560    1.000
    O410     O        0.51049    0.46717    0.41729    1.000
    O411     O        0.69111    0.25729    0.30692    1.000
    O412     O        0.80302    0.20326    0.24643    1.000
    O413     O        0.71724    0.20927    0.30182    1.000
    O414     O        0.52007    0.38265    0.33297    1.000
    O415     O        0.57236    0.29786    0.34731    1.000
    O416     O        0.49277    0.39631    0.30293    1.000
    O417     O        0.36245    0.31914    0.46022    1.000
    O418     O        0.51346    0.32559    0.28245    1.000
    O419     O        0.54547    0.26799    0.35950    1.000
    O420     O        0.65527    0.08273    0.28084    1.000
    O421     O        0.94807    0.14700    0.24903    1.000
    O422     O        0.68168    0.07436    0.30913    1.000
    O423     O        0.90252    0.13658    0.27832    1.000
    O424     O        0.65275    0.14441    0.33260    1.000
    O425     O        0.59987    0.16534    0.34727    1.000
    C433     C        0.87136    0.18525    0.23251    1.000
    C434     C        0.90378    0.17875    0.22742    1.000
    C435     C        0.91943    0.15219    0.25281    1.000
    C436     C        0.48651    0.43958    0.34549    1.000
    C437     C        0.48099    0.43349    0.32518    1.000
    C438     C        0.49947    0.40250    0.31940    1.000
    C439     C        0.60153    0.24425    0.34975    1.000
    C440     C        0.60101    0.21586    0.35306    1.000
    C441     C        0.62906    0.19207    0.34353    1.000
    C442     C        0.65870    0.19599    0.33215    1.000
    C443     C        0.66041    0.22392    0.32917    1.000
    C444     C        0.63136    0.24792    0.33823    1.000
    C445     C        0.69167    0.23024    0.31205    1.000
    C446     C        0.62699    0.16540    0.34147    1.000
    C447     C        0.57109    0.27156    0.35305    1.000
    C448     C        0.56147    0.22140    0.26953    1.000
    C449     C        0.54271    0.24154    0.28852    1.000
    C450     C        0.67466    0.06422    0.29640    1.000
    H145     H        0.85874    0.16996    0.25351    1.000
    H146     H        0.50603    0.42281    0.35453    1.000
    H147     H        0.57839    0.21315    0.36109    1.000
    H148     H        0.68043    0.17806    0.32385    1.000
    H149     H        0.63189    0.27027    0.33456    1.000
    H150     H        0.53661    0.23093    0.31408    1.000
    Cr51     Cr       0.35945    0.50366    0.84189    1.000
    Cr52     Cr       0.11072    0.66469    0.90448    1.000
    O426     O        0.44555    0.48882    0.67003    1.000
    O427     O        0.46717    0.51049    0.60505    1.000
    O428     O        0.25729    0.69111    0.74468    1.000
    O429     O        0.20326    0.80302    0.74729    1.000
    O430     O        0.20927    0.71724    0.77167    1.000
    O431     O        0.38265    0.52007    0.76431    1.000
    O432     O        0.29786    0.57236    0.78247    1.000
    O433     O        0.39631    0.49277    0.80799    1.000
    O434     O        0.31914    0.36245    0.85819    1.000
    O435     O        0.32559    0.51346    0.87850    1.000
    O436     O        0.26799    0.54547    0.82704    1.000
    O437     O        0.08273    0.65527    0.98116    1.000
    O438     O        0.14700    0.94807    0.65590    1.000
    O439     O        0.07436    0.68168    0.93483    1.000
    O440     O        0.13658    0.90252    0.68258    1.000
    O441     O        0.14441    0.65275    0.87024    1.000
    O442     O        0.16534    0.59987    0.88752    1.000
    C451     C        0.18525    0.87136    0.71088    1.000
    C452     C        0.17875    0.90378    0.69005    1.000
    C453     C        0.15219    0.91943    0.67557    1.000
    C454     C        0.43958    0.48651    0.72842    1.000
    C455     C        0.43349    0.48099    0.76034    1.000
    C456     C        0.40250    0.49947    0.77863    1.000
    C457     C        0.24425    0.60153    0.80447    1.000
    C458     C        0.21586    0.60101    0.83007    1.000
    C459     C        0.19207    0.62906    0.83534    1.000
    C460     C        0.19599    0.65870    0.81316    1.000
    C461     C        0.22392    0.66041    0.78650    1.000
    C462     C        0.24792    0.63136    0.78249    1.000
    C463     C        0.23024    0.69167    0.76604    1.000
    C464     C        0.16540    0.62699    0.86614    1.000
    C465     C        0.27156    0.57109    0.80430    1.000
    C466     C        0.22140    0.56147    0.94760    1.000
    C467     C        0.24154    0.54271    0.92723    1.000
    C468     C        0.06422    0.67466    0.96472    1.000
    H151     H        0.16996    0.85874    0.71779    1.000
    H152     H        0.42281    0.50603    0.71663    1.000
    H153     H        0.21315    0.57839    0.84737    1.000
    H154     H        0.17806    0.68043    0.81766    1.000
    H155     H        0.27027    0.63189    0.76328    1.000
    H156     H        0.23093    0.53661    0.91838    1.000
    Cr53     Cr       0.29500    0.84189    0.50366    1.000
    Cr54     Cr       0.32011    0.90448    0.66469    1.000
    O443     O        0.39560    0.67003    0.48882    1.000
    O444     O        0.41729    0.60505    0.51049    1.000
    O445     O        0.30692    0.74468    0.69111    1.000
    O446     O        0.24643    0.74729    0.80302    1.000
    O447     O        0.30182    0.77167    0.71724    1.000
    O448     O        0.33297    0.76431    0.52007    1.000
    O449     O        0.34731    0.78247    0.57236    1.000
    O450     O        0.30293    0.80799    0.49277    1.000
    O451     O        0.46022    0.85819    0.36245    1.000
    O452     O        0.28245    0.87850    0.51346    1.000
    O453     O        0.35950    0.82704    0.54547    1.000
    O454     O        0.28084    0.98116    0.65527    1.000
    O455     O        0.24903    0.65590    0.94807    1.000
    O456     O        0.30913    0.93483    0.68168    1.000
    O457     O        0.27832    0.68258    0.90252    1.000
    O458     O        0.33260    0.87024    0.65275    1.000
    O459     O        0.34727    0.88752    0.59987    1.000
    C469     C        0.23251    0.71088    0.87136    1.000
    C470     C        0.22742    0.69005    0.90378    1.000
    C471     C        0.25281    0.67557    0.91943    1.000
    C472     C        0.34549    0.72842    0.48651    1.000
    C473     C        0.32518    0.76034    0.48099    1.000
    C474     C        0.31940    0.77863    0.49947    1.000
    C475     C        0.34975    0.80447    0.60153    1.000
    C476     C        0.35306    0.83007    0.60101    1.000
    C477     C        0.34353    0.83534    0.62906    1.000
    C478     C        0.33215    0.81316    0.65870    1.000
    C479     C        0.32917    0.78650    0.66041    1.000
    C480     C        0.33823    0.78249    0.63136    1.000
    C481     C        0.31205    0.76604    0.69167    1.000
    C482     C        0.34147    0.86614    0.62699    1.000
    C483     C        0.35305    0.80430    0.57109    1.000
    C484     C        0.26953    0.94760    0.56147    1.000
    C485     C        0.28852    0.92723    0.54271    1.000
    C486     C        0.29640    0.96472    0.67466    1.000
    H157     H        0.25351    0.71779    0.85874    1.000
    H158     H        0.35453    0.71663    0.50603    1.000
    H159     H        0.36109    0.84737    0.57839    1.000
    H160     H        0.32385    0.81766    0.68043    1.000
    H161     H        0.33456    0.76328    0.63189    1.000
    H162     H        0.31408    0.91838    0.53661    1.000
    Cr55     Cr       0.84189    0.29500    0.35945    1.000
    Cr56     Cr       0.90448    0.32011    0.11072    1.000
    O460     O        0.67003    0.39560    0.44555    1.000
    O461     O        0.60505    0.41729    0.46717    1.000
    O462     O        0.74468    0.30692    0.25729    1.000
    O463     O        0.74729    0.24643    0.20326    1.000
    O464     O        0.77167    0.30182    0.20927    1.000
    O465     O        0.76431    0.33297    0.38265    1.000
    O466     O        0.78247    0.34731    0.29786    1.000
    O467     O        0.80799    0.30293    0.39631    1.000
    O468     O        0.85819    0.46022    0.31914    1.000
    O469     O        0.87850    0.28245    0.32559    1.000
    O470     O        0.82704    0.35950    0.26799    1.000
    O471     O        0.98116    0.28084    0.08273    1.000
    O472     O        0.65590    0.24903    0.14700    1.000
    O473     O        0.93483    0.30913    0.07436    1.000
    O474     O        0.68258    0.27832    0.13658    1.000
    O475     O        0.87024    0.33260    0.14441    1.000
    O476     O        0.88752    0.34727    0.16534    1.000
    C487     C        0.71088    0.23251    0.18525    1.000
    C488     C        0.69005    0.22742    0.17875    1.000
    C489     C        0.67557    0.25281    0.15219    1.000
    C490     C        0.72842    0.34549    0.43958    1.000
    C491     C        0.76034    0.32518    0.43349    1.000
    C492     C        0.77863    0.31940    0.40250    1.000
    C493     C        0.80447    0.34975    0.24425    1.000
    C494     C        0.83007    0.35306    0.21586    1.000
    C495     C        0.83534    0.34353    0.19207    1.000
    C496     C        0.81316    0.33215    0.19599    1.000
    C497     C        0.78650    0.32917    0.22392    1.000
    C498     C        0.78249    0.33823    0.24792    1.000
    C499     C        0.76604    0.31205    0.23024    1.000
    C500     C        0.86614    0.34147    0.16540    1.000
    C501     C        0.80430    0.35305    0.27156    1.000
    C502     C        0.94760    0.26953    0.22140    1.000
    C503     C        0.92723    0.28852    0.24154    1.000
    C504     C        0.96472    0.29640    0.06422    1.000
    H163     H        0.71779    0.25351    0.16996    1.000
    H164     H        0.71663    0.35453    0.42281    1.000
    H165     H        0.84737    0.36109    0.21315    1.000
    H166     H        0.81766    0.32385    0.17806    1.000
    H167     H        0.76328    0.33456    0.27027    1.000
    H168     H        0.91838    0.31408    0.23093    1.000
    Cr57     Cr       0.29500    0.50366    0.35945    1.000
    Cr58     Cr       0.32011    0.66469    0.11072    1.000
    O477     O        0.39560    0.48882    0.44555    1.000
    O478     O        0.41729    0.51049    0.46717    1.000
    O479     O        0.30692    0.69111    0.25729    1.000
    O480     O        0.24643    0.80302    0.20326    1.000
    O481     O        0.30182    0.71724    0.20927    1.000
    O482     O        0.33297    0.52007    0.38265    1.000
    O483     O        0.34731    0.57236    0.29786    1.000
    O484     O        0.30293    0.49277    0.39631    1.000
    O485     O        0.46022    0.36245    0.31914    1.000
    O486     O        0.28245    0.51346    0.32559    1.000
    O487     O        0.35950    0.54547    0.26799    1.000
    O488     O        0.28084    0.65527    0.08273    1.000
    O489     O        0.24903    0.94807    0.14700    1.000
    O490     O        0.30913    0.68168    0.07436    1.000
    O491     O        0.27832    0.90252    0.13658    1.000
    O492     O        0.33260    0.65275    0.14441    1.000
    O493     O        0.34727    0.59987    0.16534    1.000
    C505     C        0.23251    0.87136    0.18525    1.000
    C506     C        0.22742    0.90378    0.17875    1.000
    C507     C        0.25281    0.91943    0.15219    1.000
    C508     C        0.34549    0.48651    0.43958    1.000
    C509     C        0.32518    0.48099    0.43349    1.000
    C510     C        0.31940    0.49947    0.40250    1.000
    C511     C        0.34975    0.60153    0.24425    1.000
    C512     C        0.35306    0.60101    0.21586    1.000
    C513     C        0.34353    0.62906    0.19207    1.000
    C514     C        0.33215    0.65870    0.19599    1.000
    C515     C        0.32917    0.66041    0.22392    1.000
    C516     C        0.33823    0.63136    0.24792    1.000
    C517     C        0.31205    0.69167    0.23024    1.000
    C518     C        0.34147    0.62699    0.16540    1.000
    C519     C        0.35305    0.57109    0.27156    1.000
    C520     C        0.26953    0.56147    0.22140    1.000
    C521     C        0.28852    0.54271    0.24154    1.000
    C522     C        0.29640    0.67466    0.06422    1.000
    H169     H        0.25351    0.85874    0.16996    1.000
    H170     H        0.35453    0.50603    0.42281    1.000
    H171     H        0.36109    0.57839    0.21315    1.000
    H172     H        0.32385    0.68043    0.17806    1.000
    H173     H        0.33456    0.63189    0.27027    1.000
    H174     H        0.31408    0.53661    0.23093    1.000
    Cr59     Cr       0.84189    0.35945    0.50366    1.000
    Cr60     Cr       0.90448    0.11072    0.66469    1.000
    O494     O        0.67003    0.44555    0.48882    1.000
    O495     O        0.60505    0.46717    0.51049    1.000
    O496     O        0.74468    0.25729    0.69111    1.000
    O497     O        0.74729    0.20326    0.80302    1.000
    O498     O        0.77167    0.20927    0.71724    1.000
    O499     O        0.76431    0.38265    0.52007    1.000
    O500     O        0.78247    0.29786    0.57236    1.000
    O501     O        0.80799    0.39631    0.49277    1.000
    O502     O        0.85819    0.31914    0.36245    1.000
    O503     O        0.87850    0.32559    0.51346    1.000
    O504     O        0.82704    0.26799    0.54547    1.000
    O505     O        0.98116    0.08273    0.65527    1.000
    O506     O        0.65590    0.14700    0.94807    1.000
    O507     O        0.93483    0.07436    0.68168    1.000
    O508     O        0.68258    0.13658    0.90252    1.000
    O509     O        0.87024    0.14441    0.65275    1.000
    O510     O        0.88752    0.16534    0.59987    1.000
    C523     C        0.71088    0.18525    0.87136    1.000
    C524     C        0.69005    0.17875    0.90378    1.000
    C525     C        0.67557    0.15219    0.91943    1.000
    C526     C        0.72842    0.43958    0.48651    1.000
    C527     C        0.76034    0.43349    0.48099    1.000
    C528     C        0.77863    0.40250    0.49947    1.000
    C529     C        0.80447    0.24425    0.60153    1.000
    C530     C        0.83007    0.21586    0.60101    1.000
    C531     C        0.83534    0.19207    0.62906    1.000
    C532     C        0.81316    0.19599    0.65870    1.000
    C533     C        0.78650    0.22392    0.66041    1.000
    C534     C        0.78249    0.24792    0.63136    1.000
    C535     C        0.76604    0.23024    0.69167    1.000
    C536     C        0.86614    0.16540    0.62699    1.000
    C537     C        0.80430    0.27156    0.57109    1.000
    C538     C        0.94760    0.22140    0.56147    1.000
    C539     C        0.92723    0.24154    0.54271    1.000
    C540     C        0.96472    0.06422    0.67466    1.000
    H175     H        0.71779    0.16996    0.85874    1.000
    H176     H        0.71663    0.42281    0.50603    1.000
    H177     H        0.84737    0.21315    0.57839    1.000
    H178     H        0.81766    0.17806    0.68043    1.000
    H179     H        0.76328    0.27027    0.63189    1.000
    H180     H        0.91838    0.23093    0.53661    1.000
    Cr61     Cr       0.50366    0.29500    0.84189    1.000
    Cr62     Cr       0.66469    0.32011    0.90448    1.000
    O511     O        0.48882    0.39560    0.67003    1.000
    O512     O        0.51049    0.41729    0.60505    1.000
    O513     O        0.69111    0.30692    0.74468    1.000
    O514     O        0.80302    0.24643    0.74729    1.000
    O515     O        0.71724    0.30182    0.77167    1.000
    O516     O        0.52007    0.33297    0.76431    1.000
    O517     O        0.57236    0.34731    0.78247    1.000
    O518     O        0.49277    0.30293    0.80799    1.000
    O519     O        0.36245    0.46022    0.85819    1.000
    O520     O        0.51346    0.28245    0.87850    1.000
    O521     O        0.54547    0.35950    0.82704    1.000
    O522     O        0.65527    0.28084    0.98116    1.000
    O523     O        0.94807    0.24903    0.65590    1.000
    O524     O        0.68168    0.30913    0.93483    1.000
    O525     O        0.90252    0.27832    0.68258    1.000
    O526     O        0.65275    0.33260    0.87024    1.000
    O527     O        0.59987    0.34727    0.88752    1.000
    C541     C        0.87136    0.23251    0.71088    1.000
    C542     C        0.90378    0.22742    0.69005    1.000
    C543     C        0.91943    0.25281    0.67557    1.000
    C544     C        0.48651    0.34549    0.72842    1.000
    C545     C        0.48099    0.32518    0.76034    1.000
    C546     C        0.49947    0.31940    0.77863    1.000
    C547     C        0.60153    0.34975    0.80447    1.000
    C548     C        0.60101    0.35306    0.83007    1.000
    C549     C        0.62906    0.34353    0.83534    1.000
    C550     C        0.65870    0.33215    0.81316    1.000
    C551     C        0.66041    0.32917    0.78650    1.000
    C552     C        0.63136    0.33823    0.78249    1.000
    C553     C        0.69167    0.31205    0.76604    1.000
    C554     C        0.62699    0.34147    0.86614    1.000
    C555     C        0.57109    0.35305    0.80430    1.000
    C556     C        0.56147    0.26953    0.94760    1.000
    C557     C        0.54271    0.28852    0.92723    1.000
    C558     C        0.67466    0.29640    0.96472    1.000
    H181     H        0.85874    0.25351    0.71779    1.000
    H182     H        0.50603    0.35453    0.71663    1.000
    H183     H        0.57839    0.36109    0.84737    1.000
    H184     H        0.68043    0.32385    0.81766    1.000
    H185     H        0.63189    0.33456    0.76328    1.000
    H186     H        0.53661    0.31408    0.91838    1.000
    Cr63     Cr       0.35945    0.84189    0.29500    1.000
    Cr64     Cr       0.11072    0.90448    0.32011    1.000
    O528     O        0.44555    0.67003    0.39560    1.000
    O529     O        0.46717    0.60505    0.41729    1.000
    O530     O        0.25729    0.74468    0.30692    1.000
    O531     O        0.20326    0.74729    0.24643    1.000
    O532     O        0.20927    0.77167    0.30182    1.000
    O533     O        0.38265    0.76431    0.33297    1.000
    O534     O        0.29786    0.78247    0.34731    1.000
    O535     O        0.39631    0.80799    0.30293    1.000
    O536     O        0.31914    0.85819    0.46022    1.000
    O537     O        0.32559    0.87850    0.28245    1.000
    O538     O        0.26799    0.82704    0.35950    1.000
    O539     O        0.08273    0.98116    0.28084    1.000
    O540     O        0.14700    0.65590    0.24903    1.000
    O541     O        0.07436    0.93483    0.30913    1.000
    O542     O        0.13658    0.68258    0.27832    1.000
    O543     O        0.14441    0.87024    0.33260    1.000
    O544     O        0.16534    0.88752    0.34727    1.000
    C559     C        0.18525    0.71088    0.23251    1.000
    C560     C        0.17875    0.69005    0.22742    1.000
    C561     C        0.15219    0.67557    0.25281    1.000
    C562     C        0.43958    0.72842    0.34549    1.000
    C563     C        0.43349    0.76034    0.32518    1.000
    C564     C        0.40250    0.77863    0.31940    1.000
    C565     C        0.24425    0.80447    0.34975    1.000
    C566     C        0.21586    0.83007    0.35306    1.000
    C567     C        0.19207    0.83534    0.34353    1.000
    C568     C        0.19599    0.81316    0.33215    1.000
    C569     C        0.22392    0.78650    0.32917    1.000
    C570     C        0.24792    0.78249    0.33823    1.000
    C571     C        0.23024    0.76604    0.31205    1.000
    C572     C        0.16540    0.86614    0.34147    1.000
    C573     C        0.27156    0.80430    0.35305    1.000
    C574     C        0.22140    0.94760    0.26953    1.000
    C575     C        0.24154    0.92723    0.28852    1.000
    C576     C        0.06422    0.96472    0.29640    1.000
    H187     H        0.16996    0.71779    0.25351    1.000
    H188     H        0.42281    0.71663    0.35453    1.000
    H189     H        0.21315    0.84737    0.36109    1.000
    H190     H        0.17806    0.81766    0.32385    1.000
    H191     H        0.27027    0.76328    0.33456    1.000
    H192     H        0.23093    0.91838    0.31408    1.000
    Cr65     Cr       0.35945    0.29500    0.50366    1.000
    Cr66     Cr       0.11072    0.32011    0.66469    1.000
    O545     O        0.44555    0.39560    0.48882    1.000
    O546     O        0.46717    0.41729    0.51049    1.000
    O547     O        0.25729    0.30692    0.69111    1.000
    O548     O        0.20326    0.24643    0.80302    1.000
    O549     O        0.20927    0.30182    0.71724    1.000
    O550     O        0.38265    0.33297    0.52007    1.000
    O551     O        0.29786    0.34731    0.57236    1.000
    O552     O        0.39631    0.30293    0.49277    1.000
    O553     O        0.31914    0.46022    0.36245    1.000
    O554     O        0.32559    0.28245    0.51346    1.000
    O555     O        0.26799    0.35950    0.54547    1.000
    O556     O        0.08273    0.28084    0.65527    1.000
    O557     O        0.14700    0.24903    0.94807    1.000
    O558     O        0.07436    0.30913    0.68168    1.000
    O559     O        0.13658    0.27832    0.90252    1.000
    O560     O        0.14441    0.33260    0.65275    1.000
    O561     O        0.16534    0.34727    0.59987    1.000
    C577     C        0.18525    0.23251    0.87136    1.000
    C578     C        0.17875    0.22742    0.90378    1.000
    C579     C        0.15219    0.25281    0.91943    1.000
    C580     C        0.43958    0.34549    0.48651    1.000
    C581     C        0.43349    0.32518    0.48099    1.000
    C582     C        0.40250    0.31940    0.49947    1.000
    C583     C        0.24425    0.34975    0.60153    1.000
    C584     C        0.21586    0.35306    0.60101    1.000
    C585     C        0.19207    0.34353    0.62906    1.000
    C586     C        0.19599    0.33215    0.65870    1.000
    C587     C        0.22392    0.32917    0.66041    1.000
    C588     C        0.24792    0.33823    0.63136    1.000
    C589     C        0.23024    0.31205    0.69167    1.000
    C590     C        0.16540    0.34147    0.62699    1.000
    C591     C        0.27156    0.35305    0.57109    1.000
    C592     C        0.22140    0.26953    0.56147    1.000
    C593     C        0.24154    0.28852    0.54271    1.000
    C594     C        0.06422    0.29640    0.67466    1.000
    H193     H        0.16996    0.25351    0.85874    1.000
    H194     H        0.42281    0.35453    0.50603    1.000
    H195     H        0.21315    0.36109    0.57839    1.000
    H196     H        0.17806    0.32385    0.68043    1.000
    H197     H        0.27027    0.33456    0.63189    1.000
    H198     H        0.23093    0.31408    0.53661    1.000
    Cr67     Cr       0.50366    0.84189    0.35945    1.000
    Cr68     Cr       0.66469    0.90448    0.11072    1.000
    O562     O        0.48882    0.67003    0.44555    1.000
    O563     O        0.51049    0.60505    0.46717    1.000
    O564     O        0.69111    0.74468    0.25729    1.000
    O565     O        0.80302    0.74729    0.20326    1.000
    O566     O        0.71724    0.77167    0.20927    1.000
    O567     O        0.52007    0.76431    0.38265    1.000
    O568     O        0.57236    0.78247    0.29786    1.000
    O569     O        0.49277    0.80799    0.39631    1.000
    O570     O        0.36245    0.85819    0.31914    1.000
    O571     O        0.51346    0.87850    0.32559    1.000
    O572     O        0.54547    0.82704    0.26799    1.000
    O573     O        0.65527    0.98116    0.08273    1.000
    O574     O        0.94807    0.65590    0.14700    1.000
    O575     O        0.68168    0.93483    0.07436    1.000
    O576     O        0.90252    0.68258    0.13658    1.000
    O577     O        0.65275    0.87024    0.14441    1.000
    O578     O        0.59987    0.88752    0.16534    1.000
    C595     C        0.87136    0.71088    0.18525    1.000
    C596     C        0.90378    0.69005    0.17875    1.000
    C597     C        0.91943    0.67557    0.15219    1.000
    C598     C        0.48651    0.72842    0.43958    1.000
    C599     C        0.48099    0.76034    0.43349    1.000
    C600     C        0.49947    0.77863    0.40250    1.000
    C601     C        0.60153    0.80447    0.24425    1.000
    C602     C        0.60101    0.83007    0.21586    1.000
    C603     C        0.62906    0.83534    0.19207    1.000
    C604     C        0.65870    0.81316    0.19599    1.000
    C605     C        0.66041    0.78650    0.22392    1.000
    C606     C        0.63136    0.78249    0.24792    1.000
    C607     C        0.69167    0.76604    0.23024    1.000
    C608     C        0.62699    0.86614    0.16540    1.000
    C609     C        0.57109    0.80430    0.27156    1.000
    C610     C        0.56147    0.94760    0.22140    1.000
    C611     C        0.54271    0.92723    0.24154    1.000
    C612     C        0.67466    0.96472    0.06422    1.000
    H199     H        0.85874    0.71779    0.16996    1.000
    H200     H        0.50603    0.71663    0.42281    1.000
    H201     H        0.57839    0.84737    0.21315    1.000
    H202     H        0.68043    0.81766    0.17806    1.000
    H203     H        0.63189    0.76328    0.27027    1.000
    H204     H        0.53661    0.91838    0.23093    1.000
    Cr69     Cr       0.84189    0.50366    0.29500    1.000
    Cr70     Cr       0.90448    0.66469    0.32011    1.000
    O579     O        0.67003    0.48882    0.39560    1.000
    O580     O        0.60505    0.51049    0.41729    1.000
    O581     O        0.74468    0.69111    0.30692    1.000
    O582     O        0.74729    0.80302    0.24643    1.000
    O583     O        0.77167    0.71724    0.30182    1.000
    O584     O        0.76431    0.52007    0.33297    1.000
    O585     O        0.78247    0.57236    0.34731    1.000
    O586     O        0.80799    0.49277    0.30293    1.000
    O587     O        0.85819    0.36245    0.46022    1.000
    O588     O        0.87850    0.51346    0.28245    1.000
    O589     O        0.82704    0.54547    0.35950    1.000
    O590     O        0.98116    0.65527    0.28084    1.000
    O591     O        0.65590    0.94807    0.24903    1.000
    O592     O        0.93483    0.68168    0.30913    1.000
    O593     O        0.68258    0.90252    0.27832    1.000
    O594     O        0.87024    0.65275    0.33260    1.000
    O595     O        0.88752    0.59987    0.34727    1.000
    C613     C        0.71088    0.87136    0.23251    1.000
    C614     C        0.69005    0.90378    0.22742    1.000
    C615     C        0.67557    0.91943    0.25281    1.000
    C616     C        0.72842    0.48651    0.34549    1.000
    C617     C        0.76034    0.48099    0.32518    1.000
    C618     C        0.77863    0.49947    0.31940    1.000
    C619     C        0.80447    0.60153    0.34975    1.000
    C620     C        0.83007    0.60101    0.35306    1.000
    C621     C        0.83534    0.62906    0.34353    1.000
    C622     C        0.81316    0.65870    0.33215    1.000
    C623     C        0.78650    0.66041    0.32917    1.000
    C624     C        0.78249    0.63136    0.33823    1.000
    C625     C        0.76604    0.69167    0.31205    1.000
    C626     C        0.86614    0.62699    0.34147    1.000
    C627     C        0.80430    0.57109    0.35305    1.000
    C628     C        0.94760    0.56147    0.26953    1.000
    C629     C        0.92723    0.54271    0.28852    1.000
    C630     C        0.96472    0.67466    0.29640    1.000
    H205     H        0.71779    0.85874    0.25351    1.000
    H206     H        0.71663    0.50603    0.35453    1.000
    H207     H        0.84737    0.57839    0.36109    1.000
    H208     H        0.81766    0.68043    0.32385    1.000
    H209     H        0.76328    0.63189    0.33456    1.000
    H210     H        0.91838    0.53661    0.31408    1.000
    Cr71     Cr       0.29500    0.35945    0.84189    1.000
    Cr72     Cr       0.32011    0.11072    0.90448    1.000
    O596     O        0.39560    0.44555    0.67003    1.000
    O597     O        0.41729    0.46717    0.60505    1.000
    O598     O        0.30692    0.25729    0.74468    1.000
    O599     O        0.24643    0.20326    0.74729    1.000
    O600     O        0.30182    0.20927    0.77167    1.000
    O601     O        0.33297    0.38265    0.76431    1.000
    O602     O        0.34731    0.29786    0.78247    1.000
    O603     O        0.30293    0.39631    0.80799    1.000
    O604     O        0.46022    0.31914    0.85819    1.000
    O605     O        0.28245    0.32559    0.87850    1.000
    O606     O        0.35950    0.26799    0.82704    1.000
    O607     O        0.28084    0.08273    0.98116    1.000
    O608     O        0.24903    0.14700    0.65590    1.000
    O609     O        0.30913    0.07436    0.93483    1.000
    O610     O        0.27832    0.13658    0.68258    1.000
    O611     O        0.33260    0.14441    0.87024    1.000
    O612     O        0.34727    0.16534    0.88752    1.000
    C631     C        0.23251    0.18525    0.71088    1.000
    C632     C        0.22742    0.17875    0.69005    1.000
    C633     C        0.25281    0.15219    0.67557    1.000
    C634     C        0.34549    0.43958    0.72842    1.000
    C635     C        0.32518    0.43349    0.76034    1.000
    C636     C        0.31940    0.40250    0.77863    1.000
    C637     C        0.34975    0.24425    0.80447    1.000
    C638     C        0.35306    0.21586    0.83007    1.000
    C639     C        0.34353    0.19207    0.83534    1.000
    C640     C        0.33215    0.19599    0.81316    1.000
    C641     C        0.32917    0.22392    0.78650    1.000
    C642     C        0.33823    0.24792    0.78249    1.000
    C643     C        0.31205    0.23024    0.76604    1.000
    C644     C        0.34147    0.16540    0.86614    1.000
    C645     C        0.35305    0.27156    0.80430    1.000
    C646     C        0.26953    0.22140    0.94760    1.000
    C647     C        0.28852    0.24154    0.92723    1.000
    C648     C        0.29640    0.06422    0.96472    1.000
    H211     H        0.25351    0.16996    0.71779    1.000
    H212     H        0.35453    0.42281    0.71663    1.000
    H213     H        0.36109    0.21315    0.84737    1.000
    H214     H        0.32385    0.17806    0.81766    1.000
    H215     H        0.33456    0.27027    0.76328    1.000
    H216     H        0.31408    0.23093    0.91838    1.000
    Cr73     Cr       0.74634    0.89055    0.40811    1.000
    Cr74     Cr       0.58531    0.13928    0.34552    1.000
    O613     O        0.76118    0.80445    0.57997    1.000
    O614     O        0.73951    0.78283    0.64495    1.000
    O615     O        0.55889    0.99271    0.50532    1.000
    O616     O        0.44698    0.04674    0.50271    1.000
    O617     O        0.53276    0.04073    0.47833    1.000
    O618     O        0.72993    0.86735    0.48569    1.000
    O619     O        0.67764    0.95214    0.46753    1.000
    O620     O        0.75723    0.85369    0.44201    1.000
    O621     O        0.88755    0.93086    0.39181    1.000
    O622     O        0.73654    0.92441    0.37150    1.000
    O623     O        0.70453    0.98201    0.42296    1.000
    O624     O        0.59473    0.16727    0.26884    1.000
    O625     O        0.30193    0.10300    0.59410    1.000
    O626     O        0.56832    0.17564    0.31517    1.000
    O627     O        0.34748    0.11342    0.56742    1.000
    O628     O        0.59725    0.10559    0.37976    1.000
    O629     O        0.65013    0.08466    0.36248    1.000
    C649     C        0.37864    0.06475    0.53912    1.000
    C650     C        0.34622    0.07125    0.55995    1.000
    C651     C        0.33057    0.09781    0.57443    1.000
    C652     C        0.76349    0.81042    0.52158    1.000
    C653     C        0.76901    0.81651    0.48966    1.000
    C654     C        0.75053    0.84750    0.47137    1.000
    C655     C        0.64847    0.00575    0.44553    1.000
    C656     C        0.64899    0.03414    0.41993    1.000
    C657     C        0.62094    0.05793    0.41466    1.000
    C658     C        0.59130    0.05401    0.43684    1.000
    C659     C        0.58959    0.02608    0.46350    1.000
    C660     C        0.61864    0.00208    0.46751    1.000
    C661     C        0.55833    0.01976    0.48396    1.000
    C662     C        0.62301    0.08460    0.38386    1.000
    C663     C        0.67891    0.97844    0.44570    1.000
    C664     C        0.68853    0.02860    0.30240    1.000
    C665     C        0.70729    0.00846    0.32277    1.000
    C666     C        0.57534    0.18578    0.28528    1.000
    H217     H        0.39126    0.08004    0.53221    1.000
    H218     H        0.74397    0.82719    0.53337    1.000
    H219     H        0.67161    0.03685    0.40263    1.000
    H220     H        0.56957    0.07194    0.43234    1.000
    H221     H        0.61811    0.97973    0.48672    1.000
    H222     H        0.71339    0.01907    0.33162    1.000
    Cr75     Cr       0.89055    0.74634    0.95500    1.000
    Cr76     Cr       0.13928    0.58531    0.92989    1.000
    O630     O        0.80445    0.76118    0.85440    1.000
    O631     O        0.78283    0.73951    0.83271    1.000
    O632     O        0.99271    0.55889    0.94308    1.000
    O633     O        0.04674    0.44698    0.00357    1.000
    O634     O        0.04073    0.53276    0.94818    1.000
    O635     O        0.86735    0.72993    0.91703    1.000
    O636     O        0.95214    0.67764    0.90269    1.000
    O637     O        0.85369    0.75723    0.94707    1.000
    O638     O        0.93086    0.88755    0.78978    1.000
    O639     O        0.92441    0.73654    0.96755    1.000
    O640     O        0.98201    0.70453    0.89050    1.000
    O641     O        0.16727    0.59473    0.96916    1.000
    O642     O        0.10300    0.30193    0.00097    1.000
    O643     O        0.17564    0.56832    0.94087    1.000
    O644     O        0.11342    0.34748    0.97168    1.000
    O645     O        0.10559    0.59725    0.91740    1.000
    O646     O        0.08466    0.65013    0.90273    1.000
    C667     C        0.06475    0.37864    0.01749    1.000
    C668     C        0.07125    0.34622    0.02258    1.000
    C669     C        0.09781    0.33057    0.99719    1.000
    C670     C        0.81042    0.76349    0.90451    1.000
    C671     C        0.81651    0.76901    0.92482    1.000
    C672     C        0.84750    0.75053    0.93060    1.000
    C673     C        0.00575    0.64847    0.90025    1.000
    C674     C        0.03414    0.64899    0.89694    1.000
    C675     C        0.05793    0.62094    0.90647    1.000
    C676     C        0.05401    0.59130    0.91785    1.000
    C677     C        0.02608    0.58959    0.92083    1.000
    C678     C        0.00208    0.61864    0.91177    1.000
    C679     C        0.01976    0.55833    0.93795    1.000
    C680     C        0.08460    0.62301    0.90853    1.000
    C681     C        0.97844    0.67891    0.89695    1.000
    C682     C        0.02860    0.68853    0.98047    1.000
    C683     C        0.00846    0.70729    0.96148    1.000
    C684     C        0.18578    0.57534    0.95360    1.000
    H223     H        0.08004    0.39126    0.99649    1.000
    H224     H        0.82719    0.74397    0.89547    1.000
    H225     H        0.03685    0.67161    0.88891    1.000
    H226     H        0.07194    0.56957    0.92615    1.000
    H227     H        0.97973    0.61811    0.91544    1.000
    H228     H        0.01907    0.71339    0.93592    1.000
    Cr77     Cr       0.95500    0.40811    0.89055    1.000
    Cr78     Cr       0.92989    0.34552    0.13928    1.000
    O647     O        0.85440    0.57997    0.80445    1.000
    O648     O        0.83271    0.64495    0.78283    1.000
    O649     O        0.94308    0.50532    0.99271    1.000
    O650     O        0.00357    0.50271    0.04674    1.000
    O651     O        0.94818    0.47833    0.04073    1.000
    O652     O        0.91703    0.48569    0.86735    1.000
    O653     O        0.90269    0.46753    0.95214    1.000
    O654     O        0.94707    0.44201    0.85369    1.000
    O655     O        0.78978    0.39181    0.93086    1.000
    O656     O        0.96755    0.37150    0.92441    1.000
    O657     O        0.89050    0.42296    0.98201    1.000
    O658     O        0.96916    0.26884    0.16727    1.000
    O659     O        0.00097    0.59410    0.10300    1.000
    O660     O        0.94087    0.31517    0.17564    1.000
    O661     O        0.97168    0.56742    0.11342    1.000
    O662     O        0.91740    0.37976    0.10559    1.000
    O663     O        0.90273    0.36248    0.08466    1.000
    C685     C        0.01749    0.53912    0.06475    1.000
    C686     C        0.02258    0.55995    0.07125    1.000
    C687     C        0.99719    0.57443    0.09781    1.000
    C688     C        0.90451    0.52158    0.81042    1.000
    C689     C        0.92482    0.48966    0.81651    1.000
    C690     C        0.93060    0.47137    0.84750    1.000
    C691     C        0.90025    0.44553    0.00575    1.000
    C692     C        0.89694    0.41993    0.03414    1.000
    C693     C        0.90647    0.41466    0.05793    1.000
    C694     C        0.91785    0.43684    0.05401    1.000
    C695     C        0.92083    0.46350    0.02608    1.000
    C696     C        0.91177    0.46751    0.00208    1.000
    C697     C        0.93795    0.48396    0.01976    1.000
    C698     C        0.90853    0.38386    0.08460    1.000
    C699     C        0.89695    0.44570    0.97844    1.000
    C700     C        0.98047    0.30240    0.02860    1.000
    C701     C        0.96148    0.32277    0.00846    1.000
    C702     C        0.95360    0.28528    0.18578    1.000
    H229     H        0.99649    0.53221    0.08004    1.000
    H230     H        0.89547    0.53337    0.82719    1.000
    H231     H        0.88891    0.40263    0.03685    1.000
    H232     H        0.92615    0.43234    0.07194    1.000
    H233     H        0.91544    0.48672    0.97973    1.000
    H234     H        0.93592    0.33162    0.01907    1.000
    Cr79     Cr       0.40811    0.95500    0.74634    1.000
    Cr80     Cr       0.34552    0.92989    0.58531    1.000
    O664     O        0.57997    0.85440    0.76118    1.000
    O665     O        0.64495    0.83271    0.73951    1.000
    O666     O        0.50532    0.94308    0.55889    1.000
    O667     O        0.50271    0.00357    0.44698    1.000
    O668     O        0.47833    0.94818    0.53276    1.000
    O669     O        0.48569    0.91703    0.72993    1.000
    O670     O        0.46753    0.90269    0.67764    1.000
    O671     O        0.44201    0.94707    0.75723    1.000
    O672     O        0.39181    0.78978    0.88755    1.000
    O673     O        0.37150    0.96755    0.73654    1.000
    O674     O        0.42296    0.89050    0.70453    1.000
    O675     O        0.26884    0.96916    0.59473    1.000
    O676     O        0.59410    0.00097    0.30193    1.000
    O677     O        0.31517    0.94087    0.56832    1.000
    O678     O        0.56742    0.97168    0.34748    1.000
    O679     O        0.37976    0.91740    0.59725    1.000
    O680     O        0.36248    0.90273    0.65013    1.000
    C703     C        0.53912    0.01749    0.37864    1.000
    C704     C        0.55995    0.02258    0.34622    1.000
    C705     C        0.57443    0.99719    0.33057    1.000
    C706     C        0.52158    0.90451    0.76349    1.000
    C707     C        0.48966    0.92482    0.76901    1.000
    C708     C        0.47137    0.93060    0.75053    1.000
    C709     C        0.44553    0.90025    0.64847    1.000
    C710     C        0.41993    0.89694    0.64899    1.000
    C711     C        0.41466    0.90647    0.62094    1.000
    C712     C        0.43684    0.91785    0.59130    1.000
    C713     C        0.46350    0.92083    0.58959    1.000
    C714     C        0.46751    0.91177    0.61864    1.000
    C715     C        0.48396    0.93795    0.55833    1.000
    C716     C        0.38386    0.90853    0.62301    1.000
    C717     C        0.44570    0.89695    0.67891    1.000
    C718     C        0.30240    0.98047    0.68853    1.000
    C719     C        0.32277    0.96148    0.70729    1.000
    C720     C        0.28528    0.95360    0.57534    1.000
    H235     H        0.53221    0.99649    0.39126    1.000
    H236     H        0.53337    0.89547    0.74397    1.000
    H237     H        0.40263    0.88891    0.67161    1.000
    H238     H        0.43234    0.92615    0.56957    1.000
    H239     H        0.48672    0.91544    0.61811    1.000
    H240     H        0.33162    0.93592    0.71339    1.000
    Cr81     Cr       0.95500    0.74634    0.40811    1.000
    Cr82     Cr       0.92989    0.58531    0.34552    1.000
    O681     O        0.85440    0.76118    0.57997    1.000
    O682     O        0.83271    0.73951    0.64495    1.000
    O683     O        0.94308    0.55889    0.50532    1.000
    O684     O        0.00357    0.44698    0.50271    1.000
    O685     O        0.94818    0.53276    0.47833    1.000
    O686     O        0.91703    0.72993    0.48569    1.000
    O687     O        0.90269    0.67764    0.46753    1.000
    O688     O        0.94707    0.75723    0.44201    1.000
    O689     O        0.78978    0.88755    0.39181    1.000
    O690     O        0.96755    0.73654    0.37150    1.000
    O691     O        0.89050    0.70453    0.42296    1.000
    O692     O        0.96916    0.59473    0.26884    1.000
    O693     O        0.00097    0.30193    0.59410    1.000
    O694     O        0.94087    0.56832    0.31517    1.000
    O695     O        0.97168    0.34748    0.56742    1.000
    O696     O        0.91740    0.59725    0.37976    1.000
    O697     O        0.90273    0.65013    0.36248    1.000
    C721     C        0.01749    0.37864    0.53912    1.000
    C722     C        0.02258    0.34622    0.55995    1.000
    C723     C        0.99719    0.33057    0.57443    1.000
    C724     C        0.90451    0.76349    0.52158    1.000
    C725     C        0.92482    0.76901    0.48966    1.000
    C726     C        0.93060    0.75053    0.47137    1.000
    C727     C        0.90025    0.64847    0.44553    1.000
    C728     C        0.89694    0.64899    0.41993    1.000
    C729     C        0.90647    0.62094    0.41466    1.000
    C730     C        0.91785    0.59130    0.43684    1.000
    C731     C        0.92083    0.58959    0.46350    1.000
    C732     C        0.91177    0.61864    0.46751    1.000
    C733     C        0.93795    0.55833    0.48396    1.000
    C734     C        0.90853    0.62301    0.38386    1.000
    C735     C        0.89695    0.67891    0.44570    1.000
    C736     C        0.98047    0.68853    0.30240    1.000
    C737     C        0.96148    0.70729    0.32277    1.000
    C738     C        0.95360    0.57534    0.28528    1.000
    H241     H        0.99649    0.39126    0.53221    1.000
    H242     H        0.89547    0.74397    0.53337    1.000
    H243     H        0.88891    0.67161    0.40263    1.000
    H244     H        0.92615    0.56957    0.43234    1.000
    H245     H        0.91544    0.61811    0.48672    1.000
    H246     H        0.93592    0.71339    0.33162    1.000
    Cr83     Cr       0.40811    0.89055    0.95500    1.000
    Cr84     Cr       0.34552    0.13928    0.92989    1.000
    O698     O        0.57997    0.80445    0.85440    1.000
    O699     O        0.64495    0.78283    0.83271    1.000
    O700     O        0.50532    0.99271    0.94308    1.000
    O701     O        0.50271    0.04674    0.00357    1.000
    O702     O        0.47833    0.04073    0.94818    1.000
    O703     O        0.48569    0.86735    0.91703    1.000
    O704     O        0.46753    0.95214    0.90269    1.000
    O705     O        0.44201    0.85369    0.94707    1.000
    O706     O        0.39181    0.93086    0.78978    1.000
    O707     O        0.37150    0.92441    0.96755    1.000
    O708     O        0.42296    0.98201    0.89050    1.000
    O709     O        0.26884    0.16727    0.96916    1.000
    O710     O        0.59410    0.10300    0.00097    1.000
    O711     O        0.31517    0.17564    0.94087    1.000
    O712     O        0.56742    0.11342    0.97168    1.000
    O713     O        0.37976    0.10559    0.91740    1.000
    O714     O        0.36248    0.08466    0.90273    1.000
    C739     C        0.53912    0.06475    0.01749    1.000
    C740     C        0.55995    0.07125    0.02258    1.000
    C741     C        0.57443    0.09781    0.99719    1.000
    C742     C        0.52158    0.81042    0.90451    1.000
    C743     C        0.48966    0.81651    0.92482    1.000
    C744     C        0.47137    0.84750    0.93060    1.000
    C745     C        0.44553    0.00575    0.90025    1.000
    C746     C        0.41993    0.03414    0.89694    1.000
    C747     C        0.41466    0.05793    0.90647    1.000
    C748     C        0.43684    0.05401    0.91785    1.000
    C749     C        0.46350    0.02608    0.92083    1.000
    C750     C        0.46751    0.00208    0.91177    1.000
    C751     C        0.48396    0.01976    0.93795    1.000
    C752     C        0.38386    0.08460    0.90853    1.000
    C753     C        0.44570    0.97844    0.89695    1.000
    C754     C        0.30240    0.02860    0.98047    1.000
    C755     C        0.32277    0.00846    0.96148    1.000
    C756     C        0.28528    0.18578    0.95360    1.000
    H247     H        0.53221    0.08004    0.99649    1.000
    H248     H        0.53337    0.82719    0.89547    1.000
    H249     H        0.40263    0.03685    0.88891    1.000
    H250     H        0.43234    0.07194    0.92615    1.000
    H251     H        0.48672    0.97973    0.91544    1.000
    H252     H        0.33162    0.01907    0.93592    1.000
    Cr85     Cr       0.74634    0.95500    0.89055    1.000
    Cr86     Cr       0.58531    0.92989    0.13928    1.000
    O715     O        0.76118    0.85440    0.80445    1.000
    O716     O        0.73951    0.83271    0.78283    1.000
    O717     O        0.55889    0.94308    0.99271    1.000
    O718     O        0.44698    0.00357    0.04674    1.000
    O719     O        0.53276    0.94818    0.04073    1.000
    O720     O        0.72993    0.91703    0.86735    1.000
    O721     O        0.67764    0.90269    0.95214    1.000
    O722     O        0.75723    0.94707    0.85369    1.000
    O723     O        0.88755    0.78978    0.93086    1.000
    O724     O        0.73654    0.96755    0.92441    1.000
    O725     O        0.70453    0.89050    0.98201    1.000
    O726     O        0.59473    0.96916    0.16727    1.000
    O727     O        0.30193    0.00097    0.10300    1.000
    O728     O        0.56832    0.94087    0.17564    1.000
    O729     O        0.34748    0.97168    0.11342    1.000
    O730     O        0.59725    0.91740    0.10559    1.000
    O731     O        0.65013    0.90273    0.08466    1.000
    C757     C        0.37864    0.01749    0.06475    1.000
    C758     C        0.34622    0.02258    0.07125    1.000
    C759     C        0.33057    0.99719    0.09781    1.000
    C760     C        0.76349    0.90451    0.81042    1.000
    C761     C        0.76901    0.92482    0.81651    1.000
    C762     C        0.75053    0.93060    0.84750    1.000
    C763     C        0.64847    0.90025    0.00575    1.000
    C764     C        0.64899    0.89694    0.03414    1.000
    C765     C        0.62094    0.90647    0.05793    1.000
    C766     C        0.59130    0.91785    0.05401    1.000
    C767     C        0.58959    0.92083    0.02608    1.000
    C768     C        0.61864    0.91177    0.00208    1.000
    C769     C        0.55833    0.93795    0.01976    1.000
    C770     C        0.62301    0.90853    0.08460    1.000
    C771     C        0.67891    0.89695    0.97844    1.000
    C772     C        0.68853    0.98047    0.02860    1.000
    C773     C        0.70729    0.96148    0.00846    1.000
    C774     C        0.57534    0.95360    0.18578    1.000
    H253     H        0.39126    0.99649    0.08004    1.000
    H254     H        0.74397    0.89547    0.82719    1.000
    H255     H        0.67161    0.88891    0.03685    1.000
    H256     H        0.56957    0.92615    0.07194    1.000
    H257     H        0.61811    0.91544    0.97973    1.000
    H258     H        0.71339    0.93592    0.01907    1.000
    Cr87     Cr       0.89055    0.40811    0.74634    1.000
    Cr88     Cr       0.13928    0.34552    0.58531    1.000
    O732     O        0.80445    0.57997    0.76118    1.000
    O733     O        0.78283    0.64495    0.73951    1.000
    O734     O        0.99271    0.50532    0.55889    1.000
    O735     O        0.04674    0.50271    0.44698    1.000
    O736     O        0.04073    0.47833    0.53276    1.000
    O737     O        0.86735    0.48569    0.72993    1.000
    O738     O        0.95214    0.46753    0.67764    1.000
    O739     O        0.85369    0.44201    0.75723    1.000
    O740     O        0.93086    0.39181    0.88755    1.000
    O741     O        0.92441    0.37150    0.73654    1.000
    O742     O        0.98201    0.42296    0.70453    1.000
    O743     O        0.16727    0.26884    0.59473    1.000
    O744     O        0.10300    0.59410    0.30193    1.000
    O745     O        0.17564    0.31517    0.56832    1.000
    O746     O        0.11342    0.56742    0.34748    1.000
    O747     O        0.10559    0.37976    0.59725    1.000
    O748     O        0.08466    0.36248    0.65013    1.000
    C775     C        0.06475    0.53912    0.37864    1.000
    C776     C        0.07125    0.55995    0.34622    1.000
    C777     C        0.09781    0.57443    0.33057    1.000
    C778     C        0.81042    0.52158    0.76349    1.000
    C779     C        0.81651    0.48966    0.76901    1.000
    C780     C        0.84750    0.47137    0.75053    1.000
    C781     C        0.00575    0.44553    0.64847    1.000
    C782     C        0.03414    0.41993    0.64899    1.000
    C783     C        0.05793    0.41466    0.62094    1.000
    C784     C        0.05401    0.43684    0.59130    1.000
    C785     C        0.02608    0.46350    0.58959    1.000
    C786     C        0.00208    0.46751    0.61864    1.000
    C787     C        0.01976    0.48396    0.55833    1.000
    C788     C        0.08460    0.38386    0.62301    1.000
    C789     C        0.97844    0.44570    0.67891    1.000
    C790     C        0.02860    0.30240    0.68853    1.000
    C791     C        0.00846    0.32277    0.70729    1.000
    C792     C        0.18578    0.28528    0.57534    1.000
    H259     H        0.08004    0.53221    0.39126    1.000
    H260     H        0.82719    0.53337    0.74397    1.000
    H261     H        0.03685    0.40263    0.67161    1.000
    H262     H        0.07194    0.43234    0.56957    1.000
    H263     H        0.97973    0.48672    0.61811    1.000
    H264     H        0.01907    0.33162    0.71339    1.000
    Cr89     Cr       0.89055    0.95500    0.40811    1.000
    Cr90     Cr       0.13928    0.92989    0.34552    1.000
    O749     O        0.80445    0.85440    0.57997    1.000
    O750     O        0.78283    0.83271    0.64495    1.000
    O751     O        0.99271    0.94308    0.50532    1.000
    O752     O        0.04674    0.00357    0.50271    1.000
    O753     O        0.04073    0.94818    0.47833    1.000
    O754     O        0.86735    0.91703    0.48569    1.000
    O755     O        0.95214    0.90269    0.46753    1.000
    O756     O        0.85369    0.94707    0.44201    1.000
    O757     O        0.93086    0.78978    0.39181    1.000
    O758     O        0.92441    0.96755    0.37150    1.000
    O759     O        0.98201    0.89050    0.42296    1.000
    O760     O        0.16727    0.96916    0.26884    1.000
    O761     O        0.10300    0.00097    0.59410    1.000
    O762     O        0.17564    0.94087    0.31517    1.000
    O763     O        0.11342    0.97168    0.56742    1.000
    O764     O        0.10559    0.91740    0.37976    1.000
    O765     O        0.08466    0.90273    0.36248    1.000
    C793     C        0.06475    0.01749    0.53912    1.000
    C794     C        0.07125    0.02258    0.55995    1.000
    C795     C        0.09781    0.99719    0.57443    1.000
    C796     C        0.81042    0.90451    0.52158    1.000
    C797     C        0.81651    0.92482    0.48966    1.000
    C798     C        0.84750    0.93060    0.47137    1.000
    C799     C        0.00575    0.90025    0.44553    1.000
    C800     C        0.03414    0.89694    0.41993    1.000
    C801     C        0.05793    0.90647    0.41466    1.000
    C802     C        0.05401    0.91785    0.43684    1.000
    C803     C        0.02608    0.92083    0.46350    1.000
    C804     C        0.00208    0.91177    0.46751    1.000
    C805     C        0.01976    0.93795    0.48396    1.000
    C806     C        0.08460    0.90853    0.38386    1.000
    C807     C        0.97844    0.89695    0.44570    1.000
    C808     C        0.02860    0.98047    0.30240    1.000
    C809     C        0.00846    0.96148    0.32277    1.000
    C810     C        0.18578    0.95360    0.28528    1.000
    H265     H        0.08004    0.99649    0.53221    1.000
    H266     H        0.82719    0.89547    0.53337    1.000
    H267     H        0.03685    0.88891    0.40263    1.000
    H268     H        0.07194    0.92615    0.43234    1.000
    H269     H        0.97973    0.91544    0.48672    1.000
    H270     H        0.01907    0.93592    0.33162    1.000
    Cr91     Cr       0.74634    0.40811    0.95500    1.000
    Cr92     Cr       0.58531    0.34552    0.92989    1.000
    O766     O        0.76118    0.57997    0.85440    1.000
    O767     O        0.73951    0.64495    0.83271    1.000
    O768     O        0.55889    0.50532    0.94308    1.000
    O769     O        0.44698    0.50271    0.00357    1.000
    O770     O        0.53276    0.47833    0.94818    1.000
    O771     O        0.72993    0.48569    0.91703    1.000
    O772     O        0.67764    0.46753    0.90269    1.000
    O773     O        0.75723    0.44201    0.94707    1.000
    O774     O        0.88755    0.39181    0.78978    1.000
    O775     O        0.73654    0.37150    0.96755    1.000
    O776     O        0.70453    0.42296    0.89050    1.000
    O777     O        0.59473    0.26884    0.96916    1.000
    O778     O        0.30193    0.59410    0.00097    1.000
    O779     O        0.56832    0.31517    0.94087    1.000
    O780     O        0.34748    0.56742    0.97168    1.000
    O781     O        0.59725    0.37976    0.91740    1.000
    O782     O        0.65013    0.36248    0.90273    1.000
    C811     C        0.37864    0.53912    0.01749    1.000
    C812     C        0.34622    0.55995    0.02258    1.000
    C813     C        0.33057    0.57443    0.99719    1.000
    C814     C        0.76349    0.52158    0.90451    1.000
    C815     C        0.76901    0.48966    0.92482    1.000
    C816     C        0.75053    0.47137    0.93060    1.000
    C817     C        0.64847    0.44553    0.90025    1.000
    C818     C        0.64899    0.41993    0.89694    1.000
    C819     C        0.62094    0.41466    0.90647    1.000
    C820     C        0.59130    0.43684    0.91785    1.000
    C821     C        0.58959    0.46350    0.92083    1.000
    C822     C        0.61864    0.46751    0.91177    1.000
    C823     C        0.55833    0.48396    0.93795    1.000
    C824     C        0.62301    0.38386    0.90853    1.000
    C825     C        0.67891    0.44570    0.89695    1.000
    C826     C        0.68853    0.30240    0.98047    1.000
    C827     C        0.70729    0.32277    0.96148    1.000
    C828     C        0.57534    0.28528    0.95360    1.000
    H271     H        0.39126    0.53221    0.99649    1.000
    H272     H        0.74397    0.53337    0.89547    1.000
    H273     H        0.67161    0.40263    0.88891    1.000
    H274     H        0.56957    0.43234    0.92615    1.000
    H275     H        0.61811    0.48672    0.91544    1.000
    H276     H        0.71339    0.33162    0.93592    1.000
    Cr93     Cr       0.40811    0.74634    0.89055    1.000
    Cr94     Cr       0.34552    0.58531    0.13928    1.000
    O783     O        0.57997    0.76118    0.80445    1.000
    O784     O        0.64495    0.73951    0.78283    1.000
    O785     O        0.50532    0.55889    0.99271    1.000
    O786     O        0.50271    0.44698    0.04674    1.000
    O787     O        0.47833    0.53276    0.04073    1.000
    O788     O        0.48569    0.72993    0.86735    1.000
    O789     O        0.46753    0.67764    0.95214    1.000
    O790     O        0.44201    0.75723    0.85369    1.000
    O791     O        0.39181    0.88755    0.93086    1.000
    O792     O        0.37150    0.73654    0.92441    1.000
    O793     O        0.42296    0.70453    0.98201    1.000
    O794     O        0.26884    0.59473    0.16727    1.000
    O795     O        0.59410    0.30193    0.10300    1.000
    O796     O        0.31517    0.56832    0.17564    1.000
    O797     O        0.56742    0.34748    0.11342    1.000
    O798     O        0.37976    0.59725    0.10559    1.000
    O799     O        0.36248    0.65013    0.08466    1.000
    C829     C        0.53912    0.37864    0.06475    1.000
    C830     C        0.55995    0.34622    0.07125    1.000
    C831     C        0.57443    0.33057    0.09781    1.000
    C832     C        0.52158    0.76349    0.81042    1.000
    C833     C        0.48966    0.76901    0.81651    1.000
    C834     C        0.47137    0.75053    0.84750    1.000
    C835     C        0.44553    0.64847    0.00575    1.000
    C836     C        0.41993    0.64899    0.03414    1.000
    C837     C        0.41466    0.62094    0.05793    1.000
    C838     C        0.43684    0.59130    0.05401    1.000
    C839     C        0.46350    0.58959    0.02608    1.000
    C840     C        0.46751    0.61864    0.00208    1.000
    C841     C        0.48396    0.55833    0.01976    1.000
    C842     C        0.38386    0.62301    0.08460    1.000
    C843     C        0.44570    0.67891    0.97844    1.000
    C844     C        0.30240    0.68853    0.02860    1.000
    C845     C        0.32277    0.70729    0.00846    1.000
    C846     C        0.28528    0.57534    0.18578    1.000
    H277     H        0.53221    0.39126    0.08004    1.000
    H278     H        0.53337    0.74397    0.82719    1.000
    H279     H        0.40263    0.67161    0.03685    1.000
    H280     H        0.43234    0.56957    0.07194    1.000
    H281     H        0.48672    0.61811    0.97973    1.000
    H282     H        0.33162    0.71339    0.01907    1.000
    Cr95     Cr       0.95500    0.89055    0.74634    1.000
    Cr96     Cr       0.92989    0.13928    0.58531    1.000
    O800     O        0.85440    0.80445    0.76118    1.000
    O801     O        0.83271    0.78283    0.73951    1.000
    O802     O        0.94308    0.99271    0.55889    1.000
    O803     O        0.00357    0.04674    0.44698    1.000
    O804     O        0.94818    0.04073    0.53276    1.000
    O805     O        0.91703    0.86735    0.72993    1.000
    O806     O        0.90269    0.95214    0.67764    1.000
    O807     O        0.94707    0.85369    0.75723    1.000
    O808     O        0.78978    0.93086    0.88755    1.000
    O809     O        0.96755    0.92441    0.73654    1.000
    O810     O        0.89050    0.98201    0.70453    1.000
    O811     O        0.96916    0.16727    0.59473    1.000
    O812     O        0.00097    0.10300    0.30193    1.000
    O813     O        0.94087    0.17564    0.56832    1.000
    O814     O        0.97168    0.11342    0.34748    1.000
    O815     O        0.91740    0.10559    0.59725    1.000
    O816     O        0.90273    0.08466    0.65013    1.000
    C847     C        0.01749    0.06475    0.37864    1.000
    C848     C        0.02258    0.07125    0.34622    1.000
    C849     C        0.99719    0.09781    0.33057    1.000
    C850     C        0.90451    0.81042    0.76349    1.000
    C851     C        0.92482    0.81651    0.76901    1.000
    C852     C        0.93060    0.84750    0.75053    1.000
    C853     C        0.90025    0.00575    0.64847    1.000
    C854     C        0.89694    0.03414    0.64899    1.000
    C855     C        0.90647    0.05793    0.62094    1.000
    C856     C        0.91785    0.05401    0.59130    1.000
    C857     C        0.92083    0.02608    0.58959    1.000
    C858     C        0.91177    0.00208    0.61864    1.000
    C859     C        0.93795    0.01976    0.55833    1.000
    C860     C        0.90853    0.08460    0.62301    1.000
    C861     C        0.89695    0.97844    0.67891    1.000
    C862     C        0.98047    0.02860    0.68853    1.000
    C863     C        0.96148    0.00846    0.70729    1.000
    C864     C        0.95360    0.18578    0.57534    1.000
    H283     H        0.99649    0.08004    0.39126    1.000
    H284     H        0.89547    0.82719    0.74397    1.000
    H285     H        0.88891    0.03685    0.67161    1.000
    H286     H        0.92615    0.07194    0.56957    1.000
    H287     H        0.91544    0.97973    0.61811    1.000
    H288     H        0.93592    0.01907    0.71339    1.000
    Cr97     Cr       0.75267    0.81744    0.81744    1.000
    Cr98     Cr       0.70539    0.91025    0.91025    1.000
    O817     O        0.43010    0.91860    0.91860    1.000
    C865     C        0.67905    0.01402    0.01402    1.000
    C866     C        0.71639    0.97489    0.97489    1.000
    C867     C        0.73124    0.95428    0.95428    1.000
    Cr99     Cr       0.81744    0.75267    0.61245    1.000
    Cr100    Cr       0.91025    0.70539    0.47411    1.000
    O818     O        0.91860    0.43010    0.73270    1.000
    C868     C        0.01402    0.67905    0.29291    1.000
    C869     C        0.97489    0.71639    0.33383    1.000
    C870     C        0.95428    0.73124    0.36020    1.000
    Cr101    Cr       0.81744    0.61245    0.75267    1.000
    Cr102    Cr       0.91025    0.47411    0.70539    1.000
    O819     O        0.91860    0.73270    0.43010    1.000
    C871     C        0.01402    0.29291    0.67905    1.000
    C872     C        0.97489    0.33383    0.71639    1.000
    C873     C        0.95428    0.36020    0.73124    1.000
    Cr103    Cr       0.61245    0.81744    0.81744    1.000
    Cr104    Cr       0.47411    0.91025    0.91025    1.000
    O820     O        0.73270    0.91860    0.91860    1.000
    C874     C        0.29291    0.01402    0.01402    1.000
    C875     C        0.33383    0.97489    0.97489    1.000
    C876     C        0.36020    0.95428    0.95428    1.000
    Cr105    Cr       0.81744    0.75267    0.81744    1.000
    Cr106    Cr       0.91025    0.70539    0.91025    1.000
    O821     O        0.91860    0.43010    0.91860    1.000
    C877     C        0.01402    0.67905    0.01402    1.000
    C878     C        0.97489    0.71639    0.97489    1.000
    C879     C        0.95428    0.73124    0.95428    1.000
    Cr107    Cr       0.61245    0.81744    0.75267    1.000
    Cr108    Cr       0.47411    0.91025    0.70539    1.000
    O822     O        0.73270    0.91860    0.43010    1.000
    C880     C        0.29291    0.01402    0.67905    1.000
    C881     C        0.33383    0.97489    0.71639    1.000
    C882     C        0.36020    0.95428    0.73124    1.000
    Cr109    Cr       0.75267    0.81744    0.61245    1.000
    Cr110    Cr       0.70539    0.91025    0.47411    1.000
    O823     O        0.43010    0.91860    0.73270    1.000
    C883     C        0.67905    0.01402    0.29291    1.000
    C884     C        0.71639    0.97489    0.33383    1.000
    C885     C        0.73124    0.95428    0.36020    1.000
    Cr111    Cr       0.81744    0.61245    0.81744    1.000
    Cr112    Cr       0.91025    0.47411    0.91025    1.000
    O824     O        0.91860    0.73270    0.91860    1.000
    C886     C        0.01402    0.29291    0.01402    1.000
    C887     C        0.97489    0.33383    0.97489    1.000
    C888     C        0.95428    0.36020    0.95428    1.000
    Cr113    Cr       0.81744    0.81744    0.75267    1.000
    Cr114    Cr       0.91025    0.91025    0.70539    1.000
    O825     O        0.91860    0.91860    0.43010    1.000
    C889     C        0.01402    0.01402    0.67905    1.000
    C890     C        0.97489    0.97489    0.71639    1.000
    C891     C        0.95428    0.95428    0.73124    1.000
    Cr115    Cr       0.75267    0.61245    0.81744    1.000
    Cr116    Cr       0.70539    0.47411    0.91025    1.000
    O826     O        0.43010    0.73270    0.91860    1.000
    C892     C        0.67905    0.29291    0.01402    1.000
    C893     C        0.71639    0.33383    0.97489    1.000
    C894     C        0.73124    0.36020    0.95428    1.000
    Cr117    Cr       0.61245    0.75267    0.81744    1.000
    Cr118    Cr       0.47411    0.70539    0.91025    1.000
    O827     O        0.73270    0.43010    0.91860    1.000
    C895     C        0.29291    0.67905    0.01402    1.000
    C896     C        0.33383    0.71639    0.97489    1.000
    C897     C        0.36020    0.73124    0.95428    1.000
    Cr119    Cr       0.81744    0.81744    0.61245    1.000
    Cr120    Cr       0.91025    0.91025    0.47411    1.000
    O828     O        0.91860    0.91860    0.73270    1.000
    C898     C        0.01402    0.01402    0.29291    1.000
    C899     C        0.97489    0.97489    0.33383    1.000
    C900     C        0.95428    0.95428    0.36020    1.000
    Cr121    Cr       0.49733    0.43256    0.63755    1.000
    Cr122    Cr       0.54461    0.33975    0.77589    1.000
    O829     O        0.81990    0.33140    0.51730    1.000
    C901     C        0.57095    0.23598    0.95709    1.000
    C902     C        0.53361    0.27511    0.91617    1.000
    C903     C        0.51876    0.29572    0.88980    1.000
    Cr123    Cr       0.43256    0.49733    0.43256    1.000
    Cr124    Cr       0.33975    0.54461    0.33975    1.000
    O830     O        0.33140    0.81990    0.33140    1.000
    C904     C        0.23598    0.57095    0.23598    1.000
    C905     C        0.27511    0.53361    0.27511    1.000
    C906     C        0.29572    0.51876    0.29572    1.000
    Cr125    Cr       0.43256    0.63755    0.43256    1.000
    Cr126    Cr       0.33975    0.77589    0.33975    1.000
    O831     O        0.33140    0.51730    0.33140    1.000
    C907     C        0.23598    0.95709    0.23598    1.000
    C908     C        0.27511    0.91617    0.27511    1.000
    C909     C        0.29572    0.88980    0.29572    1.000
    Cr127    Cr       0.63755    0.43256    0.49733    1.000
    Cr128    Cr       0.77589    0.33975    0.54461    1.000
    O832     O        0.51730    0.33140    0.81990    1.000
    C910     C        0.95709    0.23598    0.57095    1.000
    C911     C        0.91617    0.27511    0.53361    1.000
    C912     C        0.88980    0.29572    0.51876    1.000
    Cr129    Cr       0.43256    0.49733    0.63755    1.000
    Cr130    Cr       0.33975    0.54461    0.77589    1.000
    O833     O        0.33140    0.81990    0.51730    1.000
    C913     C        0.23598    0.57095    0.95709    1.000
    C914     C        0.27511    0.53361    0.91617    1.000
    C915     C        0.29572    0.51876    0.88980    1.000
    Cr131    Cr       0.63755    0.43256    0.43256    1.000
    Cr132    Cr       0.77589    0.33975    0.33975    1.000
    O834     O        0.51730    0.33140    0.33140    1.000
    C916     C        0.95709    0.23598    0.23598    1.000
    C917     C        0.91617    0.27511    0.27511    1.000
    C918     C        0.88980    0.29572    0.29572    1.000
    Cr133    Cr       0.49733    0.43256    0.43256    1.000
    Cr134    Cr       0.54461    0.33975    0.33975    1.000
    O835     O        0.81990    0.33140    0.33140    1.000
    C919     C        0.57095    0.23598    0.23598    1.000
    C920     C        0.53361    0.27511    0.27511    1.000
    C921     C        0.51876    0.29572    0.29572    1.000
    Cr135    Cr       0.43256    0.63755    0.49733    1.000
    Cr136    Cr       0.33975    0.77589    0.54461    1.000
    O836     O        0.33140    0.51730    0.81990    1.000
    C922     C        0.23598    0.95709    0.57095    1.000
    C923     C        0.27511    0.91617    0.53361    1.000
    C924     C        0.29572    0.88980    0.51876    1.000
    Cr137    Cr       0.43256    0.43256    0.63755    1.000
    Cr138    Cr       0.33975    0.33975    0.77589    1.000
    O837     O        0.33140    0.33140    0.51730    1.000
    C925     C        0.23598    0.23598    0.95709    1.000
    C926     C        0.27511    0.27511    0.91617    1.000
    C927     C        0.29572    0.29572    0.88980    1.000
    Cr139    Cr       0.49733    0.63755    0.43256    1.000
    Cr140    Cr       0.54461    0.77589    0.33975    1.000
    O838     O        0.81990    0.51730    0.33140    1.000
    C928     C        0.57095    0.95709    0.23598    1.000
    C929     C        0.53361    0.91617    0.27511    1.000
    C930     C        0.51876    0.88980    0.29572    1.000
    Cr141    Cr       0.63755    0.49733    0.43256    1.000
    Cr142    Cr       0.77589    0.54461    0.33975    1.000
    O839     O        0.51730    0.81990    0.33140    1.000
    C931     C        0.95709    0.57095    0.23598    1.000
    C932     C        0.91617    0.53361    0.27511    1.000
    C933     C        0.88980    0.51876    0.29572    1.000
    Cr143    Cr       0.43256    0.43256    0.49733    1.000
    Cr144    Cr       0.33975    0.33975    0.54461    1.000
    O840     O        0.33140    0.33140    0.81990    1.000
    C934     C        0.23598    0.23598    0.57095    1.000
    C935     C        0.27511    0.27511    0.53361    1.000
    C936     C        0.29572    0.29572    0.51876    1.000
    C937     C        0.39566    0.03797    0.03797    1.000
    C938     C        0.33087    0.04951    0.04951    1.000
    C939     C        0.43201    0.02914    0.02914    1.000
    C940     C        0.03797    0.39566    0.52840    1.000
    C941     C        0.04951    0.33087    0.57011    1.000
    C942     C        0.02914    0.43201    0.50971    1.000
    C943     C        0.03797    0.52840    0.39566    1.000
    C944     C        0.04951    0.57011    0.33087    1.000
    C945     C        0.02914    0.50971    0.43201    1.000
    C946     C        0.52840    0.03797    0.03797    1.000
    C947     C        0.57011    0.04951    0.04951    1.000
    C948     C        0.50971    0.02914    0.02914    1.000
    C949     C        0.03797    0.39566    0.03797    1.000
    C950     C        0.04951    0.33087    0.04951    1.000
    C951     C        0.02914    0.43201    0.02914    1.000
    C952     C        0.52840    0.03797    0.39566    1.000
    C953     C        0.57011    0.04951    0.33087    1.000
    C954     C        0.50971    0.02914    0.43201    1.000
    C955     C        0.39566    0.03797    0.52840    1.000
    C956     C        0.33087    0.04951    0.57011    1.000
    C957     C        0.43201    0.02914    0.50971    1.000
    C958     C        0.03797    0.52840    0.03797    1.000
    C959     C        0.04951    0.57011    0.04951    1.000
    C960     C        0.02914    0.50971    0.02914    1.000
    C961     C        0.03797    0.03797    0.39566    1.000
    C962     C        0.04951    0.04951    0.33087    1.000
    C963     C        0.02914    0.02914    0.43201    1.000
    C964     C        0.39566    0.52840    0.03797    1.000
    C965     C        0.33087    0.57011    0.04951    1.000
    C966     C        0.43201    0.50971    0.02914    1.000
    C967     C        0.52840    0.39566    0.03797    1.000
    C968     C        0.57011    0.33087    0.04951    1.000
    C969     C        0.50971    0.43201    0.02914    1.000
    C970     C        0.03797    0.03797    0.52840    1.000
    C971     C        0.04951    0.04951    0.57011    1.000
    C972     C        0.02914    0.02914    0.50971    1.000
    C973     C        0.85434    0.21203    0.72160    1.000
    C974     C        0.91913    0.20049    0.67989    1.000
    C975     C        0.81799    0.22086    0.74029    1.000
    C976     C        0.21203    0.85434    0.21203    1.000
    C977     C        0.20049    0.91913    0.20049    1.000
    C978     C        0.22086    0.81799    0.22086    1.000
    C979     C        0.21203    0.72160    0.21203    1.000
    C980     C        0.20049    0.67989    0.20049    1.000
    C981     C        0.22086    0.74029    0.22086    1.000
    C982     C        0.72160    0.21203    0.85434    1.000
    C983     C        0.67989    0.20049    0.91913    1.000
    C984     C        0.74029    0.22086    0.81799    1.000
    C985     C        0.21203    0.85434    0.72160    1.000
    C986     C        0.20049    0.91913    0.67989    1.000
    C987     C        0.22086    0.81799    0.74029    1.000
    C988     C        0.72160    0.21203    0.21203    1.000
    C989     C        0.67989    0.20049    0.20049    1.000
    C990     C        0.74029    0.22086    0.22086    1.000
    C991     C        0.85434    0.21203    0.21203    1.000
    C992     C        0.91913    0.20049    0.20049    1.000
    C993     C        0.81799    0.22086    0.22086    1.000
    C994     C        0.21203    0.72160    0.85434    1.000
    C995     C        0.20049    0.67989    0.91913    1.000
    C996     C        0.22086    0.74029    0.81799    1.000
    C997     C        0.21203    0.21203    0.72160    1.000
    C998     C        0.20049    0.20049    0.67989    1.000
    C999     C        0.22086    0.22086    0.74029    1.000
    C1000    C        0.85434    0.72160    0.21203    1.000
    C1001    C        0.91913    0.67989    0.20049    1.000
    C1002    C        0.81799    0.74029    0.22086    1.000
    C1003    C        0.72160    0.85434    0.21203    1.000
    C1004    C        0.67989    0.91913    0.20049    1.000
    C1005    C        0.74029    0.81799    0.22086    1.000
    C1006    C        0.21203    0.21203    0.85434    1.000
    C1007    C        0.20049    0.20049    0.91913    1.000
    C1008    C        0.22086    0.22086    0.81799    1.000
    Cr145    Cr       0.53061    0.96939    0.96939    1.000
    O841     O        0.50408    0.99592    0.99592    1.000
    Cr146    Cr       0.96939    0.53061    0.53061    1.000
    O842     O        0.99592    0.50408    0.50408    1.000
    Cr147    Cr       0.96939    0.53061    0.96939    1.000
    O843     O        0.99592    0.50408    0.99592    1.000
    Cr148    Cr       0.53061    0.96939    0.53061    1.000
    O844     O        0.50408    0.99592    0.50408    1.000
    Cr149    Cr       0.96939    0.96939    0.53061    1.000
    O845     O        0.99592    0.99592    0.50408    1.000
    Cr150    Cr       0.53061    0.53061    0.96939    1.000
    O846     O        0.50408    0.50408    0.99592    1.000
    Cr151    Cr       0.71939    0.28061    0.71939    1.000
    O847     O        0.74592    0.25408    0.74592    1.000
    Cr152    Cr       0.28061    0.71939    0.28061    1.000
    O848     O        0.25408    0.74592    0.25408    1.000
    Cr153    Cr       0.28061    0.71939    0.71939    1.000
    O849     O        0.25408    0.74592    0.74592    1.000
    Cr154    Cr       0.71939    0.28061    0.28061    1.000
    O850     O        0.74592    0.25408    0.25408    1.000
    Cr155    Cr       0.28061    0.28061    0.71939    1.000
    O851     O        0.25408    0.25408    0.74592    1.000
    Cr156    Cr       0.71939    0.71939    0.28061    1.000
    O852     O        0.74592    0.74592    0.25408    1.000
    Cr157    Cr       0.49080    0.04143    0.97696    1.000
    C1009    C        0.70352    0.75042    0.84255    1.000
    Cr158    Cr       0.04143    0.49080    0.49080    1.000
    C1010    C        0.75042    0.70352    0.70352    1.000
    Cr159    Cr       0.97696    0.49080    0.49080    1.000
    C1011    C        0.84255    0.70352    0.70352    1.000
    Cr160    Cr       0.49080    0.97696    0.04143    1.000
    C1012    C        0.70352    0.84255    0.75042    1.000
    Cr161    Cr       0.97696    0.49080    0.04143    1.000
    C1013    C        0.84255    0.70352    0.75042    1.000
    Cr162    Cr       0.49080    0.04143    0.49080    1.000
    C1014    C        0.70352    0.75042    0.70352    1.000
    Cr163    Cr       0.49080    0.97696    0.49080    1.000
    C1015    C        0.70352    0.84255    0.70352    1.000
    Cr164    Cr       0.04143    0.49080    0.97696    1.000
    C1016    C        0.75042    0.70352    0.84255    1.000
    Cr165    Cr       0.04143    0.97696    0.49080    1.000
    C1017    C        0.75042    0.84255    0.70352    1.000
    Cr166    Cr       0.49080    0.49080    0.04143    1.000
    C1018    C        0.70352    0.70352    0.75042    1.000
    Cr167    Cr       0.49080    0.49080    0.97696    1.000
    C1019    C        0.70352    0.70352    0.84255    1.000
    Cr168    Cr       0.97696    0.04143    0.49080    1.000
    C1020    C        0.84255    0.75042    0.70352    1.000
    Cr169    Cr       0.75920    0.20857    0.75920    1.000
    C1021    C        0.54648    0.49958    0.54648    1.000
    Cr170    Cr       0.20857    0.75920    0.27304    1.000
    C1022    C        0.49958    0.54648    0.40745    1.000
    Cr171    Cr       0.27304    0.75920    0.20857    1.000
    C1023    C        0.40745    0.54648    0.49958    1.000
    Cr172    Cr       0.75920    0.27304    0.75920    1.000
    C1024    C        0.54648    0.40745    0.54648    1.000
    Cr173    Cr       0.27304    0.75920    0.75920    1.000
    C1025    C        0.40745    0.54648    0.54648    1.000
    Cr174    Cr       0.75920    0.20857    0.27304    1.000
    C1026    C        0.54648    0.49958    0.40745    1.000
    Cr175    Cr       0.75920    0.27304    0.20857    1.000
    C1027    C        0.54648    0.40745    0.49958    1.000
    Cr176    Cr       0.20857    0.75920    0.75920    1.000
    C1028    C        0.49958    0.54648    0.54648    1.000
    Cr177    Cr       0.20857    0.27304    0.75920    1.000
    C1029    C        0.49958    0.40745    0.54648    1.000
    Cr178    Cr       0.75920    0.75920    0.27304    1.000
    C1030    C        0.54648    0.54648    0.40745    1.000
    Cr179    Cr       0.75920    0.75920    0.20857    1.000
    C1031    C        0.54648    0.54648    0.49958    1.000
    Cr180    Cr       0.27304    0.20857    0.75920    1.000
    C1032    C        0.40745    0.49958    0.54648    1.000
    Cr181    Cr       0.27693    0.97307    0.12500    1.000
    O853     O        0.31421    0.93579    0.12500    1.000
    Cr182    Cr       0.97307    0.27693    0.62500    1.000
    O854     O        0.93579    0.31421    0.62500    1.000
    Cr183    Cr       0.12500    0.62500    0.27693    1.000
    O855     O        0.12500    0.62500    0.31421    1.000
    Cr184    Cr       0.62500    0.12500    0.97307    1.000
    O856     O        0.62500    0.12500    0.93579    1.000
    Cr185    Cr       0.12500    0.27693    0.97307    1.000
    O857     O        0.12500    0.31421    0.93579    1.000
    Cr186    Cr       0.62500    0.97307    0.27693    1.000
    O858     O        0.62500    0.93579    0.31421    1.000
    Cr187    Cr       0.27693    0.12500    0.62500    1.000
    O859     O        0.31421    0.12500    0.62500    1.000
    Cr188    Cr       0.97307    0.62500    0.12500    1.000
    O860     O        0.93579    0.62500    0.12500    1.000
    Cr189    Cr       0.97307    0.12500    0.27693    1.000
    O861     O        0.93579    0.12500    0.31421    1.000
    Cr190    Cr       0.27693    0.62500    0.97307    1.000
    O862     O        0.31421    0.62500    0.93579    1.000
    Cr191    Cr       0.62500    0.27693    0.12500    1.000
    O863     O        0.62500    0.31421    0.12500    1.000
    Cr192    Cr       0.12500    0.97307    0.62500    1.000
    O864     O        0.12500    0.93579    0.62500    1.000
    Cr193    Cr       0.97307    0.27693    0.12500    1.000
    O865     O        0.93579    0.31421    0.12500    1.000
    Cr194    Cr       0.27693    0.97307    0.62500    1.000
    O866     O        0.31421    0.93579    0.62500    1.000
    Cr195    Cr       0.12500    0.62500    0.97307    1.000
    O867     O        0.12500    0.62500    0.93579    1.000
    Cr196    Cr       0.62500    0.12500    0.27693    1.000
    O868     O        0.62500    0.12500    0.31421    1.000
    Cr197    Cr       0.12500    0.97307    0.27693    1.000
    O869     O        0.12500    0.93579    0.31421    1.000
    Cr198    Cr       0.62500    0.27693    0.97307    1.000
    O870     O        0.62500    0.31421    0.93579    1.000
    Cr199    Cr       0.97307    0.12500    0.62500    1.000
    O871     O        0.93579    0.12500    0.62500    1.000
    Cr200    Cr       0.27693    0.62500    0.12500    1.000
    O872     O        0.31421    0.62500    0.12500    1.000
    Cr201    Cr       0.27693    0.12500    0.97307    1.000
    O873     O        0.31421    0.12500    0.93579    1.000
    Cr202    Cr       0.97307    0.62500    0.27693    1.000
    O874     O        0.93579    0.62500    0.31421    1.000
    Cr203    Cr       0.62500    0.97307    0.12500    1.000
    O875     O        0.62500    0.93579    0.12500    1.000
    Cr204    Cr       0.12500    0.27693    0.62500    1.000
    O876     O        0.12500    0.31421    0.62500    1.000
    O877     O        0.79585    0.79585    0.79585    1.000
    O878     O        0.79585    0.79585    0.61245    1.000
    O879     O        0.79585    0.61245    0.79585    1.000
    O880     O        0.61245    0.79585    0.79585    1.000
    O881     O        0.45415    0.45415    0.63755    1.000
    O882     O        0.45415    0.45415    0.45415    1.000
    O883     O        0.45415    0.63755    0.45415    1.000
    O884     O        0.63755    0.45415    0.45415    1.000
    C1033    C        0.88823    0.88823    0.83992    1.000
    C1034    C        0.90340    0.90340    0.80443    1.000
    C1035    C        0.78456    0.78456    0.89336    1.000
    C1036    C        0.79576    0.79576    0.93452    1.000
    C1037    C        0.78290    0.78290    0.86611    1.000
    C1038    C        0.88823    0.88823    0.38362    1.000
    C1039    C        0.90340    0.90340    0.38877    1.000
    C1040    C        0.78456    0.78456    0.53752    1.000
    C1041    C        0.79576    0.79576    0.47396    1.000
    C1042    C        0.78290    0.78290    0.56809    1.000
    C1043    C        0.83992    0.38362    0.88823    1.000
    C1044    C        0.80443    0.38877    0.90340    1.000
    C1045    C        0.89336    0.53752    0.78456    1.000
    C1046    C        0.93452    0.47396    0.79576    1.000
    C1047    C        0.86611    0.56809    0.78290    1.000
    C1048    C        0.38362    0.83992    0.88823    1.000
    C1049    C        0.38877    0.80443    0.90340    1.000
    C1050    C        0.53752    0.89336    0.78456    1.000
    C1051    C        0.47396    0.93452    0.79576    1.000
    C1052    C        0.56809    0.86611    0.78290    1.000
    C1053    C        0.83992    0.88823    0.88823    1.000
    C1054    C        0.80443    0.90340    0.90340    1.000
    C1055    C        0.89336    0.78456    0.78456    1.000
    C1056    C        0.93452    0.79576    0.79576    1.000
    C1057    C        0.86611    0.78290    0.78290    1.000
    C1058    C        0.38362    0.88823    0.88823    1.000
    C1059    C        0.38877    0.90340    0.90340    1.000
    C1060    C        0.53752    0.78456    0.78456    1.000
    C1061    C        0.47396    0.79576    0.79576    1.000
    C1062    C        0.56809    0.78290    0.78290    1.000
    C1063    C        0.88823    0.83992    0.38362    1.000
    C1064    C        0.90340    0.80443    0.38877    1.000
    C1065    C        0.78456    0.89336    0.53752    1.000
    C1066    C        0.79576    0.93452    0.47396    1.000
    C1067    C        0.78290    0.86611    0.56809    1.000
    C1068    C        0.88823    0.38362    0.83992    1.000
    C1069    C        0.90340    0.38877    0.80443    1.000
    C1070    C        0.78456    0.53752    0.89336    1.000
    C1071    C        0.79576    0.47396    0.93452    1.000
    C1072    C        0.78290    0.56809    0.86611    1.000
    C1073    C        0.88823    0.83992    0.88823    1.000
    C1074    C        0.90340    0.80443    0.90340    1.000
    C1075    C        0.78456    0.89336    0.78456    1.000
    C1076    C        0.79576    0.93452    0.79576    1.000
    C1077    C        0.78290    0.86611    0.78290    1.000
    C1078    C        0.88823    0.38362    0.88823    1.000
    C1079    C        0.90340    0.38877    0.90340    1.000
    C1080    C        0.78456    0.53752    0.78456    1.000
    C1081    C        0.79576    0.47396    0.79576    1.000
    C1082    C        0.78290    0.56809    0.78290    1.000
    C1083    C        0.38362    0.88823    0.83992    1.000
    C1084    C        0.38877    0.90340    0.80443    1.000
    C1085    C        0.53752    0.78456    0.89336    1.000
    C1086    C        0.47396    0.79576    0.93452    1.000
    C1087    C        0.56809    0.78290    0.86611    1.000
    C1088    C        0.83992    0.88823    0.38362    1.000
    C1089    C        0.80443    0.90340    0.38877    1.000
    C1090    C        0.89336    0.78456    0.53752    1.000
    C1091    C        0.93452    0.79576    0.47396    1.000
    C1092    C        0.86611    0.78290    0.56809    1.000
    C1093    C        0.36177    0.36177    0.86638    1.000
    C1094    C        0.34660    0.34660    0.86123    1.000
    C1095    C        0.46544    0.46544    0.71248    1.000
    C1096    C        0.45424    0.45424    0.77604    1.000
    C1097    C        0.46710    0.46710    0.68191    1.000
    C1098    C        0.36177    0.36177    0.41008    1.000
    C1099    C        0.34660    0.34660    0.44557    1.000
    C1100    C        0.46544    0.46544    0.35664    1.000
    C1101    C        0.45424    0.45424    0.31548    1.000
    C1102    C        0.46710    0.46710    0.38389    1.000
    C1103    C        0.41008    0.86638    0.36177    1.000
    C1104    C        0.44557    0.86123    0.34660    1.000
    C1105    C        0.35664    0.71248    0.46544    1.000
    C1106    C        0.31548    0.77604    0.45424    1.000
    C1107    C        0.38389    0.68191    0.46710    1.000
    C1108    C        0.86638    0.41008    0.36177    1.000
    C1109    C        0.86123    0.44557    0.34660    1.000
    C1110    C        0.71248    0.35664    0.46544    1.000
    C1111    C        0.77604    0.31548    0.45424    1.000
    C1112    C        0.68191    0.38389    0.46710    1.000
    C1113    C        0.41008    0.36177    0.86638    1.000
    C1114    C        0.44557    0.34660    0.86123    1.000
    C1115    C        0.35664    0.46544    0.71248    1.000
    C1116    C        0.31548    0.45424    0.77604    1.000
    C1117    C        0.38389    0.46710    0.68191    1.000
    C1118    C        0.86638    0.36177    0.41008    1.000
    C1119    C        0.86123    0.34660    0.44557    1.000
    C1120    C        0.71248    0.46544    0.35664    1.000
    C1121    C        0.77604    0.45424    0.31548    1.000
    C1122    C        0.68191    0.46710    0.38389    1.000
    C1123    C        0.36177    0.41008    0.36177    1.000
    C1124    C        0.34660    0.44557    0.34660    1.000
    C1125    C        0.46544    0.35664    0.46544    1.000
    C1126    C        0.45424    0.31548    0.45424    1.000
    C1127    C        0.46710    0.38389    0.46710    1.000
    C1128    C        0.36177    0.86638    0.36177    1.000
    C1129    C        0.34660    0.86123    0.34660    1.000
    C1130    C        0.46544    0.71248    0.46544    1.000
    C1131    C        0.45424    0.77604    0.45424    1.000
    C1132    C        0.46710    0.68191    0.46710    1.000
    C1133    C        0.36177    0.41008    0.86638    1.000
    C1134    C        0.34660    0.44557    0.86123    1.000
    C1135    C        0.46544    0.35664    0.71248    1.000
    C1136    C        0.45424    0.31548    0.77604    1.000
    C1137    C        0.46710    0.38389    0.68191    1.000
    C1138    C        0.36177    0.86638    0.41008    1.000
    C1139    C        0.34660    0.86123    0.44557    1.000
    C1140    C        0.46544    0.71248    0.35664    1.000
    C1141    C        0.45424    0.77604    0.31548    1.000
    C1142    C        0.46710    0.68191    0.38389    1.000
    C1143    C        0.86638    0.36177    0.36177    1.000
    C1144    C        0.86123    0.34660    0.34660    1.000
    C1145    C        0.71248    0.46544    0.46544    1.000
    C1146    C        0.77604    0.45424    0.45424    1.000
    C1147    C        0.68191    0.46710    0.46710    1.000
    C1148    C        0.41008    0.36177    0.36177    1.000
    C1149    C        0.44557    0.34660    0.34660    1.000
    C1150    C        0.35664    0.46544    0.46544    1.000
    C1151    C        0.31548    0.45424    0.45424    1.000
    C1152    C        0.38389    0.46710    0.46710    1.000
    C1153    C        0.73491    0.73491    0.84281    1.000
    C1154    C        0.75340    0.75340    0.83639    1.000
    C1155    C        0.73491    0.73491    0.68737    1.000
    C1156    C        0.75340    0.75340    0.65681    1.000
    C1157    C        0.84281    0.68737    0.73491    1.000
    C1158    C        0.83639    0.65681    0.75340    1.000
    C1159    C        0.68737    0.84281    0.73491    1.000
    C1160    C        0.65681    0.83639    0.75340    1.000
    C1161    C        0.84281    0.73491    0.73491    1.000
    C1162    C        0.83639    0.75340    0.75340    1.000
    C1163    C        0.68737    0.73491    0.73491    1.000
    C1164    C        0.65681    0.75340    0.75340    1.000
    C1165    C        0.73491    0.84281    0.68737    1.000
    C1166    C        0.75340    0.83639    0.65681    1.000
    C1167    C        0.73491    0.68737    0.84281    1.000
    C1168    C        0.75340    0.65681    0.83639    1.000
    C1169    C        0.73491    0.84281    0.73491    1.000
    C1170    C        0.75340    0.83639    0.75340    1.000
    C1171    C        0.73491    0.68737    0.73491    1.000
    C1172    C        0.75340    0.65681    0.75340    1.000
    C1173    C        0.68737    0.73491    0.84281    1.000
    C1174    C        0.65681    0.75340    0.83639    1.000
    C1175    C        0.84281    0.73491    0.68737    1.000
    C1176    C        0.83639    0.75340    0.65681    1.000
    C1177    C        0.51509    0.51509    0.56263    1.000
    C1178    C        0.49660    0.49660    0.59319    1.000
    C1179    C        0.51509    0.51509    0.40719    1.000
    C1180    C        0.49660    0.49660    0.41361    1.000
    C1181    C        0.40719    0.56263    0.51509    1.000
    C1182    C        0.41361    0.59319    0.49660    1.000
    C1183    C        0.56263    0.40719    0.51509    1.000
    C1184    C        0.59319    0.41361    0.49660    1.000
    C1185    C        0.40719    0.51509    0.56263    1.000
    C1186    C        0.41361    0.49660    0.59319    1.000
    C1187    C        0.56263    0.51509    0.40719    1.000
    C1188    C        0.59319    0.49660    0.41361    1.000
    C1189    C        0.51509    0.40719    0.51509    1.000
    C1190    C        0.49660    0.41361    0.49660    1.000
    C1191    C        0.51509    0.56263    0.51509    1.000
    C1192    C        0.49660    0.59319    0.49660    1.000
    C1193    C        0.51509    0.40719    0.56263    1.000
    C1194    C        0.49660    0.41361    0.59319    1.000
    C1195    C        0.51509    0.56263    0.40719    1.000
    C1196    C        0.49660    0.59319    0.41361    1.000
    C1197    C        0.56263    0.51509    0.51509    1.000
    C1198    C        0.59319    0.49660    0.49660    1.000
    C1199    C        0.40719    0.51509    0.51509    1.000
    C1200    C        0.41361    0.49660    0.49660    1.000
    C1201    C        0.85632    0.90346    0.85632    1.000
    C1202    C        0.90346    0.85632    0.38390    1.000
    C1203    C        0.85632    0.38390    0.85632    1.000
    C1204    C        0.38390    0.85632    0.90346    1.000
    C1205    C        0.85632    0.85632    0.90346    1.000
    C1206    C        0.38390    0.90346    0.85632    1.000
    C1207    C        0.85632    0.85632    0.38390    1.000
    C1208    C        0.90346    0.38390    0.85632    1.000
    C1209    C        0.90346    0.85632    0.85632    1.000
    C1210    C        0.85632    0.38390    0.90346    1.000
    C1211    C        0.38390    0.85632    0.85632    1.000
    C1212    C        0.85632    0.90346    0.38390    1.000
    C1213    C        0.39368    0.34654    0.86610    1.000
    C1214    C        0.34654    0.39368    0.39368    1.000
    C1215    C        0.39368    0.86610    0.34654    1.000
    C1216    C        0.86610    0.39368    0.39368    1.000
    C1217    C        0.39368    0.39368    0.86610    1.000
    C1218    C        0.86610    0.34654    0.39368    1.000
    C1219    C        0.39368    0.39368    0.34654    1.000
    C1220    C        0.34654    0.86610    0.39368    1.000
    C1221    C        0.34654    0.39368    0.86610    1.000
    C1222    C        0.39368    0.86610    0.39368    1.000
    C1223    C        0.86610    0.39368    0.34654    1.000
    C1224    C        0.39368    0.34654    0.39368    1.000
