# CIF file generated by openbabel 3.1.0, see https://openbabel.org
data_I
_chemical_name_common 'image0'
_cell_length_a 27.3062
_cell_length_b 19.4347
_cell_length_c 31.177
_cell_angle_alpha 90
_cell_angle_beta 90
_cell_angle_gamma 90
_space_group_name_H-M_alt 'P 1'
_space_group_name_Hall 'P 1'
loop_
    _symmetry_equiv_pos_as_xyz
    x,y,z
loop_
    _atom_site_label
    _atom_site_type_symbol
    _atom_site_fract_x
    _atom_site_fract_y
    _atom_site_fract_z
    _atom_site_occupancy
    Sr1      Sr       0.21153    0.42002    0.17392    1.000
    Sr2      Sr       0.29088    0.26572    0.19869    1.000
    Sr3      Sr       0.22805    0.09955    0.14948    1.000
    C1       C        0.32470    0.24240    0.43481    1.000
    C2       C        0.37160    0.25080    0.41910    1.000
    C3       C        0.38030    0.25550    0.37588    1.000
    H1       H        0.41300    0.26110    0.36610    1.000
    C4       C        0.34310    0.25240    0.34616    1.000
    C5       C        0.29570    0.24650    0.36110    1.000
    H2       H        0.26920    0.24560    0.34140    1.000
    C6       C        0.28660    0.24170    0.40430    1.000
    H3       H        0.25370    0.23790    0.41400    1.000
    O1       O        0.41126    0.25570    0.44587    1.000
    H4       H        0.41470    0.21860    0.45940    1.000
    C7       C        0.35360    0.25780    0.29877    1.000
    O2       O        0.39700    0.26758    0.28739    1.000
    O3       O        0.31834    0.25170    0.27350    1.000
    C8       C        0.31250    0.23520    0.48183    1.000
    C9       C        0.32910    0.28000    0.51323    1.000
    C10      C        0.31270    0.27530    0.55477    1.000
    H5       H        0.32350    0.30770    0.57550    1.000
    C11      C        0.28030    0.22320    0.56669    1.000
    C12      C        0.26500    0.17640    0.53600    1.000
    H6       H        0.24410    0.13960    0.54400    1.000
    C13      C        0.27990    0.18300    0.49430    1.000
    H7       H        0.26790    0.15170    0.47340    1.000
    O4       O        0.36201    0.33010    0.50147    1.000
    H8       H        0.36880    0.35460    0.52290    1.000
    C14      C        0.26030    0.22250    0.61111    1.000
    O5       O        0.25883    0.27764    0.63149    1.000
    O6       O        0.24499    0.16679    0.62714    1.000
    C15      C        0.42991    0.50490    0.30133    1.000
    C16      C        0.41860    0.43700    0.28904    1.000
    C17      C        0.37924    0.42250    0.26278    1.000
    H9       H        0.37340    0.37640    0.25410    1.000
    C18      C        0.34786    0.47460    0.24884    1.000
    C19      C        0.35760    0.54180    0.26182    1.000
    H10      H        0.33620    0.57780    0.25320    1.000
    C20      C        0.39760    0.55670    0.28706    1.000
    H11      H        0.40360    0.60310    0.29510    1.000
    O7       O        0.44862    0.38570    0.30345    1.000
    H12      H        0.43690    0.34740    0.29650    1.000
    C21      C        0.30490    0.45800    0.22114    1.000
    O8       O        0.29504    0.39542    0.21309    1.000
    O9       O        0.27961    0.50701    0.20633    1.000
    C22      C        0.47403    0.52280    0.32733    1.000
    C23      C        0.46947    0.56400    0.36413    1.000
    C24      C        0.51179    0.58470    0.38653    1.000
    H13      H        0.50830    0.61240    0.41150    1.000
    C25      C        0.55813    0.56590    0.37321    1.000
    C26      C        0.56261    0.52550    0.33669    1.000
    H14      H        0.59410    0.51260    0.32670    1.000
    C27      C        0.52080    0.50380    0.31467    1.000
    H15      H        0.52450    0.47510    0.29020    1.000
    O10      O        0.42390    0.58360    0.37845    1.000
    H16      H        0.40230    0.56770    0.36200    1.000
    C28      C        0.60268    0.59090    0.39778    1.000
    O11      O        0.64323    0.59364    0.37868    1.000
    O12      O        0.59515    0.60880    0.43598    1.000
    C29      C        0.47530    0.06720    0.24000    1.000
    C30      C        0.44380    0.12060    0.24990    1.000
    C31      C        0.39840    0.12710    0.22910    1.000
    H17      H        0.37740    0.16450    0.23590    1.000
    C32      C        0.38412    0.07930    0.19880    1.000
    C33      C        0.41500    0.02470    0.18790    1.000
    H18      H        0.40560    0.99200    0.16680    1.000
    C34      C        0.46050    0.01940    0.20900    1.000
    H19      H        0.48170    0.98240    0.20190    1.000
    O13      O        0.45815    0.16460    0.28150    1.000
    H20      H        0.44050    0.20000    0.28100    1.000
    C35      C        0.33436    0.08690    0.17857    1.000
    O14      O        0.31038    0.14167    0.18598    1.000
    O15      O        0.31708    0.03866    0.15683    1.000
    C36      C        0.02700    0.25170    0.24430    1.000
    C37      C        0.05780    0.30670    0.25440    1.000
    C38      C        0.10660    0.30480    0.24340    1.000
    H21      H        0.12640    0.34410    0.24880    1.000
    C39      C        0.12790    0.24690    0.22449    1.000
    C40      C        0.09697    0.19180    0.21470    1.000
    H22      H        0.11010    0.15180    0.20140    1.000
    C41      C        0.04700    0.19480    0.22423    1.000
    H23      H        0.02640    0.15720    0.21680    1.000
    O16      O        0.04000    0.36380    0.27560    1.000
    H24      H        0.02470    0.38880    0.25830    1.000
    C42      C        0.18180    0.24450    0.21503    1.000
    O17      O        0.20282    0.30267    0.21204    1.000
    O18      O        0.20287    0.18869    0.21161    1.000
    O19      O        0.22521    0.97809    0.11496    1.000
    C43      C        0.18730    0.94680    0.10627    1.000
    H25      H        0.17280    0.91990    0.12830    1.000
    N1       N        0.16502    0.94780    0.06843    1.000
    C44      C        0.18490    0.98900    0.03370    1.000
    H26      H        0.15880    0.01730    0.02130    1.000
    H27      H        0.19840    0.95870    0.01160    1.000
    H28      H        0.21080    0.01890    0.04480    1.000
    C45      C        0.11810    0.91040    0.06140    1.000
    H29      H        0.11150    0.88040    0.08610    1.000
    H30      H        0.12060    0.88240    0.03540    1.000
    H31      H        0.09140    0.94360    0.05830    1.000
    Sr4      Sr       0.28847    0.07998    0.67392    1.000
    Sr5      Sr       0.20912    0.23428    0.69869    1.000
    Sr6      Sr       0.27195    0.40045    0.64948    1.000
    C46      C        0.17530    0.25760    0.93481    1.000
    C47      C        0.12840    0.24920    0.91910    1.000
    C48      C        0.11970    0.24450    0.87588    1.000
    H32      H        0.08700    0.23890    0.86610    1.000
    C49      C        0.15690    0.24760    0.84616    1.000
    C50      C        0.20430    0.25350    0.86110    1.000
    H33      H        0.23080    0.25440    0.84140    1.000
    C51      C        0.21340    0.25830    0.90430    1.000
    H34      H        0.24630    0.26210    0.91400    1.000
    O20      O        0.08874    0.24430    0.94587    1.000
    H35      H        0.08530    0.28140    0.95940    1.000
    C52      C        0.14640    0.24220    0.79877    1.000
    O21      O        0.10300    0.23242    0.78739    1.000
    O22      O        0.18166    0.24830    0.77350    1.000
    C53      C        0.18750    0.26480    0.98183    1.000
    C54      C        0.17090    0.22000    0.01323    1.000
    C55      C        0.18730    0.22470    0.05477    1.000
    H36      H        0.17650    0.19230    0.07550    1.000
    C56      C        0.21970    0.27680    0.06669    1.000
    C57      C        0.23500    0.32360    0.03600    1.000
    H37      H        0.25590    0.36040    0.04400    1.000
    C58      C        0.22010    0.31700    0.99430    1.000
    H38      H        0.23210    0.34830    0.97340    1.000
    O23      O        0.13799    0.16990    0.00147    1.000
    H39      H        0.13120    0.14540    0.02290    1.000
    C59      C        0.23970    0.27750    0.11111    1.000
    O24      O        0.24117    0.22236    0.13149    1.000
    O25      O        0.25501    0.33321    0.12714    1.000
    C60      C        0.07009    0.99510    0.80133    1.000
    C61      C        0.08140    0.06300    0.78904    1.000
    C62      C        0.12076    0.07750    0.76278    1.000
    H40      H        0.12660    0.12360    0.75410    1.000
    C63      C        0.15214    0.02540    0.74884    1.000
    C64      C        0.14240    0.95820    0.76182    1.000
    H41      H        0.16380    0.92220    0.75320    1.000
    C65      C        0.10240    0.94330    0.78706    1.000
    H42      H        0.09640    0.89690    0.79510    1.000
    O26      O        0.05138    0.11430    0.80345    1.000
    H43      H        0.06310    0.15260    0.79650    1.000
    C66      C        0.19510    0.04200    0.72114    1.000
    O27      O        0.20496    0.10458    0.71309    1.000
    O28      O        0.22039    0.99299    0.70633    1.000
    C67      C        0.02597    0.97720    0.82733    1.000
    C68      C        0.03053    0.93600    0.86413    1.000
    C69      C        0.98821    0.91530    0.88653    1.000
    H44      H        0.99170    0.88760    0.91150    1.000
    C70      C        0.94187    0.93410    0.87321    1.000
    C71      C        0.93739    0.97450    0.83669    1.000
    H45      H        0.90590    0.98740    0.82670    1.000
    C72      C        0.97920    0.99620    0.81467    1.000
    H46      H        0.97550    0.02490    0.79020    1.000
    O29      O        0.07610    0.91640    0.87845    1.000
    H47      H        0.09770    0.93230    0.86200    1.000
    C73      C        0.89732    0.90910    0.89778    1.000
    O30      O        0.85677    0.90636    0.87868    1.000
    O31      O        0.90485    0.89120    0.93598    1.000
    C74      C        0.02470    0.43280    0.74000    1.000
    C75      C        0.05620    0.37940    0.74990    1.000
    C76      C        0.10160    0.37290    0.72910    1.000
    H48      H        0.12260    0.33550    0.73590    1.000
    C77      C        0.11588    0.42070    0.69880    1.000
    C78      C        0.08500    0.47530    0.68790    1.000
    H49      H        0.09440    0.50800    0.66680    1.000
    C79      C        0.03950    0.48060    0.70900    1.000
    H50      H        0.01830    0.51760    0.70190    1.000
    O32      O        0.04185    0.33540    0.78150    1.000
    H51      H        0.05950    0.30000    0.78100    1.000
    C80      C        0.16564    0.41310    0.67857    1.000
    O33      O        0.18962    0.35833    0.68598    1.000
    O34      O        0.18292    0.46134    0.65683    1.000
    C81      C        0.47300    0.24830    0.74430    1.000
    C82      C        0.44220    0.19330    0.75440    1.000
    C83      C        0.39340    0.19520    0.74340    1.000
    H52      H        0.37360    0.15590    0.74880    1.000
    C84      C        0.37210    0.25310    0.72449    1.000
    C85      C        0.40303    0.30820    0.71470    1.000
    H53      H        0.38990    0.34820    0.70140    1.000
    C86      C        0.45300    0.30520    0.72423    1.000
    H54      H        0.47360    0.34280    0.71680    1.000
    O35      O        0.46000    0.13620    0.77560    1.000
    H55      H        0.47530    0.11120    0.75830    1.000
    C87      C        0.31820    0.25550    0.71503    1.000
    O36      O        0.29718    0.19733    0.71204    1.000
    O37      O        0.29713    0.31131    0.71161    1.000
    O38      O        0.27479    0.52191    0.61496    1.000
    C88      C        0.31270    0.55320    0.60627    1.000
    H56      H        0.32720    0.58010    0.62830    1.000
    N2       N        0.33498    0.55220    0.56843    1.000
    C89      C        0.31510    0.51100    0.53370    1.000
    H57      H        0.34120    0.48270    0.52130    1.000
    H58      H        0.30160    0.54130    0.51160    1.000
    H59      H        0.28920    0.48110    0.54480    1.000
    C90      C        0.38190    0.58960    0.56140    1.000
    H60      H        0.38850    0.61960    0.58610    1.000
    H61      H        0.37940    0.61760    0.53540    1.000
    H62      H        0.40860    0.55640    0.55830    1.000
    Sr7      Sr       0.78847    0.42002    0.32608    1.000
    Sr8      Sr       0.70912    0.26572    0.30131    1.000
    Sr9      Sr       0.77195    0.09955    0.35052    1.000
    C91      C        0.67530    0.24240    0.06519    1.000
    C92      C        0.62840    0.25080    0.08090    1.000
    C93      C        0.61970    0.25550    0.12412    1.000
    H63      H        0.58700    0.26110    0.13390    1.000
    C94      C        0.65690    0.25240    0.15384    1.000
    C95      C        0.70430    0.24650    0.13890    1.000
    H64      H        0.73080    0.24560    0.15860    1.000
    C96      C        0.71340    0.24170    0.09570    1.000
    H65      H        0.74630    0.23790    0.08600    1.000
    O39      O        0.58874    0.25570    0.05413    1.000
    H66      H        0.58530    0.21860    0.04060    1.000
    C97      C        0.64640    0.25780    0.20123    1.000
    O40      O        0.60300    0.26758    0.21261    1.000
    O41      O        0.68166    0.25170    0.22650    1.000
    C98      C        0.68750    0.23520    0.01817    1.000
    C99      C        0.67090    0.28000    0.98677    1.000
    C100     C        0.68730    0.27530    0.94523    1.000
    H67      H        0.67650    0.30770    0.92450    1.000
    C101     C        0.71970    0.22320    0.93331    1.000
    C102     C        0.73500    0.17640    0.96400    1.000
    H68      H        0.75590    0.13960    0.95600    1.000
    C103     C        0.72010    0.18300    0.00570    1.000
    H69      H        0.73210    0.15170    0.02660    1.000
    O42      O        0.63799    0.33010    0.99853    1.000
    H70      H        0.63120    0.35460    0.97710    1.000
    C104     C        0.73970    0.22250    0.88889    1.000
    O43      O        0.74117    0.27764    0.86851    1.000
    O44      O        0.75501    0.16679    0.87286    1.000
    C105     C        0.57009    0.50490    0.19867    1.000
    C106     C        0.58140    0.43700    0.21096    1.000
    C107     C        0.62076    0.42250    0.23722    1.000
    H71      H        0.62660    0.37640    0.24590    1.000
    C108     C        0.65214    0.47460    0.25116    1.000
    C109     C        0.64240    0.54180    0.23818    1.000
    H72      H        0.66380    0.57780    0.24680    1.000
    C110     C        0.60240    0.55670    0.21294    1.000
    H73      H        0.59640    0.60310    0.20490    1.000
    O45      O        0.55138    0.38570    0.19655    1.000
    H74      H        0.56310    0.34740    0.20350    1.000
    C111     C        0.69510    0.45800    0.27886    1.000
    O46      O        0.70496    0.39542    0.28691    1.000
    O47      O        0.72039    0.50701    0.29367    1.000
    C112     C        0.52597    0.52280    0.17267    1.000
    C113     C        0.53053    0.56400    0.13587    1.000
    C114     C        0.48821    0.58470    0.11347    1.000
    H75      H        0.49170    0.61240    0.08850    1.000
    C115     C        0.44187    0.56590    0.12679    1.000
    C116     C        0.43739    0.52550    0.16331    1.000
    H76      H        0.40590    0.51260    0.17330    1.000
    C117     C        0.47920    0.50380    0.18533    1.000
    H77      H        0.47550    0.47510    0.20980    1.000
    O48      O        0.57610    0.58360    0.12155    1.000
    H78      H        0.59770    0.56770    0.13800    1.000
    C118     C        0.39732    0.59090    0.10222    1.000
    O49      O        0.35677    0.59364    0.12132    1.000
    O50      O        0.40485    0.60880    0.06402    1.000
    C119     C        0.52470    0.06720    0.26000    1.000
    C120     C        0.55620    0.12060    0.25010    1.000
    C121     C        0.60160    0.12710    0.27090    1.000
    H79      H        0.62260    0.16450    0.26410    1.000
    C122     C        0.61588    0.07930    0.30120    1.000
    C123     C        0.58500    0.02470    0.31210    1.000
    H80      H        0.59440    0.99200    0.33320    1.000
    C124     C        0.53950    0.01940    0.29100    1.000
    H81      H        0.51830    0.98240    0.29810    1.000
    O51      O        0.54185    0.16460    0.21850    1.000
    H82      H        0.55950    0.20000    0.21900    1.000
    C125     C        0.66564    0.08690    0.32143    1.000
    O52      O        0.68962    0.14167    0.31402    1.000
    O53      O        0.68292    0.03866    0.34317    1.000
    C126     C        0.97300    0.25170    0.25570    1.000
    C127     C        0.94220    0.30670    0.24560    1.000
    C128     C        0.89340    0.30480    0.25660    1.000
    H83      H        0.87360    0.34410    0.25120    1.000
    C129     C        0.87210    0.24690    0.27551    1.000
    C130     C        0.90303    0.19180    0.28530    1.000
    H84      H        0.88990    0.15180    0.29860    1.000
    C131     C        0.95300    0.19480    0.27577    1.000
    H85      H        0.97360    0.15720    0.28320    1.000
    O54      O        0.96000    0.36380    0.22440    1.000
    H86      H        0.97530    0.38880    0.24170    1.000
    C132     C        0.81820    0.24450    0.28497    1.000
    O55      O        0.79718    0.30267    0.28796    1.000
    O56      O        0.79713    0.18869    0.28839    1.000
    O57      O        0.77479    0.97809    0.38504    1.000
    C133     C        0.81270    0.94680    0.39373    1.000
    H87      H        0.82720    0.91990    0.37170    1.000
    N3       N        0.83498    0.94780    0.43157    1.000
    C134     C        0.81510    0.98900    0.46630    1.000
    H88      H        0.84120    0.01730    0.47870    1.000
    H89      H        0.80160    0.95870    0.48840    1.000
    H90      H        0.78920    0.01890    0.45520    1.000
    C135     C        0.88190    0.91040    0.43860    1.000
    H91      H        0.88850    0.88040    0.41390    1.000
    H92      H        0.87940    0.88240    0.46460    1.000
    H93      H        0.90860    0.94360    0.44170    1.000
    Sr10     Sr       0.71153    0.07998    0.82608    1.000
    Sr11     Sr       0.79088    0.23428    0.80131    1.000
    Sr12     Sr       0.72805    0.40045    0.85052    1.000
    C136     C        0.82470    0.25760    0.56519    1.000
    C137     C        0.87160    0.24920    0.58090    1.000
    C138     C        0.88030    0.24450    0.62412    1.000
    H94      H        0.91300    0.23890    0.63390    1.000
    C139     C        0.84310    0.24760    0.65384    1.000
    C140     C        0.79570    0.25350    0.63890    1.000
    H95      H        0.76920    0.25440    0.65860    1.000
    C141     C        0.78660    0.25830    0.59570    1.000
    H96      H        0.75370    0.26210    0.58600    1.000
    O58      O        0.91126    0.24430    0.55413    1.000
    H97      H        0.91470    0.28140    0.54060    1.000
    C142     C        0.85360    0.24220    0.70123    1.000
    O59      O        0.89700    0.23242    0.71261    1.000
    O60      O        0.81834    0.24830    0.72650    1.000
    C143     C        0.81250    0.26480    0.51817    1.000
    C144     C        0.82910    0.22000    0.48677    1.000
    C145     C        0.81270    0.22470    0.44523    1.000
    H98      H        0.82350    0.19230    0.42450    1.000
    C146     C        0.78030    0.27680    0.43331    1.000
    C147     C        0.76500    0.32360    0.46400    1.000
    H99      H        0.74410    0.36040    0.45600    1.000
    C148     C        0.77990    0.31700    0.50570    1.000
    H100     H        0.76790    0.34830    0.52660    1.000
    O61      O        0.86201    0.16990    0.49853    1.000
    H101     H        0.86880    0.14540    0.47710    1.000
    C149     C        0.76030    0.27750    0.38889    1.000
    O62      O        0.75883    0.22236    0.36851    1.000
    O63      O        0.74499    0.33321    0.37286    1.000
    C150     C        0.92991    0.99510    0.69867    1.000
    C151     C        0.91860    0.06300    0.71096    1.000
    C152     C        0.87924    0.07750    0.73722    1.000
    H102     H        0.87340    0.12360    0.74590    1.000
    C153     C        0.84786    0.02540    0.75116    1.000
    C154     C        0.85760    0.95820    0.73818    1.000
    H103     H        0.83620    0.92220    0.74680    1.000
    C155     C        0.89760    0.94330    0.71294    1.000
    H104     H        0.90360    0.89690    0.70490    1.000
    O64      O        0.94862    0.11430    0.69655    1.000
    H105     H        0.93690    0.15260    0.70350    1.000
    C156     C        0.80490    0.04200    0.77886    1.000
    O65      O        0.79504    0.10458    0.78691    1.000
    O66      O        0.77961    0.99299    0.79367    1.000
    C157     C        0.97403    0.97720    0.67267    1.000
    C158     C        0.96947    0.93600    0.63587    1.000
    C159     C        0.01179    0.91530    0.61347    1.000
    H106     H        0.00830    0.88760    0.58850    1.000
    C160     C        0.05813    0.93410    0.62679    1.000
    C161     C        0.06261    0.97450    0.66331    1.000
    H107     H        0.09410    0.98740    0.67330    1.000
    C162     C        0.02080    0.99620    0.68533    1.000
    H108     H        0.02450    0.02490    0.70980    1.000
    O67      O        0.92390    0.91640    0.62155    1.000
    H109     H        0.90230    0.93230    0.63800    1.000
    C163     C        0.10268    0.90910    0.60222    1.000
    O68      O        0.14323    0.90636    0.62132    1.000
    O69      O        0.09515    0.89120    0.56402    1.000
    C164     C        0.97530    0.43280    0.76000    1.000
    C165     C        0.94380    0.37940    0.75010    1.000
    C166     C        0.89840    0.37290    0.77090    1.000
    H110     H        0.87740    0.33550    0.76410    1.000
    C167     C        0.88412    0.42070    0.80120    1.000
    C168     C        0.91500    0.47530    0.81210    1.000
    H111     H        0.90560    0.50800    0.83320    1.000
    C169     C        0.96050    0.48060    0.79100    1.000
    H112     H        0.98170    0.51760    0.79810    1.000
    O70      O        0.95815    0.33540    0.71850    1.000
    H113     H        0.94050    0.30000    0.71900    1.000
    C170     C        0.83436    0.41310    0.82143    1.000
    O71      O        0.81038    0.35833    0.81402    1.000
    O72      O        0.81708    0.46134    0.84317    1.000
    C171     C        0.52700    0.24830    0.75570    1.000
    C172     C        0.55780    0.19330    0.74560    1.000
    C173     C        0.60660    0.19520    0.75660    1.000
    H114     H        0.62640    0.15590    0.75120    1.000
    C174     C        0.62790    0.25310    0.77551    1.000
    C175     C        0.59697    0.30820    0.78530    1.000
    H115     H        0.61010    0.34820    0.79860    1.000
    C176     C        0.54700    0.30520    0.77577    1.000
    H116     H        0.52640    0.34280    0.78320    1.000
    O73      O        0.54000    0.13620    0.72440    1.000
    H117     H        0.52470    0.11120    0.74170    1.000
    C177     C        0.68180    0.25550    0.78497    1.000
    O74      O        0.70282    0.19733    0.78796    1.000
    O75      O        0.70287    0.31131    0.78839    1.000
    O76      O        0.72521    0.52191    0.88504    1.000
    C178     C        0.68730    0.55320    0.89373    1.000
    H118     H        0.67280    0.58010    0.87170    1.000
    N4       N        0.66502    0.55220    0.93157    1.000
    C179     C        0.68490    0.51100    0.96630    1.000
    H119     H        0.65880    0.48270    0.97870    1.000
    H120     H        0.69840    0.54130    0.98840    1.000
    H121     H        0.71080    0.48110    0.95520    1.000
    C180     C        0.61810    0.58960    0.93860    1.000
    H122     H        0.61150    0.61960    0.91390    1.000
    H123     H        0.62060    0.61760    0.96460    1.000
    H124     H        0.59140    0.55640    0.94170    1.000
    Sr13     Sr       0.78847    0.57998    0.82608    1.000
    Sr14     Sr       0.70912    0.73428    0.80131    1.000
    Sr15     Sr       0.77195    0.90045    0.85052    1.000
    C181     C        0.67530    0.75760    0.56519    1.000
    C182     C        0.62840    0.74920    0.58090    1.000
    C183     C        0.61970    0.74450    0.62412    1.000
    H125     H        0.58700    0.73890    0.63390    1.000
    C184     C        0.65690    0.74760    0.65384    1.000
    C185     C        0.70430    0.75350    0.63890    1.000
    H126     H        0.73080    0.75440    0.65860    1.000
    C186     C        0.71340    0.75830    0.59570    1.000
    H127     H        0.74630    0.76210    0.58600    1.000
    O77      O        0.58874    0.74430    0.55413    1.000
    H128     H        0.58530    0.78140    0.54060    1.000
    C187     C        0.64640    0.74220    0.70123    1.000
    O78      O        0.60300    0.73242    0.71261    1.000
    O79      O        0.68166    0.74830    0.72650    1.000
    C188     C        0.68750    0.76480    0.51817    1.000
    C189     C        0.67090    0.72000    0.48677    1.000
    C190     C        0.68730    0.72470    0.44523    1.000
    H129     H        0.67650    0.69230    0.42450    1.000
    C191     C        0.71970    0.77680    0.43331    1.000
    C192     C        0.73500    0.82360    0.46400    1.000
    H130     H        0.75590    0.86040    0.45600    1.000
    C193     C        0.72010    0.81700    0.50570    1.000
    H131     H        0.73210    0.84830    0.52660    1.000
    O80      O        0.63799    0.66990    0.49853    1.000
    H132     H        0.63120    0.64540    0.47710    1.000
    C194     C        0.73970    0.77750    0.38889    1.000
    O81      O        0.74117    0.72236    0.36851    1.000
    O82      O        0.75501    0.83321    0.37286    1.000
    C195     C        0.57009    0.49510    0.69867    1.000
    C196     C        0.58140    0.56300    0.71096    1.000
    C197     C        0.62076    0.57750    0.73722    1.000
    H133     H        0.62660    0.62360    0.74590    1.000
    C198     C        0.65214    0.52540    0.75116    1.000
    C199     C        0.64240    0.45820    0.73818    1.000
    H134     H        0.66380    0.42220    0.74680    1.000
    C200     C        0.60240    0.44330    0.71294    1.000
    H135     H        0.59640    0.39690    0.70490    1.000
    O83      O        0.55138    0.61430    0.69655    1.000
    H136     H        0.56310    0.65260    0.70350    1.000
    C201     C        0.69510    0.54200    0.77886    1.000
    O84      O        0.70496    0.60458    0.78691    1.000
    O85      O        0.72039    0.49299    0.79367    1.000
    C202     C        0.52597    0.47720    0.67267    1.000
    C203     C        0.53053    0.43600    0.63587    1.000
    C204     C        0.48821    0.41530    0.61347    1.000
    H137     H        0.49170    0.38760    0.58850    1.000
    C205     C        0.44187    0.43410    0.62679    1.000
    C206     C        0.43739    0.47450    0.66331    1.000
    H138     H        0.40590    0.48740    0.67330    1.000
    C207     C        0.47920    0.49620    0.68533    1.000
    H139     H        0.47550    0.52490    0.70980    1.000
    O86      O        0.57610    0.41640    0.62155    1.000
    H140     H        0.59770    0.43230    0.63800    1.000
    C208     C        0.39732    0.40910    0.60222    1.000
    O87      O        0.35677    0.40636    0.62132    1.000
    O88      O        0.40485    0.39120    0.56402    1.000
    C209     C        0.52470    0.93280    0.76000    1.000
    C210     C        0.55620    0.87940    0.75010    1.000
    C211     C        0.60160    0.87290    0.77090    1.000
    H141     H        0.62260    0.83550    0.76410    1.000
    C212     C        0.61588    0.92070    0.80120    1.000
    C213     C        0.58500    0.97530    0.81210    1.000
    H142     H        0.59440    0.00800    0.83320    1.000
    C214     C        0.53950    0.98060    0.79100    1.000
    H143     H        0.51830    0.01760    0.79810    1.000
    O89      O        0.54185    0.83540    0.71850    1.000
    H144     H        0.55950    0.80000    0.71900    1.000
    C215     C        0.66564    0.91310    0.82143    1.000
    O90      O        0.68962    0.85833    0.81402    1.000
    O91      O        0.68292    0.96134    0.84317    1.000
    C216     C        0.97300    0.74830    0.75570    1.000
    C217     C        0.94220    0.69330    0.74560    1.000
    C218     C        0.89340    0.69520    0.75660    1.000
    H145     H        0.87360    0.65590    0.75120    1.000
    C219     C        0.87210    0.75310    0.77551    1.000
    C220     C        0.90303    0.80820    0.78530    1.000
    H146     H        0.88990    0.84820    0.79860    1.000
    C221     C        0.95300    0.80520    0.77577    1.000
    H147     H        0.97360    0.84280    0.78320    1.000
    O92      O        0.96000    0.63620    0.72440    1.000
    H148     H        0.97530    0.61120    0.74170    1.000
    C222     C        0.81820    0.75550    0.78497    1.000
    O93      O        0.79718    0.69733    0.78796    1.000
    O94      O        0.79713    0.81131    0.78839    1.000
    O95      O        0.77479    0.02191    0.88504    1.000
    C223     C        0.81270    0.05320    0.89373    1.000
    H149     H        0.82720    0.08010    0.87170    1.000
    N5       N        0.83498    0.05220    0.93157    1.000
    C224     C        0.81510    0.01100    0.96630    1.000
    H150     H        0.84120    0.98270    0.97870    1.000
    H151     H        0.80160    0.04130    0.98840    1.000
    H152     H        0.78920    0.98110    0.95520    1.000
    C225     C        0.88190    0.08960    0.93860    1.000
    H153     H        0.88850    0.11960    0.91390    1.000
    H154     H        0.87940    0.11760    0.96460    1.000
    H155     H        0.90860    0.05640    0.94170    1.000
    Sr16     Sr       0.71153    0.92002    0.32608    1.000
    Sr17     Sr       0.79088    0.76572    0.30131    1.000
    Sr18     Sr       0.72805    0.59955    0.35052    1.000
    C226     C        0.82470    0.74240    0.06519    1.000
    C227     C        0.87160    0.75080    0.08090    1.000
    C228     C        0.88030    0.75550    0.12412    1.000
    H156     H        0.91300    0.76110    0.13390    1.000
    C229     C        0.84310    0.75240    0.15384    1.000
    C230     C        0.79570    0.74650    0.13890    1.000
    H157     H        0.76920    0.74560    0.15860    1.000
    C231     C        0.78660    0.74170    0.09570    1.000
    H158     H        0.75370    0.73790    0.08600    1.000
    O96      O        0.91126    0.75570    0.05413    1.000
    H159     H        0.91470    0.71860    0.04060    1.000
    C232     C        0.85360    0.75780    0.20123    1.000
    O97      O        0.89700    0.76758    0.21261    1.000
    O98      O        0.81834    0.75170    0.22650    1.000
    C233     C        0.81250    0.73520    0.01817    1.000
    C234     C        0.82910    0.78000    0.98677    1.000
    C235     C        0.81270    0.77530    0.94523    1.000
    H160     H        0.82350    0.80770    0.92450    1.000
    C236     C        0.78030    0.72320    0.93331    1.000
    C237     C        0.76500    0.67640    0.96400    1.000
    H161     H        0.74410    0.63960    0.95600    1.000
    C238     C        0.77990    0.68300    0.00570    1.000
    H162     H        0.76790    0.65170    0.02660    1.000
    O99      O        0.86201    0.83010    0.99853    1.000
    H163     H        0.86880    0.85460    0.97710    1.000
    C239     C        0.76030    0.72250    0.88889    1.000
    O100     O        0.75883    0.77764    0.86851    1.000
    O101     O        0.74499    0.66679    0.87286    1.000
    C240     C        0.92991    0.00490    0.19867    1.000
    C241     C        0.91860    0.93700    0.21096    1.000
    C242     C        0.87924    0.92250    0.23722    1.000
    H164     H        0.87340    0.87640    0.24590    1.000
    C243     C        0.84786    0.97460    0.25116    1.000
    C244     C        0.85760    0.04180    0.23818    1.000
    H165     H        0.83620    0.07780    0.24680    1.000
    C245     C        0.89760    0.05670    0.21294    1.000
    H166     H        0.90360    0.10310    0.20490    1.000
    O102     O        0.94862    0.88570    0.19655    1.000
    H167     H        0.93690    0.84740    0.20350    1.000
    C246     C        0.80490    0.95800    0.27886    1.000
    O103     O        0.79504    0.89542    0.28691    1.000
    O104     O        0.77961    0.00701    0.29367    1.000
    C247     C        0.97403    0.02280    0.17267    1.000
    C248     C        0.96947    0.06400    0.13587    1.000
    C249     C        0.01179    0.08470    0.11347    1.000
    H168     H        0.00830    0.11240    0.08850    1.000
    C250     C        0.05813    0.06590    0.12679    1.000
    C251     C        0.06261    0.02550    0.16331    1.000
    H169     H        0.09410    0.01260    0.17330    1.000
    C252     C        0.02080    0.00380    0.18533    1.000
    H170     H        0.02450    0.97510    0.20980    1.000
    O105     O        0.92390    0.08360    0.12155    1.000
    H171     H        0.90230    0.06770    0.13800    1.000
    C253     C        0.10268    0.09090    0.10222    1.000
    O106     O        0.14323    0.09364    0.12132    1.000
    O107     O        0.09515    0.10880    0.06402    1.000
    C254     C        0.97530    0.56720    0.26000    1.000
    C255     C        0.94380    0.62060    0.25010    1.000
    C256     C        0.89840    0.62710    0.27090    1.000
    H172     H        0.87740    0.66450    0.26410    1.000
    C257     C        0.88412    0.57930    0.30120    1.000
    C258     C        0.91500    0.52470    0.31210    1.000
    H173     H        0.90560    0.49200    0.33320    1.000
    C259     C        0.96050    0.51940    0.29100    1.000
    H174     H        0.98170    0.48240    0.29810    1.000
    O108     O        0.95815    0.66460    0.21850    1.000
    H175     H        0.94050    0.70000    0.21900    1.000
    C260     C        0.83436    0.58690    0.32143    1.000
    O109     O        0.81038    0.64167    0.31402    1.000
    O110     O        0.81708    0.53866    0.34317    1.000
    C261     C        0.52700    0.75170    0.25570    1.000
    C262     C        0.55780    0.80670    0.24560    1.000
    C263     C        0.60660    0.80480    0.25660    1.000
    H176     H        0.62640    0.84410    0.25120    1.000
    C264     C        0.62790    0.74690    0.27551    1.000
    C265     C        0.59697    0.69180    0.28530    1.000
    H177     H        0.61010    0.65180    0.29860    1.000
    C266     C        0.54700    0.69480    0.27577    1.000
    H178     H        0.52640    0.65720    0.28320    1.000
    O111     O        0.54000    0.86380    0.22440    1.000
    H179     H        0.52470    0.88880    0.24170    1.000
    C267     C        0.68180    0.74450    0.28497    1.000
    O112     O        0.70282    0.80267    0.28796    1.000
    O113     O        0.70287    0.68869    0.28839    1.000
    O114     O        0.72521    0.47809    0.38504    1.000
    C268     C        0.68730    0.44680    0.39373    1.000
    H180     H        0.67280    0.41990    0.37170    1.000
    N6       N        0.66502    0.44780    0.43157    1.000
    C269     C        0.68490    0.48900    0.46630    1.000
    H181     H        0.65880    0.51730    0.47870    1.000
    H182     H        0.69840    0.45870    0.48840    1.000
    H183     H        0.71080    0.51890    0.45520    1.000
    C270     C        0.61810    0.41040    0.43860    1.000
    H184     H        0.61150    0.38040    0.41390    1.000
    H185     H        0.62060    0.38240    0.46460    1.000
    H186     H        0.59140    0.44360    0.44170    1.000
    Sr19     Sr       0.21153    0.57998    0.67392    1.000
    Sr20     Sr       0.29088    0.73428    0.69869    1.000
    Sr21     Sr       0.22805    0.90045    0.64948    1.000
    C271     C        0.32470    0.75760    0.93481    1.000
    C272     C        0.37160    0.74920    0.91910    1.000
    C273     C        0.38030    0.74450    0.87588    1.000
    H187     H        0.41300    0.73890    0.86610    1.000
    C274     C        0.34310    0.74760    0.84616    1.000
    C275     C        0.29570    0.75350    0.86110    1.000
    H188     H        0.26920    0.75440    0.84140    1.000
    C276     C        0.28660    0.75830    0.90430    1.000
    H189     H        0.25370    0.76210    0.91400    1.000
    O115     O        0.41126    0.74430    0.94587    1.000
    H190     H        0.41470    0.78140    0.95940    1.000
    C277     C        0.35360    0.74220    0.79877    1.000
    O116     O        0.39700    0.73242    0.78739    1.000
    O117     O        0.31834    0.74830    0.77350    1.000
    C278     C        0.31250    0.76480    0.98183    1.000
    C279     C        0.32910    0.72000    0.01323    1.000
    C280     C        0.31270    0.72470    0.05477    1.000
    H191     H        0.32350    0.69230    0.07550    1.000
    C281     C        0.28030    0.77680    0.06669    1.000
    C282     C        0.26500    0.82360    0.03600    1.000
    H192     H        0.24410    0.86040    0.04400    1.000
    C283     C        0.27990    0.81700    0.99430    1.000
    H193     H        0.26790    0.84830    0.97340    1.000
    O118     O        0.36201    0.66990    0.00147    1.000
    H194     H        0.36880    0.64540    0.02290    1.000
    C284     C        0.26030    0.77750    0.11111    1.000
    O119     O        0.25883    0.72236    0.13149    1.000
    O120     O        0.24499    0.83321    0.12714    1.000
    C285     C        0.42991    0.49510    0.80133    1.000
    C286     C        0.41860    0.56300    0.78904    1.000
    C287     C        0.37924    0.57750    0.76278    1.000
    H195     H        0.37340    0.62360    0.75410    1.000
    C288     C        0.34786    0.52540    0.74884    1.000
    C289     C        0.35760    0.45820    0.76182    1.000
    H196     H        0.33620    0.42220    0.75320    1.000
    C290     C        0.39760    0.44330    0.78706    1.000
    H197     H        0.40360    0.39690    0.79510    1.000
    O121     O        0.44862    0.61430    0.80345    1.000
    H198     H        0.43690    0.65260    0.79650    1.000
    C291     C        0.30490    0.54200    0.72114    1.000
    O122     O        0.29504    0.60458    0.71309    1.000
    O123     O        0.27961    0.49299    0.70633    1.000
    C292     C        0.47403    0.47720    0.82733    1.000
    C293     C        0.46947    0.43600    0.86413    1.000
    C294     C        0.51179    0.41530    0.88653    1.000
    H199     H        0.50830    0.38760    0.91150    1.000
    C295     C        0.55813    0.43410    0.87321    1.000
    C296     C        0.56261    0.47450    0.83669    1.000
    H200     H        0.59410    0.48740    0.82670    1.000
    C297     C        0.52080    0.49620    0.81467    1.000
    H201     H        0.52450    0.52490    0.79020    1.000
    O124     O        0.42390    0.41640    0.87845    1.000
    H202     H        0.40230    0.43230    0.86200    1.000
    C298     C        0.60268    0.40910    0.89778    1.000
    O125     O        0.64323    0.40636    0.87868    1.000
    O126     O        0.59515    0.39120    0.93598    1.000
    C299     C        0.47530    0.93280    0.74000    1.000
    C300     C        0.44380    0.87940    0.74990    1.000
    C301     C        0.39840    0.87290    0.72910    1.000
    H203     H        0.37740    0.83550    0.73590    1.000
    C302     C        0.38412    0.92070    0.69880    1.000
    C303     C        0.41500    0.97530    0.68790    1.000
    H204     H        0.40560    0.00800    0.66680    1.000
    C304     C        0.46050    0.98060    0.70900    1.000
    H205     H        0.48170    0.01760    0.70190    1.000
    O127     O        0.45815    0.83540    0.78150    1.000
    H206     H        0.44050    0.80000    0.78100    1.000
    C305     C        0.33436    0.91310    0.67857    1.000
    O128     O        0.31038    0.85833    0.68598    1.000
    O129     O        0.31708    0.96134    0.65683    1.000
    C306     C        0.02700    0.74830    0.74430    1.000
    C307     C        0.05780    0.69330    0.75440    1.000
    C308     C        0.10660    0.69520    0.74340    1.000
    H207     H        0.12640    0.65590    0.74880    1.000
    C309     C        0.12790    0.75310    0.72449    1.000
    C310     C        0.09697    0.80820    0.71470    1.000
    H208     H        0.11010    0.84820    0.70140    1.000
    C311     C        0.04700    0.80520    0.72423    1.000
    H209     H        0.02640    0.84280    0.71680    1.000
    O130     O        0.04000    0.63620    0.77560    1.000
    H210     H        0.02470    0.61120    0.75830    1.000
    C312     C        0.18180    0.75550    0.71503    1.000
    O131     O        0.20282    0.69733    0.71204    1.000
    O132     O        0.20287    0.81131    0.71161    1.000
    O133     O        0.22521    0.02191    0.61496    1.000
    C313     C        0.18730    0.05320    0.60627    1.000
    H211     H        0.17280    0.08010    0.62830    1.000
    N7       N        0.16502    0.05220    0.56843    1.000
    C314     C        0.18490    0.01100    0.53370    1.000
    H212     H        0.15880    0.98270    0.52130    1.000
    H213     H        0.19840    0.04130    0.51160    1.000
    H214     H        0.21080    0.98110    0.54480    1.000
    C315     C        0.11810    0.08960    0.56140    1.000
    H215     H        0.11150    0.11960    0.58610    1.000
    H216     H        0.12060    0.11760    0.53540    1.000
    H217     H        0.09140    0.05640    0.55830    1.000
    Sr22     Sr       0.28847    0.92002    0.17392    1.000
    Sr23     Sr       0.20912    0.76572    0.19869    1.000
    Sr24     Sr       0.27195    0.59955    0.14948    1.000
    C316     C        0.17530    0.74240    0.43481    1.000
    C317     C        0.12840    0.75080    0.41910    1.000
    C318     C        0.11970    0.75550    0.37588    1.000
    H218     H        0.08700    0.76110    0.36610    1.000
    C319     C        0.15690    0.75240    0.34616    1.000
    C320     C        0.20430    0.74650    0.36110    1.000
    H219     H        0.23080    0.74560    0.34140    1.000
    C321     C        0.21340    0.74170    0.40430    1.000
    H220     H        0.24630    0.73790    0.41400    1.000
    O134     O        0.08874    0.75570    0.44587    1.000
    H221     H        0.08530    0.71860    0.45940    1.000
    C322     C        0.14640    0.75780    0.29877    1.000
    O135     O        0.10300    0.76758    0.28739    1.000
    O136     O        0.18166    0.75170    0.27350    1.000
    C323     C        0.18750    0.73520    0.48183    1.000
    C324     C        0.17090    0.78000    0.51323    1.000
    C325     C        0.18730    0.77530    0.55477    1.000
    H222     H        0.17650    0.80770    0.57550    1.000
    C326     C        0.21970    0.72320    0.56669    1.000
    C327     C        0.23500    0.67640    0.53600    1.000
    H223     H        0.25590    0.63960    0.54400    1.000
    C328     C        0.22010    0.68300    0.49430    1.000
    H224     H        0.23210    0.65170    0.47340    1.000
    O137     O        0.13799    0.83010    0.50147    1.000
    H225     H        0.13120    0.85460    0.52290    1.000
    C329     C        0.23970    0.72250    0.61111    1.000
    O138     O        0.24117    0.77764    0.63149    1.000
    O139     O        0.25501    0.66679    0.62714    1.000
    C330     C        0.07009    0.00490    0.30133    1.000
    C331     C        0.08140    0.93700    0.28904    1.000
    C332     C        0.12076    0.92250    0.26278    1.000
    H226     H        0.12660    0.87640    0.25410    1.000
    C333     C        0.15214    0.97460    0.24884    1.000
    C334     C        0.14240    0.04180    0.26182    1.000
    H227     H        0.16380    0.07780    0.25320    1.000
    C335     C        0.10240    0.05670    0.28706    1.000
    H228     H        0.09640    0.10310    0.29510    1.000
    O140     O        0.05138    0.88570    0.30345    1.000
    H229     H        0.06310    0.84740    0.29650    1.000
    C336     C        0.19510    0.95800    0.22114    1.000
    O141     O        0.20496    0.89542    0.21309    1.000
    O142     O        0.22039    0.00701    0.20633    1.000
    C337     C        0.02597    0.02280    0.32733    1.000
    C338     C        0.03053    0.06400    0.36413    1.000
    C339     C        0.98821    0.08470    0.38653    1.000
    H230     H        0.99170    0.11240    0.41150    1.000
    C340     C        0.94187    0.06590    0.37321    1.000
    C341     C        0.93739    0.02550    0.33669    1.000
    H231     H        0.90590    0.01260    0.32670    1.000
    C342     C        0.97920    0.00380    0.31467    1.000
    H232     H        0.97550    0.97510    0.29020    1.000
    O143     O        0.07610    0.08360    0.37845    1.000
    H233     H        0.09770    0.06770    0.36200    1.000
    C343     C        0.89732    0.09090    0.39778    1.000
    O144     O        0.85677    0.09364    0.37868    1.000
    O145     O        0.90485    0.10880    0.43598    1.000
    C344     C        0.02470    0.56720    0.24000    1.000
    C345     C        0.05620    0.62060    0.24990    1.000
    C346     C        0.10160    0.62710    0.22910    1.000
    H234     H        0.12260    0.66450    0.23590    1.000
    C347     C        0.11588    0.57930    0.19880    1.000
    C348     C        0.08500    0.52470    0.18790    1.000
    H235     H        0.09440    0.49200    0.16680    1.000
    C349     C        0.03950    0.51940    0.20900    1.000
    H236     H        0.01830    0.48240    0.20190    1.000
    O146     O        0.04185    0.66460    0.28150    1.000
    H237     H        0.05950    0.70000    0.28100    1.000
    C350     C        0.16564    0.58690    0.17857    1.000
    O147     O        0.18962    0.64167    0.18598    1.000
    O148     O        0.18292    0.53866    0.15683    1.000
    C351     C        0.47300    0.75170    0.24430    1.000
    C352     C        0.44220    0.80670    0.25440    1.000
    C353     C        0.39340    0.80480    0.24340    1.000
    H238     H        0.37360    0.84410    0.24880    1.000
    C354     C        0.37210    0.74690    0.22449    1.000
    C355     C        0.40303    0.69180    0.21470    1.000
    H239     H        0.38990    0.65180    0.20140    1.000
    C356     C        0.45300    0.69480    0.22423    1.000
    H240     H        0.47360    0.65720    0.21680    1.000
    O149     O        0.46000    0.86380    0.27560    1.000
    H241     H        0.47530    0.88880    0.25830    1.000
    C357     C        0.31820    0.74450    0.21503    1.000
    O150     O        0.29718    0.80267    0.21204    1.000
    O151     O        0.29713    0.68869    0.21161    1.000
    O152     O        0.27479    0.47809    0.11496    1.000
    C358     C        0.31270    0.44680    0.10627    1.000
    H242     H        0.32720    0.41990    0.12830    1.000
    N8       N        0.33498    0.44780    0.06843    1.000
    C359     C        0.31510    0.48900    0.03370    1.000
    H243     H        0.34120    0.51730    0.02130    1.000
    H244     H        0.30160    0.45870    0.01160    1.000
    H245     H        0.28920    0.51890    0.04480    1.000
    C360     C        0.38190    0.41040    0.06140    1.000
    H246     H        0.38850    0.38040    0.08610    1.000
    H247     H        0.37940    0.38240    0.03540    1.000
    H248     H        0.40860    0.44360    0.05830    1.000
