# CIF file generated by openbabel 3.1.0, see https://openbabel.org
data_I
_chemical_name_common 'QUDJIJ_clean'
_cell_length_a 9.869
_cell_length_b 11.082
_cell_length_c 19.785
_cell_angle_alpha 90
_cell_angle_beta 90
_cell_angle_gamma 111.059
_space_group_name_H-M_alt 'P 1'
_space_group_name_Hall 'P 1'
loop_
    _symmetry_equiv_pos_as_xyz
    x,y,z
loop_
    _atom_site_label
    _atom_site_type_symbol
    _atom_site_fract_x
    _atom_site_fract_y
    _atom_site_fract_z
    _atom_site_occupancy
    Zn1      Zn       0.33681    0.36681    0.18471    1.000
    Zn2      Zn       0.16319    0.13319    0.68471    1.000
    Zn3      Zn       0.66319    0.63319    0.81529    1.000
    Zn4      Zn       0.83681    0.86681    0.31529    1.000
    H1       H        0.19230    0.53580    0.35410    1.000
    H2       H        0.86460    0.17940    0.46340    1.000
    H3       H        0.16620    0.67910    0.44520    1.000
    H4       H        0.06380    0.12720    0.18250    1.000
    H5       H        0.92130    0.97920    0.10740    1.000
    H6       H        0.21500    0.14010    0.96450    1.000
    H7       H        0.35490    0.27790    0.04480    1.000
    H8       H        0.30770    0.96420    0.85410    1.000
    H9       H        0.63540    0.32060    0.96340    1.000
    H10      H        0.33380    0.82090    0.94520    1.000
    H11      H        0.43620    0.37280    0.68250    1.000
    H12      H        0.57870    0.52080    0.60740    1.000
    H13      H        0.28500    0.35990    0.46450    1.000
    H14      H        0.14510    0.22210    0.54480    1.000
    H15      H        0.80770    0.46420    0.64590    1.000
    H16      H        0.13540    0.82060    0.53660    1.000
    H17      H        0.83380    0.32090    0.55480    1.000
    H18      H        0.93620    0.87280    0.81750    1.000
    H19      H        0.07870    0.02080    0.89260    1.000
    H20      H        0.78500    0.85990    0.03550    1.000
    H21      H        0.64510    0.72210    0.95520    1.000
    H22      H        0.69230    0.03580    0.14590    1.000
    H23      H        0.36460    0.67940    0.03660    1.000
    H24      H        0.66620    0.17910    0.05480    1.000
    H25      H        0.56380    0.62720    0.31750    1.000
    H26      H        0.42130    0.47920    0.39260    1.000
    H27      H        0.71500    0.64010    0.53550    1.000
    H28      H        0.85490    0.77790    0.45520    1.000
    C1       C        0.17770    0.33550    0.28702    1.000
    C2       C        0.09580    0.34530    0.34945    1.000
    C3       C        0.12740    0.46480    0.37658    1.000
    C4       C        0.06430    0.48520    0.43854    1.000
    C5       C        0.96320    0.37560    0.47201    1.000
    C6       C        0.93040    0.25140    0.44199    1.000
    C7       C        0.99250    0.23490    0.38302    1.000
    C8       C        0.10000    0.60780    0.46692    1.000
    C9       C        0.94520    0.10360    0.35104    1.000
    C10      C        0.09530    0.12950    0.13803    1.000
    C11      C        0.00780    0.04140    0.09267    1.000
    C12      C        0.04720    0.04450    0.02567    1.000
    C13      C        0.18130    0.13520    0.00863    1.000
    C14      C        0.26480    0.21840    0.05734    1.000
    C15      C        0.32230    0.16450    0.78702    1.000
    C16      C        0.40420    0.15470    0.84945    1.000
    C17      C        0.37260    0.03520    0.87658    1.000
    C18      C        0.43570    0.01480    0.93854    1.000
    C19      C        0.53680    0.12440    0.97201    1.000
    C20      C        0.56960    0.24860    0.94199    1.000
    C21      C        0.50750    0.26510    0.88302    1.000
    C22      C        0.40000    0.89220    0.96692    1.000
    C23      C        0.55480    0.39640    0.85104    1.000
    C24      C        0.40470    0.37050    0.63803    1.000
    C25      C        0.49220    0.45860    0.59267    1.000
    C26      C        0.45280    0.45550    0.52567    1.000
    C27      C        0.31870    0.36480    0.50863    1.000
    C28      C        0.23520    0.28160    0.55734    1.000
    C29      C        0.82230    0.66450    0.71298    1.000
    C30      C        0.90420    0.65470    0.65055    1.000
    C31      C        0.87260    0.53520    0.62342    1.000
    C32      C        0.93570    0.51480    0.56146    1.000
    C33      C        0.03680    0.62440    0.52799    1.000
    C34      C        0.06960    0.74860    0.55801    1.000
    C35      C        0.00750    0.76510    0.61698    1.000
    C36      C        0.90000    0.39220    0.53308    1.000
    C37      C        0.05480    0.89640    0.64896    1.000
    C38      C        0.90470    0.87050    0.86197    1.000
    C39      C        0.99220    0.95860    0.90733    1.000
    C40      C        0.95280    0.95550    0.97433    1.000
    C41      C        0.81870    0.86480    0.99137    1.000
    C42      C        0.73520    0.78160    0.94266    1.000
    C43      C        0.67770    0.83550    0.21298    1.000
    C44      C        0.59580    0.84530    0.15055    1.000
    C45      C        0.62740    0.96480    0.12342    1.000
    C46      C        0.56430    0.98520    0.06146    1.000
    C47      C        0.46320    0.87560    0.02799    1.000
    C48      C        0.43040    0.75140    0.05801    1.000
    C49      C        0.49250    0.73490    0.11698    1.000
    C50      C        0.60000    0.10780    0.03308    1.000
    C51      C        0.44520    0.60360    0.14896    1.000
    C52      C        0.59530    0.62950    0.36197    1.000
    C53      C        0.50780    0.54140    0.40733    1.000
    C54      C        0.54720    0.54450    0.47433    1.000
    C55      C        0.68130    0.63520    0.49137    1.000
    C56      C        0.76480    0.71840    0.44266    1.000
    N1       N        0.22240    0.21740    0.12125    1.000
    N2       N        0.27760    0.28260    0.62125    1.000
    N3       N        0.77760    0.78260    0.87875    1.000
    N4       N        0.72240    0.71740    0.37875    1.000
    O1       O        0.15740    0.38950    0.23380    1.000
    O2       O        0.27080    0.28430    0.29069    1.000
    O3       O        0.95960    0.09360    0.28896    1.000
    O4       O        0.88590    0.00570    0.38875    1.000
    O5       O        0.34260    0.11050    0.73380    1.000
    O6       O        0.22920    0.21570    0.79069    1.000
    O7       O        0.54040    0.40640    0.78896    1.000
    O8       O        0.61410    0.49430    0.88875    1.000
    O9       O        0.84260    0.61050    0.76620    1.000
    O10      O        0.72920    0.71570    0.70931    1.000
    O11      O        0.04040    0.90640    0.71104    1.000
    O12      O        0.11410    0.99430    0.61125    1.000
    O13      O        0.65740    0.88950    0.26620    1.000
    O14      O        0.77080    0.78430    0.20931    1.000
    O15      O        0.45960    0.59360    0.21104    1.000
    O16      O        0.38590    0.50570    0.11125    1.000
