# CIF file generated by openbabel 3.1.0, see https://openbabel.org
data_I
_chemical_name_common 'MEJQEZ_clean'
_cell_length_a 8.7992
_cell_length_b 10.2696
_cell_length_c 18.6244
_cell_angle_alpha 90
_cell_angle_beta 90
_cell_angle_gamma 90
_space_group_name_H-M_alt 'P 1'
_space_group_name_Hall 'P 1'
loop_
    _symmetry_equiv_pos_as_xyz
    x,y,z
loop_
    _atom_site_label
    _atom_site_type_symbol
    _atom_site_fract_x
    _atom_site_fract_y
    _atom_site_fract_z
    _atom_site_occupancy
    Zn1      Zn       0.13311    0.02643    0.59917    1.000
    Zn2      Zn       0.63311    0.97357    0.40083    1.000
    Zn3      Zn       0.13311    0.47357    0.09917    1.000
    Zn4      Zn       0.63311    0.52643    0.90083    1.000
    H1       H        0.83280    0.96290    0.52800    1.000
    H2       H        0.23590    0.37100    0.38790    1.000
    H3       H        0.82510    0.29650    0.26620    1.000
    H4       H        0.73770    0.19520    0.30590    1.000
    H5       H        0.95760    0.68910    0.70760    1.000
    H6       H        0.84640    0.54250    0.78460    1.000
    H7       H        0.60720    0.81850    0.87490    1.000
    H8       H        0.70810    0.97050    0.79830    1.000
    H9       H        0.33280    0.03710    0.47200    1.000
    H10      H        0.73590    0.62900    0.61210    1.000
    H11      H        0.32510    0.70350    0.73380    1.000
    H12      H        0.23770    0.80480    0.69410    1.000
    H13      H        0.45760    0.31090    0.29240    1.000
    H14      H        0.34640    0.45750    0.21540    1.000
    H15      H        0.10720    0.18150    0.12510    1.000
    H16      H        0.20810    0.02950    0.20170    1.000
    H17      H        0.83280    0.53710    0.02800    1.000
    H18      H        0.23590    0.12900    0.88790    1.000
    H19      H        0.82510    0.20350    0.76620    1.000
    H20      H        0.73770    0.30480    0.80590    1.000
    H21      H        0.95760    0.81090    0.20760    1.000
    H22      H        0.84640    0.95750    0.28460    1.000
    H23      H        0.60720    0.68150    0.37490    1.000
    H24      H        0.70810    0.52950    0.29830    1.000
    H25      H        0.33280    0.46290    0.97200    1.000
    H26      H        0.73590    0.87100    0.11210    1.000
    H27      H        0.32510    0.79650    0.23380    1.000
    H28      H        0.23770    0.69520    0.19410    1.000
    H29      H        0.45760    0.18910    0.79240    1.000
    H30      H        0.34640    0.04250    0.71540    1.000
    H31      H        0.10720    0.31850    0.62510    1.000
    H32      H        0.20810    0.47050    0.70170    1.000
    C1       C        0.87810    0.02640    0.49950    1.000
    C2       C        0.15320    0.31660    0.39607    1.000
    C3       C        0.92340    0.24240    0.35322    1.000
    C4       C        0.91900    0.16010    0.41368    1.000
    C5       C        0.03800    0.16740    0.46219    1.000
    C6       C        0.91340    0.94420    0.69311    1.000
    C7       C        0.88610    0.71710    0.74094    1.000
    C8       C        0.84480    0.84700    0.74438    1.000
    C9       C        0.81990    0.63000    0.78766    1.000
    C10      C        0.67820    0.79270    0.84070    1.000
    C11      C        0.73850    0.88390    0.79510    1.000
    C12      C        0.37810    0.97360    0.50050    1.000
    C13      C        0.65320    0.68340    0.60393    1.000
    C14      C        0.42340    0.75760    0.64678    1.000
    C15      C        0.41900    0.83990    0.58632    1.000
    C16      C        0.53800    0.83260    0.53781    1.000
    C17      C        0.41340    0.05580    0.30689    1.000
    C18      C        0.38610    0.28290    0.25906    1.000
    C19      C        0.34480    0.15300    0.25562    1.000
    C20      C        0.31990    0.37000    0.21234    1.000
    C21      C        0.17820    0.20730    0.15930    1.000
    C22      C        0.23850    0.11610    0.20490    1.000
    C23      C        0.87810    0.47360    0.99950    1.000
    C24      C        0.15320    0.18340    0.89607    1.000
    C25      C        0.92340    0.25760    0.85322    1.000
    C26      C        0.91900    0.33990    0.91368    1.000
    C27      C        0.03800    0.33260    0.96219    1.000
    C28      C        0.91340    0.55580    0.19311    1.000
    C29      C        0.88610    0.78290    0.24094    1.000
    C30      C        0.84480    0.65300    0.24438    1.000
    C31      C        0.81990    0.87000    0.28766    1.000
    C32      C        0.67820    0.70730    0.34070    1.000
    C33      C        0.73850    0.61610    0.29510    1.000
    C34      C        0.37810    0.52640    0.00050    1.000
    C35      C        0.65320    0.81660    0.10393    1.000
    C36      C        0.42340    0.74240    0.14678    1.000
    C37      C        0.41900    0.66010    0.08632    1.000
    C38      C        0.53800    0.66740    0.03781    1.000
    C39      C        0.41340    0.44420    0.80689    1.000
    C40      C        0.38610    0.21710    0.75906    1.000
    C41      C        0.34480    0.34700    0.75562    1.000
    C42      C        0.31990    0.13000    0.71234    1.000
    C43      C        0.17820    0.29270    0.65930    1.000
    C44      C        0.23850    0.38390    0.70490    1.000
    N1       N        0.01020    0.08180    0.51705    1.000
    N2       N        0.16070    0.24530    0.45575    1.000
    N3       N        0.81550    0.06800    0.43857    1.000
    N4       N        0.04440    0.32130    0.34628    1.000
    N5       N        0.81590    0.24500    0.30240    1.000
    N6       N        0.71940    0.66650    0.83703    1.000
    N7       N        0.51020    0.91820    0.48295    1.000
    N8       N        0.66070    0.75470    0.54425    1.000
    N9       N        0.31550    0.93200    0.56143    1.000
    N10      N        0.54440    0.67870    0.65372    1.000
    N11      N        0.31590    0.75500    0.69760    1.000
    N12      N        0.21940    0.33350    0.16297    1.000
    N13      N        0.01020    0.41820    0.01705    1.000
    N14      N        0.16070    0.25470    0.95575    1.000
    N15      N        0.81550    0.43200    0.93857    1.000
    N16      N        0.04440    0.17870    0.84628    1.000
    N17      N        0.81590    0.25500    0.80240    1.000
    N18      N        0.71940    0.83350    0.33703    1.000
    N19      N        0.51020    0.58180    0.98295    1.000
    N20      N        0.66070    0.74530    0.04425    1.000
    N21      N        0.31550    0.56800    0.06143    1.000
    N22      N        0.54440    0.82130    0.15372    1.000
    N23      N        0.31590    0.74500    0.19760    1.000
    N24      N        0.21940    0.16650    0.66297    1.000
    O1       O        0.03270    0.90190    0.66077    1.000
    O2       O        0.85700    0.05140    0.68506    1.000
    O3       O        0.53270    0.09810    0.33923    1.000
    O4       O        0.35700    0.94860    0.31494    1.000
    O5       O        0.03270    0.59810    0.16077    1.000
    O6       O        0.85700    0.44860    0.18506    1.000
    O7       O        0.53270    0.40190    0.83923    1.000
    O8       O        0.35700    0.55140    0.81494    1.000
