data_functionalizedCrystal
_audit_creation_method	'EQeq! by Chris Wilmer'
_symmetry_space_group_name_H-M	'P1'
_symmetry_Int_Tables_number	1
_symmetry_cell_setting	triclinic
loop_
_symmetry_equiv_pos_as_xyz
  x,y,z
_cell_length_a	27.3489
_cell_length_b	27.3489
_cell_length_c	27.3489
_cell_angle_alpha	90
_cell_angle_beta	90
_cell_angle_gamma	90
loop_
_atom_site_label
_atom_site_type_symbol
_atom_site_fract_x
_atom_site_fract_y
_atom_site_fract_z
_atom_site_charge
Mof_C 	C 	0.13943	0.07463	0.42297	0.403
Mof_C 	C 	0.15528	0.10173	0.37852	-0.156
Mof_C 	C 	0.12045	0.12787	0.35166	0.067
Mof_H 	H 	0.0883	0.1299	0.3624	0.012
Mof_C 	C 	0.13446	0.15015	0.30972	-0.143
Mof_H 	H 	0.1105	0.1616	0.2885	0.071
Mof_C 	C 	0.18361	0.1566	0.29717	0.069
Mof_C 	C 	0.2168	0.13386	0.32555	-0.148
Mof_H 	H 	0.2497	0.1367	0.3175	0.082
Mof_C 	C 	0.20421	0.10652	0.36618	0.074
Mof_H 	H 	0.2283	0.0915	0.385	0.012
Mof_C 	C 	0.19681	0.18528	0.25288	0.019
Mof_C 	C 	0.17065	0.22618	0.2382	-0.091
Mof_H 	H 	0.1433	0.236	0.2558	0.059
Mof_O 	O 	0.17176	0.05248	0.44624	-0.503
Mof_O 	O 	0.09659	0.07431	0.43735	-0.298
Mof_C 	C 	0.86057	0.92537	0.42297	0.394
Mof_C 	C 	0.84472	0.89827	0.37852	-0.124
Mof_C 	C 	0.87955	0.87213	0.35166	0.058
Mof_H 	H 	0.9117	0.8701	0.3624	0.039
Mof_C 	C 	0.86554	0.84985	0.30972	-0.121
Mof_H 	H 	0.8895	0.8384	0.2885	0.084
Mof_C 	C 	0.81639	0.8434	0.29717	0.061
Mof_C 	C 	0.7832	0.86614	0.32555	-0.127
Mof_H 	H 	0.7503	0.8633	0.3175	0.08
Mof_C 	C 	0.79579	0.89348	0.36618	0.061
Mof_H 	H 	0.7717	0.9085	0.385	0.029
Mof_C 	C 	0.80319	0.81472	0.25288	0.035
Mof_C 	C 	0.82935	0.77382	0.2382	-0.099
Mof_H 	H 	0.8567	0.764	0.2558	0.069
Mof_O 	O 	0.82824	0.94752	0.44624	-0.465
Mof_O 	O 	0.90341	0.92569	0.43735	-0.253
Mof_C 	C 	0.86057	0.07463	0.57703	0.399
Mof_C 	C 	0.84472	0.10173	0.62148	-0.143
Mof_C 	C 	0.87955	0.12787	0.64834	0.065
Mof_H 	H 	0.9117	0.1299	0.6376	0.031
Mof_C 	C 	0.86554	0.15015	0.69028	-0.133
Mof_H 	H 	0.8895	0.1616	0.7115	0.084
Mof_C 	C 	0.81639	0.1566	0.70283	0.066
Mof_C 	C 	0.7832	0.13386	0.67445	-0.14
Mof_H 	H 	0.7503	0.1367	0.6825	0.08
Mof_C 	C 	0.79579	0.10652	0.63382	0.069
Mof_H 	H 	0.7717	0.0915	0.615	0.015
Mof_C 	C 	0.80319	0.18528	0.74712	0.031
Mof_C 	C 	0.82935	0.22618	0.7618	-0.098
Mof_H 	H 	0.8567	0.236	0.7442	0.069
Mof_O 	O 	0.82824	0.05248	0.55376	-0.498
Mof_O 	O 	0.90341	0.07431	0.56265	-0.276
Mof_C 	C 	0.13943	0.92537	0.57703	0.398
Mof_C 	C 	0.15528	0.89827	0.62148	-0.134
Mof_C 	C 	0.12045	0.87213	0.64834	0.062
Mof_H 	H 	0.0883	0.8701	0.6376	0.023
Mof_C 	C 	0.13446	0.84985	0.69028	-0.128
Mof_H 	H 	0.1105	0.8384	0.7115	0.076
Mof_C 	C 	0.18361	0.8434	0.70283	0.063
Mof_C 	C 	0.2168	0.86614	0.67445	-0.132
Mof_H 	H 	0.2497	0.8633	0.6825	0.082
Mof_C 	C 	0.20421	0.89348	0.63382	0.067
Mof_H 	H 	0.2283	0.9085	0.615	0.027
Mof_C 	C 	0.19681	0.81472	0.74712	0.033
Mof_C 	C 	0.17065	0.77382	0.7618	-0.097
Mof_H 	H 	0.1433	0.764	0.7442	0.064
Mof_O 	O 	0.17176	0.94752	0.55376	-0.469
Mof_O 	O 	0.09659	0.92569	0.56265	-0.274
Mof_C 	C 	0.42297	0.13943	0.07463	0.404
Mof_C 	C 	0.37852	0.15528	0.10173	-0.155
Mof_C 	C 	0.35166	0.12045	0.12787	0.068
Mof_H 	H 	0.3624	0.0883	0.1299	0.013
Mof_C 	C 	0.30972	0.13446	0.15015	-0.142
Mof_H 	H 	0.2885	0.1105	0.1616	0.072
Mof_C 	C 	0.29717	0.18361	0.1566	0.069
Mof_C 	C 	0.32555	0.2168	0.13386	-0.148
Mof_H 	H 	0.3175	0.2497	0.1367	0.082
Mof_C 	C 	0.36618	0.20421	0.10652	0.074
Mof_H 	H 	0.385	0.2283	0.0915	0.012
Mof_C 	C 	0.25288	0.19681	0.18528	0.019
Mof_C 	C 	0.2382	0.17065	0.22618	-0.091
Mof_H 	H 	0.2558	0.1433	0.236	0.059
Mof_O 	O 	0.44624	0.17176	0.05248	-0.503
Mof_O 	O 	0.43735	0.09659	0.07431	-0.298
Mof_C 	C 	0.42297	0.86057	0.92537	0.394
Mof_C 	C 	0.37852	0.84472	0.89827	-0.124
Mof_C 	C 	0.35166	0.87955	0.87213	0.058
Mof_H 	H 	0.3624	0.9117	0.8701	0.039
Mof_C 	C 	0.30972	0.86554	0.84985	-0.121
Mof_H 	H 	0.2885	0.8895	0.8384	0.084
Mof_C 	C 	0.29717	0.81639	0.8434	0.061
Mof_C 	C 	0.32555	0.7832	0.86614	-0.127
Mof_H 	H 	0.3175	0.7503	0.8633	0.08
Mof_C 	C 	0.36618	0.79579	0.89348	0.061
Mof_H 	H 	0.385	0.7717	0.9085	0.029
Mof_C 	C 	0.25288	0.80319	0.81472	0.035
Mof_C 	C 	0.2382	0.82935	0.77382	-0.099
Mof_H 	H 	0.2558	0.8567	0.764	0.069
Mof_O 	O 	0.44624	0.82824	0.94752	-0.465
Mof_O 	O 	0.43735	0.90341	0.92569	-0.253
Mof_C 	C 	0.57703	0.86057	0.07463	0.399
Mof_C 	C 	0.62148	0.84472	0.10173	-0.143
Mof_C 	C 	0.64834	0.87955	0.12787	0.065
Mof_H 	H 	0.6376	0.9117	0.1299	0.031
Mof_C 	C 	0.69028	0.86554	0.15015	-0.133
Mof_H 	H 	0.7115	0.8895	0.1616	0.084
Mof_C 	C 	0.70283	0.81639	0.1566	0.066
Mof_C 	C 	0.67445	0.7832	0.13386	-0.14
Mof_H 	H 	0.6825	0.7503	0.1367	0.08
Mof_C 	C 	0.63382	0.79579	0.10652	0.069
Mof_H 	H 	0.615	0.7717	0.0915	0.015
Mof_C 	C 	0.74712	0.80319	0.18528	0.031
Mof_C 	C 	0.7618	0.82935	0.22618	-0.098
Mof_H 	H 	0.7442	0.8567	0.236	0.069
Mof_O 	O 	0.55376	0.82824	0.05248	-0.498
Mof_O 	O 	0.56265	0.90341	0.07431	-0.276
Mof_C 	C 	0.57703	0.13943	0.92537	0.398
Mof_C 	C 	0.62148	0.15528	0.89827	-0.134
Mof_C 	C 	0.64834	0.12045	0.87213	0.062
Mof_H 	H 	0.6376	0.0883	0.8701	0.023
Mof_C 	C 	0.69028	0.13446	0.84985	-0.128
Mof_H 	H 	0.7115	0.1105	0.8384	0.076
Mof_C 	C 	0.70283	0.18361	0.8434	0.063
Mof_C 	C 	0.67445	0.2168	0.86614	-0.132
Mof_H 	H 	0.6825	0.2497	0.8633	0.082
Mof_C 	C 	0.63382	0.20421	0.89348	0.067
Mof_H 	H 	0.615	0.2283	0.9085	0.027
Mof_C 	C 	0.74712	0.19681	0.81472	0.033
Mof_C 	C 	0.7618	0.17065	0.77382	-0.097
Mof_H 	H 	0.7442	0.1433	0.764	0.064
Mof_O 	O 	0.55376	0.17176	0.94752	-0.469
Mof_O 	O 	0.56265	0.09659	0.92569	-0.274
Mof_C 	C 	0.07463	0.42297	0.13943	0.404
Mof_C 	C 	0.10173	0.37852	0.15528	-0.155
Mof_C 	C 	0.12787	0.35166	0.12045	0.068
Mof_H 	H 	0.1299	0.3624	0.0883	0.013
Mof_C 	C 	0.15015	0.30972	0.13446	-0.142
Mof_H 	H 	0.1616	0.2885	0.1105	0.072
Mof_C 	C 	0.1566	0.29717	0.18361	0.069
Mof_C 	C 	0.13386	0.32555	0.2168	-0.148
Mof_H 	H 	0.1367	0.3175	0.2497	0.082
Mof_C 	C 	0.10652	0.36618	0.20421	0.074
Mof_H 	H 	0.0915	0.385	0.2283	0.012
Mof_C 	C 	0.18528	0.25288	0.19681	0.019
Mof_C 	C 	0.22618	0.2382	0.17065	-0.091
Mof_H 	H 	0.236	0.2558	0.1433	0.059
Mof_O 	O 	0.05248	0.44624	0.17176	-0.503
Mof_O 	O 	0.07431	0.43735	0.09659	-0.298
Mof_C 	C 	0.92537	0.42297	0.86057	0.394
Mof_C 	C 	0.89827	0.37852	0.84472	-0.124
Mof_C 	C 	0.87213	0.35166	0.87955	0.058
Mof_H 	H 	0.8701	0.3624	0.9117	0.039
Mof_C 	C 	0.84985	0.30972	0.86554	-0.121
Mof_H 	H 	0.8384	0.2885	0.8895	0.084
Mof_C 	C 	0.8434	0.29717	0.81639	0.061
Mof_C 	C 	0.86614	0.32555	0.7832	-0.127
Mof_H 	H 	0.8633	0.3175	0.7503	0.08
Mof_C 	C 	0.89348	0.36618	0.79579	0.061
Mof_H 	H 	0.9085	0.385	0.7717	0.029
Mof_C 	C 	0.81472	0.25288	0.80319	0.035
Mof_C 	C 	0.77382	0.2382	0.82935	-0.099
Mof_H 	H 	0.764	0.2558	0.8567	0.069
Mof_O 	O 	0.94752	0.44624	0.82824	-0.465
Mof_O 	O 	0.92569	0.43735	0.90341	-0.253
Mof_C 	C 	0.07463	0.57703	0.86057	0.399
Mof_C 	C 	0.10173	0.62148	0.84472	-0.143
Mof_C 	C 	0.12787	0.64834	0.87955	0.065
Mof_H 	H 	0.1299	0.6376	0.9117	0.031
Mof_C 	C 	0.15015	0.69028	0.86554	-0.133
Mof_H 	H 	0.1616	0.7115	0.8895	0.084
Mof_C 	C 	0.1566	0.70283	0.81639	0.066
Mof_C 	C 	0.13386	0.67445	0.7832	-0.14
Mof_H 	H 	0.1367	0.6825	0.7503	0.08
Mof_C 	C 	0.10652	0.63382	0.79579	0.069
Mof_H 	H 	0.0915	0.615	0.7717	0.015
Mof_C 	C 	0.18528	0.74712	0.80319	0.031
Mof_C 	C 	0.22618	0.7618	0.82935	-0.098
Mof_H 	H 	0.236	0.7442	0.8567	0.069
Mof_O 	O 	0.05248	0.55376	0.82824	-0.498
Mof_O 	O 	0.07431	0.56265	0.90341	-0.276
Mof_C 	C 	0.92537	0.57703	0.13943	0.398
Mof_C 	C 	0.89827	0.62148	0.15528	-0.134
Mof_C 	C 	0.87213	0.64834	0.12045	0.062
Mof_H 	H 	0.8701	0.6376	0.0883	0.023
Mof_C 	C 	0.84985	0.69028	0.13446	-0.128
Mof_H 	H 	0.8384	0.7115	0.1105	0.076
Mof_C 	C 	0.8434	0.70283	0.18361	0.063
Mof_C 	C 	0.86614	0.67445	0.2168	-0.132
Mof_H 	H 	0.8633	0.6825	0.2497	0.082
Mof_C 	C 	0.89348	0.63382	0.20421	0.067
Mof_H 	H 	0.9085	0.615	0.2283	0.027
Mof_C 	C 	0.81472	0.74712	0.19681	0.033
Mof_C 	C 	0.77382	0.7618	0.17065	-0.097
Mof_H 	H 	0.764	0.7442	0.1433	0.064
Mof_O 	O 	0.94752	0.55376	0.17176	-0.469
Mof_O 	O 	0.92569	0.56265	0.09659	-0.274
Mof_C 	C 	0.86057	0.92537	0.57703	0.394
Mof_C 	C 	0.84472	0.89827	0.62148	-0.123
Mof_C 	C 	0.87955	0.87213	0.64834	0.058
Mof_H 	H 	0.9117	0.8701	0.6376	0.04
Mof_C 	C 	0.86554	0.84985	0.69028	-0.12
Mof_H 	H 	0.8895	0.8384	0.7115	0.086
Mof_C 	C 	0.81639	0.8434	0.70283	0.061
Mof_C 	C 	0.7832	0.86614	0.67445	-0.125
Mof_H 	H 	0.7503	0.8633	0.6825	0.08
Mof_C 	C 	0.79579	0.89348	0.63382	0.061
Mof_H 	H 	0.7717	0.9085	0.615	0.029
Mof_C 	C 	0.80319	0.81472	0.74712	0.04
Mof_C 	C 	0.82935	0.77382	0.7618	-0.101
Mof_H 	H 	0.8567	0.764	0.7442	0.072
Mof_O 	O 	0.82824	0.94752	0.55376	-0.465
Mof_O 	O 	0.90341	0.92569	0.56265	-0.252
Mof_C 	C 	0.13943	0.07463	0.57703	0.404
Mof_C 	C 	0.15528	0.10173	0.62148	-0.154
Mof_C 	C 	0.12045	0.12787	0.64834	0.069
Mof_H 	H 	0.0883	0.1299	0.6376	0.014
Mof_C 	C 	0.13446	0.15015	0.69028	-0.141
Mof_H 	H 	0.1105	0.1616	0.7115	0.074
Mof_C 	C 	0.18361	0.1566	0.70283	0.069
Mof_C 	C 	0.2168	0.13386	0.67445	-0.146
Mof_H 	H 	0.2497	0.1367	0.6825	0.081
Mof_C 	C 	0.20421	0.10652	0.63382	0.074
Mof_H 	H 	0.2283	0.0915	0.615	0.012
Mof_C 	C 	0.19681	0.18528	0.74712	0.024
Mof_C 	C 	0.17065	0.22618	0.7618	-0.094
Mof_H 	H 	0.1433	0.236	0.7442	0.061
Mof_O 	O 	0.17176	0.05248	0.55376	-0.502
Mof_O 	O 	0.09659	0.07431	0.56265	-0.297
Mof_C 	C 	0.13943	0.92537	0.42297	0.398
Mof_C 	C 	0.15528	0.89827	0.37852	-0.135
Mof_C 	C 	0.12045	0.87213	0.35166	0.061
Mof_H 	H 	0.0883	0.8701	0.3624	0.022
Mof_C 	C 	0.13446	0.84985	0.30972	-0.129
Mof_H 	H 	0.1105	0.8384	0.2885	0.074
Mof_C 	C 	0.18361	0.8434	0.29717	0.064
Mof_C 	C 	0.2168	0.86614	0.32555	-0.133
Mof_H 	H 	0.2497	0.8633	0.3175	0.082
Mof_C 	C 	0.20421	0.89348	0.36618	0.067
Mof_H 	H 	0.2283	0.9085	0.385	0.027
Mof_C 	C 	0.19681	0.81472	0.25288	0.028
Mof_C 	C 	0.17065	0.77382	0.2382	-0.095
Mof_H 	H 	0.1433	0.764	0.2558	0.061
Mof_O 	O 	0.17176	0.94752	0.44624	-0.469
Mof_O 	O 	0.09659	0.92569	0.43735	-0.274
Mof_C 	C 	0.86057	0.07463	0.42297	0.399
Mof_C 	C 	0.84472	0.10173	0.37852	-0.144
Mof_C 	C 	0.87955	0.12787	0.35166	0.064
Mof_H 	H 	0.9117	0.1299	0.3624	0.03
Mof_C 	C 	0.86554	0.15015	0.30972	-0.134
Mof_H 	H 	0.8895	0.1616	0.2885	0.082
Mof_C 	C 	0.81639	0.1566	0.29717	0.066
Mof_C 	C 	0.7832	0.13386	0.32555	-0.141
Mof_H 	H 	0.7503	0.1367	0.3175	0.08
Mof_C 	C 	0.79579	0.10652	0.36618	0.069
Mof_H 	H 	0.7717	0.0915	0.385	0.015
Mof_C 	C 	0.80319	0.18528	0.25288	0.026
Mof_C 	C 	0.82935	0.22618	0.2382	-0.096
Mof_H 	H 	0.8567	0.236	0.2558	0.067
Mof_O 	O 	0.82824	0.05248	0.44624	-0.499
Mof_O 	O 	0.90341	0.07431	0.43735	-0.276
Mof_C 	C 	0.57703	0.86057	0.92537	0.394
Mof_C 	C 	0.62148	0.84472	0.89827	-0.123
Mof_C 	C 	0.64834	0.87955	0.87213	0.058
Mof_H 	H 	0.6376	0.9117	0.8701	0.04
Mof_C 	C 	0.69028	0.86554	0.84985	-0.12
Mof_H 	H 	0.7115	0.8895	0.8384	0.086
Mof_C 	C 	0.70283	0.81639	0.8434	0.061
Mof_C 	C 	0.67445	0.7832	0.86614	-0.125
Mof_H 	H 	0.6825	0.7503	0.8633	0.08
Mof_C 	C 	0.63382	0.79579	0.89348	0.061
Mof_H 	H 	0.615	0.7717	0.9085	0.029
Mof_C 	C 	0.74712	0.80319	0.81472	0.04
Mof_C 	C 	0.7618	0.82935	0.77382	-0.101
Mof_H 	H 	0.7442	0.8567	0.764	0.072
Mof_O 	O 	0.55376	0.82824	0.94752	-0.465
Mof_O 	O 	0.56265	0.90341	0.92569	-0.252
Mof_C 	C 	0.57703	0.13943	0.07463	0.404
Mof_C 	C 	0.62148	0.15528	0.10173	-0.154
Mof_C 	C 	0.64834	0.12045	0.12787	0.069
Mof_H 	H 	0.6376	0.0883	0.1299	0.014
Mof_C 	C 	0.69028	0.13446	0.15015	-0.141
Mof_H 	H 	0.7115	0.1105	0.1616	0.074
Mof_C 	C 	0.70283	0.18361	0.1566	0.069
Mof_C 	C 	0.67445	0.2168	0.13386	-0.146
Mof_H 	H 	0.6825	0.2497	0.1367	0.081
Mof_C 	C 	0.63382	0.20421	0.10652	0.074
Mof_H 	H 	0.615	0.2283	0.0915	0.012
Mof_C 	C 	0.74712	0.19681	0.18528	0.024
Mof_C 	C 	0.7618	0.17065	0.22618	-0.094
Mof_H 	H 	0.7442	0.1433	0.236	0.061
Mof_O 	O 	0.55376	0.17176	0.05248	-0.502
Mof_O 	O 	0.56265	0.09659	0.07431	-0.297
Mof_C 	C 	0.42297	0.13943	0.92537	0.398
Mof_C 	C 	0.37852	0.15528	0.89827	-0.135
Mof_C 	C 	0.35166	0.12045	0.87213	0.061
Mof_H 	H 	0.3624	0.0883	0.8701	0.022
Mof_C 	C 	0.30972	0.13446	0.84985	-0.129
Mof_H 	H 	0.2885	0.1105	0.8384	0.074
Mof_C 	C 	0.29717	0.18361	0.8434	0.064
Mof_C 	C 	0.32555	0.2168	0.86614	-0.133
Mof_H 	H 	0.3175	0.2497	0.8633	0.082
Mof_C 	C 	0.36618	0.20421	0.89348	0.067
Mof_H 	H 	0.385	0.2283	0.9085	0.027
Mof_C 	C 	0.25288	0.19681	0.81472	0.028
Mof_C 	C 	0.2382	0.17065	0.77382	-0.095
Mof_H 	H 	0.2558	0.1433	0.764	0.061
Mof_O 	O 	0.44624	0.17176	0.94752	-0.469
Mof_O 	O 	0.43735	0.09659	0.92569	-0.274
Mof_C 	C 	0.42297	0.86057	0.07463	0.399
Mof_C 	C 	0.37852	0.84472	0.10173	-0.144
Mof_C 	C 	0.35166	0.87955	0.12787	0.064
Mof_H 	H 	0.3624	0.9117	0.1299	0.03
Mof_C 	C 	0.30972	0.86554	0.15015	-0.134
Mof_H 	H 	0.2885	0.8895	0.1616	0.082
Mof_C 	C 	0.29717	0.81639	0.1566	0.066
Mof_C 	C 	0.32555	0.7832	0.13386	-0.141
Mof_H 	H 	0.3175	0.7503	0.1367	0.08
Mof_C 	C 	0.36618	0.79579	0.10652	0.069
Mof_H 	H 	0.385	0.7717	0.0915	0.015
Mof_C 	C 	0.25288	0.80319	0.18528	0.026
Mof_C 	C 	0.2382	0.82935	0.22618	-0.096
Mof_H 	H 	0.2558	0.8567	0.236	0.067
Mof_O 	O 	0.44624	0.82824	0.05248	-0.499
Mof_O 	O 	0.43735	0.90341	0.07431	-0.276
Mof_C 	C 	0.92537	0.57703	0.86057	0.394
Mof_C 	C 	0.89827	0.62148	0.84472	-0.123
Mof_C 	C 	0.87213	0.64834	0.87955	0.058
Mof_H 	H 	0.8701	0.6376	0.9117	0.04
Mof_C 	C 	0.84985	0.69028	0.86554	-0.12
Mof_H 	H 	0.8384	0.7115	0.8895	0.086
Mof_C 	C 	0.8434	0.70283	0.81639	0.061
Mof_C 	C 	0.86614	0.67445	0.7832	-0.125
Mof_H 	H 	0.8633	0.6825	0.7503	0.08
Mof_C 	C 	0.89348	0.63382	0.79579	0.061
Mof_H 	H 	0.9085	0.615	0.7717	0.029
Mof_C 	C 	0.81472	0.74712	0.80319	0.04
Mof_C 	C 	0.77382	0.7618	0.82935	-0.101
Mof_H 	H 	0.764	0.7442	0.8567	0.072
Mof_O 	O 	0.94752	0.55376	0.82824	-0.465
Mof_O 	O 	0.92569	0.56265	0.90341	-0.252
Mof_C 	C 	0.07463	0.57703	0.13943	0.404
Mof_C 	C 	0.10173	0.62148	0.15528	-0.154
Mof_C 	C 	0.12787	0.64834	0.12045	0.069
Mof_H 	H 	0.1299	0.6376	0.0883	0.014
Mof_C 	C 	0.15015	0.69028	0.13446	-0.141
Mof_H 	H 	0.1616	0.7115	0.1105	0.074
Mof_C 	C 	0.1566	0.70283	0.18361	0.069
Mof_C 	C 	0.13386	0.67445	0.2168	-0.146
Mof_H 	H 	0.1367	0.6825	0.2497	0.081
Mof_C 	C 	0.10652	0.63382	0.20421	0.074
Mof_H 	H 	0.0915	0.615	0.2283	0.012
Mof_C 	C 	0.18528	0.74712	0.19681	0.024
Mof_C 	C 	0.22618	0.7618	0.17065	-0.094
Mof_H 	H 	0.236	0.7442	0.1433	0.061
Mof_O 	O 	0.05248	0.55376	0.17176	-0.502
Mof_O 	O 	0.07431	0.56265	0.09659	-0.297
Mof_C 	C 	0.92537	0.42297	0.13943	0.398
Mof_C 	C 	0.89827	0.37852	0.15528	-0.135
Mof_C 	C 	0.87213	0.35166	0.12045	0.061
Mof_H 	H 	0.8701	0.3624	0.0883	0.022
Mof_C 	C 	0.84985	0.30972	0.13446	-0.129
Mof_H 	H 	0.8384	0.2885	0.1105	0.074
Mof_C 	C 	0.8434	0.29717	0.18361	0.064
Mof_C 	C 	0.86614	0.32555	0.2168	-0.133
Mof_H 	H 	0.8633	0.3175	0.2497	0.082
Mof_C 	C 	0.89348	0.36618	0.20421	0.067
Mof_H 	H 	0.9085	0.385	0.2283	0.027
Mof_C 	C 	0.81472	0.25288	0.19681	0.028
Mof_C 	C 	0.77382	0.2382	0.17065	-0.095
Mof_H 	H 	0.764	0.2558	0.1433	0.061
Mof_O 	O 	0.94752	0.44624	0.17176	-0.469
Mof_O 	O 	0.92569	0.43735	0.09659	-0.274
Mof_C 	C 	0.07463	0.42297	0.86057	0.399
Mof_C 	C 	0.10173	0.37852	0.84472	-0.144
Mof_C 	C 	0.12787	0.35166	0.87955	0.064
Mof_H 	H 	0.1299	0.3624	0.9117	0.03
Mof_C 	C 	0.15015	0.30972	0.86554	-0.134
Mof_H 	H 	0.1616	0.2885	0.8895	0.082
Mof_C 	C 	0.1566	0.29717	0.81639	0.066
Mof_C 	C 	0.13386	0.32555	0.7832	-0.141
Mof_H 	H 	0.1367	0.3175	0.7503	0.08
Mof_C 	C 	0.10652	0.36618	0.79579	0.069
Mof_H 	H 	0.0915	0.385	0.7717	0.015
Mof_C 	C 	0.18528	0.25288	0.80319	0.026
Mof_C 	C 	0.22618	0.2382	0.82935	-0.096
Mof_H 	H 	0.236	0.2558	0.8567	0.067
Mof_O 	O 	0.05248	0.44624	0.82824	-0.499
Mof_O 	O 	0.07431	0.43735	0.90341	-0.276
Mof_Mg	Mg	0.17218	0	0.5	1.463
Mof_Mg	Mg	0.82782	0	0.5	1.464
Mof_Mg	Mg	0.5	0.17218	-0	1.463
Mof_Mg	Mg	0.5	0.82782	-0	1.464
Mof_Mg	Mg	1.87962e-33	0.5	0.17218	1.463
Mof_Mg	Mg	-1.66409e-32	0.5	0.82782	1.464
Mof_C 	C 	0.63943	0.57463	0.92297	0.394
Mof_C 	C 	0.65528	0.60173	0.87852	-0.13
Mof_C 	C 	0.62045	0.62787	0.85166	0.058
Mof_H 	H 	0.5883	0.6299	0.8624	0.031
Mof_C 	C 	0.63446	0.65015	0.80972	-0.125
Mof_H 	H 	0.6105	0.6616	0.7885	0.077
Mof_C 	C 	0.68361	0.6566	0.79717	0.06
Mof_C 	C 	0.7168	0.63386	0.82555	-0.13
Mof_H 	H 	0.7497	0.6367	0.8175	0.079
Mof_C 	C 	0.70421	0.60652	0.86618	0.062
Mof_H 	H 	0.7283	0.5915	0.885	0.027
Mof_C 	C 	0.69681	0.68528	0.75288	0.033
Mof_C 	C 	0.67065	0.72618	0.7382	-0.1
Mof_H 	H 	0.6433	0.736	0.7558	0.067
Mof_O 	O 	0.67176	0.55248	0.94624	-0.466
Mof_O 	O 	0.59659	0.57431	0.93735	-0.259
Mof_C 	C 	0.36057	0.42537	0.92297	0.394
Mof_C 	C 	0.34472	0.39827	0.87852	-0.131
Mof_C 	C 	0.37955	0.37213	0.85166	0.059
Mof_H 	H 	0.4117	0.3701	0.8624	0.031
Mof_C 	C 	0.36554	0.34985	0.80972	-0.127
Mof_H 	H 	0.3895	0.3384	0.7885	0.078
Mof_C 	C 	0.31639	0.3434	0.79717	0.062
Mof_C 	C 	0.2832	0.36614	0.82555	-0.132
Mof_H 	H 	0.2503	0.3633	0.8175	0.08
Mof_C 	C 	0.29579	0.39348	0.86618	0.064
Mof_H 	H 	0.2717	0.4085	0.885	0.026
Mof_C 	C 	0.30319	0.31472	0.75288	0.03
Mof_C 	C 	0.32935	0.27382	0.7382	-0.096
Mof_H 	H 	0.3567	0.264	0.7558	0.065
Mof_O 	O 	0.32824	0.44752	0.94624	-0.467
Mof_O 	O 	0.40341	0.42569	0.93735	-0.259
Mof_C 	C 	0.36057	0.57463	0.07703	0.404
Mof_C 	C 	0.34472	0.60173	0.12148	-0.148
Mof_C 	C 	0.37955	0.62787	0.14834	0.068
Mof_H 	H 	0.4117	0.6299	0.1376	0.022
Mof_C 	C 	0.36554	0.65015	0.19028	-0.136
Mof_H 	H 	0.3895	0.6616	0.2115	0.08
Mof_C 	C 	0.31639	0.6566	0.20283	0.069
Mof_C 	C 	0.2832	0.63386	0.17445	-0.143
Mof_H 	H 	0.2503	0.6367	0.1825	0.082
Mof_C 	C 	0.29579	0.60652	0.13382	0.073
Mof_H 	H 	0.2717	0.5915	0.115	0.015
Mof_C 	C 	0.30319	0.68528	0.24712	0.027
Mof_C 	C 	0.32935	0.72618	0.2618	-0.095
Mof_H 	H 	0.3567	0.736	0.2442	0.065
Mof_O 	O 	0.32824	0.55248	0.05376	-0.501
Mof_O 	O 	0.40341	0.57431	0.06265	-0.291
Mof_C 	C 	0.63943	0.42537	0.07703	0.403
Mof_C 	C 	0.65528	0.39827	0.12148	-0.147
Mof_C 	C 	0.62045	0.37213	0.14834	0.068
Mof_H 	H 	0.5883	0.3701	0.1376	0.022
Mof_C 	C 	0.63446	0.34985	0.19028	-0.136
Mof_H 	H 	0.6105	0.3384	0.2115	0.08
Mof_C 	C 	0.68361	0.3434	0.20283	0.068
Mof_C 	C 	0.7168	0.36614	0.17445	-0.142
Mof_H 	H 	0.7497	0.3633	0.1825	0.082
Mof_C 	C 	0.70421	0.39348	0.13382	0.072
Mof_H 	H 	0.7283	0.4085	0.115	0.015
Mof_C 	C 	0.69681	0.31472	0.24712	0.027
Mof_C 	C 	0.67065	0.27382	0.2618	-0.094
Mof_H 	H 	0.6433	0.264	0.2442	0.064
Mof_O 	O 	0.67176	0.44752	0.05376	-0.501
Mof_O 	O 	0.59659	0.42569	0.06265	-0.291
Mof_C 	C 	0.92297	0.63943	0.57463	0.394
Mof_C 	C 	0.87852	0.65528	0.60173	-0.13
Mof_C 	C 	0.85166	0.62045	0.62787	0.058
Mof_H 	H 	0.8624	0.5883	0.6299	0.031
Mof_C 	C 	0.80972	0.63446	0.65015	-0.125
Mof_H 	H 	0.7885	0.6105	0.6616	0.077
Mof_C 	C 	0.79717	0.68361	0.6566	0.06
Mof_C 	C 	0.82555	0.7168	0.63386	-0.13
Mof_H 	H 	0.8175	0.7497	0.6367	0.079
Mof_C 	C 	0.86618	0.70421	0.60652	0.062
Mof_H 	H 	0.885	0.7283	0.5915	0.027
Mof_C 	C 	0.75288	0.69681	0.68528	0.033
Mof_C 	C 	0.7382	0.67065	0.72618	-0.1
Mof_H 	H 	0.7558	0.6433	0.736	0.067
Mof_O 	O 	0.94624	0.67176	0.55248	-0.466
Mof_O 	O 	0.93735	0.59659	0.57431	-0.259
Mof_C 	C 	0.92297	0.36057	0.42537	0.394
Mof_C 	C 	0.87852	0.34472	0.39827	-0.131
Mof_C 	C 	0.85166	0.37955	0.37213	0.059
Mof_H 	H 	0.8624	0.4117	0.3701	0.031
Mof_C 	C 	0.80972	0.36554	0.34985	-0.127
Mof_H 	H 	0.7885	0.3895	0.3384	0.078
Mof_C 	C 	0.79717	0.31639	0.3434	0.062
Mof_C 	C 	0.82555	0.2832	0.36614	-0.132
Mof_H 	H 	0.8175	0.2503	0.3633	0.08
Mof_C 	C 	0.86618	0.29579	0.39348	0.064
Mof_H 	H 	0.885	0.2717	0.4085	0.026
Mof_C 	C 	0.75288	0.30319	0.31472	0.03
Mof_C 	C 	0.7382	0.32935	0.27382	-0.096
Mof_H 	H 	0.7558	0.3567	0.264	0.065
Mof_O 	O 	0.94624	0.32824	0.44752	-0.467
Mof_O 	O 	0.93735	0.40341	0.42569	-0.259
Mof_C 	C 	0.07703	0.36057	0.57463	0.404
Mof_C 	C 	0.12148	0.34472	0.60173	-0.148
Mof_C 	C 	0.14834	0.37955	0.62787	0.068
Mof_H 	H 	0.1376	0.4117	0.6299	0.022
Mof_C 	C 	0.19028	0.36554	0.65015	-0.136
Mof_H 	H 	0.2115	0.3895	0.6616	0.08
Mof_C 	C 	0.20283	0.31639	0.6566	0.069
Mof_C 	C 	0.17445	0.2832	0.63386	-0.143
Mof_H 	H 	0.1825	0.2503	0.6367	0.082
Mof_C 	C 	0.13382	0.29579	0.60652	0.073
Mof_H 	H 	0.115	0.2717	0.5915	0.015
Mof_C 	C 	0.24712	0.30319	0.68528	0.027
Mof_C 	C 	0.2618	0.32935	0.72618	-0.095
Mof_H 	H 	0.2442	0.3567	0.736	0.065
Mof_O 	O 	0.05376	0.32824	0.55248	-0.501
Mof_O 	O 	0.06265	0.40341	0.57431	-0.291
Mof_C 	C 	0.07703	0.63943	0.42537	0.403
Mof_C 	C 	0.12148	0.65528	0.39827	-0.147
Mof_C 	C 	0.14834	0.62045	0.37213	0.068
Mof_H 	H 	0.1376	0.5883	0.3701	0.022
Mof_C 	C 	0.19028	0.63446	0.34985	-0.136
Mof_H 	H 	0.2115	0.6105	0.3384	0.08
Mof_C 	C 	0.20283	0.68361	0.3434	0.068
Mof_C 	C 	0.17445	0.7168	0.36614	-0.142
Mof_H 	H 	0.1825	0.7497	0.3633	0.082
Mof_C 	C 	0.13382	0.70421	0.39348	0.072
Mof_H 	H 	0.115	0.7283	0.4085	0.015
Mof_C 	C 	0.24712	0.69681	0.31472	0.027
Mof_C 	C 	0.2618	0.67065	0.27382	-0.094
Mof_H 	H 	0.2442	0.6433	0.264	0.064
Mof_O 	O 	0.05376	0.67176	0.44752	-0.501
Mof_O 	O 	0.06265	0.59659	0.42569	-0.291
Mof_C 	C 	0.57463	0.92297	0.63943	0.394
Mof_C 	C 	0.60173	0.87852	0.65528	-0.13
Mof_C 	C 	0.62787	0.85166	0.62045	0.058
Mof_H 	H 	0.6299	0.8624	0.5883	0.031
Mof_C 	C 	0.65015	0.80972	0.63446	-0.125
Mof_H 	H 	0.6616	0.7885	0.6105	0.077
Mof_C 	C 	0.6566	0.79717	0.68361	0.06
Mof_C 	C 	0.63386	0.82555	0.7168	-0.13
Mof_H 	H 	0.6367	0.8175	0.7497	0.079
Mof_C 	C 	0.60652	0.86618	0.70421	0.062
Mof_H 	H 	0.5915	0.885	0.7283	0.027
Mof_C 	C 	0.68528	0.75288	0.69681	0.033
Mof_C 	C 	0.72618	0.7382	0.67065	-0.1
Mof_H 	H 	0.736	0.7558	0.6433	0.067
Mof_O 	O 	0.55248	0.94624	0.67176	-0.466
Mof_O 	O 	0.57431	0.93735	0.59659	-0.259
Mof_C 	C 	0.42537	0.92297	0.36057	0.394
Mof_C 	C 	0.39827	0.87852	0.34472	-0.131
Mof_C 	C 	0.37213	0.85166	0.37955	0.059
Mof_H 	H 	0.3701	0.8624	0.4117	0.031
Mof_C 	C 	0.34985	0.80972	0.36554	-0.127
Mof_H 	H 	0.3384	0.7885	0.3895	0.078
Mof_C 	C 	0.3434	0.79717	0.31639	0.062
Mof_C 	C 	0.36614	0.82555	0.2832	-0.132
Mof_H 	H 	0.3633	0.8175	0.2503	0.08
Mof_C 	C 	0.39348	0.86618	0.29579	0.064
Mof_H 	H 	0.4085	0.885	0.2717	0.026
Mof_C 	C 	0.31472	0.75288	0.30319	0.03
Mof_C 	C 	0.27382	0.7382	0.32935	-0.096
Mof_H 	H 	0.264	0.7558	0.3567	0.065
Mof_O 	O 	0.44752	0.94624	0.32824	-0.467
Mof_O 	O 	0.42569	0.93735	0.40341	-0.259
Mof_C 	C 	0.57463	0.07703	0.36057	0.404
Mof_C 	C 	0.60173	0.12148	0.34472	-0.148
Mof_C 	C 	0.62787	0.14834	0.37955	0.068
Mof_H 	H 	0.6299	0.1376	0.4117	0.022
Mof_C 	C 	0.65015	0.19028	0.36554	-0.136
Mof_H 	H 	0.6616	0.2115	0.3895	0.08
Mof_C 	C 	0.6566	0.20283	0.31639	0.069
Mof_C 	C 	0.63386	0.17445	0.2832	-0.143
Mof_H 	H 	0.6367	0.1825	0.2503	0.082
Mof_C 	C 	0.60652	0.13382	0.29579	0.073
Mof_H 	H 	0.5915	0.115	0.2717	0.015
Mof_C 	C 	0.68528	0.24712	0.30319	0.027
Mof_C 	C 	0.72618	0.2618	0.32935	-0.095
Mof_H 	H 	0.736	0.2442	0.3567	0.065
Mof_O 	O 	0.55248	0.05376	0.32824	-0.501
Mof_O 	O 	0.57431	0.06265	0.40341	-0.291
Mof_C 	C 	0.42537	0.07703	0.63943	0.403
Mof_C 	C 	0.39827	0.12148	0.65528	-0.147
Mof_C 	C 	0.37213	0.14834	0.62045	0.068
Mof_H 	H 	0.3701	0.1376	0.5883	0.022
Mof_C 	C 	0.34985	0.19028	0.63446	-0.136
Mof_H 	H 	0.3384	0.2115	0.6105	0.08
Mof_C 	C 	0.3434	0.20283	0.68361	0.068
Mof_C 	C 	0.36614	0.17445	0.7168	-0.142
Mof_H 	H 	0.3633	0.1825	0.7497	0.082
Mof_C 	C 	0.39348	0.13382	0.70421	0.072
Mof_H 	H 	0.4085	0.115	0.7283	0.015
Mof_C 	C 	0.31472	0.24712	0.69681	0.027
Mof_C 	C 	0.27382	0.2618	0.67065	-0.094
Mof_H 	H 	0.264	0.2442	0.6433	0.064
Mof_O 	O 	0.44752	0.05376	0.67176	-0.501
Mof_O 	O 	0.42569	0.06265	0.59659	-0.291
Mof_C 	C 	0.36057	0.42537	0.07703	0.404
Mof_C 	C 	0.34472	0.39827	0.12148	-0.148
Mof_C 	C 	0.37955	0.37213	0.14834	0.069
Mof_H 	H 	0.4117	0.3701	0.1376	0.022
Mof_C 	C 	0.36554	0.34985	0.19028	-0.137
Mof_H 	H 	0.3895	0.3384	0.2115	0.081
Mof_C 	C 	0.31639	0.3434	0.20283	0.07
Mof_C 	C 	0.2832	0.36614	0.17445	-0.144
Mof_H 	H 	0.2503	0.3633	0.1825	0.082
Mof_C 	C 	0.29579	0.39348	0.13382	0.073
Mof_H 	H 	0.2717	0.4085	0.115	0.014
Mof_C 	C 	0.30319	0.31472	0.24712	0.026
Mof_C 	C 	0.32935	0.27382	0.2618	-0.093
Mof_H 	H 	0.3567	0.264	0.2442	0.064
Mof_O 	O 	0.32824	0.44752	0.05376	-0.501
Mof_O 	O 	0.40341	0.42569	0.06265	-0.291
Mof_C 	C 	0.63943	0.57463	0.07703	0.403
Mof_C 	C 	0.65528	0.60173	0.12148	-0.147
Mof_C 	C 	0.62045	0.62787	0.14834	0.067
Mof_H 	H 	0.5883	0.6299	0.1376	0.022
Mof_C 	C 	0.63446	0.65015	0.19028	-0.135
Mof_H 	H 	0.6105	0.6616	0.2115	0.08
Mof_C 	C 	0.68361	0.6566	0.20283	0.067
Mof_C 	C 	0.7168	0.63386	0.17445	-0.141
Mof_H 	H 	0.7497	0.6367	0.1825	0.081
Mof_C 	C 	0.70421	0.60652	0.13382	0.072
Mof_H 	H 	0.7283	0.5915	0.115	0.015
Mof_C 	C 	0.69681	0.68528	0.24712	0.029
Mof_C 	C 	0.67065	0.72618	0.2618	-0.097
Mof_H 	H 	0.6433	0.736	0.2442	0.065
Mof_O 	O 	0.67176	0.55248	0.05376	-0.501
Mof_O 	O 	0.59659	0.57431	0.06265	-0.291
Mof_C 	C 	0.63943	0.42537	0.92297	0.394
Mof_C 	C 	0.65528	0.39827	0.87852	-0.13
Mof_C 	C 	0.62045	0.37213	0.85166	0.058
Mof_H 	H 	0.5883	0.3701	0.8624	0.031
Mof_C 	C 	0.63446	0.34985	0.80972	-0.126
Mof_H 	H 	0.6105	0.3384	0.7885	0.077
Mof_C 	C 	0.68361	0.3434	0.79717	0.061
Mof_C 	C 	0.7168	0.36614	0.82555	-0.13
Mof_H 	H 	0.7497	0.3633	0.8175	0.079
Mof_C 	C 	0.70421	0.39348	0.86618	0.063
Mof_H 	H 	0.7283	0.4085	0.885	0.027
Mof_C 	C 	0.69681	0.31472	0.75288	0.031
Mof_C 	C 	0.67065	0.27382	0.7382	-0.097
Mof_H 	H 	0.6433	0.264	0.7558	0.065
Mof_O 	O 	0.67176	0.44752	0.94624	-0.466
Mof_O 	O 	0.59659	0.42569	0.93735	-0.259
Mof_C 	C 	0.36057	0.57463	0.92297	0.394
Mof_C 	C 	0.34472	0.60173	0.87852	-0.13
Mof_C 	C 	0.37955	0.62787	0.85166	0.058
Mof_H 	H 	0.4117	0.6299	0.8624	0.031
Mof_C 	C 	0.36554	0.65015	0.80972	-0.126
Mof_H 	H 	0.3895	0.6616	0.7885	0.078
Mof_C 	C 	0.31639	0.6566	0.79717	0.061
Mof_C 	C 	0.2832	0.63386	0.82555	-0.131
Mof_H 	H 	0.2503	0.6367	0.8175	0.08
Mof_C 	C 	0.29579	0.60652	0.86618	0.063
Mof_H 	H 	0.2717	0.5915	0.885	0.026
Mof_C 	C 	0.30319	0.68528	0.75288	0.031
Mof_C 	C 	0.32935	0.72618	0.7382	-0.098
Mof_H 	H 	0.3567	0.736	0.7558	0.066
Mof_O 	O 	0.32824	0.55248	0.94624	-0.467
Mof_O 	O 	0.40341	0.57431	0.93735	-0.259
Mof_C 	C 	0.07703	0.36057	0.42537	0.404
Mof_C 	C 	0.12148	0.34472	0.39827	-0.148
Mof_C 	C 	0.14834	0.37955	0.37213	0.069
Mof_H 	H 	0.1376	0.4117	0.3701	0.022
Mof_C 	C 	0.19028	0.36554	0.34985	-0.137
Mof_H 	H 	0.2115	0.3895	0.3384	0.081
Mof_C 	C 	0.20283	0.31639	0.3434	0.07
Mof_C 	C 	0.17445	0.2832	0.36614	-0.144
Mof_H 	H 	0.1825	0.2503	0.3633	0.082
Mof_C 	C 	0.13382	0.29579	0.39348	0.073
Mof_H 	H 	0.115	0.2717	0.4085	0.014
Mof_C 	C 	0.24712	0.30319	0.31472	0.026
Mof_C 	C 	0.2618	0.32935	0.27382	-0.093
Mof_H 	H 	0.2442	0.3567	0.264	0.064
Mof_O 	O 	0.05376	0.32824	0.44752	-0.501
Mof_O 	O 	0.06265	0.40341	0.42569	-0.291
Mof_C 	C 	0.07703	0.63943	0.57463	0.403
Mof_C 	C 	0.12148	0.65528	0.60173	-0.147
Mof_C 	C 	0.14834	0.62045	0.62787	0.067
Mof_H 	H 	0.1376	0.5883	0.6299	0.022
Mof_C 	C 	0.19028	0.63446	0.65015	-0.135
Mof_H 	H 	0.2115	0.6105	0.6616	0.08
Mof_C 	C 	0.20283	0.68361	0.6566	0.067
Mof_C 	C 	0.17445	0.7168	0.63386	-0.141
Mof_H 	H 	0.1825	0.7497	0.6367	0.081
Mof_C 	C 	0.13382	0.70421	0.60652	0.072
Mof_H 	H 	0.115	0.7283	0.5915	0.015
Mof_C 	C 	0.24712	0.69681	0.68528	0.029
Mof_C 	C 	0.2618	0.67065	0.72618	-0.097
Mof_H 	H 	0.2442	0.6433	0.736	0.065
Mof_O 	O 	0.05376	0.67176	0.55248	-0.501
Mof_O 	O 	0.06265	0.59659	0.57431	-0.291
Mof_C 	C 	0.92297	0.63943	0.42537	0.394
Mof_C 	C 	0.87852	0.65528	0.39827	-0.13
Mof_C 	C 	0.85166	0.62045	0.37213	0.058
Mof_H 	H 	0.8624	0.5883	0.3701	0.031
Mof_C 	C 	0.80972	0.63446	0.34985	-0.126
Mof_H 	H 	0.7885	0.6105	0.3384	0.077
Mof_C 	C 	0.79717	0.68361	0.3434	0.061
Mof_C 	C 	0.82555	0.7168	0.36614	-0.13
Mof_H 	H 	0.8175	0.7497	0.3633	0.079
Mof_C 	C 	0.86618	0.70421	0.39348	0.063
Mof_H 	H 	0.885	0.7283	0.4085	0.027
Mof_C 	C 	0.75288	0.69681	0.31472	0.031
Mof_C 	C 	0.7382	0.67065	0.27382	-0.097
Mof_H 	H 	0.7558	0.6433	0.264	0.065
Mof_O 	O 	0.94624	0.67176	0.44752	-0.466
Mof_O 	O 	0.93735	0.59659	0.42569	-0.259
Mof_C 	C 	0.92297	0.36057	0.57463	0.394
Mof_C 	C 	0.87852	0.34472	0.60173	-0.13
Mof_C 	C 	0.85166	0.37955	0.62787	0.058
Mof_H 	H 	0.8624	0.4117	0.6299	0.031
Mof_C 	C 	0.80972	0.36554	0.65015	-0.126
Mof_H 	H 	0.7885	0.3895	0.6616	0.078
Mof_C 	C 	0.79717	0.31639	0.6566	0.061
Mof_C 	C 	0.82555	0.2832	0.63386	-0.131
Mof_H 	H 	0.8175	0.2503	0.6367	0.08
Mof_C 	C 	0.86618	0.29579	0.60652	0.063
Mof_H 	H 	0.885	0.2717	0.5915	0.026
Mof_C 	C 	0.75288	0.30319	0.68528	0.031
Mof_C 	C 	0.7382	0.32935	0.72618	-0.098
Mof_H 	H 	0.7558	0.3567	0.736	0.066
Mof_O 	O 	0.94624	0.32824	0.55248	-0.467
Mof_O 	O 	0.93735	0.40341	0.57431	-0.259
Mof_C 	C 	0.42537	0.07703	0.36057	0.404
Mof_C 	C 	0.39827	0.12148	0.34472	-0.148
Mof_C 	C 	0.37213	0.14834	0.37955	0.069
Mof_H 	H 	0.3701	0.1376	0.4117	0.022
Mof_C 	C 	0.34985	0.19028	0.36554	-0.137
Mof_H 	H 	0.3384	0.2115	0.3895	0.081
Mof_C 	C 	0.3434	0.20283	0.31639	0.07
Mof_C 	C 	0.36614	0.17445	0.2832	-0.144
Mof_H 	H 	0.3633	0.1825	0.2503	0.082
Mof_C 	C 	0.39348	0.13382	0.29579	0.073
Mof_H 	H 	0.4085	0.115	0.2717	0.014
Mof_C 	C 	0.31472	0.24712	0.30319	0.026
Mof_C 	C 	0.27382	0.2618	0.32935	-0.093
Mof_H 	H 	0.264	0.2442	0.3567	0.064
Mof_O 	O 	0.44752	0.05376	0.32824	-0.501
Mof_O 	O 	0.42569	0.06265	0.40341	-0.291
Mof_C 	C 	0.57463	0.07703	0.63943	0.403
Mof_C 	C 	0.60173	0.12148	0.65528	-0.147
Mof_C 	C 	0.62787	0.14834	0.62045	0.067
Mof_H 	H 	0.6299	0.1376	0.5883	0.022
Mof_C 	C 	0.65015	0.19028	0.63446	-0.135
Mof_H 	H 	0.6616	0.2115	0.6105	0.08
Mof_C 	C 	0.6566	0.20283	0.68361	0.067
Mof_C 	C 	0.63386	0.17445	0.7168	-0.141
Mof_H 	H 	0.6367	0.1825	0.7497	0.081
Mof_C 	C 	0.60652	0.13382	0.70421	0.072
Mof_H 	H 	0.5915	0.115	0.7283	0.015
Mof_C 	C 	0.68528	0.24712	0.69681	0.029
Mof_C 	C 	0.72618	0.2618	0.67065	-0.097
Mof_H 	H 	0.736	0.2442	0.6433	0.065
Mof_O 	O 	0.55248	0.05376	0.67176	-0.501
Mof_O 	O 	0.57431	0.06265	0.59659	-0.291
Mof_C 	C 	0.42537	0.92297	0.63943	0.394
Mof_C 	C 	0.39827	0.87852	0.65528	-0.13
Mof_C 	C 	0.37213	0.85166	0.62045	0.058
Mof_H 	H 	0.3701	0.8624	0.5883	0.031
Mof_C 	C 	0.34985	0.80972	0.63446	-0.126
Mof_H 	H 	0.3384	0.7885	0.6105	0.077
Mof_C 	C 	0.3434	0.79717	0.68361	0.061
Mof_C 	C 	0.36614	0.82555	0.7168	-0.13
Mof_H 	H 	0.3633	0.8175	0.7497	0.079
Mof_C 	C 	0.39348	0.86618	0.70421	0.063
Mof_H 	H 	0.4085	0.885	0.7283	0.027
Mof_C 	C 	0.31472	0.75288	0.69681	0.031
Mof_C 	C 	0.27382	0.7382	0.67065	-0.097
Mof_H 	H 	0.264	0.7558	0.6433	0.065
Mof_O 	O 	0.44752	0.94624	0.67176	-0.466
Mof_O 	O 	0.42569	0.93735	0.59659	-0.259
Mof_C 	C 	0.57463	0.92297	0.36057	0.394
Mof_C 	C 	0.60173	0.87852	0.34472	-0.13
Mof_C 	C 	0.62787	0.85166	0.37955	0.058
Mof_H 	H 	0.6299	0.8624	0.4117	0.031
Mof_C 	C 	0.65015	0.80972	0.36554	-0.126
Mof_H 	H 	0.6616	0.7885	0.3895	0.078
Mof_C 	C 	0.6566	0.79717	0.31639	0.061
Mof_C 	C 	0.63386	0.82555	0.2832	-0.131
Mof_H 	H 	0.6367	0.8175	0.2503	0.08
Mof_C 	C 	0.60652	0.86618	0.29579	0.063
Mof_H 	H 	0.5915	0.885	0.2717	0.026
Mof_C 	C 	0.68528	0.75288	0.30319	0.031
Mof_C 	C 	0.72618	0.7382	0.32935	-0.098
Mof_H 	H 	0.736	0.7558	0.3567	0.066
Mof_O 	O 	0.55248	0.94624	0.32824	-0.467
Mof_O 	O 	0.57431	0.93735	0.40341	-0.259
Mof_Mg	Mg	0.67218	0.5	-0	1.463
Mof_Mg	Mg	0.32782	0.5	-0	1.463
Mof_Mg	Mg	6.81088e-33	0.67218	0.5	1.463
Mof_Mg	Mg	1.8747e-33	0.32782	0.5	1.463
Mof_Mg	Mg	0.5	4.93618e-33	0.67218	1.463
Mof_Mg	Mg	0.5	0	0.32782	1.463
_end
