data_functionalizedCrystal
_audit_creation_method	'EQeq! by Chris Wilmer'
_symmetry_space_group_name_H-M	'P1'
_symmetry_Int_Tables_number	1
_symmetry_cell_setting	triclinic
loop_
_symmetry_equiv_pos_as_xyz
  x,y,z
_cell_length_a	9.4071
_cell_length_b	15.6672
_cell_length_c	16.056
_cell_angle_alpha	111.237
_cell_angle_beta	90
_cell_angle_gamma	107.471
loop_
_atom_site_label
_atom_site_type_symbol
_atom_site_fract_x
_atom_site_fract_y
_atom_site_fract_z
_atom_site_charge
Mof_Gd	Gd	0.66205	0.0065	0.59808	1.888
Mof_Gd	Gd	0.65555	0.9935	0.90192	1.792
Mof_Gd	Gd	0.34445	0.0065	0.09808	1.88
Mof_Gd	Gd	0.33795	0.9935	0.40192	1.796
Mof_H 	H 	0.6581	0.7166	0.8979	0.128
Mof_H 	H 	0.6491	0.692	0.7381	-0.03
Mof_H 	H 	0.3935	0.7124	0.5536	0.132
Mof_H 	H 	0.6463	0.5638	0.266	0.148
Mof_H 	H 	0.9613	0.2364	0.9794	-0.034
Mof_H 	H 	0.3989	0.4644	0.9068	0.177
Mof_H 	H 	0.3385	0.754	0.2849	-0.019
Mof_H 	H 	0.0429	0.692	0.2381	-0.03
Mof_H 	H 	0.7474	0.4106	0.8058	0.153
Mof_H 	H 	0.3509	0.308	0.2619	-0.029
Mof_H 	H 	0.2526	0.5894	0.1942	0.153
Mof_H 	H 	0.8828	0.61	0.9372	0.165
Mof_H 	H 	0.1172	0.39	0.0628	0.169
Mof_H 	H 	0.3189	0.7124	0.0536	0.133
Mof_H 	H 	0.9345	0.5356	0.5932	0.175
Mof_H 	H 	0.3537	0.4362	0.734	0.148
Mof_H 	H 	0.3494	0.4638	0.347	0.155
Mof_H 	H 	0.9415	0.2834	0.6021	0.128
Mof_H 	H 	0.2728	0.39	0.5628	0.165
Mof_H 	H 	0.7269	0.7278	0.3577	-0.024
Mof_H 	H 	0.6632	0.4106	0.3058	0.153
Mof_H 	H 	0.9571	0.308	0.7619	-0.031
Mof_H 	H 	0.8856	0.5362	0.153	0.155
Mof_H 	H 	0.7272	0.61	0.4372	0.166
Mof_H 	H 	0.0009	0.7278	0.8577	-0.024
Mof_H 	H 	0.0387	0.7636	0.0206	-0.033
Mof_H 	H 	0.3368	0.5894	0.6942	0.153
Mof_H 	H 	0.3419	0.2834	0.1021	0.126
Mof_H 	H 	0.2731	0.2722	0.6423	-0.023
Mof_H 	H 	0.4155	0.754	0.7849	-0.019
Mof_H 	H 	0.6011	0.5356	0.0932	0.173
Mof_H 	H 	0.6065	0.2876	0.4464	0.134
Mof_H 	H 	0.7249	0.7636	0.5206	-0.034
Mof_H 	H 	0.0585	0.7166	0.3979	0.127
Mof_H 	H 	0.6615	0.246	0.7151	-0.02
Mof_H 	H 	0.0825	0.4362	0.234	0.148
Mof_H 	H 	0.9175	0.5638	0.766	0.148
Mof_H 	H 	0.2751	0.2364	0.4794	-0.031
Mof_H 	H 	0.6506	0.5362	0.653	0.156
Mof_H 	H 	0.6811	0.2876	0.9464	0.13
Mof_H 	H 	0.0655	0.4644	0.4068	0.175
Mof_H 	H 	0.5845	0.246	0.2151	-0.019
Mof_H 	H 	0.9991	0.2722	0.1423	-0.023
Mof_H 	H 	0.1144	0.4638	0.847	0.158
Mof_C 	C 	0.2415	0.5804	0.4836	0.315
Mof_C 	C 	0.9149	0.627	0.9975	-0.323
Mof_C 	C 	0.2341	0.7302	0.4813	0.05
Mof_C 	C 	0.0681	0.6998	0.8251	0.184
Mof_C 	C 	0.6528	0.3826	0.7726	-0.284
Mof_C 	C 	0.4746	0.1612	0.9922	0.389
Mof_C 	C 	0.1042	0.6822	0.4191	-0.23
Mof_C 	C 	0.1203	0.562	0.7237	0.297
Mof_C 	C 	0.9551	0.418	0.6104	0.314
Mof_C 	C 	0.1094	0.5308	0.4236	-0.367
Mof_C 	C 	0.6943	0.32	0.4865	-0.233
Mof_C 	C 	0.0449	0.582	0.3896	0.314
Mof_C 	C 	0.3987	0.7158	0.2819	0.173
Mof_C 	C 	0.334	0.4176	0.3725	-0.314
Mof_C 	C 	0.5418	0.757	0.3323	-0.234
Mof_C 	C 	0.578	0.6822	0.9191	-0.231
Mof_C 	C 	0.0851	0.373	0.0025	-0.337
Mof_C 	C 	0.9164	0.5824	0.1275	-0.314
Mof_C 	C 	0.6257	0.32	0.9865	-0.221
Mof_C 	C 	0.6611	0.4196	0.0164	0.307
Mof_C 	C 	0.3134	0.8388	0.5078	0.384
Mof_C 	C 	0.6651	0.6756	0.678	0.202
Mof_C 	C 	0.5878	0.8612	0.3981	0.455
Mof_C 	C 	0.4582	0.243	0.6677	-0.233
Mof_C 	C 	0.5786	0.4692	0.0764	-0.362
Mof_C 	C 	0.4122	0.1388	0.6019	0.456
Mof_C 	C 	0.9319	0.3002	0.1749	0.184
Mof_C 	C 	0.1304	0.4396	0.9628	0.338
Mof_C 	C 	0.4417	0.562	0.2237	0.297
Mof_C 	C 	0.3389	0.5804	0.9836	0.319
Mof_C 	C 	0.3472	0.6174	0.2274	-0.284
Mof_C 	C 	0.9895	0.3244	0.822	0.206
Mof_C 	C 	0.4629	0.418	0.1104	0.31
Mof_C 	C 	0.9425	0.2544	0.8612	-0.265
Mof_C 	C 	0.3171	0.7158	0.7819	0.173
Mof_C 	C 	0.7585	0.4196	0.5164	0.316
Mof_C 	C 	0.7266	0.1388	0.1019	0.456
Mof_C 	C 	0.2702	0.6174	0.7274	-0.284
Mof_C 	C 	0.5039	0.2698	0.0187	0.042
Mof_C 	C 	0.017	0.6014	0.7706	-0.308
Mof_C 	C 	0.9919	0.2812	0.9525	0.222
Mof_C 	C 	0.2152	0.757	0.8323	-0.234
Mof_C 	C 	0.7107	0.7188	0.5475	0.214
Mof_C 	C 	0.5844	0.6014	0.2706	-0.308
Mof_C 	C 	0.3349	0.3244	0.322	0.2
Mof_C 	C 	0.1578	0.846	0.1924	0.499
Mof_C 	C 	0.6829	0.2842	0.2181	0.174
Mof_C 	C 	0.3683	0.3002	0.6749	0.184
Mof_C 	C 	0.3092	0.4396	0.4628	0.329
Mof_C 	C 	0.7848	0.243	0.1677	-0.233
Mof_C 	C 	0.983	0.3986	0.2294	-0.308
Mof_C 	C 	0.8906	0.4692	0.5764	-0.367
Mof_C 	C 	0.5371	0.582	0.8896	0.315
Mof_C 	C 	0.0836	0.4176	0.8725	-0.321
Mof_C 	C 	0.7659	0.2698	0.5187	0.053
Mof_C 	C 	0.0105	0.6756	0.178	0.2
Mof_C 	C 	0.8422	0.154	0.8076	0.499
Mof_C 	C 	0.3118	0.154	0.3076	0.497
Mof_C 	C 	0.666	0.5824	0.6275	-0.316
Mof_C 	C 	0.8958	0.3178	0.5809	-0.231
Mof_C 	C 	0.3057	0.68	0.5135	-0.231
Mof_C 	C 	0.7121	0.627	0.4975	-0.326
Mof_C 	C 	0.5583	0.438	0.7763	0.298
Mof_C 	C 	0.6013	0.2842	0.7181	0.175
Mof_C 	C 	0.6881	0.7456	0.6388	-0.264
Mof_C 	C 	0.2879	0.373	0.5025	-0.323
Mof_C 	C 	0.6317	0.6998	0.3251	0.184
Mof_C 	C 	0.8696	0.5604	0.0372	0.326
Mof_C 	C 	0.8797	0.438	0.2763	0.297
Mof_C 	C 	0.6882	0.846	0.6924	0.5
Mof_C 	C 	0.4961	0.7302	0.9813	0.051
Mof_C 	C 	0.4214	0.5308	0.9236	-0.369
Mof_C 	C 	0.422	0.3178	0.0809	-0.225
Mof_C 	C 	0.0081	0.7188	0.0475	0.212
Mof_C 	C 	0.7298	0.3826	0.2726	-0.284
Mof_C 	C 	0.2734	0.8612	0.8981	0.455
Mof_C 	C 	0.3743	0.68	0.0135	-0.235
Mof_C 	C 	0.5254	0.8388	0.0078	0.384
Mof_C 	C 	0.0575	0.7456	0.1388	-0.263
Mof_C 	C 	0.4156	0.3986	0.7294	-0.308
Mof_C 	C 	0.2893	0.2812	0.4525	0.212
Mof_C 	C 	0.6866	0.1612	0.4922	0.381
Mof_C 	C 	0.3119	0.2544	0.3612	-0.26
Mof_C 	C 	0.6908	0.5604	0.5372	0.33
Mof_O 	O 	0.8079	0.1102	0.0413	-0.448
Mof_O 	O 	0.9167	0.5378	0.3286	-0.322
Mof_O 	O 	0.824	0.0926	0.843	-0.495
Mof_O 	O 	0.251	0.8826	0.4747	-0.459
Mof_O 	O 	0.3118	0.533	0.5181	-0.318
Mof_O 	O 	0.2212	0.533	0.0181	-0.322
Mof_O 	O 	0.5546	0.1228	0.9388	-0.444
Mof_O 	O 	0.176	0.9074	0.157	-0.52
Mof_O 	O 	0.7314	0.9074	0.657	-0.522
Mof_O 	O 	0.6503	0.8626	0.7722	-0.495
Mof_O 	O 	0.4001	0.9142	0.8925	-0.512
Mof_O 	O 	0.3684	0.1174	0.0253	-0.461
Mof_O 	O 	0.5999	0.0858	0.1075	-0.508
Mof_O 	O 	0.1921	0.8898	0.9587	-0.466
Mof_O 	O 	0.3023	0.1102	0.5413	-0.447
Mof_O 	O 	0.5141	0.9142	0.3925	-0.513
Mof_O 	O 	0.5107	5.44443e-17	0.75	-0.254
Mof_O 	O 	0.6316	0.8826	0.9747	-0.459
Mof_O 	O 	0.0833	0.4622	0.6714	-0.322
Mof_O 	O 	0.4318	0.8772	0.5612	-0.464
Mof_O 	O 	0.2686	0.0926	0.343	-0.497
Mof_O 	O 	0.4454	0.8772	0.0612	-0.462
Mof_O 	O 	0.749	0.1174	0.5253	-0.457
Mof_O 	O 	0.6882	0.467	0.4819	-0.319
Mof_O 	O 	0.5682	0.1228	0.4388	-0.443
Mof_O 	O 	0.7788	0.467	0.9819	-0.315
Mof_O 	O 	0.3789	0.4622	0.1714	-0.321
Mof_O 	O 	0.6211	0.5378	0.8286	-0.322
Mof_O 	O 	0.3497	0.1374	0.2278	-0.497
Mof_O 	O 	0.4859	0.0858	0.6075	-0.508
Mof_O 	O 	0.2123	0.8626	0.2722	-0.495
Mof_O 	O 	0.4893	0	0.25	-0.255
Mof_O 	O 	0.7877	0.1374	0.7278	-0.497
Mof_O 	O 	0.6977	0.8898	0.4587	-0.467
_end
