# CIF file generated by openbabel 3.1.0, see https://openbabel.org
data_I
_chemical_name_common 'image0'
_cell_length_a 24.5021
_cell_length_b 24.5021
_cell_length_c 71.8088
_cell_angle_alpha 90
_cell_angle_beta 90
_cell_angle_gamma 90
_space_group_name_H-M_alt 'P 1'
_space_group_name_Hall 'P 1'
loop_
    _symmetry_equiv_pos_as_xyz
    x,y,z
loop_
    _atom_site_label
    _atom_site_type_symbol
    _atom_site_fract_x
    _atom_site_fract_y
    _atom_site_fract_z
    _atom_site_occupancy
    O1       O        0.92980    0.00754    0.11681    1.000
    O2       O        0.99569    0.07268    0.11814    1.000
    O3       O        0.92610    0.48831    0.09470    1.000
    C1       C        0.94960    0.05110    0.11210    1.000
    C2       C        0.87378    0.14139    0.06756    1.000
    C3       C        0.85030    0.09401    0.07449    1.000
    H1       H        0.81720    0.08130    0.06960    1.000
    C4       C        0.87580    0.06538    0.08867    1.000
    H2       H        0.86000    0.03330    0.09340    1.000
    C5       C        0.92487    0.08412    0.09593    1.000
    C6       C        0.94834    0.13149    0.08901    1.000
    H3       H        0.98150    0.14420    0.09390    1.000
    C7       C        0.92280    0.16012    0.07483    1.000
    H4       H        0.93870    0.19220    0.07010    1.000
    Cu1      Cu       0.96026    0.96411    0.13667    1.000
    C8       C        0.82640    0.25900    0.03581    1.000
    C9       C        0.82923    0.31554    0.03508    1.000
    C10      C        0.80300    0.34364    0.02091    1.000
    H5       H        0.80500    0.38190    0.02040    1.000
    C11      C        0.77405    0.31522    0.00747    1.000
    C12      C        0.77123    0.25868    0.00820    1.000
    C13      C        0.79740    0.23057    0.02237    1.000
    C14      C        0.84960    0.22900    0.05080    1.000
    H6       H        0.86720    0.24810    0.06040    1.000
    C15      C        0.84710    0.17310    0.05175    1.000
    C16      C        0.81710    0.14380    0.03777    1.000
    H7       H        0.81470    0.10550    0.03810    1.000
    C17      C        0.79160    0.17320    0.02376    1.000
    H8       H        0.77010    0.15470    0.01500    1.000
    C18      C        0.86268    0.35081    0.04905    1.000
    C19      C        0.83758    0.39425    0.05800    1.000
    H9       H        0.80090    0.40240    0.05550    1.000
    C20      C        0.86675    0.42557    0.07063    1.000
    H10      H        0.84980    0.45490    0.07670    1.000
    C21      C        0.92103    0.41345    0.07431    1.000
    C22      C        0.94613    0.37001    0.06535    1.000
    H11      H        0.98280    0.36180    0.06780    1.000
    C23      C        0.91696    0.33869    0.05272    1.000
    H12      H        0.93390    0.30930    0.04670    1.000
    O4       O        0.99820    0.42929    0.09338    1.000
    C24      C        0.95190    0.44670    0.08928    1.000
    O5       O        0.74850    0.34080    0.99313    1.000
    C25      C        0.76830    0.39880    0.98960    1.000
    C26      C        0.73150    0.42730    0.97470    1.000
    C27      C        0.72650    0.39520    0.99690    1.000
    C28      C        0.67600    0.39220    0.00940    1.000
    O6       O        0.42980    0.50754    0.61681    1.000
    O7       O        0.49569    0.57268    0.61814    1.000
    O8       O        0.42610    0.98831    0.59470    1.000
    C29      C        0.44960    0.55110    0.61210    1.000
    C30      C        0.37378    0.64139    0.56756    1.000
    C31      C        0.35030    0.59401    0.57449    1.000
    H13      H        0.31720    0.58130    0.56960    1.000
    C32      C        0.37580    0.56538    0.58867    1.000
    H14      H        0.36000    0.53330    0.59340    1.000
    C33      C        0.42487    0.58412    0.59593    1.000
    C34      C        0.44834    0.63149    0.58901    1.000
    H15      H        0.48150    0.64420    0.59390    1.000
    C35      C        0.42280    0.66012    0.57483    1.000
    H16      H        0.43870    0.69220    0.57010    1.000
    Cu2      Cu       0.46026    0.46411    0.63667    1.000
    C36      C        0.32640    0.75900    0.53581    1.000
    C37      C        0.32923    0.81554    0.53508    1.000
    C38      C        0.30300    0.84364    0.52091    1.000
    H17      H        0.30500    0.88190    0.52040    1.000
    C39      C        0.27405    0.81522    0.50747    1.000
    C40      C        0.27123    0.75868    0.50820    1.000
    C41      C        0.29740    0.73057    0.52237    1.000
    C42      C        0.34960    0.72900    0.55080    1.000
    H18      H        0.36720    0.74810    0.56040    1.000
    C43      C        0.34710    0.67310    0.55175    1.000
    C44      C        0.31710    0.64380    0.53777    1.000
    H19      H        0.31470    0.60550    0.53810    1.000
    C45      C        0.29160    0.67320    0.52376    1.000
    H20      H        0.27010    0.65470    0.51500    1.000
    C46      C        0.36268    0.85081    0.54905    1.000
    C47      C        0.33758    0.89425    0.55800    1.000
    H21      H        0.30090    0.90240    0.55550    1.000
    C48      C        0.36675    0.92557    0.57063    1.000
    H22      H        0.34980    0.95490    0.57670    1.000
    C49      C        0.42103    0.91345    0.57431    1.000
    C50      C        0.44613    0.87001    0.56535    1.000
    H23      H        0.48280    0.86180    0.56780    1.000
    C51      C        0.41696    0.83869    0.55272    1.000
    H24      H        0.43390    0.80930    0.54670    1.000
    O9       O        0.49820    0.92929    0.59338    1.000
    C52      C        0.45190    0.94670    0.58928    1.000
    O10      O        0.24850    0.84080    0.49313    1.000
    C53      C        0.26830    0.89880    0.48960    1.000
    C54      C        0.23150    0.92730    0.47470    1.000
    C55      C        0.22650    0.89520    0.49690    1.000
    C56      C        0.17600    0.89220    0.50940    1.000
    O11      O        0.57020    0.49246    0.61681    1.000
    O12      O        0.50431    0.42732    0.61814    1.000
    O13      O        0.57390    0.01169    0.59470    1.000
    C57      C        0.55040    0.44890    0.61210    1.000
    C58      C        0.62622    0.35861    0.56756    1.000
    C59      C        0.64970    0.40599    0.57449    1.000
    H25      H        0.68280    0.41870    0.56960    1.000
    C60      C        0.62420    0.43462    0.58867    1.000
    H26      H        0.64000    0.46670    0.59340    1.000
    C61      C        0.57513    0.41588    0.59593    1.000
    C62      C        0.55166    0.36851    0.58901    1.000
    H27      H        0.51850    0.35580    0.59390    1.000
    C63      C        0.57720    0.33988    0.57483    1.000
    H28      H        0.56130    0.30780    0.57010    1.000
    Cu3      Cu       0.53974    0.53589    0.63667    1.000
    C64      C        0.67360    0.24100    0.53581    1.000
    C65      C        0.67077    0.18446    0.53508    1.000
    C66      C        0.69700    0.15636    0.52091    1.000
    H29      H        0.69500    0.11810    0.52040    1.000
    C67      C        0.72595    0.18478    0.50747    1.000
    C68      C        0.72877    0.24132    0.50820    1.000
    C69      C        0.70260    0.26943    0.52237    1.000
    C70      C        0.65040    0.27100    0.55080    1.000
    H30      H        0.63280    0.25190    0.56040    1.000
    C71      C        0.65290    0.32690    0.55175    1.000
    C72      C        0.68290    0.35620    0.53777    1.000
    H31      H        0.68530    0.39450    0.53810    1.000
    C73      C        0.70840    0.32680    0.52376    1.000
    H32      H        0.72990    0.34530    0.51500    1.000
    C74      C        0.63732    0.14919    0.54905    1.000
    C75      C        0.66242    0.10575    0.55800    1.000
    H33      H        0.69910    0.09760    0.55550    1.000
    C76      C        0.63325    0.07443    0.57063    1.000
    H34      H        0.65020    0.04510    0.57670    1.000
    C77      C        0.57897    0.08655    0.57431    1.000
    C78      C        0.55387    0.12999    0.56535    1.000
    H35      H        0.51720    0.13820    0.56780    1.000
    C79      C        0.58304    0.16131    0.55272    1.000
    H36      H        0.56610    0.19070    0.54670    1.000
    O14      O        0.50180    0.07071    0.59338    1.000
    C80      C        0.54810    0.05330    0.58928    1.000
    O15      O        0.75150    0.15920    0.49313    1.000
    C81      C        0.73170    0.10120    0.48960    1.000
    C82      C        0.76850    0.07270    0.47470    1.000
    C83      C        0.77350    0.10480    0.49690    1.000
    C84      C        0.82400    0.10780    0.50940    1.000
    O16      O        0.07020    0.99246    0.11681    1.000
    O17      O        0.00431    0.92732    0.11814    1.000
    O18      O        0.07390    0.51169    0.09470    1.000
    C85      C        0.05040    0.94890    0.11210    1.000
    C86      C        0.12622    0.85861    0.06756    1.000
    C87      C        0.14970    0.90599    0.07449    1.000
    H37      H        0.18280    0.91870    0.06960    1.000
    C88      C        0.12420    0.93462    0.08867    1.000
    H38      H        0.14000    0.96670    0.09340    1.000
    C89      C        0.07513    0.91588    0.09593    1.000
    C90      C        0.05166    0.86851    0.08901    1.000
    H39      H        0.01850    0.85580    0.09390    1.000
    C91      C        0.07720    0.83988    0.07483    1.000
    H40      H        0.06130    0.80780    0.07010    1.000
    Cu4      Cu       0.03974    0.03589    0.13667    1.000
    C92      C        0.17360    0.74100    0.03581    1.000
    C93      C        0.17077    0.68446    0.03508    1.000
    C94      C        0.19700    0.65636    0.02091    1.000
    H41      H        0.19500    0.61810    0.02040    1.000
    C95      C        0.22595    0.68478    0.00747    1.000
    C96      C        0.22877    0.74132    0.00820    1.000
    C97      C        0.20260    0.76943    0.02237    1.000
    C98      C        0.15040    0.77100    0.05080    1.000
    H42      H        0.13280    0.75190    0.06040    1.000
    C99      C        0.15290    0.82690    0.05175    1.000
    C100     C        0.18290    0.85620    0.03777    1.000
    H43      H        0.18530    0.89450    0.03810    1.000
    C101     C        0.20840    0.82680    0.02376    1.000
    H44      H        0.22990    0.84530    0.01500    1.000
    C102     C        0.13732    0.64919    0.04905    1.000
    C103     C        0.16242    0.60575    0.05800    1.000
    H45      H        0.19910    0.59760    0.05550    1.000
    C104     C        0.13325    0.57443    0.07063    1.000
    H46      H        0.15020    0.54510    0.07670    1.000
    C105     C        0.07897    0.58655    0.07431    1.000
    C106     C        0.05387    0.62999    0.06535    1.000
    H47      H        0.01720    0.63820    0.06780    1.000
    C107     C        0.08304    0.66131    0.05272    1.000
    H48      H        0.06610    0.69070    0.04670    1.000
    O19      O        0.00180    0.57071    0.09338    1.000
    C108     C        0.04810    0.55330    0.08928    1.000
    O20      O        0.25150    0.65920    0.99313    1.000
    C109     C        0.23170    0.60120    0.98960    1.000
    C110     C        0.26850    0.57270    0.97470    1.000
    C111     C        0.27350    0.60480    0.99690    1.000
    C112     C        0.32400    0.60780    0.00940    1.000
    O21      O        0.99246    0.42980    0.36681    1.000
    O22      O        0.92732    0.49569    0.36814    1.000
    O23      O        0.51169    0.42610    0.34470    1.000
    C113     C        0.94890    0.44960    0.36210    1.000
    C114     C        0.85861    0.37378    0.31756    1.000
    C115     C        0.90599    0.35030    0.32449    1.000
    H49      H        0.91870    0.31720    0.31960    1.000
    C116     C        0.93462    0.37580    0.33867    1.000
    H50      H        0.96670    0.36000    0.34340    1.000
    C117     C        0.91588    0.42487    0.34593    1.000
    C118     C        0.86851    0.44834    0.33901    1.000
    H51      H        0.85580    0.48150    0.34390    1.000
    C119     C        0.83988    0.42280    0.32483    1.000
    H52      H        0.80780    0.43870    0.32010    1.000
    Cu5      Cu       0.03589    0.46026    0.38667    1.000
    C120     C        0.74100    0.32640    0.28581    1.000
    C121     C        0.68446    0.32923    0.28508    1.000
    C122     C        0.65636    0.30300    0.27091    1.000
    H53      H        0.61810    0.30500    0.27040    1.000
    C123     C        0.68478    0.27405    0.25747    1.000
    C124     C        0.74132    0.27123    0.25820    1.000
    C125     C        0.76943    0.29740    0.27237    1.000
    C126     C        0.77100    0.34960    0.30080    1.000
    H54      H        0.75190    0.36720    0.31040    1.000
    C127     C        0.82690    0.34710    0.30175    1.000
    C128     C        0.85620    0.31710    0.28777    1.000
    H55      H        0.89450    0.31470    0.28810    1.000
    C129     C        0.82680    0.29160    0.27376    1.000
    H56      H        0.84530    0.27010    0.26500    1.000
    C130     C        0.64919    0.36268    0.29905    1.000
    C131     C        0.60575    0.33758    0.30800    1.000
    H57      H        0.59760    0.30090    0.30550    1.000
    C132     C        0.57443    0.36675    0.32063    1.000
    H58      H        0.54510    0.34980    0.32670    1.000
    C133     C        0.58655    0.42103    0.32431    1.000
    C134     C        0.62999    0.44613    0.31535    1.000
    H59      H        0.63820    0.48280    0.31780    1.000
    C135     C        0.66131    0.41696    0.30272    1.000
    H60      H        0.69070    0.43390    0.29670    1.000
    O24      O        0.57071    0.49820    0.34338    1.000
    C136     C        0.55330    0.45190    0.33928    1.000
    O25      O        0.65920    0.24850    0.24313    1.000
    C137     C        0.60120    0.26830    0.23960    1.000
    C138     C        0.57270    0.23150    0.22470    1.000
    C139     C        0.60480    0.22650    0.24690    1.000
    C140     C        0.60780    0.17600    0.25940    1.000
    O26      O        0.49246    0.92980    0.86681    1.000
    O27      O        0.42732    0.99569    0.86814    1.000
    O28      O        0.01169    0.92610    0.84470    1.000
    C141     C        0.44890    0.94960    0.86210    1.000
    C142     C        0.35861    0.87378    0.81756    1.000
    C143     C        0.40599    0.85030    0.82449    1.000
    H61      H        0.41870    0.81720    0.81960    1.000
    C144     C        0.43462    0.87580    0.83867    1.000
    H62      H        0.46670    0.86000    0.84340    1.000
    C145     C        0.41588    0.92487    0.84593    1.000
    C146     C        0.36851    0.94834    0.83901    1.000
    H63      H        0.35580    0.98150    0.84390    1.000
    C147     C        0.33988    0.92280    0.82483    1.000
    H64      H        0.30780    0.93870    0.82010    1.000
    Cu6      Cu       0.53589    0.96026    0.88667    1.000
    C148     C        0.24100    0.82640    0.78581    1.000
    C149     C        0.18446    0.82923    0.78508    1.000
    C150     C        0.15636    0.80300    0.77091    1.000
    H65      H        0.11810    0.80500    0.77040    1.000
    C151     C        0.18478    0.77405    0.75747    1.000
    C152     C        0.24132    0.77123    0.75820    1.000
    C153     C        0.26943    0.79740    0.77237    1.000
    C154     C        0.27100    0.84960    0.80080    1.000
    H66      H        0.25190    0.86720    0.81040    1.000
    C155     C        0.32690    0.84710    0.80175    1.000
    C156     C        0.35620    0.81710    0.78777    1.000
    H67      H        0.39450    0.81470    0.78810    1.000
    C157     C        0.32680    0.79160    0.77376    1.000
    H68      H        0.34530    0.77010    0.76500    1.000
    C158     C        0.14919    0.86268    0.79905    1.000
    C159     C        0.10575    0.83758    0.80800    1.000
    H69      H        0.09760    0.80090    0.80550    1.000
    C160     C        0.07443    0.86675    0.82063    1.000
    H70      H        0.04510    0.84980    0.82670    1.000
    C161     C        0.08655    0.92103    0.82431    1.000
    C162     C        0.12999    0.94613    0.81535    1.000
    H71      H        0.13820    0.98280    0.81780    1.000
    C163     C        0.16131    0.91696    0.80272    1.000
    H72      H        0.19070    0.93390    0.79670    1.000
    O29      O        0.07071    0.99820    0.84338    1.000
    C164     C        0.05330    0.95190    0.83928    1.000
    O30      O        0.15920    0.74850    0.74313    1.000
    C165     C        0.10120    0.76830    0.73960    1.000
    C166     C        0.07270    0.73150    0.72470    1.000
    C167     C        0.10480    0.72650    0.74690    1.000
    C168     C        0.10780    0.67600    0.75940    1.000
    O31      O        0.50754    0.07020    0.86681    1.000
    O32      O        0.57268    0.00431    0.86814    1.000
    O33      O        0.98831    0.07390    0.84470    1.000
    C169     C        0.55110    0.05040    0.86210    1.000
    C170     C        0.64139    0.12622    0.81756    1.000
    C171     C        0.59401    0.14970    0.82449    1.000
    H73      H        0.58130    0.18280    0.81960    1.000
    C172     C        0.56538    0.12420    0.83867    1.000
    H74      H        0.53330    0.14000    0.84340    1.000
    C173     C        0.58412    0.07513    0.84593    1.000
    C174     C        0.63149    0.05166    0.83901    1.000
    H75      H        0.64420    0.01850    0.84390    1.000
    C175     C        0.66012    0.07720    0.82483    1.000
    H76      H        0.69220    0.06130    0.82010    1.000
    Cu7      Cu       0.46411    0.03974    0.88667    1.000
    C176     C        0.75900    0.17360    0.78581    1.000
    C177     C        0.81554    0.17077    0.78508    1.000
    C178     C        0.84364    0.19700    0.77091    1.000
    H77      H        0.88190    0.19500    0.77040    1.000
    C179     C        0.81522    0.22595    0.75747    1.000
    C180     C        0.75868    0.22877    0.75820    1.000
    C181     C        0.73057    0.20260    0.77237    1.000
    C182     C        0.72900    0.15040    0.80080    1.000
    H78      H        0.74810    0.13280    0.81040    1.000
    C183     C        0.67310    0.15290    0.80175    1.000
    C184     C        0.64380    0.18290    0.78777    1.000
    H79      H        0.60550    0.18530    0.78810    1.000
    C185     C        0.67320    0.20840    0.77376    1.000
    H80      H        0.65470    0.22990    0.76500    1.000
    C186     C        0.85081    0.13732    0.79905    1.000
    C187     C        0.89425    0.16242    0.80800    1.000
    H81      H        0.90240    0.19910    0.80550    1.000
    C188     C        0.92557    0.13325    0.82063    1.000
    H82      H        0.95490    0.15020    0.82670    1.000
    C189     C        0.91345    0.07897    0.82431    1.000
    C190     C        0.87001    0.05387    0.81535    1.000
    H83      H        0.86180    0.01720    0.81780    1.000
    C191     C        0.83869    0.08304    0.80272    1.000
    H84      H        0.80930    0.06610    0.79670    1.000
    O34      O        0.92929    0.00180    0.84338    1.000
    C192     C        0.94670    0.04810    0.83928    1.000
    O35      O        0.84080    0.25150    0.74313    1.000
    C193     C        0.89880    0.23170    0.73960    1.000
    C194     C        0.92730    0.26850    0.72470    1.000
    C195     C        0.89520    0.27350    0.74690    1.000
    C196     C        0.89220    0.32400    0.75940    1.000
    O36      O        0.00754    0.57020    0.36681    1.000
    O37      O        0.07268    0.50431    0.36814    1.000
    O38      O        0.48831    0.57390    0.34470    1.000
    C197     C        0.05110    0.55040    0.36210    1.000
    C198     C        0.14139    0.62622    0.31756    1.000
    C199     C        0.09401    0.64970    0.32449    1.000
    H85      H        0.08130    0.68280    0.31960    1.000
    C200     C        0.06538    0.62420    0.33867    1.000
    H86      H        0.03330    0.64000    0.34340    1.000
    C201     C        0.08412    0.57513    0.34593    1.000
    C202     C        0.13149    0.55166    0.33901    1.000
    H87      H        0.14420    0.51850    0.34390    1.000
    C203     C        0.16012    0.57720    0.32483    1.000
    H88      H        0.19220    0.56130    0.32010    1.000
    Cu8      Cu       0.96411    0.53974    0.38667    1.000
    C204     C        0.25900    0.67360    0.28581    1.000
    C205     C        0.31554    0.67077    0.28508    1.000
    C206     C        0.34364    0.69700    0.27091    1.000
    H89      H        0.38190    0.69500    0.27040    1.000
    C207     C        0.31522    0.72595    0.25747    1.000
    C208     C        0.25868    0.72877    0.25820    1.000
    C209     C        0.23057    0.70260    0.27237    1.000
    C210     C        0.22900    0.65040    0.30080    1.000
    H90      H        0.24810    0.63280    0.31040    1.000
    C211     C        0.17310    0.65290    0.30175    1.000
    C212     C        0.14380    0.68290    0.28777    1.000
    H91      H        0.10550    0.68530    0.28810    1.000
    C213     C        0.17320    0.70840    0.27376    1.000
    H92      H        0.15470    0.72990    0.26500    1.000
    C214     C        0.35081    0.63732    0.29905    1.000
    C215     C        0.39425    0.66242    0.30800    1.000
    H93      H        0.40240    0.69910    0.30550    1.000
    C216     C        0.42557    0.63325    0.32063    1.000
    H94      H        0.45490    0.65020    0.32670    1.000
    C217     C        0.41345    0.57897    0.32431    1.000
    C218     C        0.37001    0.55387    0.31535    1.000
    H95      H        0.36180    0.51720    0.31780    1.000
    C219     C        0.33869    0.58304    0.30272    1.000
    H96      H        0.30930    0.56610    0.29670    1.000
    O39      O        0.42929    0.50180    0.34338    1.000
    C220     C        0.44670    0.54810    0.33928    1.000
    O40      O        0.34080    0.75150    0.24313    1.000
    C221     C        0.39880    0.73170    0.23960    1.000
    C222     C        0.42730    0.76850    0.22470    1.000
    C223     C        0.39520    0.77350    0.24690    1.000
    C224     C        0.39220    0.82400    0.25940    1.000
    O41      O        0.57020    0.00754    0.63319    1.000
    O42      O        0.50431    0.07268    0.63186    1.000
    O43      O        0.57390    0.48831    0.65530    1.000
    C225     C        0.55040    0.05110    0.63790    1.000
    C226     C        0.62622    0.14139    0.68244    1.000
    C227     C        0.64970    0.09401    0.67551    1.000
    H97      H        0.68280    0.08130    0.68040    1.000
    C228     C        0.62420    0.06538    0.66133    1.000
    H98      H        0.64000    0.03330    0.65660    1.000
    C229     C        0.57513    0.08412    0.65407    1.000
    C230     C        0.55166    0.13149    0.66099    1.000
    H99      H        0.51850    0.14420    0.65610    1.000
    C231     C        0.57720    0.16012    0.67517    1.000
    H100     H        0.56130    0.19220    0.67990    1.000
    Cu9      Cu       0.53974    0.96411    0.61333    1.000
    C232     C        0.67360    0.25900    0.71419    1.000
    C233     C        0.67077    0.31554    0.71492    1.000
    C234     C        0.69700    0.34364    0.72909    1.000
    H101     H        0.69500    0.38190    0.72960    1.000
    C235     C        0.72595    0.31522    0.74253    1.000
    C236     C        0.72877    0.25868    0.74180    1.000
    C237     C        0.70260    0.23057    0.72763    1.000
    C238     C        0.65040    0.22900    0.69920    1.000
    H102     H        0.63280    0.24810    0.68960    1.000
    C239     C        0.65290    0.17310    0.69825    1.000
    C240     C        0.68290    0.14380    0.71223    1.000
    H103     H        0.68530    0.10550    0.71190    1.000
    C241     C        0.70840    0.17320    0.72624    1.000
    H104     H        0.72990    0.15470    0.73500    1.000
    C242     C        0.63732    0.35081    0.70095    1.000
    C243     C        0.66242    0.39425    0.69200    1.000
    H105     H        0.69910    0.40240    0.69450    1.000
    C244     C        0.63325    0.42557    0.67937    1.000
    H106     H        0.65020    0.45490    0.67330    1.000
    C245     C        0.57897    0.41345    0.67569    1.000
    C246     C        0.55387    0.37001    0.68465    1.000
    H107     H        0.51720    0.36180    0.68220    1.000
    C247     C        0.58304    0.33869    0.69728    1.000
    H108     H        0.56610    0.30930    0.70330    1.000
    O44      O        0.50180    0.42929    0.65662    1.000
    C248     C        0.54810    0.44670    0.66072    1.000
    O45      O        0.75150    0.34080    0.75687    1.000
    C249     C        0.73170    0.39880    0.76040    1.000
    C250     C        0.76850    0.42730    0.77530    1.000
    C251     C        0.77350    0.39520    0.75310    1.000
    C252     C        0.82400    0.39220    0.74060    1.000
    O46      O        0.07020    0.50754    0.13319    1.000
    O47      O        0.00431    0.57268    0.13186    1.000
    O48      O        0.07390    0.98831    0.15530    1.000
    C253     C        0.05040    0.55110    0.13790    1.000
    C254     C        0.12622    0.64139    0.18244    1.000
    C255     C        0.14970    0.59401    0.17551    1.000
    H109     H        0.18280    0.58130    0.18040    1.000
    C256     C        0.12420    0.56538    0.16133    1.000
    H110     H        0.14000    0.53330    0.15660    1.000
    C257     C        0.07513    0.58412    0.15407    1.000
    C258     C        0.05166    0.63149    0.16099    1.000
    H111     H        0.01850    0.64420    0.15610    1.000
    C259     C        0.07720    0.66012    0.17517    1.000
    H112     H        0.06130    0.69220    0.17990    1.000
    Cu10     Cu       0.03974    0.46411    0.11333    1.000
    C260     C        0.17360    0.75900    0.21419    1.000
    C261     C        0.17077    0.81554    0.21492    1.000
    C262     C        0.19700    0.84364    0.22909    1.000
    H113     H        0.19500    0.88190    0.22960    1.000
    C263     C        0.22595    0.81522    0.24253    1.000
    C264     C        0.22877    0.75868    0.24180    1.000
    C265     C        0.20260    0.73057    0.22763    1.000
    C266     C        0.15040    0.72900    0.19920    1.000
    H114     H        0.13280    0.74810    0.18960    1.000
    C267     C        0.15290    0.67310    0.19825    1.000
    C268     C        0.18290    0.64380    0.21223    1.000
    H115     H        0.18530    0.60550    0.21190    1.000
    C269     C        0.20840    0.67320    0.22624    1.000
    H116     H        0.22990    0.65470    0.23500    1.000
    C270     C        0.13732    0.85081    0.20095    1.000
    C271     C        0.16242    0.89425    0.19200    1.000
    H117     H        0.19910    0.90240    0.19450    1.000
    C272     C        0.13325    0.92557    0.17937    1.000
    H118     H        0.15020    0.95490    0.17330    1.000
    C273     C        0.07897    0.91345    0.17569    1.000
    C274     C        0.05387    0.87001    0.18465    1.000
    H119     H        0.01720    0.86180    0.18220    1.000
    C275     C        0.08304    0.83869    0.19728    1.000
    H120     H        0.06610    0.80930    0.20330    1.000
    O49      O        0.00180    0.92929    0.15662    1.000
    C276     C        0.04810    0.94670    0.16072    1.000
    O50      O        0.25150    0.84080    0.25687    1.000
    C277     C        0.23170    0.89880    0.26040    1.000
    C278     C        0.26850    0.92730    0.27530    1.000
    C279     C        0.27350    0.89520    0.25310    1.000
    C280     C        0.32400    0.89220    0.24060    1.000
    O51      O        0.92980    0.49246    0.13319    1.000
    O52      O        0.99569    0.42732    0.13186    1.000
    O53      O        0.92610    0.01169    0.15530    1.000
    C281     C        0.94960    0.44890    0.13790    1.000
    C282     C        0.87378    0.35861    0.18244    1.000
    C283     C        0.85030    0.40599    0.17551    1.000
    H121     H        0.81720    0.41870    0.18040    1.000
    C284     C        0.87580    0.43462    0.16133    1.000
    H122     H        0.86000    0.46670    0.15660    1.000
    C285     C        0.92487    0.41588    0.15407    1.000
    C286     C        0.94834    0.36851    0.16099    1.000
    H123     H        0.98150    0.35580    0.15610    1.000
    C287     C        0.92280    0.33988    0.17517    1.000
    H124     H        0.93870    0.30780    0.17990    1.000
    Cu11     Cu       0.96026    0.53589    0.11333    1.000
    C288     C        0.82640    0.24100    0.21419    1.000
    C289     C        0.82923    0.18446    0.21492    1.000
    C290     C        0.80300    0.15636    0.22909    1.000
    H125     H        0.80500    0.11810    0.22960    1.000
    C291     C        0.77405    0.18478    0.24253    1.000
    C292     C        0.77123    0.24132    0.24180    1.000
    C293     C        0.79740    0.26943    0.22763    1.000
    C294     C        0.84960    0.27100    0.19920    1.000
    H126     H        0.86720    0.25190    0.18960    1.000
    C295     C        0.84710    0.32690    0.19825    1.000
    C296     C        0.81710    0.35620    0.21223    1.000
    H127     H        0.81470    0.39450    0.21190    1.000
    C297     C        0.79160    0.32680    0.22624    1.000
    H128     H        0.77010    0.34530    0.23500    1.000
    C298     C        0.86268    0.14919    0.20095    1.000
    C299     C        0.83758    0.10575    0.19200    1.000
    H129     H        0.80090    0.09760    0.19450    1.000
    C300     C        0.86675    0.07443    0.17937    1.000
    H130     H        0.84980    0.04510    0.17330    1.000
    C301     C        0.92103    0.08655    0.17569    1.000
    C302     C        0.94613    0.12999    0.18465    1.000
    H131     H        0.98280    0.13820    0.18220    1.000
    C303     C        0.91696    0.16131    0.19728    1.000
    H132     H        0.93390    0.19070    0.20330    1.000
    O54      O        0.99820    0.07071    0.15662    1.000
    C304     C        0.95190    0.05330    0.16072    1.000
    O55      O        0.74850    0.15920    0.25687    1.000
    C305     C        0.76830    0.10120    0.26040    1.000
    C306     C        0.73150    0.07270    0.27530    1.000
    C307     C        0.72650    0.10480    0.25310    1.000
    C308     C        0.67600    0.10780    0.24060    1.000
    O56      O        0.42980    0.99246    0.63319    1.000
    O57      O        0.49569    0.92732    0.63186    1.000
    O58      O        0.42610    0.51169    0.65530    1.000
    C309     C        0.44960    0.94890    0.63790    1.000
    C310     C        0.37378    0.85861    0.68244    1.000
    C311     C        0.35030    0.90599    0.67551    1.000
    H133     H        0.31720    0.91870    0.68040    1.000
    C312     C        0.37580    0.93462    0.66133    1.000
    H134     H        0.36000    0.96670    0.65660    1.000
    C313     C        0.42487    0.91588    0.65407    1.000
    C314     C        0.44834    0.86851    0.66099    1.000
    H135     H        0.48150    0.85580    0.65610    1.000
    C315     C        0.42280    0.83988    0.67517    1.000
    H136     H        0.43870    0.80780    0.67990    1.000
    Cu12     Cu       0.46026    0.03589    0.61333    1.000
    C316     C        0.32640    0.74100    0.71419    1.000
    C317     C        0.32923    0.68446    0.71492    1.000
    C318     C        0.30300    0.65636    0.72909    1.000
    H137     H        0.30500    0.61810    0.72960    1.000
    C319     C        0.27405    0.68478    0.74253    1.000
    C320     C        0.27123    0.74132    0.74180    1.000
    C321     C        0.29740    0.76943    0.72763    1.000
    C322     C        0.34960    0.77100    0.69920    1.000
    H138     H        0.36720    0.75190    0.68960    1.000
    C323     C        0.34710    0.82690    0.69825    1.000
    C324     C        0.31710    0.85620    0.71223    1.000
    H139     H        0.31470    0.89450    0.71190    1.000
    C325     C        0.29160    0.82680    0.72624    1.000
    H140     H        0.27010    0.84530    0.73500    1.000
    C326     C        0.36268    0.64919    0.70095    1.000
    C327     C        0.33758    0.60575    0.69200    1.000
    H141     H        0.30090    0.59760    0.69450    1.000
    C328     C        0.36675    0.57443    0.67937    1.000
    H142     H        0.34980    0.54510    0.67330    1.000
    C329     C        0.42103    0.58655    0.67569    1.000
    C330     C        0.44613    0.62999    0.68465    1.000
    H143     H        0.48280    0.63820    0.68220    1.000
    C331     C        0.41696    0.66131    0.69728    1.000
    H144     H        0.43390    0.69070    0.70330    1.000
    O59      O        0.49820    0.57071    0.65662    1.000
    C332     C        0.45190    0.55330    0.66072    1.000
    O60      O        0.24850    0.65920    0.75687    1.000
    C333     C        0.26830    0.60120    0.76040    1.000
    C334     C        0.23150    0.57270    0.77530    1.000
    C335     C        0.22650    0.60480    0.75310    1.000
    C336     C        0.17600    0.60780    0.74060    1.000
    O61      O        0.50754    0.42980    0.38319    1.000
    O62      O        0.57268    0.49569    0.38186    1.000
    O63      O        0.98831    0.42610    0.40530    1.000
    C337     C        0.55110    0.44960    0.38790    1.000
    C338     C        0.64139    0.37378    0.43244    1.000
    C339     C        0.59401    0.35030    0.42551    1.000
    H145     H        0.58130    0.31720    0.43040    1.000
    C340     C        0.56538    0.37580    0.41133    1.000
    H146     H        0.53330    0.36000    0.40660    1.000
    C341     C        0.58412    0.42487    0.40407    1.000
    C342     C        0.63149    0.44834    0.41099    1.000
    H147     H        0.64420    0.48150    0.40610    1.000
    C343     C        0.66012    0.42280    0.42517    1.000
    H148     H        0.69220    0.43870    0.42990    1.000
    Cu13     Cu       0.46411    0.46026    0.36333    1.000
    C344     C        0.75900    0.32640    0.46419    1.000
    C345     C        0.81554    0.32923    0.46492    1.000
    C346     C        0.84364    0.30300    0.47909    1.000
    H149     H        0.88190    0.30500    0.47960    1.000
    C347     C        0.81522    0.27405    0.49253    1.000
    C348     C        0.75868    0.27123    0.49180    1.000
    C349     C        0.73057    0.29740    0.47763    1.000
    C350     C        0.72900    0.34960    0.44920    1.000
    H150     H        0.74810    0.36720    0.43960    1.000
    C351     C        0.67310    0.34710    0.44825    1.000
    C352     C        0.64380    0.31710    0.46223    1.000
    H151     H        0.60550    0.31470    0.46190    1.000
    C353     C        0.67320    0.29160    0.47624    1.000
    H152     H        0.65470    0.27010    0.48500    1.000
    C354     C        0.85081    0.36268    0.45095    1.000
    C355     C        0.89425    0.33758    0.44200    1.000
    H153     H        0.90240    0.30090    0.44450    1.000
    C356     C        0.92557    0.36675    0.42937    1.000
    H154     H        0.95490    0.34980    0.42330    1.000
    C357     C        0.91345    0.42103    0.42569    1.000
    C358     C        0.87001    0.44613    0.43465    1.000
    H155     H        0.86180    0.48280    0.43220    1.000
    C359     C        0.83869    0.41696    0.44728    1.000
    H156     H        0.80930    0.43390    0.45330    1.000
    O64      O        0.92929    0.49820    0.40662    1.000
    C360     C        0.94670    0.45190    0.41072    1.000
    O65      O        0.84080    0.24850    0.50687    1.000
    C361     C        0.89880    0.26830    0.51040    1.000
    C362     C        0.92730    0.23150    0.52530    1.000
    C363     C        0.89520    0.22650    0.50310    1.000
    C364     C        0.89220    0.17600    0.49060    1.000
    O66      O        0.00754    0.92980    0.88319    1.000
    O67      O        0.07268    0.99569    0.88186    1.000
    O68      O        0.48831    0.92610    0.90530    1.000
    C365     C        0.05110    0.94960    0.88790    1.000
    C366     C        0.14139    0.87378    0.93244    1.000
    C367     C        0.09401    0.85030    0.92551    1.000
    H157     H        0.08130    0.81720    0.93040    1.000
    C368     C        0.06538    0.87580    0.91133    1.000
    H158     H        0.03330    0.86000    0.90660    1.000
    C369     C        0.08412    0.92487    0.90407    1.000
    C370     C        0.13149    0.94834    0.91099    1.000
    H159     H        0.14420    0.98150    0.90610    1.000
    C371     C        0.16012    0.92280    0.92517    1.000
    H160     H        0.19220    0.93870    0.92990    1.000
    Cu14     Cu       0.96411    0.96026    0.86333    1.000
    C372     C        0.25900    0.82640    0.96419    1.000
    C373     C        0.31554    0.82923    0.96492    1.000
    C374     C        0.34364    0.80300    0.97909    1.000
    H161     H        0.38190    0.80500    0.97960    1.000
    C375     C        0.31522    0.77405    0.99253    1.000
    C376     C        0.25868    0.77123    0.99180    1.000
    C377     C        0.23057    0.79740    0.97763    1.000
    C378     C        0.22900    0.84960    0.94920    1.000
    H162     H        0.24810    0.86720    0.93960    1.000
    C379     C        0.17310    0.84710    0.94825    1.000
    C380     C        0.14380    0.81710    0.96223    1.000
    H163     H        0.10550    0.81470    0.96190    1.000
    C381     C        0.17320    0.79160    0.97624    1.000
    H164     H        0.15470    0.77010    0.98500    1.000
    C382     C        0.35081    0.86268    0.95095    1.000
    C383     C        0.39425    0.83758    0.94200    1.000
    H165     H        0.40240    0.80090    0.94450    1.000
    C384     C        0.42557    0.86675    0.92937    1.000
    H166     H        0.45490    0.84980    0.92330    1.000
    C385     C        0.41345    0.92103    0.92569    1.000
    C386     C        0.37001    0.94613    0.93465    1.000
    H167     H        0.36180    0.98280    0.93220    1.000
    C387     C        0.33869    0.91696    0.94728    1.000
    H168     H        0.30930    0.93390    0.95330    1.000
    O69      O        0.42929    0.99820    0.90662    1.000
    C388     C        0.44670    0.95190    0.91072    1.000
    O70      O        0.34080    0.74850    0.00687    1.000
    C389     C        0.39880    0.76830    0.01040    1.000
    C390     C        0.42730    0.73150    0.02530    1.000
    C391     C        0.39520    0.72650    0.00310    1.000
    C392     C        0.39220    0.67600    0.99060    1.000
    O71      O        0.99246    0.07020    0.88319    1.000
    O72      O        0.92732    0.00431    0.88186    1.000
    O73      O        0.51169    0.07390    0.90530    1.000
    C393     C        0.94890    0.05040    0.88790    1.000
    C394     C        0.85861    0.12622    0.93244    1.000
    C395     C        0.90599    0.14970    0.92551    1.000
    H169     H        0.91870    0.18280    0.93040    1.000
    C396     C        0.93462    0.12420    0.91133    1.000
    H170     H        0.96670    0.14000    0.90660    1.000
    C397     C        0.91588    0.07513    0.90407    1.000
    C398     C        0.86851    0.05166    0.91099    1.000
    H171     H        0.85580    0.01850    0.90610    1.000
    C399     C        0.83988    0.07720    0.92517    1.000
    H172     H        0.80780    0.06130    0.92990    1.000
    Cu15     Cu       0.03589    0.03974    0.86333    1.000
    C400     C        0.74100    0.17360    0.96419    1.000
    C401     C        0.68446    0.17077    0.96492    1.000
    C402     C        0.65636    0.19700    0.97909    1.000
    H173     H        0.61810    0.19500    0.97960    1.000
    C403     C        0.68478    0.22595    0.99253    1.000
    C404     C        0.74132    0.22877    0.99180    1.000
    C405     C        0.76943    0.20260    0.97763    1.000
    C406     C        0.77100    0.15040    0.94920    1.000
    H174     H        0.75190    0.13280    0.93960    1.000
    C407     C        0.82690    0.15290    0.94825    1.000
    C408     C        0.85620    0.18290    0.96223    1.000
    H175     H        0.89450    0.18530    0.96190    1.000
    C409     C        0.82680    0.20840    0.97624    1.000
    H176     H        0.84530    0.22990    0.98500    1.000
    C410     C        0.64919    0.13732    0.95095    1.000
    C411     C        0.60575    0.16242    0.94200    1.000
    H177     H        0.59760    0.19910    0.94450    1.000
    C412     C        0.57443    0.13325    0.92937    1.000
    H178     H        0.54510    0.15020    0.92330    1.000
    C413     C        0.58655    0.07897    0.92569    1.000
    C414     C        0.62999    0.05387    0.93465    1.000
    H179     H        0.63820    0.01720    0.93220    1.000
    C415     C        0.66131    0.08304    0.94728    1.000
    H180     H        0.69070    0.06610    0.95330    1.000
    O74      O        0.57071    0.00180    0.90662    1.000
    C416     C        0.55330    0.04810    0.91072    1.000
    O75      O        0.65920    0.25150    0.00687    1.000
    C417     C        0.60120    0.23170    0.01040    1.000
    C418     C        0.57270    0.26850    0.02530    1.000
    C419     C        0.60480    0.27350    0.00310    1.000
    C420     C        0.60780    0.32400    0.99060    1.000
    O76      O        0.49246    0.57020    0.38319    1.000
    O77      O        0.42732    0.50431    0.38186    1.000
    O78      O        0.01169    0.57390    0.40530    1.000
    C421     C        0.44890    0.55040    0.38790    1.000
    C422     C        0.35861    0.62622    0.43244    1.000
    C423     C        0.40599    0.64970    0.42551    1.000
    H181     H        0.41870    0.68280    0.43040    1.000
    C424     C        0.43462    0.62420    0.41133    1.000
    H182     H        0.46670    0.64000    0.40660    1.000
    C425     C        0.41588    0.57513    0.40407    1.000
    C426     C        0.36851    0.55166    0.41099    1.000
    H183     H        0.35580    0.51850    0.40610    1.000
    C427     C        0.33988    0.57720    0.42517    1.000
    H184     H        0.30780    0.56130    0.42990    1.000
    Cu16     Cu       0.53589    0.53974    0.36333    1.000
    C428     C        0.24100    0.67360    0.46419    1.000
    C429     C        0.18446    0.67077    0.46492    1.000
    C430     C        0.15636    0.69700    0.47909    1.000
    H185     H        0.11810    0.69500    0.47960    1.000
    C431     C        0.18478    0.72595    0.49253    1.000
    C432     C        0.24132    0.72877    0.49180    1.000
    C433     C        0.26943    0.70260    0.47763    1.000
    C434     C        0.27100    0.65040    0.44920    1.000
    H186     H        0.25190    0.63280    0.43960    1.000
    C435     C        0.32690    0.65290    0.44825    1.000
    C436     C        0.35620    0.68290    0.46223    1.000
    H187     H        0.39450    0.68530    0.46190    1.000
    C437     C        0.32680    0.70840    0.47624    1.000
    H188     H        0.34530    0.72990    0.48500    1.000
    C438     C        0.14919    0.63732    0.45095    1.000
    C439     C        0.10575    0.66242    0.44200    1.000
    H189     H        0.09760    0.69910    0.44450    1.000
    C440     C        0.07443    0.63325    0.42937    1.000
    H190     H        0.04510    0.65020    0.42330    1.000
    C441     C        0.08655    0.57897    0.42569    1.000
    C442     C        0.12999    0.55387    0.43465    1.000
    H191     H        0.13820    0.51720    0.43220    1.000
    C443     C        0.16131    0.58304    0.44728    1.000
    H192     H        0.19070    0.56610    0.45330    1.000
    O79      O        0.07071    0.50180    0.40662    1.000
    C444     C        0.05330    0.54810    0.41072    1.000
    O80      O        0.15920    0.75150    0.50687    1.000
    C445     C        0.10120    0.73170    0.51040    1.000
    C446     C        0.07270    0.76850    0.52530    1.000
    C447     C        0.10480    0.77350    0.50310    1.000
    C448     C        0.10780    0.82400    0.49060    1.000
