# CIF file generated by openbabel 3.1.0, see https://openbabel.org
data_I
_chemical_name_common 'image0'
_cell_length_a 5.003
_cell_length_b 8.5434
_cell_length_c 12.4336
_cell_angle_alpha 92.99
_cell_angle_beta 97.138
_cell_angle_gamma 91.465
_space_group_name_H-M_alt 'P 1'
_space_group_name_Hall 'P 1'
loop_
    _symmetry_equiv_pos_as_xyz
    x,y,z
loop_
    _atom_site_label
    _atom_site_type_symbol
    _atom_site_fract_x
    _atom_site_fract_y
    _atom_site_fract_z
    _atom_site_occupancy
    C1       C        0.04050    0.08500    0.51730    1.000
    Zn1      Zn       0.60630    0.13674    0.94045    1.000
    Zn2      Zn       0.11380    0.36276    0.13950    1.000
    Zn3      Zn       0.85530    0.96820    0.70233    1.000
    P1       P        0.61780    0.17610    0.20030    1.000
    P2       P        0.04180    0.28790    0.87690    1.000
    O1       O        0.33910    0.27500    0.87670    1.000
    O2       O        0.54510    0.08560    0.09030    1.000
    O3       O        0.88130    0.13670    0.82870    1.000
    O4       O        0.95480    0.30510    0.99300    1.000
    O5       O        0.94810    0.42620    0.80990    1.000
    O6       O        0.49010    0.33640    0.19180    1.000
    O7       O        0.92840    0.20130    0.22150    1.000
    O8       O        0.52760    0.08020    0.28970    1.000
    O9       O        0.98990    0.13680    0.60990    1.000
    O10      O        0.14300    0.16350    0.45070    1.000
    C2       C        0.95950    0.91500    0.48270    1.000
    Zn4      Zn       0.39370    0.86326    0.05955    1.000
    Zn5      Zn       0.88620    0.63724    0.86050    1.000
    Zn6      Zn       0.14470    0.03180    0.29767    1.000
    P3       P        0.38220    0.82390    0.79970    1.000
    P4       P        0.95820    0.71210    0.12310    1.000
    O11      O        0.66090    0.72500    0.12330    1.000
    O12      O        0.45490    0.91440    0.90970    1.000
    O13      O        0.11870    0.86330    0.17130    1.000
    O14      O        0.04520    0.69490    0.00700    1.000
    O15      O        0.05190    0.57380    0.19010    1.000
    O16      O        0.50990    0.66360    0.80820    1.000
    O17      O        0.07160    0.79870    0.77850    1.000
    O18      O        0.47240    0.91980    0.71030    1.000
    O19      O        0.01010    0.86320    0.39010    1.000
    O20      O        0.85700    0.83650    0.54930    1.000
