data_functionalizedCrystal
_audit_creation_method	'EQeq! by Chris Wilmer'
_symmetry_space_group_name_H-M	'P1'
_symmetry_Int_Tables_number	1
_symmetry_cell_setting	triclinic
loop_
_symmetry_equiv_pos_as_xyz
  x,y,z
_cell_length_a	29.705
_cell_length_b	12.9699
_cell_length_c	13.8285
_cell_angle_alpha	90
_cell_angle_beta	95.247
_cell_angle_gamma	90
loop_
_atom_site_label
_atom_site_type_symbol
_atom_site_fract_x
_atom_site_fract_y
_atom_site_fract_z
_atom_site_charge
Mof_Eu	Eu	0.31438	0.80006	0.03656	2.152
Mof_C 	C 	0.60264	0.7552	0.5391	0.305
Mof_C 	C 	0.5565	0.7343	0.5684	-0.111
Mof_C 	C 	0.54185	0.6339	0.5797	0.036
Mof_H 	H 	0.5615	0.5794	0.5711	0.028
Mof_C 	C 	0.49846	0.6135	0.6036	-0.124
Mof_H 	H 	0.489	0.5457	0.6107	0.077
Mof_C 	C 	0.52668	0.8148	0.581	0.03
Mof_H 	H 	0.5359	0.8825	0.5728	0.013
Mof_C 	C 	0.46898	0.6945	0.617	0.073
Mof_C 	C 	0.4834	0.795	0.6056	-0.129
Mof_H 	H 	0.4639	0.8495	0.6146	0.06
Mof_C 	C 	0.42188	0.6763	0.6376	-0.014
Mof_C 	C 	0.25575	0.4378	0.555	0.444
Mof_C 	C 	0.28525	0.5103	0.6152	-0.147
Mof_C 	C 	0.26577	0.5766	0.679	0.07
Mof_H 	H 	0.2346	0.5779	0.6812	0.019
Mof_C 	C 	0.29325	0.6407	0.7394	-0.14
Mof_C 	C 	0.33916	0.6447	0.7303	-0.017
Mof_H 	H 	0.3574	0.6891	0.7695	0.052
Mof_C 	C 	0.35826	0.5825	0.6627	0.042
Mof_C 	C 	0.33155	0.5121	0.608	-0.021
Mof_H 	H 	0.3446	0.4664	0.5669	0.036
Mof_C 	C 	0.27269	0.7019	0.8175	0.467
Mof_C 	C 	0.32	0.0159	0.1855	0.134
Mof_H 	H 	0.2887	0.0138	0.1731	-0.023
Mof_C 	C 	0.3868	0.0602	0.2478	-0.128
Mof_H 	H 	0.4103	0.0934	0.2844	0.083
Mof_C 	C 	0.3907	0.9825	0.1834	0.244
Mof_C 	C 	0.43299	0.9318	0.1566	-0.714
Mof_H 	H 	0.4254	0.8794	0.1088	0.218
Mof_H 	H 	0.4486	0.9011	0.2133	0.216
Mof_H 	H 	0.4521	0.9824	0.1305	0.229
Mof_N 	N 	0.40512	0.5877	0.6464	-0.115
Mof_N 	N 	0.34772	0.955	0.1423	-0.285
Mof_N 	N 	0.34153	0.0805	0.2485	-0.162
Mof_O 	O 	0.61635	0.8477	0.5366	-0.455
Mof_O 	O 	0.62702	0.681	0.5165	-0.445
Mof_O 	O 	0.27225	0.3546	0.5254	-0.627
Mof_O 	O 	0.21507	0.4598	0.5352	-0.489
Mof_O 	O 	0.23316	0.6816	0.8333	-0.551
Mof_O 	O 	0.29786	0.7696	0.8624	-0.496
Mof_H 	H 	0.4033	0.739	0.645	0.039
Mof_H 	H 	0.3268	0.129	0.29	0.118
Mof_Eu	Eu	0.81438	0.30006	0.03656	2.156
Mof_C 	C 	0.10264	0.2552	0.5391	0.306
Mof_C 	C 	0.0565	0.2343	0.5684	-0.11
Mof_C 	C 	0.04185	0.1339	0.5797	0.037
Mof_H 	H 	0.0615	0.0794	0.5711	0.029
Mof_C 	C 	0.99846	0.1135	0.6036	-0.122
Mof_H 	H 	0.989	0.0457	0.6107	0.078
Mof_C 	C 	0.02668	0.3148	0.581	0.031
Mof_H 	H 	0.0359	0.3825	0.5728	0.013
Mof_C 	C 	0.96898	0.1945	0.617	0.072
Mof_C 	C 	0.9834	0.295	0.6056	-0.128
Mof_H 	H 	0.9639	0.3495	0.6146	0.059
Mof_C 	C 	0.92188	0.1763	0.6376	-0.014
Mof_C 	C 	0.75575	0.9378	0.555	0.444
Mof_C 	C 	0.78525	0.0103	0.6152	-0.148
Mof_C 	C 	0.76577	0.0766	0.679	0.07
Mof_H 	H 	0.7346	0.0779	0.6812	0.019
Mof_C 	C 	0.79325	0.1407	0.7394	-0.14
Mof_C 	C 	0.83916	0.1447	0.7303	-0.017
Mof_H 	H 	0.8574	0.1891	0.7695	0.052
Mof_C 	C 	0.85826	0.0825	0.6627	0.042
Mof_C 	C 	0.83155	0.0121	0.608	-0.022
Mof_H 	H 	0.8446	0.9664	0.5669	0.036
Mof_C 	C 	0.77269	0.2019	0.8175	0.467
Mof_C 	C 	0.82	0.5159	0.1855	0.133
Mof_H 	H 	0.7887	0.5138	0.1731	-0.023
Mof_C 	C 	0.8868	0.5602	0.2478	-0.131
Mof_H 	H 	0.9103	0.5934	0.2844	0.083
Mof_C 	C 	0.8907	0.4825	0.1834	0.247
Mof_C 	C 	0.93299	0.4318	0.1566	-0.717
Mof_H 	H 	0.9254	0.3794	0.1088	0.219
Mof_H 	H 	0.9486	0.4011	0.2133	0.217
Mof_H 	H 	0.9521	0.4824	0.1305	0.23
Mof_N 	N 	0.90512	0.0877	0.6464	-0.115
Mof_N 	N 	0.84772	0.455	0.1423	-0.285
Mof_N 	N 	0.84153	0.5805	0.2485	-0.162
Mof_O 	O 	0.11635	0.3477	0.5366	-0.455
Mof_O 	O 	0.12702	0.181	0.5165	-0.445
Mof_O 	O 	0.77225	0.8546	0.5254	-0.627
Mof_O 	O 	0.71507	0.9598	0.5352	-0.489
Mof_O 	O 	0.73316	0.1816	0.8333	-0.551
Mof_O 	O 	0.79786	0.2696	0.8624	-0.496
Mof_H 	H 	0.9033	0.239	0.645	0.039
Mof_H 	H 	0.8268	0.629	0.29	0.118
Mof_Eu	Eu	0.68562	0.80006	0.46344	2.155
Mof_C 	C 	0.39736	0.7552	0.9609	0.306
Mof_C 	C 	0.4435	0.7343	0.9316	-0.11
Mof_C 	C 	0.45815	0.6339	0.9203	0.037
Mof_H 	H 	0.4385	0.5794	0.9289	0.029
Mof_C 	C 	0.50154	0.6135	0.8964	-0.123
Mof_H 	H 	0.511	0.5457	0.8893	0.078
Mof_C 	C 	0.47332	0.8148	0.919	0.031
Mof_H 	H 	0.4641	0.8825	0.9272	0.014
Mof_C 	C 	0.53102	0.6945	0.883	0.073
Mof_C 	C 	0.5166	0.795	0.8944	-0.128
Mof_H 	H 	0.5361	0.8495	0.8854	0.06
Mof_C 	C 	0.57812	0.6763	0.8624	-0.014
Mof_C 	C 	0.74425	0.4378	0.945	0.444
Mof_C 	C 	0.71475	0.5103	0.8848	-0.147
Mof_C 	C 	0.73423	0.5766	0.821	0.07
Mof_H 	H 	0.7654	0.5779	0.8188	0.019
Mof_C 	C 	0.70675	0.6407	0.7606	-0.14
Mof_C 	C 	0.66084	0.6447	0.7697	-0.017
Mof_H 	H 	0.6426	0.6891	0.7305	0.052
Mof_C 	C 	0.64174	0.5825	0.8373	0.042
Mof_C 	C 	0.66845	0.5121	0.892	-0.021
Mof_H 	H 	0.6554	0.4664	0.9331	0.036
Mof_C 	C 	0.72731	0.7019	0.6825	0.467
Mof_C 	C 	0.68	0.0159	0.3145	0.133
Mof_H 	H 	0.7113	0.0138	0.3269	-0.023
Mof_C 	C 	0.6132	0.0602	0.2522	-0.129
Mof_H 	H 	0.5897	0.0934	0.2156	0.083
Mof_C 	C 	0.6093	0.9825	0.3166	0.245
Mof_C 	C 	0.56701	0.9318	0.3434	-0.715
Mof_H 	H 	0.5746	0.8794	0.3912	0.218
Mof_H 	H 	0.5514	0.9011	0.2867	0.216
Mof_H 	H 	0.5479	0.9824	0.3695	0.23
Mof_N 	N 	0.59488	0.5877	0.8536	-0.115
Mof_N 	N 	0.65228	0.955	0.3577	-0.285
Mof_N 	N 	0.65847	0.0805	0.2515	-0.162
Mof_O 	O 	0.38365	0.8477	0.9634	-0.454
Mof_O 	O 	0.37298	0.681	0.9835	-0.445
Mof_O 	O 	0.72775	0.3546	0.9746	-0.627
Mof_O 	O 	0.78493	0.4598	0.9648	-0.488
Mof_O 	O 	0.76684	0.6816	0.6667	-0.551
Mof_O 	O 	0.70214	0.7696	0.6376	-0.496
Mof_H 	H 	0.5967	0.739	0.855	0.039
Mof_H 	H 	0.6732	0.129	0.21	0.118
Mof_Eu	Eu	0.18562	0.30006	0.46344	2.155
Mof_C 	C 	0.89736	0.2552	0.9609	0.307
Mof_C 	C 	0.9435	0.2343	0.9316	-0.112
Mof_C 	C 	0.95815	0.1339	0.9203	0.04
Mof_H 	H 	0.9385	0.0794	0.9289	0.028
Mof_C 	C 	0.00154	0.1135	0.8964	-0.126
Mof_H 	H 	0.011	0.0457	0.8893	0.078
Mof_C 	C 	0.97332	0.3148	0.919	0.034
Mof_H 	H 	0.9641	0.3825	0.9272	0.013
Mof_C 	C 	0.03102	0.1945	0.883	0.074
Mof_C 	C 	0.0166	0.295	0.8944	-0.131
Mof_H 	H 	0.0361	0.3495	0.8854	0.061
Mof_C 	C 	0.07812	0.1763	0.8624	-0.015
Mof_C 	C 	0.24425	0.9378	0.945	0.445
Mof_C 	C 	0.21475	0.0103	0.8848	-0.148
Mof_C 	C 	0.23423	0.0766	0.821	0.07
Mof_H 	H 	0.2654	0.0779	0.8188	0.019
Mof_C 	C 	0.20675	0.1407	0.7606	-0.14
Mof_C 	C 	0.16084	0.1447	0.7697	-0.018
Mof_H 	H 	0.1426	0.1891	0.7305	0.052
Mof_C 	C 	0.14174	0.0825	0.8373	0.042
Mof_C 	C 	0.16845	0.0121	0.892	-0.024
Mof_H 	H 	0.1554	0.9664	0.9331	0.037
Mof_C 	C 	0.22731	0.2019	0.6825	0.467
Mof_C 	C 	0.18	0.5159	0.3145	0.133
Mof_H 	H 	0.2113	0.5138	0.3269	-0.023
Mof_C 	C 	0.1132	0.5602	0.2522	-0.131
Mof_H 	H 	0.0897	0.5934	0.2156	0.084
Mof_C 	C 	0.1093	0.4825	0.3166	0.247
Mof_C 	C 	0.06701	0.4318	0.3434	-0.718
Mof_H 	H 	0.0746	0.3794	0.3912	0.219
Mof_H 	H 	0.0514	0.4011	0.2867	0.217
Mof_H 	H 	0.0479	0.4824	0.3695	0.231
Mof_N 	N 	0.09488	0.0877	0.8536	-0.115
Mof_N 	N 	0.15228	0.455	0.3577	-0.285
Mof_N 	N 	0.15847	0.5805	0.2515	-0.162
Mof_O 	O 	0.88365	0.3477	0.9634	-0.455
Mof_O 	O 	0.87298	0.181	0.9835	-0.446
Mof_O 	O 	0.22775	0.8546	0.9746	-0.627
Mof_O 	O 	0.28493	0.9598	0.9648	-0.488
Mof_O 	O 	0.26684	0.1816	0.6667	-0.551
Mof_O 	O 	0.20214	0.2696	0.6376	-0.496
Mof_H 	H 	0.0967	0.239	0.855	0.039
Mof_H 	H 	0.1732	0.629	0.21	0.118
Mof_Eu	Eu	0.68562	0.19994	0.96344	2.153
Mof_C 	C 	0.39736	0.2448	0.4609	0.306
Mof_C 	C 	0.4435	0.2657	0.4316	-0.11
Mof_C 	C 	0.45815	0.3661	0.4203	0.037
Mof_H 	H 	0.4385	0.4206	0.4289	0.029
Mof_C 	C 	0.50154	0.3865	0.3964	-0.123
Mof_H 	H 	0.511	0.4543	0.3893	0.078
Mof_C 	C 	0.47332	0.1852	0.419	0.031
Mof_H 	H 	0.4641	0.1175	0.4272	0.013
Mof_C 	C 	0.53102	0.3055	0.383	0.073
Mof_C 	C 	0.5166	0.205	0.3944	-0.129
Mof_H 	H 	0.5361	0.1505	0.3854	0.06
Mof_C 	C 	0.57812	0.3237	0.3624	-0.014
Mof_C 	C 	0.74425	0.5622	0.445	0.444
Mof_C 	C 	0.71475	0.4897	0.3848	-0.147
Mof_C 	C 	0.73423	0.4234	0.321	0.07
Mof_H 	H 	0.7654	0.4221	0.3188	0.019
Mof_C 	C 	0.70675	0.3593	0.2606	-0.14
Mof_C 	C 	0.66084	0.3553	0.2697	-0.017
Mof_H 	H 	0.6426	0.3109	0.2305	0.052
Mof_C 	C 	0.64174	0.4175	0.3373	0.042
Mof_C 	C 	0.66845	0.4879	0.392	-0.021
Mof_H 	H 	0.6554	0.5336	0.4331	0.036
Mof_C 	C 	0.72731	0.2981	0.1825	0.467
Mof_C 	C 	0.68	0.9841	0.8145	0.134
Mof_H 	H 	0.7113	0.9862	0.8269	-0.023
Mof_C 	C 	0.6132	0.9398	0.7522	-0.128
Mof_H 	H 	0.5897	0.9066	0.7156	0.083
Mof_C 	C 	0.6093	0.0175	0.8166	0.244
Mof_C 	C 	0.56701	0.0682	0.8434	-0.714
Mof_H 	H 	0.5746	0.1206	0.8912	0.218
Mof_H 	H 	0.5514	0.0989	0.7867	0.216
Mof_H 	H 	0.5479	0.0176	0.8695	0.229
Mof_N 	N 	0.59488	0.4123	0.3536	-0.115
Mof_N 	N 	0.65228	0.045	0.8577	-0.285
Mof_N 	N 	0.65847	0.9195	0.7515	-0.162
Mof_O 	O 	0.38365	0.1523	0.4634	-0.455
Mof_O 	O 	0.37298	0.319	0.4835	-0.445
Mof_O 	O 	0.72775	0.6454	0.4746	-0.627
Mof_O 	O 	0.78493	0.5402	0.4648	-0.489
Mof_O 	O 	0.76684	0.3184	0.1667	-0.551
Mof_O 	O 	0.70214	0.2304	0.1376	-0.496
Mof_H 	H 	0.5967	0.261	0.355	0.039
Mof_H 	H 	0.6732	0.871	0.71	0.118
Mof_Eu	Eu	0.18562	0.69994	0.96344	2.156
Mof_C 	C 	0.89736	0.7448	0.4609	0.306
Mof_C 	C 	0.9435	0.7657	0.4316	-0.11
Mof_C 	C 	0.95815	0.8661	0.4203	0.037
Mof_H 	H 	0.9385	0.9206	0.4289	0.029
Mof_C 	C 	0.00154	0.8865	0.3964	-0.122
Mof_H 	H 	0.011	0.9543	0.3893	0.078
Mof_C 	C 	0.97332	0.6852	0.419	0.031
Mof_H 	H 	0.9641	0.6175	0.4272	0.013
Mof_C 	C 	0.03102	0.8055	0.383	0.072
Mof_C 	C 	0.0166	0.705	0.3944	-0.128
Mof_H 	H 	0.0361	0.6505	0.3854	0.059
Mof_C 	C 	0.07812	0.8237	0.3624	-0.014
Mof_C 	C 	0.24425	0.0622	0.445	0.444
Mof_C 	C 	0.21475	0.9897	0.3848	-0.148
Mof_C 	C 	0.23423	0.9234	0.321	0.07
Mof_H 	H 	0.2654	0.9221	0.3188	0.019
Mof_C 	C 	0.20675	0.8593	0.2606	-0.14
Mof_C 	C 	0.16084	0.8553	0.2697	-0.017
Mof_H 	H 	0.1426	0.8109	0.2305	0.052
Mof_C 	C 	0.14174	0.9175	0.3373	0.042
Mof_C 	C 	0.16845	0.9879	0.392	-0.022
Mof_H 	H 	0.1554	0.0336	0.4331	0.036
Mof_C 	C 	0.22731	0.7981	0.1825	0.467
Mof_C 	C 	0.18	0.4841	0.8145	0.133
Mof_H 	H 	0.2113	0.4862	0.8269	-0.023
Mof_C 	C 	0.1132	0.4398	0.7522	-0.131
Mof_H 	H 	0.0897	0.4066	0.7156	0.083
Mof_C 	C 	0.1093	0.5175	0.8166	0.247
Mof_C 	C 	0.06701	0.5682	0.8434	-0.717
Mof_H 	H 	0.0746	0.6206	0.8912	0.219
Mof_H 	H 	0.0514	0.5989	0.7867	0.217
Mof_H 	H 	0.0479	0.5176	0.8695	0.23
Mof_N 	N 	0.09488	0.9123	0.3536	-0.115
Mof_N 	N 	0.15228	0.545	0.8577	-0.285
Mof_N 	N 	0.15847	0.4195	0.7515	-0.162
Mof_O 	O 	0.88365	0.6523	0.4634	-0.455
Mof_O 	O 	0.87298	0.819	0.4835	-0.445
Mof_O 	O 	0.22775	0.1454	0.4746	-0.627
Mof_O 	O 	0.28493	0.0402	0.4648	-0.489
Mof_O 	O 	0.26684	0.8184	0.1667	-0.551
Mof_O 	O 	0.20214	0.7304	0.1376	-0.496
Mof_H 	H 	0.0967	0.761	0.355	0.039
Mof_H 	H 	0.1732	0.371	0.71	0.118
Mof_Eu	Eu	0.31438	0.19994	0.53656	2.155
Mof_C 	C 	0.60264	0.2448	0.0391	0.306
Mof_C 	C 	0.5565	0.2657	0.0684	-0.11
Mof_C 	C 	0.54185	0.3661	0.0797	0.037
Mof_H 	H 	0.5615	0.4206	0.0711	0.029
Mof_C 	C 	0.49846	0.3865	0.1036	-0.123
Mof_H 	H 	0.489	0.4543	0.1107	0.078
Mof_C 	C 	0.52668	0.1852	0.081	0.031
Mof_H 	H 	0.5359	0.1175	0.0728	0.014
Mof_C 	C 	0.46898	0.3055	0.117	0.073
Mof_C 	C 	0.4834	0.205	0.1056	-0.128
Mof_H 	H 	0.4639	0.1505	0.1146	0.06
Mof_C 	C 	0.42188	0.3237	0.1376	-0.014
Mof_C 	C 	0.25575	0.5622	0.055	0.444
Mof_C 	C 	0.28525	0.4897	0.1152	-0.147
Mof_C 	C 	0.26577	0.4234	0.179	0.07
Mof_H 	H 	0.2346	0.4221	0.1812	0.019
Mof_C 	C 	0.29325	0.3593	0.2394	-0.14
Mof_C 	C 	0.33916	0.3553	0.2303	-0.017
Mof_H 	H 	0.3574	0.3109	0.2695	0.052
Mof_C 	C 	0.35826	0.4175	0.1627	0.042
Mof_C 	C 	0.33155	0.4879	0.108	-0.021
Mof_H 	H 	0.3446	0.5336	0.0669	0.036
Mof_C 	C 	0.27269	0.2981	0.3175	0.467
Mof_C 	C 	0.32	0.9841	0.6855	0.133
Mof_H 	H 	0.2887	0.9862	0.6731	-0.023
Mof_C 	C 	0.3868	0.9398	0.7478	-0.129
Mof_H 	H 	0.4103	0.9066	0.7844	0.083
Mof_C 	C 	0.3907	0.0175	0.6834	0.245
Mof_C 	C 	0.43299	0.0682	0.6566	-0.715
Mof_H 	H 	0.4254	0.1206	0.6088	0.218
Mof_H 	H 	0.4486	0.0989	0.7133	0.216
Mof_H 	H 	0.4521	0.0176	0.6305	0.23
Mof_N 	N 	0.40512	0.4123	0.1464	-0.115
Mof_N 	N 	0.34772	0.045	0.6423	-0.285
Mof_N 	N 	0.34153	0.9195	0.7485	-0.162
Mof_O 	O 	0.61635	0.1523	0.0366	-0.454
Mof_O 	O 	0.62702	0.319	0.0165	-0.445
Mof_O 	O 	0.27225	0.6454	0.0254	-0.627
Mof_O 	O 	0.21507	0.5402	0.0352	-0.488
Mof_O 	O 	0.23316	0.3184	0.3333	-0.551
Mof_O 	O 	0.29786	0.2304	0.3624	-0.496
Mof_H 	H 	0.4033	0.261	0.145	0.039
Mof_H 	H 	0.3268	0.871	0.79	0.118
Mof_Eu	Eu	0.81438	0.69994	0.53656	2.155
Mof_C 	C 	0.10264	0.7448	0.0391	0.307
Mof_C 	C 	0.0565	0.7657	0.0684	-0.112
Mof_C 	C 	0.04185	0.8661	0.0797	0.04
Mof_H 	H 	0.0615	0.9206	0.0711	0.028
Mof_C 	C 	0.99846	0.8865	0.1036	-0.126
Mof_H 	H 	0.989	0.9543	0.1107	0.078
Mof_C 	C 	0.02668	0.6852	0.081	0.034
Mof_H 	H 	0.0359	0.6175	0.0728	0.013
Mof_C 	C 	0.96898	0.8055	0.117	0.074
Mof_C 	C 	0.9834	0.705	0.1056	-0.131
Mof_H 	H 	0.9639	0.6505	0.1146	0.061
Mof_C 	C 	0.92188	0.8237	0.1376	-0.015
Mof_C 	C 	0.75575	0.0622	0.055	0.445
Mof_C 	C 	0.78525	0.9897	0.1152	-0.148
Mof_C 	C 	0.76577	0.9234	0.179	0.07
Mof_H 	H 	0.7346	0.9221	0.1812	0.019
Mof_C 	C 	0.79325	0.8593	0.2394	-0.14
Mof_C 	C 	0.83916	0.8553	0.2303	-0.018
Mof_H 	H 	0.8574	0.8109	0.2695	0.052
Mof_C 	C 	0.85826	0.9175	0.1627	0.042
Mof_C 	C 	0.83155	0.9879	0.108	-0.024
Mof_H 	H 	0.8446	0.0336	0.0669	0.037
Mof_C 	C 	0.77269	0.7981	0.3175	0.467
Mof_C 	C 	0.82	0.4841	0.6855	0.133
Mof_H 	H 	0.7887	0.4862	0.6731	-0.023
Mof_C 	C 	0.8868	0.4398	0.7478	-0.131
Mof_H 	H 	0.9103	0.4066	0.7844	0.084
Mof_C 	C 	0.8907	0.5175	0.6834	0.247
Mof_C 	C 	0.93299	0.5682	0.6566	-0.718
Mof_H 	H 	0.9254	0.6206	0.6088	0.219
Mof_H 	H 	0.9486	0.5989	0.7133	0.217
Mof_H 	H 	0.9521	0.5176	0.6305	0.231
Mof_N 	N 	0.90512	0.9123	0.1464	-0.115
Mof_N 	N 	0.84772	0.545	0.6423	-0.285
Mof_N 	N 	0.84153	0.4195	0.7485	-0.162
Mof_O 	O 	0.11635	0.6523	0.0366	-0.455
Mof_O 	O 	0.12702	0.819	0.0165	-0.446
Mof_O 	O 	0.77225	0.1454	0.0254	-0.627
Mof_O 	O 	0.71507	0.0402	0.0352	-0.488
Mof_O 	O 	0.73316	0.8184	0.3333	-0.551
Mof_O 	O 	0.79786	0.7304	0.3624	-0.496
Mof_H 	H 	0.9033	0.761	0.145	0.039
Mof_H 	H 	0.8268	0.371	0.79	0.118
_end
