data_functionalizedCrystal
_audit_creation_method	'EQeq! by Chris Wilmer'
_symmetry_space_group_name_H-M	'P1'
_symmetry_Int_Tables_number	1
_symmetry_cell_setting	triclinic
loop_
_symmetry_equiv_pos_as_xyz
  x,y,z
_cell_length_a	12.3743
_cell_length_b	14.5842
_cell_length_c	21.9435
_cell_angle_alpha	90
_cell_angle_beta	104.821
_cell_angle_gamma	90
loop_
_atom_site_label
_atom_site_type_symbol
_atom_site_fract_x
_atom_site_fract_y
_atom_site_fract_z
_atom_site_charge
Mof_Dy	Dy	0.06649	0.38594	0.39647	1.95
Mof_O 	O 	0.2362	0.47642	0.44423	-0.398
Mof_O 	O 	0.2364	0.40064	0.35803	-0.402
Mof_O 	O 	0.8099	0.26279	0.0473	-0.402
Mof_O 	O 	0.9884	0.23104	0.08295	-0.416
Mof_O 	O 	0.0277	0.29698	0.30278	-0.418
Mof_O 	O 	0.0204	0.47991	0.30284	-0.418
Mof_O 	O 	0.0422	0.38579	0.5004	-0.421
Mof_O 	O 	0.9943	0.46704	0.57585	-0.396
Mof_N 	N 	0.7194	0.6437	0.33239	-0.118
Mof_N 	N 	0.7919	0.7783	0.04063	-0.105
Mof_C 	C 	0.2822	0.4572	0.39975	0.329
Mof_C 	C 	0.3901	0.5018	0.39846	-0.123
Mof_C 	C 	0.4437	0.479	0.35188	0.068
Mof_H 	H 	0.4106	0.4349	0.3209	0.018
Mof_C 	C 	0.543	0.5189	0.3498	-0.159
Mof_H 	H 	0.5778	0.5019	0.3176	0.087
Mof_C 	C 	0.5931	0.5839	0.3942	0.129
Mof_C 	C 	0.5391	0.6095	0.4394	-0.158
Mof_H 	H 	0.5705	0.6558	0.4691	0.091
Mof_C 	C 	0.4394	0.5682	0.44166	0.07
Mof_H 	H 	0.4041	0.5859	0.4736	0.024
Mof_C 	C 	0.7072	0.6212	0.3966	-0.146
Mof_H 	H 	0.7203	0.6772	0.423	0.088
Mof_H 	H 	0.7644	0.5753	0.4164	0.082
Mof_C 	C 	0.7928	0.5987	0.30797	0.089
Mof_H 	H 	0.8387	0.5527	0.3322	0.008
Mof_C 	C 	0.8027	0.6179	0.2495	-0.14
Mof_H 	H 	0.8525	0.5827	0.2324	0.099
Mof_C 	C 	0.7429	0.6863	0.21454	0.069
Mof_C 	C 	0.6697	0.7359	0.2418	-0.125
Mof_H 	H 	0.6272	0.7853	0.2196	0.071
Mof_C 	C 	0.6601	0.7123	0.3009	0.07
Mof_H 	H 	0.6105	0.7456	0.3193	0.01
Mof_C 	C 	0.7572	0.7146	0.15193	0.034
Mof_C 	C 	0.8503	0.6869	0.13164	-0.091
Mof_H 	H 	0.9022	0.6447	0.1561	0.079
Mof_C 	C 	0.8667	0.7208	0.07634	0.048
Mof_H 	H 	0.9313	0.7035	0.0633	0.046
Mof_C 	C 	0.6979	0.8015	0.05711	0.056
Mof_H 	H 	0.6444	0.8398	0.03	0.017
Mof_C 	C 	0.6785	0.7716	0.11128	-0.104
Mof_H 	H 	0.6118	0.7889	0.1222	0.064
Mof_C 	C 	0.8152	0.8234	0.98518	-0.158
Mof_H 	H 	0.7506	0.8164	0.9481	0.078
Mof_H 	H 	0.8815	0.7953	0.9753	0.097
Mof_C 	C 	0.8369	0.9253	0.00096	0.146
Mof_C 	C 	0.9259	0.9513	0.04974	-0.186
Mof_H 	H 	0.9765	0.906	0.0715	0.108
Mof_C 	C 	0.9424	0.0408	0.06721	0.124
Mof_H 	H 	0.0039	0.0571	0.1013	-0.007
Mof_C 	C 	0.8708	0.1086	0.03596	-0.142
Mof_C 	C 	0.7799	0.084	0.98584	0.078
Mof_H 	H 	0.7301	0.1296	0.9639	0.013
Mof_C 	C 	0.7633	0.9915	0.96831	-0.168
Mof_H 	H 	0.7022	0.9741	0.9344	0.086
Mof_C 	C 	0.8897	0.2064	0.05557	0.347
Mof_C 	C 	0.0118	0.458	0.52223	0.206
Mof_Dy	Dy	0.93351	0.38594	0.10353	1.965
Mof_O 	O 	0.7638	0.47642	0.05577	-0.399
Mof_O 	O 	0.7636	0.40064	0.14197	-0.402
Mof_O 	O 	0.1901	0.26279	0.4527	-0.399
Mof_O 	O 	0.0116	0.23104	0.41705	-0.427
Mof_O 	O 	0.9723	0.29698	0.19722	-0.404
Mof_O 	O 	0.9796	0.47991	0.19716	-0.405
Mof_O 	O 	0.9578	0.38579	0.9996	-0.434
Mof_O 	O 	0.0057	0.46704	0.92415	-0.442
Mof_N 	N 	0.2806	0.6437	0.16761	-0.121
Mof_N 	N 	0.2081	0.7783	0.45937	-0.111
Mof_C 	C 	0.7178	0.4572	0.10025	0.327
Mof_C 	C 	0.6099	0.5018	0.10154	-0.122
Mof_C 	C 	0.5563	0.479	0.14812	0.066
Mof_H 	H 	0.5894	0.4349	0.1791	0.019
Mof_C 	C 	0.457	0.5189	0.1502	-0.157
Mof_H 	H 	0.4222	0.5019	0.1824	0.085
Mof_C 	C 	0.4069	0.5839	0.1058	0.127
Mof_C 	C 	0.4609	0.6095	0.0606	-0.157
Mof_H 	H 	0.4295	0.6558	0.0309	0.09
Mof_C 	C 	0.5606	0.5682	0.05834	0.068
Mof_H 	H 	0.5959	0.5859	0.0264	0.025
Mof_C 	C 	0.2928	0.6212	0.1034	-0.145
Mof_H 	H 	0.2797	0.6772	0.077	0.085
Mof_H 	H 	0.2356	0.5753	0.0836	0.079
Mof_C 	C 	0.2072	0.5987	0.19203	0.088
Mof_H 	H 	0.1613	0.5527	0.1678	-0.001
Mof_C 	C 	0.1973	0.6179	0.2505	-0.145
Mof_H 	H 	0.1475	0.5827	0.2676	0.096
Mof_C 	C 	0.2571	0.6863	0.28546	0.068
Mof_C 	C 	0.3303	0.7359	0.2582	-0.126
Mof_H 	H 	0.3728	0.7853	0.2804	0.07
Mof_C 	C 	0.3399	0.7123	0.1991	0.069
Mof_H 	H 	0.3895	0.7456	0.1807	0.01
Mof_C 	C 	0.2428	0.7146	0.34807	0.034
Mof_C 	C 	0.1497	0.6869	0.36836	-0.095
Mof_H 	H 	0.0978	0.6447	0.3439	0.076
Mof_C 	C 	0.1333	0.7208	0.42366	0.049
Mof_H 	H 	0.0687	0.7035	0.4367	0.037
Mof_C 	C 	0.3021	0.8015	0.44289	0.057
Mof_H 	H 	0.3556	0.8398	0.47	0.017
Mof_C 	C 	0.3215	0.7716	0.38872	-0.105
Mof_H 	H 	0.3882	0.7889	0.3778	0.064
Mof_C 	C 	0.1848	0.8234	0.51482	-0.136
Mof_H 	H 	0.2494	0.8164	0.5519	0.07
Mof_H 	H 	0.1185	0.7953	0.5247	0.081
Mof_C 	C 	0.1631	0.9253	0.49904	0.107
Mof_C 	C 	0.0741	0.9513	0.45026	-0.124
Mof_H 	H 	0.0235	0.906	0.4285	0.076
Mof_C 	C 	0.0576	0.0408	0.43279	0.018
Mof_H 	H 	0.9961	0.0571	0.3987	0.053
Mof_C 	C 	0.1292	0.1086	0.46404	-0.101
Mof_C 	C 	0.2201	0.084	0.51416	0.042
Mof_H 	H 	0.2699	0.1296	0.5361	0.023
Mof_C 	C 	0.2367	0.9915	0.53169	-0.137
Mof_H 	H 	0.2978	0.9741	0.5656	0.075
Mof_C 	C 	0.1103	0.2064	0.44443	0.328
Mof_C 	C 	0.9882	0.458	0.97777	0.293
Mof_Dy	Dy	0.93351	0.61406	0.60353	1.966
Mof_O 	O 	0.7638	0.52358	0.55577	-0.399
Mof_O 	O 	0.7636	0.59936	0.64197	-0.402
Mof_O 	O 	0.1901	0.73721	0.9527	-0.399
Mof_O 	O 	0.0116	0.76896	0.91705	-0.428
Mof_O 	O 	0.9723	0.70302	0.69722	-0.404
Mof_O 	O 	0.9796	0.52009	0.69716	-0.404
Mof_O 	O 	0.9578	0.61421	0.4996	-0.434
Mof_O 	O 	0.0057	0.53296	0.42415	-0.441
Mof_N 	N 	0.2806	0.3563	0.66761	-0.121
Mof_N 	N 	0.2081	0.2217	0.95937	-0.111
Mof_C 	C 	0.7178	0.5428	0.60025	0.327
Mof_C 	C 	0.6099	0.4982	0.60154	-0.122
Mof_C 	C 	0.5563	0.521	0.64812	0.066
Mof_H 	H 	0.5894	0.5651	0.6791	0.019
Mof_C 	C 	0.457	0.4811	0.6502	-0.157
Mof_H 	H 	0.4222	0.4981	0.6824	0.085
Mof_C 	C 	0.4069	0.4161	0.6058	0.127
Mof_C 	C 	0.4609	0.3905	0.5606	-0.157
Mof_H 	H 	0.4295	0.3442	0.5309	0.09
Mof_C 	C 	0.5606	0.4318	0.55834	0.068
Mof_H 	H 	0.5959	0.4141	0.5264	0.025
Mof_C 	C 	0.2928	0.3788	0.6034	-0.144
Mof_H 	H 	0.2797	0.3228	0.577	0.085
Mof_H 	H 	0.2356	0.4247	0.5836	0.079
Mof_C 	C 	0.2072	0.4013	0.69203	0.088
Mof_H 	H 	0.1613	0.4473	0.6678	-0.002
Mof_C 	C 	0.1973	0.3821	0.7505	-0.145
Mof_H 	H 	0.1475	0.4173	0.7676	0.095
Mof_C 	C 	0.2571	0.3137	0.78546	0.068
Mof_C 	C 	0.3303	0.2641	0.7582	-0.126
Mof_H 	H 	0.3728	0.2147	0.7804	0.07
Mof_C 	C 	0.3399	0.2877	0.6991	0.069
Mof_H 	H 	0.3895	0.2544	0.6807	0.01
Mof_C 	C 	0.2428	0.2854	0.84807	0.034
Mof_C 	C 	0.1497	0.3131	0.86836	-0.095
Mof_H 	H 	0.0978	0.3553	0.8439	0.076
Mof_C 	C 	0.1333	0.2792	0.92366	0.049
Mof_H 	H 	0.0687	0.2965	0.9367	0.037
Mof_C 	C 	0.3021	0.1985	0.94289	0.057
Mof_H 	H 	0.3556	0.1602	0.97	0.016
Mof_C 	C 	0.3215	0.2284	0.88872	-0.106
Mof_H 	H 	0.3882	0.2111	0.8778	0.064
Mof_C 	C 	0.1848	0.1766	0.01482	-0.134
Mof_H 	H 	0.2494	0.1836	0.0519	0.069
Mof_H 	H 	0.1185	0.2047	0.0247	0.081
Mof_C 	C 	0.1631	0.0747	0.99904	0.104
Mof_C 	C 	0.0741	0.0487	0.95026	-0.122
Mof_H 	H 	0.0235	0.094	0.9285	0.075
Mof_C 	C 	0.0576	0.9592	0.93279	0.016
Mof_H 	H 	0.9961	0.9429	0.8987	0.055
Mof_C 	C 	0.1292	0.8914	0.96404	-0.099
Mof_C 	C 	0.2201	0.916	0.01416	0.04
Mof_H 	H 	0.2699	0.8704	0.0361	0.024
Mof_C 	C 	0.2367	0.0085	0.03169	-0.134
Mof_H 	H 	0.2978	0.0259	0.0656	0.074
Mof_C 	C 	0.1103	0.7936	0.94443	0.327
Mof_C 	C 	0.9882	0.542	0.47777	0.292
Mof_Dy	Dy	0.06649	0.61406	0.89647	1.948
Mof_O 	O 	0.2362	0.52358	0.94423	-0.399
Mof_O 	O 	0.2364	0.59936	0.85803	-0.403
Mof_O 	O 	0.8099	0.73721	0.5473	-0.403
Mof_O 	O 	0.9884	0.76896	0.58295	-0.417
Mof_O 	O 	0.0277	0.70302	0.80278	-0.419
Mof_O 	O 	0.0204	0.52009	0.80284	-0.419
Mof_O 	O 	0.0422	0.61421	0.0004	-0.421
Mof_O 	O 	0.9943	0.53296	0.07585	-0.398
Mof_N 	N 	0.7194	0.3563	0.83239	-0.119
Mof_N 	N 	0.7919	0.2217	0.54063	-0.106
Mof_C 	C 	0.2822	0.5428	0.89975	0.328
Mof_C 	C 	0.3901	0.4982	0.89846	-0.124
Mof_C 	C 	0.4437	0.521	0.85188	0.068
Mof_H 	H 	0.4106	0.5651	0.8209	0.018
Mof_C 	C 	0.543	0.4811	0.8498	-0.159
Mof_H 	H 	0.5778	0.4981	0.8176	0.087
Mof_C 	C 	0.5931	0.4161	0.8942	0.129
Mof_C 	C 	0.5391	0.3905	0.9394	-0.158
Mof_H 	H 	0.5705	0.3442	0.9691	0.091
Mof_C 	C 	0.4394	0.4318	0.94166	0.07
Mof_H 	H 	0.4041	0.4141	0.9736	0.024
Mof_C 	C 	0.7072	0.3788	0.8966	-0.146
Mof_H 	H 	0.7203	0.3228	0.923	0.088
Mof_H 	H 	0.7644	0.4247	0.9164	0.082
Mof_C 	C 	0.7928	0.4013	0.80797	0.089
Mof_H 	H 	0.8387	0.4473	0.8322	0.008
Mof_C 	C 	0.8027	0.3821	0.7495	-0.14
Mof_H 	H 	0.8525	0.4173	0.7324	0.099
Mof_C 	C 	0.7429	0.3137	0.71454	0.069
Mof_C 	C 	0.6697	0.2641	0.7418	-0.125
Mof_H 	H 	0.6272	0.2147	0.7196	0.071
Mof_C 	C 	0.6601	0.2877	0.8009	0.07
Mof_H 	H 	0.6105	0.2544	0.8193	0.01
Mof_C 	C 	0.7572	0.2854	0.65193	0.034
Mof_C 	C 	0.8503	0.3131	0.63164	-0.091
Mof_H 	H 	0.9022	0.3553	0.6561	0.079
Mof_C 	C 	0.8667	0.2792	0.57634	0.047
Mof_H 	H 	0.9313	0.2965	0.5633	0.047
Mof_C 	C 	0.6979	0.1985	0.55711	0.056
Mof_H 	H 	0.6444	0.1602	0.53	0.017
Mof_C 	C 	0.6785	0.2284	0.61128	-0.104
Mof_H 	H 	0.6118	0.2111	0.6222	0.064
Mof_C 	C 	0.8152	0.1766	0.48518	-0.16
Mof_H 	H 	0.7506	0.1836	0.4481	0.079
Mof_H 	H 	0.8815	0.2047	0.4753	0.097
Mof_C 	C 	0.8369	0.0747	0.50096	0.149
Mof_C 	C 	0.9259	0.0487	0.54974	-0.188
Mof_H 	H 	0.9765	0.094	0.5715	0.109
Mof_C 	C 	0.9424	0.9592	0.56721	0.127
Mof_H 	H 	0.0039	0.9429	0.6013	-0.009
Mof_C 	C 	0.8708	0.8914	0.53596	-0.144
Mof_C 	C 	0.7799	0.916	0.48584	0.08
Mof_H 	H 	0.7301	0.8704	0.4639	0.012
Mof_C 	C 	0.7633	0.0085	0.46831	-0.17
Mof_H 	H 	0.7022	0.0259	0.4344	0.087
Mof_C 	C 	0.8897	0.7936	0.55557	0.347
Mof_C 	C 	0.0118	0.542	0.02223	0.207
Mof_C 	C 	-1.48479e-17	0.335	0.25	0.254
Mof_C 	C 	2.08741e-33	0.4414	0.25	0.234
Mof_C 	C 	6.26223e-33	0.665	0.75	0.253
Mof_C 	C 	6.26223e-33	0.5586	0.75	0.233
_end
