data_functionalizedCrystal
_audit_creation_method	'EQeq! by Chris Wilmer'
_symmetry_space_group_name_H-M	'P1'
_symmetry_Int_Tables_number	1
_symmetry_cell_setting	triclinic
loop_
_symmetry_equiv_pos_as_xyz
  x,y,z
_cell_length_a	5.585
_cell_length_b	11.359
_cell_length_c	14.624
_cell_angle_alpha	98.03
_cell_angle_beta	99
_cell_angle_gamma	103.86
loop_
_atom_site_label
_atom_site_type_symbol
_atom_site_fract_x
_atom_site_fract_y
_atom_site_fract_z
_atom_site_charge
Mof_U 	U 	0.261	0.20118	0.42509	-0.026
Mof_U 	U 	0.4596	0.24486	0.07682	0.018
Mof_Na	Na	0.882	0.2522	0.8657	2.041
Mof_O 	O 	0.067	0.339	0.346	-0.204
Mof_O 	O 	0.709	0.119	0.159	-0.19
Mof_O 	O 	0.233	0.035	0.0949	-0.252
Mof_O 	O 	0.636	0.207	0.9948	-0.33
Mof_O 	O 	0.713	0.458	0.0806	-0.306
Mof_O 	O 	0.99	0.103	0.28	-0.209
Mof_O 	O 	0.8	0.357	0.2228	-0.22
Mof_O 	O 	0.907	0.871	0.0478	-0.45
Mof_O 	O 	0.511	0.146	0.5568	-0.249
Mof_O 	O 	0.737	0.635	0.029	-0.511
Mof_O 	O 	0.689	0.006	0.6093	-0.243
Mof_C 	C 	0.046	0.975	0.042	0.258
Mof_C 	C 	0.913	0.299	0.271	0.239
Mof_C 	C 	0.861	0.162	0.233	0.215
Mof_C 	C 	0.623	0.527	0.031	0.202
Mof_C 	C 	0.558	0.043	0.546	0.218
Mof_U 	U 	0.739	0.79882	0.57491	-0.027
Mof_U 	U 	0.5404	0.75514	0.92318	0.017
Mof_Na	Na	0.118	0.7478	0.1343	2.041
Mof_O 	O 	0.933	0.661	0.654	-0.204
Mof_O 	O 	0.291	0.881	0.841	-0.19
Mof_O 	O 	0.767	0.965	0.9051	-0.252
Mof_O 	O 	0.364	0.793	0.0052	-0.33
Mof_O 	O 	0.287	0.542	0.9194	-0.306
Mof_O 	O 	0.01	0.897	0.72	-0.209
Mof_O 	O 	0.2	0.643	0.7772	-0.22
Mof_O 	O 	0.093	0.129	0.9522	-0.45
Mof_O 	O 	0.489	0.854	0.4432	-0.249
Mof_O 	O 	0.263	0.365	0.971	-0.511
Mof_O 	O 	0.311	0.994	0.3907	-0.243
Mof_C 	C 	0.954	0.025	0.958	0.258
Mof_C 	C 	0.087	0.701	0.729	0.239
Mof_C 	C 	0.139	0.838	0.767	0.215
Mof_C 	C 	0.377	0.473	0.969	0.202
Mof_C 	C 	0.442	0.957	0.454	0.218
_end
