data_functionalizedCrystal
_audit_creation_method	'EQeq! by Chris Wilmer'
_symmetry_space_group_name_H-M	'P1'
_symmetry_Int_Tables_number	1
_symmetry_cell_setting	triclinic
loop_
_symmetry_equiv_pos_as_xyz
  x,y,z
_cell_length_a	10.587
_cell_length_b	26.0488
_cell_length_c	11.7631
_cell_angle_alpha	90
_cell_angle_beta	98.326
_cell_angle_gamma	90
loop_
_atom_site_label
_atom_site_type_symbol
_atom_site_fract_x
_atom_site_fract_y
_atom_site_fract_z
_atom_site_charge
Mof_Gd	Gd	0.85279	0.91132	0.86264	1.734
Mof_Gd	Gd	0.36022	0.78671	0.9454	1.721
Mof_Gd	Gd	0.77483	0.03433	0.46097	1.407
Mof_P 	P 	0.91061	0.91279	0.56003	0.536
Mof_N 	N 	0.8682	0.83693	0.384	-0.137
Mof_H 	H 	0.8192	0.8612	0.3432	0.108
Mof_O 	O 	0.8603	0.91444	0.6731	-0.484
Mof_O 	O 	0.8426	0.94945	0.4711	-0.45
Mof_O 	O 	0.0536	0.91823	0.571	-0.477
Mof_O 	O 	0.5328	0.84447	0.0194	-0.375
Mof_O 	O 	0.7138	0.88375	0.9955	-0.394
Mof_O 	O 	0.5249	0.79983	0.8145	-0.384
Mof_O 	O 	0.693	0.84712	0.7827	-0.387
Mof_O 	O 	0.133	0.78634	0.942	-0.387
Mof_O 	O 	0.9532	0.83204	0.9081	-0.415
Mof_O 	O 	0.2706	0.87256	0.9322	-0.365
Mof_O 	O 	0.0897	0.91541	0.8727	-0.369
Mof_O 	O 	0.3358	0.715	0.82	-0.411
Mof_O 	O 	0.3527	0.69041	0.6419	-0.384
Mof_O 	O 	0.2639	0.80843	0.7416	-0.358
Mof_O 	O 	0.293	0.78501	0.5639	-0.376
Mof_O 	O 	0.9383	0.94368	0.0504	-0.392
Mof_O 	O 	0.0783	0.9999	0.1406	-0.406
Mof_O 	O 	0.6357	0.00979	0.6008	-0.393
Mof_O 	O 	0.4344	0.99506	0.6265	-0.394
Mof_C 	C 	0.8692	0.84731	0.5099	-0.223
Mof_H 	H 	0.9291	0.8238	0.5529	0.103
Mof_H 	H 	0.7852	0.8393	0.5288	0.098
Mof_C 	C 	0.8107	0.78512	0.3527	-0.031
Mof_H 	H 	0.7249	0.7837	0.3725	0.034
Mof_H 	H 	0.8612	0.7587	0.3959	0.06
Mof_C 	C 	0.8063	0.7755	0.2246	-0.135
Mof_H 	H 	0.7717	0.7415	0.2062	0.074
Mof_H 	H 	0.7495	0.8003	0.1821	0.079
Mof_C 	C 	0.9357	0.7794	0.1871	-0.034
Mof_H 	H 	0.9276	0.7758	0.1042	0.046
Mof_H 	H 	0.99	0.752	0.2218	0.05
Mof_C 	C 	0.9955	0.8312	0.2231	-0.151
Mof_H 	H 	0.0815	0.8325	0.2039	0.08
Mof_H 	H 	0.9462	0.8584	0.1815	0.088
Mof_C 	C 	0.9996	0.8394	0.3514	-0.003
Mof_H 	H 	0.0529	0.8133	0.3931	0.048
Mof_H 	H 	0.037	0.8727	0.3726	0.014
Mof_C 	C 	0.6194	0.85521	0.963	0.247
Mof_C 	C 	0.6122	0.83188	0.8422	0.242
Mof_C 	C 	0.0721	0.8271	0.9203	0.273
Mof_C 	C 	0.1512	0.87613	0.9071	0.241
Mof_C 	C 	0.3298	0.72253	0.7147	0.274
Mof_C 	C 	0.2913	0.77714	0.668	0.241
Mof_C 	C 	0.0046	0.98336	0.0557	0.269
Mof_C 	C 	0.5197	0.00135	0.5656	0.245
Mof_Gd	Gd	0.14721	0.41132	0.63736	1.738
Mof_Gd	Gd	0.63978	0.28671	0.5546	1.726
Mof_Gd	Gd	0.22517	0.53433	0.03903	1.409
Mof_P 	P 	0.08939	0.41279	0.93997	0.538
Mof_N 	N 	0.1318	0.33693	0.116	-0.138
Mof_H 	H 	0.1808	0.3612	0.1568	0.107
Mof_O 	O 	0.1397	0.41444	0.8269	-0.485
Mof_O 	O 	0.1574	0.44945	0.0289	-0.452
Mof_O 	O 	0.9464	0.41823	0.929	-0.477
Mof_O 	O 	0.4672	0.34447	0.4806	-0.379
Mof_O 	O 	0.2862	0.38375	0.5045	-0.394
Mof_O 	O 	0.4751	0.29983	0.6855	-0.384
Mof_O 	O 	0.307	0.34712	0.7173	-0.387
Mof_O 	O 	0.867	0.28634	0.558	-0.387
Mof_O 	O 	0.0468	0.33204	0.5919	-0.414
Mof_O 	O 	0.7294	0.37256	0.5678	-0.364
Mof_O 	O 	0.9103	0.41541	0.6273	-0.369
Mof_O 	O 	0.6642	0.215	0.68	-0.411
Mof_O 	O 	0.6473	0.19041	0.8581	-0.383
Mof_O 	O 	0.7361	0.30843	0.7584	-0.359
Mof_O 	O 	0.707	0.28501	0.9361	-0.375
Mof_O 	O 	0.0617	0.44368	0.4496	-0.395
Mof_O 	O 	0.9217	0.4999	0.3594	-0.407
Mof_O 	O 	0.3643	0.50979	0.8992	-0.393
Mof_O 	O 	0.5656	0.49506	0.8735	-0.394
Mof_C 	C 	0.1308	0.34731	0.9901	-0.221
Mof_H 	H 	0.0709	0.3238	0.9471	0.103
Mof_H 	H 	0.2148	0.3393	0.9712	0.098
Mof_C 	C 	0.1893	0.28512	0.1473	-0.031
Mof_H 	H 	0.2751	0.2837	0.1275	0.034
Mof_H 	H 	0.1388	0.2587	0.1041	0.06
Mof_C 	C 	0.1937	0.2755	0.2754	-0.136
Mof_H 	H 	0.2283	0.2415	0.2938	0.074
Mof_H 	H 	0.2505	0.3003	0.3179	0.079
Mof_C 	C 	0.0643	0.2794	0.3129	-0.033
Mof_H 	H 	0.0724	0.2758	0.3958	0.045
Mof_H 	H 	0.01	0.252	0.2782	0.049
Mof_C 	C 	0.0045	0.3312	0.2769	-0.151
Mof_H 	H 	0.9185	0.3325	0.2961	0.08
Mof_H 	H 	0.0538	0.3584	0.3185	0.088
Mof_C 	C 	0.0004	0.3394	0.1486	-0.005
Mof_H 	H 	0.9471	0.3133	0.1069	0.049
Mof_H 	H 	0.963	0.3727	0.1274	0.015
Mof_C 	C 	0.3806	0.35521	0.537	0.25
Mof_C 	C 	0.3878	0.33188	0.6578	0.241
Mof_C 	C 	0.9279	0.3271	0.5797	0.272
Mof_C 	C 	0.8488	0.37613	0.5929	0.242
Mof_C 	C 	0.6702	0.22253	0.7853	0.274
Mof_C 	C 	0.7087	0.27714	0.832	0.241
Mof_C 	C 	0.9954	0.48336	0.4443	0.27
Mof_C 	C 	0.4803	0.50135	0.9344	0.244
Mof_Gd	Gd	0.14721	0.08868	0.13736	1.735
Mof_Gd	Gd	0.63978	0.21329	0.0546	1.722
Mof_Gd	Gd	0.22517	0.96567	0.53903	1.407
Mof_P 	P 	0.08939	0.08721	0.43997	0.536
Mof_N 	N 	0.1318	0.16307	0.616	-0.137
Mof_H 	H 	0.1808	0.1388	0.6568	0.108
Mof_O 	O 	0.1397	0.08556	0.3269	-0.484
Mof_O 	O 	0.1574	0.05055	0.5289	-0.45
Mof_O 	O 	0.9464	0.08177	0.429	-0.477
Mof_O 	O 	0.4672	0.15553	0.9806	-0.375
Mof_O 	O 	0.2862	0.11625	0.0045	-0.394
Mof_O 	O 	0.4751	0.20017	0.1855	-0.384
Mof_O 	O 	0.307	0.15288	0.2173	-0.387
Mof_O 	O 	0.867	0.21366	0.058	-0.387
Mof_O 	O 	0.0468	0.16796	0.0919	-0.415
Mof_O 	O 	0.7294	0.12744	0.0678	-0.365
Mof_O 	O 	0.9103	0.08459	0.1273	-0.369
Mof_O 	O 	0.6642	0.285	0.18	-0.411
Mof_O 	O 	0.6473	0.30959	0.3581	-0.384
Mof_O 	O 	0.7361	0.19157	0.2584	-0.358
Mof_O 	O 	0.707	0.21499	0.4361	-0.376
Mof_O 	O 	0.0617	0.05632	0.9496	-0.392
Mof_O 	O 	0.9217	0.0001	0.8594	-0.406
Mof_O 	O 	0.3643	0.99021	0.3992	-0.393
Mof_O 	O 	0.5656	0.00494	0.3735	-0.394
Mof_C 	C 	0.1308	0.15269	0.4901	-0.223
Mof_H 	H 	0.0709	0.1762	0.4471	0.103
Mof_H 	H 	0.2148	0.1607	0.4712	0.098
Mof_C 	C 	0.1893	0.21488	0.6473	-0.031
Mof_H 	H 	0.2751	0.2163	0.6275	0.034
Mof_H 	H 	0.1388	0.2413	0.6041	0.06
Mof_C 	C 	0.1937	0.2245	0.7754	-0.135
Mof_H 	H 	0.2283	0.2585	0.7938	0.074
Mof_H 	H 	0.2505	0.1997	0.8179	0.079
Mof_C 	C 	0.0643	0.2206	0.8129	-0.034
Mof_H 	H 	0.0724	0.2242	0.8958	0.046
Mof_H 	H 	0.01	0.248	0.7782	0.05
Mof_C 	C 	0.0045	0.1688	0.7769	-0.151
Mof_H 	H 	0.9185	0.1675	0.7961	0.08
Mof_H 	H 	0.0538	0.1416	0.8185	0.088
Mof_C 	C 	0.0004	0.1606	0.6486	-0.003
Mof_H 	H 	0.9471	0.1867	0.6069	0.048
Mof_H 	H 	0.963	0.1273	0.6274	0.014
Mof_C 	C 	0.3806	0.14479	0.037	0.247
Mof_C 	C 	0.3878	0.16812	0.1578	0.242
Mof_C 	C 	0.9279	0.1729	0.0797	0.273
Mof_C 	C 	0.8488	0.12387	0.0929	0.241
Mof_C 	C 	0.6702	0.27747	0.2853	0.274
Mof_C 	C 	0.7087	0.22286	0.332	0.241
Mof_C 	C 	0.9954	0.01664	0.9443	0.269
Mof_C 	C 	0.4803	0.99865	0.4344	0.245
Mof_Gd	Gd	0.85279	0.58868	0.36264	1.738
Mof_Gd	Gd	0.36022	0.71329	0.4454	1.726
Mof_Gd	Gd	0.77483	0.46567	0.96097	1.409
Mof_P 	P 	0.91061	0.58721	0.06003	0.538
Mof_N 	N 	0.8682	0.66307	0.884	-0.138
Mof_H 	H 	0.8192	0.6388	0.8432	0.107
Mof_O 	O 	0.8603	0.58556	0.1731	-0.485
Mof_O 	O 	0.8426	0.55055	0.9711	-0.452
Mof_O 	O 	0.0536	0.58177	0.071	-0.477
Mof_O 	O 	0.5328	0.65553	0.5194	-0.379
Mof_O 	O 	0.7138	0.61625	0.4955	-0.394
Mof_O 	O 	0.5249	0.70017	0.3145	-0.384
Mof_O 	O 	0.693	0.65288	0.2827	-0.387
Mof_O 	O 	0.133	0.71366	0.442	-0.387
Mof_O 	O 	0.9532	0.66796	0.4081	-0.414
Mof_O 	O 	0.2706	0.62744	0.4322	-0.364
Mof_O 	O 	0.0897	0.58459	0.3727	-0.369
Mof_O 	O 	0.3358	0.785	0.32	-0.411
Mof_O 	O 	0.3527	0.80959	0.1419	-0.383
Mof_O 	O 	0.2639	0.69157	0.2416	-0.359
Mof_O 	O 	0.293	0.71499	0.0639	-0.375
Mof_O 	O 	0.9383	0.55632	0.5504	-0.395
Mof_O 	O 	0.0783	0.5001	0.6406	-0.407
Mof_O 	O 	0.6357	0.49021	0.1008	-0.393
Mof_O 	O 	0.4344	0.50494	0.1265	-0.394
Mof_C 	C 	0.8692	0.65269	0.0099	-0.221
Mof_H 	H 	0.9291	0.6762	0.0529	0.103
Mof_H 	H 	0.7852	0.6607	0.0288	0.098
Mof_C 	C 	0.8107	0.71488	0.8527	-0.031
Mof_H 	H 	0.7249	0.7163	0.8725	0.034
Mof_H 	H 	0.8612	0.7413	0.8959	0.06
Mof_C 	C 	0.8063	0.7245	0.7246	-0.136
Mof_H 	H 	0.7717	0.7585	0.7062	0.074
Mof_H 	H 	0.7495	0.6997	0.6821	0.079
Mof_C 	C 	0.9357	0.7206	0.6871	-0.033
Mof_H 	H 	0.9276	0.7242	0.6042	0.045
Mof_H 	H 	0.99	0.748	0.7218	0.049
Mof_C 	C 	0.9955	0.6688	0.7231	-0.151
Mof_H 	H 	0.0815	0.6675	0.7039	0.08
Mof_H 	H 	0.9462	0.6416	0.6815	0.088
Mof_C 	C 	0.9996	0.6606	0.8514	-0.005
Mof_H 	H 	0.0529	0.6867	0.8931	0.049
Mof_H 	H 	0.037	0.6273	0.8726	0.015
Mof_C 	C 	0.6194	0.64479	0.463	0.25
Mof_C 	C 	0.6122	0.66812	0.3422	0.241
Mof_C 	C 	0.0721	0.6729	0.4203	0.272
Mof_C 	C 	0.1512	0.62387	0.4071	0.242
Mof_C 	C 	0.3298	0.77747	0.2147	0.274
Mof_C 	C 	0.2913	0.72286	0.168	0.241
Mof_C 	C 	0.0046	0.51664	0.5557	0.27
Mof_C 	C 	0.5197	0.49865	0.0656	0.244
_end
