data_functionalizedCrystal
_audit_creation_method	'EQeq! by Chris Wilmer'
_symmetry_space_group_name_H-M	'P1'
_symmetry_Int_Tables_number	1
_symmetry_cell_setting	triclinic
loop_
_symmetry_equiv_pos_as_xyz
  x,y,z
_cell_length_a	11.5989
_cell_length_b	20.979
_cell_length_c	20.81
_cell_angle_alpha	110.391
_cell_angle_beta	90
_cell_angle_gamma	90
loop_
_atom_site_label
_atom_site_type_symbol
_atom_site_fract_x
_atom_site_fract_y
_atom_site_fract_z
_atom_site_charge
Mof_Eu	Eu	0.57826	0.94623	0.55417	2.275
Mof_Eu	Eu	0.17926	0.59908	0.53601	2.044
Mof_Eu	Eu	0.07826	0.05377	0.94583	2.242
Mof_Eu	Eu	0.67926	0.40091	0.96399	2.046
Mof_Eu	Eu	0.42174	0.05377	0.44583	2.275
Mof_Eu	Eu	0.82074	0.40091	0.46399	2.045
Mof_Eu	Eu	0.92174	0.94623	0.05417	2.242
Mof_Eu	Eu	0.32074	0.59908	0.03601	2.045
Mof_H 	H 	0.87	0.6924	0.57	-0.031
Mof_H 	H 	0.7049	0.7531	0.615	0.12
Mof_H 	H 	0.5263	0.7046	0.5823	-0.016
Mof_H 	H 	0.6765	0.5346	0.4575	-0.061
Mof_H 	H 	0.528	0.8363	0.7297	0.016
Mof_H 	H 	0.5653	0.8159	0.8302	0.09
Mof_H 	H 	0.7054	0.8785	0.9046	-0.009
Mof_H 	H 	0.7736	0.9798	0.7782	0.022
Mof_H 	H 	0.144	0.6737	0.2832	0.001
Mof_H 	H 	0.1605	0.7669	0.2506	0.087
Mof_H 	H 	0.2528	0.8638	0.3201	0.003
Mof_H 	H 	0.3109	0.7734	0.458	0.002
Mof_H 	H 	0.5145	0.7809	0.4458	-0.003
Mof_H 	H 	0.5879	0.6753	0.3826	0.068
Mof_H 	H 	0.7822	0.656	0.3826	0.043
Mof_H 	H 	0.9792	0.6985	0.4312	0.062
Mof_H 	H 	0.0906	0.7836	0.4973	0.048
Mof_H 	H 	0.1134	0.9079	0.5685	0.035
Mof_H 	H 	0.0291	0.0124	0.6209	0.073
Mof_H 	H 	0.832	0.0236	0.6136	0
Mof_H 	H 	0.9656	0.5563	0.6298	-0.021
Mof_H 	H 	0.8223	0.5953	0.7097	0.07
Mof_H 	H 	0.8051	0.7103	0.768	0.038
Mof_H 	H 	0.8849	0.8289	0.7919	0.049
Mof_H 	H 	0.015	0.8978	0.7694	0.062
Mof_H 	H 	0.1963	0.9114	0.7073	0.062
Mof_H 	H 	0.3371	0.8625	0.628	0.069
Mof_H 	H 	0.3305	0.7472	0.5681	0.001
Mof_H 	H 	0.37	0.3076	0.93	-0.036
Mof_H 	H 	0.2049	0.2469	0.885	0.123
Mof_H 	H 	0.0263	0.2954	0.9177	-0.022
Mof_H 	H 	0.1765	0.4654	0.0425	-0.067
Mof_H 	H 	0.028	0.1637	0.7703	0.013
Mof_H 	H 	0.0653	0.1841	0.6698	0.089
Mof_H 	H 	0.2054	0.1215	0.5954	-0.012
Mof_H 	H 	0.2736	0.0202	0.7218	0.019
Mof_H 	H 	0.644	0.3263	0.2168	0.001
Mof_H 	H 	0.6605	0.2331	0.2494	0.086
Mof_H 	H 	0.7528	0.1362	0.1799	0.004
Mof_H 	H 	0.8109	0.2266	0.042	0.003
Mof_H 	H 	0.0145	0.2191	0.0542	-0.003
Mof_H 	H 	0.0879	0.3247	0.1174	0.07
Mof_H 	H 	0.2822	0.344	0.1174	0.041
Mof_H 	H 	0.4792	0.3015	0.0688	0.057
Mof_H 	H 	0.5906	0.2164	0.0027	0.054
Mof_H 	H 	0.6134	0.0921	0.9315	0.039
Mof_H 	H 	0.5291	0.9876	0.8791	0.077
Mof_H 	H 	0.332	0.9764	0.8864	0.007
Mof_H 	H 	0.4656	0.4437	0.8702	-0.021
Mof_H 	H 	0.3223	0.4047	0.7903	0.07
Mof_H 	H 	0.3051	0.2897	0.732	0.038
Mof_H 	H 	0.3849	0.1711	0.7081	0.048
Mof_H 	H 	0.515	0.1022	0.7306	0.061
Mof_H 	H 	0.6963	0.0886	0.7927	0.06
Mof_H 	H 	0.8371	0.1375	0.872	0.07
Mof_H 	H 	0.8305	0.2528	0.9319	0.002
Mof_H 	H 	0.13	0.3076	0.43	-0.032
Mof_H 	H 	0.2951	0.2469	0.385	0.119
Mof_H 	H 	0.4737	0.2954	0.4177	-0.017
Mof_H 	H 	0.3235	0.4654	0.5425	-0.062
Mof_H 	H 	0.472	0.1637	0.2703	0.015
Mof_H 	H 	0.4347	0.1841	0.1698	0.089
Mof_H 	H 	0.2946	0.1215	0.0954	-0.01
Mof_H 	H 	0.2264	0.0202	0.2218	0.021
Mof_H 	H 	0.856	0.3263	0.7168	0.001
Mof_H 	H 	0.8395	0.2331	0.7494	0.087
Mof_H 	H 	0.7472	0.1362	0.6799	0.003
Mof_H 	H 	0.6891	0.2266	0.542	0.002
Mof_H 	H 	0.4855	0.2191	0.5542	-0.003
Mof_H 	H 	0.4121	0.3247	0.6174	0.068
Mof_H 	H 	0.2178	0.344	0.6174	0.043
Mof_H 	H 	0.0208	0.3015	0.5688	0.062
Mof_H 	H 	0.9094	0.2164	0.5027	0.048
Mof_H 	H 	0.8866	0.0921	0.4315	0.035
Mof_H 	H 	0.9709	0.9876	0.3791	0.073
Mof_H 	H 	0.168	0.9764	0.3864	0
Mof_H 	H 	0.0344	0.4437	0.3702	-0.021
Mof_H 	H 	0.1777	0.4047	0.2903	0.07
Mof_H 	H 	0.1949	0.2897	0.232	0.038
Mof_H 	H 	0.1151	0.1711	0.2081	0.049
Mof_H 	H 	0.985	0.1022	0.2306	0.062
Mof_H 	H 	0.8037	0.0886	0.2927	0.062
Mof_H 	H 	0.6629	0.1375	0.372	0.069
Mof_H 	H 	0.6695	0.2528	0.4319	0.001
Mof_H 	H 	0.63	0.6924	0.07	-0.036
Mof_H 	H 	0.7951	0.7531	0.115	0.123
Mof_H 	H 	0.9737	0.7046	0.0823	-0.022
Mof_H 	H 	0.8235	0.5346	0.9575	-0.067
Mof_H 	H 	0.972	0.8363	0.2297	0.013
Mof_H 	H 	0.9347	0.8159	0.3302	0.089
Mof_H 	H 	0.7946	0.8785	0.4046	-0.012
Mof_H 	H 	0.7264	0.9798	0.2782	0.019
Mof_H 	H 	0.356	0.6737	0.7832	0.001
Mof_H 	H 	0.3395	0.7669	0.7506	0.086
Mof_H 	H 	0.2472	0.8638	0.8201	0.004
Mof_H 	H 	0.1891	0.7734	0.958	0.003
Mof_H 	H 	0.9855	0.7809	0.9458	-0.003
Mof_H 	H 	0.9121	0.6753	0.8826	0.07
Mof_H 	H 	0.7178	0.656	0.8826	0.041
Mof_H 	H 	0.5208	0.6985	0.9312	0.057
Mof_H 	H 	0.4094	0.7836	0.9973	0.054
Mof_H 	H 	0.3866	0.9079	0.0685	0.039
Mof_H 	H 	0.4709	0.0124	0.1209	0.077
Mof_H 	H 	0.668	0.0236	0.1136	0.007
Mof_H 	H 	0.5344	0.5563	0.1298	-0.021
Mof_H 	H 	0.6777	0.5953	0.2097	0.07
Mof_H 	H 	0.6949	0.7103	0.268	0.038
Mof_H 	H 	0.6151	0.8289	0.2919	0.048
Mof_H 	H 	0.485	0.8978	0.2694	0.061
Mof_H 	H 	0.3037	0.9114	0.2073	0.06
Mof_H 	H 	0.1629	0.8625	0.128	0.07
Mof_H 	H 	0.1695	0.7472	0.0681	0.002
Mof_C 	C 	0.8972	0.5656	0.4822	0.527
Mof_C 	C 	0.7905	0.6069	0.5095	-0.284
Mof_C 	C 	0.798	0.6727	0.5565	0.179
Mof_C 	C 	0.6993	0.7091	0.5835	-0.235
Mof_C 	C 	0.5925	0.6801	0.5635	0.156
Mof_C 	C 	0.5826	0.6148	0.5157	-0.228
Mof_C 	C 	0.6822	0.5785	0.4892	0.184
Mof_C 	C 	0.4663	0.5835	0.4925	0.444
Mof_C 	C 	0.6211	0.9245	0.6788	0.336
Mof_C 	C 	0.6465	0.9102	0.7436	-0.132
Mof_C 	C 	0.5847	0.8612	0.7595	0.068
Mof_C 	C 	0.607	0.8488	0.8196	-0.164
Mof_C 	C 	0.6917	0.8859	0.8637	0.103
Mof_C 	C 	0.7558	0.9334	0.84775	-0.198
Mof_C 	C 	0.7321	0.9465	0.78829	0.089
Mof_C 	C 	0.8556	0.9688	0.8932	0.484
Mof_C 	C 	0.2035	0.6538	0.3979	0.395
Mof_C 	C 	0.2238	0.7143	0.3753	-0.17
Mof_C 	C 	0.1804	0.7127	0.3121	0.09
Mof_C 	C 	0.1912	0.7682	0.2924	-0.177
Mof_C 	C 	0.2471	0.8262	0.3338	0.116
Mof_C 	C 	0.2949	0.8285	0.3957	-0.215
Mof_C 	C 	0.281	0.772	0.4161	0.121
Mof_C 	C 	0.3626	0.8898	0.4376	0.52
Mof_C 	C 	0.5936	0.7739	0.4466	0.077
Mof_C 	C 	0.6373	0.7097	0.4082	-0.097
Mof_C 	C 	0.7519	0.6981	0.4087	-0.03
Mof_C 	C 	0.8239	0.7497	0.4485	0.009
Mof_C 	C 	0.9461	0.7407	0.4546	-0.07
Mof_C 	C 	0.0125	0.7915	0.493	-0.032
Mof_C 	C 	0.9668	0.8578	0.5278	-0.02
Mof_C 	C 	0.0343	0.9131	0.5651	-0.003
Mof_C 	C 	0.9844	0.975	0.5965	-0.114
Mof_C 	C 	0.8655	0.9813	0.5916	0.082
Mof_C 	C 	0.8469	0.868	0.5246	0.039
Mof_C 	C 	0.774	0.8134	0.4858	0.024
Mof_C 	C 	0.9602	0.6029	0.6532	0.089
Mof_C 	C 	0.8733	0.6257	0.7014	-0.117
Mof_C 	C 	0.8642	0.6935	0.7363	-0.02
Mof_C 	C 	0.9444	0.7383	0.7243	-0.004
Mof_C 	C 	0.9417	0.8102	0.7592	-0.053
Mof_C 	C 	0.0191	0.8512	0.7459	-0.057
Mof_C 	C 	0.108	0.8247	0.6961	0.014
Mof_C 	C 	0.1953	0.8648	0.6833	-0.043
Mof_C 	C 	0.2785	0.8362	0.6363	-0.086
Mof_C 	C 	0.2739	0.7664	0.6007	0.069
Mof_C 	C 	0.1123	0.7541	0.6591	0.02
Mof_C 	C 	0.0299	0.71	0.6737	0.03
Mof_C 	C 	0.3972	0.4344	0.0178	0.534
Mof_C 	C 	0.2905	0.3931	0.9905	-0.296
Mof_C 	C 	0.298	0.3273	0.9435	0.189
Mof_C 	C 	0.1993	0.2909	0.9165	-0.246
Mof_C 	C 	0.0925	0.3199	0.9365	0.167
Mof_C 	C 	0.0826	0.3852	0.9843	-0.242
Mof_C 	C 	0.1822	0.4215	0.0108	0.202
Mof_C 	C 	0.9663	0.4165	0.0075	0.449
Mof_C 	C 	0.1211	0.0755	0.8212	0.337
Mof_C 	C 	0.1465	0.0898	0.7564	-0.135
Mof_C 	C 	0.0847	0.1388	0.7405	0.07
Mof_C 	C 	0.107	0.1512	0.6804	-0.167
Mof_C 	C 	0.1917	0.1141	0.6363	0.105
Mof_C 	C 	0.2558	0.0666	0.65225	-0.201
Mof_C 	C 	0.2321	0.0535	0.71171	0.091
Mof_C 	C 	0.3556	0.0312	0.6068	0.484
Mof_C 	C 	0.7035	0.3462	0.1021	0.394
Mof_C 	C 	0.7238	0.2857	0.1247	-0.169
Mof_C 	C 	0.6804	0.2873	0.1879	0.088
Mof_C 	C 	0.6912	0.2318	0.2076	-0.175
Mof_C 	C 	0.7471	0.1738	0.1662	0.113
Mof_C 	C 	0.7949	0.1715	0.1043	-0.211
Mof_C 	C 	0.781	0.228	0.0839	0.118
Mof_C 	C 	0.8626	0.1102	0.0624	0.515
Mof_C 	C 	0.0936	0.2261	0.0534	0.08
Mof_C 	C 	0.1373	0.2903	0.0918	-0.101
Mof_C 	C 	0.2519	0.3019	0.0913	-0.023
Mof_C 	C 	0.3239	0.2503	0.0515	0
Mof_C 	C 	0.4461	0.2593	0.0454	-0.054
Mof_C 	C 	0.5125	0.2085	0.007	-0.048
Mof_C 	C 	0.4668	0.1422	0.9722	-0.004
Mof_C 	C 	0.5343	0.0869	0.9349	-0.021
Mof_C 	C 	0.4844	0.025	0.9035	-0.107
Mof_C 	C 	0.3655	0.0187	0.9084	0.07
Mof_C 	C 	0.3469	0.132	0.9754	0.027
Mof_C 	C 	0.274	0.1866	0.0142	0.035
Mof_C 	C 	0.4602	0.3971	0.8468	0.09
Mof_C 	C 	0.3733	0.3743	0.7986	-0.118
Mof_C 	C 	0.3642	0.3065	0.7637	-0.019
Mof_C 	C 	0.4444	0.2617	0.7757	-0.004
Mof_C 	C 	0.4417	0.1898	0.7408	-0.049
Mof_C 	C 	0.5191	0.1488	0.7541	-0.06
Mof_C 	C 	0.608	0.1753	0.8039	0.013
Mof_C 	C 	0.6953	0.1352	0.8167	-0.043
Mof_C 	C 	0.7785	0.1638	0.8637	-0.088
Mof_C 	C 	0.7739	0.2336	0.8993	0.069
Mof_C 	C 	0.6123	0.2459	0.8409	0.019
Mof_C 	C 	0.5299	0.29	0.8263	0.029
Mof_C 	C 	0.1028	0.4344	0.5178	0.527
Mof_C 	C 	0.2095	0.3931	0.4905	-0.284
Mof_C 	C 	0.202	0.3273	0.4435	0.179
Mof_C 	C 	0.3007	0.2909	0.4165	-0.235
Mof_C 	C 	0.4075	0.3199	0.4365	0.156
Mof_C 	C 	0.4174	0.3852	0.4843	-0.228
Mof_C 	C 	0.3178	0.4215	0.5108	0.184
Mof_C 	C 	0.5337	0.4165	0.5075	0.444
Mof_C 	C 	0.3789	0.0755	0.3212	0.336
Mof_C 	C 	0.3535	0.0898	0.2564	-0.132
Mof_C 	C 	0.4153	0.1388	0.2405	0.068
Mof_C 	C 	0.393	0.1512	0.1804	-0.164
Mof_C 	C 	0.3083	0.1141	0.1363	0.103
Mof_C 	C 	0.2442	0.0666	0.15225	-0.198
Mof_C 	C 	0.2679	0.0535	0.21171	0.089
Mof_C 	C 	0.1444	0.0312	0.1068	0.484
Mof_C 	C 	0.7965	0.3462	0.6021	0.395
Mof_C 	C 	0.7762	0.2857	0.6247	-0.17
Mof_C 	C 	0.8196	0.2873	0.6879	0.09
Mof_C 	C 	0.8088	0.2318	0.7076	-0.177
Mof_C 	C 	0.7529	0.1738	0.6662	0.116
Mof_C 	C 	0.7051	0.1715	0.6043	-0.215
Mof_C 	C 	0.719	0.228	0.5839	0.121
Mof_C 	C 	0.6374	0.1102	0.5624	0.52
Mof_C 	C 	0.4064	0.2261	0.5534	0.077
Mof_C 	C 	0.3627	0.2903	0.5918	-0.097
Mof_C 	C 	0.2481	0.3019	0.5913	-0.03
Mof_C 	C 	0.1761	0.2503	0.5515	0.009
Mof_C 	C 	0.0539	0.2593	0.5454	-0.07
Mof_C 	C 	0.9875	0.2085	0.507	-0.032
Mof_C 	C 	0.0332	0.1422	0.4722	-0.02
Mof_C 	C 	0.9657	0.0869	0.4349	-0.003
Mof_C 	C 	0.0156	0.025	0.4035	-0.114
Mof_C 	C 	0.1345	0.0187	0.4084	0.082
Mof_C 	C 	0.1531	0.132	0.4754	0.039
Mof_C 	C 	0.226	0.1866	0.5142	0.024
Mof_C 	C 	0.0398	0.3971	0.3468	0.089
Mof_C 	C 	0.1267	0.3743	0.2986	-0.117
Mof_C 	C 	0.1358	0.3065	0.2637	-0.02
Mof_C 	C 	0.0556	0.2617	0.2757	-0.004
Mof_C 	C 	0.0583	0.1898	0.2408	-0.053
Mof_C 	C 	0.9809	0.1488	0.2541	-0.057
Mof_C 	C 	0.892	0.1753	0.3039	0.014
Mof_C 	C 	0.8047	0.1352	0.3167	-0.043
Mof_C 	C 	0.7215	0.1638	0.3637	-0.086
Mof_C 	C 	0.7261	0.2336	0.3993	0.069
Mof_C 	C 	0.8877	0.2459	0.3409	0.02
Mof_C 	C 	0.9701	0.29	0.3263	0.03
Mof_C 	C 	0.6028	0.5656	0.9822	0.533
Mof_C 	C 	0.7095	0.6069	0.0095	-0.296
Mof_C 	C 	0.702	0.6727	0.0565	0.189
Mof_C 	C 	0.8007	0.7091	0.0835	-0.246
Mof_C 	C 	0.9075	0.6801	0.0635	0.167
Mof_C 	C 	0.9174	0.6148	0.0157	-0.242
Mof_C 	C 	0.8178	0.5785	0.9892	0.201
Mof_C 	C 	0.0337	0.5835	0.9925	0.449
Mof_C 	C 	0.8789	0.9245	0.1788	0.337
Mof_C 	C 	0.8535	0.9102	0.2436	-0.135
Mof_C 	C 	0.9153	0.8612	0.2595	0.07
Mof_C 	C 	0.893	0.8488	0.3196	-0.167
Mof_C 	C 	0.8083	0.8859	0.3637	0.105
Mof_C 	C 	0.7442	0.9334	0.34775	-0.201
Mof_C 	C 	0.7679	0.9465	0.28829	0.091
Mof_C 	C 	0.6444	0.9688	0.3932	0.484
Mof_C 	C 	0.2965	0.6538	0.8979	0.394
Mof_C 	C 	0.2762	0.7143	0.8753	-0.169
Mof_C 	C 	0.3196	0.7127	0.8121	0.088
Mof_C 	C 	0.3088	0.7682	0.7924	-0.175
Mof_C 	C 	0.2529	0.8262	0.8338	0.113
Mof_C 	C 	0.2051	0.8285	0.8957	-0.211
Mof_C 	C 	0.219	0.772	0.9161	0.118
Mof_C 	C 	0.1374	0.8898	0.9376	0.515
Mof_C 	C 	0.9064	0.7739	0.9466	0.08
Mof_C 	C 	0.8627	0.7097	0.9082	-0.101
Mof_C 	C 	0.7481	0.6981	0.9087	-0.023
Mof_C 	C 	0.6761	0.7497	0.9485	0
Mof_C 	C 	0.5539	0.7407	0.9546	-0.054
Mof_C 	C 	0.4875	0.7915	0.993	-0.048
Mof_C 	C 	0.5332	0.8578	0.0278	-0.004
Mof_C 	C 	0.4657	0.9131	0.0651	-0.021
Mof_C 	C 	0.5156	0.975	0.0965	-0.107
Mof_C 	C 	0.6345	0.9813	0.0916	0.07
Mof_C 	C 	0.6531	0.868	0.0246	0.027
Mof_C 	C 	0.726	0.8134	0.9858	0.035
Mof_C 	C 	0.5398	0.6029	0.1532	0.09
Mof_C 	C 	0.6267	0.6257	0.2014	-0.118
Mof_C 	C 	0.6358	0.6935	0.2363	-0.019
Mof_C 	C 	0.5556	0.7383	0.2243	-0.004
Mof_C 	C 	0.5583	0.8102	0.2592	-0.049
Mof_C 	C 	0.4809	0.8512	0.2459	-0.06
Mof_C 	C 	0.392	0.8247	0.1961	0.013
Mof_C 	C 	0.3047	0.8648	0.1833	-0.043
Mof_C 	C 	0.2215	0.8362	0.1363	-0.088
Mof_C 	C 	0.2261	0.7664	0.1007	0.069
Mof_C 	C 	0.3877	0.7541	0.1591	0.019
Mof_C 	C 	0.4701	0.71	0.1737	0.029
Mof_N 	N 	0.6587	0.82501	0.48395	-0.236
Mof_N 	N 	0.7978	0.93	0.5569	-0.248
Mof_N 	N 	0.194	0.72574	0.61061	-0.242
Mof_N 	N 	0.0352	0.64208	0.63818	-0.246
Mof_N 	N 	0.1587	0.17499	0.01605	-0.235
Mof_N 	N 	0.2978	0.07	0.9431	-0.244
Mof_N 	N 	0.694	0.27426	0.88939	-0.242
Mof_N 	N 	0.5352	0.35792	0.86182	-0.246
Mof_N 	N 	0.3413	0.17499	0.51605	-0.236
Mof_N 	N 	0.2022	0.07	0.4431	-0.248
Mof_N 	N 	0.806	0.27426	0.38939	-0.242
Mof_N 	N 	0.9648	0.35792	0.36182	-0.246
Mof_N 	N 	0.8413	0.82501	0.98395	-0.235
Mof_N 	N 	0.7022	0.93	0.0569	-0.244
Mof_N 	N 	0.306	0.72574	0.11061	-0.242
Mof_N 	N 	0.4648	0.64208	0.13818	-0.246
Mof_O 	O 	0.9931	0.59646	0.4895	-0.545
Mof_O 	O 	0.8866	0.50222	0.4535	-0.586
Mof_O 	O 	0.4584	0.53423	0.43799	-0.323
Mof_O 	O 	0.3813	0.60927	0.53076	-0.535
Mof_O 	O 	0.5726	0.87904	0.62946	-0.46
Mof_O 	O 	0.6488	0.98108	0.67544	-0.429
Mof_O 	O 	0.9147	0.00944	0.87402	-0.516
Mof_O 	O 	0.8788	0.9555	0.94608	-0.608
Mof_O 	O 	0.209	0.66492	0.46178	-0.476
Mof_O 	O 	0.182	0.59748	0.35337	-0.304
Mof_O 	O 	0.4183	0.88647	0.4887	-0.562
Mof_O 	O 	0.3608	0.94034	0.41863	-0.576
Mof_O 	O 	0.4931	0.40354	0.0105	-0.545
Mof_O 	O 	0.3866	0.49778	0.0465	-0.588
Mof_O 	O 	0.9584	0.46577	0.06201	-0.326
Mof_O 	O 	0.8813	0.39073	0.96924	-0.534
Mof_O 	O 	0.0726	0.12096	0.87054	-0.46
Mof_O 	O 	0.1488	0.01892	0.82456	-0.431
Mof_O 	O 	0.4147	0.99056	0.62598	-0.518
Mof_O 	O 	0.3788	0.0445	0.55392	-0.614
Mof_O 	O 	0.709	0.33508	0.03822	-0.476
Mof_O 	O 	0.682	0.40252	0.14663	-0.304
Mof_O 	O 	0.9183	0.11353	0.0113	-0.554
Mof_O 	O 	0.8608	0.05966	0.08137	-0.567
Mof_O 	O 	0.0069	0.40354	0.5105	-0.545
Mof_O 	O 	0.1134	0.49778	0.5465	-0.586
Mof_O 	O 	0.5416	0.46577	0.56201	-0.323
Mof_O 	O 	0.6187	0.39073	0.46924	-0.535
Mof_O 	O 	0.4274	0.12096	0.37054	-0.46
Mof_O 	O 	0.3512	0.01892	0.32456	-0.429
Mof_O 	O 	0.0853	0.99056	0.12598	-0.516
Mof_O 	O 	0.1212	0.0445	0.05392	-0.608
Mof_O 	O 	0.791	0.33508	0.53822	-0.476
Mof_O 	O 	0.818	0.40252	0.64663	-0.304
Mof_O 	O 	0.5817	0.11353	0.5113	-0.562
Mof_O 	O 	0.6392	0.05966	0.58137	-0.576
Mof_O 	O 	0.5069	0.59646	0.9895	-0.545
Mof_O 	O 	0.6134	0.50222	0.9535	-0.588
Mof_O 	O 	0.0416	0.53423	0.93799	-0.326
Mof_O 	O 	0.1187	0.60927	0.03076	-0.534
Mof_O 	O 	0.9274	0.87904	0.12946	-0.46
Mof_O 	O 	0.8512	0.98108	0.17544	-0.431
Mof_O 	O 	0.5853	0.00944	0.37402	-0.518
Mof_O 	O 	0.6212	0.9555	0.44608	-0.614
Mof_O 	O 	0.291	0.66492	0.96178	-0.476
Mof_O 	O 	0.318	0.59748	0.85337	-0.304
Mof_O 	O 	0.0817	0.88647	0.9887	-0.554
Mof_O 	O 	0.1392	0.94034	0.91863	-0.567
_end
