data_functionalizedCrystal
_audit_creation_method	'EQeq! by Chris Wilmer'
_symmetry_space_group_name_H-M	'P1'
_symmetry_Int_Tables_number	1
_symmetry_cell_setting	triclinic
loop_
_symmetry_equiv_pos_as_xyz
  x,y,z
_cell_length_a	19.0766
_cell_length_b	9.1657
_cell_length_c	14.1806
_cell_angle_alpha	90
_cell_angle_beta	90
_cell_angle_gamma	90
loop_
_atom_site_label
_atom_site_type_symbol
_atom_site_fract_x
_atom_site_fract_y
_atom_site_fract_z
_atom_site_charge
Mof_V 	V 	0.13916	0.23073	0.13449	1.697
Mof_V 	V 	0.99958	0.7166	0.35135	1.693
Mof_V 	V 	0.24556	0.75327	0.33742	1.688
Mof_P 	P 	0.11568	0.92576	0.23766	0.388
Mof_P 	P 	0.12393	0.06368	0.93163	0.402
Mof_P 	P 	0.12241	0.52983	0.26083	0.415
Mof_P 	P 	0.13616	0.45803	0.95072	0.424
Mof_O 	O 	0.0991	0.0885	0.2261	-0.509
Mof_O 	O 	0.1719	0.9022	0.3122	-0.583
Mof_O 	O 	0.0483	0.8442	0.257	-0.531
Mof_O 	O 	0.1064	0.1008	0.0322	-0.547
Mof_O 	O 	0.1981	0.1037	0.9049	-0.59
Mof_O 	O 	0.0706	0.1229	0.8615	-0.57
Mof_O 	O 	0.1405	0.3722	0.2418	-0.523
Mof_O 	O 	0.048	0.543	0.2975	-0.536
Mof_O 	O 	0.1753	0.5945	0.3289	-0.576
Mof_O 	O 	0.1449	0.3998	0.0497	-0.557
Mof_O 	O 	0.0636	0.4306	0.9122	-0.573
Mof_O 	O 	0.1949	0.4147	0.8856	-0.593
Mof_V 	V 	0.86084	0.76927	0.63449	1.694
Mof_V 	V 	0.00042	0.2834	0.85135	1.689
Mof_V 	V 	0.75444	0.24673	0.83742	1.685
Mof_P 	P 	0.88432	0.07424	0.73766	0.386
Mof_P 	P 	0.87607	0.93632	0.43163	0.445
Mof_P 	P 	0.87759	0.47017	0.76083	0.41
Mof_P 	P 	0.86384	0.54197	0.45072	0.469
Mof_O 	O 	0.9009	0.9115	0.7261	-0.519
Mof_O 	O 	0.8281	0.0978	0.8122	-0.589
Mof_O 	O 	0.9517	0.1558	0.757	-0.537
Mof_O 	O 	0.8936	0.8992	0.5322	-0.592
Mof_O 	O 	0.8019	0.8963	0.4049	-0.584
Mof_O 	O 	0.9294	0.8771	0.3615	-0.567
Mof_O 	O 	0.8595	0.6278	0.7418	-0.529
Mof_O 	O 	0.952	0.457	0.7975	-0.542
Mof_O 	O 	0.8247	0.4055	0.8289	-0.583
Mof_O 	O 	0.8551	0.6002	0.5497	-0.598
Mof_O 	O 	0.9364	0.5694	0.4122	-0.565
Mof_O 	O 	0.8051	0.5853	0.3856	-0.588
Mof_V 	V 	0.63916	0.26927	0.13449	1.698
Mof_V 	V 	0.49958	0.7834	0.35135	1.695
Mof_V 	V 	0.74556	0.74673	0.33742	1.689
Mof_P 	P 	0.61568	0.57424	0.23766	0.389
Mof_P 	P 	0.62393	0.43632	0.93163	0.406
Mof_P 	P 	0.62241	0.97017	0.26083	0.411
Mof_P 	P 	0.63616	0.04197	0.95072	0.428
Mof_O 	O 	0.5991	0.4115	0.2261	-0.511
Mof_O 	O 	0.6719	0.5978	0.3122	-0.583
Mof_O 	O 	0.5483	0.6558	0.257	-0.533
Mof_O 	O 	0.6064	0.3992	0.0322	-0.552
Mof_O 	O 	0.6981	0.3963	0.9049	-0.59
Mof_O 	O 	0.5706	0.3771	0.8615	-0.569
Mof_O 	O 	0.6405	0.1278	0.2418	-0.521
Mof_O 	O 	0.548	0.957	0.2975	-0.538
Mof_O 	O 	0.6753	0.9055	0.3289	-0.577
Mof_O 	O 	0.6449	0.1002	0.0497	-0.559
Mof_O 	O 	0.5636	0.0694	0.9122	-0.572
Mof_O 	O 	0.6949	0.0853	0.8856	-0.592
Mof_V 	V 	0.36084	0.73073	0.63449	1.694
Mof_V 	V 	0.50042	0.2166	0.85135	1.69
Mof_V 	V 	0.25444	0.25327	0.83742	1.685
Mof_P 	P 	0.38432	0.42576	0.73766	0.383
Mof_P 	P 	0.37607	0.56368	0.43163	0.447
Mof_P 	P 	0.37759	0.02983	0.76083	0.41
Mof_P 	P 	0.36384	0.95803	0.45072	0.468
Mof_O 	O 	0.4009	0.5885	0.7261	-0.518
Mof_O 	O 	0.3281	0.4022	0.8122	-0.59
Mof_O 	O 	0.4517	0.3442	0.757	-0.54
Mof_O 	O 	0.3936	0.6008	0.5322	-0.592
Mof_O 	O 	0.3019	0.6037	0.4049	-0.583
Mof_O 	O 	0.4294	0.6229	0.3615	-0.565
Mof_O 	O 	0.3595	0.8722	0.7418	-0.53
Mof_O 	O 	0.452	0.043	0.7975	-0.544
Mof_O 	O 	0.3247	0.0945	0.8289	-0.584
Mof_O 	O 	0.3551	0.8998	0.5497	-0.599
Mof_O 	O 	0.4364	0.9306	0.4122	-0.566
Mof_O 	O 	0.3051	0.9147	0.3856	-0.589
_end
