# CIF file generated by openbabel 3.1.0, see https://openbabel.org
data_I
_chemical_name_common 'image0'
_cell_length_a 15.854
_cell_length_b 10.515
_cell_length_c 20.947
_cell_angle_alpha 90
_cell_angle_beta 107.587
_cell_angle_gamma 90
_space_group_name_H-M_alt 'P 1'
_space_group_name_Hall 'P 1'
loop_
    _symmetry_equiv_pos_as_xyz
    x,y,z
loop_
    _atom_site_label
    _atom_site_type_symbol
    _atom_site_fract_x
    _atom_site_fract_y
    _atom_site_fract_z
    _atom_site_occupancy
    C1       C        0.74760    0.72780    0.75480    1.000
    C2       C        0.73130    0.80050    0.80600    1.000
    H1       H        0.76520    0.78650    0.85010    1.000
    C3       C        0.66610    0.89220    0.79240    1.000
    C4       C        0.61330    0.91430    0.72730    1.000
    H2       H        0.56840    0.97470    0.71830    1.000
    C5       C        0.62920    0.84350    0.67570    1.000
    C6       C        0.69590    0.75320    0.68930    1.000
    H3       H        0.70650    0.70870    0.65410    1.000
    C7       C        0.57530    0.86750    0.60400    1.000
    C8       C        0.61870    0.16820    0.56870    1.000
    C9       C        0.67810    0.26800    0.60880    1.000
    C10      C        0.65280    0.33500    0.65670    1.000
    H4       H        0.60030    0.31450    0.66540    1.000
    C11      C        0.70530    0.43270    0.69180    1.000
    H5       H        0.68790    0.47640    0.72420    1.000
    C12      C        0.78280    0.46610    0.67950    1.000
    C13      C        0.80860    0.39700    0.63240    1.000
    H6       H        0.86160    0.41650    0.62430    1.000
    C14      C        0.75680    0.29940    0.59740    1.000
    H7       H        0.77510    0.25420    0.56580    1.000
    C15      C        0.83990    0.57660    0.71420    1.000
    H8       H        0.90050    0.54740    0.73230    1.000
    H9       H        0.83890    0.64190    0.68130    1.000
    C16      C        0.86530    0.60180    0.83530    1.000
    H10      H        0.88070    0.51230    0.83710    1.000
    H11      H        0.83000    0.61500    0.86530    1.000
    C17      C        0.94960    0.67920    0.86020    1.000
    C18      C        0.96460    0.78520    0.82820    1.000
    H12      H        0.92190    0.81140    0.78930    1.000
    C19      C        0.04220    0.85590    0.85210    1.000
    H13      H        0.05120    0.92750    0.82890    1.000
    C20      C        0.10490    0.81930    0.90970    1.000
    C21      C        0.09230    0.71140    0.94170    1.000
    H14      H        0.13590    0.68490    0.98000    1.000
    C22      C        0.01530    0.64080    0.91770    1.000
    H15      H        0.00750    0.56750    0.94020    1.000
    C23      C        0.18750    0.89580    0.93740    1.000
    C24      C        0.65300    0.96760    0.84970    1.000
    O1       O        0.50200    0.92030    0.59256    1.000
    O2       O        0.60790    0.83120    0.55943    1.000
    O3       O        0.53950    0.17010    0.56690    1.000
    O4       O        0.65140    0.08810    0.53819    1.000
    O5       O        0.19550    0.99190    0.90050    1.000
    O6       O        0.24190    0.86680    0.98970    1.000
    O7       O        0.68860    0.92950    0.90836    1.000
    O8       O        0.60560    0.06600    0.83851    1.000
    Eu1      Eu       0.39911    0.07866    0.54577    1.000
    N1       N        0.81220    0.63260    0.76790    1.000
    C25      C        0.25240    0.72780    0.74520    1.000
    C26      C        0.26870    0.80050    0.69400    1.000
    H16      H        0.23480    0.78650    0.64990    1.000
    C27      C        0.33390    0.89220    0.70760    1.000
    C28      C        0.38670    0.91430    0.77270    1.000
    H17      H        0.43160    0.97470    0.78170    1.000
    C29      C        0.37080    0.84350    0.82430    1.000
    C30      C        0.30410    0.75320    0.81070    1.000
    H18      H        0.29350    0.70870    0.84590    1.000
    C31      C        0.42470    0.86750    0.89600    1.000
    C32      C        0.38130    0.16820    0.93130    1.000
    C33      C        0.32190    0.26800    0.89120    1.000
    C34      C        0.34720    0.33500    0.84330    1.000
    H19      H        0.39970    0.31450    0.83460    1.000
    C35      C        0.29470    0.43270    0.80820    1.000
    H20      H        0.31210    0.47640    0.77580    1.000
    C36      C        0.21720    0.46610    0.82050    1.000
    C37      C        0.19140    0.39700    0.86760    1.000
    H21      H        0.13840    0.41650    0.87570    1.000
    C38      C        0.24320    0.29940    0.90260    1.000
    H22      H        0.22490    0.25420    0.93420    1.000
    C39      C        0.16010    0.57660    0.78580    1.000
    H23      H        0.09950    0.54740    0.76770    1.000
    H24      H        0.16110    0.64190    0.81870    1.000
    C40      C        0.13470    0.60180    0.66470    1.000
    H25      H        0.11930    0.51230    0.66290    1.000
    H26      H        0.17000    0.61500    0.63470    1.000
    C41      C        0.05040    0.67920    0.63980    1.000
    C42      C        0.03540    0.78520    0.67180    1.000
    H27      H        0.07810    0.81140    0.71070    1.000
    C43      C        0.95780    0.85590    0.64790    1.000
    H28      H        0.94880    0.92750    0.67110    1.000
    C44      C        0.89510    0.81930    0.59030    1.000
    C45      C        0.90770    0.71140    0.55830    1.000
    H29      H        0.86410    0.68490    0.52000    1.000
    C46      C        0.98470    0.64080    0.58230    1.000
    H30      H        0.99250    0.56750    0.55980    1.000
    C47      C        0.81250    0.89580    0.56260    1.000
    C48      C        0.34700    0.96760    0.65030    1.000
    O9       O        0.49800    0.92030    0.90744    1.000
    O10      O        0.39210    0.83120    0.94057    1.000
    O11      O        0.46050    0.17010    0.93310    1.000
    O12      O        0.34860    0.08810    0.96181    1.000
    O13      O        0.80450    0.99190    0.59950    1.000
    O14      O        0.75810    0.86680    0.51030    1.000
    O15      O        0.31140    0.92950    0.59164    1.000
    O16      O        0.39440    0.06600    0.66149    1.000
    Eu2      Eu       0.60089    0.07866    0.95423    1.000
    N2       N        0.18780    0.63260    0.73210    1.000
    C49      C        0.25240    0.27220    0.24520    1.000
    C50      C        0.26870    0.19950    0.19400    1.000
    H31      H        0.23480    0.21350    0.14990    1.000
    C51      C        0.33390    0.10780    0.20760    1.000
    C52      C        0.38670    0.08570    0.27270    1.000
    H32      H        0.43160    0.02530    0.28170    1.000
    C53      C        0.37080    0.15650    0.32430    1.000
    C54      C        0.30410    0.24680    0.31070    1.000
    H33      H        0.29350    0.29130    0.34590    1.000
    C55      C        0.42470    0.13250    0.39600    1.000
    C56      C        0.38130    0.83180    0.43130    1.000
    C57      C        0.32190    0.73200    0.39120    1.000
    C58      C        0.34720    0.66500    0.34330    1.000
    H34      H        0.39970    0.68550    0.33460    1.000
    C59      C        0.29470    0.56730    0.30820    1.000
    H35      H        0.31210    0.52360    0.27580    1.000
    C60      C        0.21720    0.53390    0.32050    1.000
    C61      C        0.19140    0.60300    0.36760    1.000
    H36      H        0.13840    0.58350    0.37570    1.000
    C62      C        0.24320    0.70060    0.40260    1.000
    H37      H        0.22490    0.74580    0.43420    1.000
    C63      C        0.16010    0.42340    0.28580    1.000
    H38      H        0.09950    0.45260    0.26770    1.000
    H39      H        0.16110    0.35810    0.31870    1.000
    C64      C        0.13470    0.39820    0.16470    1.000
    H40      H        0.11930    0.48770    0.16290    1.000
    H41      H        0.17000    0.38500    0.13470    1.000
    C65      C        0.05040    0.32080    0.13980    1.000
    C66      C        0.03540    0.21480    0.17180    1.000
    H42      H        0.07810    0.18860    0.21070    1.000
    C67      C        0.95780    0.14410    0.14790    1.000
    H43      H        0.94880    0.07250    0.17110    1.000
    C68      C        0.89510    0.18070    0.09030    1.000
    C69      C        0.90770    0.28860    0.05830    1.000
    H44      H        0.86410    0.31510    0.02000    1.000
    C70      C        0.98470    0.35920    0.08230    1.000
    H45      H        0.99250    0.43250    0.05980    1.000
    C71      C        0.81250    0.10420    0.06260    1.000
    C72      C        0.34700    0.03240    0.15030    1.000
    O17      O        0.49800    0.07970    0.40744    1.000
    O18      O        0.39210    0.16880    0.44057    1.000
    O19      O        0.46050    0.82990    0.43310    1.000
    O20      O        0.34860    0.91190    0.46181    1.000
    O21      O        0.80450    0.00810    0.09950    1.000
    O22      O        0.75810    0.13320    0.01030    1.000
    O23      O        0.31140    0.07050    0.09164    1.000
    O24      O        0.39440    0.93400    0.16149    1.000
    Eu3      Eu       0.60089    0.92134    0.45423    1.000
    N3       N        0.18780    0.36740    0.23210    1.000
    C73      C        0.74760    0.27220    0.25480    1.000
    C74      C        0.73130    0.19950    0.30600    1.000
    H46      H        0.76520    0.21350    0.35010    1.000
    C75      C        0.66610    0.10780    0.29240    1.000
    C76      C        0.61330    0.08570    0.22730    1.000
    H47      H        0.56840    0.02530    0.21830    1.000
    C77      C        0.62920    0.15650    0.17570    1.000
    C78      C        0.69590    0.24680    0.18930    1.000
    H48      H        0.70650    0.29130    0.15410    1.000
    C79      C        0.57530    0.13250    0.10400    1.000
    C80      C        0.61870    0.83180    0.06870    1.000
    C81      C        0.67810    0.73200    0.10880    1.000
    C82      C        0.65280    0.66500    0.15670    1.000
    H49      H        0.60030    0.68550    0.16540    1.000
    C83      C        0.70530    0.56730    0.19180    1.000
    H50      H        0.68790    0.52360    0.22420    1.000
    C84      C        0.78280    0.53390    0.17950    1.000
    C85      C        0.80860    0.60300    0.13240    1.000
    H51      H        0.86160    0.58350    0.12430    1.000
    C86      C        0.75680    0.70060    0.09740    1.000
    H52      H        0.77510    0.74580    0.06580    1.000
    C87      C        0.83990    0.42340    0.21420    1.000
    H53      H        0.90050    0.45260    0.23230    1.000
    H54      H        0.83890    0.35810    0.18130    1.000
    C88      C        0.86530    0.39820    0.33530    1.000
    H55      H        0.88070    0.48770    0.33710    1.000
    H56      H        0.83000    0.38500    0.36530    1.000
    C89      C        0.94960    0.32080    0.36020    1.000
    C90      C        0.96460    0.21480    0.32820    1.000
    H57      H        0.92190    0.18860    0.28930    1.000
    C91      C        0.04220    0.14410    0.35210    1.000
    H58      H        0.05120    0.07250    0.32890    1.000
    C92      C        0.10490    0.18070    0.40970    1.000
    C93      C        0.09230    0.28860    0.44170    1.000
    H59      H        0.13590    0.31510    0.48000    1.000
    C94      C        0.01530    0.35920    0.41770    1.000
    H60      H        0.00750    0.43250    0.44020    1.000
    C95      C        0.18750    0.10420    0.43740    1.000
    C96      C        0.65300    0.03240    0.34970    1.000
    O25      O        0.50200    0.07970    0.09256    1.000
    O26      O        0.60790    0.16880    0.05943    1.000
    O27      O        0.53950    0.82990    0.06690    1.000
    O28      O        0.65140    0.91190    0.03819    1.000
    O29      O        0.19550    0.00810    0.40050    1.000
    O30      O        0.24190    0.13320    0.48970    1.000
    O31      O        0.68860    0.07050    0.40836    1.000
    O32      O        0.60560    0.93400    0.33851    1.000
    Eu4      Eu       0.39911    0.92134    0.04577    1.000
    N4       N        0.81220    0.36740    0.26790    1.000
