# CIF file generated by openbabel 3.1.0, see https://openbabel.org
data_I
_chemical_name_common 'image0'
_cell_length_a 6.6118
_cell_length_b 12.4325
_cell_length_c 8.8075
_cell_angle_alpha 90
_cell_angle_beta 107.723
_cell_angle_gamma 90
_space_group_name_H-M_alt 'P 1'
_space_group_name_Hall 'P 1'
loop_
    _symmetry_equiv_pos_as_xyz
    x,y,z
loop_
    _atom_site_label
    _atom_site_type_symbol
    _atom_site_fract_x
    _atom_site_fract_y
    _atom_site_fract_z
    _atom_site_occupancy
    F1       F        0.21830    0.38055    0.54250    1.000
    N1       N        0.79720    0.12500    0.85890    1.000
    N2       N        0.58900    0.12120    0.85010    1.000
    N3       N        0.48120    0.19270    0.75060    1.000
    N4       N        0.61620    0.24710    0.68920    1.000
    C1       C        0.80820    0.20500    0.75930    1.000
    N5       N        0.98970    0.23600    0.73060    1.000
    H1       H        0.98650    0.28630    0.66290    1.000
    H2       H        0.10800    0.20540    0.78020    1.000
    F2       F        0.78170    0.38055    0.45750    1.000
    N6       N        0.20280    0.12500    0.14110    1.000
    N7       N        0.41100    0.12120    0.14990    1.000
    N8       N        0.51880    0.19270    0.24940    1.000
    N9       N        0.38380    0.24710    0.31080    1.000
    C2       C        0.19180    0.20500    0.24070    1.000
    N10      N        0.01030    0.23600    0.26940    1.000
    H3       H        0.01350    0.28630    0.33710    1.000
    H4       H        0.89200    0.20540    0.21980    1.000
    F3       F        0.78170    0.61945    0.45750    1.000
    N11      N        0.20280    0.87500    0.14110    1.000
    N12      N        0.41100    0.87880    0.14990    1.000
    N13      N        0.51880    0.80730    0.24940    1.000
    N14      N        0.38380    0.75290    0.31080    1.000
    C3       C        0.19180    0.79500    0.24070    1.000
    N15      N        0.01030    0.76400    0.26940    1.000
    H5       H        0.01350    0.71370    0.33710    1.000
    H6       H        0.89200    0.79460    0.21980    1.000
    F4       F        0.21830    0.61945    0.54250    1.000
    N16      N        0.79720    0.87500    0.85890    1.000
    N17      N        0.58900    0.87880    0.85010    1.000
    N18      N        0.48120    0.80730    0.75060    1.000
    N19      N        0.61620    0.75290    0.68920    1.000
    C4       C        0.80820    0.79500    0.75930    1.000
    N20      N        0.98970    0.76400    0.73060    1.000
    H7       H        0.98650    0.71370    0.66290    1.000
    H8       H        0.10800    0.79460    0.78020    1.000
    Fe1      Fe       0.50000    0.00000    0.00000    1.000
    Fe2      Fe       0.00000    0.00000    0.00000    1.000
    Fe3      Fe       0.50000    0.36653    0.50000    1.000
    Fe4      Fe       0.50000    0.63347    0.50000    1.000
    Fe5      Fe       0.00000    0.50000    0.50000    1.000
    F5       F        0.80420    0.00000    0.13880    1.000
    F6       F        0.19580    0.00000    0.86120    1.000
    O1       O        0.60610    0.50000    0.66600    1.000
    O2       O        0.99650    0.50000    0.25770    1.000
    C5       C        0.17600    0.50000    0.22900    1.000
    O3       O        0.39390    0.50000    0.33400    1.000
    O4       O        0.00350    0.50000    0.74230    1.000
    C6       C        0.82400    0.50000    0.77100    1.000
