# CIF file generated by openbabel 3.1.0, see https://openbabel.org
data_I
_chemical_name_common 'CITZIP_clean\(2)'
_cell_length_a 10.8123
_cell_length_b 11.1357
_cell_length_c 11.1357
_cell_angle_alpha 103.708
_cell_angle_beta 102.157
_cell_angle_gamma 77.8431
_space_group_name_H-M_alt 'P 1'
_space_group_name_Hall 'P 1'
loop_
    _symmetry_equiv_pos_as_xyz
    x,y,z
loop_
    _atom_site_label
    _atom_site_type_symbol
    _atom_site_fract_x
    _atom_site_fract_y
    _atom_site_fract_z
    _atom_site_occupancy
    Co1      Co       0.93187    0.07331    0.90183    1.000
    Co2      Co       0.56549    0.89997    0.07478    1.000
    Co3      Co       0.06553    0.92614    0.10077    1.000
    Co4      Co       0.43148    0.09923    0.92732    1.000
    Co5      Co       0.74863    0.91513    0.91664    1.000
    Co6      Co       0.24814    0.08417    0.08554    1.000
    H7       H        0.94002    0.53083    0.87271    1.000
    H8       H        0.03061    0.30761    0.85623    1.000
    H9       H        0.60267    0.46369    0.97938    1.000
    H10      H        0.55726    0.87136    0.53251    1.000
    H11      H        0.46654    0.85485    0.30927    1.000
    H12      H        0.89461    0.97778    0.46511    1.000
    H13      H        0.05700    0.46853    0.12937    1.000
    H14      H        0.96646    0.69176    0.14585    1.000
    H15      H        0.39432    0.53558    0.02256    1.000
    H16      H        0.43997    0.12787    0.46977    1.000
    H17      H        0.53059    0.14439    0.69301    1.000
    H18      H        0.10260    0.02132    0.53705    1.000
    C19      C        0.88378    0.47036    0.89256    1.000
    C20      C        0.93665    0.34038    0.88225    1.000
    C21      C        0.76549    0.52417    0.93445    1.000
    C22      C        0.69591    0.43191    0.95178    1.000
    C23      C        0.72303    0.67339    0.95749    1.000
    C24      C        0.74895    0.29717    0.93262    1.000
    C25      C        0.68531    0.18798    0.94290    1.000
    C26      C        0.61347    0.89117    0.47199    1.000
    C27      C        0.56051    0.88087    0.34202    1.000
    C28      C        0.73186    0.93292    0.52573    1.000
    C29      C        0.80134    0.95025    0.43341    1.000
    C30      C        0.77451    0.95582    0.67495    1.000
    C31      C        0.74819    0.93116    0.29870    1.000
    C32      C        0.81179    0.94147    0.18950    1.000
    C33      C        0.11324    0.52897    0.10945    1.000
    C34      C        0.06037    0.65894    0.11972    1.000
    C35      C        0.23154    0.47512    0.06760    1.000
    C36      C        0.30107    0.56737    0.05015    1.000
    C37      C        0.27402    0.32587    0.04467    1.000
    C38      C        0.24801    0.70212    0.06926    1.000
    C39      C        0.31160    0.81136    0.05905    1.000
    C40      C        0.38373    0.10805    0.53028    1.000
    C41      C        0.43662    0.11837    0.66023    1.000
    C42      C        0.26540    0.06625    0.47652    1.000
    C43      C        0.19584    0.04890    0.56880    1.000
    C44      C        0.22287    0.04326    0.32730    1.000
    C45      C        0.24892    0.06805    0.70353    1.000
    C46      C        0.18541    0.05775    0.81284    1.000
    N47      N        0.87216    0.25718    0.90534    1.000
    N48      N        0.62496    0.90389    0.25875    1.000
    N49      N        0.12485    0.74213    0.09658    1.000
    N50      N        0.37211    0.09535    0.74345    1.000
    O51      O        0.94769    0.90548    0.93116    1.000
    O52      O        0.77382    0.08113    0.95572    1.000
    O53      O        0.56848    0.19043    0.93718    1.000
    O54      O        0.76083    0.73897    0.89461    1.000
    O55      O        0.65559    0.73306    0.04257    1.000
    O56      O        0.54961    0.92947    0.90679    1.000
    O57      O        0.72326    0.95437    0.08266    1.000
    O58      O        0.92862    0.93575    0.19197    1.000
    O59      O        0.73646    0.89311    0.74050    1.000
    O60      O        0.84237    0.04059    0.73464    1.000
    O61      O        0.04865    0.09527    0.07296    1.000
    O62      O        0.22302    0.91826    0.04623    1.000
    O63      O        0.42844    0.80888    0.06487    1.000
    O64      O        0.23631    0.26033    0.10767    1.000
    O65      O        0.34138    0.26614    0.95955    1.000
    O66      O        0.44727    0.06966    0.09520    1.000
    O67      O        0.27377    0.04486    0.91956    1.000
    O68      O        0.06872    0.06360    0.81069    1.000
    O69      O        0.26053    0.10620    0.26170    1.000
    O70      O        0.15558    0.95810    0.26764    1.000
    H71      H        0.48578    0.13675    0.15793    1.000
    H72      H        0.51112    0.86235    0.84408    1.000
    H73      H        0.98629    0.84282    0.86407    1.000
