data_functionalizedCrystal
_audit_creation_method	'EQeq! by Chris Wilmer'
_symmetry_space_group_name_H-M	'P1'
_symmetry_Int_Tables_number	1
_symmetry_cell_setting	triclinic
loop_
_symmetry_equiv_pos_as_xyz
  x,y,z
_cell_length_a	11.27
_cell_length_b	9.842
_cell_length_c	13.99
_cell_angle_alpha	90
_cell_angle_beta	93.25
_cell_angle_gamma	90
loop_
_atom_site_label
_atom_site_type_symbol
_atom_site_fract_x
_atom_site_fract_y
_atom_site_fract_z
_atom_site_charge
Mof_Zn	Zn	0.74472	0.25233	0.84055	1.188
Mof_S 	S 	0.7774	0.065	0.6737	-2.172
Mof_C 	C 	0.5985	0.3028	0.007	0.085
Mof_H 	H 	0.6291	0.3905	0.011	0.086
Mof_C 	C 	0.5671	0.0979	0.9612	0.06
Mof_C 	C 	0.5634	0.974	0.9148	-0.142
Mof_H 	H 	0.6026	0.957	0.8593	0.099
Mof_C 	C 	0.4957	0.8775	0.9587	0.108
Mof_C 	C 	0.9807	0.3183	0.9392	0.097
Mof_H 	H 	0.9756	0.4095	0.9223	0.053
Mof_C 	C 	0.0428	0.1259	0.0045	0.083
Mof_C 	C 	0.1079	0.0294	0.0593	-0.132
Mof_H 	H 	0.1748	0.0509	0.0984	0.094
Mof_C 	C 	0.9371	0.1005	0.9504	0.091
Mof_C 	C 	0.8963	0.1035	0.694	2.576
Mof_H 	H 	0.9096	0.1917	0.6674	-0.713
Mof_H 	H 	0.948	0.0387	0.6663	-0.702
Mof_H 	H 	0.9126	0.1062	0.762	-0.742
Mof_C 	C 	0.7416	0.0628	0.5737	2.472
Mof_H 	H 	0.7536	0.1511	0.5467	-0.658
Mof_H 	H 	0.659	0.039	0.5659	-0.678
Mof_H 	H 	0.7882	0.9971	0.5418	-0.715
Mof_N 	N 	0.6257	0.2175	0.9363	-0.267
Mof_N 	N 	0.8983	0.2204	0.9072	-0.257
Mof_N 	N 	0.0645	0.2687	0.9947	-0.086
Mof_N 	N 	0.4711	0.7423	0.9317	-0.081
Mof_O 	O 	0.7002	0.1501	0.727	0.136
Mof_O 	O 	0.7615	0.931	0.7145	0.111
Mof_Zn	Zn	0.75528	0.75233	0.65945	1.189
Mof_S 	S 	0.7226	0.565	0.8263	-2.171
Mof_C 	C 	0.9015	0.8028	0.493	0.087
Mof_H 	H 	0.8709	0.8905	0.489	0.087
Mof_C 	C 	0.9329	0.5979	0.5388	0.06
Mof_C 	C 	0.9366	0.474	0.5852	-0.139
Mof_H 	H 	0.8974	0.457	0.6407	0.099
Mof_C 	C 	0.0043	0.3775	0.5413	0.109
Mof_C 	C 	0.5193	0.8183	0.5608	0.098
Mof_H 	H 	0.5244	0.9095	0.5777	0.053
Mof_C 	C 	0.4572	0.6259	0.4955	0.083
Mof_C 	C 	0.3921	0.5294	0.4407	-0.132
Mof_H 	H 	0.3252	0.5509	0.4016	0.094
Mof_C 	C 	0.5629	0.6005	0.5496	0.091
Mof_C 	C 	0.6037	0.6035	0.806	2.575
Mof_H 	H 	0.5904	0.6917	0.8326	-0.712
Mof_H 	H 	0.552	0.5387	0.8337	-0.701
Mof_H 	H 	0.5874	0.6062	0.738	-0.742
Mof_C 	C 	0.7584	0.5628	0.9263	2.474
Mof_H 	H 	0.7464	0.6511	0.9533	-0.658
Mof_H 	H 	0.841	0.539	0.9341	-0.679
Mof_H 	H 	0.7118	0.4971	0.9582	-0.716
Mof_N 	N 	0.8743	0.7175	0.5637	-0.267
Mof_N 	N 	0.6017	0.7204	0.5928	-0.257
Mof_N 	N 	0.4355	0.7687	0.5053	-0.088
Mof_N 	N 	0.0289	0.2423	0.5683	-0.081
Mof_O 	O 	0.7998	0.6501	0.773	0.136
Mof_O 	O 	0.7385	0.431	0.7855	0.111
Mof_Zn	Zn	0.25528	0.74767	0.15945	1.189
Mof_S 	S 	0.2226	0.935	0.3263	-2.171
Mof_C 	C 	0.4015	0.6972	0.993	0.086
Mof_H 	H 	0.3709	0.6095	0.989	0.087
Mof_C 	C 	0.4329	0.9021	0.0388	0.061
Mof_C 	C 	0.4366	0.026	0.0852	-0.141
Mof_H 	H 	0.3974	0.043	0.1407	0.099
Mof_C 	C 	0.5043	0.1225	0.0413	0.108
Mof_C 	C 	0.0193	0.6817	0.0608	0.097
Mof_H 	H 	0.0244	0.5905	0.0777	0.053
Mof_C 	C 	0.9572	0.8741	0.9955	0.083
Mof_C 	C 	0.8921	0.9706	0.9407	-0.132
Mof_H 	H 	0.8252	0.9491	0.9016	0.094
Mof_C 	C 	0.0629	0.8995	0.0496	0.091
Mof_C 	C 	0.1037	0.8965	0.306	2.576
Mof_H 	H 	0.0904	0.8083	0.3326	-0.713
Mof_H 	H 	0.052	0.9613	0.3337	-0.702
Mof_H 	H 	0.0874	0.8938	0.238	-0.742
Mof_C 	C 	0.2584	0.9372	0.4263	2.472
Mof_H 	H 	0.2464	0.8489	0.4533	-0.658
Mof_H 	H 	0.341	0.961	0.4341	-0.678
Mof_H 	H 	0.2118	0.0029	0.4582	-0.715
Mof_N 	N 	0.3743	0.7825	0.0637	-0.267
Mof_N 	N 	0.1017	0.7796	0.0928	-0.257
Mof_N 	N 	0.9355	0.7313	0.0053	-0.086
Mof_N 	N 	0.5289	0.2577	0.0683	-0.081
Mof_O 	O 	0.2998	0.8499	0.273	0.136
Mof_O 	O 	0.2385	0.069	0.2855	0.111
Mof_Zn	Zn	0.24472	0.24767	0.34055	1.189
Mof_S 	S 	0.2774	0.435	0.1737	-2.171
Mof_C 	C 	0.0985	0.1972	0.507	0.087
Mof_H 	H 	0.1291	0.1095	0.511	0.087
Mof_C 	C 	0.0671	0.4021	0.4612	0.06
Mof_C 	C 	0.0634	0.526	0.4148	-0.139
Mof_H 	H 	0.1026	0.543	0.3593	0.099
Mof_C 	C 	0.9957	0.6225	0.4587	0.109
Mof_C 	C 	0.4807	0.1817	0.4392	0.098
Mof_H 	H 	0.4756	0.0905	0.4223	0.053
Mof_C 	C 	0.5428	0.3741	0.5045	0.083
Mof_C 	C 	0.6079	0.4706	0.5593	-0.132
Mof_H 	H 	0.6748	0.4491	0.5984	0.094
Mof_C 	C 	0.4371	0.3995	0.4504	0.091
Mof_C 	C 	0.3963	0.3965	0.194	2.575
Mof_H 	H 	0.4096	0.3083	0.1674	-0.712
Mof_H 	H 	0.448	0.4613	0.1663	-0.701
Mof_H 	H 	0.4126	0.3938	0.262	-0.742
Mof_C 	C 	0.2416	0.4372	0.0737	2.474
Mof_H 	H 	0.2536	0.3489	0.0467	-0.658
Mof_H 	H 	0.159	0.461	0.0659	-0.679
Mof_H 	H 	0.2882	0.5029	0.0418	-0.716
Mof_N 	N 	0.1257	0.2825	0.4363	-0.267
Mof_N 	N 	0.3983	0.2796	0.4072	-0.257
Mof_N 	N 	0.5645	0.2313	0.4947	-0.088
Mof_N 	N 	0.9711	0.7577	0.4317	-0.081
Mof_O 	O 	0.2002	0.3499	0.227	0.136
Mof_O 	O 	0.2615	0.569	0.2145	0.111
_end
