data_functionalizedCrystal
_audit_creation_method	'EQeq! by Chris Wilmer'
_symmetry_space_group_name_H-M	'P1'
_symmetry_Int_Tables_number	1
_symmetry_cell_setting	triclinic
loop_
_symmetry_equiv_pos_as_xyz
  x,y,z
_cell_length_a	19.415
_cell_length_b	7.071
_cell_length_c	11.483
_cell_angle_alpha	90
_cell_angle_beta	92.78
_cell_angle_gamma	90
loop_
_atom_site_label
_atom_site_type_symbol
_atom_site_fract_x
_atom_site_fract_y
_atom_site_fract_z
_atom_site_charge
Mof_O 	O 	0.331	0.182	0.629	-0.39
Mof_O 	O 	0.304	0.158	0.367	-0.506
Mof_C 	C 	0.504	0.178	0.433	0.059
Mof_N 	N 	0.261	0.195	0.878	-0.087
Mof_C 	C 	0.32	0.27	0.959	0.064
Mof_C 	C 	0.202	0.111	0.949	0.054
Mof_O 	O 	0.831	0.682	0.629	-0.39
Mof_O 	O 	0.804	0.658	0.367	-0.506
Mof_C 	C 	0.004	0.678	0.433	0.056
Mof_N 	N 	0.761	0.695	0.878	-0.087
Mof_C 	C 	0.82	0.77	0.959	0.063
Mof_C 	C 	0.702	0.611	0.949	0.044
Mof_O 	O 	0.669	0.182	0.371	-0.389
Mof_O 	O 	0.696	0.158	0.633	-0.505
Mof_C 	C 	0.496	0.178	0.567	0.06
Mof_N 	N 	0.739	0.195	0.122	-0.086
Mof_C 	C 	0.68	0.27	0.041	0.064
Mof_C 	C 	0.798	0.111	0.051	0.054
Mof_O 	O 	0.169	0.682	0.371	-0.39
Mof_O 	O 	0.196	0.658	0.633	-0.506
Mof_C 	C 	0.996	0.678	0.567	0.056
Mof_N 	N 	0.239	0.695	0.122	-0.087
Mof_C 	C 	0.18	0.77	0.041	0.063
Mof_C 	C 	0.298	0.611	0.051	0.044
Mof_O 	O 	0.669	0.818	0.371	-0.396
Mof_O 	O 	0.696	0.842	0.633	-0.514
Mof_C 	C 	0.496	0.822	0.567	0.051
Mof_N 	N 	0.739	0.805	0.122	-0.087
Mof_C 	C 	0.68	0.73	0.041	0.058
Mof_C 	C 	0.798	0.889	0.051	0.032
Mof_O 	O 	0.169	0.318	0.371	-0.387
Mof_O 	O 	0.196	0.342	0.633	-0.504
Mof_C 	C 	0.996	0.322	0.567	0.062
Mof_N 	N 	0.239	0.305	0.122	-0.084
Mof_C 	C 	0.18	0.23	0.041	0.063
Mof_C 	C 	0.298	0.389	0.051	0.043
Mof_O 	O 	0.331	0.818	0.629	-0.396
Mof_O 	O 	0.304	0.842	0.367	-0.514
Mof_C 	C 	0.504	0.822	0.433	0.051
Mof_N 	N 	0.261	0.805	0.878	-0.087
Mof_C 	C 	0.32	0.73	0.959	0.058
Mof_C 	C 	0.202	0.889	0.949	0.032
Mof_O 	O 	0.831	0.318	0.629	-0.387
Mof_O 	O 	0.804	0.342	0.367	-0.504
Mof_C 	C 	0.004	0.322	0.433	0.062
Mof_N 	N 	0.761	0.305	0.878	-0.084
Mof_C 	C 	0.82	0.23	0.959	0.063
Mof_C 	C 	0.702	0.389	0.949	0.043
Mof_Ti	Ti	0.25	0.25	0.5	1.795
Mof_Ti	Ti	0.75	0.25	0.5	1.795
Mof_Ti	Ti	0.75	0.75	0.5	1.784
Mof_Ti	Ti	0.25	0.75	0.5	1.784
Mof_P 	P 	0.343	0	0.701	0.456
Mof_P 	P 	0.32	0	0.297	0.609
Mof_O 	O 	0.223	8.01601e-33	0.532	-0.678
Mof_O 	O 	0.419	0	0.74	-0.195
Mof_O 	O 	0.287	0	0.175	-0.234
Mof_N 	N 	0.469	8.01601e-33	0.381	-0.084
Mof_C 	C 	0.411	4.008e-33	0.273	-0.01
Mof_C 	C 	0.294	1.6032e-32	0.827	0.014
Mof_P 	P 	0.843	0.5	0.701	0.448
Mof_P 	P 	0.82	0.5	0.297	0.6
Mof_O 	O 	0.723	0.5	0.532	-0.686
Mof_O 	O 	0.919	0.5	0.74	-0.198
Mof_O 	O 	0.787	0.5	0.175	-0.238
Mof_N 	N 	0.969	0.5	0.381	-0.089
Mof_C 	C 	0.911	0.5	0.273	-0.013
Mof_C 	C 	0.794	0.5	0.827	0.006
Mof_P 	P 	0.657	4.008e-33	0.299	0.456
Mof_P 	P 	0.68	0	0.703	0.609
Mof_O 	O 	0.777	8.01601e-33	0.468	-0.678
Mof_O 	O 	0.581	4.008e-33	0.26	-0.195
Mof_O 	O 	0.713	1.6032e-32	0.825	-0.234
Mof_N 	N 	0.531	8.01601e-33	0.619	-0.084
Mof_C 	C 	0.589	3.2064e-32	0.727	-0.01
Mof_C 	C 	0.706	4.008e-33	0.173	0.014
Mof_P 	P 	0.157	0.5	0.299	0.448
Mof_P 	P 	0.18	0.5	0.703	0.6
Mof_O 	O 	0.277	0.5	0.468	-0.686
Mof_O 	O 	0.081	0.5	0.26	-0.198
Mof_O 	O 	0.213	0.5	0.825	-0.238
Mof_N 	N 	0.031	0.5	0.619	-0.089
Mof_C 	C 	0.089	0.5	0.727	-0.013
Mof_C 	C 	0.206	0.5	0.173	0.006
_end
