# CIF file generated by openbabel 3.1.0, see https://openbabel.org
data_I
_chemical_name_common 'image0'
_cell_length_a 7.5764
_cell_length_b 14.12
_cell_length_c 15.795
_cell_angle_alpha 71.81
_cell_angle_beta 87.78
_cell_angle_gamma 79.38
_space_group_name_H-M_alt 'P 1'
_space_group_name_Hall 'P 1'
loop_
    _symmetry_equiv_pos_as_xyz
    x,y,z
loop_
    _atom_site_label
    _atom_site_type_symbol
    _atom_site_fract_x
    _atom_site_fract_y
    _atom_site_fract_z
    _atom_site_occupancy
    Cd1      Cd       0.02100    0.27030    0.72630    1.000
    Cd2      Cd       0.51419    0.16625    0.73773    1.000
    C1       C        0.33970    0.19830    0.88110    1.000
    C2       C        0.24440    0.24250    0.94580    1.000
    C3       C        0.18980    0.18530    0.02330    1.000
    H1       H        0.21250    0.11500    0.03720    1.000
    C4       C        0.10220    0.22870    0.08130    1.000
    H2       H        0.06380    0.18810    0.13470    1.000
    C5       C        0.06910    0.33100    0.06300    1.000
    H3       H        0.00520    0.36030    0.10270    1.000
    C6       C        0.13120    0.39110    0.98500    1.000
    H4       H        0.11350    0.46100    0.97330    1.000
    C7       C        0.21770    0.34850    0.92540    1.000
    C8       C        0.31280    0.54640    0.74490    1.000
    C9       C        0.32500    0.64470    0.73460    1.000
    H5       H        0.28830    0.67290    0.77970    1.000
    C10      C        0.39140    0.70140    0.65760    1.000
    H6       H        0.39890    0.76830    0.65090    1.000
    C11      C        0.44640    0.66260    0.59090    1.000
    H7       H        0.49320    0.70120    0.53900    1.000
    C12      C        0.43040    0.56390    0.60270    1.000
    H8       H        0.46550    0.53670    0.55680    1.000
    C13      C        0.36630    0.50440    0.67760    1.000
    C14      C        0.34020    0.40280    0.67910    1.000
    C15      C        0.09170    0.98290    0.90170    1.000
    C16      C        0.26810    0.93030    0.92500    1.000
    H9       H        0.31440    0.91610    0.98220    1.000
    C17      C        0.36900    0.90070    0.86180    1.000
    H10      H        0.48500    0.86470    0.87720    1.000
    C18      C        0.30790    0.92140    0.77660    1.000
    H11      H        0.38070    0.90110    0.73440    1.000
    C19      C        0.13330    0.97400    0.75510    1.000
    H12      H        0.08640    0.98670    0.69830    1.000
    C20      C        0.03150    0.00660    0.81570    1.000
    C21      C        0.84940    0.06580    0.78750    1.000
    C22      C        0.32250    0.10150    0.46160    1.000
    C23      C        0.29110    0.10730    0.37590    1.000
    H13      H        0.34380    0.05540    0.35350    1.000
    C24      C        0.18130    0.19030    0.32370    1.000
    H14      H        0.16030    0.19490    0.26480    1.000
    C25      C        0.10320    0.26480    0.35340    1.000
    H15      H        0.03030    0.32120    0.31540    1.000
    C26      C        0.12980    0.25890    0.44120    1.000
    H16      H        0.07360    0.31080    0.46290    1.000
    C27      C        0.24050    0.17520    0.49620    1.000
    C28      C        0.27590    0.17330    0.58840    1.000
    C29      C        0.53800    0.51770    0.96250    1.000
    H17      H        0.51730    0.58790    0.93780    1.000
    C30      C        0.65230    0.46070    0.91190    1.000
    C31      C        0.68180    0.35550    0.93790    1.000
    H18      H        0.63130    0.31870    0.98950    1.000
    C32      C        0.78620    0.30720    0.88610    1.000
    H19      H        0.80570    0.23670    0.90370    1.000
    C33      C        0.83150    0.45530    0.78770    1.000
    H20      H        0.88270    0.49090    0.73580    1.000
    C34      C        0.72730    0.50810    0.83630    1.000
    H21      H        0.70810    0.57860    0.81640    1.000
    N1       N        0.27970    0.40210    0.84340    1.000
    N2       N        0.24390    0.49580    0.82630    1.000
    N3       N        0.97500    0.01760    0.96000    1.000
    N4       N        0.43450    0.01560    0.51950    1.000
    N5       N        0.86150    0.35590    0.81180    1.000
    O1       O        0.25530    0.18920    0.81770    1.000
    O2       O        0.50650    0.17420    0.88560    1.000
    O3       O        0.47550    0.33750    0.68280    1.000
    O4       O        0.18280    0.39320    0.67100    1.000
    O5       O        0.82570    0.16020    0.76320    1.000
    O6       O        0.72410    0.02170    0.78640    1.000
    O7       O        0.14300    0.19570    0.62990    1.000
    O8       O        0.43330    0.14990    0.61560    1.000
    Cd3      Cd       0.97900    0.72970    0.27370    1.000
    Cd4      Cd       0.48581    0.83375    0.26227    1.000
    C35      C        0.66030    0.80170    0.11890    1.000
    C36      C        0.75560    0.75750    0.05420    1.000
    C37      C        0.81020    0.81470    0.97670    1.000
    H22      H        0.78750    0.88500    0.96280    1.000
    C38      C        0.89780    0.77130    0.91870    1.000
    H23      H        0.93620    0.81190    0.86530    1.000
    C39      C        0.93090    0.66900    0.93700    1.000
    H24      H        0.99480    0.63970    0.89730    1.000
    C40      C        0.86880    0.60890    0.01500    1.000
    H25      H        0.88650    0.53900    0.02670    1.000
    C41      C        0.78230    0.65150    0.07460    1.000
    C42      C        0.68720    0.45360    0.25510    1.000
    C43      C        0.67500    0.35530    0.26540    1.000
    H26      H        0.71170    0.32710    0.22030    1.000
    C44      C        0.60860    0.29860    0.34240    1.000
    H27      H        0.60110    0.23170    0.34910    1.000
    C45      C        0.55360    0.33740    0.40910    1.000
    H28      H        0.50680    0.29880    0.46100    1.000
    C46      C        0.56960    0.43610    0.39730    1.000
    H29      H        0.53450    0.46330    0.44320    1.000
    C47      C        0.63370    0.49560    0.32240    1.000
    C48      C        0.65980    0.59720    0.32090    1.000
    C49      C        0.90830    0.01710    0.09830    1.000
    C50      C        0.73190    0.06970    0.07500    1.000
    H30      H        0.68560    0.08390    0.01780    1.000
    C51      C        0.63100    0.09930    0.13820    1.000
    H31      H        0.51500    0.13530    0.12280    1.000
    C52      C        0.69210    0.07860    0.22340    1.000
    H32      H        0.61930    0.09890    0.26560    1.000
    C53      C        0.86670    0.02600    0.24490    1.000
    H33      H        0.91360    0.01330    0.30170    1.000
    C54      C        0.96850    0.99340    0.18430    1.000
    C55      C        0.15060    0.93420    0.21250    1.000
    C56      C        0.67750    0.89850    0.53840    1.000
    C57      C        0.70890    0.89270    0.62410    1.000
    H34      H        0.65620    0.94460    0.64650    1.000
    C58      C        0.81870    0.80970    0.67630    1.000
    H35      H        0.83970    0.80510    0.73520    1.000
    C59      C        0.89680    0.73520    0.64660    1.000
    H36      H        0.96970    0.67880    0.68460    1.000
    C60      C        0.87020    0.74110    0.55880    1.000
    H37      H        0.92640    0.68920    0.53710    1.000
    C61      C        0.75950    0.82480    0.50380    1.000
    C62      C        0.72410    0.82670    0.41160    1.000
    C63      C        0.46200    0.48230    0.03750    1.000
    H38      H        0.48270    0.41210    0.06220    1.000
    C64      C        0.34770    0.53930    0.08810    1.000
    C65      C        0.31820    0.64450    0.06210    1.000
    H39      H        0.36870    0.68130    0.01050    1.000
    C66      C        0.21380    0.69280    0.11390    1.000
    H40      H        0.19430    0.76330    0.09630    1.000
    C67      C        0.16850    0.54470    0.21230    1.000
    H41      H        0.11730    0.50910    0.26420    1.000
    C68      C        0.27270    0.49190    0.16370    1.000
    H42      H        0.29190    0.42140    0.18360    1.000
    N6       N        0.72030    0.59790    0.15660    1.000
    N7       N        0.75610    0.50420    0.17370    1.000
    N8       N        0.02500    0.98240    0.04000    1.000
    N9       N        0.56550    0.98440    0.48050    1.000
    N10      N        0.13850    0.64410    0.18820    1.000
    O9       O        0.74470    0.81080    0.18230    1.000
    O10      O        0.49350    0.82580    0.11440    1.000
    O11      O        0.52450    0.66250    0.31720    1.000
    O12      O        0.81720    0.60680    0.32900    1.000
    O13      O        0.17430    0.83980    0.23680    1.000
    O14      O        0.27590    0.97830    0.21360    1.000
    O15      O        0.85700    0.80430    0.37010    1.000
    O16      O        0.56670    0.85010    0.38440    1.000
