# CIF file generated by openbabel 3.1.0, see https://openbabel.org
data_I
_chemical_name_common 'image0'
_cell_length_a 9.3765
_cell_length_b 10.0807
_cell_length_c 18.629
_cell_angle_alpha 86.471
_cell_angle_beta 89.112
_cell_angle_gamma 74.752
_space_group_name_H-M_alt 'P 1'
_space_group_name_Hall 'P 1'
loop_
    _symmetry_equiv_pos_as_xyz
    x,y,z
loop_
    _atom_site_label
    _atom_site_type_symbol
    _atom_site_fract_x
    _atom_site_fract_y
    _atom_site_fract_z
    _atom_site_occupancy
    C1       C        0.76290    0.93580    0.84110    1.000
    C2       C        0.82040    0.04600    0.81700    1.000
    C3       C        0.97170    0.02210    0.80430    1.000
    H1       H        0.01060    0.09640    0.78740    1.000
    C4       C        0.06600    0.89170    0.81590    1.000
    C5       C        0.00900    0.78420    0.84090    1.000
    H2       H        0.07410    0.69530    0.85020    1.000
    C6       C        0.85800    0.80370    0.85300    1.000
    C7       C        0.72520    0.19070    0.80480    1.000
    C8       C        0.22920    0.87090    0.80340    1.000
    C9       C        0.80530    0.68160    0.88120    1.000
    C10      C        0.57710    0.94610    0.93440    1.000
    H3       H        0.64020    0.85600    0.95460    1.000
    C11      C        0.41700    0.94700    0.94690    1.000
    H4       H        0.39620    0.86740    0.92460    1.000
    H5       H        0.35200    0.03230    0.92390    1.000
    C12      C        0.61580    0.06050    0.97320    1.000
    H6       H        0.72220    0.05440    0.96620    1.000
    H7       H        0.55880    0.15070    0.95160    1.000
    C13      C        0.77550    0.37450    0.65300    1.000
    C14      C        0.80660    0.49190    0.67859    1.000
    C15      C        0.95110    0.49140    0.69390    1.000
    H8       H        0.97150    0.57190    0.71030    1.000
    C16      C        0.06600    0.37480    0.68550    1.000
    C17      C        0.03610    0.25810    0.66220    1.000
    H9       H        0.11490    0.17760    0.65770    1.000
    C18      C        0.89290    0.25500    0.64505    1.000
    C19      C        0.69140    0.61760    0.69960    1.000
    C20      C        0.22150    0.37770    0.70300    1.000
    C21      C        0.87000    0.12270    0.61930    1.000
    C22      C        0.56510    0.47400    0.57270    1.000
    H10      H        0.56650    0.56930    0.58400    1.000
    C23      C        0.40780    0.47180    0.55990    1.000
    H11      H        0.34750    0.50320    0.60280    1.000
    H12      H        0.40420    0.37630    0.55260    1.000
    C24      C        0.65700    0.43520    0.50590    1.000
    H13      H        0.66250    0.33840    0.49640    1.000
    H14      H        0.75880    0.44200    0.51420    1.000
    Cd1      Cd       0.52272    0.82389    0.77641    1.000
    Cd2      Cd       0.48663    0.41541    0.74445    1.000
    N1       N        0.60870    0.95780    0.85583    1.000
    H15      H        0.56170    0.05590    0.83970    1.000
    N2       N        0.62790    0.37690    0.63562    1.000
    H16      H        0.62940    0.28220    0.62180    1.000
    O1       O        0.59060    0.20350    0.78851    1.000
    O2       O        0.77910    0.29000    0.80866    1.000
    O3       O        0.27470    0.96920    0.77790    1.000
    O4       O        0.31590    0.75460    0.82025    1.000
    O5       O        0.89040    0.59860    0.92443    1.000
    O6       O        0.68310    0.66730    0.86054    1.000
    O7       O        0.56340    0.60820    0.72118    1.000
    O8       O        0.72500    0.72830    0.70063    1.000
    O9       O        0.24110    0.48790    0.72520    1.000
    O10      O        0.32560    0.27470    0.69397    1.000
    O11      O        0.98220    0.03630    0.59770    1.000
    O12      O        0.74260    0.10370    0.62070    1.000
    C25      C        0.23710    0.06420    0.15890    1.000
    C26      C        0.17960    0.95400    0.18300    1.000
    C27      C        0.02830    0.97790    0.19570    1.000
    H17      H        0.98940    0.90360    0.21260    1.000
    C28      C        0.93400    0.10830    0.18410    1.000
    C29      C        0.99100    0.21580    0.15910    1.000
    H18      H        0.92590    0.30470    0.14980    1.000
    C30      C        0.14200    0.19630    0.14700    1.000
    C31      C        0.27480    0.80930    0.19520    1.000
    C32      C        0.77080    0.12910    0.19660    1.000
    C33      C        0.19470    0.31840    0.11880    1.000
    C34      C        0.42290    0.05390    0.06560    1.000
    H19      H        0.35980    0.14400    0.04540    1.000
    C35      C        0.58300    0.05300    0.05310    1.000
    H20      H        0.60380    0.13260    0.07540    1.000
    H21      H        0.64800    0.96770    0.07610    1.000
    C36      C        0.38420    0.93950    0.02680    1.000
    H22      H        0.27780    0.94560    0.03380    1.000
    H23      H        0.44120    0.84930    0.04840    1.000
    C37      C        0.22450    0.62550    0.34700    1.000
    C38      C        0.19340    0.50810    0.32141    1.000
    C39      C        0.04890    0.50860    0.30610    1.000
    H24      H        0.02850    0.42810    0.28970    1.000
    C40      C        0.93400    0.62520    0.31450    1.000
    C41      C        0.96390    0.74190    0.33780    1.000
    H25      H        0.88510    0.82240    0.34230    1.000
    C42      C        0.10710    0.74500    0.35495    1.000
    C43      C        0.30860    0.38240    0.30040    1.000
    C44      C        0.77850    0.62230    0.29700    1.000
    C45      C        0.13000    0.87730    0.38070    1.000
    C46      C        0.43490    0.52600    0.42730    1.000
    H26      H        0.43350    0.43070    0.41600    1.000
    C47      C        0.59220    0.52820    0.44010    1.000
    H27      H        0.65250    0.49680    0.39720    1.000
    H28      H        0.59580    0.62370    0.44740    1.000
    C48      C        0.34300    0.56480    0.49410    1.000
    H29      H        0.33750    0.66160    0.50360    1.000
    H30      H        0.24120    0.55800    0.48580    1.000
    Cd3      Cd       0.47728    0.17611    0.22359    1.000
    Cd4      Cd       0.51337    0.58459    0.25555    1.000
    N3       N        0.39130    0.04220    0.14417    1.000
    H31      H        0.43830    0.94410    0.16030    1.000
    N4       N        0.37210    0.62310    0.36438    1.000
    H32      H        0.37060    0.71780    0.37820    1.000
    O13      O        0.40940    0.79650    0.21149    1.000
    O14      O        0.22090    0.71000    0.19134    1.000
    O15      O        0.72530    0.03080    0.22210    1.000
    O16      O        0.68410    0.24540    0.17975    1.000
    O17      O        0.10960    0.40140    0.07557    1.000
    O18      O        0.31690    0.33270    0.13946    1.000
    O19      O        0.43660    0.39180    0.27882    1.000
    O20      O        0.27500    0.27170    0.29937    1.000
    O21      O        0.75890    0.51210    0.27480    1.000
    O22      O        0.67440    0.72530    0.30603    1.000
    O23      O        0.01780    0.96370    0.40230    1.000
    O24      O        0.25740    0.89630    0.37930    1.000
