data_functionalizedCrystal
_audit_creation_method	'EQeq! by Chris Wilmer'
_symmetry_space_group_name_H-M	'P1'
_symmetry_Int_Tables_number	1
_symmetry_cell_setting	triclinic
loop_
_symmetry_equiv_pos_as_xyz
  x,y,z
_cell_length_a	14.301
_cell_length_b	14.658
_cell_length_c	20.059
_cell_angle_alpha	108.348
_cell_angle_beta	90.323
_cell_angle_gamma	107.607
loop_
_atom_site_label
_atom_site_type_symbol
_atom_site_fract_x
_atom_site_fract_y
_atom_site_fract_z
_atom_site_charge
Mof_Ag	Ag	0.6725	0.5368	0.92018	0.255
Mof_Ag	Ag	0.3646	0.8234	0.83297	0.413
Mof_Ag	Ag	0.49417	0.2905	0.0474	0.426
Mof_N 	N 	0.3667	0.2865	0.1129	-0.131
Mof_O 	O 	0.5299	0.1348	0.0164	-0.172
Mof_N 	N 	0.3347	0.3628	0.1399	-0.125
Mof_N 	N 	0.3538	0.2302	0.1557	-0.17
Mof_N 	N 	0.3004	0.36	0.2014	-0.167
Mof_C 	C 	0.3136	0.2772	0.2096	0.11
Mof_Ag	Ag	0.39956	0.09487	0.14541	0.456
Mof_Ag	Ag	0.23583	0.47871	0.25917	0.486
Mof_C 	C 	0.2835	0.2372	0.2671	-0.055
Mof_C 	C 	0.2079	0.6081	0.3635	-0.067
Mof_C 	C 	0.1682	0.5148	0.3753	-0.118
Mof_N 	N 	0.1383	0.4831	0.1692	-0.175
Mof_C 	C 	0.3201	0.2935	0.3378	-0.038
Mof_C 	C 	0.2171	0.1404	0.2506	-0.041
Mof_C 	C 	0.3035	0.6738	0.3958	-0.068
Mof_H 	H 	0.1715	0.6267	0.3345	-0.002
Mof_C 	C 	0.2227	0.4871	0.4193	-0.013
Mof_H 	H 	0.1057	0.4716	0.3539	0.039
Mof_N 	N 	0.1329	0.5664	0.1571	-0.137
Mof_C 	C 	0.0844	0.4049	0.1143	0.095
Mof_C 	C 	0.2866	0.2463	0.3912	-0.07
Mof_H 	H 	0.3645	0.3589	0.3503	0.023
Mof_C 	C 	0.1839	0.0987	0.3051	-0.104
Mof_H 	H 	0.1938	0.1021	0.2036	0.026
Mof_C 	C 	0.3429	0.7692	0.3858	0.096
Mof_C 	C 	0.3556	0.6432	0.4393	-0.025
Mof_H 	H 	0.1966	0.4252	0.4267	0.021
Mof_C 	C 	0.3141	0.5506	0.4514	-0.08
Mof_Ag	Ag	0.2163	0.72013	0.23098	0.432
Mof_N 	N 	0.0765	0.5399	0.0976	-0.131
Mof_C 	C 	0.0731	0.2983	0.1042	-0.058
Mof_N 	N 	0.045	0.4381	0.0697	-0.179
Mof_C 	C 	0.2198	0.1535	0.3719	-0.029
Mof_H 	H 	0.3114	0.2806	0.4384	0.032
Mof_Ag	Ag	0.31128	0.99323	0.29492	0.468
Mof_H 	H 	0.1378	0.0343	0.294	0.024
Mof_N 	N 	0.4097	0.853	0.4323	-0.172
Mof_N 	N 	0.3173	0.7937	0.3296	-0.179
Mof_H 	H 	0.4187	0.6848	0.4604	0.005
Mof_H 	H 	0.3492	0.5324	0.4814	0.043
Mof_N 	N 	0.2007	0.8119	0.1542	-0.126
Mof_Ag	Ag	0.05668	0.64016	0.02895	0.472
Mof_C 	C 	0.0481	0.258	0.1571	-0.023
Mof_C 	C 	0.0963	0.2393	0.0405	-0.025
Mof_H 	H 	0.1975	0.1258	0.407	0.004
Mof_N 	N 	0.4239	0.9279	0.4036	-0.132
Mof_Ag	Ag	0.48125	0.90297	0.54165	0.489
Mof_N 	N 	0.3694	0.893	0.3438	-0.128
Mof_N 	N 	0.2557	0.9082	0.1766	-0.128
Mof_C 	C 	0.0416	0.1563	0.1456	-0.058
Mof_H 	H 	0.0354	0.2973	0.2002	0.016
Mof_H 	H 	0.1147	0.2664	0.0046	-0.007
Mof_C 	C 	0.0915	0.1423	0.0319	-0.064
Mof_N 	N 	0.8208	0.2174	0.916	-0.167
Mof_C 	C 	0.0625	0.0996	0.0839	-0.023
Mof_H 	H 	0.0228	0.128	0.1809	0.041
Mof_H 	H 	0.1082	0.1037	0.9901	0.038
Mof_C 	C 	0.7752	0.1365	0.9349	0.1
Mof_N 	N 	0.5337	0.1577	0.3675	-0.165
Mof_N 	N 	0.4597	0.1239	0.3145	-0.115
Mof_H 	H 	0.0573	0.0323	0.0764	0.03
Mof_N 	N 	0.7276	0.0575	0.8769	-0.154
Mof_C 	C 	0.7784	0.1341	0.0087	-0.032
Mof_C 	C 	0.614	0.2052	0.3431	0.1
Mof_N 	N 	0.4905	0.1475	0.2619	-0.122
Mof_C 	C 	0.7583	0.0403	0.0199	-0.063
Mof_C 	C 	0.7981	0.2205	0.0658	-0.035
Mof_N 	N 	0.587	0.1978	0.2755	-0.163
Mof_C 	C 	0.7139	0.2535	0.3818	-0.045
Mof_H 	H 	0.7418	0.9794	0.9824	0.025
Mof_C 	C 	0.7646	0.0431	0.0921	-0.025
Mof_C 	C 	0.8034	0.2164	0.1334	-0.083
Mof_H 	H 	0.8081	0.2825	0.0591	0
Mof_C 	C 	0.7756	0.3464	0.3761	-0.037
Mof_C 	C 	0.746	0.2079	0.4239	-0.031
Mof_C 	C 	0.7838	0.1278	0.1465	-0.098
Mof_H 	H 	0.7548	0.9824	0.101	0.007
Mof_H 	H 	0.8211	0.2768	0.1714	0.02
Mof_H 	H 	0.7542	0.3769	0.3474	0.021
Mof_C 	C 	0.8663	0.3897	0.4133	-0.051
Mof_H 	H 	0.7057	0.147	0.4276	0
Mof_C 	C 	0.8413	0.2558	0.4611	-0.053
Mof_H 	H 	0.7839	0.1265	0.1926	0.027
Mof_H 	H 	0.907	0.4508	0.4103	0.034
Mof_C 	C 	0.8997	0.3454	0.4558	-0.033
Mof_H 	H 	0.8644	0.2261	0.4896	0.031
Mof_H 	H 	0.9623	0.3767	0.4807	0.032
Mof_O 	O 	0.422	0.793	0.9838	-0.246
Mof_Ag	Ag	0.3275	0.4632	0.07982	0.256
Mof_Ag	Ag	0.6354	0.1766	0.16703	0.414
Mof_Ag	Ag	0.50583	0.7095	0.9526	0.426
Mof_N 	N 	0.6333	0.7135	0.8871	-0.131
Mof_O 	O 	0.4701	0.8652	0.9836	-0.172
Mof_N 	N 	0.6653	0.6372	0.8601	-0.125
Mof_N 	N 	0.6462	0.7698	0.8443	-0.17
Mof_N 	N 	0.6996	0.64	0.7986	-0.167
Mof_C 	C 	0.6864	0.7228	0.7904	0.11
Mof_Ag	Ag	0.60044	0.90513	0.85459	0.456
Mof_Ag	Ag	0.76417	0.52129	0.74083	0.486
Mof_C 	C 	0.7165	0.7628	0.7329	-0.055
Mof_C 	C 	0.7921	0.3919	0.6365	-0.067
Mof_C 	C 	0.8318	0.4852	0.6247	-0.118
Mof_N 	N 	0.8617	0.5169	0.8308	-0.175
Mof_C 	C 	0.6799	0.7065	0.6622	-0.038
Mof_C 	C 	0.7829	0.8596	0.7494	-0.041
Mof_C 	C 	0.6965	0.3262	0.6042	-0.068
Mof_H 	H 	0.8285	0.3733	0.6655	-0.002
Mof_C 	C 	0.7773	0.5129	0.5807	-0.013
Mof_H 	H 	0.8943	0.5284	0.6461	0.039
Mof_N 	N 	0.8671	0.4336	0.8429	-0.137
Mof_C 	C 	0.9156	0.5951	0.8857	0.095
Mof_C 	C 	0.7134	0.7537	0.6088	-0.07
Mof_H 	H 	0.6355	0.6411	0.6497	0.023
Mof_C 	C 	0.8161	0.9013	0.6949	-0.104
Mof_H 	H 	0.8062	0.8979	0.7964	0.026
Mof_C 	C 	0.6571	0.2308	0.6142	0.096
Mof_C 	C 	0.6444	0.3568	0.5607	-0.025
Mof_H 	H 	0.8034	0.5748	0.5733	0.021
Mof_C 	C 	0.6859	0.4494	0.5486	-0.08
Mof_Ag	Ag	0.7837	0.27987	0.76902	0.432
Mof_N 	N 	0.9235	0.4601	0.9024	-0.131
Mof_C 	C 	0.9269	0.7017	0.8958	-0.058
Mof_N 	N 	0.955	0.5619	0.9303	-0.179
Mof_C 	C 	0.7802	0.8465	0.6281	-0.029
Mof_H 	H 	0.6886	0.7194	0.5616	0.032
Mof_Ag	Ag	0.68872	0.00677	0.70508	0.468
Mof_H 	H 	0.8622	0.9657	0.706	0.024
Mof_N 	N 	0.5903	0.147	0.5677	-0.172
Mof_N 	N 	0.6827	0.2063	0.6704	-0.179
Mof_H 	H 	0.5813	0.3152	0.5396	0.005
Mof_H 	H 	0.6508	0.4676	0.5186	0.043
Mof_N 	N 	0.7993	0.1881	0.8458	-0.126
Mof_Ag	Ag	0.94332	0.35984	0.97105	0.472
Mof_C 	C 	0.9519	0.742	0.8429	-0.023
Mof_C 	C 	0.9037	0.7607	0.9595	-0.025
Mof_H 	H 	0.8025	0.8742	0.593	0.004
Mof_N 	N 	0.5761	0.0721	0.5964	-0.132
Mof_Ag	Ag	0.51875	0.09703	0.45835	0.489
Mof_N 	N 	0.6306	0.107	0.6562	-0.128
Mof_N 	N 	0.7443	0.0918	0.8234	-0.128
Mof_C 	C 	0.9584	0.8437	0.8544	-0.058
Mof_H 	H 	0.9646	0.7027	0.7998	0.016
Mof_H 	H 	0.8853	0.7336	0.9954	-0.007
Mof_C 	C 	0.9085	0.8577	0.9681	-0.064
Mof_N 	N 	0.1792	0.7826	0.084	-0.167
Mof_C 	C 	0.9375	0.9004	0.9161	-0.023
Mof_H 	H 	0.9772	0.872	0.8191	0.041
Mof_H 	H 	0.8918	0.8963	0.0099	0.038
Mof_C 	C 	0.2248	0.8635	0.0651	0.1
Mof_N 	N 	0.4663	0.8423	0.6325	-0.165
Mof_N 	N 	0.5403	0.8761	0.6855	-0.115
Mof_H 	H 	0.9427	0.9677	0.9236	0.03
Mof_N 	N 	0.2724	0.9425	0.1231	-0.154
Mof_C 	C 	0.2216	0.8659	0.9913	-0.032
Mof_C 	C 	0.386	0.7948	0.6569	0.1
Mof_N 	N 	0.5095	0.8525	0.7381	-0.122
Mof_C 	C 	0.2417	0.9597	0.9801	-0.063
Mof_C 	C 	0.2019	0.7795	0.9342	-0.035
Mof_N 	N 	0.413	0.8022	0.7245	-0.163
Mof_C 	C 	0.2861	0.7465	0.6182	-0.045
Mof_H 	H 	0.2582	0.0206	0.0176	0.025
Mof_C 	C 	0.2354	0.9569	0.9079	-0.025
Mof_C 	C 	0.1966	0.7836	0.8666	-0.083
Mof_H 	H 	0.1919	0.7175	0.9409	0
Mof_C 	C 	0.2244	0.6536	0.6239	-0.037
Mof_C 	C 	0.254	0.7921	0.5761	-0.031
Mof_C 	C 	0.2162	0.8722	0.8535	-0.098
Mof_H 	H 	0.2452	0.0176	0.899	0.007
Mof_H 	H 	0.1789	0.7232	0.8286	0.02
Mof_H 	H 	0.2458	0.6231	0.6526	0.021
Mof_C 	C 	0.1337	0.6103	0.5867	-0.051
Mof_H 	H 	0.2943	0.853	0.5724	0
Mof_C 	C 	0.1587	0.7442	0.5389	-0.053
Mof_H 	H 	0.2161	0.8735	0.8074	0.027
Mof_H 	H 	0.093	0.5492	0.5897	0.034
Mof_C 	C 	0.1003	0.6546	0.5442	-0.033
Mof_H 	H 	0.1356	0.7739	0.5104	0.031
Mof_H 	H 	0.0377	0.6233	0.5193	0.032
Mof_O 	O 	0.578	0.207	0.0162	-0.246
_end
