# CIF file generated by openbabel 3.1.0, see https://openbabel.org
data_I
_chemical_name_common 'image0'
_cell_length_a 15.0933
_cell_length_b 15.0933
_cell_length_c 10.0587
_cell_angle_alpha 90
_cell_angle_beta 90
_cell_angle_gamma 90
_space_group_name_H-M_alt 'P 1'
_space_group_name_Hall 'P 1'
loop_
    _symmetry_equiv_pos_as_xyz
    x,y,z
loop_
    _atom_site_label
    _atom_site_type_symbol
    _atom_site_fract_x
    _atom_site_fract_y
    _atom_site_fract_z
    _atom_site_occupancy
    Li1      Li       0.44400    0.19060    0.36170    1.000
    O1       O        0.39032    0.12306    0.49200    1.000
    O2       O        0.33320    0.07630    0.68130    1.000
    O3       O        0.08849    0.43546    0.62030    1.000
    O4       O        0.07092    0.34479    0.79400    1.000
    N1       N        0.20990    0.31920    0.50670    1.000
    H1       H        0.19600    0.35700    0.44800    1.000
    N2       N        0.27270    0.25950    0.47900    1.000
    C1       C        0.33480    0.12890    0.58470    1.000
    C2       C        0.26930    0.20210    0.57930    1.000
    C3       C        0.20450    0.22510    0.67120    1.000
    H2       H        0.18960    0.19510    0.74880    1.000
    C4       C        0.16730    0.30160    0.62310    1.000
    C5       C        0.10340    0.36480    0.68260    1.000
    Li2      Li       0.55600    0.80940    0.36170    1.000
    O5       O        0.60968    0.87694    0.49200    1.000
    O6       O        0.66680    0.92370    0.68130    1.000
    O7       O        0.91151    0.56454    0.62030    1.000
    O8       O        0.92908    0.65521    0.79400    1.000
    N3       N        0.79010    0.68080    0.50670    1.000
    H3       H        0.80400    0.64300    0.44800    1.000
    N4       N        0.72730    0.74050    0.47900    1.000
    C6       C        0.66520    0.87110    0.58470    1.000
    C7       C        0.73070    0.79790    0.57930    1.000
    C8       C        0.79550    0.77490    0.67120    1.000
    H4       H        0.81040    0.80490    0.74880    1.000
    C9       C        0.83270    0.69840    0.62310    1.000
    C10      C        0.89660    0.63520    0.68260    1.000
    Li3      Li       0.19060    0.55600    0.63830    1.000
    O9       O        0.12306    0.60968    0.50800    1.000
    O10      O        0.07630    0.66680    0.31870    1.000
    O11      O        0.43546    0.91151    0.37970    1.000
    O12      O        0.34479    0.92908    0.20600    1.000
    N5       N        0.31920    0.79010    0.49330    1.000
    H5       H        0.35700    0.80400    0.55200    1.000
    N6       N        0.25950    0.72730    0.52100    1.000
    C11      C        0.12890    0.66520    0.41530    1.000
    C12      C        0.20210    0.73070    0.42070    1.000
    C13      C        0.22510    0.79550    0.32880    1.000
    H6       H        0.19510    0.81040    0.25120    1.000
    C14      C        0.30160    0.83270    0.37690    1.000
    C15      C        0.36480    0.89660    0.31740    1.000
    Li4      Li       0.80940    0.44400    0.63830    1.000
    O13      O        0.87694    0.39032    0.50800    1.000
    O14      O        0.92370    0.33320    0.31870    1.000
    O15      O        0.56454    0.08849    0.37970    1.000
    O16      O        0.65521    0.07092    0.20600    1.000
    N7       N        0.68080    0.20990    0.49330    1.000
    H7       H        0.64300    0.19600    0.55200    1.000
    N8       N        0.74050    0.27270    0.52100    1.000
    C16      C        0.87110    0.33480    0.41530    1.000
    C17      C        0.79790    0.26930    0.42070    1.000
    C18      C        0.77490    0.20450    0.32880    1.000
    H8       H        0.80490    0.18960    0.25120    1.000
    C19      C        0.69840    0.16730    0.37690    1.000
    C20      C        0.63520    0.10340    0.31740    1.000
    Li5      Li       0.05600    0.69060    0.13830    1.000
    O17      O        0.10968    0.62306    0.00800    1.000
    O18      O        0.16680    0.57630    0.81870    1.000
    O19      O        0.41151    0.93546    0.87970    1.000
    O20      O        0.42908    0.84479    0.70600    1.000
    N9       N        0.29010    0.81920    0.99330    1.000
    H9       H        0.30400    0.85700    0.05200    1.000
    N10      N        0.22730    0.75950    0.02100    1.000
    C21      C        0.16520    0.62890    0.91530    1.000
    C22      C        0.23070    0.70210    0.92070    1.000
    C23      C        0.29550    0.72510    0.82880    1.000
    H10      H        0.31040    0.69510    0.75120    1.000
    C24      C        0.33270    0.80160    0.87690    1.000
    C25      C        0.39660    0.86480    0.81740    1.000
    Li6      Li       0.94400    0.30940    0.13830    1.000
    O21      O        0.89032    0.37694    0.00800    1.000
    O22      O        0.83320    0.42370    0.81870    1.000
    O23      O        0.58849    0.06454    0.87970    1.000
    O24      O        0.57092    0.15521    0.70600    1.000
    N11      N        0.70990    0.18080    0.99330    1.000
    H11      H        0.69600    0.14300    0.05200    1.000
    N12      N        0.77270    0.24050    0.02100    1.000
    C26      C        0.83480    0.37110    0.91530    1.000
    C27      C        0.76930    0.29790    0.92070    1.000
    C28      C        0.70450    0.27490    0.82880    1.000
    H12      H        0.68960    0.30490    0.75120    1.000
    C29      C        0.66730    0.19840    0.87690    1.000
    C30      C        0.60340    0.13520    0.81740    1.000
    Li7      Li       0.30940    0.05600    0.86170    1.000
    O25      O        0.37694    0.10968    0.99200    1.000
    O26      O        0.42370    0.16680    0.18130    1.000
    O27      O        0.06454    0.41151    0.12030    1.000
    O28      O        0.15521    0.42908    0.29400    1.000
    N13      N        0.18080    0.29010    0.00670    1.000
    H13      H        0.14300    0.30400    0.94800    1.000
    N14      N        0.24050    0.22730    0.97900    1.000
    C31      C        0.37110    0.16520    0.08470    1.000
    C32      C        0.29790    0.23070    0.07930    1.000
    C33      C        0.27490    0.29550    0.17120    1.000
    H14      H        0.30490    0.31040    0.24880    1.000
    C34      C        0.19840    0.33270    0.12310    1.000
    C35      C        0.13520    0.39660    0.18260    1.000
    Li8      Li       0.69060    0.94400    0.86170    1.000
    O29      O        0.62306    0.89032    0.99200    1.000
    O30      O        0.57630    0.83320    0.18130    1.000
    O31      O        0.93546    0.58849    0.12030    1.000
    O32      O        0.84479    0.57092    0.29400    1.000
    N15      N        0.81920    0.70990    0.00670    1.000
    H15      H        0.85700    0.69600    0.94800    1.000
    N16      N        0.75950    0.77270    0.97900    1.000
    C36      C        0.62890    0.83480    0.08470    1.000
    C37      C        0.70210    0.76930    0.07930    1.000
    C38      C        0.72510    0.70450    0.17120    1.000
    H16      H        0.69510    0.68960    0.24880    1.000
    C39      C        0.80160    0.66730    0.12310    1.000
    C40      C        0.86480    0.60340    0.18260    1.000
    Ba1      Ba       0.50000    0.00000    0.60891    1.000
    Ba2      Ba       0.00000    0.50000    0.39109    1.000
    Ba3      Ba       0.00000    0.50000    0.89109    1.000
    Ba4      Ba       0.50000    0.00000    0.10891    1.000
