# CIF file generated by openbabel 3.1.0, see https://openbabel.org
data_I
_chemical_name_common 'image0'
_cell_length_a 9.437
_cell_length_b 15.378
_cell_length_c 13.319
_cell_angle_alpha 90
_cell_angle_beta 106.383
_cell_angle_gamma 90
_space_group_name_H-M_alt 'P 1'
_space_group_name_Hall 'P 1'
loop_
    _symmetry_equiv_pos_as_xyz
    x,y,z
loop_
    _atom_site_label
    _atom_site_type_symbol
    _atom_site_fract_x
    _atom_site_fract_y
    _atom_site_fract_z
    _atom_site_occupancy
    C1       C        0.06360    0.18910    0.13570    1.000
    C2       C        0.06240    0.25590    0.21820    1.000
    C3       C        0.93590    0.26490    0.25160    1.000
    H1       H        0.85490    0.22910    0.22400    1.000
    C4       C        0.93040    0.32750    0.32620    1.000
    C5       C        0.79220    0.33440    0.36350    1.000
    C6       C        0.05180    0.38010    0.36760    1.000
    H2       H        0.04750    0.42280    0.41620    1.000
    C7       C        0.18000    0.36950    0.33730    1.000
    C8       C        0.18390    0.30810    0.26250    1.000
    H3       H        0.26930    0.30160    0.24150    1.000
    C9       C        0.31280    0.42390    0.38820    1.000
    O1       O        0.96460    0.13360    0.11180    1.000
    O2       O        0.16820    0.19220    0.09360    1.000
    O3       O        0.43630    0.39650    0.38220    1.000
    O4       O        0.29140    0.49040    0.43560    1.000
    O5       O        0.78550    0.39940    0.42000    1.000
    O6       O        0.69520    0.27840    0.33650    1.000
    Zn1      Zn       0.12617    0.09632    0.98868    1.000
    C10      C        0.43640    0.68910    0.36430    1.000
    C11      C        0.43760    0.75590    0.28180    1.000
    C12      C        0.56410    0.76490    0.24840    1.000
    H4       H        0.64510    0.72910    0.27600    1.000
    C13      C        0.56960    0.82750    0.17380    1.000
    C14      C        0.70780    0.83440    0.13650    1.000
    C15      C        0.44820    0.88010    0.13240    1.000
    H5       H        0.45250    0.92280    0.08380    1.000
    C16      C        0.32000    0.86950    0.16270    1.000
    C17      C        0.31610    0.80810    0.23750    1.000
    H6       H        0.23070    0.80160    0.25850    1.000
    C18      C        0.18720    0.92390    0.11180    1.000
    O7       O        0.53540    0.63360    0.38820    1.000
    O8       O        0.33180    0.69220    0.40640    1.000
    O9       O        0.06370    0.89650    0.11780    1.000
    O10      O        0.20860    0.99040    0.06440    1.000
    O11      O        0.71450    0.89940    0.08000    1.000
    O12      O        0.80480    0.77840    0.16350    1.000
    Zn2      Zn       0.37383    0.59632    0.51132    1.000
    C19      C        0.93640    0.81090    0.86430    1.000
    C20      C        0.93760    0.74410    0.78180    1.000
    C21      C        0.06410    0.73510    0.74840    1.000
    H7       H        0.14510    0.77090    0.77600    1.000
    C22      C        0.06960    0.67250    0.67380    1.000
    C23      C        0.20780    0.66560    0.63650    1.000
    C24      C        0.94820    0.61990    0.63240    1.000
    H8       H        0.95250    0.57720    0.58380    1.000
    C25      C        0.82000    0.63050    0.66270    1.000
    C26      C        0.81610    0.69190    0.73750    1.000
    H9       H        0.73070    0.69840    0.75850    1.000
    C27      C        0.68720    0.57610    0.61180    1.000
    O13      O        0.03540    0.86640    0.88820    1.000
    O14      O        0.83180    0.80780    0.90640    1.000
    O15      O        0.56370    0.60350    0.61780    1.000
    O16      O        0.70860    0.50960    0.56440    1.000
    O17      O        0.21450    0.60060    0.58000    1.000
    O18      O        0.30480    0.72160    0.66350    1.000
    Zn3      Zn       0.87383    0.90368    0.01132    1.000
    C28      C        0.56360    0.31090    0.63570    1.000
    C29      C        0.56240    0.24410    0.71820    1.000
    C30      C        0.43590    0.23510    0.75160    1.000
    H10      H        0.35490    0.27090    0.72400    1.000
    C31      C        0.43040    0.17250    0.82620    1.000
    C32      C        0.29220    0.16560    0.86350    1.000
    C33      C        0.55180    0.11990    0.86760    1.000
    H11      H        0.54750    0.07720    0.91620    1.000
    C34      C        0.68000    0.13050    0.83730    1.000
    C35      C        0.68390    0.19190    0.76250    1.000
    H12      H        0.76930    0.19840    0.74150    1.000
    C36      C        0.81280    0.07610    0.88820    1.000
    O19      O        0.46460    0.36640    0.61180    1.000
    O20      O        0.66820    0.30780    0.59360    1.000
    O21      O        0.93630    0.10350    0.88220    1.000
    O22      O        0.79140    0.00960    0.93560    1.000
    O23      O        0.28550    0.10060    0.92000    1.000
    O24      O        0.19520    0.22160    0.83650    1.000
    Zn4      Zn       0.62617    0.40368    0.48868    1.000
