# CIF file generated by openbabel 3.1.0, see https://openbabel.org
data_I
_chemical_name_common 'image0'
_cell_length_a 14.16
_cell_length_b 7.271
_cell_length_c 8.982
_cell_angle_alpha 90
_cell_angle_beta 108.851
_cell_angle_gamma 90
_space_group_name_H-M_alt 'P 1'
_space_group_name_Hall 'P 1'
loop_
    _symmetry_equiv_pos_as_xyz
    x,y,z
loop_
    _atom_site_label
    _atom_site_type_symbol
    _atom_site_fract_x
    _atom_site_fract_y
    _atom_site_fract_z
    _atom_site_occupancy
    O1       O        0.32740    0.81970    0.95680    1.000
    O2       O        0.34697    0.18050    0.29350    1.000
    C1       C        0.41101    0.89450    0.97690    1.000
    C2       C        0.42077    0.10560    0.39450    1.000
    O3       O        0.82740    0.31970    0.95680    1.000
    O4       O        0.84697    0.68050    0.29350    1.000
    C3       C        0.91101    0.39450    0.97690    1.000
    C4       C        0.92077    0.60560    0.39450    1.000
    O5       O        0.67260    0.81970    0.04320    1.000
    O6       O        0.65303    0.18050    0.70650    1.000
    C5       C        0.58899    0.89450    0.02310    1.000
    C6       C        0.57923    0.10560    0.60550    1.000
    O7       O        0.17260    0.31970    0.04320    1.000
    O8       O        0.15303    0.68050    0.70650    1.000
    C7       C        0.08899    0.39450    0.02310    1.000
    C8       C        0.07923    0.60560    0.60550    1.000
    O9       O        0.67260    0.18030    0.04320    1.000
    O10      O        0.65303    0.81950    0.70650    1.000
    C9       C        0.58899    0.10550    0.02310    1.000
    C10      C        0.57923    0.89440    0.60550    1.000
    O11      O        0.17260    0.68030    0.04320    1.000
    O12      O        0.15303    0.31950    0.70650    1.000
    C11      C        0.08899    0.60550    0.02310    1.000
    C12      C        0.07923    0.39440    0.60550    1.000
    O13      O        0.32740    0.18030    0.95680    1.000
    O14      O        0.34697    0.81950    0.29350    1.000
    C13      C        0.41101    0.10550    0.97690    1.000
    C14      C        0.42077    0.89440    0.39450    1.000
    O15      O        0.82740    0.68030    0.95680    1.000
    O16      O        0.84697    0.31950    0.29350    1.000
    C15      C        0.91101    0.60550    0.97690    1.000
    C16      C        0.92077    0.39440    0.39450    1.000
    Ca1      Ca       0.22726    0.00000    0.08784    1.000
    Ca2      Ca       0.72726    0.50000    0.08784    1.000
    Ca3      Ca       0.77274    0.00000    0.91216    1.000
    Ca4      Ca       0.27274    0.50000    0.91216    1.000
    C17      C        0.50000    0.80010    0.00000    1.000
    H1       H        0.50000    0.65120    0.00000    1.000
    C18      C        0.00000    0.30010    0.00000    1.000
    H2       H        0.00000    0.15120    0.00000    1.000
    C19      C        0.50000    0.19990    0.00000    1.000
    H3       H        0.50000    0.34880    0.00000    1.000
    C20      C        0.00000    0.69990    0.00000    1.000
    H4       H        0.00000    0.84880    0.00000    1.000
    C21      C        0.50000    0.19930    0.50000    1.000
    H5       H        0.50000    0.34840    0.50000    1.000
    C22      C        0.00000    0.69930    0.50000    1.000
    H6       H        0.00000    0.84840    0.50000    1.000
    C23      C        0.50000    0.80070    0.50000    1.000
    H7       H        0.50000    0.65160    0.50000    1.000
    C24      C        0.00000    0.30070    0.50000    1.000
    H8       H        0.00000    0.15160    0.50000    1.000
