data_functionalizedCrystal
_audit_creation_method	'EQeq! by Chris Wilmer'
_symmetry_space_group_name_H-M	'P1'
_symmetry_Int_Tables_number	1
_symmetry_cell_setting	triclinic
loop_
_symmetry_equiv_pos_as_xyz
  x,y,z
_cell_length_a	8.7173
_cell_length_b	19.4288
_cell_length_c	9.6558
_cell_angle_alpha	90
_cell_angle_beta	97.17
_cell_angle_gamma	90
loop_
_atom_site_label
_atom_site_type_symbol
_atom_site_fract_x
_atom_site_fract_y
_atom_site_fract_z
_atom_site_charge
Mof_C 	C 	0.0413	0.9303	0.5228	-0.053
Mof_C 	C 	0.9062	0.9556	0.5714	0.013
Mof_C 	C 	0.8689	0.0251	0.5473	-0.04
Mof_H 	H 	0.7785	0.0427	0.5802	0.064
Mof_C 	C 	0.1029	0.858	0.5497	0.286
Mof_C 	C 	0.5702	0.8438	0.7703	-0.091
Mof_C 	C 	0.6127	0.8209	0.643	0.031
Mof_H 	H 	0.5639	0.7816	0.5988	0.041
Mof_C 	C 	0.7246	0.8552	0.5813	-0.09
Mof_H 	H 	0.7534	0.8386	0.4956	0.077
Mof_C 	C 	0.7971	0.9143	0.643	0.06
Mof_C 	C 	0.754	0.9366	0.7691	-0.099
Mof_H 	H 	0.8005	0.9767	0.8124	0.071
Mof_C 	C 	0.6427	0.9008	0.8333	0.03
Mof_H 	H 	0.6169	0.9159	0.9211	0.039
Mof_C 	C 	0.4514	0.8045	0.8405	0.32
Mof_Cd	Cd	0.2481	0.73026	0.55894	0.434
Mof_O 	O 	0.199	0.8366	0.471	-0.267
Mof_O 	O 	0.0619	0.8217	0.6449	-0.255
Mof_O 	O 	0.4355	0.8221	0.9639	-0.286
Mof_O 	O 	0.3757	0.7577	0.7753	-0.281
Mof_C 	C 	0.9587	0.4303	0.9772	-0.059
Mof_C 	C 	0.0938	0.4556	0.9286	0.015
Mof_C 	C 	0.1311	0.5251	0.9527	-0.038
Mof_H 	H 	0.2215	0.5427	0.9198	0.063
Mof_C 	C 	0.8971	0.358	0.9503	0.284
Mof_C 	C 	0.4298	0.3438	0.7297	-0.091
Mof_C 	C 	0.3873	0.3209	0.857	0.03
Mof_H 	H 	0.4361	0.2816	0.9012	0.041
Mof_C 	C 	0.2754	0.3552	0.9187	-0.088
Mof_H 	H 	0.2466	0.3386	0.0044	0.076
Mof_C 	C 	0.2029	0.4143	0.857	0.059
Mof_C 	C 	0.246	0.4366	0.7309	-0.098
Mof_H 	H 	0.1995	0.4767	0.6876	0.07
Mof_C 	C 	0.3573	0.4008	0.6667	0.03
Mof_H 	H 	0.3831	0.4159	0.5789	0.039
Mof_C 	C 	0.5486	0.3045	0.6595	0.32
Mof_Cd	Cd	0.7519	0.23026	0.94106	0.432
Mof_O 	O 	0.801	0.3366	0.029	-0.264
Mof_O 	O 	0.9381	0.3217	0.8551	-0.256
Mof_O 	O 	0.5645	0.3221	0.5361	-0.287
Mof_O 	O 	0.6243	0.2577	0.7247	-0.281
Mof_C 	C 	0.9587	0.0697	0.4772	-0.054
Mof_C 	C 	0.0938	0.0444	0.4286	0.012
Mof_C 	C 	0.1311	0.9749	0.4527	-0.04
Mof_H 	H 	0.2215	0.9573	0.4198	0.064
Mof_C 	C 	0.8971	0.142	0.4503	0.286
Mof_C 	C 	0.4298	0.1562	0.2297	-0.091
Mof_C 	C 	0.3873	0.1791	0.357	0.031
Mof_H 	H 	0.4361	0.2184	0.4012	0.041
Mof_C 	C 	0.2754	0.1448	0.4187	-0.09
Mof_H 	H 	0.2466	0.1614	0.5044	0.077
Mof_C 	C 	0.2029	0.0857	0.357	0.06
Mof_C 	C 	0.246	0.0634	0.2309	-0.099
Mof_H 	H 	0.1995	0.0233	0.1876	0.071
Mof_C 	C 	0.3573	0.0992	0.1667	0.03
Mof_H 	H 	0.3831	0.0841	0.0789	0.039
Mof_C 	C 	0.5486	0.1955	0.1595	0.32
Mof_Cd	Cd	0.7519	0.26974	0.44106	0.434
Mof_O 	O 	0.801	0.1634	0.529	-0.267
Mof_O 	O 	0.9381	0.1783	0.3551	-0.255
Mof_O 	O 	0.5645	0.1779	0.0361	-0.286
Mof_O 	O 	0.6243	0.2423	0.2247	-0.281
Mof_C 	C 	0.0413	0.5697	0.0228	-0.059
Mof_C 	C 	0.9062	0.5444	0.0714	0.015
Mof_C 	C 	0.8689	0.4749	0.0473	-0.038
Mof_H 	H 	0.7785	0.4573	0.0802	0.063
Mof_C 	C 	0.1029	0.642	0.0497	0.284
Mof_C 	C 	0.5702	0.6562	0.2703	-0.091
Mof_C 	C 	0.6127	0.6791	0.143	0.03
Mof_H 	H 	0.5639	0.7184	0.0988	0.041
Mof_C 	C 	0.7246	0.6448	0.0813	-0.088
Mof_H 	H 	0.7534	0.6614	0.9956	0.076
Mof_C 	C 	0.7971	0.5857	0.143	0.059
Mof_C 	C 	0.754	0.5634	0.2691	-0.098
Mof_H 	H 	0.8005	0.5233	0.3124	0.07
Mof_C 	C 	0.6427	0.5992	0.3333	0.03
Mof_H 	H 	0.6169	0.5841	0.4211	0.039
Mof_C 	C 	0.4514	0.6955	0.3405	0.32
Mof_Cd	Cd	0.2481	0.76974	0.05894	0.432
Mof_O 	O 	0.199	0.6634	0.971	-0.264
Mof_O 	O 	0.0619	0.6783	0.1449	-0.256
Mof_O 	O 	0.4355	0.6779	0.4639	-0.287
Mof_O 	O 	0.3757	0.7423	0.2753	-0.281
_end
