data_functionalizedCrystal
_audit_creation_method	'EQeq! by Chris Wilmer'
_symmetry_space_group_name_H-M	'P1'
_symmetry_Int_Tables_number	1
_symmetry_cell_setting	triclinic
loop_
_symmetry_equiv_pos_as_xyz
  x,y,z
_cell_length_a	11.564
_cell_length_b	22.347
_cell_length_c	10.179
_cell_angle_alpha	90
_cell_angle_beta	103.343
_cell_angle_gamma	90
loop_
_atom_site_label
_atom_site_type_symbol
_atom_site_fract_x
_atom_site_fract_y
_atom_site_fract_z
_atom_site_charge
Mof_Cd	Cd	0.18677	0.09006	0.85486	0.434
Mof_C 	C 	0.1708	0.78723	0.7481	-0.279
Mof_H 	H 	0.0957	0.7887	0.6903	0.139
Mof_C 	C 	0.2275	0.83921	0.8012	0.22
Mof_C 	C 	0.3415	0.83694	0.8842	-0.281
Mof_H 	H 	0.3798	0.8719	0.92	0.136
Mof_C 	C 	0.3972	0.78204	0.9127	0.226
Mof_C 	C 	0.3414	0.7291	0.8631	-0.282
Mof_H 	H 	0.379	0.6924	0.8835	0.133
Mof_C 	C 	0.2273	0.73292	0.7822	0.224
Mof_C 	C 	0.1992	0.94642	0.8451	0.1
Mof_H 	H 	0.2618	0.9494	0.9208	0.01
Mof_C 	C 	0.0507	0.96782	0.6845	0.009
Mof_H 	H 	0.9905	0.9895	0.6279	0.031
Mof_C 	C 	0.0727	0.90939	0.6702	-0.005
Mof_H 	H 	0.0314	0.8836	0.6041	0.039
Mof_C 	C 	0.5953	0.82569	0.9963	0.107
Mof_H 	H 	0.5831	0.8572	0.935	0.008
Mof_C 	C 	0.6721	0.76815	0.1585	0.004
Mof_H 	H 	0.7252	0.7518	0.2326	0.044
Mof_C 	C 	0.5639	0.74507	0.1012	0.018
Mof_H 	H 	0.5297	0.7109	0.128	0.03
Mof_C 	C 	0.0439	0.67295	0.7359	0.1
Mof_H 	H 	0.9984	0.7011	0.7686	0.005
Mof_C 	C 	0.0989	0.59356	0.6489	0.004
Mof_H 	H 	0.0962	0.5559	0.6096	0.043
Mof_C 	C 	0.1964	0.62884	0.6798	0.001
Mof_H 	H 	0.2715	0.6204	0.6662	0.031
Mof_C 	C 	0.2661	0.07146	0.1344	0.227
Mof_C 	C 	0.2867	0.09016	0.6317	0.226
Mof_C 	C 	0.6633	0.07113	0.4654	-0.984
Mof_H 	H 	0.6947	0.1101	0.4539	0.324
Mof_H 	H 	0.6862	0.0436	0.4037	0.334
Mof_H 	H 	0.6942	0.0577	0.5563	0.325
Mof_C 	C 	0.3379	0.07503	0.2784	0.094
Mof_C 	C 	0.2815	0.08486	0.3834	-0.161
Mof_H 	H 	0.1997	0.0905	0.365	0.103
Mof_C 	C 	0.3483	0.08626	0.5163	0.092
Mof_C 	C 	0.4711	0.08114	0.5414	-0.324
Mof_H 	H 	0.5154	0.0823	0.6301	0.151
Mof_C 	C 	0.5294	0.07435	0.4376	0.418
Mof_C 	C 	0.4609	0.07006	0.3064	-0.323
Mof_H 	H 	0.4982	0.0637	0.2359	0.157
Mof_N 	N 	0.1296	0.99103	0.7949	-0.138
Mof_N 	N 	0.1694	0.89542	0.7739	-0.16
Mof_N 	N 	0.6923	0.81886	0.0919	-0.132
Mof_N 	N 	0.5153	0.78187	0.997	-0.161
Mof_N 	N 	0.00387	0.62158	0.684	-0.142
Mof_N 	N 	0.16079	0.68003	0.7358	-0.159
Mof_O 	O 	0.1628	0.09095	0.1049	-0.244
Mof_O 	O 	0.31733	0.05068	0.04711	-0.253
Mof_O 	O 	0.18427	0.112	0.6129	-0.254
Mof_O 	O 	0.3403	0.06948	0.74421	-0.256
Mof_Cd	Cd	0.81323	0.59006	0.64514	0.434
Mof_C 	C 	0.8292	0.28723	0.7519	-0.28
Mof_H 	H 	0.9043	0.2887	0.8097	0.138
Mof_C 	C 	0.7725	0.33921	0.6988	0.219
Mof_C 	C 	0.6585	0.33694	0.6158	-0.282
Mof_H 	H 	0.6202	0.3719	0.58	0.135
Mof_C 	C 	0.6028	0.28204	0.5873	0.225
Mof_C 	C 	0.6586	0.2291	0.6369	-0.284
Mof_H 	H 	0.621	0.1924	0.6165	0.133
Mof_C 	C 	0.7727	0.23292	0.7178	0.223
Mof_C 	C 	0.8008	0.44642	0.6549	0.099
Mof_H 	H 	0.7382	0.4494	0.5792	0.009
Mof_C 	C 	0.9493	0.46782	0.8155	0.013
Mof_H 	H 	0.0095	0.4895	0.8721	0.028
Mof_C 	C 	0.9273	0.40939	0.8298	-0.006
Mof_H 	H 	0.9686	0.3836	0.8959	0.04
Mof_C 	C 	0.4047	0.32569	0.5037	0.106
Mof_H 	H 	0.4169	0.3572	0.565	0.008
Mof_C 	C 	0.3279	0.26815	0.3415	0.004
Mof_H 	H 	0.2748	0.2518	0.2674	0.044
Mof_C 	C 	0.4361	0.24507	0.3988	0.019
Mof_H 	H 	0.4703	0.2109	0.372	0.03
Mof_C 	C 	0.9561	0.17295	0.7641	0.103
Mof_H 	H 	0.0016	0.2011	0.7314	0.003
Mof_C 	C 	0.9011	0.09356	0.8511	0.004
Mof_H 	H 	0.9038	0.0559	0.8904	0.043
Mof_C 	C 	0.8036	0.12884	0.8202	0.001
Mof_H 	H 	0.7285	0.1204	0.8338	0.031
Mof_C 	C 	0.7339	0.57146	0.3656	0.227
Mof_C 	C 	0.7133	0.59016	0.8683	0.226
Mof_C 	C 	0.3367	0.57113	0.0346	-0.982
Mof_H 	H 	0.3053	0.6101	0.0461	0.324
Mof_H 	H 	0.3138	0.5436	0.0963	0.333
Mof_H 	H 	0.3058	0.5577	0.9437	0.324
Mof_C 	C 	0.6621	0.57503	0.2216	0.094
Mof_C 	C 	0.7185	0.58486	0.1166	-0.161
Mof_H 	H 	0.8003	0.5905	0.135	0.103
Mof_C 	C 	0.6517	0.58626	0.9837	0.093
Mof_C 	C 	0.5289	0.58114	0.9586	-0.324
Mof_H 	H 	0.4846	0.5823	0.8699	0.151
Mof_C 	C 	0.4706	0.57435	0.0624	0.417
Mof_C 	C 	0.5391	0.57006	0.1936	-0.322
Mof_H 	H 	0.5018	0.5637	0.2641	0.157
Mof_N 	N 	0.8704	0.49103	0.7051	-0.139
Mof_N 	N 	0.8306	0.39542	0.7261	-0.16
Mof_N 	N 	0.3077	0.31886	0.4081	-0.132
Mof_N 	N 	0.4847	0.28187	0.503	-0.161
Mof_N 	N 	0.99613	0.12158	0.816	-0.142
Mof_N 	N 	0.83921	0.18003	0.7642	-0.16
Mof_O 	O 	0.8372	0.59095	0.3951	-0.245
Mof_O 	O 	0.68267	0.55068	0.45289	-0.254
Mof_O 	O 	0.81573	0.612	0.8871	-0.254
Mof_O 	O 	0.6597	0.56948	0.75579	-0.256
Mof_Cd	Cd	0.81323	0.90994	0.14514	0.433
Mof_C 	C 	0.8292	0.21277	0.2519	-0.28
Mof_H 	H 	0.9043	0.2113	0.3097	0.138
Mof_C 	C 	0.7725	0.16079	0.1988	0.219
Mof_C 	C 	0.6585	0.16306	0.1158	-0.282
Mof_H 	H 	0.6202	0.1281	0.08	0.135
Mof_C 	C 	0.6028	0.21796	0.0873	0.225
Mof_C 	C 	0.6586	0.2709	0.1369	-0.283
Mof_H 	H 	0.621	0.3076	0.1165	0.132
Mof_C 	C 	0.7727	0.26708	0.2178	0.223
Mof_C 	C 	0.8008	0.05358	0.1549	0.099
Mof_H 	H 	0.7382	0.0506	0.0792	0.009
Mof_C 	C 	0.9493	0.03218	0.3155	0.009
Mof_H 	H 	0.0095	0.0105	0.3721	0.031
Mof_C 	C 	0.9273	0.09061	0.3298	-0.005
Mof_H 	H 	0.9686	0.1164	0.3959	0.039
Mof_C 	C 	0.4047	0.17431	0.0037	0.107
Mof_H 	H 	0.4169	0.1428	0.065	0.008
Mof_C 	C 	0.3279	0.23185	0.8415	0.004
Mof_H 	H 	0.2748	0.2482	0.7674	0.044
Mof_C 	C 	0.4361	0.25493	0.8988	0.018
Mof_H 	H 	0.4703	0.2891	0.872	0.03
Mof_C 	C 	0.9561	0.32705	0.2641	0.1
Mof_H 	H 	0.0016	0.2989	0.2314	0.005
Mof_C 	C 	0.9011	0.40644	0.3511	0.004
Mof_H 	H 	0.9038	0.4441	0.3904	0.043
Mof_C 	C 	0.8036	0.37116	0.3202	0.001
Mof_H 	H 	0.7285	0.3796	0.3338	0.031
Mof_C 	C 	0.7339	0.92854	0.8656	0.227
Mof_C 	C 	0.7133	0.90984	0.3683	0.226
Mof_C 	C 	0.3367	0.92887	0.5346	-0.984
Mof_H 	H 	0.3053	0.8899	0.5461	0.324
Mof_H 	H 	0.3138	0.9564	0.5963	0.334
Mof_H 	H 	0.3058	0.9423	0.4437	0.325
Mof_C 	C 	0.6621	0.92497	0.7216	0.094
Mof_C 	C 	0.7185	0.91514	0.6166	-0.161
Mof_H 	H 	0.8003	0.9095	0.635	0.103
Mof_C 	C 	0.6517	0.91374	0.4837	0.092
Mof_C 	C 	0.5289	0.91886	0.4586	-0.324
Mof_H 	H 	0.4846	0.9177	0.3699	0.151
Mof_C 	C 	0.4706	0.92565	0.5624	0.418
Mof_C 	C 	0.5391	0.92994	0.6936	-0.323
Mof_H 	H 	0.5018	0.9363	0.7641	0.157
Mof_N 	N 	0.8704	0.00897	0.2051	-0.138
Mof_N 	N 	0.8306	0.10458	0.2261	-0.16
Mof_N 	N 	0.3077	0.18114	0.9081	-0.132
Mof_N 	N 	0.4847	0.21813	0.003	-0.161
Mof_N 	N 	0.99613	0.37842	0.316	-0.142
Mof_N 	N 	0.83921	0.31997	0.2642	-0.159
Mof_O 	O 	0.8372	0.90905	0.8951	-0.244
Mof_O 	O 	0.68267	0.94932	0.95289	-0.253
Mof_O 	O 	0.81573	0.888	0.3871	-0.254
Mof_O 	O 	0.6597	0.93052	0.25579	-0.256
Mof_Cd	Cd	0.18677	0.40994	0.35486	0.434
Mof_C 	C 	0.1708	0.71277	0.2481	-0.28
Mof_H 	H 	0.0957	0.7113	0.1903	0.138
Mof_C 	C 	0.2275	0.66079	0.3012	0.219
Mof_C 	C 	0.3415	0.66306	0.3842	-0.282
Mof_H 	H 	0.3798	0.6281	0.42	0.135
Mof_C 	C 	0.3972	0.71796	0.4127	0.225
Mof_C 	C 	0.3414	0.7709	0.3631	-0.284
Mof_H 	H 	0.379	0.8076	0.3835	0.133
Mof_C 	C 	0.2273	0.76708	0.2822	0.223
Mof_C 	C 	0.1992	0.55358	0.3451	0.099
Mof_H 	H 	0.2618	0.5506	0.4208	0.009
Mof_C 	C 	0.0507	0.53218	0.1845	0.013
Mof_H 	H 	0.9905	0.5105	0.1279	0.028
Mof_C 	C 	0.0727	0.59061	0.1702	-0.006
Mof_H 	H 	0.0314	0.6164	0.1041	0.04
Mof_C 	C 	0.5953	0.67431	0.4963	0.106
Mof_H 	H 	0.5831	0.6428	0.435	0.008
Mof_C 	C 	0.6721	0.73185	0.6585	0.004
Mof_H 	H 	0.7252	0.7482	0.7326	0.044
Mof_C 	C 	0.5639	0.75493	0.6012	0.019
Mof_H 	H 	0.5297	0.7891	0.628	0.03
Mof_C 	C 	0.0439	0.82705	0.2359	0.103
Mof_H 	H 	0.9984	0.7989	0.2686	0.003
Mof_C 	C 	0.0989	0.90644	0.1489	0.004
Mof_H 	H 	0.0962	0.9441	0.1096	0.043
Mof_C 	C 	0.1964	0.87116	0.1798	0.001
Mof_H 	H 	0.2715	0.8796	0.1662	0.031
Mof_C 	C 	0.2661	0.42854	0.6344	0.227
Mof_C 	C 	0.2867	0.40984	0.1317	0.226
Mof_C 	C 	0.6633	0.42887	0.9654	-0.982
Mof_H 	H 	0.6947	0.3899	0.9539	0.324
Mof_H 	H 	0.6862	0.4564	0.9037	0.333
Mof_H 	H 	0.6942	0.4423	0.0563	0.324
Mof_C 	C 	0.3379	0.42497	0.7784	0.094
Mof_C 	C 	0.2815	0.41514	0.8834	-0.161
Mof_H 	H 	0.1997	0.4095	0.865	0.103
Mof_C 	C 	0.3483	0.41374	0.0163	0.093
Mof_C 	C 	0.4711	0.41886	0.0414	-0.324
Mof_H 	H 	0.5154	0.4177	0.1301	0.151
Mof_C 	C 	0.5294	0.42565	0.9376	0.417
Mof_C 	C 	0.4609	0.42994	0.8064	-0.322
Mof_H 	H 	0.4982	0.4363	0.7359	0.157
Mof_N 	N 	0.1296	0.50897	0.2949	-0.139
Mof_N 	N 	0.1694	0.60458	0.2739	-0.16
Mof_N 	N 	0.6923	0.68114	0.5919	-0.132
Mof_N 	N 	0.5153	0.71813	0.497	-0.161
Mof_N 	N 	0.00387	0.87842	0.184	-0.142
Mof_N 	N 	0.16079	0.81997	0.2358	-0.16
Mof_O 	O 	0.1628	0.40905	0.6049	-0.245
Mof_O 	O 	0.31733	0.44932	0.54711	-0.254
Mof_O 	O 	0.18427	0.388	0.1129	-0.254
Mof_O 	O 	0.3403	0.43052	0.24421	-0.256
_end
