data_functionalizedCrystal
_audit_creation_method	'EQeq! by Chris Wilmer'
_symmetry_space_group_name_H-M	'P1'
_symmetry_Int_Tables_number	1
_symmetry_cell_setting	triclinic
loop_
_symmetry_equiv_pos_as_xyz
  x,y,z
_cell_length_a	13.4425
_cell_length_b	14.4204
_cell_length_c	20.4469
_cell_angle_alpha	90
_cell_angle_beta	108.168
_cell_angle_gamma	90
loop_
_atom_site_label
_atom_site_type_symbol
_atom_site_fract_x
_atom_site_fract_y
_atom_site_fract_z
_atom_site_charge
Mof_Cu	Cu	0.71989	0.51715	0.4877	0.909
Mof_C 	C 	0.6699	0.3344	0.29	0.016
Mof_H 	H 	0.7173	0.3821	0.292	0.045
Mof_C 	C 	0.6305	0.2836	0.2299	-0.09
Mof_H 	H 	0.6519	0.2971	0.1919	0.068
Mof_C 	C 	0.5591	0.2124	0.2263	0.03
Mof_C 	C 	0.5294	0.1921	0.2838	-0.092
Mof_H 	H 	0.4824	0.1442	0.2821	0.061
Mof_C 	C 	0.5693	0.2427	0.3436	0.019
Mof_H 	H 	0.5491	0.2284	0.3819	0.042
Mof_C 	C 	0.6391	0.3147	0.3469	-0.085
Mof_C 	C 	0.6719	0.3756	0.4089	0.302
Mof_C 	C 	0.5097	0.1628	0.1607	0.055
Mof_C 	C 	0.4205	0.1119	0.1391	-0.026
Mof_H 	H 	0.3779	0.0972	0.1657	0.03
Mof_C 	C 	0.4814	0.1188	0.0541	0.126
Mof_H 	H 	0.4899	0.1114	0.011	-0.012
Mof_C 	C 	0.7509	0.6846	0.7247	0.02
Mof_H 	H 	0.802	0.7242	0.7188	0.036
Mof_C 	C 	0.7339	0.6807	0.7879	-0.092
Mof_H 	H 	0.7752	0.7157	0.8245	0.059
Mof_C 	C 	0.6551	0.6247	0.7967	0.034
Mof_C 	C 	0.5944	0.5723	0.7412	-0.091
Mof_H 	H 	0.5401	0.5359	0.7463	0.065
Mof_C 	C 	0.614	0.5741	0.6791	0.024
Mof_H 	H 	0.5744	0.5375	0.6429	0.042
Mof_C 	C 	0.6935	0.6308	0.6703	-0.09
Mof_C 	C 	0.7165	0.628	0.6028	0.33
Mof_C 	C 	0.6341	0.6164	0.8627	0.053
Mof_C 	C 	0.6428	0.6395	0.9708	0.171
Mof_H 	H 	0.6627	0.6634	0.0153	-0.023
Mof_C 	C 	0.5683	0.5579	0.8812	-0.012
Mof_H 	H 	0.5254	0.5142	0.8524	0.039
Mof_C 	C 	0.7455	0.5681	0.2183	0.027
Mof_H 	H 	0.6889	0.6086	0.2055	0.034
Mof_C 	C 	0.8205	0.5768	0.2828	-0.098
Mof_H 	H 	0.8126	0.622	0.3133	0.06
Mof_C 	C 	0.9064	0.5188	0.3018	0.048
Mof_C 	C 	0.915	0.4507	0.256	-0.107
Mof_H 	H 	0.9723	0.411	0.2681	0.07
Mof_C 	C 	0.8396	0.4412	0.1931	0.03
Mof_H 	H 	0.8461	0.3943	0.1634	0.033
Mof_C 	C 	0.7544	0.5001	0.1733	-0.097
Mof_C 	C 	0.6713	0.4876	0.1045	0.32
Mof_C 	C 	0.9887	0.527	0.3683	0.034
Mof_C 	C 	0.0833	0.4913	0.3917	0.001
Mof_H 	H 	0.1105	0.4505	0.3664	0.036
Mof_C 	C 	0.0738	0.5771	0.4729	0.119
Mof_H 	H 	0.0916	0.6114	0.5135	-0.001
Mof_N 	N 	0.1371	0.5197	0.4561	-0.218
Mof_N 	N 	0.5745	0.5725	0.94855	-0.214
Mof_N 	N 	0.4029	0.0853	0.0721	-0.223
Mof_N 	N 	0.5471	0.165	0.1062	-0.215
Mof_H 	H 	0.6039	0.1918	0.1055	0.134
Mof_N 	N 	0.6798	0.6688	0.9207	-0.217
Mof_H 	H 	0.7243	0.7128	0.9242	0.13
Mof_N 	N 	0.9776	0.5804	0.4232	-0.203
Mof_H 	H 	0.9225	0.609	0.4251	0.113
Mof_O 	O 	0.7294	0.4456	0.40742	-0.379
Mof_O 	O 	0.6427	0.3586	0.46001	-0.307
Mof_O 	O 	0.685	0.5551	0.56823	-0.398
Mof_O 	O 	0.7656	0.6927	0.5867	-0.282
Mof_O 	O 	0.5978	0.5468	0.08816	-0.383
Mof_O 	O 	0.6758	0.4214	0.0675	-0.316
Mof_Cu	Cu	0.28011	0.01715	0.0123	0.89
Mof_C 	C 	0.3301	0.8344	0.21	0.016
Mof_H 	H 	0.2827	0.8821	0.208	0.047
Mof_C 	C 	0.3695	0.7836	0.2701	-0.089
Mof_H 	H 	0.3481	0.7971	0.3081	0.07
Mof_C 	C 	0.4409	0.7124	0.2737	0.032
Mof_C 	C 	0.4706	0.6921	0.2162	-0.092
Mof_H 	H 	0.5176	0.6442	0.2179	0.064
Mof_C 	C 	0.4307	0.7427	0.1564	0.021
Mof_H 	H 	0.4509	0.7284	0.1181	0.04
Mof_C 	C 	0.3609	0.8147	0.1531	-0.085
Mof_C 	C 	0.3281	0.8756	0.0911	0.303
Mof_C 	C 	0.4903	0.6628	0.3393	0.058
Mof_C 	C 	0.5795	0.6119	0.3609	-0.023
Mof_H 	H 	0.6221	0.5972	0.3343	0.034
Mof_C 	C 	0.5186	0.6188	0.4459	0.132
Mof_H 	H 	0.5101	0.6114	0.489	-0
Mof_C 	C 	0.2491	0.1846	0.7753	0.018
Mof_H 	H 	0.198	0.2242	0.7812	0.037
Mof_C 	C 	0.2661	0.1807	0.7121	-0.092
Mof_H 	H 	0.2248	0.2157	0.6755	0.057
Mof_C 	C 	0.3449	0.1247	0.7033	0.033
Mof_C 	C 	0.4056	0.0723	0.7588	-0.091
Mof_H 	H 	0.4599	0.0359	0.7537	0.061
Mof_C 	C 	0.386	0.0741	0.8209	0.022
Mof_H 	H 	0.4256	0.0375	0.8571	0.04
Mof_C 	C 	0.3065	0.1308	0.8297	-0.089
Mof_C 	C 	0.2835	0.128	0.8972	0.329
Mof_C 	C 	0.3659	0.1164	0.6373	0.05
Mof_C 	C 	0.3572	0.1395	0.5292	0.125
Mof_H 	H 	0.3373	0.1634	0.4847	0.006
Mof_C 	C 	0.4317	0.0579	0.6188	-0.013
Mof_H 	H 	0.4746	0.0142	0.6476	0.033
Mof_C 	C 	0.2545	0.0681	0.2817	0.063
Mof_H 	H 	0.3111	0.1086	0.2945	0.02
Mof_C 	C 	0.1795	0.0768	0.2172	-0.127
Mof_H 	H 	0.1874	0.122	0.1867	0.069
Mof_C 	C 	0.0936	0.0188	0.1982	0.057
Mof_C 	C 	0.085	0.9507	0.244	-0.117
Mof_H 	H 	0.0277	0.911	0.2319	0.08
Mof_C 	C 	0.1604	0.9412	0.3069	0.085
Mof_H 	H 	0.1539	0.8943	0.3366	0.02
Mof_C 	C 	0.2456	0.0001	0.3267	-0.162
Mof_C 	C 	0.3287	0.9876	0.3955	0.375
Mof_C 	C 	0.0113	0.027	0.1317	-0.004
Mof_C 	C 	0.9167	0.9913	0.1083	0.054
Mof_H 	H 	0.8895	0.9505	0.1336	0.019
Mof_C 	C 	0.9262	0.0771	0.0271	0.06
Mof_H 	H 	0.9084	0.1114	0.9865	0.031
Mof_N 	N 	0.8629	0.0197	0.0439	-0.235
Mof_N 	N 	0.4255	0.0725	0.55145	-0.215
Mof_N 	N 	0.5971	0.5853	0.4279	-0.217
Mof_N 	N 	0.4529	0.665	0.3938	-0.215
Mof_H 	H 	0.3961	0.6918	0.3945	0.14
Mof_N 	N 	0.3202	0.1688	0.5793	-0.208
Mof_H 	H 	0.2757	0.2128	0.5758	0.122
Mof_N 	N 	0.0224	0.0804	0.0768	-0.187
Mof_H 	H 	0.0775	0.109	0.0749	0.102
Mof_O 	O 	0.2706	0.9456	0.09258	-0.371
Mof_O 	O 	0.3573	0.8586	0.03999	-0.312
Mof_O 	O 	0.315	0.0551	0.93177	-0.39
Mof_O 	O 	0.2344	0.1927	0.9133	-0.276
Mof_O 	O 	0.4022	0.0468	0.41184	-0.405
Mof_O 	O 	0.3242	0.9214	0.4325	-0.316
Mof_Cu	Cu	0.28011	0.48285	0.5123	0.908
Mof_C 	C 	0.3301	0.6656	0.71	0.018
Mof_H 	H 	0.2827	0.6179	0.708	0.044
Mof_C 	C 	0.3695	0.7164	0.7701	-0.09
Mof_H 	H 	0.3481	0.7029	0.8081	0.07
Mof_C 	C 	0.4409	0.7876	0.7737	0.034
Mof_C 	C 	0.4706	0.8079	0.7162	-0.091
Mof_H 	H 	0.5176	0.8558	0.7179	0.066
Mof_C 	C 	0.4307	0.7573	0.6564	0.022
Mof_H 	H 	0.4509	0.7716	0.6181	0.043
Mof_C 	C 	0.3609	0.6853	0.6531	-0.085
Mof_C 	C 	0.3281	0.6244	0.5911	0.303
Mof_C 	C 	0.4903	0.8372	0.8393	0.06
Mof_C 	C 	0.5795	0.8881	0.8609	-0.021
Mof_H 	H 	0.6221	0.9028	0.8343	0.036
Mof_C 	C 	0.5186	0.8812	0.9459	0.137
Mof_H 	H 	0.5101	0.8886	0.989	0.009
Mof_C 	C 	0.2491	0.3154	0.2753	0.02
Mof_H 	H 	0.198	0.2758	0.2812	0.035
Mof_C 	C 	0.2661	0.3193	0.2121	-0.093
Mof_H 	H 	0.2248	0.2843	0.1755	0.057
Mof_C 	C 	0.3449	0.3753	0.2033	0.035
Mof_C 	C 	0.4056	0.4277	0.2588	-0.092
Mof_H 	H 	0.4599	0.4641	0.2537	0.065
Mof_C 	C 	0.386	0.4259	0.3209	0.025
Mof_H 	H 	0.4256	0.4625	0.3571	0.042
Mof_C 	C 	0.3065	0.3692	0.3297	-0.091
Mof_C 	C 	0.2835	0.372	0.3972	0.331
Mof_C 	C 	0.3659	0.3836	0.1373	0.049
Mof_C 	C 	0.3572	0.3605	0.0292	0.076
Mof_H 	H 	0.3373	0.3366	0.9847	0.041
Mof_C 	C 	0.4317	0.4421	0.1188	-0.012
Mof_H 	H 	0.4746	0.4858	0.1476	0.037
Mof_C 	C 	0.2545	0.4319	0.7817	0.02
Mof_H 	H 	0.3111	0.3914	0.7945	0.037
Mof_C 	C 	0.1795	0.4232	0.7172	-0.091
Mof_H 	H 	0.1874	0.378	0.6867	0.057
Mof_C 	C 	0.0936	0.4812	0.6982	0.042
Mof_C 	C 	0.085	0.5493	0.744	-0.098
Mof_H 	H 	0.0277	0.589	0.7319	0.071
Mof_C 	C 	0.1604	0.5588	0.8069	0.024
Mof_H 	H 	0.1539	0.6057	0.8366	0.041
Mof_C 	C 	0.2456	0.4999	0.8267	-0.088
Mof_C 	C 	0.3287	0.5124	0.8955	0.316
Mof_C 	C 	0.0113	0.473	0.6317	0.046
Mof_C 	C 	0.9167	0.5087	0.6083	-0.012
Mof_H 	H 	0.8895	0.5495	0.6336	0.039
Mof_C 	C 	0.9262	0.4229	0.5271	0.112
Mof_H 	H 	0.9084	0.3886	0.4865	-0.002
Mof_N 	N 	0.8629	0.4803	0.5439	-0.215
Mof_N 	N 	0.4255	0.4275	0.05145	-0.208
Mof_N 	N 	0.5971	0.9147	0.9279	-0.212
Mof_N 	N 	0.4529	0.835	0.8938	-0.215
Mof_H 	H 	0.3961	0.8082	0.8945	0.144
Mof_N 	N 	0.3202	0.3312	0.0793	-0.197
Mof_H 	H 	0.2757	0.2872	0.0758	0.115
Mof_N 	N 	0.0224	0.4196	0.5768	-0.201
Mof_H 	H 	0.0775	0.391	0.5749	0.113
Mof_O 	O 	0.2706	0.5544	0.59258	-0.379
Mof_O 	O 	0.3573	0.6414	0.53999	-0.306
Mof_O 	O 	0.315	0.4449	0.43177	-0.398
Mof_O 	O 	0.2344	0.3073	0.4133	-0.284
Mof_O 	O 	0.4022	0.4532	0.91184	-0.371
Mof_O 	O 	0.3242	0.5786	0.9325	-0.297
Mof_Cu	Cu	0.71989	0.98285	0.9877	0.922
Mof_C 	C 	0.6699	0.1656	0.79	0.016
Mof_H 	H 	0.7173	0.1179	0.792	0.041
Mof_C 	C 	0.6305	0.2164	0.7299	-0.09
Mof_H 	H 	0.6519	0.2029	0.6919	0.068
Mof_C 	C 	0.5591	0.2876	0.7263	0.032
Mof_C 	C 	0.5294	0.3079	0.7838	-0.09
Mof_H 	H 	0.4824	0.3558	0.7821	0.064
Mof_C 	C 	0.5693	0.2573	0.8436	0.019
Mof_H 	H 	0.5491	0.2716	0.8819	0.046
Mof_C 	C 	0.6391	0.1853	0.8469	-0.083
Mof_C 	C 	0.6719	0.1244	0.9089	0.301
Mof_C 	C 	0.5097	0.3372	0.6607	0.058
Mof_C 	C 	0.4205	0.3881	0.6391	-0.024
Mof_H 	H 	0.3779	0.4028	0.6657	0.034
Mof_C 	C 	0.4814	0.3812	0.5541	0.132
Mof_H 	H 	0.4899	0.3886	0.511	-0.001
Mof_C 	C 	0.7509	0.8154	0.2247	0.021
Mof_H 	H 	0.802	0.7758	0.2188	0.035
Mof_C 	C 	0.7339	0.8193	0.2879	-0.092
Mof_H 	H 	0.7752	0.7843	0.3245	0.059
Mof_C 	C 	0.6551	0.8753	0.2967	0.036
Mof_C 	C 	0.5944	0.9277	0.2412	-0.09
Mof_H 	H 	0.5401	0.9641	0.2463	0.07
Mof_C 	C 	0.614	0.9259	0.1791	0.026
Mof_H 	H 	0.5744	0.9625	0.1429	0.046
Mof_C 	C 	0.6935	0.8692	0.1703	-0.09
Mof_C 	C 	0.7165	0.872	0.1028	0.332
Mof_C 	C 	0.6341	0.8836	0.3627	0.053
Mof_C 	C 	0.6428	0.8605	0.4708	0.129
Mof_H 	H 	0.6627	0.8366	0.5153	0.007
Mof_C 	C 	0.5683	0.9421	0.3812	-0.011
Mof_H 	H 	0.5254	0.9858	0.3524	0.044
Mof_C 	C 	0.7455	0.9319	0.7183	-0.011
Mof_H 	H 	0.6889	0.8914	0.7055	0.049
Mof_C 	C 	0.8205	0.9232	0.7828	-0.069
Mof_H 	H 	0.8126	0.878	0.8133	0.05
Mof_C 	C 	0.9064	0.9812	0.8018	0.036
Mof_C 	C 	0.915	0.0493	0.756	-0.089
Mof_H 	H 	0.9723	0.089	0.7681	0.063
Mof_C 	C 	0.8396	0.0588	0.6931	-0.023
Mof_H 	H 	0.8461	0.1057	0.6634	0.052
Mof_C 	C 	0.7544	0.9999	0.6733	-0.033
Mof_C 	C 	0.6713	0.0124	0.6045	0.269
Mof_C 	C 	0.9887	0.973	0.8683	0.067
Mof_C 	C 	0.0833	0.0087	0.8917	-0.041
Mof_H 	H 	0.1105	0.0495	0.8664	0.05
Mof_C 	C 	0.0738	0.9229	0.9729	0.169
Mof_H 	H 	0.0916	0.8886	0.0135	-0.03
Mof_N 	N 	0.1371	0.9803	0.9561	-0.202
Mof_N 	N 	0.5745	0.9275	0.44855	-0.208
Mof_N 	N 	0.4029	0.4147	0.5721	-0.217
Mof_N 	N 	0.5471	0.335	0.6062	-0.215
Mof_H 	H 	0.6039	0.3082	0.6055	0.139
Mof_N 	N 	0.6798	0.8312	0.4207	-0.208
Mof_H 	H 	0.7243	0.7872	0.4242	0.124
Mof_N 	N 	0.9776	0.9196	0.9232	-0.216
Mof_H 	H 	0.9225	0.891	0.9251	0.123
Mof_O 	O 	0.7294	0.0544	0.90742	-0.383
Mof_O 	O 	0.6427	0.1414	0.96001	-0.298
Mof_O 	O 	0.685	0.9449	0.06823	-0.402
Mof_O 	O 	0.7656	0.8073	0.0867	-0.288
Mof_O 	O 	0.5978	0.9532	0.58816	-0.353
Mof_O 	O 	0.6758	0.0786	0.5675	-0.299
Mof_Cu	Cu	0.5	0.5	-0	0.901
Mof_Cu	Cu	0.5	6.70309e-33	0.5	0.904
_end
