# CIF file generated by openbabel 3.1.0, see https://openbabel.org
data_I
_chemical_name_common 'image0'
_cell_length_a 16.718
_cell_length_b 17.13
_cell_length_c 17.17
_cell_angle_alpha 90
_cell_angle_beta 90
_cell_angle_gamma 90
_space_group_name_H-M_alt 'P 1'
_space_group_name_Hall 'P 1'
loop_
    _symmetry_equiv_pos_as_xyz
    x,y,z
loop_
    _atom_site_label
    _atom_site_type_symbol
    _atom_site_fract_x
    _atom_site_fract_y
    _atom_site_fract_z
    _atom_site_occupancy
    Er1      Er       0.59044    0.91458    0.31016    1.000
    Er2      Er       0.41586    0.03985    0.34893    1.000
    Er3      Er       0.40406    0.88649    0.18476    1.000
    Er4      Er       0.53374    0.06027    0.15525    1.000
    S1       S        0.52460    0.11245    0.51682    1.000
    S2       S        0.41316    0.20649    0.22857    1.000
    S3       S        0.61831    0.98581    0.97522    1.000
    S4       S        0.73371    0.03406    0.21734    1.000
    O1       O        0.50210    0.11090    0.43380    1.000
    O2       O        0.44887    0.91040    0.30949    1.000
    O3       O        0.56980    0.04040    0.53670    1.000
    O4       O        0.40872    0.02330    0.21099    1.000
    O5       O        0.57570    0.17970    0.53260    1.000
    O6       O        0.53766    0.92810    0.18136    1.000
    O7       O        0.45140    0.11670    0.56470    1.000
    O8       O        0.54186    0.03975    0.29451    1.000
    O9       O        0.39130    0.16600    0.30170    1.000
    O10      O        0.49340    0.17960    0.20360    1.000
    O11      O        0.35450    0.19010    0.16790    1.000
    O12      O        0.41870    0.29110    0.24300    1.000
    O13      O        0.61030    0.99710    0.05910    1.000
    O14      O        0.69700    0.95330    0.95740    1.000
    O15      O        0.55580    0.93230    0.94740    1.000
    O16      O        0.60730    0.06260    0.93670    1.000
    O17      O        0.70410    0.95990    0.24930    1.000
    O18      O        0.66710    0.08130    0.18820    1.000
    O19      O        0.78960    0.01670    0.15320    1.000
    O20      O        0.77590    0.07890    0.27760    1.000
    Er5      Er       0.90956    0.58542    0.31016    1.000
    Er6      Er       0.08414    0.46015    0.34893    1.000
    Er7      Er       0.09594    0.61351    0.18476    1.000
    Er8      Er       0.96626    0.43973    0.15525    1.000
    S5       S        0.97540    0.38755    0.51682    1.000
    S6       S        0.08684    0.29351    0.22857    1.000
    S7       S        0.88169    0.51419    0.97522    1.000
    S8       S        0.76629    0.46594    0.21734    1.000
    O21      O        0.99790    0.38910    0.43380    1.000
    O22      O        0.05113    0.58960    0.30949    1.000
    O23      O        0.93020    0.45960    0.53670    1.000
    O24      O        0.09128    0.47670    0.21099    1.000
    O25      O        0.92430    0.32030    0.53260    1.000
    O26      O        0.96234    0.57190    0.18136    1.000
    O27      O        0.04860    0.38330    0.56470    1.000
    O28      O        0.95814    0.46025    0.29451    1.000
    O29      O        0.10870    0.33400    0.30170    1.000
    O30      O        0.00660    0.32040    0.20360    1.000
    O31      O        0.14550    0.30990    0.16790    1.000
    O32      O        0.08130    0.20890    0.24300    1.000
    O33      O        0.88970    0.50290    0.05910    1.000
    O34      O        0.80300    0.54670    0.95740    1.000
    O35      O        0.94420    0.56770    0.94740    1.000
    O36      O        0.89270    0.43740    0.93670    1.000
    O37      O        0.79590    0.54010    0.24930    1.000
    O38      O        0.83290    0.41870    0.18820    1.000
    O39      O        0.71040    0.48330    0.15320    1.000
    O40      O        0.72410    0.42110    0.27760    1.000
    Er9      Er       0.40956    0.41458    0.18984    1.000
    Er10     Er       0.58414    0.53985    0.15107    1.000
    Er11     Er       0.59594    0.38649    0.31524    1.000
    Er12     Er       0.46626    0.56027    0.34475    1.000
    S9       S        0.47540    0.61245    0.98318    1.000
    S10      S        0.58684    0.70649    0.27143    1.000
    S11      S        0.38169    0.48581    0.52478    1.000
    S12      S        0.26629    0.53406    0.28266    1.000
    O41      O        0.49790    0.61090    0.06620    1.000
    O42      O        0.55113    0.41040    0.19051    1.000
    O43      O        0.43020    0.54040    0.96330    1.000
    O44      O        0.59128    0.52330    0.28901    1.000
    O45      O        0.42430    0.67970    0.96740    1.000
    O46      O        0.46234    0.42810    0.31864    1.000
    O47      O        0.54860    0.61670    0.93530    1.000
    O48      O        0.45814    0.53975    0.20549    1.000
    O49      O        0.60870    0.66600    0.19830    1.000
    O50      O        0.50660    0.67960    0.29640    1.000
    O51      O        0.64550    0.69010    0.33210    1.000
    O52      O        0.58130    0.79110    0.25700    1.000
    O53      O        0.38970    0.49710    0.44090    1.000
    O54      O        0.30300    0.45330    0.54260    1.000
    O55      O        0.44420    0.43230    0.55260    1.000
    O56      O        0.39270    0.56260    0.56330    1.000
    O57      O        0.29590    0.45990    0.25070    1.000
    O58      O        0.33290    0.58130    0.31180    1.000
    O59      O        0.21040    0.51670    0.34680    1.000
    O60      O        0.22410    0.57890    0.22240    1.000
    Er13     Er       0.09044    0.08542    0.18984    1.000
    Er14     Er       0.91586    0.96015    0.15107    1.000
    Er15     Er       0.90406    0.11351    0.31524    1.000
    Er16     Er       0.03374    0.93973    0.34475    1.000
    S13      S        0.02460    0.88755    0.98318    1.000
    S14      S        0.91316    0.79351    0.27143    1.000
    S15      S        0.11831    0.01419    0.52478    1.000
    S16      S        0.23371    0.96594    0.28266    1.000
    O61      O        0.00210    0.88910    0.06620    1.000
    O62      O        0.94887    0.08960    0.19051    1.000
    O63      O        0.06980    0.95960    0.96330    1.000
    O64      O        0.90872    0.97670    0.28901    1.000
    O65      O        0.07570    0.82030    0.96740    1.000
    O66      O        0.03766    0.07190    0.31864    1.000
    O67      O        0.95140    0.88330    0.93530    1.000
    O68      O        0.04186    0.96025    0.20549    1.000
    O69      O        0.89130    0.83400    0.19830    1.000
    O70      O        0.99340    0.82040    0.29640    1.000
    O71      O        0.85450    0.80990    0.33210    1.000
    O72      O        0.91870    0.70890    0.25700    1.000
    O73      O        0.11030    0.00290    0.44090    1.000
    O74      O        0.19700    0.04670    0.54260    1.000
    O75      O        0.05580    0.06770    0.55260    1.000
    O76      O        0.10730    0.93740    0.56330    1.000
    O77      O        0.20410    0.04010    0.25070    1.000
    O78      O        0.16710    0.91870    0.31180    1.000
    O79      O        0.28960    0.98330    0.34680    1.000
    O80      O        0.27590    0.92110    0.22240    1.000
    Er17     Er       0.40956    0.08542    0.68984    1.000
    Er18     Er       0.58414    0.96015    0.65107    1.000
    Er19     Er       0.59594    0.11351    0.81524    1.000
    Er20     Er       0.46626    0.93973    0.84475    1.000
    S17      S        0.47540    0.88755    0.48318    1.000
    S18      S        0.58684    0.79351    0.77143    1.000
    S19      S        0.38169    0.01419    0.02478    1.000
    S20      S        0.26629    0.96594    0.78266    1.000
    O81      O        0.49790    0.88910    0.56620    1.000
    O82      O        0.55113    0.08960    0.69051    1.000
    O83      O        0.43020    0.95960    0.46330    1.000
    O84      O        0.59128    0.97670    0.78901    1.000
    O85      O        0.42430    0.82030    0.46740    1.000
    O86      O        0.46234    0.07190    0.81864    1.000
    O87      O        0.54860    0.88330    0.43530    1.000
    O88      O        0.45814    0.96025    0.70549    1.000
    O89      O        0.60870    0.83400    0.69830    1.000
    O90      O        0.50660    0.82040    0.79640    1.000
    O91      O        0.64550    0.80990    0.83210    1.000
    O92      O        0.58130    0.70890    0.75700    1.000
    O93      O        0.38970    0.00290    0.94090    1.000
    O94      O        0.30300    0.04670    0.04260    1.000
    O95      O        0.44420    0.06770    0.05260    1.000
    O96      O        0.39270    0.93740    0.06330    1.000
    O97      O        0.29590    0.04010    0.75070    1.000
    O98      O        0.33290    0.91870    0.81180    1.000
    O99      O        0.21040    0.98330    0.84680    1.000
    O100     O        0.22410    0.92110    0.72240    1.000
    Er21     Er       0.09044    0.41458    0.68984    1.000
    Er22     Er       0.91586    0.53985    0.65107    1.000
    Er23     Er       0.90406    0.38649    0.81524    1.000
    Er24     Er       0.03374    0.56027    0.84475    1.000
    S21      S        0.02460    0.61245    0.48318    1.000
    S22      S        0.91316    0.70649    0.77143    1.000
    S23      S        0.11831    0.48581    0.02478    1.000
    S24      S        0.23371    0.53406    0.78266    1.000
    O101     O        0.00210    0.61090    0.56620    1.000
    O102     O        0.94887    0.41040    0.69051    1.000
    O103     O        0.06980    0.54040    0.46330    1.000
    O104     O        0.90872    0.52330    0.78901    1.000
    O105     O        0.07570    0.67970    0.46740    1.000
    O106     O        0.03766    0.42810    0.81864    1.000
    O107     O        0.95140    0.61670    0.43530    1.000
    O108     O        0.04186    0.53975    0.70549    1.000
    O109     O        0.89130    0.66600    0.69830    1.000
    O110     O        0.99340    0.67960    0.79640    1.000
    O111     O        0.85450    0.69010    0.83210    1.000
    O112     O        0.91870    0.79110    0.75700    1.000
    O113     O        0.11030    0.49710    0.94090    1.000
    O114     O        0.19700    0.45330    0.04260    1.000
    O115     O        0.05580    0.43230    0.05260    1.000
    O116     O        0.10730    0.56260    0.06330    1.000
    O117     O        0.20410    0.45990    0.75070    1.000
    O118     O        0.16710    0.58130    0.81180    1.000
    O119     O        0.28960    0.51670    0.84680    1.000
    O120     O        0.27590    0.57890    0.72240    1.000
    Er25     Er       0.59044    0.58542    0.81016    1.000
    Er26     Er       0.41586    0.46015    0.84893    1.000
    Er27     Er       0.40406    0.61351    0.68476    1.000
    Er28     Er       0.53374    0.43973    0.65525    1.000
    S25      S        0.52460    0.38755    0.01682    1.000
    S26      S        0.41316    0.29351    0.72857    1.000
    S27      S        0.61831    0.51419    0.47522    1.000
    S28      S        0.73371    0.46594    0.71734    1.000
    O121     O        0.50210    0.38910    0.93380    1.000
    O122     O        0.44887    0.58960    0.80949    1.000
    O123     O        0.56980    0.45960    0.03670    1.000
    O124     O        0.40872    0.47670    0.71099    1.000
    O125     O        0.57570    0.32030    0.03260    1.000
    O126     O        0.53766    0.57190    0.68136    1.000
    O127     O        0.45140    0.38330    0.06470    1.000
    O128     O        0.54186    0.46025    0.79451    1.000
    O129     O        0.39130    0.33400    0.80170    1.000
    O130     O        0.49340    0.32040    0.70360    1.000
    O131     O        0.35450    0.30990    0.66790    1.000
    O132     O        0.41870    0.20890    0.74300    1.000
    O133     O        0.61030    0.50290    0.55910    1.000
    O134     O        0.69700    0.54670    0.45740    1.000
    O135     O        0.55580    0.56770    0.44740    1.000
    O136     O        0.60730    0.43740    0.43670    1.000
    O137     O        0.70410    0.54010    0.74930    1.000
    O138     O        0.66710    0.41870    0.68820    1.000
    O139     O        0.78960    0.48330    0.65320    1.000
    O140     O        0.77590    0.42110    0.77760    1.000
    Er29     Er       0.90956    0.91458    0.81016    1.000
    Er30     Er       0.08414    0.03985    0.84893    1.000
    Er31     Er       0.09594    0.88649    0.68476    1.000
    Er32     Er       0.96626    0.06027    0.65525    1.000
    S29      S        0.97540    0.11245    0.01682    1.000
    S30      S        0.08684    0.20649    0.72857    1.000
    S31      S        0.88169    0.98581    0.47522    1.000
    S32      S        0.76629    0.03406    0.71734    1.000
    O141     O        0.99790    0.11090    0.93380    1.000
    O142     O        0.05113    0.91040    0.80949    1.000
    O143     O        0.93020    0.04040    0.03670    1.000
    O144     O        0.09128    0.02330    0.71099    1.000
    O145     O        0.92430    0.17970    0.03260    1.000
    O146     O        0.96234    0.92810    0.68136    1.000
    O147     O        0.04860    0.11670    0.06470    1.000
    O148     O        0.95814    0.03975    0.79451    1.000
    O149     O        0.10870    0.16600    0.80170    1.000
    O150     O        0.00660    0.17960    0.70360    1.000
    O151     O        0.14550    0.19010    0.66790    1.000
    O152     O        0.08130    0.29110    0.74300    1.000
    O153     O        0.88970    0.99710    0.55910    1.000
    O154     O        0.80300    0.95330    0.45740    1.000
    O155     O        0.94420    0.93230    0.44740    1.000
    O156     O        0.89270    0.06260    0.43670    1.000
    O157     O        0.79590    0.95990    0.74930    1.000
    O158     O        0.83290    0.08130    0.68820    1.000
    O159     O        0.71040    0.01670    0.65320    1.000
    O160     O        0.72410    0.07890    0.77760    1.000
