data_functionalizedCrystal
_audit_creation_method	'EQeq! by Chris Wilmer'
_symmetry_space_group_name_H-M	'P1'
_symmetry_Int_Tables_number	1
_symmetry_cell_setting	triclinic
loop_
_symmetry_equiv_pos_as_xyz
  x,y,z
_cell_length_a	26.3205
_cell_length_b	12.2748
_cell_length_c	19.6085
_cell_angle_alpha	90
_cell_angle_beta	122.972
_cell_angle_gamma	90
loop_
_atom_site_label
_atom_site_type_symbol
_atom_site_fract_x
_atom_site_fract_y
_atom_site_fract_z
_atom_site_charge
Mof_Er	Er	0.99936	0.52458	0.12599	1.834
Mof_O 	O 	0.06098	0.423	0.103	-0.607
Mof_O 	O 	0.04844	0.3725	0.9879	-0.637
Mof_O 	O 	0.40078	0.0597	0.2512	-0.475
Mof_O 	O 	0.42225	0.1438	0.3621	-0.452
Mof_O 	O 	0.9901	0.6748	0.1873	-0.577
Mof_O 	O 	0.0121	0.3796	0.2049	-0.627
Mof_S 	S 	0.1809	0.3531	0.2168	-0.137
Mof_S 	S 	0.312	0.2534	0.3099	-0.113
Mof_S 	S 	0.0056	0.9043	0.1759	-0.127
Mof_S 	S 	0.0101	0.1574	0.1843	-0.061
Mof_C 	C 	0.0774	0.3767	0.0621	0.692
Mof_C 	C 	0.3858	0.1237	0.2873	0.492
Mof_C 	C 	0.1369	0.324	0.1093	-0.547
Mof_C 	C 	0.1679	0.2596	0.0874	0.581
Mof_C 	C 	0.2272	0.2281	0.1475	-0.367
Mof_C 	C 	0.2386	0.2742	0.2218	-0.202
Mof_C 	C 	0.3264	0.1718	0.2471	-0.491
Mof_C 	C 	0.279	0.1684	0.168	0.604
Mof_C 	C 	0.1441	0.2225	0.0059	-0.613
Mof_H 	H 	0.1223	0.1557	0.9968	0.199
Mof_H 	H 	0.1768	0.2102	0.9986	0.197
Mof_H 	H 	0.1173	0.2766	0.968	0.225
Mof_C 	C 	0.2782	0.1083	0.1059	-0.668
Mof_H 	H 	0.2953	0.1516	0.0824	0.228
Mof_H 	H 	0.2372	0.0896	0.0646	0.21
Mof_H 	H 	0.3016	0.043	0.1285	0.23
Mof_C 	C 	0.9939	0.917	0.2984	0.435
Mof_C 	C 	0.996	0.029	0.286	-0.077
Mof_C 	C 	0.003	0.028	0.219	-0.128
Mof_C 	C 	0.996	0.14	0.302	0.375
Mof_C 	C 	0.9874	0.8855	0.3677	-0.668
Mof_H 	H 	0.9881	0.8074	0.3715	0.254
Mof_H 	H 	0.9495	0.9124	0.357	0.214
Mof_H 	H 	0.0199	0.9154	0.418	0.2
Mof_C 	C 	0.9875	0.1585	0.372	-0.711
Mof_H 	H 	0.021	0.1271	0.4207	0.205
Mof_H 	H 	0.9504	0.1263	0.3608	0.224
Mof_H 	H 	0.9864	0.2356	0.3793	0.236
Mof_S 	S 	0.1537	0.2496	0.0425	-0.207
Mof_S 	S 	0.2819	0.1438	0.1364	-0.218
Mof_C 	C 	0.182	0.329	0.193	0.473
Mof_C 	C 	0.299	0.234	0.279	0.432
Mof_C 	C 	0.1755	0.388	0.255	-0.669
Mof_H 	H 	0.1875	0.4625	0.2582	0.234
Mof_H 	H 	0.2009	0.3539	0.3072	0.2
Mof_H 	H 	0.1341	0.3851	0.2398	0.247
Mof_C 	C 	0.3162	0.276	0.36	-0.634
Mof_H 	H 	0.3385	0.2209	0.401	0.197
Mof_H 	H 	0.2802	0.2937	0.3592	0.187
Mof_H 	H 	0.3408	0.3397	0.3734	0.205
Mof_Er	Er	0.49936	0.02458	0.12599	1.817
Mof_O 	O 	0.56098	0.923	0.103	-0.601
Mof_O 	O 	0.54844	0.8725	0.9879	-0.635
Mof_O 	O 	0.90078	0.5597	0.2512	-0.471
Mof_O 	O 	0.92225	0.6438	0.3621	-0.448
Mof_O 	O 	0.4901	0.1748	0.1873	-0.582
Mof_O 	O 	0.5121	0.8796	0.2049	-0.624
Mof_S 	S 	0.6809	0.8531	0.2168	-0.138
Mof_S 	S 	0.812	0.7534	0.3099	-0.113
Mof_S 	S 	0.5056	0.4043	0.1759	-0.122
Mof_S 	S 	0.5101	0.6574	0.1843	-0.058
Mof_C 	C 	0.5774	0.8767	0.0621	0.691
Mof_C 	C 	0.8858	0.6237	0.2873	0.492
Mof_C 	C 	0.6369	0.824	0.1093	-0.55
Mof_C 	C 	0.6679	0.7596	0.0874	0.59
Mof_C 	C 	0.7272	0.7281	0.1475	-0.37
Mof_C 	C 	0.7386	0.7742	0.2218	-0.201
Mof_C 	C 	0.8264	0.6718	0.2471	-0.492
Mof_C 	C 	0.779	0.6684	0.168	0.606
Mof_C 	C 	0.6441	0.7225	0.0059	-0.623
Mof_H 	H 	0.6223	0.6557	0.9968	0.203
Mof_H 	H 	0.6768	0.7102	0.9986	0.201
Mof_H 	H 	0.6173	0.7766	0.968	0.23
Mof_C 	C 	0.7782	0.6083	0.1059	-0.67
Mof_H 	H 	0.7953	0.6516	0.0824	0.228
Mof_H 	H 	0.7372	0.5896	0.0646	0.21
Mof_H 	H 	0.8016	0.543	0.1285	0.23
Mof_C 	C 	0.4939	0.417	0.2984	0.441
Mof_C 	C 	0.496	0.529	0.286	-0.083
Mof_C 	C 	0.503	0.528	0.219	-0.122
Mof_C 	C 	0.496	0.64	0.302	0.383
Mof_C 	C 	0.4874	0.3855	0.3677	-0.685
Mof_H 	H 	0.4881	0.3074	0.3715	0.256
Mof_H 	H 	0.4495	0.4124	0.357	0.218
Mof_H 	H 	0.5199	0.4154	0.418	0.211
Mof_C 	C 	0.4875	0.6585	0.372	-0.735
Mof_H 	H 	0.521	0.6271	0.4207	0.217
Mof_H 	H 	0.4504	0.6263	0.3608	0.23
Mof_H 	H 	0.4864	0.7356	0.3793	0.241
Mof_S 	S 	0.6537	0.7496	0.0425	-0.213
Mof_S 	S 	0.7819	0.6438	0.1364	-0.218
Mof_C 	C 	0.682	0.829	0.193	0.475
Mof_C 	C 	0.799	0.734	0.279	0.434
Mof_C 	C 	0.6755	0.888	0.255	-0.671
Mof_H 	H 	0.6875	0.9625	0.2582	0.235
Mof_H 	H 	0.7009	0.8539	0.3072	0.201
Mof_H 	H 	0.6341	0.8851	0.2398	0.248
Mof_C 	C 	0.8162	0.776	0.36	-0.636
Mof_H 	H 	0.8385	0.7209	0.401	0.198
Mof_H 	H 	0.7802	0.7937	0.3592	0.188
Mof_H 	H 	0.8408	0.8397	0.3734	0.206
Mof_Er	Er	0.00064	0.52458	0.37401	1.802
Mof_O 	O 	0.93902	0.423	0.397	-0.598
Mof_O 	O 	0.95156	0.3725	0.5121	-0.634
Mof_O 	O 	0.59922	0.0597	0.2488	-0.474
Mof_O 	O 	0.57775	0.1438	0.1379	-0.453
Mof_O 	O 	0.0099	0.6748	0.3127	-0.582
Mof_O 	O 	0.9879	0.3796	0.2951	-0.615
Mof_S 	S 	0.8191	0.3531	0.2832	-0.137
Mof_S 	S 	0.688	0.2534	0.1901	-0.112
Mof_S 	S 	0.9944	0.9043	0.3241	-0.113
Mof_S 	S 	0.9899	0.1574	0.3157	-0.05
Mof_C 	C 	0.9226	0.3767	0.4379	0.689
Mof_C 	C 	0.6142	0.1237	0.2127	0.492
Mof_C 	C 	0.8631	0.324	0.3907	-0.549
Mof_C 	C 	0.8321	0.2596	0.4126	0.591
Mof_C 	C 	0.7728	0.2281	0.3525	-0.371
Mof_C 	C 	0.7614	0.2742	0.2782	-0.201
Mof_C 	C 	0.6736	0.1718	0.2529	-0.492
Mof_C 	C 	0.721	0.1684	0.332	0.607
Mof_C 	C 	0.8559	0.2225	0.4941	-0.624
Mof_H 	H 	0.8777	0.1557	0.5032	0.204
Mof_H 	H 	0.8232	0.2102	0.5014	0.202
Mof_H 	H 	0.8827	0.2766	0.532	0.231
Mof_C 	C 	0.7218	0.1083	0.3941	-0.672
Mof_H 	H 	0.7047	0.1516	0.4176	0.229
Mof_H 	H 	0.7628	0.0896	0.4354	0.211
Mof_H 	H 	0.6984	0.043	0.3715	0.231
Mof_C 	C 	0.0061	0.917	0.2016	0.456
Mof_C 	C 	0.004	0.029	0.214	-0.09
Mof_C 	C 	0.997	0.028	0.281	-0.119
Mof_C 	C 	0.004	0.14	0.198	0.394
Mof_C 	C 	0.0126	0.8855	0.1323	-0.71
Mof_H 	H 	0.0119	0.8074	0.1285	0.262
Mof_H 	H 	0.0505	0.9124	0.143	0.225
Mof_H 	H 	0.9801	0.9154	0.082	0.223
Mof_C 	C 	0.0125	0.1585	0.128	-0.758
Mof_H 	H 	0.979	0.1271	0.0793	0.227
Mof_H 	H 	0.0496	0.1263	0.1392	0.236
Mof_H 	H 	0.0136	0.2356	0.1207	0.247
Mof_S 	S 	0.8463	0.2496	0.4575	-0.214
Mof_S 	S 	0.7181	0.1438	0.3636	-0.219
Mof_C 	C 	0.818	0.329	0.307	0.474
Mof_C 	C 	0.701	0.234	0.221	0.432
Mof_C 	C 	0.8245	0.388	0.245	-0.67
Mof_H 	H 	0.8125	0.4625	0.2418	0.234
Mof_H 	H 	0.7991	0.3539	0.1928	0.2
Mof_H 	H 	0.8659	0.3851	0.2602	0.248
Mof_C 	C 	0.6838	0.276	0.14	-0.634
Mof_H 	H 	0.6615	0.2209	0.099	0.197
Mof_H 	H 	0.7198	0.2937	0.1408	0.187
Mof_H 	H 	0.6592	0.3397	0.1266	0.205
Mof_Er	Er	0.50064	0.02458	0.37401	1.819
Mof_O 	O 	0.43902	0.923	0.397	-0.602
Mof_O 	O 	0.45156	0.8725	0.5121	-0.634
Mof_O 	O 	0.09922	0.5597	0.2488	-0.476
Mof_O 	O 	0.07775	0.6438	0.1379	-0.455
Mof_O 	O 	0.5099	0.1748	0.3127	-0.582
Mof_O 	O 	0.4879	0.8796	0.2951	-0.625
Mof_S 	S 	0.3191	0.8531	0.2832	-0.138
Mof_S 	S 	0.188	0.7534	0.1901	-0.113
Mof_S 	S 	0.4944	0.4043	0.3241	-0.122
Mof_S 	S 	0.4899	0.6574	0.3157	-0.058
Mof_C 	C 	0.4226	0.8767	0.4379	0.689
Mof_C 	C 	0.1142	0.6237	0.2127	0.493
Mof_C 	C 	0.3631	0.824	0.3907	-0.55
Mof_C 	C 	0.3321	0.7596	0.4126	0.591
Mof_C 	C 	0.2728	0.7281	0.3525	-0.371
Mof_C 	C 	0.2614	0.7742	0.2782	-0.201
Mof_C 	C 	0.1736	0.6718	0.2529	-0.493
Mof_C 	C 	0.221	0.6684	0.332	0.607
Mof_C 	C 	0.3559	0.7225	0.4941	-0.624
Mof_H 	H 	0.3777	0.6557	0.5032	0.204
Mof_H 	H 	0.3232	0.7102	0.5014	0.201
Mof_H 	H 	0.3827	0.7766	0.532	0.23
Mof_C 	C 	0.2218	0.6083	0.3941	-0.672
Mof_H 	H 	0.2047	0.6516	0.4176	0.229
Mof_H 	H 	0.2628	0.5896	0.4354	0.211
Mof_H 	H 	0.1984	0.543	0.3715	0.231
Mof_C 	C 	0.5061	0.417	0.2016	0.441
Mof_C 	C 	0.504	0.529	0.214	-0.083
Mof_C 	C 	0.497	0.528	0.281	-0.122
Mof_C 	C 	0.504	0.64	0.198	0.384
Mof_C 	C 	0.5126	0.3855	0.1323	-0.685
Mof_H 	H 	0.5119	0.3074	0.1285	0.256
Mof_H 	H 	0.5505	0.4124	0.143	0.218
Mof_H 	H 	0.4801	0.4154	0.082	0.211
Mof_C 	C 	0.5125	0.6585	0.128	-0.736
Mof_H 	H 	0.479	0.6271	0.0793	0.217
Mof_H 	H 	0.5496	0.6263	0.1392	0.23
Mof_H 	H 	0.5136	0.7356	0.1207	0.241
Mof_S 	S 	0.3463	0.7496	0.4575	-0.214
Mof_S 	S 	0.2181	0.6438	0.3636	-0.219
Mof_C 	C 	0.318	0.829	0.307	0.475
Mof_C 	C 	0.201	0.734	0.221	0.434
Mof_C 	C 	0.3245	0.888	0.245	-0.671
Mof_H 	H 	0.3125	0.9625	0.2418	0.235
Mof_H 	H 	0.2991	0.8539	0.1928	0.201
Mof_H 	H 	0.3659	0.8851	0.2602	0.248
Mof_C 	C 	0.1838	0.776	0.14	-0.637
Mof_H 	H 	0.1615	0.7209	0.099	0.198
Mof_H 	H 	0.2198	0.7937	0.1408	0.188
Mof_H 	H 	0.1592	0.8397	0.1266	0.206
Mof_Er	Er	0.00064	0.47542	0.87401	1.791
Mof_O 	O 	0.93902	0.577	0.897	-0.596
Mof_O 	O 	0.95156	0.6275	0.0121	-0.635
Mof_O 	O 	0.59922	0.9403	0.7488	-0.474
Mof_O 	O 	0.57775	0.8562	0.6379	-0.452
Mof_O 	O 	0.0099	0.3252	0.8127	-0.581
Mof_O 	O 	0.9879	0.6204	0.7951	-0.609
Mof_S 	S 	0.8191	0.6469	0.7832	-0.138
Mof_S 	S 	0.688	0.7466	0.6901	-0.113
Mof_S 	S 	0.9944	0.0957	0.8241	-0.109
Mof_S 	S 	0.9899	0.8426	0.8157	-0.046
Mof_C 	C 	0.9226	0.6233	0.9379	0.691
Mof_C 	C 	0.6142	0.8763	0.7127	0.492
Mof_C 	C 	0.8631	0.676	0.8907	-0.547
Mof_C 	C 	0.8321	0.7404	0.9126	0.585
Mof_C 	C 	0.7728	0.7719	0.8525	-0.368
Mof_C 	C 	0.7614	0.7258	0.7782	-0.202
Mof_C 	C 	0.6736	0.8282	0.7529	-0.492
Mof_C 	C 	0.721	0.8316	0.832	0.605
Mof_C 	C 	0.8559	0.7775	0.9941	-0.616
Mof_H 	H 	0.8777	0.8443	0.0032	0.201
Mof_H 	H 	0.8232	0.7898	0.0014	0.198
Mof_H 	H 	0.8827	0.7234	0.032	0.227
Mof_C 	C 	0.7218	0.8917	0.8941	-0.669
Mof_H 	H 	0.7047	0.8484	0.9176	0.228
Mof_H 	H 	0.7628	0.9104	0.9354	0.211
Mof_H 	H 	0.6984	0.957	0.8715	0.23
Mof_C 	C 	0.0061	0.083	0.7016	0.463
Mof_C 	C 	0.004	0.971	0.714	-0.095
Mof_C 	C 	0.997	0.972	0.781	-0.117
Mof_C 	C 	0.004	0.86	0.698	0.405
Mof_C 	C 	0.0126	0.1145	0.6323	-0.724
Mof_H 	H 	0.0119	0.1926	0.6285	0.265
Mof_H 	H 	0.0505	0.0876	0.643	0.229
Mof_H 	H 	0.9801	0.0846	0.582	0.229
Mof_C 	C 	0.0125	0.8415	0.628	-0.78
Mof_H 	H 	0.979	0.8729	0.5793	0.237
Mof_H 	H 	0.0496	0.8737	0.6392	0.242
Mof_H 	H 	0.0136	0.7644	0.6207	0.253
Mof_S 	S 	0.8463	0.7504	0.9575	-0.21
Mof_S 	S 	0.7181	0.8562	0.8636	-0.219
Mof_C 	C 	0.818	0.671	0.807	0.474
Mof_C 	C 	0.701	0.766	0.721	0.433
Mof_C 	C 	0.8245	0.612	0.745	-0.671
Mof_H 	H 	0.8125	0.5375	0.7418	0.234
Mof_H 	H 	0.7991	0.6461	0.6928	0.201
Mof_H 	H 	0.8659	0.6149	0.7602	0.248
Mof_C 	C 	0.6838	0.724	0.64	-0.635
Mof_H 	H 	0.6615	0.7791	0.599	0.197
Mof_H 	H 	0.7198	0.7063	0.6408	0.188
Mof_H 	H 	0.6592	0.6603	0.6266	0.206
Mof_Er	Er	0.50064	0.97542	0.87401	1.817
Mof_O 	O 	0.43902	0.077	0.897	-0.601
Mof_O 	O 	0.45156	0.1275	0.0121	-0.635
Mof_O 	O 	0.09922	0.4403	0.7488	-0.478
Mof_O 	O 	0.07775	0.3562	0.6379	-0.458
Mof_O 	O 	0.5099	0.8252	0.8127	-0.582
Mof_O 	O 	0.4879	0.1204	0.7951	-0.624
Mof_S 	S 	0.3191	0.1469	0.7832	-0.137
Mof_S 	S 	0.188	0.2466	0.6901	-0.112
Mof_S 	S 	0.4944	0.5957	0.8241	-0.121
Mof_S 	S 	0.4899	0.3426	0.8157	-0.058
Mof_C 	C 	0.4226	0.1233	0.9379	0.691
Mof_C 	C 	0.1142	0.3763	0.7127	0.493
Mof_C 	C 	0.3631	0.176	0.8907	-0.55
Mof_C 	C 	0.3321	0.2404	0.9126	0.591
Mof_C 	C 	0.2728	0.2719	0.8525	-0.371
Mof_C 	C 	0.2614	0.2258	0.7782	-0.201
Mof_C 	C 	0.1736	0.3282	0.7529	-0.492
Mof_C 	C 	0.221	0.3316	0.832	0.607
Mof_C 	C 	0.3559	0.2775	0.9941	-0.624
Mof_H 	H 	0.3777	0.3443	0.0032	0.204
Mof_H 	H 	0.3232	0.2898	0.0014	0.201
Mof_H 	H 	0.3827	0.2234	0.032	0.23
Mof_C 	C 	0.2218	0.3917	0.8941	-0.671
Mof_H 	H 	0.2047	0.3484	0.9176	0.229
Mof_H 	H 	0.2628	0.4104	0.9354	0.211
Mof_H 	H 	0.1984	0.457	0.8715	0.231
Mof_C 	C 	0.5061	0.583	0.7016	0.441
Mof_C 	C 	0.504	0.471	0.714	-0.083
Mof_C 	C 	0.497	0.472	0.781	-0.122
Mof_C 	C 	0.504	0.36	0.698	0.383
Mof_C 	C 	0.5126	0.6145	0.6323	-0.685
Mof_H 	H 	0.5119	0.6926	0.6285	0.256
Mof_H 	H 	0.5505	0.5876	0.643	0.218
Mof_H 	H 	0.4801	0.5846	0.582	0.211
Mof_C 	C 	0.5125	0.3415	0.628	-0.735
Mof_H 	H 	0.479	0.3729	0.5793	0.217
Mof_H 	H 	0.5496	0.3737	0.6392	0.23
Mof_H 	H 	0.5136	0.2644	0.6207	0.241
Mof_S 	S 	0.3463	0.2504	0.9575	-0.214
Mof_S 	S 	0.2181	0.3562	0.8636	-0.218
Mof_C 	C 	0.318	0.171	0.807	0.475
Mof_C 	C 	0.201	0.266	0.721	0.432
Mof_C 	C 	0.3245	0.112	0.745	-0.671
Mof_H 	H 	0.3125	0.0375	0.7418	0.235
Mof_H 	H 	0.2991	0.1461	0.6928	0.201
Mof_H 	H 	0.3659	0.1149	0.7602	0.248
Mof_C 	C 	0.1838	0.224	0.64	-0.635
Mof_H 	H 	0.1615	0.2791	0.599	0.197
Mof_H 	H 	0.2198	0.2063	0.6408	0.187
Mof_H 	H 	0.1592	0.1603	0.6266	0.205
Mof_Er	Er	0.99936	0.47542	0.62599	1.845
Mof_O 	O 	0.06098	0.577	0.603	-0.608
Mof_O 	O 	0.04844	0.6275	0.4879	-0.635
Mof_O 	O 	0.40078	0.9403	0.7512	-0.474
Mof_O 	O 	0.42225	0.8562	0.8621	-0.453
Mof_O 	O 	0.9901	0.3252	0.6873	-0.573
Mof_O 	O 	0.0121	0.6204	0.7049	-0.629
Mof_S 	S 	0.1809	0.6469	0.7168	-0.137
Mof_S 	S 	0.312	0.7466	0.8099	-0.112
Mof_S 	S 	0.0056	0.0957	0.6759	-0.129
Mof_S 	S 	0.0101	0.8426	0.6843	-0.064
Mof_C 	C 	0.0774	0.6233	0.5621	0.69
Mof_C 	C 	0.3858	0.8763	0.7873	0.492
Mof_C 	C 	0.1369	0.676	0.6093	-0.55
Mof_C 	C 	0.1679	0.7404	0.5874	0.59
Mof_C 	C 	0.2272	0.7719	0.6475	-0.371
Mof_C 	C 	0.2386	0.7258	0.7218	-0.201
Mof_C 	C 	0.3264	0.8282	0.7471	-0.492
Mof_C 	C 	0.279	0.8316	0.668	0.607
Mof_C 	C 	0.1441	0.7775	0.5059	-0.624
Mof_H 	H 	0.1223	0.8443	0.4968	0.203
Mof_H 	H 	0.1768	0.7898	0.4986	0.201
Mof_H 	H 	0.1173	0.7234	0.468	0.23
Mof_C 	C 	0.2782	0.8917	0.6059	-0.671
Mof_H 	H 	0.2953	0.8484	0.5824	0.229
Mof_H 	H 	0.2372	0.9104	0.5646	0.211
Mof_H 	H 	0.3016	0.957	0.6285	0.231
Mof_C 	C 	0.9939	0.083	0.7984	0.433
Mof_C 	C 	0.996	0.971	0.786	-0.073
Mof_C 	C 	0.003	0.972	0.719	-0.131
Mof_C 	C 	0.996	0.86	0.802	0.371
Mof_C 	C 	0.9874	0.1145	0.8677	-0.662
Mof_H 	H 	0.9881	0.1926	0.8715	0.254
Mof_H 	H 	0.9495	0.0876	0.857	0.213
Mof_H 	H 	0.0199	0.0846	0.918	0.197
Mof_C 	C 	0.9875	0.8415	0.872	-0.699
Mof_H 	H 	0.021	0.8729	0.9207	0.197
Mof_H 	H 	0.9504	0.8737	0.8608	0.22
Mof_H 	H 	0.9864	0.7644	0.8793	0.233
Mof_S 	S 	0.1537	0.7504	0.5425	-0.213
Mof_S 	S 	0.2819	0.8562	0.6364	-0.219
Mof_C 	C 	0.182	0.671	0.693	0.473
Mof_C 	C 	0.299	0.766	0.779	0.432
Mof_C 	C 	0.1755	0.612	0.755	-0.668
Mof_H 	H 	0.1875	0.5375	0.7582	0.234
Mof_H 	H 	0.2009	0.6461	0.8072	0.2
Mof_H 	H 	0.1341	0.6149	0.7398	0.247
Mof_C 	C 	0.3162	0.724	0.86	-0.634
Mof_H 	H 	0.3385	0.7791	0.901	0.196
Mof_H 	H 	0.2802	0.7063	0.8592	0.187
Mof_H 	H 	0.3408	0.6603	0.8734	0.205
Mof_Er	Er	0.49936	0.97542	0.62599	1.819
Mof_O 	O 	0.56098	0.077	0.603	-0.602
Mof_O 	O 	0.54844	0.1275	0.4879	-0.634
Mof_O 	O 	0.90078	0.4403	0.7512	-0.469
Mof_O 	O 	0.92225	0.3562	0.8621	-0.446
Mof_O 	O 	0.4901	0.8252	0.6873	-0.582
Mof_O 	O 	0.5121	0.1204	0.7049	-0.625
Mof_S 	S 	0.6809	0.1469	0.7168	-0.138
Mof_S 	S 	0.812	0.2466	0.8099	-0.114
Mof_S 	S 	0.5056	0.5957	0.6759	-0.122
Mof_S 	S 	0.5101	0.3426	0.6843	-0.058
Mof_C 	C 	0.5774	0.1233	0.5621	0.69
Mof_C 	C 	0.8858	0.3763	0.7873	0.492
Mof_C 	C 	0.6369	0.176	0.6093	-0.55
Mof_C 	C 	0.6679	0.2404	0.5874	0.591
Mof_C 	C 	0.7272	0.2719	0.6475	-0.371
Mof_C 	C 	0.7386	0.2258	0.7218	-0.202
Mof_C 	C 	0.8264	0.3282	0.7471	-0.492
Mof_C 	C 	0.779	0.3316	0.668	0.607
Mof_C 	C 	0.6441	0.2775	0.5059	-0.624
Mof_H 	H 	0.6223	0.3443	0.4968	0.204
Mof_H 	H 	0.6768	0.2898	0.4986	0.201
Mof_H 	H 	0.6173	0.2234	0.468	0.23
Mof_C 	C 	0.7782	0.3917	0.6059	-0.671
Mof_H 	H 	0.7953	0.3484	0.5824	0.229
Mof_H 	H 	0.7372	0.4104	0.5646	0.211
Mof_H 	H 	0.8016	0.457	0.6285	0.231
Mof_C 	C 	0.4939	0.583	0.7984	0.441
Mof_C 	C 	0.496	0.471	0.786	-0.083
Mof_C 	C 	0.503	0.472	0.719	-0.122
Mof_C 	C 	0.496	0.36	0.802	0.384
Mof_C 	C 	0.4874	0.6145	0.8677	-0.685
Mof_H 	H 	0.4881	0.6926	0.8715	0.256
Mof_H 	H 	0.4495	0.5876	0.857	0.218
Mof_H 	H 	0.5199	0.5846	0.918	0.211
Mof_C 	C 	0.4875	0.3415	0.872	-0.736
Mof_H 	H 	0.521	0.3729	0.9207	0.217
Mof_H 	H 	0.4504	0.3737	0.8608	0.23
Mof_H 	H 	0.4864	0.2644	0.8793	0.241
Mof_S 	S 	0.6537	0.2504	0.5425	-0.214
Mof_S 	S 	0.7819	0.3562	0.6364	-0.219
Mof_C 	C 	0.682	0.171	0.693	0.475
Mof_C 	C 	0.799	0.266	0.779	0.435
Mof_C 	C 	0.6755	0.112	0.755	-0.671
Mof_H 	H 	0.6875	0.0375	0.7582	0.235
Mof_H 	H 	0.7009	0.1461	0.8072	0.201
Mof_H 	H 	0.6341	0.1149	0.7398	0.248
Mof_C 	C 	0.8162	0.224	0.86	-0.637
Mof_H 	H 	0.8385	0.2791	0.901	0.199
Mof_H 	H 	0.7802	0.2063	0.8592	0.189
Mof_H 	H 	0.8408	0.1603	0.8734	0.208
Mof_C 	C 	-2.13909e-17	0.7217	0.25	0.627
Mof_C 	C 	1.07836e-33	0.3332	0.25	0.641
Mof_C 	C 	-2.13909e-17	0.8416	0.25	-0.463
Mof_C 	C 	-2.13909e-17	0.2132	0.25	-0.453
Mof_C 	C 	0.5	0.2217	0.25	0.632
Mof_C 	C 	0.5	0.8332	0.25	0.648
Mof_C 	C 	0.5	0.3416	0.25	-0.456
Mof_C 	C 	0.5	0.7132	0.25	-0.448
Mof_C 	C 	-4.27817e-17	0.2783	0.75	0.623
Mof_C 	C 	-4.27817e-17	0.6668	0.75	0.637
Mof_C 	C 	-4.27817e-17	0.1584	0.75	-0.467
Mof_C 	C 	-8.55634e-17	0.7868	0.75	-0.457
Mof_C 	C 	0.5	0.7783	0.75	0.632
Mof_C 	C 	0.5	0.1668	0.75	0.648
Mof_C 	C 	0.5	0.6584	0.75	-0.456
Mof_C 	C 	0.5	0.2868	0.75	-0.448
_end
