data_functionalizedCrystal
_audit_creation_method	'EQeq! by Chris Wilmer'
_symmetry_space_group_name_H-M	'P1'
_symmetry_Int_Tables_number	1
_symmetry_cell_setting	triclinic
loop_
_symmetry_equiv_pos_as_xyz
  x,y,z
_cell_length_a	20.495
_cell_length_b	20.495
_cell_length_c	20.495
_cell_angle_alpha	90
_cell_angle_beta	90
_cell_angle_gamma	90
loop_
_atom_site_label
_atom_site_type_symbol
_atom_site_fract_x
_atom_site_fract_y
_atom_site_fract_z
_atom_site_charge
Mof_Co	Co	0.83854	0.60175	0.85682	1.197
Mof_Co	Co	0.99374	0.43919	0.72419	1.178
Mof_Co	Co	0.66146	0.39825	0.35682	1.197
Mof_Co	Co	0.50626	0.56081	0.22419	1.178
Mof_Co	Co	0.16146	0.10175	0.64318	1.197
Mof_Co	Co	0.00626	0.93919	0.77581	1.176
Mof_Co	Co	0.33854	0.89825	0.14318	1.197
Mof_Co	Co	0.49374	0.06081	0.27581	1.178
Mof_Co	Co	0.85682	0.83854	0.60175	1.197
Mof_Co	Co	0.72419	0.99374	0.43919	1.178
Mof_Co	Co	0.35682	0.66146	0.39825	1.197
Mof_Co	Co	0.22419	0.50626	0.56081	1.178
Mof_Co	Co	0.64318	0.16146	0.10175	1.197
Mof_Co	Co	0.77581	0.00626	0.93919	1.176
Mof_Co	Co	0.14318	0.33854	0.89825	1.197
Mof_Co	Co	0.27581	0.49374	0.06081	1.178
Mof_Co	Co	0.60175	0.85682	0.83854	1.197
Mof_Co	Co	0.43919	0.72419	0.99374	1.178
Mof_Co	Co	0.39825	0.35682	0.66146	1.197
Mof_Co	Co	0.56081	0.22419	0.50626	1.178
Mof_Co	Co	0.10175	0.64318	0.16146	1.197
Mof_Co	Co	0.93919	0.77581	0.00626	1.176
Mof_Co	Co	0.89825	0.14318	0.33854	1.197
Mof_Co	Co	0.06081	0.27581	0.49374	1.178
Mof_Co	Co	0.16146	0.39825	0.14318	1.197
Mof_Co	Co	0.00626	0.56081	0.27581	1.178
Mof_Co	Co	0.33854	0.60175	0.64318	1.197
Mof_Co	Co	0.49374	0.43919	0.77581	1.178
Mof_Co	Co	0.83854	0.89825	0.35682	1.197
Mof_Co	Co	0.99374	0.06081	0.22419	1.176
Mof_Co	Co	0.66146	0.10175	0.85682	1.197
Mof_Co	Co	0.50626	0.93919	0.72419	1.178
Mof_Co	Co	0.14318	0.16146	0.39825	1.197
Mof_Co	Co	0.27581	0.00626	0.56081	1.178
Mof_Co	Co	0.64318	0.33854	0.60175	1.197
Mof_Co	Co	0.77581	0.49374	0.43919	1.178
Mof_Co	Co	0.35682	0.83854	0.89825	1.197
Mof_Co	Co	0.22419	0.99374	0.06081	1.176
Mof_Co	Co	0.85682	0.66146	0.10175	1.197
Mof_Co	Co	0.72419	0.50626	0.93919	1.178
Mof_Co	Co	0.39825	0.14318	0.16146	1.197
Mof_Co	Co	0.56081	0.27581	0.00626	1.178
Mof_Co	Co	0.60175	0.64318	0.33854	1.198
Mof_Co	Co	0.43919	0.77581	0.49374	1.179
Mof_Co	Co	0.89825	0.35682	0.83854	1.198
Mof_Co	Co	0.06081	0.22419	0.99374	1.177
Mof_Co	Co	0.10175	0.85682	0.66146	1.198
Mof_Co	Co	0.93919	0.72419	0.50626	1.179
Mof_H 	H 	0.8794	0.6224	0.699	0.059
Mof_H 	H 	0.9975	0.6615	0.6925	0.091
Mof_H 	H 	0.0079	0.6995	0.7936	0.072
Mof_H 	H 	0.8884	0.7631	0.8054	0.078
Mof_H 	H 	0.8532	0.4949	0.9229	0.23
Mof_H 	H 	0.8417	0.5519	0.973	0.233
Mof_H 	H 	0.6206	0.3776	0.199	0.059
Mof_H 	H 	0.5025	0.3385	0.1925	0.089
Mof_H 	H 	0.4921	0.3005	0.2936	0.078
Mof_H 	H 	0.6116	0.2369	0.3054	0.077
Mof_H 	H 	0.6468	0.5051	0.4229	0.23
Mof_H 	H 	0.6583	0.4481	0.473	0.232
Mof_H 	H 	0.1206	0.1224	0.801	0.059
Mof_H 	H 	0.0025	0.1615	0.8075	0.089
Mof_H 	H 	0.9921	0.1995	0.7064	0.077
Mof_H 	H 	0.1116	0.2631	0.6946	0.077
Mof_H 	H 	0.1468	0.9949	0.5771	0.229
Mof_H 	H 	0.1583	0.0519	0.527	0.232
Mof_H 	H 	0.3794	0.8776	0.301	0.059
Mof_H 	H 	0.4975	0.8385	0.3075	0.089
Mof_H 	H 	0.5079	0.8005	0.2064	0.078
Mof_H 	H 	0.3884	0.7369	0.1946	0.077
Mof_H 	H 	0.3532	0.0051	0.0771	0.234
Mof_H 	H 	0.3417	0.9481	0.027	0.232
Mof_H 	H 	0.699	0.8794	0.6224	0.059
Mof_H 	H 	0.6925	0.9975	0.6615	0.091
Mof_H 	H 	0.7936	0.0079	0.6995	0.072
Mof_H 	H 	0.8054	0.8884	0.7631	0.078
Mof_H 	H 	0.9229	0.8532	0.4949	0.23
Mof_H 	H 	0.973	0.8417	0.5519	0.233
Mof_H 	H 	0.199	0.6206	0.3776	0.059
Mof_H 	H 	0.1925	0.5025	0.3385	0.089
Mof_H 	H 	0.2936	0.4921	0.3005	0.078
Mof_H 	H 	0.3054	0.6116	0.2369	0.077
Mof_H 	H 	0.4229	0.6468	0.5051	0.23
Mof_H 	H 	0.473	0.6583	0.4481	0.232
Mof_H 	H 	0.801	0.1206	0.1224	0.059
Mof_H 	H 	0.8075	0.0025	0.1615	0.089
Mof_H 	H 	0.7064	0.9921	0.1995	0.077
Mof_H 	H 	0.6946	0.1116	0.2631	0.077
Mof_H 	H 	0.5771	0.1468	0.9949	0.229
Mof_H 	H 	0.527	0.1583	0.0519	0.232
Mof_H 	H 	0.301	0.3794	0.8776	0.059
Mof_H 	H 	0.3075	0.4975	0.8385	0.089
Mof_H 	H 	0.2064	0.5079	0.8005	0.078
Mof_H 	H 	0.1946	0.3884	0.7369	0.077
Mof_H 	H 	0.0771	0.3532	0.0051	0.234
Mof_H 	H 	0.027	0.3417	0.9481	0.232
Mof_H 	H 	0.6224	0.699	0.8794	0.059
Mof_H 	H 	0.6615	0.6925	0.9975	0.091
Mof_H 	H 	0.6995	0.7936	0.0079	0.072
Mof_H 	H 	0.7631	0.8054	0.8884	0.078
Mof_H 	H 	0.4949	0.9229	0.8532	0.23
Mof_H 	H 	0.5519	0.973	0.8417	0.233
Mof_H 	H 	0.3776	0.199	0.6206	0.059
Mof_H 	H 	0.3385	0.1925	0.5025	0.089
Mof_H 	H 	0.3005	0.2936	0.4921	0.078
Mof_H 	H 	0.2369	0.3054	0.6116	0.077
Mof_H 	H 	0.5051	0.4229	0.6468	0.23
Mof_H 	H 	0.4481	0.473	0.6583	0.232
Mof_H 	H 	0.1224	0.801	0.1206	0.059
Mof_H 	H 	0.1615	0.8075	0.0025	0.089
Mof_H 	H 	0.1995	0.7064	0.9921	0.077
Mof_H 	H 	0.2631	0.6946	0.1116	0.077
Mof_H 	H 	0.9949	0.5771	0.1468	0.229
Mof_H 	H 	0.0519	0.527	0.1583	0.232
Mof_H 	H 	0.8776	0.301	0.3794	0.059
Mof_H 	H 	0.8385	0.3075	0.4975	0.089
Mof_H 	H 	0.8005	0.2064	0.5079	0.078
Mof_H 	H 	0.7369	0.1946	0.3884	0.077
Mof_H 	H 	0.0051	0.0771	0.3532	0.234
Mof_H 	H 	0.9481	0.027	0.3417	0.232
Mof_H 	H 	0.1206	0.3776	0.301	0.059
Mof_H 	H 	0.0025	0.3385	0.3075	0.091
Mof_H 	H 	0.9921	0.3005	0.2064	0.072
Mof_H 	H 	0.1116	0.2369	0.1946	0.078
Mof_H 	H 	0.1468	0.5051	0.0771	0.23
Mof_H 	H 	0.1583	0.4481	0.027	0.233
Mof_H 	H 	0.3794	0.6224	0.801	0.059
Mof_H 	H 	0.4975	0.6615	0.8075	0.089
Mof_H 	H 	0.5079	0.6995	0.7064	0.078
Mof_H 	H 	0.3884	0.7631	0.6946	0.077
Mof_H 	H 	0.3532	0.4949	0.5771	0.23
Mof_H 	H 	0.3417	0.5519	0.527	0.232
Mof_H 	H 	0.8794	0.8776	0.199	0.059
Mof_H 	H 	0.9975	0.8385	0.1925	0.089
Mof_H 	H 	0.0079	0.8005	0.2936	0.077
Mof_H 	H 	0.8884	0.7369	0.3054	0.077
Mof_H 	H 	0.8532	0.0051	0.4229	0.229
Mof_H 	H 	0.8417	0.9481	0.473	0.232
Mof_H 	H 	0.6206	0.1224	0.699	0.059
Mof_H 	H 	0.5025	0.1615	0.6925	0.089
Mof_H 	H 	0.4921	0.1995	0.7936	0.078
Mof_H 	H 	0.6116	0.2631	0.8054	0.077
Mof_H 	H 	0.6468	0.9949	0.9229	0.234
Mof_H 	H 	0.6583	0.0519	0.973	0.232
Mof_H 	H 	0.301	0.1206	0.3776	0.059
Mof_H 	H 	0.3075	0.0025	0.3385	0.091
Mof_H 	H 	0.2064	0.9921	0.3005	0.072
Mof_H 	H 	0.1946	0.1116	0.2369	0.078
Mof_H 	H 	0.0771	0.1468	0.5051	0.23
Mof_H 	H 	0.027	0.1583	0.4481	0.233
Mof_H 	H 	0.801	0.3794	0.6224	0.059
Mof_H 	H 	0.8075	0.4975	0.6615	0.089
Mof_H 	H 	0.7064	0.5079	0.6995	0.078
Mof_H 	H 	0.6946	0.3884	0.7631	0.077
Mof_H 	H 	0.5771	0.3532	0.4949	0.23
Mof_H 	H 	0.527	0.3417	0.5519	0.232
Mof_H 	H 	0.199	0.8794	0.8776	0.059
Mof_H 	H 	0.1925	0.9975	0.8385	0.089
Mof_H 	H 	0.2936	0.0079	0.8005	0.077
Mof_H 	H 	0.3054	0.8884	0.7369	0.077
Mof_H 	H 	0.4229	0.8532	0.0051	0.229
Mof_H 	H 	0.473	0.8417	0.9481	0.232
Mof_H 	H 	0.699	0.6206	0.1224	0.059
Mof_H 	H 	0.6925	0.5025	0.1615	0.089
Mof_H 	H 	0.7936	0.4921	0.1995	0.078
Mof_H 	H 	0.8054	0.6116	0.2631	0.077
Mof_H 	H 	0.9229	0.6468	0.9949	0.234
Mof_H 	H 	0.973	0.6583	0.0519	0.232
Mof_H 	H 	0.3776	0.301	0.1206	0.059
Mof_H 	H 	0.3385	0.3075	0.0025	0.091
Mof_H 	H 	0.3005	0.2064	0.9921	0.072
Mof_H 	H 	0.2369	0.1946	0.1116	0.078
Mof_H 	H 	0.5051	0.0771	0.1468	0.23
Mof_H 	H 	0.4481	0.027	0.1583	0.233
Mof_H 	H 	0.6224	0.801	0.3794	0.059
Mof_H 	H 	0.6615	0.8075	0.4975	0.089
Mof_H 	H 	0.6995	0.7064	0.5079	0.078
Mof_H 	H 	0.7631	0.6946	0.3884	0.077
Mof_H 	H 	0.4949	0.5771	0.3532	0.23
Mof_H 	H 	0.5519	0.527	0.3417	0.232
Mof_H 	H 	0.8776	0.199	0.8794	0.059
Mof_H 	H 	0.8385	0.1925	0.9975	0.089
Mof_H 	H 	0.8005	0.2936	0.0079	0.077
Mof_H 	H 	0.7369	0.3054	0.8884	0.077
Mof_H 	H 	0.0051	0.4229	0.8532	0.229
Mof_H 	H 	0.9481	0.473	0.8417	0.232
Mof_H 	H 	0.1224	0.699	0.6206	0.059
Mof_H 	H 	0.1615	0.6925	0.5025	0.089
Mof_H 	H 	0.1995	0.7936	0.4921	0.078
Mof_H 	H 	0.2631	0.8054	0.6116	0.077
Mof_H 	H 	0.9949	0.9229	0.6468	0.234
Mof_H 	H 	0.0519	0.973	0.6583	0.232
Mof_C 	C 	0.9094	0.6339	0.7344	-0.032
Mof_C 	C 	0.9384	0.571	0.762	0.344
Mof_C 	C 	0.9583	0.6837	0.7085	-0.128
Mof_C 	C 	0.9259	0.7212	0.6531	0.425
Mof_C 	C 	0.9746	0.7238	0.7694	-0.082
Mof_C 	C 	0.0036	0.7918	0.7537	0.385
Mof_C 	C 	0.9119	0.7218	0.8103	-0.04
Mof_C 	C 	0.9258	0.7095	0.882	0.349
Mof_C 	C 	0.5906	0.3661	0.2344	-0.033
Mof_C 	C 	0.5616	0.429	0.262	0.344
Mof_C 	C 	0.5417	0.3163	0.2085	-0.124
Mof_C 	C 	0.5741	0.2788	0.1531	0.423
Mof_C 	C 	0.5254	0.2762	0.2694	-0.093
Mof_C 	C 	0.4964	0.2082	0.2537	0.395
Mof_C 	C 	0.5881	0.2782	0.3103	-0.037
Mof_C 	C 	0.5742	0.2905	0.382	0.348
Mof_C 	C 	0.0906	0.1339	0.7656	-0.033
Mof_C 	C 	0.0616	0.071	0.738	0.344
Mof_C 	C 	0.0417	0.1837	0.7915	-0.125
Mof_C 	C 	0.0741	0.2212	0.8469	0.423
Mof_C 	C 	0.0254	0.2238	0.7306	-0.092
Mof_C 	C 	0.9964	0.2918	0.7463	0.395
Mof_C 	C 	0.0881	0.2218	0.6897	-0.037
Mof_C 	C 	0.0742	0.2095	0.618	0.348
Mof_C 	C 	0.4094	0.8661	0.2656	-0.033
Mof_C 	C 	0.4384	0.929	0.238	0.344
Mof_C 	C 	0.4583	0.8163	0.2915	-0.125
Mof_C 	C 	0.4259	0.7788	0.3469	0.423
Mof_C 	C 	0.4746	0.7762	0.2306	-0.093
Mof_C 	C 	0.5036	0.7082	0.2463	0.395
Mof_C 	C 	0.4119	0.7782	0.1897	-0.037
Mof_C 	C 	0.4258	0.7905	0.118	0.348
Mof_C 	C 	0.7344	0.9094	0.6339	-0.032
Mof_C 	C 	0.762	0.9384	0.571	0.344
Mof_C 	C 	0.7085	0.9583	0.6837	-0.128
Mof_C 	C 	0.6531	0.9259	0.7212	0.425
Mof_C 	C 	0.7694	0.9746	0.7238	-0.082
Mof_C 	C 	0.7537	0.0036	0.7918	0.385
Mof_C 	C 	0.8103	0.9119	0.7218	-0.04
Mof_C 	C 	0.882	0.9258	0.7095	0.349
Mof_C 	C 	0.2344	0.5906	0.3661	-0.033
Mof_C 	C 	0.262	0.5616	0.429	0.344
Mof_C 	C 	0.2085	0.5417	0.3163	-0.124
Mof_C 	C 	0.1531	0.5741	0.2788	0.423
Mof_C 	C 	0.2694	0.5254	0.2762	-0.093
Mof_C 	C 	0.2537	0.4964	0.2082	0.395
Mof_C 	C 	0.3103	0.5881	0.2782	-0.037
Mof_C 	C 	0.382	0.5742	0.2905	0.348
Mof_C 	C 	0.7656	0.0906	0.1339	-0.033
Mof_C 	C 	0.738	0.0616	0.071	0.344
Mof_C 	C 	0.7915	0.0417	0.1837	-0.125
Mof_C 	C 	0.8469	0.0741	0.2212	0.423
Mof_C 	C 	0.7306	0.0254	0.2238	-0.092
Mof_C 	C 	0.7463	0.9964	0.2918	0.395
Mof_C 	C 	0.6897	0.0881	0.2218	-0.037
Mof_C 	C 	0.618	0.0742	0.2095	0.348
Mof_C 	C 	0.2656	0.4094	0.8661	-0.033
Mof_C 	C 	0.238	0.4384	0.929	0.344
Mof_C 	C 	0.2915	0.4583	0.8163	-0.125
Mof_C 	C 	0.3469	0.4259	0.7788	0.423
Mof_C 	C 	0.2306	0.4746	0.7762	-0.093
Mof_C 	C 	0.2463	0.5036	0.7082	0.395
Mof_C 	C 	0.1897	0.4119	0.7782	-0.037
Mof_C 	C 	0.118	0.4258	0.7905	0.348
Mof_C 	C 	0.6339	0.7344	0.9094	-0.032
Mof_C 	C 	0.571	0.762	0.9384	0.344
Mof_C 	C 	0.6837	0.7085	0.9583	-0.128
Mof_C 	C 	0.7212	0.6531	0.9259	0.425
Mof_C 	C 	0.7238	0.7694	0.9746	-0.082
Mof_C 	C 	0.7918	0.7537	0.0036	0.385
Mof_C 	C 	0.7218	0.8103	0.9119	-0.04
Mof_C 	C 	0.7095	0.882	0.9258	0.349
Mof_C 	C 	0.3661	0.2344	0.5906	-0.033
Mof_C 	C 	0.429	0.262	0.5616	0.344
Mof_C 	C 	0.3163	0.2085	0.5417	-0.124
Mof_C 	C 	0.2788	0.1531	0.5741	0.423
Mof_C 	C 	0.2762	0.2694	0.5254	-0.093
Mof_C 	C 	0.2082	0.2537	0.4964	0.395
Mof_C 	C 	0.2782	0.3103	0.5881	-0.037
Mof_C 	C 	0.2905	0.382	0.5742	0.348
Mof_C 	C 	0.1339	0.7656	0.0906	-0.033
Mof_C 	C 	0.071	0.738	0.0616	0.344
Mof_C 	C 	0.1837	0.7915	0.0417	-0.125
Mof_C 	C 	0.2212	0.8469	0.0741	0.423
Mof_C 	C 	0.2238	0.7306	0.0254	-0.092
Mof_C 	C 	0.2918	0.7463	0.9964	0.395
Mof_C 	C 	0.2218	0.6897	0.0881	-0.037
Mof_C 	C 	0.2095	0.618	0.0742	0.348
Mof_C 	C 	0.8661	0.2656	0.4094	-0.033
Mof_C 	C 	0.929	0.238	0.4384	0.344
Mof_C 	C 	0.8163	0.2915	0.4583	-0.125
Mof_C 	C 	0.7788	0.3469	0.4259	0.423
Mof_C 	C 	0.7762	0.2306	0.4746	-0.093
Mof_C 	C 	0.7082	0.2463	0.5036	0.395
Mof_C 	C 	0.7782	0.1897	0.4119	-0.037
Mof_C 	C 	0.7905	0.118	0.4258	0.348
Mof_C 	C 	0.0906	0.3661	0.2656	-0.032
Mof_C 	C 	0.0616	0.429	0.238	0.344
Mof_C 	C 	0.0417	0.3163	0.2915	-0.128
Mof_C 	C 	0.0741	0.2788	0.3469	0.425
Mof_C 	C 	0.0254	0.2762	0.2306	-0.082
Mof_C 	C 	0.9964	0.2082	0.2463	0.385
Mof_C 	C 	0.0881	0.2782	0.1897	-0.04
Mof_C 	C 	0.0742	0.2905	0.118	0.349
Mof_C 	C 	0.4094	0.6339	0.7656	-0.033
Mof_C 	C 	0.4384	0.571	0.738	0.344
Mof_C 	C 	0.4583	0.6837	0.7915	-0.124
Mof_C 	C 	0.4259	0.7212	0.8469	0.423
Mof_C 	C 	0.4746	0.7238	0.7306	-0.093
Mof_C 	C 	0.5036	0.7918	0.7463	0.395
Mof_C 	C 	0.4119	0.7218	0.6897	-0.037
Mof_C 	C 	0.4258	0.7095	0.618	0.348
Mof_C 	C 	0.9094	0.8661	0.2344	-0.033
Mof_C 	C 	0.9384	0.929	0.262	0.344
Mof_C 	C 	0.9583	0.8163	0.2085	-0.125
Mof_C 	C 	0.9259	0.7788	0.1531	0.423
Mof_C 	C 	0.9746	0.7762	0.2694	-0.092
Mof_C 	C 	0.0036	0.7082	0.2537	0.395
Mof_C 	C 	0.9119	0.7782	0.3103	-0.037
Mof_C 	C 	0.9258	0.7905	0.382	0.348
Mof_C 	C 	0.5906	0.1339	0.7344	-0.033
Mof_C 	C 	0.5616	0.071	0.762	0.344
Mof_C 	C 	0.5417	0.1837	0.7085	-0.125
Mof_C 	C 	0.5741	0.2212	0.6531	0.423
Mof_C 	C 	0.5254	0.2238	0.7694	-0.093
Mof_C 	C 	0.4964	0.2918	0.7537	0.395
Mof_C 	C 	0.5881	0.2218	0.8103	-0.037
Mof_C 	C 	0.5742	0.2095	0.882	0.348
Mof_C 	C 	0.2656	0.0906	0.3661	-0.032
Mof_C 	C 	0.238	0.0616	0.429	0.344
Mof_C 	C 	0.2915	0.0417	0.3163	-0.128
Mof_C 	C 	0.3469	0.0741	0.2788	0.425
Mof_C 	C 	0.2306	0.0254	0.2762	-0.082
Mof_C 	C 	0.2463	0.9964	0.2082	0.385
Mof_C 	C 	0.1897	0.0881	0.2782	-0.04
Mof_C 	C 	0.118	0.0742	0.2905	0.349
Mof_C 	C 	0.7656	0.4094	0.6339	-0.033
Mof_C 	C 	0.738	0.4384	0.571	0.344
Mof_C 	C 	0.7915	0.4583	0.6837	-0.124
Mof_C 	C 	0.8469	0.4259	0.7212	0.423
Mof_C 	C 	0.7306	0.4746	0.7238	-0.093
Mof_C 	C 	0.7463	0.5036	0.7918	0.395
Mof_C 	C 	0.6897	0.4119	0.7218	-0.037
Mof_C 	C 	0.618	0.4258	0.7095	0.348
Mof_C 	C 	0.2344	0.9094	0.8661	-0.033
Mof_C 	C 	0.262	0.9384	0.929	0.344
Mof_C 	C 	0.2085	0.9583	0.8163	-0.125
Mof_C 	C 	0.1531	0.9259	0.7788	0.423
Mof_C 	C 	0.2694	0.9746	0.7762	-0.092
Mof_C 	C 	0.2537	0.0036	0.7082	0.395
Mof_C 	C 	0.3103	0.9119	0.7782	-0.037
Mof_C 	C 	0.382	0.9258	0.7905	0.348
Mof_C 	C 	0.7344	0.5906	0.1339	-0.033
Mof_C 	C 	0.762	0.5616	0.071	0.344
Mof_C 	C 	0.7085	0.5417	0.1837	-0.125
Mof_C 	C 	0.6531	0.5741	0.2212	0.423
Mof_C 	C 	0.7694	0.5254	0.2238	-0.093
Mof_C 	C 	0.7537	0.4964	0.2918	0.395
Mof_C 	C 	0.8103	0.5881	0.2218	-0.037
Mof_C 	C 	0.882	0.5742	0.2095	0.348
Mof_C 	C 	0.3661	0.2656	0.0906	-0.032
Mof_C 	C 	0.429	0.238	0.0616	0.344
Mof_C 	C 	0.3163	0.2915	0.0417	-0.128
Mof_C 	C 	0.2788	0.3469	0.0741	0.425
Mof_C 	C 	0.2762	0.2306	0.0254	-0.082
Mof_C 	C 	0.2082	0.2463	0.9964	0.385
Mof_C 	C 	0.2782	0.1897	0.0881	-0.04
Mof_C 	C 	0.2905	0.118	0.0742	0.349
Mof_C 	C 	0.6339	0.7656	0.4094	-0.033
Mof_C 	C 	0.571	0.738	0.4384	0.344
Mof_C 	C 	0.6837	0.7915	0.4583	-0.124
Mof_C 	C 	0.7212	0.8469	0.4259	0.423
Mof_C 	C 	0.7238	0.7306	0.4746	-0.093
Mof_C 	C 	0.7918	0.7463	0.5036	0.395
Mof_C 	C 	0.7218	0.6897	0.4119	-0.037
Mof_C 	C 	0.7095	0.618	0.4258	0.348
Mof_C 	C 	0.8661	0.2344	0.9094	-0.033
Mof_C 	C 	0.929	0.262	0.9384	0.344
Mof_C 	C 	0.8163	0.2085	0.9583	-0.125
Mof_C 	C 	0.7788	0.1531	0.9259	0.423
Mof_C 	C 	0.7762	0.2694	0.9746	-0.092
Mof_C 	C 	0.7082	0.2537	0.0036	0.395
Mof_C 	C 	0.7782	0.3103	0.9119	-0.037
Mof_C 	C 	0.7905	0.382	0.9258	0.348
Mof_C 	C 	0.1339	0.7344	0.5906	-0.033
Mof_C 	C 	0.071	0.762	0.5616	0.344
Mof_C 	C 	0.1837	0.7085	0.5417	-0.125
Mof_C 	C 	0.2212	0.6531	0.5741	0.423
Mof_C 	C 	0.2238	0.7694	0.5254	-0.093
Mof_C 	C 	0.2918	0.7537	0.4964	0.395
Mof_C 	C 	0.2218	0.8103	0.5881	-0.037
Mof_C 	C 	0.2095	0.882	0.5742	0.348
Mof_O 	O 	0.8729	0.6692	0.7839	-0.26
Mof_O 	O 	0.919	0.5517	0.817	-0.423
Mof_O 	O 	0.9775	0.5416	0.7268	-0.399
Mof_O 	O 	0.9297	0.6946	0.599	-0.473
Mof_O 	O 	0.8966	0.7722	0.6657	-0.432
Mof_O 	O 	0.0507	0.7906	0.7149	-0.437
Mof_O 	O 	0.981	0.8408	0.7818	-0.423
Mof_O 	O 	0.9571	0.7537	0.9106	-0.404
Mof_O 	O 	0.9063	0.6584	0.9082	-0.427
Mof_O 	O 	0.8271	0.5333	0.932	-0.675
Mof_O 	O 	0.6271	0.3308	0.2839	-0.26
Mof_O 	O 	0.581	0.4483	0.317	-0.423
Mof_O 	O 	0.5225	0.4584	0.2268	-0.4
Mof_O 	O 	0.5703	0.3054	0.099	-0.473
Mof_O 	O 	0.6034	0.2278	0.1657	-0.432
Mof_O 	O 	0.4493	0.2094	0.2149	-0.439
Mof_O 	O 	0.519	0.1592	0.2818	-0.429
Mof_O 	O 	0.5429	0.2463	0.4106	-0.406
Mof_O 	O 	0.5937	0.3416	0.4082	-0.427
Mof_O 	O 	0.6729	0.4667	0.432	-0.675
Mof_O 	O 	0.1271	0.1692	0.7161	-0.26
Mof_O 	O 	0.081	0.0517	0.683	-0.422
Mof_O 	O 	0.0225	0.0416	0.7732	-0.4
Mof_O 	O 	0.0703	0.1946	0.901	-0.474
Mof_O 	O 	0.1034	0.2722	0.8343	-0.432
Mof_O 	O 	0.9493	0.2906	0.7851	-0.439
Mof_O 	O 	0.019	0.3408	0.7182	-0.429
Mof_O 	O 	0.0429	0.2537	0.5894	-0.405
Mof_O 	O 	0.0937	0.1584	0.5918	-0.427
Mof_O 	O 	0.1729	0.0333	0.568	-0.673
Mof_O 	O 	0.3729	0.8308	0.2161	-0.26
Mof_O 	O 	0.419	0.9483	0.183	-0.424
Mof_O 	O 	0.4775	0.9584	0.2732	-0.401
Mof_O 	O 	0.4297	0.8054	0.401	-0.473
Mof_O 	O 	0.3966	0.7278	0.3343	-0.432
Mof_O 	O 	0.5507	0.7094	0.2851	-0.439
Mof_O 	O 	0.481	0.6592	0.2182	-0.429
Mof_O 	O 	0.4571	0.7463	0.0894	-0.406
Mof_O 	O 	0.4063	0.8416	0.0918	-0.428
Mof_O 	O 	0.3271	0.9667	0.068	-0.678
Mof_O 	O 	0.7839	0.8729	0.6692	-0.26
Mof_O 	O 	0.817	0.919	0.5517	-0.423
Mof_O 	O 	0.7268	0.9775	0.5416	-0.399
Mof_O 	O 	0.599	0.9297	0.6946	-0.473
Mof_O 	O 	0.6657	0.8966	0.7722	-0.432
Mof_O 	O 	0.7149	0.0507	0.7906	-0.437
Mof_O 	O 	0.7818	0.981	0.8408	-0.423
Mof_O 	O 	0.9106	0.9571	0.7537	-0.404
Mof_O 	O 	0.9082	0.9063	0.6584	-0.427
Mof_O 	O 	0.932	0.8271	0.5333	-0.675
Mof_O 	O 	0.2839	0.6271	0.3308	-0.26
Mof_O 	O 	0.317	0.581	0.4483	-0.423
Mof_O 	O 	0.2268	0.5225	0.4584	-0.4
Mof_O 	O 	0.099	0.5703	0.3054	-0.473
Mof_O 	O 	0.1657	0.6034	0.2278	-0.432
Mof_O 	O 	0.2149	0.4493	0.2094	-0.439
Mof_O 	O 	0.2818	0.519	0.1592	-0.429
Mof_O 	O 	0.4106	0.5429	0.2463	-0.406
Mof_O 	O 	0.4082	0.5937	0.3416	-0.427
Mof_O 	O 	0.432	0.6729	0.4667	-0.675
Mof_O 	O 	0.7161	0.1271	0.1692	-0.26
Mof_O 	O 	0.683	0.081	0.0517	-0.422
Mof_O 	O 	0.7732	0.0225	0.0416	-0.4
Mof_O 	O 	0.901	0.0703	0.1946	-0.474
Mof_O 	O 	0.8343	0.1034	0.2722	-0.432
Mof_O 	O 	0.7851	0.9493	0.2906	-0.439
Mof_O 	O 	0.7182	0.019	0.3408	-0.429
Mof_O 	O 	0.5894	0.0429	0.2537	-0.405
Mof_O 	O 	0.5918	0.0937	0.1584	-0.427
Mof_O 	O 	0.568	0.1729	0.0333	-0.673
Mof_O 	O 	0.2161	0.3729	0.8308	-0.26
Mof_O 	O 	0.183	0.419	0.9483	-0.424
Mof_O 	O 	0.2732	0.4775	0.9584	-0.401
Mof_O 	O 	0.401	0.4297	0.8054	-0.473
Mof_O 	O 	0.3343	0.3966	0.7278	-0.432
Mof_O 	O 	0.2851	0.5507	0.7094	-0.439
Mof_O 	O 	0.2182	0.481	0.6592	-0.429
Mof_O 	O 	0.0894	0.4571	0.7463	-0.406
Mof_O 	O 	0.0918	0.4063	0.8416	-0.428
Mof_O 	O 	0.068	0.3271	0.9667	-0.678
Mof_O 	O 	0.6692	0.7839	0.8729	-0.26
Mof_O 	O 	0.5517	0.817	0.919	-0.423
Mof_O 	O 	0.5416	0.7268	0.9775	-0.399
Mof_O 	O 	0.6946	0.599	0.9297	-0.473
Mof_O 	O 	0.7722	0.6657	0.8966	-0.432
Mof_O 	O 	0.7906	0.7149	0.0507	-0.437
Mof_O 	O 	0.8408	0.7818	0.981	-0.423
Mof_O 	O 	0.7537	0.9106	0.9571	-0.404
Mof_O 	O 	0.6584	0.9082	0.9063	-0.427
Mof_O 	O 	0.5333	0.932	0.8271	-0.675
Mof_O 	O 	0.3308	0.2839	0.6271	-0.26
Mof_O 	O 	0.4483	0.317	0.581	-0.423
Mof_O 	O 	0.4584	0.2268	0.5225	-0.4
Mof_O 	O 	0.3054	0.099	0.5703	-0.473
Mof_O 	O 	0.2278	0.1657	0.6034	-0.432
Mof_O 	O 	0.2094	0.2149	0.4493	-0.439
Mof_O 	O 	0.1592	0.2818	0.519	-0.429
Mof_O 	O 	0.2463	0.4106	0.5429	-0.406
Mof_O 	O 	0.3416	0.4082	0.5937	-0.427
Mof_O 	O 	0.4667	0.432	0.6729	-0.675
Mof_O 	O 	0.1692	0.7161	0.1271	-0.26
Mof_O 	O 	0.0517	0.683	0.081	-0.422
Mof_O 	O 	0.0416	0.7732	0.0225	-0.4
Mof_O 	O 	0.1946	0.901	0.0703	-0.474
Mof_O 	O 	0.2722	0.8343	0.1034	-0.432
Mof_O 	O 	0.2906	0.7851	0.9493	-0.439
Mof_O 	O 	0.3408	0.7182	0.019	-0.429
Mof_O 	O 	0.2537	0.5894	0.0429	-0.405
Mof_O 	O 	0.1584	0.5918	0.0937	-0.427
Mof_O 	O 	0.0333	0.568	0.1729	-0.673
Mof_O 	O 	0.8308	0.2161	0.3729	-0.26
Mof_O 	O 	0.9483	0.183	0.419	-0.424
Mof_O 	O 	0.9584	0.2732	0.4775	-0.401
Mof_O 	O 	0.8054	0.401	0.4297	-0.473
Mof_O 	O 	0.7278	0.3343	0.3966	-0.432
Mof_O 	O 	0.7094	0.2851	0.5507	-0.439
Mof_O 	O 	0.6592	0.2182	0.481	-0.429
Mof_O 	O 	0.7463	0.0894	0.4571	-0.406
Mof_O 	O 	0.8416	0.0918	0.4063	-0.428
Mof_O 	O 	0.9667	0.068	0.3271	-0.678
Mof_O 	O 	0.1271	0.3308	0.2161	-0.26
Mof_O 	O 	0.081	0.4483	0.183	-0.423
Mof_O 	O 	0.0225	0.4584	0.2732	-0.399
Mof_O 	O 	0.0703	0.3054	0.401	-0.473
Mof_O 	O 	0.1034	0.2278	0.3343	-0.432
Mof_O 	O 	0.9493	0.2094	0.2851	-0.437
Mof_O 	O 	0.019	0.1592	0.2182	-0.423
Mof_O 	O 	0.0429	0.2463	0.0894	-0.404
Mof_O 	O 	0.0937	0.3416	0.0918	-0.427
Mof_O 	O 	0.1729	0.4667	0.068	-0.675
Mof_O 	O 	0.3729	0.6692	0.7161	-0.26
Mof_O 	O 	0.419	0.5517	0.683	-0.423
Mof_O 	O 	0.4775	0.5416	0.7732	-0.4
Mof_O 	O 	0.4297	0.6946	0.901	-0.473
Mof_O 	O 	0.3966	0.7722	0.8343	-0.432
Mof_O 	O 	0.5507	0.7906	0.7851	-0.439
Mof_O 	O 	0.481	0.8408	0.7182	-0.429
Mof_O 	O 	0.4571	0.7537	0.5894	-0.406
Mof_O 	O 	0.4063	0.6584	0.5918	-0.427
Mof_O 	O 	0.3271	0.5333	0.568	-0.675
Mof_O 	O 	0.8729	0.8308	0.2839	-0.26
Mof_O 	O 	0.919	0.9483	0.317	-0.422
Mof_O 	O 	0.9775	0.9584	0.2268	-0.4
Mof_O 	O 	0.9297	0.8054	0.099	-0.474
Mof_O 	O 	0.8966	0.7278	0.1657	-0.432
Mof_O 	O 	0.0507	0.7094	0.2149	-0.439
Mof_O 	O 	0.981	0.6592	0.2818	-0.429
Mof_O 	O 	0.9571	0.7463	0.4106	-0.405
Mof_O 	O 	0.9063	0.8416	0.4082	-0.427
Mof_O 	O 	0.8271	0.9667	0.432	-0.673
Mof_O 	O 	0.6271	0.1692	0.7839	-0.26
Mof_O 	O 	0.581	0.0517	0.817	-0.424
Mof_O 	O 	0.5225	0.0416	0.7268	-0.401
Mof_O 	O 	0.5703	0.1946	0.599	-0.473
Mof_O 	O 	0.6034	0.2722	0.6657	-0.432
Mof_O 	O 	0.4493	0.2906	0.7149	-0.439
Mof_O 	O 	0.519	0.3408	0.7818	-0.429
Mof_O 	O 	0.5429	0.2537	0.9106	-0.406
Mof_O 	O 	0.5937	0.1584	0.9082	-0.428
Mof_O 	O 	0.6729	0.0333	0.932	-0.678
Mof_O 	O 	0.2161	0.1271	0.3308	-0.26
Mof_O 	O 	0.183	0.081	0.4483	-0.423
Mof_O 	O 	0.2732	0.0225	0.4584	-0.399
Mof_O 	O 	0.401	0.0703	0.3054	-0.473
Mof_O 	O 	0.3343	0.1034	0.2278	-0.432
Mof_O 	O 	0.2851	0.9493	0.2094	-0.437
Mof_O 	O 	0.2182	0.019	0.1592	-0.423
Mof_O 	O 	0.0894	0.0429	0.2463	-0.404
Mof_O 	O 	0.0918	0.0937	0.3416	-0.427
Mof_O 	O 	0.068	0.1729	0.4667	-0.675
Mof_O 	O 	0.7161	0.3729	0.6692	-0.26
Mof_O 	O 	0.683	0.419	0.5517	-0.423
Mof_O 	O 	0.7732	0.4775	0.5416	-0.4
Mof_O 	O 	0.901	0.4297	0.6946	-0.473
Mof_O 	O 	0.8343	0.3966	0.7722	-0.432
Mof_O 	O 	0.7851	0.5507	0.7906	-0.439
Mof_O 	O 	0.7182	0.481	0.8408	-0.429
Mof_O 	O 	0.5894	0.4571	0.7537	-0.406
Mof_O 	O 	0.5918	0.4063	0.6584	-0.427
Mof_O 	O 	0.568	0.3271	0.5333	-0.675
Mof_O 	O 	0.2839	0.8729	0.8308	-0.26
Mof_O 	O 	0.317	0.919	0.9483	-0.422
Mof_O 	O 	0.2268	0.9775	0.9584	-0.4
Mof_O 	O 	0.099	0.9297	0.8054	-0.474
Mof_O 	O 	0.1657	0.8966	0.7278	-0.432
Mof_O 	O 	0.2149	0.0507	0.7094	-0.439
Mof_O 	O 	0.2818	0.981	0.6592	-0.429
Mof_O 	O 	0.4106	0.9571	0.7463	-0.405
Mof_O 	O 	0.4082	0.9063	0.8416	-0.427
Mof_O 	O 	0.432	0.8271	0.9667	-0.673
Mof_O 	O 	0.7839	0.6271	0.1692	-0.26
Mof_O 	O 	0.817	0.581	0.0517	-0.424
Mof_O 	O 	0.7268	0.5225	0.0416	-0.401
Mof_O 	O 	0.599	0.5703	0.1946	-0.473
Mof_O 	O 	0.6657	0.6034	0.2722	-0.432
Mof_O 	O 	0.7149	0.4493	0.2906	-0.439
Mof_O 	O 	0.7818	0.519	0.3408	-0.429
Mof_O 	O 	0.9106	0.5429	0.2537	-0.406
Mof_O 	O 	0.9082	0.5937	0.1584	-0.428
Mof_O 	O 	0.932	0.6729	0.0333	-0.678
Mof_O 	O 	0.3308	0.2161	0.1271	-0.26
Mof_O 	O 	0.4483	0.183	0.081	-0.423
Mof_O 	O 	0.4584	0.2732	0.0225	-0.399
Mof_O 	O 	0.3054	0.401	0.0703	-0.473
Mof_O 	O 	0.2278	0.3343	0.1034	-0.432
Mof_O 	O 	0.2094	0.2851	0.9493	-0.437
Mof_O 	O 	0.1592	0.2182	0.019	-0.423
Mof_O 	O 	0.2463	0.0894	0.0429	-0.404
Mof_O 	O 	0.3416	0.0918	0.0937	-0.427
Mof_O 	O 	0.4667	0.068	0.1729	-0.675
Mof_O 	O 	0.6692	0.7161	0.3729	-0.26
Mof_O 	O 	0.5517	0.683	0.419	-0.423
Mof_O 	O 	0.5416	0.7732	0.4775	-0.4
Mof_O 	O 	0.6946	0.901	0.4297	-0.473
Mof_O 	O 	0.7722	0.8343	0.3966	-0.432
Mof_O 	O 	0.7906	0.7851	0.5507	-0.439
Mof_O 	O 	0.8408	0.7182	0.481	-0.429
Mof_O 	O 	0.7537	0.5894	0.4571	-0.406
Mof_O 	O 	0.6584	0.5918	0.4063	-0.427
Mof_O 	O 	0.5333	0.568	0.3271	-0.675
Mof_O 	O 	0.8308	0.2839	0.8729	-0.26
Mof_O 	O 	0.9483	0.317	0.919	-0.422
Mof_O 	O 	0.9584	0.2268	0.9775	-0.4
Mof_O 	O 	0.8054	0.099	0.9297	-0.474
Mof_O 	O 	0.7278	0.1657	0.8966	-0.432
Mof_O 	O 	0.7094	0.2149	0.0507	-0.439
Mof_O 	O 	0.6592	0.2818	0.981	-0.429
Mof_O 	O 	0.7463	0.4106	0.9571	-0.405
Mof_O 	O 	0.8416	0.4082	0.9063	-0.427
Mof_O 	O 	0.9667	0.432	0.8271	-0.673
Mof_O 	O 	0.1692	0.7839	0.6271	-0.26
Mof_O 	O 	0.0517	0.817	0.581	-0.424
Mof_O 	O 	0.0416	0.7268	0.5225	-0.401
Mof_O 	O 	0.1946	0.599	0.5703	-0.473
Mof_O 	O 	0.2722	0.6657	0.6034	-0.432
Mof_O 	O 	0.2906	0.7149	0.4493	-0.439
Mof_O 	O 	0.3408	0.7818	0.519	-0.429
Mof_O 	O 	0.2537	0.9106	0.5429	-0.406
Mof_O 	O 	0.1584	0.9082	0.5937	-0.428
Mof_O 	O 	0.0333	0.932	0.6729	-0.678
_end
