data_functionalizedCrystal
_audit_creation_method	'EQeq! by Chris Wilmer'
_symmetry_space_group_name_H-M	'P1'
_symmetry_Int_Tables_number	1
_symmetry_cell_setting	triclinic
loop_
_symmetry_equiv_pos_as_xyz
  x,y,z
_cell_length_a	28.642
_cell_length_b	13.1862
_cell_length_c	8.5395
_cell_angle_alpha	90
_cell_angle_beta	91.66
_cell_angle_gamma	90
loop_
_atom_site_label
_atom_site_type_symbol
_atom_site_fract_x
_atom_site_fract_y
_atom_site_fract_z
_atom_site_charge
Mof_C 	C 	0.34606	0.9738	0.3393	0.046
Mof_H 	H 	0.3233	0.0099	0.3914	0.028
Mof_C 	C 	0.38013	0.0272	0.263	-0.074
Mof_H 	H 	0.38	0.0977	0.2639	0.058
Mof_C 	C 	0.41442	0.9753	0.1852	-0.037
Mof_C 	C 	0.41183	0.8708	0.1841	-0.068
Mof_H 	H 	0.4339	0.8328	0.1318	0.041
Mof_C 	C 	0.37645	0.8231	0.261	0.023
Mof_H 	H 	0.3748	0.7527	0.2569	0.017
Mof_C 	C 	0.45244	0.0304	0.1032	0.255
Mof_C 	C 	0.45207	0.1425	0.108	-0.767
Mof_H 	H 	0.4781	0.1682	0.0518	0.255
Mof_H 	H 	0.4544	0.1649	0.2149	0.245
Mof_H 	H 	0.4235	0.1671	0.0605	0.259
Mof_C 	C 	0.21016	0.7654	0.2318	0.485
Mof_C 	C 	0.18721	0.7889	0.0744	-0.572
Mof_H 	H 	0.1536	0.7911	0.0853	0.2
Mof_H 	H 	0.1942	0.7349	0.0015	0.221
Mof_C 	C 	0.20374	0.8901	0.0076	0.349
Mof_H 	H 	0.2369	0.886	0.9882	-0.053
Mof_H 	H 	0.1875	0.9027	0.9083	-0.077
Mof_C 	C 	0.19484	0.9783	0.1196	-0.562
Mof_H 	H 	0.1614	0.985	0.1312	0.199
Mof_H 	H 	0.2084	0.9614	0.2216	0.216
Mof_C 	C 	0.21414	0.0803	0.0696	0.494
Mof_N 	N 	0.34433	0.8731	0.3416	-0.179
Mof_N 	N 	0.48203	0.9735	0.0369	-0.144
Mof_O 	O 	0.18559	0.7219	0.3329	-0.445
Mof_O 	O 	0.18905	0.1562	0.0902	-0.452
Mof_O 	O 	0.252	0.7916	0.2527	-0.448
Mof_O 	O 	0.25419	0.0812	0.0139	-0.444
Mof_Cu	Cu	0.28809	0.79465	0.45252	0.917
Mof_C 	C 	0.84606	0.4738	0.3393	0.047
Mof_H 	H 	0.8233	0.5099	0.3914	0.029
Mof_C 	C 	0.88013	0.5272	0.263	-0.072
Mof_H 	H 	0.88	0.5977	0.2639	0.059
Mof_C 	C 	0.91442	0.4753	0.1852	-0.036
Mof_C 	C 	0.91183	0.3708	0.1841	-0.067
Mof_H 	H 	0.9339	0.3328	0.1318	0.042
Mof_C 	C 	0.87645	0.3231	0.261	0.024
Mof_H 	H 	0.8748	0.2527	0.2569	0.018
Mof_C 	C 	0.95244	0.5304	0.1032	0.256
Mof_C 	C 	0.95207	0.6425	0.108	-0.766
Mof_H 	H 	0.9781	0.6682	0.0518	0.256
Mof_H 	H 	0.9544	0.6649	0.2149	0.246
Mof_H 	H 	0.9235	0.6671	0.0605	0.26
Mof_C 	C 	0.71016	0.2654	0.2318	0.485
Mof_C 	C 	0.68721	0.2889	0.0744	-0.572
Mof_H 	H 	0.6536	0.2911	0.0853	0.2
Mof_H 	H 	0.6942	0.2349	0.0015	0.221
Mof_C 	C 	0.70374	0.3901	0.0076	0.35
Mof_H 	H 	0.7369	0.386	0.9882	-0.053
Mof_H 	H 	0.6875	0.4027	0.9083	-0.077
Mof_C 	C 	0.69484	0.4783	0.1196	-0.562
Mof_H 	H 	0.6614	0.485	0.1312	0.2
Mof_H 	H 	0.7084	0.4614	0.2216	0.216
Mof_C 	C 	0.71414	0.5803	0.0696	0.494
Mof_N 	N 	0.84433	0.3731	0.3416	-0.179
Mof_N 	N 	0.98203	0.4735	0.0369	-0.144
Mof_O 	O 	0.68559	0.2219	0.3329	-0.445
Mof_O 	O 	0.68905	0.6562	0.0902	-0.452
Mof_O 	O 	0.752	0.2916	0.2527	-0.448
Mof_O 	O 	0.75419	0.5812	0.0139	-0.444
Mof_Cu	Cu	0.78809	0.29465	0.45252	0.917
Mof_C 	C 	0.65394	0.9738	0.1607	0.047
Mof_H 	H 	0.6767	0.0099	0.1086	0.029
Mof_C 	C 	0.61987	0.0272	0.237	-0.073
Mof_H 	H 	0.62	0.0977	0.2361	0.059
Mof_C 	C 	0.58558	0.9753	0.3148	-0.036
Mof_C 	C 	0.58817	0.8708	0.3159	-0.067
Mof_H 	H 	0.5661	0.8328	0.3682	0.042
Mof_C 	C 	0.62355	0.8231	0.239	0.024
Mof_H 	H 	0.6252	0.7527	0.2431	0.018
Mof_C 	C 	0.54756	0.0304	0.3968	0.256
Mof_C 	C 	0.54793	0.1425	0.392	-0.766
Mof_H 	H 	0.5219	0.1682	0.4482	0.256
Mof_H 	H 	0.5456	0.1649	0.2851	0.246
Mof_H 	H 	0.5765	0.1671	0.4395	0.26
Mof_C 	C 	0.78984	0.7654	0.2682	0.485
Mof_C 	C 	0.81279	0.7889	0.4256	-0.572
Mof_H 	H 	0.8464	0.7911	0.4147	0.2
Mof_H 	H 	0.8058	0.7349	0.4985	0.221
Mof_C 	C 	0.79626	0.8901	0.4924	0.35
Mof_H 	H 	0.7631	0.886	0.5118	-0.053
Mof_H 	H 	0.8125	0.9027	0.5917	-0.077
Mof_C 	C 	0.80516	0.9783	0.3804	-0.562
Mof_H 	H 	0.8386	0.985	0.3688	0.2
Mof_H 	H 	0.7916	0.9614	0.2784	0.216
Mof_C 	C 	0.78586	0.0803	0.4304	0.494
Mof_N 	N 	0.65567	0.8731	0.1584	-0.179
Mof_N 	N 	0.51797	0.9735	0.4631	-0.144
Mof_O 	O 	0.81441	0.7219	0.1671	-0.445
Mof_O 	O 	0.81095	0.1562	0.4098	-0.452
Mof_O 	O 	0.748	0.7916	0.2473	-0.448
Mof_O 	O 	0.74581	0.0812	0.4861	-0.444
Mof_Cu	Cu	0.71191	0.79465	0.04748	0.917
Mof_C 	C 	0.15394	0.4738	0.1607	0.047
Mof_H 	H 	0.1767	0.5099	0.1086	0.029
Mof_C 	C 	0.11987	0.5272	0.237	-0.072
Mof_H 	H 	0.12	0.5977	0.2361	0.059
Mof_C 	C 	0.08558	0.4753	0.3148	-0.036
Mof_C 	C 	0.08817	0.3708	0.3159	-0.067
Mof_H 	H 	0.0661	0.3328	0.3682	0.042
Mof_C 	C 	0.12355	0.3231	0.239	0.024
Mof_H 	H 	0.1252	0.2527	0.2431	0.018
Mof_C 	C 	0.04756	0.5304	0.3968	0.256
Mof_C 	C 	0.04793	0.6425	0.392	-0.766
Mof_H 	H 	0.0219	0.6682	0.4482	0.256
Mof_H 	H 	0.0456	0.6649	0.2851	0.246
Mof_H 	H 	0.0765	0.6671	0.4395	0.26
Mof_C 	C 	0.28984	0.2654	0.2682	0.485
Mof_C 	C 	0.31279	0.2889	0.4256	-0.572
Mof_H 	H 	0.3464	0.2911	0.4147	0.2
Mof_H 	H 	0.3058	0.2349	0.4985	0.221
Mof_C 	C 	0.29626	0.3901	0.4924	0.349
Mof_H 	H 	0.2631	0.386	0.5118	-0.053
Mof_H 	H 	0.3125	0.4027	0.5917	-0.077
Mof_C 	C 	0.30516	0.4783	0.3804	-0.562
Mof_H 	H 	0.3386	0.485	0.3688	0.2
Mof_H 	H 	0.2916	0.4614	0.2784	0.216
Mof_C 	C 	0.28586	0.5803	0.4304	0.494
Mof_N 	N 	0.15567	0.3731	0.1584	-0.179
Mof_N 	N 	0.01797	0.4735	0.4631	-0.144
Mof_O 	O 	0.31441	0.2219	0.1671	-0.445
Mof_O 	O 	0.31095	0.6562	0.4098	-0.452
Mof_O 	O 	0.248	0.2916	0.2473	-0.448
Mof_O 	O 	0.24581	0.5812	0.4861	-0.444
Mof_Cu	Cu	0.21191	0.29465	0.04748	0.917
Mof_C 	C 	0.65394	0.0262	0.6607	0.047
Mof_H 	H 	0.6767	0.9901	0.6086	0.029
Mof_C 	C 	0.61987	0.9728	0.737	-0.073
Mof_H 	H 	0.62	0.9023	0.7361	0.059
Mof_C 	C 	0.58558	0.0247	0.8148	-0.036
Mof_C 	C 	0.58817	0.1292	0.8159	-0.067
Mof_H 	H 	0.5661	0.1672	0.8682	0.042
Mof_C 	C 	0.62355	0.1769	0.739	0.024
Mof_H 	H 	0.6252	0.2473	0.7431	0.018
Mof_C 	C 	0.54756	0.9696	0.8968	0.256
Mof_C 	C 	0.54793	0.8575	0.892	-0.766
Mof_H 	H 	0.5219	0.8318	0.9482	0.256
Mof_H 	H 	0.5456	0.8351	0.7851	0.246
Mof_H 	H 	0.5765	0.8329	0.9395	0.26
Mof_C 	C 	0.78984	0.2346	0.7682	0.485
Mof_C 	C 	0.81279	0.2111	0.9256	-0.572
Mof_H 	H 	0.8464	0.2089	0.9147	0.2
Mof_H 	H 	0.8058	0.2651	0.9985	0.221
Mof_C 	C 	0.79626	0.1099	0.9924	0.349
Mof_H 	H 	0.7631	0.114	0.0118	-0.053
Mof_H 	H 	0.8125	0.0973	0.0917	-0.077
Mof_C 	C 	0.80516	0.0217	0.8804	-0.562
Mof_H 	H 	0.8386	0.015	0.8688	0.199
Mof_H 	H 	0.7916	0.0386	0.7784	0.216
Mof_C 	C 	0.78586	0.9197	0.9304	0.494
Mof_N 	N 	0.65567	0.1269	0.6584	-0.179
Mof_N 	N 	0.51797	0.0265	0.9631	-0.144
Mof_O 	O 	0.81441	0.2781	0.6671	-0.445
Mof_O 	O 	0.81095	0.8438	0.9098	-0.452
Mof_O 	O 	0.748	0.2084	0.7473	-0.448
Mof_O 	O 	0.74581	0.9188	0.9861	-0.444
Mof_Cu	Cu	0.71191	0.20535	0.54748	0.917
Mof_C 	C 	0.15394	0.5262	0.6607	0.047
Mof_H 	H 	0.1767	0.4901	0.6086	0.029
Mof_C 	C 	0.11987	0.4728	0.737	-0.072
Mof_H 	H 	0.12	0.4023	0.7361	0.059
Mof_C 	C 	0.08558	0.5247	0.8148	-0.036
Mof_C 	C 	0.08817	0.6292	0.8159	-0.067
Mof_H 	H 	0.0661	0.6672	0.8682	0.042
Mof_C 	C 	0.12355	0.6769	0.739	0.024
Mof_H 	H 	0.1252	0.7473	0.7431	0.018
Mof_C 	C 	0.04756	0.4696	0.8968	0.256
Mof_C 	C 	0.04793	0.3575	0.892	-0.766
Mof_H 	H 	0.0219	0.3318	0.9482	0.256
Mof_H 	H 	0.0456	0.3351	0.7851	0.246
Mof_H 	H 	0.0765	0.3329	0.9395	0.26
Mof_C 	C 	0.28984	0.7346	0.7682	0.485
Mof_C 	C 	0.31279	0.7111	0.9256	-0.572
Mof_H 	H 	0.3464	0.7089	0.9147	0.2
Mof_H 	H 	0.3058	0.7651	0.9985	0.221
Mof_C 	C 	0.29626	0.6099	0.9924	0.35
Mof_H 	H 	0.2631	0.614	0.0118	-0.053
Mof_H 	H 	0.3125	0.5973	0.0917	-0.077
Mof_C 	C 	0.30516	0.5217	0.8804	-0.562
Mof_H 	H 	0.3386	0.515	0.8688	0.2
Mof_H 	H 	0.2916	0.5386	0.7784	0.216
Mof_C 	C 	0.28586	0.4197	0.9304	0.494
Mof_N 	N 	0.15567	0.6269	0.6584	-0.179
Mof_N 	N 	0.01797	0.5265	0.9631	-0.144
Mof_O 	O 	0.31441	0.7781	0.6671	-0.445
Mof_O 	O 	0.31095	0.3438	0.9098	-0.452
Mof_O 	O 	0.248	0.7084	0.7473	-0.448
Mof_O 	O 	0.24581	0.4188	0.9861	-0.444
Mof_Cu	Cu	0.21191	0.70535	0.54748	0.917
Mof_C 	C 	0.34606	0.0262	0.8393	0.047
Mof_H 	H 	0.3233	0.9901	0.8914	0.029
Mof_C 	C 	0.38013	0.9728	0.763	-0.073
Mof_H 	H 	0.38	0.9023	0.7639	0.059
Mof_C 	C 	0.41442	0.0247	0.6852	-0.036
Mof_C 	C 	0.41183	0.1292	0.6841	-0.067
Mof_H 	H 	0.4339	0.1672	0.6318	0.042
Mof_C 	C 	0.37645	0.1769	0.761	0.024
Mof_H 	H 	0.3748	0.2473	0.7569	0.018
Mof_C 	C 	0.45244	0.9696	0.6032	0.256
Mof_C 	C 	0.45207	0.8575	0.608	-0.766
Mof_H 	H 	0.4781	0.8318	0.5518	0.256
Mof_H 	H 	0.4544	0.8351	0.7149	0.246
Mof_H 	H 	0.4235	0.8329	0.5605	0.26
Mof_C 	C 	0.21016	0.2346	0.7318	0.485
Mof_C 	C 	0.18721	0.2111	0.5744	-0.572
Mof_H 	H 	0.1536	0.2089	0.5853	0.2
Mof_H 	H 	0.1942	0.2651	0.5015	0.221
Mof_C 	C 	0.20374	0.1099	0.5076	0.35
Mof_H 	H 	0.2369	0.114	0.4882	-0.053
Mof_H 	H 	0.1875	0.0973	0.4083	-0.077
Mof_C 	C 	0.19484	0.0217	0.6196	-0.562
Mof_H 	H 	0.1614	0.015	0.6312	0.2
Mof_H 	H 	0.2084	0.0386	0.7216	0.216
Mof_C 	C 	0.21414	0.9197	0.5696	0.494
Mof_N 	N 	0.34433	0.1269	0.8416	-0.179
Mof_N 	N 	0.48203	0.0265	0.5369	-0.144
Mof_O 	O 	0.18559	0.2781	0.8329	-0.445
Mof_O 	O 	0.18905	0.8438	0.5902	-0.452
Mof_O 	O 	0.252	0.2084	0.7527	-0.448
Mof_O 	O 	0.25419	0.9188	0.5139	-0.444
Mof_Cu	Cu	0.28809	0.20535	0.95252	0.917
Mof_C 	C 	0.84606	0.5262	0.8393	0.047
Mof_H 	H 	0.8233	0.4901	0.8914	0.029
Mof_C 	C 	0.88013	0.4728	0.763	-0.072
Mof_H 	H 	0.88	0.4023	0.7639	0.059
Mof_C 	C 	0.91442	0.5247	0.6852	-0.036
Mof_C 	C 	0.91183	0.6292	0.6841	-0.067
Mof_H 	H 	0.9339	0.6672	0.6318	0.042
Mof_C 	C 	0.87645	0.6769	0.761	0.024
Mof_H 	H 	0.8748	0.7473	0.7569	0.018
Mof_C 	C 	0.95244	0.4696	0.6032	0.256
Mof_C 	C 	0.95207	0.3575	0.608	-0.766
Mof_H 	H 	0.9781	0.3318	0.5518	0.256
Mof_H 	H 	0.9544	0.3351	0.7149	0.246
Mof_H 	H 	0.9235	0.3329	0.5605	0.26
Mof_C 	C 	0.71016	0.7346	0.7318	0.485
Mof_C 	C 	0.68721	0.7111	0.5744	-0.572
Mof_H 	H 	0.6536	0.7089	0.5853	0.2
Mof_H 	H 	0.6942	0.7651	0.5015	0.221
Mof_C 	C 	0.70374	0.6099	0.5076	0.349
Mof_H 	H 	0.7369	0.614	0.4882	-0.053
Mof_H 	H 	0.6875	0.5973	0.4083	-0.077
Mof_C 	C 	0.69484	0.5217	0.6196	-0.562
Mof_H 	H 	0.6614	0.515	0.6312	0.2
Mof_H 	H 	0.7084	0.5386	0.7216	0.216
Mof_C 	C 	0.71414	0.4197	0.5696	0.494
Mof_N 	N 	0.84433	0.6269	0.8416	-0.179
Mof_N 	N 	0.98203	0.5265	0.5369	-0.144
Mof_O 	O 	0.68559	0.7781	0.8329	-0.445
Mof_O 	O 	0.68905	0.3438	0.5902	-0.452
Mof_O 	O 	0.752	0.7084	0.7527	-0.448
Mof_O 	O 	0.75419	0.4188	0.5139	-0.444
Mof_Cu	Cu	0.78809	0.70535	0.95252	0.917
_end
