data_functionalizedCrystal
_audit_creation_method	'EQeq! by Chris Wilmer'
_symmetry_space_group_name_H-M	'P1'
_symmetry_Int_Tables_number	1
_symmetry_cell_setting	triclinic
loop_
_symmetry_equiv_pos_as_xyz
  x,y,z
_cell_length_a	11.6426
_cell_length_b	5.5574
_cell_length_c	22.8446
_cell_angle_alpha	90
_cell_angle_beta	100.681
_cell_angle_gamma	90
loop_
_atom_site_label
_atom_site_type_symbol
_atom_site_fract_x
_atom_site_fract_y
_atom_site_fract_z
_atom_site_charge
Mof_Ca	Ca	0.63725	0.74145	0.22125	1.572
Mof_S 	S 	0.39739	0.53299	0.10609	0.321
Mof_O 	O 	0.25956	0.58773	0.80892	-0.586
Mof_O 	O 	0.26333	0.97921	0.82817	-0.519
Mof_O 	O 	0.98726	0.97435	0.2469	-0.475
Mof_O 	O 	0.95839	0.57891	0.25634	-0.49
Mof_O 	O 	0.41423	0.27672	0.10967	-0.251
Mof_O 	O 	0.49453	0.69109	0.12907	-0.36
Mof_C 	C 	0.27313	0.7643	0.84464	0.449
Mof_C 	C 	0.2973	0.7097	0.91011	-0.161
Mof_C 	C 	0.26526	0.4891	0.93115	0.054
Mof_H 	H 	0.2253	0.3737	0.9041	0.01
Mof_C 	C 	0.2917	0.438	0.99168	-0.087
Mof_H 	H 	0.269	0.289	0.0065	0.066
Mof_C 	C 	0.35195	0.6083	0.03031	0
Mof_C 	C 	0.38114	0.8321	0.01029	-0.092
Mof_H 	H 	0.4196	0.9488	0.0374	0.083
Mof_C 	C 	0.35291	0.8817	0.94973	0.056
Mof_H 	H 	0.3717	0.0342	0.9353	0.019
Mof_C 	C 	0.28003	0.6068	0.14147	-0.013
Mof_C 	C 	0.19084	0.4386	0.14017	-0.084
Mof_H 	H 	0.1912	0.2927	0.1185	0.065
Mof_C 	C 	0.10135	0.4879	0.17107	0.049
Mof_H 	H 	0.041	0.3733	0.1715	0.009
Mof_C 	C 	0.10016	0.7052	0.20137	-0.155
Mof_C 	C 	0.00677	0.7567	0.23766	0.465
Mof_C 	C 	0.18832	0.8743	0.20036	0.04
Mof_H 	H 	0.1857	0.0243	0.22	0.029
Mof_C 	C 	0.28006	0.8255	0.17088	-0.078
Mof_H 	H 	0.3411	0.9388	0.1709	0.07
Mof_Ca	Ca	0.86275	0.24145	0.27874	1.562
Mof_S 	S 	0.10261	0.03299	0.39391	0.321
Mof_O 	O 	0.24044	0.08773	0.69108	-0.584
Mof_O 	O 	0.23667	0.47921	0.67183	-0.517
Mof_O 	O 	0.51274	0.47435	0.2531	-0.482
Mof_O 	O 	0.54161	0.07891	0.24366	-0.495
Mof_O 	O 	0.08577	0.77672	0.39033	-0.252
Mof_O 	O 	0.00547	0.19109	0.37093	-0.36
Mof_C 	C 	0.22687	0.2643	0.65536	0.448
Mof_C 	C 	0.2027	0.2097	0.58989	-0.158
Mof_C 	C 	0.23474	0.9891	0.56885	0.051
Mof_H 	H 	0.2747	0.8737	0.5959	0.01
Mof_C 	C 	0.2083	0.938	0.50832	-0.089
Mof_H 	H 	0.231	0.789	0.4935	0.067
Mof_C 	C 	0.14805	0.1083	0.46969	0.003
Mof_C 	C 	0.11886	0.3321	0.48971	-0.092
Mof_H 	H 	0.0804	0.4488	0.4626	0.083
Mof_C 	C 	0.14709	0.3817	0.55027	0.057
Mof_H 	H 	0.1283	0.5342	0.5647	0.018
Mof_C 	C 	0.21997	0.1068	0.35853	-0.012
Mof_C 	C 	0.30916	0.9386	0.35983	-0.086
Mof_H 	H 	0.3088	0.7927	0.3815	0.066
Mof_C 	C 	0.39865	0.9879	0.32893	0.053
Mof_H 	H 	0.459	0.8733	0.3285	0.008
Mof_C 	C 	0.39984	0.2052	0.29863	-0.16
Mof_C 	C 	0.49323	0.2567	0.26234	0.473
Mof_C 	C 	0.31168	0.3743	0.29964	0.043
Mof_H 	H 	0.3143	0.5243	0.28	0.028
Mof_C 	C 	0.21994	0.3255	0.32912	-0.08
Mof_H 	H 	0.1589	0.4388	0.3291	0.07
Mof_Ca	Ca	0.36275	0.25855	0.77874	1.572
Mof_S 	S 	0.60261	0.46701	0.89391	0.321
Mof_O 	O 	0.74044	0.41227	0.19108	-0.586
Mof_O 	O 	0.73667	0.02079	0.17183	-0.519
Mof_O 	O 	0.01274	0.02565	0.7531	-0.475
Mof_O 	O 	0.04161	0.42109	0.74366	-0.49
Mof_O 	O 	0.58577	0.72328	0.89033	-0.251
Mof_O 	O 	0.50547	0.30891	0.87093	-0.36
Mof_C 	C 	0.72687	0.2357	0.15536	0.449
Mof_C 	C 	0.7027	0.2903	0.08989	-0.161
Mof_C 	C 	0.73474	0.5109	0.06885	0.054
Mof_H 	H 	0.7747	0.6263	0.0959	0.01
Mof_C 	C 	0.7083	0.562	0.00832	-0.087
Mof_H 	H 	0.731	0.711	0.9935	0.066
Mof_C 	C 	0.64805	0.3917	0.96969	0
Mof_C 	C 	0.61886	0.1679	0.98971	-0.092
Mof_H 	H 	0.5804	0.0512	0.9626	0.083
Mof_C 	C 	0.64709	0.1183	0.05027	0.056
Mof_H 	H 	0.6283	0.9658	0.0647	0.019
Mof_C 	C 	0.71997	0.3932	0.85853	-0.013
Mof_C 	C 	0.80916	0.5614	0.85983	-0.084
Mof_H 	H 	0.8088	0.7073	0.8815	0.065
Mof_C 	C 	0.89865	0.5121	0.82893	0.049
Mof_H 	H 	0.959	0.6267	0.8285	0.009
Mof_C 	C 	0.89984	0.2948	0.79863	-0.155
Mof_C 	C 	0.99323	0.2433	0.76234	0.465
Mof_C 	C 	0.81168	0.1257	0.79964	0.04
Mof_H 	H 	0.8143	0.9757	0.78	0.029
Mof_C 	C 	0.71994	0.1745	0.82912	-0.078
Mof_H 	H 	0.6589	0.0612	0.8291	0.07
Mof_Ca	Ca	0.13725	0.75855	0.72125	1.562
Mof_S 	S 	0.89739	0.96701	0.60609	0.321
Mof_O 	O 	0.75956	0.91227	0.30892	-0.584
Mof_O 	O 	0.76333	0.52079	0.32817	-0.517
Mof_O 	O 	0.48726	0.52565	0.7469	-0.482
Mof_O 	O 	0.45839	0.92109	0.75634	-0.495
Mof_O 	O 	0.91423	0.22328	0.60967	-0.252
Mof_O 	O 	0.99453	0.80891	0.62907	-0.36
Mof_C 	C 	0.77313	0.7357	0.34464	0.448
Mof_C 	C 	0.7973	0.7903	0.41011	-0.158
Mof_C 	C 	0.76526	0.0109	0.43115	0.051
Mof_H 	H 	0.7253	0.1263	0.4041	0.01
Mof_C 	C 	0.7917	0.062	0.49168	-0.089
Mof_H 	H 	0.769	0.211	0.5065	0.067
Mof_C 	C 	0.85195	0.8917	0.53031	0.003
Mof_C 	C 	0.88114	0.6679	0.51029	-0.092
Mof_H 	H 	0.9196	0.5512	0.5374	0.083
Mof_C 	C 	0.85291	0.6183	0.44973	0.057
Mof_H 	H 	0.8717	0.4658	0.4353	0.018
Mof_C 	C 	0.78003	0.8932	0.64147	-0.012
Mof_C 	C 	0.69084	0.0614	0.64017	-0.086
Mof_H 	H 	0.6912	0.2073	0.6185	0.066
Mof_C 	C 	0.60135	0.0121	0.67107	0.053
Mof_H 	H 	0.541	0.1267	0.6715	0.008
Mof_C 	C 	0.60016	0.7948	0.70137	-0.16
Mof_C 	C 	0.50677	0.7433	0.73766	0.473
Mof_C 	C 	0.68832	0.6257	0.70036	0.043
Mof_H 	H 	0.6857	0.4757	0.72	0.028
Mof_C 	C 	0.78006	0.6745	0.67088	-0.08
Mof_H 	H 	0.8411	0.5612	0.6709	0.07
_end
