data_functionalizedCrystal
_audit_creation_method	'EQeq! by Chris Wilmer'
_symmetry_space_group_name_H-M	'P1'
_symmetry_Int_Tables_number	1
_symmetry_cell_setting	triclinic
loop_
_symmetry_equiv_pos_as_xyz
  x,y,z
_cell_length_a	21.155
_cell_length_b	21.155
_cell_length_c	7.6632
_cell_angle_alpha	90
_cell_angle_beta	90
_cell_angle_gamma	120
loop_
_atom_site_label
_atom_site_type_symbol
_atom_site_fract_x
_atom_site_fract_y
_atom_site_fract_z
_atom_site_charge
Mof_O 	O 	0.7601	0.3613	0.0788	-0.541
Mof_O 	O 	0.7582	0.2938	0.8519	-0.517
Mof_F 	F 	0.9286	0.2281	0.5916	-0.493
Mof_F 	F 	0.9977	0.1838	0.5304	-0.359
Mof_C 	C 	0.7811	0.3231	0.9942	0.526
Mof_C 	C 	0.8372	0.3105	0.0845	-0.328
Mof_F 	F 	0.9012	0.153	0.3803	-0.394
Mof_C 	C 	0.8653	0.2729	0.9975	0.337
Mof_H 	H 	0.8491	0.2558	0.8853	-0.004
Mof_C 	C 	0.9142	0.3235	0.3299	-0.362
Mof_H 	H 	0.9298	0.3399	0.4429	0.19
Mof_C 	C 	0.9566	0.2101	0.462	0.959
Mof_C 	C 	0.9427	0.286	0.2375	0.41
Mof_C 	C 	0.862	0.3359	0.2497	0.275
Mof_H 	H 	0.8438	0.3617	0.3092	-0.043
Mof_C 	C 	0.9173	0.2602	0.0739	-0.404
Mof_H 	H 	0.935	0.2341	0.0136	0.311
Mof_O 	O 	0.6387	0.3988	0.41213	-0.523
Mof_O 	O 	0.7062	0.4644	0.18523	-0.513
Mof_F 	F 	0.7719	0.7005	0.92493	-0.489
Mof_F 	F 	0.8162	0.8139	0.86373	-0.351
Mof_C 	C 	0.6769	0.458	0.32753	0.483
Mof_C 	C 	0.6895	0.5267	0.41783	-0.273
Mof_F 	F 	0.847	0.7482	0.71363	-0.4
Mof_C 	C 	0.7271	0.5924	0.33083	0.275
Mof_H 	H 	0.7442	0.5933	0.21863	0.012
Mof_C 	C 	0.6765	0.5907	0.66323	-0.35
Mof_H 	H 	0.6601	0.5899	0.77623	0.196
Mof_C 	C 	0.7899	0.7465	0.79533	0.988
Mof_C 	C 	0.714	0.6567	0.57083	0.427
Mof_C 	C 	0.6641	0.5261	0.58303	0.25
Mof_H 	H 	0.6383	0.4821	0.64253	-0.032
Mof_C 	C 	0.7398	0.6571	0.40723	-0.369
Mof_H 	H 	0.7659	0.7009	0.34693	0.31
Mof_O 	O 	0.6012	0.2399	0.74547	-0.517
Mof_O 	O 	0.5356	0.2418	0.51857	-0.508
Mof_F 	F 	0.2995	0.0714	0.25827	-0.488
Mof_F 	F 	0.1861	0.0023	0.19707	-0.333
Mof_C 	C 	0.542	0.2189	0.66087	0.479
Mof_C 	C 	0.4733	0.1628	0.75117	-0.257
Mof_F 	F 	0.2518	0.0988	0.04697	-0.397
Mof_C 	C 	0.4076	0.1347	0.66417	0.268
Mof_H 	H 	0.4067	0.1509	0.55197	0.019
Mof_C 	C 	0.4093	0.0858	0.99657	-0.309
Mof_H 	H 	0.4101	0.0702	0.10957	0.178
Mof_C 	C 	0.2535	0.0434	0.12867	0.984
Mof_C 	C 	0.3433	0.0573	0.90417	0.426
Mof_C 	C 	0.4739	0.138	0.91637	0.23
Mof_H 	H 	0.5179	0.1562	0.97587	-0.018
Mof_C 	C 	0.3429	0.0827	0.74057	-0.357
Mof_H 	H 	0.2991	0.065	0.68027	0.318
Mof_O 	O 	0.2399	0.6387	0.0788	-0.542
Mof_O 	O 	0.2418	0.7062	0.8519	-0.518
Mof_F 	F 	0.0714	0.7719	0.5916	-0.486
Mof_F 	F 	0.0023	0.8162	0.5304	-0.336
Mof_C 	C 	0.2189	0.6769	0.9942	0.535
Mof_C 	C 	0.1628	0.6895	0.0845	-0.344
Mof_F 	F 	0.0988	0.847	0.3803	-0.397
Mof_C 	C 	0.1347	0.7271	0.9975	0.367
Mof_H 	H 	0.1509	0.7442	0.8853	-0.011
Mof_C 	C 	0.0858	0.6765	0.3299	-0.387
Mof_H 	H 	0.0702	0.6601	0.4429	0.213
Mof_C 	C 	0.0434	0.7899	0.462	0.984
Mof_C 	C 	0.0573	0.714	0.2375	0.462
Mof_C 	C 	0.138	0.6641	0.2497	0.302
Mof_H 	H 	0.1562	0.6383	0.3092	-0.049
Mof_C 	C 	0.0827	0.7398	0.0739	-0.433
Mof_H 	H 	0.065	0.7659	0.0136	0.338
Mof_O 	O 	0.3613	0.6012	0.41213	-0.523
Mof_O 	O 	0.2938	0.5356	0.18523	-0.512
Mof_F 	F 	0.2281	0.2995	0.92493	-0.487
Mof_F 	F 	0.1838	0.1861	0.86373	-0.339
Mof_C 	C 	0.3231	0.542	0.32753	0.483
Mof_C 	C 	0.3105	0.4733	0.41783	-0.273
Mof_F 	F 	0.153	0.2518	0.71363	-0.39
Mof_C 	C 	0.2729	0.4076	0.33083	0.275
Mof_H 	H 	0.2558	0.4067	0.21863	0.013
Mof_C 	C 	0.3235	0.4093	0.66323	-0.35
Mof_H 	H 	0.3399	0.4101	0.77623	0.196
Mof_C 	C 	0.2101	0.2535	0.79533	0.986
Mof_C 	C 	0.286	0.3433	0.57083	0.427
Mof_C 	C 	0.3359	0.4739	0.58303	0.25
Mof_H 	H 	0.3617	0.5179	0.64253	-0.032
Mof_C 	C 	0.2602	0.3429	0.40723	-0.369
Mof_H 	H 	0.2341	0.2991	0.34693	0.312
Mof_O 	O 	0.3988	0.7601	0.74547	-0.517
Mof_O 	O 	0.4644	0.7582	0.51857	-0.507
Mof_F 	F 	0.7005	0.9286	0.25827	-0.498
Mof_F 	F 	0.8139	0.9977	0.19707	-0.369
Mof_C 	C 	0.458	0.7811	0.66087	0.471
Mof_C 	C 	0.5267	0.8372	0.75117	-0.243
Mof_F 	F 	0.7482	0.9012	0.04697	-0.404
Mof_C 	C 	0.5924	0.8653	0.66417	0.239
Mof_H 	H 	0.5933	0.8491	0.55197	0.025
Mof_C 	C 	0.5907	0.9142	0.99657	-0.282
Mof_H 	H 	0.5899	0.9298	0.10957	0.153
Mof_C 	C 	0.7465	0.9566	0.12867	0.961
Mof_C 	C 	0.6567	0.9427	0.90417	0.375
Mof_C 	C 	0.5261	0.862	0.91637	0.202
Mof_H 	H 	0.4821	0.8438	0.97587	-0.012
Mof_C 	C 	0.6571	0.9173	0.74057	-0.33
Mof_H 	H 	0.7009	0.935	0.68027	0.29
Mof_O 	O 	0.3613	0.7601	0.25453	-0.525
Mof_O 	O 	0.2938	0.7582	0.48143	-0.507
Mof_F 	F 	0.2281	0.9286	0.74173	-0.495
Mof_F 	F 	0.1838	0.9977	0.80293	-0.358
Mof_C 	C 	0.3231	0.7811	0.33913	0.481
Mof_C 	C 	0.3105	0.8372	0.24883	-0.272
Mof_F 	F 	0.153	0.9012	0.95303	-0.389
Mof_C 	C 	0.2729	0.8653	0.33583	0.263
Mof_H 	H 	0.2558	0.8491	0.44803	0.019
Mof_C 	C 	0.3235	0.9142	0.00343	-0.367
Mof_H 	H 	0.3399	0.9298	0.89043	0.199
Mof_C 	C 	0.2101	0.9566	0.87133	0.97
Mof_C 	C 	0.286	0.9427	0.09583	0.393
Mof_C 	C 	0.3359	0.862	0.08363	0.25
Mof_H 	H 	0.3617	0.8438	0.02413	-0.04
Mof_C 	C 	0.2602	0.9173	0.25943	-0.354
Mof_H 	H 	0.2341	0.935	0.31973	0.298
Mof_O 	O 	0.3988	0.6387	0.9212	-0.494
Mof_O 	O 	0.4644	0.7062	0.1481	-0.496
Mof_F 	F 	0.7005	0.7719	0.4084	-0.496
Mof_F 	F 	0.8139	0.8162	0.4696	-0.357
Mof_C 	C 	0.458	0.6769	0.0058	0.422
Mof_C 	C 	0.5267	0.6895	0.9155	-0.181
Mof_F 	F 	0.7482	0.847	0.6197	-0.4
Mof_C 	C 	0.5924	0.7271	0.0025	0.165
Mof_H 	H 	0.5933	0.7442	0.1147	0.05
Mof_C 	C 	0.5907	0.6765	0.6701	-0.297
Mof_H 	H 	0.5899	0.6601	0.5571	0.174
Mof_C 	C 	0.7465	0.7899	0.538	0.989
Mof_C 	C 	0.6567	0.714	0.7625	0.384
Mof_C 	C 	0.5261	0.6641	0.7503	0.184
Mof_H 	H 	0.4821	0.6383	0.6908	-0.009
Mof_C 	C 	0.6571	0.7398	0.9261	-0.283
Mof_H 	H 	0.7009	0.7659	0.9864	0.288
Mof_O 	O 	0.2399	0.6012	0.58787	-0.519
Mof_O 	O 	0.2418	0.5356	0.81477	-0.501
Mof_F 	F 	0.0714	0.2995	0.07507	-0.491
Mof_F 	F 	0.0023	0.1861	0.13627	-0.334
Mof_C 	C 	0.2189	0.542	0.67247	0.48
Mof_C 	C 	0.1628	0.4733	0.58217	-0.265
Mof_F 	F 	0.0988	0.2518	0.28637	-0.392
Mof_C 	C 	0.1347	0.4076	0.66917	0.272
Mof_H 	H 	0.1509	0.4067	0.78137	0.022
Mof_C 	C 	0.0858	0.4093	0.33677	-0.341
Mof_H 	H 	0.0702	0.4101	0.22377	0.195
Mof_C 	C 	0.0434	0.2535	0.20467	0.984
Mof_C 	C 	0.0573	0.3433	0.42917	0.425
Mof_C 	C 	0.138	0.4739	0.41697	0.245
Mof_H 	H 	0.1562	0.5179	0.35747	-0.029
Mof_C 	C 	0.0827	0.3429	0.59277	-0.36
Mof_H 	H 	0.065	0.2991	0.65307	0.32
Mof_O 	O 	0.6387	0.2399	0.25453	-0.524
Mof_O 	O 	0.7062	0.2418	0.48143	-0.508
Mof_F 	F 	0.7719	0.0714	0.74173	-0.488
Mof_F 	F 	0.8162	0.0023	0.80293	-0.335
Mof_C 	C 	0.6769	0.2189	0.33913	0.488
Mof_C 	C 	0.6895	0.1628	0.24883	-0.284
Mof_F 	F 	0.847	0.0988	0.95303	-0.392
Mof_C 	C 	0.7271	0.1347	0.33583	0.289
Mof_H 	H 	0.7442	0.1509	0.44803	0.013
Mof_C 	C 	0.6765	0.0858	0.00343	-0.386
Mof_H 	H 	0.6601	0.0702	0.89043	0.22
Mof_C 	C 	0.7899	0.0434	0.87133	0.994
Mof_C 	C 	0.714	0.0573	0.09583	0.443
Mof_C 	C 	0.6641	0.138	0.08363	0.273
Mof_H 	H 	0.6383	0.1562	0.02413	-0.043
Mof_C 	C 	0.7398	0.0827	0.25943	-0.379
Mof_H 	H 	0.7659	0.065	0.31973	0.324
Mof_O 	O 	0.6012	0.3613	0.9212	-0.495
Mof_O 	O 	0.5356	0.2938	0.1481	-0.496
Mof_F 	F 	0.2995	0.2281	0.4084	-0.494
Mof_F 	F 	0.1861	0.1838	0.4696	-0.344
Mof_C 	C 	0.542	0.3231	0.0058	0.424
Mof_C 	C 	0.4733	0.3105	0.9155	-0.185
Mof_F 	F 	0.2518	0.153	0.6197	-0.391
Mof_C 	C 	0.4076	0.2729	0.0025	0.17
Mof_H 	H 	0.4067	0.2558	0.1147	0.049
Mof_C 	C 	0.4093	0.3235	0.6701	-0.299
Mof_H 	H 	0.4101	0.3399	0.5571	0.175
Mof_C 	C 	0.2535	0.2101	0.538	0.987
Mof_C 	C 	0.3433	0.286	0.7625	0.386
Mof_C 	C 	0.4739	0.3359	0.7503	0.187
Mof_H 	H 	0.5179	0.3617	0.6908	-0.01
Mof_C 	C 	0.3429	0.2602	0.9261	-0.287
Mof_H 	H 	0.2991	0.2341	0.9864	0.29
Mof_O 	O 	0.7601	0.3988	0.58787	-0.519
Mof_O 	O 	0.7582	0.4644	0.81477	-0.501
Mof_F 	F 	0.9286	0.7005	0.07507	-0.501
Mof_F 	F 	0.9977	0.8139	0.13627	-0.37
Mof_C 	C 	0.7811	0.458	0.67247	0.473
Mof_C 	C 	0.8372	0.5267	0.58217	-0.252
Mof_F 	F 	0.9012	0.7482	0.28637	-0.4
Mof_C 	C 	0.8653	0.5924	0.66917	0.246
Mof_H 	H 	0.8491	0.5933	0.78137	0.027
Mof_C 	C 	0.9142	0.5907	0.33677	-0.32
Mof_H 	H 	0.9298	0.5899	0.22377	0.173
Mof_C 	C 	0.9566	0.7465	0.20467	0.962
Mof_C 	C 	0.9427	0.6567	0.42917	0.377
Mof_C 	C 	0.862	0.5261	0.41697	0.221
Mof_H 	H 	0.8438	0.4821	0.35747	-0.024
Mof_C 	C 	0.9173	0.6571	0.59277	-0.335
Mof_H 	H 	0.935	0.7009	0.65307	0.293
Mof_Zn	Zn	0.70023	0.40046	-0	1.225
Mof_Zn	Zn	0.59954	0.29977	0.33333	1.229
Mof_Zn	Zn	0.70023	0.29977	0.66667	1.231
Mof_Zn	Zn	0.29977	0.59954	-0	1.225
Mof_Zn	Zn	0.40046	0.70023	0.33333	1.229
Mof_Zn	Zn	0.29977	0.70023	0.66667	1.231
Mof_C 	C 	4.35166e-18	0.2731	0.33333	-0.493
Mof_C 	C 	0.7269	0.7269	0.66667	-0.528
Mof_C 	C 	0.2731	0	-0	-0.504
Mof_C 	C 	6.17679e-17	0.7269	0.33333	-0.496
Mof_C 	C 	0.2731	0.2731	0.66667	-0.527
Mof_C 	C 	0.7269	0	-0	-0.505
_end
