data_functionalizedCrystal
_audit_creation_method	'EQeq! by Chris Wilmer'
_symmetry_space_group_name_H-M	'P1'
_symmetry_Int_Tables_number	1
_symmetry_cell_setting	triclinic
loop_
_symmetry_equiv_pos_as_xyz
  x,y,z
_cell_length_a	10.5269
_cell_length_b	10.5269
_cell_length_c	10.7521
_cell_angle_alpha	101.58
_cell_angle_beta	117.555
_cell_angle_gamma	108.813
loop_
_atom_site_label
_atom_site_type_symbol
_atom_site_fract_x
_atom_site_fract_y
_atom_site_fract_z
_atom_site_charge
Mof_Gd	Gd	0.95141	0.39144	0.05111	1.468
Mof_Gd	Gd	0.26045	0.82475	0.78412	1.883
Mof_Gd	Gd	0.15967	0.0997	0.55111	1.846
Mof_Gd	Gd	0.45937	0.52367	0.28412	1.802
Mof_H 	H 	0.903	0.714	0.925	-0.619
Mof_H 	H 	0.32	0.919	0.393	0.134
Mof_H 	H 	0.486	0.868	0.478	0.048
Mof_H 	H 	0.949	0.24	0.777	0.19
Mof_H 	H 	0.672	0.856	0.868	1.313
Mof_H 	H 	0.807	0.92	0.989	0.756
Mof_H 	H 	0.35	0.054	0.03	0.299
Mof_H 	H 	0.324	0.984	0.04	0.517
Mof_H 	H 	0.711	0.022	0.425	-0.597
Mof_H 	H 	0.974	0.073	0.893	0.076
Mof_H 	H 	0.11	0.992	0.978	0.049
Mof_H 	H 	0.037	0.828	0.277	0.21
Mof_H 	H 	0.512	0.196	0.368	1.266
Mof_H 	H 	0.569	0.182	0.489	0.721
Mof_H 	H 	0.476	0.68	0.53	0.312
Mof_H 	H 	0.556	0.716	0.54	0.529
Mof_C 	C 	0.7291	0.5314	0.8349	0.041
Mof_C 	C 	0.8775	0.6666	0.8797	0.818
Mof_C 	C 	0.0224	0.6445	0.9057	0.215
Mof_C 	C 	0.208	0.6868	0.2866	0.457
Mof_C 	C 	0.3422	0.8402	0.418	-0.439
Mof_C 	C 	0.3111	0.8422	0.5405	0.457
Mof_C 	C 	0.6051	0.8017	0.9954	1.361
Mof_C 	C 	0.6933	0.9003	0.9434	-2.821
Mof_C 	C 	0.6669	0.0323	0.9296	1.308
Mof_C 	C 	0.8035	0.1058	0.3349	0.063
Mof_C 	C 	0.7131	0.0022	0.3797	0.79
Mof_C 	C 	0.7612	0.8833	0.4057	0.194
Mof_C 	C 	0.0998	0.0786	0.7866	0.443
Mof_C 	C 	0.0778	0.0758	0.918	-0.281
Mof_C 	C 	0.1983	0.2294	0.0405	0.358
Mof_C 	C 	0.6937	0.3903	0.4954	1.242
Mof_C 	C 	0.5431	0.2501	0.4434	-2.717
Mof_C 	C 	0.3973	0.2627	0.4296	1.282
Mof_O 	O 	0.7436	0.4351	0.8911	-0.308
Mof_O 	O 	0.5929	0.5184	0.7369	-0.173
Mof_O 	O 	0.0518	0.5518	0.9518	-0.301
Mof_O 	O 	0.109	0.7287	0.8711	-0.441
Mof_O 	O 	0.2507	0.5903	0.2546	-0.555
Mof_O 	O 	0.0642	0.6561	0.2221	-0.442
Mof_O 	O 	0.2501	0.916	0.5733	-0.572
Mof_O 	O 	0.3414	0.7546	0.6044	-0.467
Mof_O 	O 	0.8698	0.2587	0.7819	-0.348
Mof_O 	O 	0.4604	0.7606	0.9378	-0.716
Mof_O 	O 	0.6845	0.7603	0.0896	-0.62
Mof_O 	O 	0.5253	0.0182	0.8763	-0.639
Mof_O 	O 	0.7817	0.1437	0.962	-0.718
Mof_O 	O 	0.3928	0.0091	0.0495	-1.11
Mof_O 	O 	0.956	0.1475	0.3911	-0.399
Mof_O 	O 	0.7185	0.144	0.2369	-0.204
Mof_O 	O 	0.9	0.9	0.4518	-0.412
Mof_O 	O 	0.6424	0.7621	0.3711	-0.464
Mof_O 	O 	0.1643	0.0039	0.7546	-0.56
Mof_O 	O 	0.066	0.1579	0.7221	-0.435
Mof_O 	O 	0.1573	0.3232	0.0733	-0.51
Mof_O 	O 	0.3498	0.263	0.1044	-0.46
Mof_O 	O 	0.0232	0.9121	0.2819	-0.368
Mof_O 	O 	0.6772	0.4774	0.4378	-0.708
Mof_O 	O 	0.8293	0.4051	0.5896	-0.545
Mof_O 	O 	0.3581	0.351	0.3763	-0.638
Mof_O 	O 	0.3183	0.1803	0.462	-0.769
Mof_O 	O 	0.5404	0.6567	0.5495	-1.092
_end
