# CIF file generated by openbabel 3.1.0, see https://openbabel.org
data_I
_chemical_name_common 'image0'
_cell_length_a 16.2527
_cell_length_b 12.3588
_cell_length_c 17.4471
_cell_angle_alpha 90
_cell_angle_beta 114.657
_cell_angle_gamma 90
_space_group_name_H-M_alt 'P 1'
_space_group_name_Hall 'P 1'
loop_
    _symmetry_equiv_pos_as_xyz
    x,y,z
loop_
    _atom_site_label
    _atom_site_type_symbol
    _atom_site_fract_x
    _atom_site_fract_y
    _atom_site_fract_z
    _atom_site_occupancy
    Cu1      Cu       0.38111    0.39912    0.12487    1.000
    Cu2      Cu       0.46858    0.33072    0.04226    1.000
    Cu3      Cu       0.92410    0.38380    0.07140    1.000
    N1       N        0.02890    0.37460    0.04950    1.000
    N2       N        0.27410    0.36360    0.02180    1.000
    N3       N        0.35450    0.30730    0.94690    1.000
    N4       N        0.36990    0.18900    0.72650    1.000
    N5       N        0.50420    0.69280    0.38010    1.000
    N6       N        0.49010    0.48770    0.18250    1.000
    N7       N        0.56960    0.42250    0.10820    1.000
    N8       N        0.81350    0.39160    0.08060    1.000
    C1       C        0.09740    0.44080    0.09090    1.000
    H1       H        0.09080    0.49080    0.12780    1.000
    C2       C        0.17800    0.43920    0.08200    1.000
    H2       H        0.22480    0.48590    0.11370    1.000
    C3       C        0.18910    0.36680    0.02480    1.000
    C4       C        0.11720    0.30290    0.98120    1.000
    H3       H        0.12040    0.25420    0.94200    1.000
    C5       C        0.03810    0.30880    0.99410    1.000
    H4       H        0.98970    0.26440    0.96220    1.000
    C6       C        0.27690    0.32410    0.95180    1.000
    H5       H        0.22310    0.30810    0.90570    1.000
    C7       C        0.43740    0.18090    0.80300    1.000
    H6       H        0.49050    0.14730    0.80770    1.000
    C8       C        0.43360    0.21930    0.87580    1.000
    H7       H        0.48360    0.21260    0.92730    1.000
    C9       C        0.35440    0.26830    0.87170    1.000
    C10      C        0.28540    0.28280    0.79090    1.000
    H8       H        0.23290    0.32010    0.78360    1.000
    C11      C        0.29590    0.24140    0.72210    1.000
    H9       H        0.24850    0.25050    0.66920    1.000
    C12      C        0.42970    0.68360    0.30830    1.000
    H10      H        0.37960    0.72490    0.30240    1.000
    C13      C        0.42250    0.61710    0.24280    1.000
    H11      H        0.36880    0.61430    0.19410    1.000
    C14      C        0.49660    0.55350    0.25010    1.000
    C15      C        0.57350    0.55920    0.32600    1.000
    H12      H        0.62390    0.51690    0.33460    1.000
    C16      C        0.57390    0.62810    0.38800    1.000
    H13      H        0.62550    0.63020    0.43850    1.000
    C17      C        0.56400    0.48210    0.16890    1.000
    H14      H        0.61440    0.52190    0.20360    1.000
    C18      C        0.73180    0.37070    0.01710    1.000
    H15      H        0.72950    0.34720    0.96560    1.000
    C19      C        0.65160    0.38320    0.02590    1.000
    H16      H        0.59680    0.36880    0.98040    1.000
    C20      C        0.65250    0.41690    0.10170    1.000
    C21      C        0.73660    0.43470    0.16770    1.000
    H17      H        0.74060    0.45430    0.22060    1.000
    C22      C        0.81370    0.42320    0.15470    1.000
    H18      H        0.86910    0.43800    0.19930    1.000
    Cu4      Cu       0.91140    0.36750    0.04670    1.000
    Cu5      Cu       0.61889    0.89912    0.37513    1.000
    Cu6      Cu       0.53142    0.83072    0.45774    1.000
    Cu7      Cu       0.07590    0.88380    0.42860    1.000
    N9       N        0.97110    0.87460    0.45050    1.000
    N10      N        0.72590    0.86360    0.47820    1.000
    N11      N        0.64550    0.80730    0.55310    1.000
    N12      N        0.63010    0.68900    0.77350    1.000
    N13      N        0.49580    0.19280    0.11990    1.000
    N14      N        0.50990    0.98770    0.31750    1.000
    N15      N        0.43040    0.92250    0.39180    1.000
    N16      N        0.18650    0.89160    0.41940    1.000
    C23      C        0.90260    0.94080    0.40910    1.000
    H19      H        0.90920    0.99080    0.37220    1.000
    C24      C        0.82200    0.93920    0.41800    1.000
    H20      H        0.77520    0.98590    0.38630    1.000
    C25      C        0.81090    0.86680    0.47520    1.000
    C26      C        0.88280    0.80290    0.51880    1.000
    H21      H        0.87960    0.75420    0.55800    1.000
    C27      C        0.96190    0.80880    0.50590    1.000
    H22      H        0.01030    0.76440    0.53780    1.000
    C28      C        0.72310    0.82410    0.54820    1.000
    H23      H        0.77690    0.80810    0.59430    1.000
    C29      C        0.56260    0.68090    0.69700    1.000
    H24      H        0.50950    0.64730    0.69230    1.000
    C30      C        0.56640    0.71930    0.62420    1.000
    H25      H        0.51640    0.71260    0.57270    1.000
    C31      C        0.64560    0.76830    0.62830    1.000
    C32      C        0.71460    0.78280    0.70910    1.000
    H26      H        0.76710    0.82010    0.71640    1.000
    C33      C        0.70410    0.74140    0.77790    1.000
    H27      H        0.75150    0.75050    0.83080    1.000
    C34      C        0.57030    0.18360    0.19170    1.000
    H28      H        0.62040    0.22490    0.19760    1.000
    C35      C        0.57750    0.11710    0.25720    1.000
    H29      H        0.63120    0.11430    0.30590    1.000
    C36      C        0.50340    0.05350    0.24990    1.000
    C37      C        0.42650    0.05920    0.17400    1.000
    H30      H        0.37610    0.01690    0.16540    1.000
    C38      C        0.42610    0.12810    0.11200    1.000
    H31      H        0.37450    0.13020    0.06150    1.000
    C39      C        0.43600    0.98210    0.33110    1.000
    H32      H        0.38560    0.02190    0.29640    1.000
    C40      C        0.26820    0.87070    0.48290    1.000
    H33      H        0.27050    0.84720    0.53440    1.000
    C41      C        0.34840    0.88320    0.47410    1.000
    H34      H        0.40320    0.86880    0.51960    1.000
    C42      C        0.34750    0.91690    0.39830    1.000
    C43      C        0.26340    0.93470    0.33230    1.000
    H35      H        0.25940    0.95430    0.27940    1.000
    C44      C        0.18630    0.92320    0.34530    1.000
    H36      H        0.13090    0.93800    0.30070    1.000
    Cu8      Cu       0.08860    0.86750    0.45330    1.000
    Cu9      Cu       0.61889    0.60088    0.87513    1.000
    Cu10     Cu       0.53142    0.66928    0.95774    1.000
    Cu11     Cu       0.07590    0.61620    0.92860    1.000
    N17      N        0.97110    0.62540    0.95050    1.000
    N18      N        0.72590    0.63640    0.97820    1.000
    N19      N        0.64550    0.69270    0.05310    1.000
    N20      N        0.63010    0.81100    0.27350    1.000
    N21      N        0.49580    0.30720    0.61990    1.000
    N22      N        0.50990    0.51230    0.81750    1.000
    N23      N        0.43040    0.57750    0.89180    1.000
    N24      N        0.18650    0.60840    0.91940    1.000
    C45      C        0.90260    0.55920    0.90910    1.000
    H37      H        0.90920    0.50920    0.87220    1.000
    C46      C        0.82200    0.56080    0.91800    1.000
    H38      H        0.77520    0.51410    0.88630    1.000
    C47      C        0.81090    0.63320    0.97520    1.000
    C48      C        0.88280    0.69710    0.01880    1.000
    H39      H        0.87960    0.74580    0.05800    1.000
    C49      C        0.96190    0.69120    0.00590    1.000
    H40      H        0.01030    0.73560    0.03780    1.000
    C50      C        0.72310    0.67590    0.04820    1.000
    H41      H        0.77690    0.69190    0.09430    1.000
    C51      C        0.56260    0.81910    0.19700    1.000
    H42      H        0.50950    0.85270    0.19230    1.000
    C52      C        0.56640    0.78070    0.12420    1.000
    H43      H        0.51640    0.78740    0.07270    1.000
    C53      C        0.64560    0.73170    0.12830    1.000
    C54      C        0.71460    0.71720    0.20910    1.000
    H44      H        0.76710    0.67990    0.21640    1.000
    C55      C        0.70410    0.75860    0.27790    1.000
    H45      H        0.75150    0.74950    0.33080    1.000
    C56      C        0.57030    0.31640    0.69170    1.000
    H46      H        0.62040    0.27510    0.69760    1.000
    C57      C        0.57750    0.38290    0.75720    1.000
    H47      H        0.63120    0.38570    0.80590    1.000
    C58      C        0.50340    0.44650    0.74990    1.000
    C59      C        0.42650    0.44080    0.67400    1.000
    H48      H        0.37610    0.48310    0.66540    1.000
    C60      C        0.42610    0.37190    0.61200    1.000
    H49      H        0.37450    0.36980    0.56150    1.000
    C61      C        0.43600    0.51790    0.83110    1.000
    H50      H        0.38560    0.47810    0.79640    1.000
    C62      C        0.26820    0.62930    0.98290    1.000
    H51      H        0.27050    0.65280    0.03440    1.000
    C63      C        0.34840    0.61680    0.97410    1.000
    H52      H        0.40320    0.63120    0.01960    1.000
    C64      C        0.34750    0.58310    0.89830    1.000
    C65      C        0.26340    0.56530    0.83230    1.000
    H53      H        0.25940    0.54570    0.77940    1.000
    C66      C        0.18630    0.57680    0.84530    1.000
    H54      H        0.13090    0.56200    0.80070    1.000
    Cu12     Cu       0.08860    0.63250    0.95330    1.000
    Cu13     Cu       0.38111    0.10088    0.62487    1.000
    Cu14     Cu       0.46858    0.16928    0.54226    1.000
    Cu15     Cu       0.92410    0.11620    0.57140    1.000
    N25      N        0.02890    0.12540    0.54950    1.000
    N26      N        0.27410    0.13640    0.52180    1.000
    N27      N        0.35450    0.19270    0.44690    1.000
    N28      N        0.36990    0.31100    0.22650    1.000
    N29      N        0.50420    0.80720    0.88010    1.000
    N30      N        0.49010    0.01230    0.68250    1.000
    N31      N        0.56960    0.07750    0.60820    1.000
    N32      N        0.81350    0.10840    0.58060    1.000
    C67      C        0.09740    0.05920    0.59090    1.000
    H55      H        0.09080    0.00920    0.62780    1.000
    C68      C        0.17800    0.06080    0.58200    1.000
    H56      H        0.22480    0.01410    0.61370    1.000
    C69      C        0.18910    0.13320    0.52480    1.000
    C70      C        0.11720    0.19710    0.48120    1.000
    H57      H        0.12040    0.24580    0.44200    1.000
    C71      C        0.03810    0.19120    0.49410    1.000
    H58      H        0.98970    0.23560    0.46220    1.000
    C72      C        0.27690    0.17590    0.45180    1.000
    H59      H        0.22310    0.19190    0.40570    1.000
    C73      C        0.43740    0.31910    0.30300    1.000
    H60      H        0.49050    0.35270    0.30770    1.000
    C74      C        0.43360    0.28070    0.37580    1.000
    H61      H        0.48360    0.28740    0.42730    1.000
    C75      C        0.35440    0.23170    0.37170    1.000
    C76      C        0.28540    0.21720    0.29090    1.000
    H62      H        0.23290    0.17990    0.28360    1.000
    C77      C        0.29590    0.25860    0.22210    1.000
    H63      H        0.24850    0.24950    0.16920    1.000
    C78      C        0.42970    0.81640    0.80830    1.000
    H64      H        0.37960    0.77510    0.80240    1.000
    C79      C        0.42250    0.88290    0.74280    1.000
    H65      H        0.36880    0.88570    0.69410    1.000
    C80      C        0.49660    0.94650    0.75010    1.000
    C81      C        0.57350    0.94080    0.82600    1.000
    H66      H        0.62390    0.98310    0.83460    1.000
    C82      C        0.57390    0.87190    0.88800    1.000
    H67      H        0.62550    0.86980    0.93850    1.000
    C83      C        0.56400    0.01790    0.66890    1.000
    H68      H        0.61440    0.97810    0.70360    1.000
    C84      C        0.73180    0.12930    0.51710    1.000
    H69      H        0.72950    0.15280    0.46560    1.000
    C85      C        0.65160    0.11680    0.52590    1.000
    H70      H        0.59680    0.13120    0.48040    1.000
    C86      C        0.65250    0.08310    0.60170    1.000
    C87      C        0.73660    0.06530    0.66770    1.000
    H71      H        0.74060    0.04570    0.72060    1.000
    C88      C        0.81370    0.07680    0.65470    1.000
    H72      H        0.86910    0.06200    0.69930    1.000
    Cu16     Cu       0.91140    0.13250    0.54670    1.000
