data_functionalizedCrystal
_audit_creation_method	'EQeq! by Chris Wilmer'
_symmetry_space_group_name_H-M	'P1'
_symmetry_Int_Tables_number	1
_symmetry_cell_setting	triclinic
loop_
_symmetry_equiv_pos_as_xyz
  x,y,z
_cell_length_a	9.8135
_cell_length_b	10.431
_cell_length_c	11.0671
_cell_angle_alpha	76.843
_cell_angle_beta	76.276
_cell_angle_gamma	65.94
loop_
_atom_site_label
_atom_site_type_symbol
_atom_site_fract_x
_atom_site_fract_y
_atom_site_fract_z
_atom_site_charge
Mof_Ho	Ho	0.94486	0.22804	0.82318	1.696
Mof_Ho	Ho	0.05514	0.77196	0.17682	1.696
Mof_H 	H 	0.65	0.8562	0.1491	0.029
Mof_H 	H 	0.5993	0.1162	0.8191	0.039
Mof_H 	H 	0.4361	0.4138	0.708	0.039
Mof_H 	H 	0.7399	0.5026	0.4237	0.052
Mof_H 	H 	0.3083	0.9231	0.5072	0.053
Mof_H 	H 	0.4558	0.1849	0.6042	0.05
Mof_H 	H 	0.35	0.1438	0.8509	0.029
Mof_H 	H 	0.4007	0.8838	0.1809	0.039
Mof_H 	H 	0.5639	0.5862	0.292	0.039
Mof_H 	H 	0.2601	0.4974	0.5763	0.052
Mof_H 	H 	0.6917	0.0769	0.4928	0.053
Mof_H 	H 	0.5442	0.8151	0.3958	0.05
Mof_C 	C 	0.6516	0.9872	0.9832	-0.154
Mof_C 	C 	0.5897	0.915	0.0896	0.005
Mof_C 	C 	0.5592	0.0704	0.8923	-0.005
Mof_C 	C 	0.8097	0.9762	0.9684	0.462
Mof_C 	C 	0.6089	0.4478	0.5804	-0.073
Mof_C 	C 	0.4622	0.4483	0.6242	-0.023
Mof_C 	C 	0.6437	0.5011	0.4548	-0.026
Mof_C 	C 	0.3562	0.0651	0.5675	-0.054
Mof_C 	C 	0.3852	0.9545	0.5046	-0.032
Mof_C 	C 	0.4731	0.1104	0.5623	-0.028
Mof_C 	C 	0.205	0.1322	0.6471	0.307
Mof_C 	C 	0.7234	0.3883	0.6644	0.318
Mof_C 	C 	0.3484	0.0128	0.0168	-0.154
Mof_C 	C 	0.4103	0.085	0.9104	0.005
Mof_C 	C 	0.4408	0.9296	0.1077	-0.005
Mof_C 	C 	0.1903	0.0238	0.0316	0.462
Mof_C 	C 	0.3911	0.5522	0.4196	-0.073
Mof_C 	C 	0.5378	0.5517	0.3758	-0.023
Mof_C 	C 	0.3563	0.4989	0.5452	-0.026
Mof_C 	C 	0.6438	0.9349	0.4325	-0.054
Mof_C 	C 	0.6148	0.0455	0.4954	-0.032
Mof_C 	C 	0.5269	0.8896	0.4377	-0.028
Mof_C 	C 	0.795	0.8678	0.3529	0.307
Mof_C 	C 	0.2766	0.6117	0.3356	0.318
Mof_O 	O 	0.8576	0.0477	0.8725	-0.504
Mof_O 	O 	0.8851	0.8981	0.0523	-0.542
Mof_O 	O 	0.8587	0.375	0.6243	-0.393
Mof_O 	O 	0.1719	0.2479	0.6826	-0.401
Mof_O 	O 	0.1157	0.0651	0.6806	-0.38
Mof_O 	O 	0.6885	0.351	0.7809	-0.435
Mof_O 	O 	0.1424	0.9523	0.1275	-0.504
Mof_O 	O 	0.1149	0.1019	0.9477	-0.542
Mof_O 	O 	0.1413	0.625	0.3757	-0.393
Mof_O 	O 	0.8281	0.7521	0.3174	-0.401
Mof_O 	O 	0.8843	0.9349	0.3194	-0.38
Mof_O 	O 	0.3115	0.649	0.2191	-0.435
_end
