data_functionalizedCrystal
_audit_creation_method	'EQeq! by Chris Wilmer'
_symmetry_space_group_name_H-M	'P1'
_symmetry_Int_Tables_number	1
_symmetry_cell_setting	triclinic
loop_
_symmetry_equiv_pos_as_xyz
  x,y,z
_cell_length_a	9.966
_cell_length_b	9.966
_cell_length_c	20.472
_cell_angle_alpha	90
_cell_angle_beta	90
_cell_angle_gamma	90
loop_
_atom_site_label
_atom_site_type_symbol
_atom_site_fract_x
_atom_site_fract_y
_atom_site_fract_z
_atom_site_charge
Mof_Na	Na	0.9429	0.8529	0.02078	2.619
Mof_Na	Na	0.2768	0.7996	0.02966	1.529
Mof_Na	Na	0.0571	0.1471	0.52078	2.98
Mof_Na	Na	0.7232	0.2004	0.52966	1.875
Mof_Na	Na	0.1471	0.9429	0.77078	3.027
Mof_Na	Na	0.2004	0.2768	0.77966	1.847
Mof_Na	Na	0.8529	0.0571	0.27078	3.015
Mof_Na	Na	0.7996	0.7232	0.27966	1.846
Mof_Co	Co	0.09863	0.78454	0.89562	1.073
Mof_Co	Co	0.90137	0.21546	0.39562	1.069
Mof_Co	Co	0.21546	0.09863	0.64562	1.064
Mof_Co	Co	0.78454	0.90137	0.14562	1.072
Mof_H 	H 	0.6161	0.7814	0.9043	-0.099
Mof_H 	H 	0.3987	0.759	0.7378	-0.128
Mof_H 	H 	0.5972	0.7676	0.6762	0.107
Mof_H 	H 	0.802	0.7896	0.7285	-0.119
Mof_H 	H 	0.1015	0.3235	0.902	-0.152
Mof_H 	H 	0.1159	0.4802	0.0839	-0.031
Mof_H 	H 	0.1345	0.2642	0.1272	0.001
Mof_H 	H 	0.1427	0.0764	0.0575	-0.108
Mof_H 	H 	0.3839	0.2186	0.4043	-0.13
Mof_H 	H 	0.6013	0.241	0.2378	-0.142
Mof_H 	H 	0.4028	0.2324	0.1762	0.111
Mof_H 	H 	0.198	0.2104	0.2285	-0.127
Mof_H 	H 	0.8985	0.6765	0.402	-0.236
Mof_H 	H 	0.8841	0.5198	0.5839	-0.145
Mof_H 	H 	0.8655	0.7358	0.6272	0.11
Mof_H 	H 	0.8573	0.9236	0.5575	-0.228
Mof_H 	H 	0.2186	0.6161	0.6543	-0.13
Mof_H 	H 	0.241	0.3987	0.4878	-0.137
Mof_H 	H 	0.2324	0.5972	0.4262	0.113
Mof_H 	H 	0.2104	0.802	0.4785	-0.13
Mof_H 	H 	0.6765	0.1015	0.652	-0.242
Mof_H 	H 	0.5198	0.1159	0.8339	-0.139
Mof_H 	H 	0.7358	0.1345	0.8772	0.11
Mof_H 	H 	0.9236	0.1427	0.8075	-0.227
Mof_H 	H 	0.7814	0.3839	0.1543	0.022
Mof_H 	H 	0.759	0.6013	0.9878	0.261
Mof_H 	H 	0.7676	0.4028	0.9262	-0.221
Mof_H 	H 	0.7896	0.198	0.9785	0.263
Mof_H 	H 	0.3235	0.8985	0.152	-0.216
Mof_H 	H 	0.4802	0.8841	0.3339	-0.143
Mof_H 	H 	0.2642	0.8655	0.3772	0.104
Mof_H 	H 	0.0764	0.8573	0.3075	-0.231
Mof_C 	C 	0.729	0.7883	0.8211	-0.403
Mof_C 	C 	0.6121	0.7804	0.8579	0.299
Mof_C 	C 	0.4906	0.771	0.8265	-0.411
Mof_C 	C 	0.4832	0.7662	0.759	0.257
Mof_C 	C 	0.6009	0.772	0.7225	-0.348
Mof_C 	C 	0.7219	0.7841	0.7536	0.273
Mof_C 	C 	0.8621	0.8008	0.8554	0.653
Mof_C 	C 	0.3642	0.7706	0.8671	0.614
Mof_C 	C 	0.1237	0.1825	0.9729	-0.223
Mof_C 	C 	0.1099	0.311	0.9478	0.135
Mof_C 	C 	0.1083	0.4219	0.9893	-0.123
Mof_C 	C 	0.1175	0.4046	0.0556	-0.083
Mof_C 	C 	0.1292	0.2763	0.0812	-0.093
Mof_C 	C 	0.1334	0.164	0.0398	-0.053
Mof_C 	C 	0.1248	0.0647	0.9276	0.579
Mof_C 	C 	0.0956	0.5611	0.9623	0.455
Mof_C 	C 	0.271	0.2117	0.3211	-0.441
Mof_C 	C 	0.3879	0.2196	0.3579	0.33
Mof_C 	C 	0.5094	0.229	0.3265	-0.451
Mof_C 	C 	0.5168	0.2338	0.259	0.28
Mof_C 	C 	0.3991	0.228	0.2225	-0.374
Mof_C 	C 	0.2781	0.2159	0.2536	0.295
Mof_C 	C 	0.1379	0.1992	0.3554	0.687
Mof_C 	C 	0.6358	0.2294	0.3671	0.646
Mof_C 	C 	0.8763	0.8175	0.4729	-0.549
Mof_C 	C 	0.8901	0.689	0.4478	0.392
Mof_C 	C 	0.8917	0.5781	0.4893	-0.459
Mof_C 	C 	0.8825	0.5954	0.5556	0.309
Mof_C 	C 	0.8708	0.7237	0.5812	-0.402
Mof_C 	C 	0.8666	0.836	0.5398	0.33
Mof_C 	C 	0.8752	0.9353	0.4276	0.717
Mof_C 	C 	0.9044	0.4389	0.4623	0.584
Mof_C 	C 	0.2117	0.729	0.5711	-0.44
Mof_C 	C 	0.2196	0.6121	0.6079	0.328
Mof_C 	C 	0.229	0.4906	0.5765	-0.449
Mof_C 	C 	0.2338	0.4832	0.509	0.278
Mof_C 	C 	0.228	0.6009	0.4725	-0.375
Mof_C 	C 	0.2159	0.7219	0.5036	0.295
Mof_C 	C 	0.1992	0.8621	0.6054	0.685
Mof_C 	C 	0.2294	0.3642	0.6171	0.642
Mof_C 	C 	0.8175	0.1237	0.7229	-0.555
Mof_C 	C 	0.689	0.1099	0.6978	0.394
Mof_C 	C 	0.5781	0.1083	0.7393	-0.462
Mof_C 	C 	0.5954	0.1175	0.8056	0.306
Mof_C 	C 	0.7237	0.1292	0.8312	-0.396
Mof_C 	C 	0.836	0.1334	0.7898	0.329
Mof_C 	C 	0.9353	0.1248	0.6776	0.726
Mof_C 	C 	0.4389	0.0956	0.7123	0.583
Mof_C 	C 	0.7883	0.271	0.0711	0.056
Mof_C 	C 	0.7804	0.3879	0.1079	-0.135
Mof_C 	C 	0.771	0.5094	0.0765	0.048
Mof_C 	C 	0.7662	0.5168	0.009	-0.66
Mof_C 	C 	0.772	0.3991	0.9725	0.67
Mof_C 	C 	0.7841	0.2781	0.0036	-0.656
Mof_C 	C 	0.8008	0.1379	0.1054	0.496
Mof_C 	C 	0.7706	0.6358	0.1171	0.45
Mof_C 	C 	0.1825	0.8763	0.2229	-0.527
Mof_C 	C 	0.311	0.8901	0.1978	0.369
Mof_C 	C 	0.4219	0.8917	0.2393	-0.448
Mof_C 	C 	0.4046	0.8825	0.3056	0.297
Mof_C 	C 	0.2763	0.8708	0.3312	-0.393
Mof_C 	C 	0.164	0.8666	0.2898	0.312
Mof_C 	C 	0.0647	0.8752	0.1776	0.667
Mof_C 	C 	0.5611	0.9044	0.2123	0.579
Mof_O 	O 	0.8708	0.7978	0.91607	-0.81
Mof_O 	O 	0.9673	0.8109	0.8194	-0.852
Mof_O 	O 	0.3672	0.7579	0.9267	-0.659
Mof_O 	O 	0.2543	0.7873	0.8345	-0.932
Mof_O 	O 	0.1345	0.0835	0.86662	-0.911
Mof_O 	O 	0.1157	0.9479	0.95383	-0.925
Mof_O 	O 	0.0887	0.5749	0.9003	-0.527
Mof_O 	O 	0.0984	0.6616	0.9989	-0.818
Mof_O 	O 	0.1292	0.2022	0.41607	-0.896
Mof_O 	O 	0.0327	0.1891	0.3194	-0.884
Mof_O 	O 	0.6328	0.2421	0.4267	-0.754
Mof_O 	O 	0.7457	0.2127	0.3345	-0.944
Mof_O 	O 	0.8655	0.9165	0.36662	-0.938
Mof_O 	O 	0.8843	0.0521	0.45383	-1.069
Mof_O 	O 	0.9113	0.4251	0.4003	-0.56
Mof_O 	O 	0.9016	0.3384	0.4989	-0.983
Mof_O 	O 	0.2022	0.8708	0.66607	-0.896
Mof_O 	O 	0.1891	0.9673	0.5694	-0.869
Mof_O 	O 	0.2421	0.3672	0.6767	-0.749
Mof_O 	O 	0.2127	0.2543	0.5845	-0.94
Mof_O 	O 	0.9165	0.1345	0.61662	-0.941
Mof_O 	O 	0.0521	0.1157	0.70383	-1.088
Mof_O 	O 	0.4251	0.0887	0.6503	-0.567
Mof_O 	O 	0.3384	0.0984	0.7489	-0.989
Mof_O 	O 	0.7978	0.1292	0.16607	-0.842
Mof_O 	O 	0.8109	0.0327	0.0694	-0.814
Mof_O 	O 	0.7579	0.6328	0.1767	-0.694
Mof_O 	O 	0.7873	0.7457	0.0845	-0.868
Mof_O 	O 	0.0835	0.8655	0.11662	-0.887
Mof_O 	O 	0.9479	0.8843	0.20383	-1.04
Mof_O 	O 	0.5749	0.9113	0.1503	-0.562
Mof_O 	O 	0.6616	0.9016	0.2489	-0.985
_end
