# CIF file generated by openbabel 3.1.0, see https://openbabel.org
data_I
_chemical_name_common 'image0'
_cell_length_a 8.6912
_cell_length_b 10.3935
_cell_length_c 10.818
_cell_angle_alpha 90
_cell_angle_beta 90
_cell_angle_gamma 90
_space_group_name_H-M_alt 'P 1'
_space_group_name_Hall 'P 1'
loop_
    _symmetry_equiv_pos_as_xyz
    x,y,z
loop_
    _atom_site_label
    _atom_site_type_symbol
    _atom_site_fract_x
    _atom_site_fract_y
    _atom_site_fract_z
    _atom_site_occupancy
    Ce1      Ce       0.99235    0.60131    0.38733    1.000
    P1       P        0.84370    0.41600    0.10661    1.000
    P2       P        0.19400    0.41840    0.13898    1.000
    O1       O        0.84650    0.50400    0.21910    1.000
    O2       O        0.72120    0.45830    0.01530    1.000
    O3       O        0.82450    0.27450    0.14100    1.000
    O4       O        0.17860    0.52990    0.23040    1.000
    O5       O        0.17430    0.28510    0.19920    1.000
    O6       O        0.34170    0.42940    0.06490    1.000
    O7       O        0.04750    0.30680    0.95540    1.000
    H1       H        0.97950    0.30530    0.89890    1.000
    C1       C        0.03190    0.42520    0.02960    1.000
    C2       C        0.04220    0.54340    0.94590    1.000
    H2       H        0.95620    0.54430    0.89020    1.000
    H3       H        0.13620    0.54030    0.89930    1.000
    H4       H        0.04070    0.62000    0.99560    1.000
    Ce2      Ce       0.50765    0.39869    0.88733    1.000
    P3       P        0.65630    0.58400    0.60661    1.000
    P4       P        0.30600    0.58160    0.63898    1.000
    O8       O        0.65350    0.49600    0.71910    1.000
    O9       O        0.77880    0.54170    0.51530    1.000
    O10      O        0.67550    0.72550    0.64100    1.000
    O11      O        0.32140    0.47010    0.73040    1.000
    O12      O        0.32570    0.71490    0.69920    1.000
    O13      O        0.15830    0.57060    0.56490    1.000
    O14      O        0.45250    0.69320    0.45540    1.000
    H5       H        0.52050    0.69470    0.39890    1.000
    C3       C        0.46810    0.57480    0.52960    1.000
    C4       C        0.45780    0.45660    0.44590    1.000
    H6       H        0.54380    0.45570    0.39020    1.000
    H7       H        0.36380    0.45970    0.39930    1.000
    H8       H        0.45930    0.38000    0.49560    1.000
    Ce3      Ce       0.00765    0.10131    0.11267    1.000
    P5       P        0.15630    0.91600    0.39339    1.000
    P6       P        0.80600    0.91840    0.36102    1.000
    O15      O        0.15350    0.00400    0.28090    1.000
    O16      O        0.27880    0.95830    0.48470    1.000
    O17      O        0.17550    0.77450    0.35900    1.000
    O18      O        0.82140    0.02990    0.26960    1.000
    O19      O        0.82570    0.78510    0.30080    1.000
    O20      O        0.65830    0.92940    0.43510    1.000
    O21      O        0.95250    0.80680    0.54460    1.000
    H9       H        0.02050    0.80530    0.60110    1.000
    C5       C        0.96810    0.92520    0.47040    1.000
    C6       C        0.95780    0.04340    0.55410    1.000
    H10      H        0.04380    0.04430    0.60980    1.000
    H11      H        0.86380    0.04030    0.60070    1.000
    H12      H        0.95930    0.12000    0.50440    1.000
    Ce4      Ce       0.49235    0.89869    0.61267    1.000
    P7       P        0.34370    0.08400    0.89339    1.000
    P8       P        0.69400    0.08160    0.86102    1.000
    O22      O        0.34650    0.99600    0.78090    1.000
    O23      O        0.22120    0.04170    0.98470    1.000
    O24      O        0.32450    0.22550    0.85900    1.000
    O25      O        0.67860    0.97010    0.76960    1.000
    O26      O        0.67430    0.21490    0.80080    1.000
    O27      O        0.84170    0.07060    0.93510    1.000
    O28      O        0.54750    0.19320    0.04460    1.000
    H13      H        0.47950    0.19470    0.10110    1.000
    C7       C        0.53190    0.07480    0.97040    1.000
    C8       C        0.54220    0.95660    0.05410    1.000
    H14      H        0.45620    0.95570    0.10980    1.000
    H15      H        0.63620    0.95970    0.10070    1.000
    H16      H        0.54070    0.88000    0.00440    1.000
