# CIF file generated by openbabel 3.1.0, see https://openbabel.org
data_I
_chemical_name_common 'image0'
_cell_length_a 13.079
_cell_length_b 13.853
_cell_length_c 14.263
_cell_angle_alpha 90
_cell_angle_beta 107.983
_cell_angle_gamma 90
_space_group_name_H-M_alt 'P 1'
_space_group_name_Hall 'P 1'
loop_
    _symmetry_equiv_pos_as_xyz
    x,y,z
loop_
    _atom_site_label
    _atom_site_type_symbol
    _atom_site_fract_x
    _atom_site_fract_y
    _atom_site_fract_z
    _atom_site_occupancy
    Cs1      Cs       0.25516    0.89849    0.26106    1.000
    Cd1      Cd       0.49763    0.07175    0.24330    1.000
    Cd2      Cd       0.98834    0.72915    0.26294    1.000
    C1       C        0.60250    0.36110    0.07200    1.000
    H1       H        0.52780    0.35790    0.04880    1.000
    C2       C        0.65510    0.42470    0.02760    1.000
    C3       C        0.76700    0.43100    0.06680    1.000
    H2       H        0.80500    0.47370    0.03980    1.000
    C4       C        0.82180    0.37260    0.14730    1.000
    H3       H        0.89600    0.37800    0.17400    1.000
    C5       C        0.76700    0.30730    0.18730    1.000
    H4       H        0.80440    0.26750    0.23890    1.000
    C6       C        0.65780    0.30160    0.15060    1.000
    C7       C        0.59380    0.47760    0.93720    1.000
    C8       C        0.59620    0.22650    0.18690    1.000
    C9       C        0.59350    0.78210    0.50110    1.000
    H5       H        0.52390    0.79590    0.50100    1.000
    C10      C        0.63800    0.83270    0.43750    1.000
    C11      C        0.74040    0.80940    0.43630    1.000
    H6       H        0.76970    0.84040    0.39270    1.000
    C12      C        0.79840    0.74100    0.49920    1.000
    H7       H        0.86850    0.72730    0.50050    1.000
    C13      C        0.75260    0.69150    0.56170    1.000
    H8       H        0.79230    0.64350    0.60250    1.000
    C14      C        0.65340    0.71090    0.56470    1.000
    C15      C        0.57490    0.90910    0.37390    1.000
    C16      C        0.60390    0.66030    0.63550    1.000
    C17      C        0.88460    0.43990    0.43580    1.000
    H9       H        0.95930    0.43940    0.45590    1.000
    C18      C        0.82920    0.37810    0.47910    1.000
    C19      C        0.71930    0.37370    0.44680    1.000
    H10      H        0.68310    0.32950    0.47400    1.000
    C20      C        0.66150    0.43740    0.37130    1.000
    H11      H        0.58680    0.43540    0.34960    1.000
    C21      C        0.71430    0.50190    0.32990    1.000
    H12      H        0.67610    0.54450    0.28130    1.000
    C22      C        0.82800    0.50260    0.36220    1.000
    C23      C        0.88720    0.57990    0.32340    1.000
    C24      C        0.89030    0.31720    0.56320    1.000
    C25      C        0.93520    0.02350    0.03300    1.000
    H13      H        0.00210    0.99780    0.03690    1.000
    C26      C        0.88090    0.98600    0.09210    1.000
    C27      C        0.77980    0.02410    0.08660    1.000
    H14      H        0.74210    0.99880    0.12650    1.000
    C28      C        0.73520    0.09910    0.02210    1.000
    H15      H        0.66810    0.12440    0.01800    1.000
    C29      C        0.79450    0.13500    0.96380    1.000
    H16      H        0.76540    0.18550    0.92090    1.000
    C30      C        0.89450    0.09980    0.96590    1.000
    C31      C        0.95680    0.13520    0.90070    1.000
    C32      C        0.92460    0.90020    0.15460    1.000
    O1       O        0.49530    0.48650    0.91630    1.000
    O2       O        0.64630    0.51000    0.88250    1.000
    O3       O        0.64850    0.16040    0.24250    1.000
    O4       O        0.49280    0.22610    0.15790    1.000
    O5       O        0.48300    0.93320    0.37700    1.000
    O6       O        0.61450    0.95270    0.31390    1.000
    O7       O        0.66700    0.61810    0.70810    1.000
    O8       O        0.50580    0.66430    0.61900    1.000
    O9       O        0.83200    0.63790    0.25720    1.000
    O10      O        0.98430    0.58510    0.35590    1.000
    O11      O        0.99430    0.31640    0.59030    1.000
    O12      O        0.84210    0.27220    0.61300    1.000
    O13      O        0.89850    0.17030    0.81710    1.000
    O14      O        0.05270    0.13280    0.92850    1.000
    O15      O        0.02310    0.88350    0.17900    1.000
    O16      O        0.86100    0.84580    0.18120    1.000
    Cs2      Cs       0.74484    0.39849    0.73894    1.000
    Cd3      Cd       0.50237    0.57175    0.75670    1.000
    Cd4      Cd       0.01166    0.22915    0.73706    1.000
    C33      C        0.39750    0.86110    0.92800    1.000
    H17      H        0.47220    0.85790    0.95120    1.000
    C34      C        0.34490    0.92470    0.97240    1.000
    C35      C        0.23300    0.93100    0.93320    1.000
    H18      H        0.19500    0.97370    0.96020    1.000
    C36      C        0.17820    0.87260    0.85270    1.000
    H19      H        0.10400    0.87800    0.82600    1.000
    C37      C        0.23300    0.80730    0.81270    1.000
    H20      H        0.19560    0.76750    0.76110    1.000
    C38      C        0.34220    0.80160    0.84940    1.000
    C39      C        0.40620    0.97760    0.06280    1.000
    C40      C        0.40380    0.72650    0.81310    1.000
    C41      C        0.40650    0.28210    0.49890    1.000
    H21      H        0.47610    0.29590    0.49900    1.000
    C42      C        0.36200    0.33270    0.56250    1.000
    C43      C        0.25960    0.30940    0.56370    1.000
    H22      H        0.23030    0.34040    0.60730    1.000
    C44      C        0.20160    0.24100    0.50080    1.000
    H23      H        0.13150    0.22730    0.49950    1.000
    C45      C        0.24740    0.19150    0.43830    1.000
    H24      H        0.20770    0.14350    0.39750    1.000
    C46      C        0.34660    0.21090    0.43530    1.000
    C47      C        0.42510    0.40910    0.62610    1.000
    C48      C        0.39610    0.16030    0.36450    1.000
    C49      C        0.11540    0.93990    0.56420    1.000
    H25      H        0.04070    0.93940    0.54410    1.000
    C50      C        0.17080    0.87810    0.52090    1.000
    C51      C        0.28070    0.87370    0.55320    1.000
    H26      H        0.31690    0.82950    0.52600    1.000
    C52      C        0.33850    0.93740    0.62870    1.000
    H27      H        0.41320    0.93540    0.65040    1.000
    C53      C        0.28570    0.00190    0.67010    1.000
    H28      H        0.32390    0.04450    0.71870    1.000
    C54      C        0.17200    0.00260    0.63780    1.000
    C55      C        0.11280    0.07990    0.67660    1.000
    C56      C        0.10970    0.81720    0.43680    1.000
    C57      C        0.06480    0.52350    0.96700    1.000
    H29      H        0.99790    0.49780    0.96310    1.000
    C58      C        0.11910    0.48600    0.90790    1.000
    C59      C        0.22020    0.52410    0.91340    1.000
    H30      H        0.25790    0.49880    0.87350    1.000
    C60      C        0.26480    0.59910    0.97790    1.000
    H31      H        0.33190    0.62440    0.98200    1.000
    C61      C        0.20550    0.63500    0.03620    1.000
    H32      H        0.23460    0.68550    0.07910    1.000
    C62      C        0.10550    0.59980    0.03410    1.000
    C63      C        0.04320    0.63520    0.09930    1.000
    C64      C        0.07540    0.40020    0.84540    1.000
    O17      O        0.50470    0.98650    0.08370    1.000
    O18      O        0.35370    0.01000    0.11750    1.000
    O19      O        0.35150    0.66040    0.75750    1.000
    O20      O        0.50720    0.72610    0.84210    1.000
    O21      O        0.51700    0.43320    0.62300    1.000
    O22      O        0.38550    0.45270    0.68610    1.000
    O23      O        0.33300    0.11810    0.29190    1.000
    O24      O        0.49420    0.16430    0.38100    1.000
    O25      O        0.16800    0.13790    0.74280    1.000
    O26      O        0.01570    0.08510    0.64410    1.000
    O27      O        0.00570    0.81640    0.40970    1.000
    O28      O        0.15790    0.77220    0.38700    1.000
    O29      O        0.10150    0.67030    0.18290    1.000
    O30      O        0.94730    0.63280    0.07150    1.000
    O31      O        0.97690    0.38350    0.82100    1.000
    O32      O        0.13900    0.34580    0.81880    1.000
