data_functionalizedCrystal
_audit_creation_method	'EQeq! by Chris Wilmer'
_symmetry_space_group_name_H-M	'P1'
_symmetry_Int_Tables_number	1
_symmetry_cell_setting	triclinic
loop_
_symmetry_equiv_pos_as_xyz
  x,y,z
_cell_length_a	12.2463
_cell_length_b	15.4577
_cell_length_c	18.8454
_cell_angle_alpha	90
_cell_angle_beta	90
_cell_angle_gamma	90
loop_
_atom_site_label
_atom_site_type_symbol
_atom_site_fract_x
_atom_site_fract_y
_atom_site_fract_z
_atom_site_charge
Mof_Cd	Cd	0.1925	0.21535	0.31604	0.425
Mof_O 	O 	0.3483	0.16968	0.38357	-0.256
Mof_O 	O 	0.3126	0.31011	0.38237	-0.272
Mof_C 	C 	0.3649	0.2459	0.40454	0.274
Mof_C 	C 	0.449	0.2598	0.46186	-0.011
Mof_C 	C 	0.442	0.3312	0.5052	-0.075
Mof_H 	H 	0.3892	0.3749	0.4963	0.071
Mof_C 	C 	0.5131	0.3382	0.562	0.055
Mof_H 	H 	0.5065	0.3869	0.5925	0.03
Mof_N 	N 	0.5909	0.27966	0.57617	-0.132
Mof_C 	C 	0.6007	0.2133	0.5312	0.05
Mof_H 	H 	0.6575	0.1725	0.539	0.032
Mof_C 	C 	0.5317	0.2012	0.4737	-0.071
Mof_H 	H 	0.5413	0.1531	0.4429	0.072
Mof_N 	N 	0.1144	0.34607	0.27772	-0.138
Mof_C 	C 	0.1387	0.4222	0.30871	0.055
Mof_H 	H 	0.196	0.4235	0.3427	0.041
Mof_C 	C 	0.0845	0.4989	0.29353	-0.079
Mof_H 	H 	0.1043	0.5513	0.3165	0.094
Mof_C 	C 	0.0003	0.4971	0.24396	-0.004
Mof_C 	C 	0.9757	0.419	0.21064	-0.08
Mof_H 	H 	0.9196	0.416	0.1759	0.087
Mof_C 	C 	0.0347	0.3455	0.2292	0.055
Mof_H 	H 	0.0176	0.2924	0.2063	0.036
Mof_C 	C 	0.9359	0.5775	0.22578	0.27
Mof_O 	O 	0.97457	0.65022	0.2419	-0.259
Mof_O 	O 	0.84706	0.56808	0.19393	-0.263
Mof_Cd	Cd	0.3075	0.78465	0.81604	0.424
Mof_O 	O 	0.1517	0.83032	0.88357	-0.258
Mof_O 	O 	0.1874	0.68989	0.88237	-0.273
Mof_C 	C 	0.1351	0.7541	0.90454	0.274
Mof_C 	C 	0.051	0.7402	0.96186	-0.015
Mof_C 	C 	0.058	0.6688	0.0052	-0.071
Mof_H 	H 	0.1108	0.6251	0.9963	0.07
Mof_C 	C 	0.9869	0.6618	0.062	0.052
Mof_H 	H 	0.9935	0.6131	0.0925	0.03
Mof_N 	N 	0.9091	0.72034	0.07617	-0.131
Mof_C 	C 	0.8993	0.7867	0.0312	0.048
Mof_H 	H 	0.8425	0.8275	0.039	0.033
Mof_C 	C 	0.9683	0.7988	0.9737	-0.068
Mof_H 	H 	0.9587	0.8469	0.9429	0.071
Mof_N 	N 	0.3856	0.65393	0.77772	-0.138
Mof_C 	C 	0.3613	0.5778	0.80871	0.055
Mof_H 	H 	0.304	0.5765	0.8427	0.041
Mof_C 	C 	0.4155	0.5011	0.79353	-0.078
Mof_H 	H 	0.3957	0.4487	0.8165	0.093
Mof_C 	C 	0.4997	0.5029	0.74396	-0.005
Mof_C 	C 	0.5243	0.581	0.71064	-0.079
Mof_H 	H 	0.5804	0.584	0.6759	0.086
Mof_C 	C 	0.4653	0.6545	0.7292	0.054
Mof_H 	H 	0.4824	0.7076	0.7063	0.036
Mof_C 	C 	0.5641	0.4225	0.72578	0.27
Mof_O 	O 	0.52543	0.34978	0.7419	-0.259
Mof_O 	O 	0.65294	0.43192	0.69393	-0.263
Mof_Cd	Cd	0.8075	0.71535	0.18396	0.424
Mof_O 	O 	0.6517	0.66968	0.11643	-0.258
Mof_O 	O 	0.6874	0.81011	0.11763	-0.273
Mof_C 	C 	0.6351	0.7459	0.09546	0.273
Mof_C 	C 	0.551	0.7598	0.03814	-0.012
Mof_C 	C 	0.558	0.8312	0.9948	-0.075
Mof_H 	H 	0.6108	0.8749	0.0037	0.071
Mof_C 	C 	0.4869	0.8382	0.938	0.054
Mof_H 	H 	0.4935	0.8869	0.9075	0.03
Mof_N 	N 	0.4091	0.77966	0.92383	-0.132
Mof_C 	C 	0.3993	0.7133	0.9688	0.05
Mof_H 	H 	0.3425	0.6725	0.961	0.032
Mof_C 	C 	0.4683	0.7012	0.0263	-0.071
Mof_H 	H 	0.4587	0.6531	0.0571	0.072
Mof_N 	N 	0.8856	0.84607	0.22228	-0.138
Mof_C 	C 	0.8613	0.9222	0.19129	0.055
Mof_H 	H 	0.804	0.9235	0.1573	0.041
Mof_C 	C 	0.9155	0.9989	0.20647	-0.078
Mof_H 	H 	0.8957	0.0513	0.1835	0.093
Mof_C 	C 	0.9997	0.9971	0.25604	-0.006
Mof_C 	C 	0.0243	0.919	0.28936	-0.078
Mof_H 	H 	0.0804	0.916	0.3241	0.086
Mof_C 	C 	0.9653	0.8455	0.2708	0.053
Mof_H 	H 	0.9824	0.7924	0.2937	0.036
Mof_C 	C 	0.0641	0.0775	0.27422	0.271
Mof_O 	O 	0.02543	0.15022	0.2581	-0.259
Mof_O 	O 	0.15294	0.06808	0.30607	-0.263
Mof_Cd	Cd	0.6925	0.28465	0.68396	0.424
Mof_O 	O 	0.8483	0.33032	0.61643	-0.257
Mof_O 	O 	0.8126	0.18989	0.61763	-0.273
Mof_C 	C 	0.8649	0.2541	0.59546	0.273
Mof_C 	C 	0.949	0.2402	0.53814	-0.011
Mof_C 	C 	0.942	0.1688	0.4948	-0.076
Mof_H 	H 	0.8892	0.1251	0.5037	0.071
Mof_C 	C 	0.0131	0.1618	0.438	0.055
Mof_H 	H 	0.0065	0.1131	0.4075	0.029
Mof_N 	N 	0.0909	0.22034	0.42383	-0.132
Mof_C 	C 	0.1007	0.2867	0.4688	0.05
Mof_H 	H 	0.1575	0.3275	0.461	0.032
Mof_C 	C 	0.0317	0.2988	0.5263	-0.072
Mof_H 	H 	0.0413	0.3469	0.5571	0.072
Mof_N 	N 	0.6144	0.15393	0.72228	-0.138
Mof_C 	C 	0.6387	0.0778	0.69129	0.055
Mof_H 	H 	0.696	0.0765	0.6573	0.041
Mof_C 	C 	0.5845	0.0011	0.70647	-0.078
Mof_H 	H 	0.6043	0.9487	0.6835	0.093
Mof_C 	C 	0.5003	0.0029	0.75604	-0.005
Mof_C 	C 	0.4757	0.081	0.78936	-0.079
Mof_H 	H 	0.4196	0.084	0.8241	0.086
Mof_C 	C 	0.5347	0.1545	0.7708	0.054
Mof_H 	H 	0.5176	0.2076	0.7937	0.036
Mof_C 	C 	0.4359	0.9225	0.77422	0.27
Mof_O 	O 	0.47457	0.84978	0.7581	-0.259
Mof_O 	O 	0.34706	0.93192	0.80607	-0.263
Mof_Cd	Cd	0.8075	0.78465	0.68396	0.424
Mof_O 	O 	0.6517	0.83032	0.61643	-0.257
Mof_O 	O 	0.6874	0.68989	0.61763	-0.273
Mof_C 	C 	0.6351	0.7541	0.59546	0.273
Mof_C 	C 	0.551	0.7402	0.53814	-0.011
Mof_C 	C 	0.558	0.6688	0.4948	-0.075
Mof_H 	H 	0.6108	0.6251	0.5037	0.071
Mof_C 	C 	0.4869	0.6618	0.438	0.055
Mof_H 	H 	0.4935	0.6131	0.4075	0.03
Mof_N 	N 	0.4091	0.72034	0.42383	-0.132
Mof_C 	C 	0.3993	0.7867	0.4688	0.05
Mof_H 	H 	0.3425	0.8275	0.461	0.032
Mof_C 	C 	0.4683	0.7988	0.5263	-0.071
Mof_H 	H 	0.4587	0.8469	0.5571	0.072
Mof_N 	N 	0.8856	0.65393	0.72228	-0.138
Mof_C 	C 	0.8613	0.5778	0.69129	0.055
Mof_H 	H 	0.804	0.5765	0.6573	0.041
Mof_C 	C 	0.9155	0.5011	0.70647	-0.079
Mof_H 	H 	0.8957	0.4487	0.6835	0.094
Mof_C 	C 	0.9997	0.5029	0.75604	-0.004
Mof_C 	C 	0.0243	0.581	0.78936	-0.08
Mof_H 	H 	0.0804	0.584	0.8241	0.087
Mof_C 	C 	0.9653	0.6545	0.7708	0.055
Mof_H 	H 	0.9824	0.7076	0.7937	0.036
Mof_C 	C 	0.0641	0.4225	0.77422	0.27
Mof_O 	O 	0.02543	0.34978	0.7581	-0.259
Mof_O 	O 	0.15294	0.43192	0.80607	-0.263
Mof_Cd	Cd	0.6925	0.21535	0.18396	0.424
Mof_O 	O 	0.8483	0.16968	0.11643	-0.258
Mof_O 	O 	0.8126	0.31011	0.11763	-0.273
Mof_C 	C 	0.8649	0.2459	0.09546	0.274
Mof_C 	C 	0.949	0.2598	0.03814	-0.015
Mof_C 	C 	0.942	0.3312	0.9948	-0.071
Mof_H 	H 	0.8892	0.3749	0.0037	0.07
Mof_C 	C 	0.0131	0.3382	0.938	0.052
Mof_H 	H 	0.0065	0.3869	0.9075	0.03
Mof_N 	N 	0.0909	0.27966	0.92383	-0.131
Mof_C 	C 	0.1007	0.2133	0.9688	0.048
Mof_H 	H 	0.1575	0.1725	0.961	0.033
Mof_C 	C 	0.0317	0.2012	0.0263	-0.068
Mof_H 	H 	0.0413	0.1531	0.0571	0.071
Mof_N 	N 	0.6144	0.34607	0.22228	-0.138
Mof_C 	C 	0.6387	0.4222	0.19129	0.055
Mof_H 	H 	0.696	0.4235	0.1573	0.041
Mof_C 	C 	0.5845	0.4989	0.20647	-0.078
Mof_H 	H 	0.6043	0.5513	0.1835	0.093
Mof_C 	C 	0.5003	0.4971	0.25604	-0.005
Mof_C 	C 	0.4757	0.419	0.28936	-0.079
Mof_H 	H 	0.4196	0.416	0.3241	0.086
Mof_C 	C 	0.5347	0.3455	0.2708	0.054
Mof_H 	H 	0.5176	0.2924	0.2937	0.036
Mof_C 	C 	0.4359	0.5775	0.27422	0.27
Mof_O 	O 	0.47457	0.65022	0.2581	-0.259
Mof_O 	O 	0.34706	0.56808	0.30607	-0.263
Mof_Cd	Cd	0.1925	0.28465	0.81604	0.424
Mof_O 	O 	0.3483	0.33032	0.88357	-0.258
Mof_O 	O 	0.3126	0.18989	0.88237	-0.273
Mof_C 	C 	0.3649	0.2541	0.90454	0.273
Mof_C 	C 	0.449	0.2402	0.96186	-0.012
Mof_C 	C 	0.442	0.1688	0.0052	-0.075
Mof_H 	H 	0.3892	0.1251	0.9963	0.071
Mof_C 	C 	0.5131	0.1618	0.062	0.054
Mof_H 	H 	0.5065	0.1131	0.0925	0.03
Mof_N 	N 	0.5909	0.22034	0.07617	-0.132
Mof_C 	C 	0.6007	0.2867	0.0312	0.05
Mof_H 	H 	0.6575	0.3275	0.039	0.032
Mof_C 	C 	0.5317	0.2988	0.9737	-0.071
Mof_H 	H 	0.5413	0.3469	0.9429	0.072
Mof_N 	N 	0.1144	0.15393	0.77772	-0.138
Mof_C 	C 	0.1387	0.0778	0.80871	0.055
Mof_H 	H 	0.196	0.0765	0.8427	0.041
Mof_C 	C 	0.0845	0.0011	0.79353	-0.078
Mof_H 	H 	0.1043	0.9487	0.8165	0.093
Mof_C 	C 	0.0003	0.0029	0.74396	-0.006
Mof_C 	C 	0.9757	0.081	0.71064	-0.078
Mof_H 	H 	0.9196	0.084	0.6759	0.086
Mof_C 	C 	0.0347	0.1545	0.7292	0.053
Mof_H 	H 	0.0176	0.2076	0.7063	0.036
Mof_C 	C 	0.9359	0.9225	0.72578	0.271
Mof_O 	O 	0.97457	0.84978	0.7419	-0.259
Mof_O 	O 	0.84706	0.93192	0.69393	-0.263
Mof_Cd	Cd	0.3075	0.71535	0.31604	0.424
Mof_O 	O 	0.1517	0.66968	0.38357	-0.257
Mof_O 	O 	0.1874	0.81011	0.38237	-0.273
Mof_C 	C 	0.1351	0.7459	0.40454	0.273
Mof_C 	C 	0.051	0.7598	0.46186	-0.011
Mof_C 	C 	0.058	0.8312	0.5052	-0.076
Mof_H 	H 	0.1108	0.8749	0.4963	0.071
Mof_C 	C 	0.9869	0.8382	0.562	0.055
Mof_H 	H 	0.9935	0.8869	0.5925	0.029
Mof_N 	N 	0.9091	0.77966	0.57617	-0.132
Mof_C 	C 	0.8993	0.7133	0.5312	0.05
Mof_H 	H 	0.8425	0.6725	0.539	0.032
Mof_C 	C 	0.9683	0.7012	0.4737	-0.072
Mof_H 	H 	0.9587	0.6531	0.4429	0.072
Mof_N 	N 	0.3856	0.84607	0.27772	-0.138
Mof_C 	C 	0.3613	0.9222	0.30871	0.055
Mof_H 	H 	0.304	0.9235	0.3427	0.041
Mof_C 	C 	0.4155	0.9989	0.29353	-0.078
Mof_H 	H 	0.3957	0.0513	0.3165	0.093
Mof_C 	C 	0.4997	0.9971	0.24396	-0.005
Mof_C 	C 	0.5243	0.919	0.21064	-0.079
Mof_H 	H 	0.5804	0.916	0.1759	0.086
Mof_C 	C 	0.4653	0.8455	0.2292	0.054
Mof_H 	H 	0.4824	0.7924	0.2063	0.036
Mof_C 	C 	0.5641	0.0775	0.22578	0.27
Mof_O 	O 	0.52543	0.15022	0.2419	-0.259
Mof_O 	O 	0.65294	0.06808	0.19393	-0.263
_end
