data_functionalizedCrystal
_audit_creation_method	'EQeq! by Chris Wilmer'
_symmetry_space_group_name_H-M	'P1'
_symmetry_Int_Tables_number	1
_symmetry_cell_setting	triclinic
loop_
_symmetry_equiv_pos_as_xyz
  x,y,z
_cell_length_a	20.123
_cell_length_b	20.123
_cell_length_c	20.123
_cell_angle_alpha	90
_cell_angle_beta	90
_cell_angle_gamma	90
loop_
_atom_site_label
_atom_site_type_symbol
_atom_site_fract_x
_atom_site_fract_y
_atom_site_fract_z
_atom_site_charge
Mof_Zn	Zn	0.35581	0.25061	0.23074	1.187
Mof_O 	O 	0.4467	0.2827	0.2423	-0.464
Mof_O 	O 	0.4532	0.2072	0.1638	-0.354
Mof_C 	C 	0.4796	0.25	0.1993	0.341
Mof_C 	C 	0.5999	0.2318	0.1578	0.094
Mof_H 	H 	0.5918	0.1973	0.1281	0.001
Mof_C 	C 	0.5513	0.2634	0.1958	-0.147
Mof_C 	C 	0.5872	0.31	0.2319	0.094
Mof_H 	H 	0.569	0.3391	0.2628	0.001
Mof_N 	N 	0.651	0.307	0.2161	-0.265
Mof_N 	N 	0.659	0.2576	0.1698	-0.265
Mof_Zn	Zn	0.14419	0.74939	0.73074	1.188
Mof_O 	O 	0.0533	0.7173	0.7423	-0.463
Mof_O 	O 	0.0468	0.7928	0.6638	-0.353
Mof_C 	C 	0.0204	0.75	0.6993	0.342
Mof_C 	C 	0.9001	0.7682	0.6578	0.095
Mof_H 	H 	0.9082	0.8027	0.6281	0.002
Mof_C 	C 	0.9487	0.7366	0.6958	-0.146
Mof_C 	C 	0.9128	0.69	0.7319	0.095
Mof_H 	H 	0.931	0.6609	0.7628	0.001
Mof_N 	N 	0.849	0.693	0.7161	-0.265
Mof_N 	N 	0.841	0.7424	0.6698	-0.265
Mof_Zn	Zn	0.64419	0.75061	0.26926	1.188
Mof_O 	O 	0.5533	0.7827	0.2577	-0.463
Mof_O 	O 	0.5468	0.7072	0.3362	-0.353
Mof_C 	C 	0.5204	0.75	0.3007	0.342
Mof_C 	C 	0.4001	0.7318	0.3422	0.095
Mof_H 	H 	0.4082	0.6973	0.3719	0.002
Mof_C 	C 	0.4487	0.7634	0.3042	-0.146
Mof_C 	C 	0.4128	0.81	0.2681	0.095
Mof_H 	H 	0.431	0.8391	0.2372	0.001
Mof_N 	N 	0.349	0.807	0.2839	-0.265
Mof_N 	N 	0.341	0.7576	0.3302	-0.265
Mof_Zn	Zn	0.85581	0.24939	0.76926	1.188
Mof_O 	O 	0.9467	0.2173	0.7577	-0.463
Mof_O 	O 	0.9532	0.2928	0.8362	-0.353
Mof_C 	C 	0.9796	0.25	0.8007	0.342
Mof_C 	C 	0.0999	0.2682	0.8422	0.095
Mof_H 	H 	0.0918	0.3027	0.8719	0.002
Mof_C 	C 	0.0513	0.2366	0.8042	-0.146
Mof_C 	C 	0.0872	0.19	0.7681	0.095
Mof_H 	H 	0.069	0.1609	0.7372	0.001
Mof_N 	N 	0.151	0.193	0.7839	-0.265
Mof_N 	N 	0.159	0.2424	0.8302	-0.265
Mof_Zn	Zn	0.23074	0.35581	0.25061	1.188
Mof_O 	O 	0.2423	0.4467	0.2827	-0.463
Mof_O 	O 	0.1638	0.4532	0.2072	-0.353
Mof_C 	C 	0.1993	0.4796	0.25	0.342
Mof_C 	C 	0.1578	0.5999	0.2318	0.095
Mof_H 	H 	0.1281	0.5918	0.1973	0.002
Mof_C 	C 	0.1958	0.5513	0.2634	-0.146
Mof_C 	C 	0.2319	0.5872	0.31	0.095
Mof_H 	H 	0.2628	0.569	0.3391	0.001
Mof_N 	N 	0.2161	0.651	0.307	-0.265
Mof_N 	N 	0.1698	0.659	0.2576	-0.265
Mof_Zn	Zn	0.73074	0.14419	0.74939	1.188
Mof_O 	O 	0.7423	0.0533	0.7173	-0.463
Mof_O 	O 	0.6638	0.0468	0.7928	-0.353
Mof_C 	C 	0.6993	0.0204	0.75	0.342
Mof_C 	C 	0.6578	0.9001	0.7682	0.095
Mof_H 	H 	0.6281	0.9082	0.8027	0.002
Mof_C 	C 	0.6958	0.9487	0.7366	-0.146
Mof_C 	C 	0.7319	0.9128	0.69	0.095
Mof_H 	H 	0.7628	0.931	0.6609	0.001
Mof_N 	N 	0.7161	0.849	0.693	-0.265
Mof_N 	N 	0.6698	0.841	0.7424	-0.265
Mof_Zn	Zn	0.26926	0.64419	0.75061	1.188
Mof_O 	O 	0.2577	0.5533	0.7827	-0.463
Mof_O 	O 	0.3362	0.5468	0.7072	-0.353
Mof_C 	C 	0.3007	0.5204	0.75	0.342
Mof_C 	C 	0.3422	0.4001	0.7318	0.095
Mof_H 	H 	0.3719	0.4082	0.6973	0.002
Mof_C 	C 	0.3042	0.4487	0.7634	-0.146
Mof_C 	C 	0.2681	0.4128	0.81	0.095
Mof_H 	H 	0.2372	0.431	0.8391	0.001
Mof_N 	N 	0.2839	0.349	0.807	-0.265
Mof_N 	N 	0.3302	0.341	0.7576	-0.265
Mof_Zn	Zn	0.76926	0.85581	0.24939	1.188
Mof_O 	O 	0.7577	0.9467	0.2173	-0.463
Mof_O 	O 	0.8362	0.9532	0.2928	-0.353
Mof_C 	C 	0.8007	0.9796	0.25	0.342
Mof_C 	C 	0.8422	0.0999	0.2682	0.095
Mof_H 	H 	0.8719	0.0918	0.3027	0.002
Mof_C 	C 	0.8042	0.0513	0.2366	-0.146
Mof_C 	C 	0.7681	0.0872	0.19	0.095
Mof_H 	H 	0.7372	0.069	0.1609	0.001
Mof_N 	N 	0.7839	0.151	0.193	-0.265
Mof_N 	N 	0.8302	0.159	0.2424	-0.265
Mof_Zn	Zn	0.25061	0.23074	0.35581	1.188
Mof_O 	O 	0.2827	0.2423	0.4467	-0.463
Mof_O 	O 	0.2072	0.1638	0.4532	-0.353
Mof_C 	C 	0.25	0.1993	0.4796	0.342
Mof_C 	C 	0.2318	0.1578	0.5999	0.095
Mof_H 	H 	0.1973	0.1281	0.5918	0.002
Mof_C 	C 	0.2634	0.1958	0.5513	-0.146
Mof_C 	C 	0.31	0.2319	0.5872	0.095
Mof_H 	H 	0.3391	0.2628	0.569	0.001
Mof_N 	N 	0.307	0.2161	0.651	-0.265
Mof_N 	N 	0.2576	0.1698	0.659	-0.265
Mof_Zn	Zn	0.74939	0.73074	0.14419	1.188
Mof_O 	O 	0.7173	0.7423	0.0533	-0.463
Mof_O 	O 	0.7928	0.6638	0.0468	-0.353
Mof_C 	C 	0.75	0.6993	0.0204	0.342
Mof_C 	C 	0.7682	0.6578	0.9001	0.095
Mof_H 	H 	0.8027	0.6281	0.9082	0.002
Mof_C 	C 	0.7366	0.6958	0.9487	-0.146
Mof_C 	C 	0.69	0.7319	0.9128	0.095
Mof_H 	H 	0.6609	0.7628	0.931	0.001
Mof_N 	N 	0.693	0.7161	0.849	-0.265
Mof_N 	N 	0.7424	0.6698	0.841	-0.265
Mof_Zn	Zn	0.75061	0.26926	0.64419	1.188
Mof_O 	O 	0.7827	0.2577	0.5533	-0.463
Mof_O 	O 	0.7072	0.3362	0.5468	-0.353
Mof_C 	C 	0.75	0.3007	0.5204	0.342
Mof_C 	C 	0.7318	0.3422	0.4001	0.095
Mof_H 	H 	0.6973	0.3719	0.4082	0.002
Mof_C 	C 	0.7634	0.3042	0.4487	-0.146
Mof_C 	C 	0.81	0.2681	0.4128	0.095
Mof_H 	H 	0.8391	0.2372	0.431	0.001
Mof_N 	N 	0.807	0.2839	0.349	-0.265
Mof_N 	N 	0.7576	0.3302	0.341	-0.265
Mof_Zn	Zn	0.24939	0.76926	0.85581	1.188
Mof_O 	O 	0.2173	0.7577	0.9467	-0.463
Mof_O 	O 	0.2928	0.8362	0.9532	-0.353
Mof_C 	C 	0.25	0.8007	0.9796	0.342
Mof_C 	C 	0.2682	0.8422	0.0999	0.095
Mof_H 	H 	0.3027	0.8719	0.0918	0.002
Mof_C 	C 	0.2366	0.8042	0.0513	-0.146
Mof_C 	C 	0.19	0.7681	0.0872	0.095
Mof_H 	H 	0.1609	0.7372	0.069	0.001
Mof_N 	N 	0.193	0.7839	0.151	-0.265
Mof_N 	N 	0.2424	0.8302	0.159	-0.265
Mof_Zn	Zn	0.64419	0.74939	0.76926	1.188
Mof_O 	O 	0.5533	0.7173	0.7577	-0.463
Mof_O 	O 	0.5468	0.7928	0.8362	-0.353
Mof_C 	C 	0.5204	0.75	0.8007	0.342
Mof_C 	C 	0.4001	0.7682	0.8422	0.095
Mof_H 	H 	0.4082	0.8027	0.8719	0.002
Mof_C 	C 	0.4487	0.7366	0.8042	-0.146
Mof_C 	C 	0.4128	0.69	0.7681	0.095
Mof_H 	H 	0.431	0.6609	0.7372	0.001
Mof_N 	N 	0.349	0.693	0.7839	-0.265
Mof_N 	N 	0.341	0.7424	0.8302	-0.265
Mof_Zn	Zn	0.85581	0.25061	0.26926	1.188
Mof_O 	O 	0.9467	0.2827	0.2577	-0.463
Mof_O 	O 	0.9532	0.2072	0.3362	-0.353
Mof_C 	C 	0.9796	0.25	0.3007	0.342
Mof_C 	C 	0.0999	0.2318	0.3422	0.095
Mof_H 	H 	0.0918	0.1973	0.3719	0.002
Mof_C 	C 	0.0513	0.2634	0.3042	-0.146
Mof_C 	C 	0.0872	0.31	0.2681	0.095
Mof_H 	H 	0.069	0.3391	0.2372	0.001
Mof_N 	N 	0.151	0.307	0.2839	-0.265
Mof_N 	N 	0.159	0.2576	0.3302	-0.265
Mof_Zn	Zn	0.35581	0.24939	0.73074	1.188
Mof_O 	O 	0.4467	0.2173	0.7423	-0.463
Mof_O 	O 	0.4532	0.2928	0.6638	-0.353
Mof_C 	C 	0.4796	0.25	0.6993	0.342
Mof_C 	C 	0.5999	0.2682	0.6578	0.095
Mof_H 	H 	0.5918	0.3027	0.6281	0.002
Mof_C 	C 	0.5513	0.2366	0.6958	-0.146
Mof_C 	C 	0.5872	0.19	0.7319	0.095
Mof_H 	H 	0.569	0.1609	0.7628	0.001
Mof_N 	N 	0.651	0.193	0.7161	-0.265
Mof_N 	N 	0.659	0.2424	0.6698	-0.265
Mof_Zn	Zn	0.14419	0.75061	0.23074	1.188
Mof_O 	O 	0.0533	0.7827	0.2423	-0.463
Mof_O 	O 	0.0468	0.7072	0.1638	-0.353
Mof_C 	C 	0.0204	0.75	0.1993	0.342
Mof_C 	C 	0.9001	0.7318	0.1578	0.095
Mof_H 	H 	0.9082	0.6973	0.1281	0.002
Mof_C 	C 	0.9487	0.7634	0.1958	-0.146
Mof_C 	C 	0.9128	0.81	0.2319	0.095
Mof_H 	H 	0.931	0.8391	0.2628	0.001
Mof_N 	N 	0.849	0.807	0.2161	-0.265
Mof_N 	N 	0.841	0.7576	0.1698	-0.265
Mof_Zn	Zn	0.76926	0.64419	0.74939	1.188
Mof_O 	O 	0.7577	0.5533	0.7173	-0.463
Mof_O 	O 	0.8362	0.5468	0.7928	-0.353
Mof_C 	C 	0.8007	0.5204	0.75	0.342
Mof_C 	C 	0.8422	0.4001	0.7682	0.095
Mof_H 	H 	0.8719	0.4082	0.8027	0.002
Mof_C 	C 	0.8042	0.4487	0.7366	-0.146
Mof_C 	C 	0.7681	0.4128	0.69	0.095
Mof_H 	H 	0.7372	0.431	0.6609	0.001
Mof_N 	N 	0.7839	0.349	0.693	-0.265
Mof_N 	N 	0.8302	0.341	0.7424	-0.265
Mof_Zn	Zn	0.26926	0.85581	0.25061	1.188
Mof_O 	O 	0.2577	0.9467	0.2827	-0.463
Mof_O 	O 	0.3362	0.9532	0.2072	-0.353
Mof_C 	C 	0.3007	0.9796	0.25	0.342
Mof_C 	C 	0.3422	0.0999	0.2318	0.095
Mof_H 	H 	0.3719	0.0918	0.1973	0.002
Mof_C 	C 	0.3042	0.0513	0.2634	-0.146
Mof_C 	C 	0.2681	0.0872	0.31	0.095
Mof_H 	H 	0.2372	0.069	0.3391	0.001
Mof_N 	N 	0.2839	0.151	0.307	-0.265
Mof_N 	N 	0.3302	0.159	0.2576	-0.265
Mof_Zn	Zn	0.73074	0.35581	0.24939	1.188
Mof_O 	O 	0.7423	0.4467	0.2173	-0.463
Mof_O 	O 	0.6638	0.4532	0.2928	-0.353
Mof_C 	C 	0.6993	0.4796	0.25	0.342
Mof_C 	C 	0.6578	0.5999	0.2682	0.095
Mof_H 	H 	0.6281	0.5918	0.3027	0.002
Mof_C 	C 	0.6958	0.5513	0.2366	-0.146
Mof_C 	C 	0.7319	0.5872	0.19	0.095
Mof_H 	H 	0.7628	0.569	0.1609	0.001
Mof_N 	N 	0.7161	0.651	0.193	-0.265
Mof_N 	N 	0.6698	0.659	0.2424	-0.265
Mof_Zn	Zn	0.23074	0.14419	0.75061	1.188
Mof_O 	O 	0.2423	0.0533	0.7827	-0.463
Mof_O 	O 	0.1638	0.0468	0.7072	-0.353
Mof_C 	C 	0.1993	0.0204	0.75	0.342
Mof_C 	C 	0.1578	0.9001	0.7318	0.095
Mof_H 	H 	0.1281	0.9082	0.6973	0.002
Mof_C 	C 	0.1958	0.9487	0.7634	-0.146
Mof_C 	C 	0.2319	0.9128	0.81	0.095
Mof_H 	H 	0.2628	0.931	0.8391	0.001
Mof_N 	N 	0.2161	0.849	0.807	-0.265
Mof_N 	N 	0.1698	0.841	0.7576	-0.265
Mof_Zn	Zn	0.74939	0.76926	0.64419	1.188
Mof_O 	O 	0.7173	0.7577	0.5533	-0.463
Mof_O 	O 	0.7928	0.8362	0.5468	-0.353
Mof_C 	C 	0.75	0.8007	0.5204	0.342
Mof_C 	C 	0.7682	0.8422	0.4001	0.095
Mof_H 	H 	0.8027	0.8719	0.4082	0.002
Mof_C 	C 	0.7366	0.8042	0.4487	-0.146
Mof_C 	C 	0.69	0.7681	0.4128	0.095
Mof_H 	H 	0.6609	0.7372	0.431	0.001
Mof_N 	N 	0.693	0.7839	0.349	-0.265
Mof_N 	N 	0.7424	0.8302	0.341	-0.265
Mof_Zn	Zn	0.25061	0.26926	0.85581	1.188
Mof_O 	O 	0.2827	0.2577	0.9467	-0.463
Mof_O 	O 	0.2072	0.3362	0.9532	-0.353
Mof_C 	C 	0.25	0.3007	0.9796	0.342
Mof_C 	C 	0.2318	0.3422	0.0999	0.095
Mof_H 	H 	0.1973	0.3719	0.0918	0.002
Mof_C 	C 	0.2634	0.3042	0.0513	-0.146
Mof_C 	C 	0.31	0.2681	0.0872	0.095
Mof_H 	H 	0.3391	0.2372	0.069	0.001
Mof_N 	N 	0.307	0.2839	0.151	-0.265
Mof_N 	N 	0.2576	0.3302	0.159	-0.265
Mof_Zn	Zn	0.24939	0.73074	0.35581	1.188
Mof_O 	O 	0.2173	0.7423	0.4467	-0.463
Mof_O 	O 	0.2928	0.6638	0.4532	-0.353
Mof_C 	C 	0.25	0.6993	0.4796	0.342
Mof_C 	C 	0.2682	0.6578	0.5999	0.095
Mof_H 	H 	0.3027	0.6281	0.5918	0.002
Mof_C 	C 	0.2366	0.6958	0.5513	-0.146
Mof_C 	C 	0.19	0.7319	0.5872	0.095
Mof_H 	H 	0.1609	0.7628	0.569	0.001
Mof_N 	N 	0.193	0.7161	0.651	-0.265
Mof_N 	N 	0.2424	0.6698	0.659	-0.265
Mof_Zn	Zn	0.75061	0.23074	0.14419	1.188
Mof_O 	O 	0.7827	0.2423	0.0533	-0.463
Mof_O 	O 	0.7072	0.1638	0.0468	-0.353
Mof_C 	C 	0.75	0.1993	0.0204	0.342
Mof_C 	C 	0.7318	0.1578	0.9001	0.095
Mof_H 	H 	0.6973	0.1281	0.9082	0.002
Mof_C 	C 	0.7634	0.1958	0.9487	-0.146
Mof_C 	C 	0.81	0.2319	0.9128	0.095
Mof_H 	H 	0.8391	0.2628	0.931	0.001
Mof_N 	N 	0.807	0.2161	0.849	-0.265
Mof_N 	N 	0.7576	0.1698	0.841	-0.265
Mof_O 	O 	0.30003	0.30003	0.30003	-0.692
Mof_O 	O 	0.19997	0.69997	0.80003	-0.692
Mof_O 	O 	0.69997	0.80003	0.19997	-0.692
Mof_O 	O 	0.80003	0.19997	0.69997	-0.692
Mof_O 	O 	0.69997	0.69997	0.69997	-0.692
Mof_O 	O 	0.80003	0.30003	0.19997	-0.692
Mof_O 	O 	0.30003	0.19997	0.80003	-0.692
Mof_O 	O 	0.19997	0.80003	0.30003	-0.692
_end
