data_functionalizedCrystal
_audit_creation_method	'EQeq! by Chris Wilmer'
_symmetry_space_group_name_H-M	'P1'
_symmetry_Int_Tables_number	1
_symmetry_cell_setting	triclinic
loop_
_symmetry_equiv_pos_as_xyz
  x,y,z
_cell_length_a	30.014
_cell_length_b	30.014
_cell_length_c	30.014
_cell_angle_alpha	90
_cell_angle_beta	90
_cell_angle_gamma	90
loop_
_atom_site_label
_atom_site_type_symbol
_atom_site_fract_x
_atom_site_fract_y
_atom_site_fract_z
_atom_site_charge
Mof_H 	H 	0.2353	0.1982	0.3491	0.048
Mof_H 	H 	0.7353	0.6982	0.8491	0.051
Mof_H 	H 	0.7647	0.8018	0.3491	0.049
Mof_H 	H 	0.2647	0.3018	0.8491	0.05
Mof_H 	H 	0.7647	0.1982	0.6509	0.048
Mof_H 	H 	0.2647	0.6982	0.1509	0.047
Mof_H 	H 	0.2353	0.8018	0.6509	0.049
Mof_H 	H 	0.7353	0.3018	0.1509	0.047
Mof_H 	H 	0.3491	0.2353	0.1982	0.048
Mof_H 	H 	0.8491	0.7353	0.6982	0.051
Mof_H 	H 	0.3491	0.7647	0.8018	0.049
Mof_H 	H 	0.8491	0.2647	0.3018	0.05
Mof_H 	H 	0.6509	0.7647	0.1982	0.048
Mof_H 	H 	0.1509	0.2647	0.6982	0.047
Mof_H 	H 	0.6509	0.2353	0.8018	0.049
Mof_H 	H 	0.1509	0.7353	0.3018	0.047
Mof_H 	H 	0.1982	0.3491	0.2353	0.048
Mof_H 	H 	0.6982	0.8491	0.7353	0.051
Mof_H 	H 	0.8018	0.3491	0.7647	0.049
Mof_H 	H 	0.3018	0.8491	0.2647	0.05
Mof_H 	H 	0.1982	0.6509	0.7647	0.048
Mof_H 	H 	0.6982	0.1509	0.2647	0.047
Mof_H 	H 	0.8018	0.6509	0.2353	0.049
Mof_H 	H 	0.3018	0.1509	0.7353	0.047
Mof_H 	H 	0.1982	0.2353	0.6509	0.048
Mof_H 	H 	0.6982	0.7353	0.1509	0.047
Mof_H 	H 	0.8018	0.7647	0.6509	0.048
Mof_H 	H 	0.3018	0.2647	0.1509	0.046
Mof_H 	H 	0.1982	0.7647	0.3491	0.048
Mof_H 	H 	0.6982	0.2647	0.8491	0.05
Mof_H 	H 	0.8018	0.2353	0.3491	0.049
Mof_H 	H 	0.3018	0.7353	0.8491	0.05
Mof_H 	H 	0.2353	0.3491	0.8018	0.049
Mof_H 	H 	0.7353	0.8491	0.3018	0.051
Mof_H 	H 	0.7647	0.3491	0.1982	0.049
Mof_H 	H 	0.2647	0.8491	0.6982	0.051
Mof_H 	H 	0.7647	0.6509	0.8018	0.049
Mof_H 	H 	0.2647	0.1509	0.3018	0.047
Mof_H 	H 	0.2353	0.6509	0.1982	0.049
Mof_H 	H 	0.7353	0.1509	0.6982	0.048
Mof_H 	H 	0.3491	0.1982	0.7647	0.049
Mof_H 	H 	0.8491	0.6982	0.2647	0.051
Mof_H 	H 	0.3491	0.8018	0.2353	0.05
Mof_H 	H 	0.8491	0.3018	0.7353	0.051
Mof_H 	H 	0.6509	0.1982	0.2353	0.049
Mof_H 	H 	0.1509	0.6982	0.7353	0.048
Mof_H 	H 	0.6509	0.8018	0.7647	0.049
Mof_H 	H 	0.1509	0.3018	0.2647	0.047
Mof_H 	H 	0.7647	0.8018	0.6509	0.049
Mof_H 	H 	0.2647	0.3018	0.1509	0.047
Mof_H 	H 	0.2353	0.1982	0.6509	0.049
Mof_H 	H 	0.7353	0.6982	0.1509	0.048
Mof_H 	H 	0.2353	0.8018	0.3491	0.05
Mof_H 	H 	0.7353	0.3018	0.8491	0.051
Mof_H 	H 	0.7647	0.1982	0.3491	0.049
Mof_H 	H 	0.2647	0.6982	0.8491	0.051
Mof_H 	H 	0.6509	0.7647	0.8018	0.049
Mof_H 	H 	0.1509	0.2647	0.3018	0.047
Mof_H 	H 	0.6509	0.2353	0.1982	0.049
Mof_H 	H 	0.1509	0.7353	0.6982	0.048
Mof_H 	H 	0.3491	0.2353	0.8018	0.05
Mof_H 	H 	0.8491	0.7353	0.3018	0.051
Mof_H 	H 	0.3491	0.7647	0.1982	0.049
Mof_H 	H 	0.8491	0.2647	0.6982	0.051
Mof_H 	H 	0.8018	0.6509	0.7647	0.049
Mof_H 	H 	0.3018	0.1509	0.2647	0.047
Mof_H 	H 	0.1982	0.6509	0.2353	0.049
Mof_H 	H 	0.6982	0.1509	0.7353	0.048
Mof_H 	H 	0.8018	0.3491	0.2353	0.05
Mof_H 	H 	0.3018	0.8491	0.7353	0.051
Mof_H 	H 	0.1982	0.3491	0.7647	0.049
Mof_H 	H 	0.6982	0.8491	0.2647	0.051
Mof_H 	H 	0.8018	0.7647	0.3491	0.05
Mof_H 	H 	0.3018	0.2647	0.8491	0.051
Mof_H 	H 	0.1982	0.2353	0.3491	0.049
Mof_H 	H 	0.6982	0.7353	0.8491	0.052
Mof_H 	H 	0.8018	0.2353	0.6509	0.05
Mof_H 	H 	0.3018	0.7353	0.1509	0.048
Mof_H 	H 	0.1982	0.7647	0.6509	0.049
Mof_H 	H 	0.6982	0.2647	0.1509	0.048
Mof_H 	H 	0.7647	0.6509	0.1982	0.049
Mof_H 	H 	0.2647	0.1509	0.6982	0.048
Mof_H 	H 	0.2353	0.6509	0.8018	0.05
Mof_H 	H 	0.7353	0.1509	0.3018	0.048
Mof_H 	H 	0.2353	0.3491	0.1982	0.049
Mof_H 	H 	0.7353	0.8491	0.6982	0.052
Mof_H 	H 	0.7647	0.3491	0.8018	0.05
Mof_H 	H 	0.2647	0.8491	0.3018	0.051
Mof_H 	H 	0.6509	0.8018	0.2353	0.05
Mof_H 	H 	0.1509	0.3018	0.7353	0.048
Mof_H 	H 	0.6509	0.1982	0.7647	0.049
Mof_H 	H 	0.1509	0.6982	0.2647	0.048
Mof_H 	H 	0.3491	0.8018	0.7647	0.05
Mof_H 	H 	0.8491	0.3018	0.2647	0.051
Mof_H 	H 	0.3491	0.1982	0.2353	0.049
Mof_H 	H 	0.8491	0.6982	0.7353	0.052
Mof_Ni	Ni	1.41191e-33	0	0.37657	1.09
Mof_Ni	Ni	0.5	0.5	0.87657	1.111
Mof_Ni	Ni	2.33749e-33	0	0.62343	1.09
Mof_Ni	Ni	0.5	0.5	0.12343	1.109
Mof_Ni	Ni	0.37657	0	-0	1.09
Mof_Ni	Ni	0.87657	0.5	0.5	1.111
Mof_Ni	Ni	0.62343	0	-0	1.09
Mof_Ni	Ni	0.12343	0.5	0.5	1.109
Mof_Ni	Ni	-0	0.37657	-0	1.09
Mof_Ni	Ni	0.5	0.87657	0.5	1.111
Mof_Ni	Ni	-0	0.62343	-0	1.09
Mof_Ni	Ni	0.5	0.12343	0.5	1.109
Mof_C 	C 	0.06793	0.06793	0.3518	0.317
Mof_C 	C 	0.10191	0.10191	0.3686	0.069
Mof_C 	C 	0.1099	0.1099	0.4108	-0.213
Mof_H 	H 	0.0938	0.0938	0.4319	0.11
Mof_C 	C 	0.1374	0.1374	0.4242	0.173
Mof_H 	H 	0.141	0.141	0.4548	-0.029
Mof_C 	C 	0.1641	0.1641	0.395	-0.266
Mof_H 	H 	0.1847	0.1847	0.4055	0.131
Mof_C 	C 	0.15711	0.15711	0.3501	0.258
Mof_C 	C 	0.12524	0.12524	0.3352	-0.202
Mof_H 	H 	0.1201	0.1201	0.3051	0.133
Mof_C 	C 	0.21207	0.21207	0.3314	-0.005
Mof_C 	C 	0.23111	0.23111	0.28973	0.014
Mof_O 	O 	0.0639	0.0639	0.31089	-0.26
Mof_O 	O 	0.04748	0.04748	0.38002	-0.42
Mof_O 	O 	0.17918	0.17918	0.31775	-0.235
Mof_C 	C 	0.56793	0.56793	0.8518	0.313
Mof_C 	C 	0.60191	0.60191	0.8686	0.083
Mof_C 	C 	0.6099	0.6099	0.9108	-0.224
Mof_H 	H 	0.5938	0.5938	0.9319	0.122
Mof_C 	C 	0.6374	0.6374	0.9242	0.187
Mof_H 	H 	0.641	0.641	0.9548	-0.025
Mof_C 	C 	0.6641	0.6641	0.895	-0.27
Mof_H 	H 	0.6847	0.6847	0.9055	0.137
Mof_C 	C 	0.65711	0.65711	0.8501	0.265
Mof_C 	C 	0.62524	0.62524	0.8352	-0.207
Mof_H 	H 	0.6201	0.6201	0.8051	0.139
Mof_C 	C 	0.71207	0.71207	0.8314	-0.007
Mof_C 	C 	0.73111	0.73111	0.78973	0.016
Mof_O 	O 	0.5639	0.5639	0.81089	-0.246
Mof_O 	O 	0.54748	0.54748	0.88002	-0.404
Mof_O 	O 	0.67918	0.67918	0.81775	-0.233
Mof_C 	C 	0.93207	0.93207	0.3518	0.307
Mof_C 	C 	0.89809	0.89809	0.3686	0.094
Mof_C 	C 	0.8901	0.8901	0.4108	-0.237
Mof_H 	H 	0.9062	0.9062	0.4319	0.127
Mof_C 	C 	0.8626	0.8626	0.4242	0.2
Mof_H 	H 	0.859	0.859	0.4548	-0.033
Mof_C 	C 	0.8359	0.8359	0.395	-0.279
Mof_H 	H 	0.8153	0.8153	0.4055	0.138
Mof_C 	C 	0.84289	0.84289	0.3501	0.271
Mof_C 	C 	0.87476	0.87476	0.3352	-0.213
Mof_H 	H 	0.8799	0.8799	0.3051	0.145
Mof_C 	C 	0.78793	0.78793	0.3314	-0.005
Mof_C 	C 	0.76889	0.76889	0.28973	0.014
Mof_O 	O 	0.9361	0.9361	0.31089	-0.232
Mof_O 	O 	0.95252	0.95252	0.38002	-0.386
Mof_O 	O 	0.82082	0.82082	0.31775	-0.234
Mof_C 	C 	0.43207	0.43207	0.8518	0.313
Mof_C 	C 	0.39809	0.39809	0.8686	0.082
Mof_C 	C 	0.3901	0.3901	0.9108	-0.223
Mof_H 	H 	0.4062	0.4062	0.9319	0.122
Mof_C 	C 	0.3626	0.3626	0.9242	0.187
Mof_H 	H 	0.359	0.359	0.9548	-0.025
Mof_C 	C 	0.3359	0.3359	0.895	-0.27
Mof_H 	H 	0.3153	0.3153	0.9055	0.136
Mof_C 	C 	0.34289	0.34289	0.8501	0.264
Mof_C 	C 	0.37476	0.37476	0.8352	-0.207
Mof_H 	H 	0.3799	0.3799	0.8051	0.139
Mof_C 	C 	0.28793	0.28793	0.8314	-0.006
Mof_C 	C 	0.26889	0.26889	0.78973	0.014
Mof_O 	O 	0.4361	0.4361	0.81089	-0.246
Mof_O 	O 	0.45252	0.45252	0.88002	-0.404
Mof_O 	O 	0.32082	0.32082	0.81775	-0.233
Mof_C 	C 	0.93207	0.06793	0.6482	0.311
Mof_C 	C 	0.89809	0.10191	0.6314	0.083
Mof_C 	C 	0.8901	0.1099	0.5892	-0.226
Mof_H 	H 	0.9062	0.0938	0.5681	0.119
Mof_C 	C 	0.8626	0.1374	0.5758	0.188
Mof_H 	H 	0.859	0.141	0.5452	-0.032
Mof_C 	C 	0.8359	0.1641	0.605	-0.273
Mof_H 	H 	0.8153	0.1847	0.5945	0.135
Mof_C 	C 	0.84289	0.15711	0.6499	0.265
Mof_C 	C 	0.87476	0.12524	0.6648	-0.209
Mof_H 	H 	0.8799	0.1201	0.6949	0.14
Mof_C 	C 	0.78793	0.21207	0.6686	-0.005
Mof_C 	C 	0.76889	0.23111	0.71027	0.014
Mof_O 	O 	0.9361	0.0639	0.68911	-0.244
Mof_O 	O 	0.95252	0.04748	0.61998	-0.402
Mof_O 	O 	0.82082	0.17918	0.68225	-0.234
Mof_C 	C 	0.43207	0.56793	0.1482	0.314
Mof_C 	C 	0.39809	0.60191	0.1314	0.079
Mof_C 	C 	0.3901	0.6099	0.0892	-0.224
Mof_H 	H 	0.4062	0.5938	0.0681	0.114
Mof_C 	C 	0.3626	0.6374	0.0758	0.184
Mof_H 	H 	0.359	0.641	0.0452	-0.037
Mof_C 	C 	0.3359	0.6641	0.105	-0.273
Mof_H 	H 	0.3153	0.6847	0.0945	0.132
Mof_C 	C 	0.34289	0.65711	0.1499	0.263
Mof_C 	C 	0.37476	0.62524	0.1648	-0.207
Mof_H 	H 	0.3799	0.6201	0.1949	0.139
Mof_C 	C 	0.28793	0.71207	0.1686	-0.003
Mof_C 	C 	0.26889	0.73111	0.21027	0.013
Mof_O 	O 	0.4361	0.5639	0.18911	-0.247
Mof_O 	O 	0.45252	0.54748	0.11998	-0.409
Mof_O 	O 	0.32082	0.67918	0.18225	-0.234
Mof_C 	C 	0.06793	0.93207	0.6482	0.311
Mof_C 	C 	0.10191	0.89809	0.6314	0.083
Mof_C 	C 	0.1099	0.8901	0.5892	-0.226
Mof_H 	H 	0.0938	0.9062	0.5681	0.119
Mof_C 	C 	0.1374	0.8626	0.5758	0.188
Mof_H 	H 	0.141	0.859	0.5452	-0.032
Mof_C 	C 	0.1641	0.8359	0.605	-0.273
Mof_H 	H 	0.1847	0.8153	0.5945	0.135
Mof_C 	C 	0.15711	0.84289	0.6499	0.265
Mof_C 	C 	0.12524	0.87476	0.6648	-0.209
Mof_H 	H 	0.1201	0.8799	0.6949	0.14
Mof_C 	C 	0.21207	0.78793	0.6686	-0.005
Mof_C 	C 	0.23111	0.76889	0.71027	0.014
Mof_O 	O 	0.0639	0.9361	0.68911	-0.244
Mof_O 	O 	0.04748	0.95252	0.61998	-0.402
Mof_O 	O 	0.17918	0.82082	0.68225	-0.234
Mof_C 	C 	0.56793	0.43207	0.1482	0.314
Mof_C 	C 	0.60191	0.39809	0.1314	0.079
Mof_C 	C 	0.6099	0.3901	0.0892	-0.224
Mof_H 	H 	0.5938	0.4062	0.0681	0.114
Mof_C 	C 	0.6374	0.3626	0.0758	0.184
Mof_H 	H 	0.641	0.359	0.0452	-0.037
Mof_C 	C 	0.6641	0.3359	0.105	-0.273
Mof_H 	H 	0.6847	0.3153	0.0945	0.132
Mof_C 	C 	0.65711	0.34289	0.1499	0.263
Mof_C 	C 	0.62524	0.37476	0.1648	-0.207
Mof_H 	H 	0.6201	0.3799	0.1949	0.139
Mof_C 	C 	0.71207	0.28793	0.1686	-0.003
Mof_C 	C 	0.73111	0.26889	0.21027	0.013
Mof_O 	O 	0.5639	0.4361	0.18911	-0.247
Mof_O 	O 	0.54748	0.45252	0.11998	-0.409
Mof_O 	O 	0.67918	0.32082	0.18225	-0.234
Mof_C 	C 	0.3518	0.06793	0.06793	0.317
Mof_C 	C 	0.3686	0.10191	0.10191	0.069
Mof_C 	C 	0.4108	0.1099	0.1099	-0.213
Mof_H 	H 	0.4319	0.0938	0.0938	0.11
Mof_C 	C 	0.4242	0.1374	0.1374	0.173
Mof_H 	H 	0.4548	0.141	0.141	-0.029
Mof_C 	C 	0.395	0.1641	0.1641	-0.266
Mof_H 	H 	0.4055	0.1847	0.1847	0.131
Mof_C 	C 	0.3501	0.15711	0.15711	0.258
Mof_C 	C 	0.3352	0.12524	0.12524	-0.202
Mof_H 	H 	0.3051	0.1201	0.1201	0.133
Mof_C 	C 	0.3314	0.21207	0.21207	-0.005
Mof_C 	C 	0.28973	0.23111	0.23111	0.014
Mof_O 	O 	0.31089	0.0639	0.0639	-0.26
Mof_O 	O 	0.38002	0.04748	0.04748	-0.42
Mof_O 	O 	0.31775	0.17918	0.17918	-0.235
Mof_C 	C 	0.8518	0.56793	0.56793	0.313
Mof_C 	C 	0.8686	0.60191	0.60191	0.083
Mof_C 	C 	0.9108	0.6099	0.6099	-0.224
Mof_H 	H 	0.9319	0.5938	0.5938	0.122
Mof_C 	C 	0.9242	0.6374	0.6374	0.187
Mof_H 	H 	0.9548	0.641	0.641	-0.025
Mof_C 	C 	0.895	0.6641	0.6641	-0.27
Mof_H 	H 	0.9055	0.6847	0.6847	0.137
Mof_C 	C 	0.8501	0.65711	0.65711	0.265
Mof_C 	C 	0.8352	0.62524	0.62524	-0.207
Mof_H 	H 	0.8051	0.6201	0.6201	0.139
Mof_C 	C 	0.8314	0.71207	0.71207	-0.007
Mof_C 	C 	0.78973	0.73111	0.73111	0.016
Mof_O 	O 	0.81089	0.5639	0.5639	-0.246
Mof_O 	O 	0.88002	0.54748	0.54748	-0.404
Mof_O 	O 	0.81775	0.67918	0.67918	-0.233
Mof_C 	C 	0.3518	0.93207	0.93207	0.307
Mof_C 	C 	0.3686	0.89809	0.89809	0.094
Mof_C 	C 	0.4108	0.8901	0.8901	-0.237
Mof_H 	H 	0.4319	0.9062	0.9062	0.127
Mof_C 	C 	0.4242	0.8626	0.8626	0.2
Mof_H 	H 	0.4548	0.859	0.859	-0.033
Mof_C 	C 	0.395	0.8359	0.8359	-0.279
Mof_H 	H 	0.4055	0.8153	0.8153	0.138
Mof_C 	C 	0.3501	0.84289	0.84289	0.271
Mof_C 	C 	0.3352	0.87476	0.87476	-0.213
Mof_H 	H 	0.3051	0.8799	0.8799	0.145
Mof_C 	C 	0.3314	0.78793	0.78793	-0.005
Mof_C 	C 	0.28973	0.76889	0.76889	0.014
Mof_O 	O 	0.31089	0.9361	0.9361	-0.232
Mof_O 	O 	0.38002	0.95252	0.95252	-0.386
Mof_O 	O 	0.31775	0.82082	0.82082	-0.234
Mof_C 	C 	0.8518	0.43207	0.43207	0.313
Mof_C 	C 	0.8686	0.39809	0.39809	0.082
Mof_C 	C 	0.9108	0.3901	0.3901	-0.223
Mof_H 	H 	0.9319	0.4062	0.4062	0.122
Mof_C 	C 	0.9242	0.3626	0.3626	0.187
Mof_H 	H 	0.9548	0.359	0.359	-0.025
Mof_C 	C 	0.895	0.3359	0.3359	-0.27
Mof_H 	H 	0.9055	0.3153	0.3153	0.136
Mof_C 	C 	0.8501	0.34289	0.34289	0.264
Mof_C 	C 	0.8352	0.37476	0.37476	-0.207
Mof_H 	H 	0.8051	0.3799	0.3799	0.139
Mof_C 	C 	0.8314	0.28793	0.28793	-0.006
Mof_C 	C 	0.78973	0.26889	0.26889	0.014
Mof_O 	O 	0.81089	0.4361	0.4361	-0.246
Mof_O 	O 	0.88002	0.45252	0.45252	-0.404
Mof_O 	O 	0.81775	0.32082	0.32082	-0.233
Mof_C 	C 	0.6482	0.93207	0.06793	0.311
Mof_C 	C 	0.6314	0.89809	0.10191	0.083
Mof_C 	C 	0.5892	0.8901	0.1099	-0.226
Mof_H 	H 	0.5681	0.9062	0.0938	0.119
Mof_C 	C 	0.5758	0.8626	0.1374	0.188
Mof_H 	H 	0.5452	0.859	0.141	-0.032
Mof_C 	C 	0.605	0.8359	0.1641	-0.273
Mof_H 	H 	0.5945	0.8153	0.1847	0.135
Mof_C 	C 	0.6499	0.84289	0.15711	0.265
Mof_C 	C 	0.6648	0.87476	0.12524	-0.209
Mof_H 	H 	0.6949	0.8799	0.1201	0.14
Mof_C 	C 	0.6686	0.78793	0.21207	-0.005
Mof_C 	C 	0.71027	0.76889	0.23111	0.014
Mof_O 	O 	0.68911	0.9361	0.0639	-0.244
Mof_O 	O 	0.61998	0.95252	0.04748	-0.402
Mof_O 	O 	0.68225	0.82082	0.17918	-0.234
Mof_C 	C 	0.1482	0.43207	0.56793	0.314
Mof_C 	C 	0.1314	0.39809	0.60191	0.079
Mof_C 	C 	0.0892	0.3901	0.6099	-0.224
Mof_H 	H 	0.0681	0.4062	0.5938	0.114
Mof_C 	C 	0.0758	0.3626	0.6374	0.184
Mof_H 	H 	0.0452	0.359	0.641	-0.037
Mof_C 	C 	0.105	0.3359	0.6641	-0.273
Mof_H 	H 	0.0945	0.3153	0.6847	0.132
Mof_C 	C 	0.1499	0.34289	0.65711	0.263
Mof_C 	C 	0.1648	0.37476	0.62524	-0.207
Mof_H 	H 	0.1949	0.3799	0.6201	0.139
Mof_C 	C 	0.1686	0.28793	0.71207	-0.003
Mof_C 	C 	0.21027	0.26889	0.73111	0.013
Mof_O 	O 	0.18911	0.4361	0.5639	-0.247
Mof_O 	O 	0.11998	0.45252	0.54748	-0.409
Mof_O 	O 	0.18225	0.32082	0.67918	-0.234
Mof_C 	C 	0.6482	0.06793	0.93207	0.311
Mof_C 	C 	0.6314	0.10191	0.89809	0.083
Mof_C 	C 	0.5892	0.1099	0.8901	-0.226
Mof_H 	H 	0.5681	0.0938	0.9062	0.119
Mof_C 	C 	0.5758	0.1374	0.8626	0.188
Mof_H 	H 	0.5452	0.141	0.859	-0.032
Mof_C 	C 	0.605	0.1641	0.8359	-0.273
Mof_H 	H 	0.5945	0.1847	0.8153	0.135
Mof_C 	C 	0.6499	0.15711	0.84289	0.265
Mof_C 	C 	0.6648	0.12524	0.87476	-0.209
Mof_H 	H 	0.6949	0.1201	0.8799	0.14
Mof_C 	C 	0.6686	0.21207	0.78793	-0.005
Mof_C 	C 	0.71027	0.23111	0.76889	0.014
Mof_O 	O 	0.68911	0.0639	0.9361	-0.244
Mof_O 	O 	0.61998	0.04748	0.95252	-0.402
Mof_O 	O 	0.68225	0.17918	0.82082	-0.234
Mof_C 	C 	0.1482	0.56793	0.43207	0.314
Mof_C 	C 	0.1314	0.60191	0.39809	0.079
Mof_C 	C 	0.0892	0.6099	0.3901	-0.224
Mof_H 	H 	0.0681	0.5938	0.4062	0.114
Mof_C 	C 	0.0758	0.6374	0.3626	0.184
Mof_H 	H 	0.0452	0.641	0.359	-0.037
Mof_C 	C 	0.105	0.6641	0.3359	-0.273
Mof_H 	H 	0.0945	0.6847	0.3153	0.132
Mof_C 	C 	0.1499	0.65711	0.34289	0.263
Mof_C 	C 	0.1648	0.62524	0.37476	-0.207
Mof_H 	H 	0.1949	0.6201	0.3799	0.139
Mof_C 	C 	0.1686	0.71207	0.28793	-0.003
Mof_C 	C 	0.21027	0.73111	0.26889	0.013
Mof_O 	O 	0.18911	0.5639	0.4361	-0.247
Mof_O 	O 	0.11998	0.54748	0.45252	-0.409
Mof_O 	O 	0.18225	0.67918	0.32082	-0.234
Mof_C 	C 	0.06793	0.3518	0.06793	0.317
Mof_C 	C 	0.10191	0.3686	0.10191	0.069
Mof_C 	C 	0.1099	0.4108	0.1099	-0.213
Mof_H 	H 	0.0938	0.4319	0.0938	0.11
Mof_C 	C 	0.1374	0.4242	0.1374	0.173
Mof_H 	H 	0.141	0.4548	0.141	-0.029
Mof_C 	C 	0.1641	0.395	0.1641	-0.266
Mof_H 	H 	0.1847	0.4055	0.1847	0.131
Mof_C 	C 	0.15711	0.3501	0.15711	0.258
Mof_C 	C 	0.12524	0.3352	0.12524	-0.202
Mof_H 	H 	0.1201	0.3051	0.1201	0.133
Mof_C 	C 	0.21207	0.3314	0.21207	-0.005
Mof_C 	C 	0.23111	0.28973	0.23111	0.014
Mof_O 	O 	0.0639	0.31089	0.0639	-0.26
Mof_O 	O 	0.04748	0.38002	0.04748	-0.42
Mof_O 	O 	0.17918	0.31775	0.17918	-0.235
Mof_C 	C 	0.56793	0.8518	0.56793	0.313
Mof_C 	C 	0.60191	0.8686	0.60191	0.083
Mof_C 	C 	0.6099	0.9108	0.6099	-0.224
Mof_H 	H 	0.5938	0.9319	0.5938	0.122
Mof_C 	C 	0.6374	0.9242	0.6374	0.187
Mof_H 	H 	0.641	0.9548	0.641	-0.025
Mof_C 	C 	0.6641	0.895	0.6641	-0.27
Mof_H 	H 	0.6847	0.9055	0.6847	0.137
Mof_C 	C 	0.65711	0.8501	0.65711	0.265
Mof_C 	C 	0.62524	0.8352	0.62524	-0.207
Mof_H 	H 	0.6201	0.8051	0.6201	0.139
Mof_C 	C 	0.71207	0.8314	0.71207	-0.007
Mof_C 	C 	0.73111	0.78973	0.73111	0.016
Mof_O 	O 	0.5639	0.81089	0.5639	-0.246
Mof_O 	O 	0.54748	0.88002	0.54748	-0.404
Mof_O 	O 	0.67918	0.81775	0.67918	-0.233
Mof_C 	C 	0.93207	0.3518	0.93207	0.307
Mof_C 	C 	0.89809	0.3686	0.89809	0.094
Mof_C 	C 	0.8901	0.4108	0.8901	-0.237
Mof_H 	H 	0.9062	0.4319	0.9062	0.127
Mof_C 	C 	0.8626	0.4242	0.8626	0.2
Mof_H 	H 	0.859	0.4548	0.859	-0.033
Mof_C 	C 	0.8359	0.395	0.8359	-0.279
Mof_H 	H 	0.8153	0.4055	0.8153	0.138
Mof_C 	C 	0.84289	0.3501	0.84289	0.271
Mof_C 	C 	0.87476	0.3352	0.87476	-0.213
Mof_H 	H 	0.8799	0.3051	0.8799	0.145
Mof_C 	C 	0.78793	0.3314	0.78793	-0.005
Mof_C 	C 	0.76889	0.28973	0.76889	0.014
Mof_O 	O 	0.9361	0.31089	0.9361	-0.232
Mof_O 	O 	0.95252	0.38002	0.95252	-0.386
Mof_O 	O 	0.82082	0.31775	0.82082	-0.234
Mof_C 	C 	0.43207	0.8518	0.43207	0.313
Mof_C 	C 	0.39809	0.8686	0.39809	0.082
Mof_C 	C 	0.3901	0.9108	0.3901	-0.223
Mof_H 	H 	0.4062	0.9319	0.4062	0.122
Mof_C 	C 	0.3626	0.9242	0.3626	0.187
Mof_H 	H 	0.359	0.9548	0.359	-0.025
Mof_C 	C 	0.3359	0.895	0.3359	-0.27
Mof_H 	H 	0.3153	0.9055	0.3153	0.136
Mof_C 	C 	0.34289	0.8501	0.34289	0.264
Mof_C 	C 	0.37476	0.8352	0.37476	-0.207
Mof_H 	H 	0.3799	0.8051	0.3799	0.139
Mof_C 	C 	0.28793	0.8314	0.28793	-0.006
Mof_C 	C 	0.26889	0.78973	0.26889	0.014
Mof_O 	O 	0.4361	0.81089	0.4361	-0.246
Mof_O 	O 	0.45252	0.88002	0.45252	-0.404
Mof_O 	O 	0.32082	0.81775	0.32082	-0.233
Mof_C 	C 	0.06793	0.6482	0.93207	0.311
Mof_C 	C 	0.10191	0.6314	0.89809	0.083
Mof_C 	C 	0.1099	0.5892	0.8901	-0.226
Mof_H 	H 	0.0938	0.5681	0.9062	0.119
Mof_C 	C 	0.1374	0.5758	0.8626	0.188
Mof_H 	H 	0.141	0.5452	0.859	-0.032
Mof_C 	C 	0.1641	0.605	0.8359	-0.273
Mof_H 	H 	0.1847	0.5945	0.8153	0.135
Mof_C 	C 	0.15711	0.6499	0.84289	0.265
Mof_C 	C 	0.12524	0.6648	0.87476	-0.209
Mof_H 	H 	0.1201	0.6949	0.8799	0.14
Mof_C 	C 	0.21207	0.6686	0.78793	-0.005
Mof_C 	C 	0.23111	0.71027	0.76889	0.014
Mof_O 	O 	0.0639	0.68911	0.9361	-0.244
Mof_O 	O 	0.04748	0.61998	0.95252	-0.402
Mof_O 	O 	0.17918	0.68225	0.82082	-0.234
Mof_C 	C 	0.56793	0.1482	0.43207	0.314
Mof_C 	C 	0.60191	0.1314	0.39809	0.079
Mof_C 	C 	0.6099	0.0892	0.3901	-0.224
Mof_H 	H 	0.5938	0.0681	0.4062	0.114
Mof_C 	C 	0.6374	0.0758	0.3626	0.184
Mof_H 	H 	0.641	0.0452	0.359	-0.037
Mof_C 	C 	0.6641	0.105	0.3359	-0.273
Mof_H 	H 	0.6847	0.0945	0.3153	0.132
Mof_C 	C 	0.65711	0.1499	0.34289	0.263
Mof_C 	C 	0.62524	0.1648	0.37476	-0.207
Mof_H 	H 	0.6201	0.1949	0.3799	0.139
Mof_C 	C 	0.71207	0.1686	0.28793	-0.003
Mof_C 	C 	0.73111	0.21027	0.26889	0.013
Mof_O 	O 	0.5639	0.18911	0.4361	-0.247
Mof_O 	O 	0.54748	0.11998	0.45252	-0.409
Mof_O 	O 	0.67918	0.18225	0.32082	-0.234
Mof_C 	C 	0.93207	0.6482	0.06793	0.311
Mof_C 	C 	0.89809	0.6314	0.10191	0.083
Mof_C 	C 	0.8901	0.5892	0.1099	-0.226
Mof_H 	H 	0.9062	0.5681	0.0938	0.119
Mof_C 	C 	0.8626	0.5758	0.1374	0.188
Mof_H 	H 	0.859	0.5452	0.141	-0.032
Mof_C 	C 	0.8359	0.605	0.1641	-0.273
Mof_H 	H 	0.8153	0.5945	0.1847	0.135
Mof_C 	C 	0.84289	0.6499	0.15711	0.265
Mof_C 	C 	0.87476	0.6648	0.12524	-0.209
Mof_H 	H 	0.8799	0.6949	0.1201	0.14
Mof_C 	C 	0.78793	0.6686	0.21207	-0.005
Mof_C 	C 	0.76889	0.71027	0.23111	0.014
Mof_O 	O 	0.9361	0.68911	0.0639	-0.244
Mof_O 	O 	0.95252	0.61998	0.04748	-0.402
Mof_O 	O 	0.82082	0.68225	0.17918	-0.234
Mof_C 	C 	0.43207	0.1482	0.56793	0.314
Mof_C 	C 	0.39809	0.1314	0.60191	0.079
Mof_C 	C 	0.3901	0.0892	0.6099	-0.224
Mof_H 	H 	0.4062	0.0681	0.5938	0.114
Mof_C 	C 	0.3626	0.0758	0.6374	0.184
Mof_H 	H 	0.359	0.0452	0.641	-0.037
Mof_C 	C 	0.3359	0.105	0.6641	-0.273
Mof_H 	H 	0.3153	0.0945	0.6847	0.132
Mof_C 	C 	0.34289	0.1499	0.65711	0.263
Mof_C 	C 	0.37476	0.1648	0.62524	-0.207
Mof_H 	H 	0.3799	0.1949	0.6201	0.139
Mof_C 	C 	0.28793	0.1686	0.71207	-0.003
Mof_C 	C 	0.26889	0.21027	0.73111	0.013
Mof_O 	O 	0.4361	0.18911	0.5639	-0.247
Mof_O 	O 	0.45252	0.11998	0.54748	-0.409
Mof_O 	O 	0.32082	0.18225	0.67918	-0.234
Mof_C 	C 	0.06793	0.06793	0.6482	0.316
Mof_C 	C 	0.10191	0.10191	0.6314	0.07
Mof_C 	C 	0.1099	0.1099	0.5892	-0.214
Mof_H 	H 	0.0938	0.0938	0.5681	0.11
Mof_C 	C 	0.1374	0.1374	0.5758	0.175
Mof_H 	H 	0.141	0.141	0.5452	-0.03
Mof_C 	C 	0.1641	0.1641	0.605	-0.267
Mof_H 	H 	0.1847	0.1847	0.5945	0.131
Mof_C 	C 	0.15711	0.15711	0.6499	0.259
Mof_C 	C 	0.12524	0.12524	0.6648	-0.203
Mof_H 	H 	0.1201	0.1201	0.6949	0.135
Mof_C 	C 	0.21207	0.21207	0.6686	-0.005
Mof_C 	C 	0.23111	0.23111	0.71027	0.014
Mof_O 	O 	0.0639	0.0639	0.68911	-0.258
Mof_O 	O 	0.04748	0.04748	0.61998	-0.419
Mof_O 	O 	0.17918	0.17918	0.68225	-0.234
Mof_C 	C 	0.56793	0.56793	0.1482	0.314
Mof_C 	C 	0.60191	0.60191	0.1314	0.079
Mof_C 	C 	0.6099	0.6099	0.0892	-0.224
Mof_H 	H 	0.5938	0.5938	0.0681	0.114
Mof_C 	C 	0.6374	0.6374	0.0758	0.185
Mof_H 	H 	0.641	0.641	0.0452	-0.037
Mof_C 	C 	0.6641	0.6641	0.105	-0.273
Mof_H 	H 	0.6847	0.6847	0.0945	0.132
Mof_C 	C 	0.65711	0.65711	0.1499	0.264
Mof_C 	C 	0.62524	0.62524	0.1648	-0.207
Mof_H 	H 	0.6201	0.6201	0.1949	0.139
Mof_C 	C 	0.71207	0.71207	0.1686	-0.004
Mof_C 	C 	0.73111	0.73111	0.21027	0.014
Mof_O 	O 	0.5639	0.5639	0.18911	-0.247
Mof_O 	O 	0.54748	0.54748	0.11998	-0.409
Mof_O 	O 	0.67918	0.67918	0.18225	-0.234
Mof_C 	C 	0.93207	0.93207	0.6482	0.307
Mof_C 	C 	0.89809	0.89809	0.6314	0.096
Mof_C 	C 	0.8901	0.8901	0.5892	-0.238
Mof_H 	H 	0.9062	0.9062	0.5681	0.128
Mof_C 	C 	0.8626	0.8626	0.5758	0.201
Mof_H 	H 	0.859	0.859	0.5452	-0.034
Mof_C 	C 	0.8359	0.8359	0.605	-0.279
Mof_H 	H 	0.8153	0.8153	0.5945	0.138
Mof_C 	C 	0.84289	0.84289	0.6499	0.271
Mof_C 	C 	0.87476	0.87476	0.6648	-0.214
Mof_H 	H 	0.8799	0.8799	0.6949	0.146
Mof_C 	C 	0.78793	0.78793	0.6686	-0.004
Mof_C 	C 	0.76889	0.76889	0.71027	0.014
Mof_O 	O 	0.9361	0.9361	0.68911	-0.23
Mof_O 	O 	0.95252	0.95252	0.61998	-0.386
Mof_O 	O 	0.82082	0.82082	0.68225	-0.233
Mof_C 	C 	0.43207	0.43207	0.1482	0.314
Mof_C 	C 	0.39809	0.39809	0.1314	0.079
Mof_C 	C 	0.3901	0.3901	0.0892	-0.224
Mof_H 	H 	0.4062	0.4062	0.0681	0.114
Mof_C 	C 	0.3626	0.3626	0.0758	0.184
Mof_H 	H 	0.359	0.359	0.0452	-0.037
Mof_C 	C 	0.3359	0.3359	0.105	-0.273
Mof_H 	H 	0.3153	0.3153	0.0945	0.132
Mof_C 	C 	0.34289	0.34289	0.1499	0.263
Mof_C 	C 	0.37476	0.37476	0.1648	-0.207
Mof_H 	H 	0.3799	0.3799	0.1949	0.139
Mof_C 	C 	0.28793	0.28793	0.1686	-0.003
Mof_C 	C 	0.26889	0.26889	0.21027	0.012
Mof_O 	O 	0.4361	0.4361	0.18911	-0.247
Mof_O 	O 	0.45252	0.45252	0.11998	-0.409
Mof_O 	O 	0.32082	0.32082	0.18225	-0.234
Mof_C 	C 	0.06793	0.93207	0.3518	0.312
Mof_C 	C 	0.10191	0.89809	0.3686	0.082
Mof_C 	C 	0.1099	0.8901	0.4108	-0.225
Mof_H 	H 	0.0938	0.9062	0.4319	0.119
Mof_C 	C 	0.1374	0.8626	0.4242	0.187
Mof_H 	H 	0.141	0.859	0.4548	-0.031
Mof_C 	C 	0.1641	0.8359	0.395	-0.272
Mof_H 	H 	0.1847	0.8153	0.4055	0.134
Mof_C 	C 	0.15711	0.84289	0.3501	0.264
Mof_C 	C 	0.12524	0.87476	0.3352	-0.208
Mof_H 	H 	0.1201	0.8799	0.3051	0.139
Mof_C 	C 	0.21207	0.78793	0.3314	-0.005
Mof_C 	C 	0.23111	0.76889	0.28973	0.014
Mof_O 	O 	0.0639	0.9361	0.31089	-0.246
Mof_O 	O 	0.04748	0.95252	0.38002	-0.402
Mof_O 	O 	0.17918	0.82082	0.31775	-0.234
Mof_C 	C 	0.56793	0.43207	0.8518	0.313
Mof_C 	C 	0.60191	0.39809	0.8686	0.083
Mof_C 	C 	0.6099	0.3901	0.9108	-0.223
Mof_H 	H 	0.5938	0.4062	0.9319	0.122
Mof_C 	C 	0.6374	0.3626	0.9242	0.187
Mof_H 	H 	0.641	0.359	0.9548	-0.025
Mof_C 	C 	0.6641	0.3359	0.895	-0.27
Mof_H 	H 	0.6847	0.3153	0.9055	0.137
Mof_C 	C 	0.65711	0.34289	0.8501	0.265
Mof_C 	C 	0.62524	0.37476	0.8352	-0.207
Mof_H 	H 	0.6201	0.3799	0.8051	0.139
Mof_C 	C 	0.71207	0.28793	0.8314	-0.007
Mof_C 	C 	0.73111	0.26889	0.78973	0.015
Mof_O 	O 	0.5639	0.4361	0.81089	-0.246
Mof_O 	O 	0.54748	0.45252	0.88002	-0.404
Mof_O 	O 	0.67918	0.32082	0.81775	-0.233
Mof_C 	C 	0.93207	0.06793	0.3518	0.312
Mof_C 	C 	0.89809	0.10191	0.3686	0.082
Mof_C 	C 	0.8901	0.1099	0.4108	-0.225
Mof_H 	H 	0.9062	0.0938	0.4319	0.119
Mof_C 	C 	0.8626	0.1374	0.4242	0.187
Mof_H 	H 	0.859	0.141	0.4548	-0.031
Mof_C 	C 	0.8359	0.1641	0.395	-0.272
Mof_H 	H 	0.8153	0.1847	0.4055	0.134
Mof_C 	C 	0.84289	0.15711	0.3501	0.264
Mof_C 	C 	0.87476	0.12524	0.3352	-0.208
Mof_H 	H 	0.8799	0.1201	0.3051	0.139
Mof_C 	C 	0.78793	0.21207	0.3314	-0.005
Mof_C 	C 	0.76889	0.23111	0.28973	0.014
Mof_O 	O 	0.9361	0.0639	0.31089	-0.246
Mof_O 	O 	0.95252	0.04748	0.38002	-0.402
Mof_O 	O 	0.82082	0.17918	0.31775	-0.234
Mof_C 	C 	0.43207	0.56793	0.8518	0.313
Mof_C 	C 	0.39809	0.60191	0.8686	0.083
Mof_C 	C 	0.3901	0.6099	0.9108	-0.223
Mof_H 	H 	0.4062	0.5938	0.9319	0.122
Mof_C 	C 	0.3626	0.6374	0.9242	0.187
Mof_H 	H 	0.359	0.641	0.9548	-0.025
Mof_C 	C 	0.3359	0.6641	0.895	-0.27
Mof_H 	H 	0.3153	0.6847	0.9055	0.137
Mof_C 	C 	0.34289	0.65711	0.8501	0.265
Mof_C 	C 	0.37476	0.62524	0.8352	-0.207
Mof_H 	H 	0.3799	0.6201	0.8051	0.139
Mof_C 	C 	0.28793	0.71207	0.8314	-0.007
Mof_C 	C 	0.26889	0.73111	0.78973	0.015
Mof_O 	O 	0.4361	0.5639	0.81089	-0.246
Mof_O 	O 	0.45252	0.54748	0.88002	-0.404
Mof_O 	O 	0.32082	0.67918	0.81775	-0.233
Mof_C 	C 	0.06793	0.3518	0.93207	0.312
Mof_C 	C 	0.10191	0.3686	0.89809	0.082
Mof_C 	C 	0.1099	0.4108	0.8901	-0.225
Mof_H 	H 	0.0938	0.4319	0.9062	0.119
Mof_C 	C 	0.1374	0.4242	0.8626	0.187
Mof_H 	H 	0.141	0.4548	0.859	-0.031
Mof_C 	C 	0.1641	0.395	0.8359	-0.272
Mof_H 	H 	0.1847	0.4055	0.8153	0.134
Mof_C 	C 	0.15711	0.3501	0.84289	0.264
Mof_C 	C 	0.12524	0.3352	0.87476	-0.208
Mof_H 	H 	0.1201	0.3051	0.8799	0.139
Mof_C 	C 	0.21207	0.3314	0.78793	-0.005
Mof_C 	C 	0.23111	0.28973	0.76889	0.014
Mof_O 	O 	0.0639	0.31089	0.9361	-0.246
Mof_O 	O 	0.04748	0.38002	0.95252	-0.402
Mof_O 	O 	0.17918	0.31775	0.82082	-0.234
Mof_C 	C 	0.56793	0.8518	0.43207	0.313
Mof_C 	C 	0.60191	0.8686	0.39809	0.083
Mof_C 	C 	0.6099	0.9108	0.3901	-0.223
Mof_H 	H 	0.5938	0.9319	0.4062	0.122
Mof_C 	C 	0.6374	0.9242	0.3626	0.187
Mof_H 	H 	0.641	0.9548	0.359	-0.025
Mof_C 	C 	0.6641	0.895	0.3359	-0.27
Mof_H 	H 	0.6847	0.9055	0.3153	0.137
Mof_C 	C 	0.65711	0.8501	0.34289	0.265
Mof_C 	C 	0.62524	0.8352	0.37476	-0.207
Mof_H 	H 	0.6201	0.8051	0.3799	0.139
Mof_C 	C 	0.71207	0.8314	0.28793	-0.007
Mof_C 	C 	0.73111	0.78973	0.26889	0.015
Mof_O 	O 	0.5639	0.81089	0.4361	-0.246
Mof_O 	O 	0.54748	0.88002	0.45252	-0.404
Mof_O 	O 	0.67918	0.81775	0.32082	-0.233
Mof_C 	C 	0.93207	0.3518	0.06793	0.312
Mof_C 	C 	0.89809	0.3686	0.10191	0.082
Mof_C 	C 	0.8901	0.4108	0.1099	-0.225
Mof_H 	H 	0.9062	0.4319	0.0938	0.119
Mof_C 	C 	0.8626	0.4242	0.1374	0.187
Mof_H 	H 	0.859	0.4548	0.141	-0.031
Mof_C 	C 	0.8359	0.395	0.1641	-0.272
Mof_H 	H 	0.8153	0.4055	0.1847	0.134
Mof_C 	C 	0.84289	0.3501	0.15711	0.264
Mof_C 	C 	0.87476	0.3352	0.12524	-0.208
Mof_H 	H 	0.8799	0.3051	0.1201	0.139
Mof_C 	C 	0.78793	0.3314	0.21207	-0.005
Mof_C 	C 	0.76889	0.28973	0.23111	0.014
Mof_O 	O 	0.9361	0.31089	0.0639	-0.246
Mof_O 	O 	0.95252	0.38002	0.04748	-0.402
Mof_O 	O 	0.82082	0.31775	0.17918	-0.234
Mof_C 	C 	0.43207	0.8518	0.56793	0.313
Mof_C 	C 	0.39809	0.8686	0.60191	0.083
Mof_C 	C 	0.3901	0.9108	0.6099	-0.223
Mof_H 	H 	0.4062	0.9319	0.5938	0.122
Mof_C 	C 	0.3626	0.9242	0.6374	0.187
Mof_H 	H 	0.359	0.9548	0.641	-0.025
Mof_C 	C 	0.3359	0.895	0.6641	-0.27
Mof_H 	H 	0.3153	0.9055	0.6847	0.137
Mof_C 	C 	0.34289	0.8501	0.65711	0.265
Mof_C 	C 	0.37476	0.8352	0.62524	-0.207
Mof_H 	H 	0.3799	0.8051	0.6201	0.139
Mof_C 	C 	0.28793	0.8314	0.71207	-0.007
Mof_C 	C 	0.26889	0.78973	0.73111	0.015
Mof_O 	O 	0.4361	0.81089	0.5639	-0.246
Mof_O 	O 	0.45252	0.88002	0.54748	-0.404
Mof_O 	O 	0.32082	0.81775	0.67918	-0.233
Mof_C 	C 	0.93207	0.6482	0.93207	0.307
Mof_C 	C 	0.89809	0.6314	0.89809	0.096
Mof_C 	C 	0.8901	0.5892	0.8901	-0.238
Mof_H 	H 	0.9062	0.5681	0.9062	0.128
Mof_C 	C 	0.8626	0.5758	0.8626	0.201
Mof_H 	H 	0.859	0.5452	0.859	-0.034
Mof_C 	C 	0.8359	0.605	0.8359	-0.279
Mof_H 	H 	0.8153	0.5945	0.8153	0.138
Mof_C 	C 	0.84289	0.6499	0.84289	0.271
Mof_C 	C 	0.87476	0.6648	0.87476	-0.214
Mof_H 	H 	0.8799	0.6949	0.8799	0.146
Mof_C 	C 	0.78793	0.6686	0.78793	-0.004
Mof_C 	C 	0.76889	0.71027	0.76889	0.014
Mof_O 	O 	0.9361	0.68911	0.9361	-0.23
Mof_O 	O 	0.95252	0.61998	0.95252	-0.386
Mof_O 	O 	0.82082	0.68225	0.82082	-0.233
Mof_C 	C 	0.43207	0.1482	0.43207	0.314
Mof_C 	C 	0.39809	0.1314	0.39809	0.079
Mof_C 	C 	0.3901	0.0892	0.3901	-0.224
Mof_H 	H 	0.4062	0.0681	0.4062	0.114
Mof_C 	C 	0.3626	0.0758	0.3626	0.184
Mof_H 	H 	0.359	0.0452	0.359	-0.037
Mof_C 	C 	0.3359	0.105	0.3359	-0.273
Mof_H 	H 	0.3153	0.0945	0.3153	0.132
Mof_C 	C 	0.34289	0.1499	0.34289	0.263
Mof_C 	C 	0.37476	0.1648	0.37476	-0.207
Mof_H 	H 	0.3799	0.1949	0.3799	0.139
Mof_C 	C 	0.28793	0.1686	0.28793	-0.003
Mof_C 	C 	0.26889	0.21027	0.26889	0.012
Mof_O 	O 	0.4361	0.18911	0.4361	-0.247
Mof_O 	O 	0.45252	0.11998	0.45252	-0.409
Mof_O 	O 	0.32082	0.18225	0.32082	-0.234
Mof_C 	C 	0.06793	0.6482	0.06793	0.316
Mof_C 	C 	0.10191	0.6314	0.10191	0.07
Mof_C 	C 	0.1099	0.5892	0.1099	-0.214
Mof_H 	H 	0.0938	0.5681	0.0938	0.11
Mof_C 	C 	0.1374	0.5758	0.1374	0.175
Mof_H 	H 	0.141	0.5452	0.141	-0.03
Mof_C 	C 	0.1641	0.605	0.1641	-0.267
Mof_H 	H 	0.1847	0.5945	0.1847	0.131
Mof_C 	C 	0.15711	0.6499	0.15711	0.259
Mof_C 	C 	0.12524	0.6648	0.12524	-0.203
Mof_H 	H 	0.1201	0.6949	0.1201	0.135
Mof_C 	C 	0.21207	0.6686	0.21207	-0.005
Mof_C 	C 	0.23111	0.71027	0.23111	0.014
Mof_O 	O 	0.0639	0.68911	0.0639	-0.258
Mof_O 	O 	0.04748	0.61998	0.04748	-0.419
Mof_O 	O 	0.17918	0.68225	0.17918	-0.234
Mof_C 	C 	0.56793	0.1482	0.56793	0.314
Mof_C 	C 	0.60191	0.1314	0.60191	0.079
Mof_C 	C 	0.6099	0.0892	0.6099	-0.224
Mof_H 	H 	0.5938	0.0681	0.5938	0.114
Mof_C 	C 	0.6374	0.0758	0.6374	0.185
Mof_H 	H 	0.641	0.0452	0.641	-0.037
Mof_C 	C 	0.6641	0.105	0.6641	-0.273
Mof_H 	H 	0.6847	0.0945	0.6847	0.132
Mof_C 	C 	0.65711	0.1499	0.65711	0.264
Mof_C 	C 	0.62524	0.1648	0.62524	-0.207
Mof_H 	H 	0.6201	0.1949	0.6201	0.139
Mof_C 	C 	0.71207	0.1686	0.71207	-0.004
Mof_C 	C 	0.73111	0.21027	0.73111	0.014
Mof_O 	O 	0.5639	0.18911	0.5639	-0.247
Mof_O 	O 	0.54748	0.11998	0.54748	-0.409
Mof_O 	O 	0.67918	0.18225	0.67918	-0.234
Mof_C 	C 	0.3518	0.06793	0.93207	0.312
Mof_C 	C 	0.3686	0.10191	0.89809	0.082
Mof_C 	C 	0.4108	0.1099	0.8901	-0.225
Mof_H 	H 	0.4319	0.0938	0.9062	0.119
Mof_C 	C 	0.4242	0.1374	0.8626	0.187
Mof_H 	H 	0.4548	0.141	0.859	-0.031
Mof_C 	C 	0.395	0.1641	0.8359	-0.272
Mof_H 	H 	0.4055	0.1847	0.8153	0.134
Mof_C 	C 	0.3501	0.15711	0.84289	0.264
Mof_C 	C 	0.3352	0.12524	0.87476	-0.208
Mof_H 	H 	0.3051	0.1201	0.8799	0.139
Mof_C 	C 	0.3314	0.21207	0.78793	-0.005
Mof_C 	C 	0.28973	0.23111	0.76889	0.014
Mof_O 	O 	0.31089	0.0639	0.9361	-0.246
Mof_O 	O 	0.38002	0.04748	0.95252	-0.402
Mof_O 	O 	0.31775	0.17918	0.82082	-0.234
Mof_C 	C 	0.8518	0.56793	0.43207	0.313
Mof_C 	C 	0.8686	0.60191	0.39809	0.083
Mof_C 	C 	0.9108	0.6099	0.3901	-0.223
Mof_H 	H 	0.9319	0.5938	0.4062	0.122
Mof_C 	C 	0.9242	0.6374	0.3626	0.187
Mof_H 	H 	0.9548	0.641	0.359	-0.025
Mof_C 	C 	0.895	0.6641	0.3359	-0.27
Mof_H 	H 	0.9055	0.6847	0.3153	0.137
Mof_C 	C 	0.8501	0.65711	0.34289	0.265
Mof_C 	C 	0.8352	0.62524	0.37476	-0.207
Mof_H 	H 	0.8051	0.6201	0.3799	0.139
Mof_C 	C 	0.8314	0.71207	0.28793	-0.007
Mof_C 	C 	0.78973	0.73111	0.26889	0.015
Mof_O 	O 	0.81089	0.5639	0.4361	-0.246
Mof_O 	O 	0.88002	0.54748	0.45252	-0.404
Mof_O 	O 	0.81775	0.67918	0.32082	-0.233
Mof_C 	C 	0.3518	0.93207	0.06793	0.312
Mof_C 	C 	0.3686	0.89809	0.10191	0.082
Mof_C 	C 	0.4108	0.8901	0.1099	-0.225
Mof_H 	H 	0.4319	0.9062	0.0938	0.119
Mof_C 	C 	0.4242	0.8626	0.1374	0.187
Mof_H 	H 	0.4548	0.859	0.141	-0.031
Mof_C 	C 	0.395	0.8359	0.1641	-0.272
Mof_H 	H 	0.4055	0.8153	0.1847	0.134
Mof_C 	C 	0.3501	0.84289	0.15711	0.264
Mof_C 	C 	0.3352	0.87476	0.12524	-0.208
Mof_H 	H 	0.3051	0.8799	0.1201	0.139
Mof_C 	C 	0.3314	0.78793	0.21207	-0.005
Mof_C 	C 	0.28973	0.76889	0.23111	0.014
Mof_O 	O 	0.31089	0.9361	0.0639	-0.246
Mof_O 	O 	0.38002	0.95252	0.04748	-0.402
Mof_O 	O 	0.31775	0.82082	0.17918	-0.234
Mof_C 	C 	0.8518	0.43207	0.56793	0.313
Mof_C 	C 	0.8686	0.39809	0.60191	0.083
Mof_C 	C 	0.9108	0.3901	0.6099	-0.223
Mof_H 	H 	0.9319	0.4062	0.5938	0.122
Mof_C 	C 	0.9242	0.3626	0.6374	0.187
Mof_H 	H 	0.9548	0.359	0.641	-0.025
Mof_C 	C 	0.895	0.3359	0.6641	-0.27
Mof_H 	H 	0.9055	0.3153	0.6847	0.137
Mof_C 	C 	0.8501	0.34289	0.65711	0.265
Mof_C 	C 	0.8352	0.37476	0.62524	-0.207
Mof_H 	H 	0.8051	0.3799	0.6201	0.139
Mof_C 	C 	0.8314	0.28793	0.71207	-0.007
Mof_C 	C 	0.78973	0.26889	0.73111	0.015
Mof_O 	O 	0.81089	0.4361	0.5639	-0.246
Mof_O 	O 	0.88002	0.45252	0.54748	-0.404
Mof_O 	O 	0.81775	0.32082	0.67918	-0.233
Mof_C 	C 	0.6482	0.06793	0.06793	0.316
Mof_C 	C 	0.6314	0.10191	0.10191	0.07
Mof_C 	C 	0.5892	0.1099	0.1099	-0.214
Mof_H 	H 	0.5681	0.0938	0.0938	0.11
Mof_C 	C 	0.5758	0.1374	0.1374	0.175
Mof_H 	H 	0.5452	0.141	0.141	-0.03
Mof_C 	C 	0.605	0.1641	0.1641	-0.267
Mof_H 	H 	0.5945	0.1847	0.1847	0.131
Mof_C 	C 	0.6499	0.15711	0.15711	0.259
Mof_C 	C 	0.6648	0.12524	0.12524	-0.203
Mof_H 	H 	0.6949	0.1201	0.1201	0.135
Mof_C 	C 	0.6686	0.21207	0.21207	-0.005
Mof_C 	C 	0.71027	0.23111	0.23111	0.014
Mof_O 	O 	0.68911	0.0639	0.0639	-0.258
Mof_O 	O 	0.61998	0.04748	0.04748	-0.419
Mof_O 	O 	0.68225	0.17918	0.17918	-0.234
Mof_C 	C 	0.1482	0.56793	0.56793	0.314
Mof_C 	C 	0.1314	0.60191	0.60191	0.079
Mof_C 	C 	0.0892	0.6099	0.6099	-0.224
Mof_H 	H 	0.0681	0.5938	0.5938	0.114
Mof_C 	C 	0.0758	0.6374	0.6374	0.185
Mof_H 	H 	0.0452	0.641	0.641	-0.037
Mof_C 	C 	0.105	0.6641	0.6641	-0.273
Mof_H 	H 	0.0945	0.6847	0.6847	0.132
Mof_C 	C 	0.1499	0.65711	0.65711	0.264
Mof_C 	C 	0.1648	0.62524	0.62524	-0.207
Mof_H 	H 	0.1949	0.6201	0.6201	0.139
Mof_C 	C 	0.1686	0.71207	0.71207	-0.004
Mof_C 	C 	0.21027	0.73111	0.73111	0.014
Mof_O 	O 	0.18911	0.5639	0.5639	-0.247
Mof_O 	O 	0.11998	0.54748	0.54748	-0.409
Mof_O 	O 	0.18225	0.67918	0.67918	-0.234
Mof_C 	C 	0.6482	0.93207	0.93207	0.307
Mof_C 	C 	0.6314	0.89809	0.89809	0.096
Mof_C 	C 	0.5892	0.8901	0.8901	-0.238
Mof_H 	H 	0.5681	0.9062	0.9062	0.128
Mof_C 	C 	0.5758	0.8626	0.8626	0.201
Mof_H 	H 	0.5452	0.859	0.859	-0.034
Mof_C 	C 	0.605	0.8359	0.8359	-0.279
Mof_H 	H 	0.5945	0.8153	0.8153	0.138
Mof_C 	C 	0.6499	0.84289	0.84289	0.271
Mof_C 	C 	0.6648	0.87476	0.87476	-0.214
Mof_H 	H 	0.6949	0.8799	0.8799	0.146
Mof_C 	C 	0.6686	0.78793	0.78793	-0.004
Mof_C 	C 	0.71027	0.76889	0.76889	0.014
Mof_O 	O 	0.68911	0.9361	0.9361	-0.23
Mof_O 	O 	0.61998	0.95252	0.95252	-0.386
Mof_O 	O 	0.68225	0.82082	0.82082	-0.233
Mof_C 	C 	0.1482	0.43207	0.43207	0.314
Mof_C 	C 	0.1314	0.39809	0.39809	0.079
Mof_C 	C 	0.0892	0.3901	0.3901	-0.224
Mof_H 	H 	0.0681	0.4062	0.4062	0.114
Mof_C 	C 	0.0758	0.3626	0.3626	0.184
Mof_H 	H 	0.0452	0.359	0.359	-0.037
Mof_C 	C 	0.105	0.3359	0.3359	-0.273
Mof_H 	H 	0.0945	0.3153	0.3153	0.132
Mof_C 	C 	0.1499	0.34289	0.34289	0.263
Mof_C 	C 	0.1648	0.37476	0.37476	-0.207
Mof_H 	H 	0.1949	0.3799	0.3799	0.139
Mof_C 	C 	0.1686	0.28793	0.28793	-0.003
Mof_C 	C 	0.21027	0.26889	0.26889	0.012
Mof_O 	O 	0.18911	0.4361	0.4361	-0.247
Mof_O 	O 	0.11998	0.45252	0.45252	-0.409
Mof_O 	O 	0.18225	0.32082	0.32082	-0.234
_end
