data_functionalizedCrystal
_audit_creation_method	'EQeq! by Chris Wilmer'
_symmetry_space_group_name_H-M	'P1'
_symmetry_Int_Tables_number	1
_symmetry_cell_setting	triclinic
loop_
_symmetry_equiv_pos_as_xyz
  x,y,z
_cell_length_a	14.3847
_cell_length_b	12.2888
_cell_length_c	16.6029
_cell_angle_alpha	90
_cell_angle_beta	90
_cell_angle_gamma	90
loop_
_atom_site_label
_atom_site_type_symbol
_atom_site_fract_x
_atom_site_fract_y
_atom_site_fract_z
_atom_site_charge
Mof_Mn	Mn	0.10689	0.47768	0.92615	0.948
Mof_O 	O 	0.2903	0.5225	0.5225	-0.335
Mof_O 	O 	0.2958	0.374	0.4509	-0.296
Mof_O 	O 	0.0985	0.3346	0.8411	-0.302
Mof_O 	O 	0.9994	0.074	0.6291	-0.334
Mof_C 	C 	0.1481	0.2816	0.5444	0.045
Mof_H 	H 	0.1497	0.2578	0.4912	0.046
Mof_O 	O 	0.017	0.1193	0.5007	-0.373
Mof_C 	C 	0.2652	0.4266	0.5092	0.319
Mof_C 	C 	0.1952	0.4083	0.6465	0.027
Mof_H 	H 	0.2264	0.4714	0.6615	0.063
Mof_C 	C 	0.1407	0.3905	0.7889	0.304
Mof_C 	C 	0.2005	0.3723	0.567	-0.079
Mof_C 	C 	0.0336	0.1336	0.5742	0.346
Mof_O 	O 	0.1794	0.4782	0.8062	-0.303
Mof_C 	C 	0.0934	0.2607	0.6794	0.035
Mof_H 	H 	0.0589	0.2225	0.7174	0.061
Mof_C 	C 	0.0932	0.2263	0.6003	-0.094
Mof_C 	C 	0.1441	0.3515	0.7033	-0.071
Mof_Mn	Mn	0.39311	0.52232	0.42615	0.948
Mof_O 	O 	0.2097	0.4775	0.0225	-0.337
Mof_O 	O 	0.2042	0.626	0.9509	-0.3
Mof_O 	O 	0.4015	0.6654	0.3411	-0.303
Mof_O 	O 	0.5006	0.926	0.1291	-0.338
Mof_C 	C 	0.3519	0.7184	0.0444	0.057
Mof_H 	H 	0.3503	0.7422	0.9912	0.038
Mof_O 	O 	0.483	0.8807	0.0007	-0.37
Mof_C 	C 	0.2348	0.5734	0.0092	0.325
Mof_C 	C 	0.3048	0.5917	0.1465	0.032
Mof_H 	H 	0.2736	0.5286	0.1615	0.062
Mof_C 	C 	0.3593	0.6095	0.2889	0.305
Mof_C 	C 	0.2995	0.6277	0.067	-0.085
Mof_C 	C 	0.4664	0.8664	0.0742	0.351
Mof_O 	O 	0.3206	0.5218	0.3062	-0.303
Mof_C 	C 	0.4066	0.7393	0.1794	0.04
Mof_H 	H 	0.4411	0.7775	0.2174	0.061
Mof_C 	C 	0.4068	0.7737	0.1003	-0.099
Mof_C 	C 	0.3559	0.6485	0.2033	-0.073
Mof_Mn	Mn	0.89311	0.97768	0.57385	0.944
Mof_O 	O 	0.7097	0.0225	0.9775	-0.322
Mof_O 	O 	0.7042	0.874	0.0491	-0.287
Mof_O 	O 	0.9015	0.8346	0.6589	-0.303
Mof_O 	O 	0.0006	0.574	0.8709	-0.342
Mof_C 	C 	0.8519	0.7816	0.9556	0.034
Mof_H 	H 	0.8503	0.7578	0.0088	0.05
Mof_O 	O 	0.983	0.6193	0.9993	-0.374
Mof_C 	C 	0.7348	0.9266	0.9908	0.299
Mof_C 	C 	0.8048	0.9083	0.8535	0.021
Mof_H 	H 	0.7736	0.9714	0.8385	0.063
Mof_C 	C 	0.8593	0.8905	0.7111	0.303
Mof_C 	C 	0.7995	0.8723	0.933	-0.071
Mof_C 	C 	0.9664	0.6336	0.9258	0.349
Mof_O 	O 	0.8206	0.9782	0.6938	-0.304
Mof_C 	C 	0.9066	0.7607	0.8206	0.033
Mof_H 	H 	0.9411	0.7225	0.7826	0.062
Mof_C 	C 	0.9068	0.7263	0.8997	-0.091
Mof_C 	C 	0.8559	0.8515	0.7967	-0.068
Mof_Mn	Mn	0.60689	0.02232	0.07385	0.937
Mof_O 	O 	0.7903	0.9775	0.4775	-0.337
Mof_O 	O 	0.7958	0.126	0.5491	-0.296
Mof_O 	O 	0.5985	0.1654	0.1589	-0.303
Mof_O 	O 	0.4994	0.426	0.3709	-0.341
Mof_C 	C 	0.6481	0.2184	0.4556	0.046
Mof_H 	H 	0.6497	0.2422	0.5088	0.044
Mof_O 	O 	0.517	0.3807	0.4993	-0.374
Mof_C 	C 	0.7652	0.0734	0.4908	0.321
Mof_C 	C 	0.6952	0.0917	0.3535	0.028
Mof_H 	H 	0.7264	0.0286	0.3385	0.063
Mof_C 	C 	0.6407	0.1095	0.2111	0.305
Mof_C 	C 	0.7005	0.1277	0.433	-0.08
Mof_C 	C 	0.5336	0.3664	0.4258	0.351
Mof_O 	O 	0.6794	0.0218	0.1938	-0.304
Mof_C 	C 	0.5934	0.2393	0.3206	0.037
Mof_H 	H 	0.5589	0.2775	0.2826	0.061
Mof_C 	C 	0.5932	0.2737	0.3997	-0.096
Mof_C 	C 	0.6441	0.1485	0.2967	-0.072
Mof_Mn	Mn	0.89311	0.52232	0.07385	0.947
Mof_O 	O 	0.7097	0.4775	0.4775	-0.336
Mof_O 	O 	0.7042	0.626	0.5491	-0.297
Mof_O 	O 	0.9015	0.6654	0.1589	-0.303
Mof_O 	O 	0.0006	0.926	0.3709	-0.335
Mof_C 	C 	0.8519	0.7184	0.4556	0.044
Mof_H 	H 	0.8503	0.7422	0.5088	0.045
Mof_O 	O 	0.983	0.8807	0.4993	-0.374
Mof_C 	C 	0.7348	0.5734	0.4908	0.319
Mof_C 	C 	0.8048	0.5917	0.3535	0.027
Mof_H 	H 	0.7736	0.5286	0.3385	0.063
Mof_C 	C 	0.8593	0.6095	0.2111	0.304
Mof_C 	C 	0.7995	0.6277	0.433	-0.079
Mof_C 	C 	0.9664	0.8664	0.4258	0.346
Mof_O 	O 	0.8206	0.5218	0.1938	-0.303
Mof_C 	C 	0.9066	0.7393	0.3206	0.035
Mof_H 	H 	0.9411	0.7775	0.2826	0.061
Mof_C 	C 	0.9068	0.7737	0.3997	-0.094
Mof_C 	C 	0.8559	0.6485	0.2967	-0.071
Mof_Mn	Mn	0.60689	0.47768	0.57385	0.948
Mof_O 	O 	0.7903	0.5225	0.9775	-0.337
Mof_O 	O 	0.7958	0.374	0.0491	-0.3
Mof_O 	O 	0.5985	0.3346	0.6589	-0.303
Mof_O 	O 	0.4994	0.074	0.8709	-0.338
Mof_C 	C 	0.6481	0.2816	0.9556	0.057
Mof_H 	H 	0.6497	0.2578	0.0088	0.038
Mof_O 	O 	0.517	0.1193	0.9993	-0.37
Mof_C 	C 	0.7652	0.4266	0.9908	0.325
Mof_C 	C 	0.6952	0.4083	0.8535	0.032
Mof_H 	H 	0.7264	0.4714	0.8385	0.062
Mof_C 	C 	0.6407	0.3905	0.7111	0.305
Mof_C 	C 	0.7005	0.3723	0.933	-0.085
Mof_C 	C 	0.5336	0.1336	0.9258	0.351
Mof_O 	O 	0.6794	0.4782	0.6938	-0.303
Mof_C 	C 	0.5934	0.2607	0.8206	0.04
Mof_H 	H 	0.5589	0.2225	0.7826	0.061
Mof_C 	C 	0.5932	0.2263	0.8997	-0.099
Mof_C 	C 	0.6441	0.3515	0.7967	-0.073
Mof_Mn	Mn	0.10689	0.02232	0.42615	0.944
Mof_O 	O 	0.2903	0.9775	0.0225	-0.322
Mof_O 	O 	0.2958	0.126	0.9509	-0.287
Mof_O 	O 	0.0985	0.1654	0.3411	-0.303
Mof_O 	O 	0.9994	0.426	0.1291	-0.342
Mof_C 	C 	0.1481	0.2184	0.0444	0.034
Mof_H 	H 	0.1497	0.2422	0.9912	0.05
Mof_O 	O 	0.017	0.3807	0.0007	-0.374
Mof_C 	C 	0.2652	0.0734	0.0092	0.299
Mof_C 	C 	0.1952	0.0917	0.1465	0.021
Mof_H 	H 	0.2264	0.0286	0.1615	0.063
Mof_C 	C 	0.1407	0.1095	0.2889	0.303
Mof_C 	C 	0.2005	0.1277	0.067	-0.071
Mof_C 	C 	0.0336	0.3664	0.0742	0.349
Mof_O 	O 	0.1794	0.0218	0.3062	-0.304
Mof_C 	C 	0.0934	0.2393	0.1794	0.033
Mof_H 	H 	0.0589	0.2775	0.2174	0.062
Mof_C 	C 	0.0932	0.2737	0.1003	-0.091
Mof_C 	C 	0.1441	0.1485	0.2033	-0.068
Mof_Mn	Mn	0.39311	0.97768	0.92615	0.937
Mof_O 	O 	0.2097	0.0225	0.5225	-0.337
Mof_O 	O 	0.2042	0.874	0.4509	-0.296
Mof_O 	O 	0.4015	0.8346	0.8411	-0.303
Mof_O 	O 	0.5006	0.574	0.6291	-0.341
Mof_C 	C 	0.3519	0.7816	0.5444	0.046
Mof_H 	H 	0.3503	0.7578	0.4912	0.044
Mof_O 	O 	0.483	0.6193	0.5007	-0.374
Mof_C 	C 	0.2348	0.9266	0.5092	0.321
Mof_C 	C 	0.3048	0.9083	0.6465	0.028
Mof_H 	H 	0.2736	0.9714	0.6615	0.063
Mof_C 	C 	0.3593	0.8905	0.7889	0.305
Mof_C 	C 	0.2995	0.8723	0.567	-0.08
Mof_C 	C 	0.4664	0.6336	0.5742	0.351
Mof_O 	O 	0.3206	0.9782	0.8062	-0.304
Mof_C 	C 	0.4066	0.7607	0.6794	0.037
Mof_H 	H 	0.4411	0.7225	0.7174	0.061
Mof_C 	C 	0.4068	0.7263	0.6003	-0.096
Mof_C 	C 	0.3559	0.8515	0.7033	-0.072
_end
