# CIF file generated by openbabel 3.1.0, see https://openbabel.org
data_I
_chemical_name_common 'NOCLOH02_clean'
_cell_length_a 9.8417
_cell_length_b 10.6202
_cell_length_c 10.6202
_cell_angle_alpha 120
_cell_angle_beta 90
_cell_angle_gamma 90
_space_group_name_H-M_alt 'P 1'
_space_group_name_Hall 'P 1'
loop_
    _symmetry_equiv_pos_as_xyz
    x,y,z
loop_
    _atom_site_label
    _atom_site_type_symbol
    _atom_site_fract_x
    _atom_site_fract_y
    _atom_site_fract_z
    _atom_site_occupancy
    Sr1      Sr       0.50010    0.68830    0.45365    1.000
    Sr2      Sr       0.16677    0.76535    0.31170    1.000
    Sr3      Sr       0.83343    0.54635    0.23465    1.000
    H1       H        0.23090    0.45040    0.98450    1.000
    H2       H        0.16180    0.25080    0.77030    1.000
    H3       H        0.52720    0.06970    0.72790    1.000
    H4       H        0.59550    0.26930    0.94260    1.000
    H5       H        0.89757    0.53410    0.54960    1.000
    H6       H        0.82847    0.51950    0.74920    1.000
    H7       H        0.19387    0.65820    0.93030    1.000
    H8       H        0.26217    0.67330    0.73070    1.000
    H9       H        0.56423    0.01550    0.46590    1.000
    H10      H        0.49513    0.22970    0.48050    1.000
    H11      H        0.86053    0.27210    0.34180    1.000
    H12      H        0.92883    0.05740    0.32670    1.000
    C1       C        0.46180    0.51040    0.12910    1.000
    C2       C        0.41880    0.38070    0.98570    1.000
    C3       C        0.29100    0.37380    0.93320    1.000
    C4       C        0.24940    0.25410    0.80440    1.000
    C5       C        0.33780    0.13870    0.72560    1.000
    C6       C        0.28820    0.00940    0.58740    1.000
    C7       C        0.46690    0.14610    0.77910    1.000
    C8       C        0.50800    0.26570    0.90790    1.000
    C9       C        0.12847    0.61870    0.48960    1.000
    C10      C        0.08547    0.60500    0.61930    1.000
    C11      C        0.95767    0.55940    0.62620    1.000
    C12      C        0.91607    0.55030    0.74590    1.000
    C13      C        0.00447    0.58690    0.86130    1.000
    C14      C        0.95487    0.57800    0.99060    1.000
    C15      C        0.13357    0.63300    0.85390    1.000
    C16      C        0.17467    0.64220    0.73430    1.000
    C17      C        0.79513    0.87090    0.38130    1.000
    C18      C        0.75213    0.01430    0.39500    1.000
    C19      C        0.62433    0.06680    0.44060    1.000
    C20      C        0.58273    0.19560    0.44970    1.000
    C21      C        0.67113    0.27440    0.41310    1.000
    C22      C        0.62153    0.41260    0.42200    1.000
    C23      C        0.80023    0.22090    0.36700    1.000
    C24      C        0.84133    0.09210    0.35780    1.000
    O1       O        0.37490    0.60760    0.20050    1.000
    O2       O        0.57940    0.51450    0.17380    1.000
    O3       O        0.16640    0.00380    0.55360    1.000
    O4       O        0.37350    0.91350    0.50700    1.000
    O5       O        0.04157    0.59290    0.39240    1.000
    O6       O        0.24607    0.65930    0.48550    1.000
    O7       O        0.83307    0.54980    0.99620    1.000
    O8       O        0.04017    0.59350    0.08650    1.000
    O9       O        0.70823    0.79950    0.40710    1.000
    O10      O        0.91273    0.82620    0.34070    1.000
    O11      O        0.49973    0.44640    0.45020    1.000
    O12      O        0.70683    0.49300    0.40650    1.000
