data_functionalizedCrystal
_audit_creation_method	'EQeq! by Chris Wilmer'
_symmetry_space_group_name_H-M	'P1'
_symmetry_Int_Tables_number	1
_symmetry_cell_setting	triclinic
loop_
_symmetry_equiv_pos_as_xyz
  x,y,z
_cell_length_a	21.5221
_cell_length_b	21.5221
_cell_length_c	25.3339
_cell_angle_alpha	64.864
_cell_angle_beta	64.864
_cell_angle_gamma	60
loop_
_atom_site_label
_atom_site_type_symbol
_atom_site_fract_x
_atom_site_fract_y
_atom_site_fract_z
_atom_site_charge
Mof_Cd	Cd	0.33769	0.73331	0.41346	0.493
Mof_Cd	Cd	0.21742	0.78009	0.55299	0.476
Mof_Cd	Cd	0.36794	0.77979	0.77553	0.479
Mof_Cd	Cd	0.73331	0.51554	0.41346	0.493
Mof_Cd	Cd	0.78009	0.4495	0.55299	0.476
Mof_Cd	Cd	0.77979	0.07674	0.77553	0.476
Mof_Cd	Cd	0.51554	0.33769	0.41346	0.494
Mof_Cd	Cd	0.4495	0.21742	0.55299	0.476
Mof_Cd	Cd	0.07674	0.36794	0.77553	0.477
Mof_Cd	Cd	0.83769	0.01554	0.91346	0.48
Mof_Cd	Cd	0.71742	0.9495	0.05299	0.487
Mof_Cd	Cd	0.86794	0.57674	0.27553	0.481
Mof_Cd	Cd	0.23331	0.83769	0.91346	0.485
Mof_Cd	Cd	0.28009	0.71742	0.05299	0.484
Mof_Cd	Cd	0.27979	0.86794	0.27553	0.481
Mof_Cd	Cd	0.01554	0.23331	0.91346	0.479
Mof_Cd	Cd	0.9495	0.28009	0.05299	0.487
Mof_Cd	Cd	0.57674	0.27979	0.27553	0.48
Mof_H 	H 	0.3633	0.7461	0.6003	0.061
Mof_H 	H 	0.5565	0.6248	0.6453	0.053
Mof_H 	H 	0.5441	0.6352	0.4866	0.058
Mof_H 	H 	0.4245	0.5247	0.3435	0.065
Mof_H 	H 	0.43	0.517	0.1848	0.057
Mof_H 	H 	0.3173	0.7166	0.2262	0.067
Mof_H 	H 	0.1191	0.029	0.312	0.098
Mof_H 	H 	0.0186	0.1132	0.3654	0.042
Mof_H 	H 	0.9913	0.0816	0.471	0.069
Mof_H 	H 	0.0645	0.9661	0.5229	0.076
Mof_H 	H 	0.7461	0.2903	0.6003	0.061
Mof_H 	H 	0.6248	0.1734	0.6453	0.053
Mof_H 	H 	0.6352	0.3341	0.4866	0.058
Mof_H 	H 	0.5247	0.7073	0.3435	0.066
Mof_H 	H 	0.517	0.8682	0.1848	0.058
Mof_H 	H 	0.7166	0.7399	0.2262	0.067
Mof_H 	H 	0.029	0.5399	0.312	0.096
Mof_H 	H 	0.1132	0.5028	0.3654	0.047
Mof_H 	H 	0.0816	0.4561	0.471	0.058
Mof_H 	H 	0.9661	0.4465	0.5229	0.081
Mof_H 	H 	0.2903	0.3633	0.6003	0.06
Mof_H 	H 	0.1734	0.5565	0.6453	0.052
Mof_H 	H 	0.3341	0.5441	0.4866	0.058
Mof_H 	H 	0.7073	0.4245	0.3435	0.066
Mof_H 	H 	0.8682	0.43	0.1848	0.058
Mof_H 	H 	0.7399	0.3173	0.2262	0.067
Mof_H 	H 	0.5399	0.1191	0.312	0.094
Mof_H 	H 	0.5028	0.0186	0.3654	0.047
Mof_H 	H 	0.4561	0.9913	0.471	0.064
Mof_H 	H 	0.4465	0.0645	0.5229	0.081
Mof_H 	H 	0.8633	0.7903	0.1003	0.068
Mof_H 	H 	0.0565	0.6734	0.1453	0.057
Mof_H 	H 	0.0441	0.8341	0.9866	0.041
Mof_H 	H 	0.9245	0.2073	0.8435	0.065
Mof_H 	H 	0.93	0.3682	0.6848	0.057
Mof_H 	H 	0.8173	0.2399	0.7262	0.066
Mof_H 	H 	0.6191	0.0399	0.812	0.093
Mof_H 	H 	0.5186	0.0028	0.8654	0.043
Mof_H 	H 	0.4913	0.9561	0.971	0.044
Mof_H 	H 	0.5645	0.9465	0.0229	0.111
Mof_H 	H 	0.2461	0.8633	0.1003	0.067
Mof_H 	H 	0.1248	0.0565	0.1453	0.056
Mof_H 	H 	0.1352	0.0441	0.9866	0.039
Mof_H 	H 	0.0247	0.9245	0.8435	0.061
Mof_H 	H 	0.017	0.93	0.6848	0.053
Mof_H 	H 	0.2166	0.8173	0.7262	0.066
Mof_H 	H 	0.529	0.6191	0.812	0.087
Mof_H 	H 	0.6132	0.5186	0.8654	0.059
Mof_H 	H 	0.5816	0.4913	0.971	0.037
Mof_H 	H 	0.4661	0.5645	0.0229	0.115
Mof_H 	H 	0.7903	0.2461	0.1003	0.064
Mof_H 	H 	0.6734	0.1248	0.1453	0.053
Mof_H 	H 	0.8341	0.1352	0.9866	0.037
Mof_H 	H 	0.2073	0.0247	0.8435	0.061
Mof_H 	H 	0.3682	0.017	0.6848	0.053
Mof_H 	H 	0.2399	0.2166	0.7262	0.066
Mof_H 	H 	0.0399	0.529	0.812	0.093
Mof_H 	H 	0.0028	0.6132	0.8654	0.043
Mof_H 	H 	0.9561	0.5816	0.971	0.044
Mof_H 	H 	0.9465	0.4661	0.0229	0.112
Mof_C 	C 	0.40283	0.71593	0.49491	0.325
Mof_C 	C 	0.44699	0.69329	0.53823	-0.086
Mof_C 	C 	0.41434	0.71354	0.59148	0.039
Mof_C 	C 	0.45374	0.68804	0.63138	-0.086
Mof_C 	C 	0.52874	0.64094	0.61788	0.048
Mof_C 	C 	0.56499	0.61649	0.56523	-0.11
Mof_C 	C 	0.52151	0.64691	0.52437	0.043
Mof_C 	C 	0.42001	0.71321	0.68787	0.318
Mof_C 	C 	0.64101	0.56681	0.55137	0.345
Mof_C 	C 	0.35037	0.67277	0.33249	0.309
Mof_C 	C 	0.36991	0.62691	0.29127	-0.063
Mof_C 	C 	0.41211	0.54971	0.30597	0.02
Mof_C 	C 	0.43585	0.50995	0.26475	-0.074
Mof_C 	C 	0.41362	0.54502	0.21204	0.034
Mof_C 	C 	0.36756	0.62076	0.19782	-0.085
Mof_C 	C 	0.34615	0.66445	0.23625	0.021
Mof_C 	C 	0.3416	0.6574	0.1428	0.344
Mof_C 	C 	0.48245	0.42715	0.27945	0.324
Mof_C 	C 	0.13525	0.92895	0.44835	0.057
Mof_C 	C 	0.15141	0.94761	0.38577	0.095
Mof_C 	C 	0.108	0.0162	0.3549	-0.108
Mof_C 	C 	0.04833	0.06613	0.38661	0.015
Mof_C 	C 	0.03217	0.04747	0.44919	-0.054
Mof_C 	C 	0.07558	0.97888	0.48006	-0.053
Mof_C 	C 	0.71593	0.38633	0.49491	0.325
Mof_C 	C 	0.69329	0.32149	0.53823	-0.087
Mof_C 	C 	0.71354	0.28064	0.59148	0.039
Mof_C 	C 	0.68804	0.22684	0.63138	-0.087
Mof_C 	C 	0.64094	0.21244	0.61788	0.048
Mof_C 	C 	0.61649	0.25329	0.56523	-0.11
Mof_C 	C 	0.64691	0.30721	0.52437	0.043
Mof_C 	C 	0.71321	0.17891	0.68787	0.318
Mof_C 	C 	0.56681	0.24081	0.55137	0.345
Mof_C 	C 	0.67277	0.64437	0.33249	0.309
Mof_C 	C 	0.62691	0.71191	0.29127	-0.063
Mof_C 	C 	0.54971	0.73221	0.30597	0.02
Mof_C 	C 	0.50995	0.78945	0.26475	-0.073
Mof_C 	C 	0.54502	0.82932	0.21204	0.034
Mof_C 	C 	0.62076	0.81386	0.19782	-0.085
Mof_C 	C 	0.66445	0.75315	0.23625	0.021
Mof_C 	C 	0.6574	0.8582	0.1428	0.344
Mof_C 	C 	0.42715	0.81095	0.27945	0.324
Mof_C 	C 	0.92895	0.48745	0.44835	0.061
Mof_C 	C 	0.94761	0.51521	0.38577	0.092
Mof_C 	C 	0.0162	0.5209	0.3549	-0.102
Mof_C 	C 	0.06613	0.49893	0.38661	0.005
Mof_C 	C 	0.04747	0.47117	0.44919	-0.036
Mof_C 	C 	0.97888	0.46548	0.48006	-0.062
Mof_C 	C 	0.38633	0.40283	0.49491	0.325
Mof_C 	C 	0.32149	0.44699	0.53823	-0.087
Mof_C 	C 	0.28064	0.41434	0.59148	0.039
Mof_C 	C 	0.22684	0.45374	0.63138	-0.087
Mof_C 	C 	0.21244	0.52874	0.61788	0.048
Mof_C 	C 	0.25329	0.56499	0.56523	-0.11
Mof_C 	C 	0.30721	0.52151	0.52437	0.043
Mof_C 	C 	0.17891	0.42001	0.68787	0.318
Mof_C 	C 	0.24081	0.64101	0.55137	0.345
Mof_C 	C 	0.64437	0.35037	0.33249	0.309
Mof_C 	C 	0.71191	0.36991	0.29127	-0.063
Mof_C 	C 	0.73221	0.41211	0.30597	0.02
Mof_C 	C 	0.78945	0.43585	0.26475	-0.073
Mof_C 	C 	0.82932	0.41362	0.21204	0.034
Mof_C 	C 	0.81386	0.36756	0.19782	-0.085
Mof_C 	C 	0.75315	0.34615	0.23625	0.021
Mof_C 	C 	0.8582	0.3416	0.1428	0.344
Mof_C 	C 	0.81095	0.48245	0.27945	0.324
Mof_C 	C 	0.48745	0.13525	0.44835	0.065
Mof_C 	C 	0.51521	0.15141	0.38577	0.082
Mof_C 	C 	0.5209	0.108	0.3549	-0.09
Mof_C 	C 	0.49893	0.04833	0.38661	0.001
Mof_C 	C 	0.47117	0.03217	0.44919	-0.034
Mof_C 	C 	0.46548	0.07558	0.48006	-0.071
Mof_C 	C 	0.90283	0.88633	0.99491	0.285
Mof_C 	C 	0.94699	0.82149	0.03823	-0.059
Mof_C 	C 	0.91434	0.78064	0.09148	0.023
Mof_C 	C 	0.95374	0.72684	0.13138	-0.071
Mof_C 	C 	0.02874	0.71244	0.11788	0.035
Mof_C 	C 	0.06499	0.75329	0.06523	-0.107
Mof_C 	C 	0.02151	0.80721	0.02437	0.055
Mof_C 	C 	0.92001	0.67891	0.18787	0.314
Mof_C 	C 	0.14101	0.74081	0.05137	0.344
Mof_C 	C 	0.85037	0.14437	0.83249	0.309
Mof_C 	C 	0.86991	0.21191	0.79127	-0.065
Mof_C 	C 	0.91211	0.23221	0.80597	0.022
Mof_C 	C 	0.93585	0.28945	0.76475	-0.076
Mof_C 	C 	0.91362	0.32932	0.71204	0.036
Mof_C 	C 	0.86756	0.31386	0.69782	-0.087
Mof_C 	C 	0.84615	0.25315	0.73625	0.022
Mof_C 	C 	0.8416	0.3582	0.6428	0.344
Mof_C 	C 	0.98245	0.31095	0.77945	0.332
Mof_C 	C 	0.63525	0.98745	0.94835	0.087
Mof_C 	C 	0.65141	0.01521	0.88577	0.067
Mof_C 	C 	0.608	0.0209	0.8549	-0.09
Mof_C 	C 	0.54833	0.99893	0.88661	-0
Mof_C 	C 	0.53217	0.97117	0.94919	-0.001
Mof_C 	C 	0.57558	0.96548	0.98006	-0.123
Mof_C 	C 	0.21593	0.90283	0.99491	0.283
Mof_C 	C 	0.19329	0.94699	0.03823	-0.06
Mof_C 	C 	0.21354	0.91434	0.09148	0.023
Mof_C 	C 	0.18804	0.95374	0.13138	-0.072
Mof_C 	C 	0.14094	0.02874	0.11788	0.036
Mof_C 	C 	0.11649	0.06499	0.06523	-0.109
Mof_C 	C 	0.14691	0.02151	0.02437	0.057
Mof_C 	C 	0.21321	0.92001	0.18787	0.314
Mof_C 	C 	0.06681	0.14101	0.05137	0.345
Mof_C 	C 	0.17277	0.85037	0.83249	0.31
Mof_C 	C 	0.12691	0.86991	0.79127	-0.067
Mof_C 	C 	0.04971	0.91211	0.80597	0.026
Mof_C 	C 	0.00995	0.93585	0.76475	-0.086
Mof_C 	C 	0.04502	0.91362	0.71204	0.04
Mof_C 	C 	0.12076	0.86756	0.69782	-0.09
Mof_C 	C 	0.16445	0.84615	0.73625	0.024
Mof_C 	C 	0.1574	0.8416	0.6428	0.345
Mof_C 	C 	0.92715	0.98245	0.77945	0.341
Mof_C 	C 	0.42895	0.63525	0.94835	0.087
Mof_C 	C 	0.44761	0.65141	0.88577	0.066
Mof_C 	C 	0.5162	0.608	0.8549	-0.068
Mof_C 	C 	0.56613	0.54833	0.88661	-0.033
Mof_C 	C 	0.54747	0.53217	0.94919	0.017
Mof_C 	C 	0.47888	0.57558	0.98006	-0.135
Mof_C 	C 	0.88633	0.21593	0.99491	0.286
Mof_C 	C 	0.82149	0.19329	0.03823	-0.071
Mof_C 	C 	0.78064	0.21354	0.09148	0.033
Mof_C 	C 	0.72684	0.18804	0.13138	-0.085
Mof_C 	C 	0.71244	0.14094	0.11788	0.05
Mof_C 	C 	0.75329	0.11649	0.06523	-0.116
Mof_C 	C 	0.80721	0.14691	0.02437	0.069
Mof_C 	C 	0.67891	0.21321	0.18787	0.318
Mof_C 	C 	0.74081	0.06681	0.05137	0.349
Mof_C 	C 	0.14437	0.17277	0.83249	0.31
Mof_C 	C 	0.21191	0.12691	0.79127	-0.068
Mof_C 	C 	0.23221	0.04971	0.80597	0.024
Mof_C 	C 	0.28945	0.00995	0.76475	-0.084
Mof_C 	C 	0.32932	0.04502	0.71204	0.039
Mof_C 	C 	0.31386	0.12076	0.69782	-0.09
Mof_C 	C 	0.25315	0.16445	0.73625	0.023
Mof_C 	C 	0.3582	0.1574	0.6428	0.345
Mof_C 	C 	0.31095	0.92715	0.77945	0.332
Mof_C 	C 	0.98745	0.42895	0.94835	0.087
Mof_C 	C 	0.01521	0.44761	0.88577	0.067
Mof_C 	C 	0.0209	0.5162	0.8549	-0.09
Mof_C 	C 	0.99893	0.56613	0.88661	0
Mof_C 	C 	0.97117	0.54747	0.94919	-0.001
Mof_C 	C 	0.96548	0.47888	0.98006	-0.124
Mof_N 	N 	0.18512	0.85582	0.46644	-0.102
Mof_N 	N 	0.2303	0.8352	0.4173	-0.069
Mof_N 	N 	0.20626	0.88376	0.36732	-0.105
Mof_N 	N 	0.85582	0.49262	0.46644	-0.102
Mof_N 	N 	0.8352	0.5172	0.4173	-0.068
Mof_N 	N 	0.88376	0.54266	0.36732	-0.104
Mof_N 	N 	0.49262	0.18512	0.46644	-0.104
Mof_N 	N 	0.5172	0.2303	0.4173	-0.069
Mof_N 	N 	0.54266	0.20626	0.36732	-0.104
Mof_N 	N 	0.68512	0.99262	0.96644	-0.11
Mof_N 	N 	0.7303	0.0172	0.9173	-0.074
Mof_N 	N 	0.70626	0.04266	0.86732	-0.103
Mof_N 	N 	0.35582	0.68512	0.96644	-0.114
Mof_N 	N 	0.3352	0.7303	0.9173	-0.071
Mof_N 	N 	0.38376	0.70626	0.86732	-0.102
Mof_N 	N 	0.99262	0.35582	0.96644	-0.111
Mof_N 	N 	0.0172	0.3352	0.9173	-0.074
Mof_N 	N 	0.04266	0.38376	0.86732	-0.103
Mof_O 	O 	0.339	0.7661	0.5025	-0.289
Mof_O 	O 	0.43239	0.68309	0.45483	-0.266
Mof_O 	O 	0.36347	0.77047	0.69009	-0.262
Mof_O 	O 	0.45133	0.67583	0.73011	-0.257
Mof_O 	O 	0.67345	0.53215	0.59205	-0.278
Mof_O 	O 	0.67517	0.55297	0.50079	-0.292
Mof_O 	O 	0.38518	0.64108	0.37176	-0.262
Mof_O 	O 	0.29934	0.73624	0.32838	-0.277
Mof_O 	O 	0.46905	0.38925	0.33195	-0.289
Mof_O 	O 	0.53234	0.40394	0.23478	-0.26
Mof_O 	O 	0.29638	0.72198	0.13446	-0.277
Mof_O 	O 	0.35327	0.61857	0.11319	-0.283
Mof_O 	O 	0.48207	0.78917	0.74799	-0.143
Mof_O 	O 	0.7661	0.3924	0.5025	-0.289
Mof_O 	O 	0.68309	0.42969	0.45483	-0.266
Mof_O 	O 	0.77047	0.17597	0.69009	-0.263
Mof_O 	O 	0.67583	0.14273	0.73011	-0.258
Mof_O 	O 	0.53215	0.20235	0.59205	-0.278
Mof_O 	O 	0.55297	0.27107	0.50079	-0.292
Mof_O 	O 	0.64108	0.60198	0.37176	-0.262
Mof_O 	O 	0.73624	0.63604	0.32838	-0.276
Mof_O 	O 	0.38925	0.80975	0.33195	-0.289
Mof_O 	O 	0.40394	0.82894	0.23478	-0.26
Mof_O 	O 	0.72198	0.84718	0.13446	-0.276
Mof_O 	O 	0.61857	0.91497	0.11319	-0.282
Mof_O 	O 	0.78917	0.98077	0.74799	-0.138
Mof_O 	O 	0.3924	0.339	0.5025	-0.29
Mof_O 	O 	0.42969	0.43239	0.45483	-0.266
Mof_O 	O 	0.17597	0.36347	0.69009	-0.263
Mof_O 	O 	0.14273	0.45133	0.73011	-0.258
Mof_O 	O 	0.20235	0.67345	0.59205	-0.279
Mof_O 	O 	0.27107	0.67517	0.50079	-0.292
Mof_O 	O 	0.60198	0.38518	0.37176	-0.262
Mof_O 	O 	0.63604	0.29934	0.32838	-0.277
Mof_O 	O 	0.80975	0.46905	0.33195	-0.289
Mof_O 	O 	0.82894	0.53234	0.23478	-0.26
Mof_O 	O 	0.84718	0.29638	0.13446	-0.276
Mof_O 	O 	0.91497	0.35327	0.11319	-0.282
Mof_O 	O 	0.98077	0.48207	0.74799	-0.139
Mof_O 	O 	0.839	0.8924	0.0025	-0.264
Mof_O 	O 	0.93239	0.92969	0.95483	-0.255
Mof_O 	O 	0.86347	0.67597	0.19009	-0.26
Mof_O 	O 	0.95133	0.64273	0.23011	-0.253
Mof_O 	O 	0.17345	0.70235	0.09205	-0.276
Mof_O 	O 	0.17517	0.77107	0.00079	-0.281
Mof_O 	O 	0.88518	0.10198	0.87176	-0.263
Mof_O 	O 	0.79934	0.13604	0.82838	-0.278
Mof_O 	O 	0.96905	0.30975	0.83195	-0.289
Mof_O 	O 	0.03234	0.32894	0.73478	-0.268
Mof_O 	O 	0.79638	0.34718	0.63446	-0.277
Mof_O 	O 	0.85327	0.41497	0.61319	-0.284
Mof_O 	O 	0.98207	0.48077	0.24799	-0.14
Mof_O 	O 	0.2661	0.839	0.0025	-0.264
Mof_O 	O 	0.18309	0.93239	0.95483	-0.258
Mof_O 	O 	0.27047	0.86347	0.19009	-0.26
Mof_O 	O 	0.17583	0.95133	0.23011	-0.254
Mof_O 	O 	0.03215	0.17345	0.09205	-0.28
Mof_O 	O 	0.05297	0.17517	0.00079	-0.283
Mof_O 	O 	0.14108	0.88518	0.87176	-0.264
Mof_O 	O 	0.23624	0.79934	0.82838	-0.278
Mof_O 	O 	0.88925	0.96905	0.83195	-0.289
Mof_O 	O 	0.90394	0.03234	0.73478	-0.268
Mof_O 	O 	0.22198	0.79638	0.63446	-0.277
Mof_O 	O 	0.11857	0.85327	0.61319	-0.285
Mof_O 	O 	0.28917	0.98207	0.24799	-0.141
Mof_O 	O 	0.8924	0.2661	0.0025	-0.264
Mof_O 	O 	0.92969	0.18309	0.95483	-0.259
Mof_O 	O 	0.67597	0.27047	0.19009	-0.262
Mof_O 	O 	0.64273	0.17583	0.23011	-0.257
Mof_O 	O 	0.70235	0.03215	0.09205	-0.28
Mof_O 	O 	0.77107	0.05297	0.00079	-0.284
Mof_O 	O 	0.10198	0.14108	0.87176	-0.266
Mof_O 	O 	0.13604	0.23624	0.82838	-0.279
Mof_O 	O 	0.30975	0.88925	0.83195	-0.291
Mof_O 	O 	0.32894	0.90394	0.73478	-0.261
Mof_O 	O 	0.34718	0.22198	0.63446	-0.278
Mof_O 	O 	0.41497	0.11857	0.61319	-0.286
Mof_O 	O 	0.48077	0.28917	0.24799	-0.143
_end
