# CIF file generated by openbabel 3.1.0, see https://openbabel.org
data_I
_chemical_name_common 'image0'
_cell_length_a 10.471
_cell_length_b 11.359
_cell_length_c 13.093
_cell_angle_alpha 107.541
_cell_angle_beta 90.084
_cell_angle_gamma 92.355
_space_group_name_H-M_alt 'P 1'
_space_group_name_Hall 'P 1'
loop_
    _symmetry_equiv_pos_as_xyz
    x,y,z
loop_
    _atom_site_label
    _atom_site_type_symbol
    _atom_site_fract_x
    _atom_site_fract_y
    _atom_site_fract_z
    _atom_site_occupancy
    Nd1      Nd       0.48068    0.45342    0.33946    1.000
    C1       C        0.49870    0.23350    0.17060    1.000
    C2       C        0.50890    0.74620    0.50720    1.000
    C3       C        0.26680    0.49130    0.56120    1.000
    C4       C        0.49980    0.11540    0.08610    1.000
    C5       C        0.50640    0.87990    0.50690    1.000
    C6       C        0.12880    0.49660    0.52840    1.000
    C7       C        0.45140    0.00600    0.10100    1.000
    C8       C        0.39120    0.93970    0.52570    1.000
    C9       C        0.07640    0.40290    0.44090    1.000
    C10      C        0.40330    0.00050    0.20510    1.000
    H1       H        0.41100    0.07120    0.26370    1.000
    C11      C        0.27690    0.88310    0.55250    1.000
    H2       H        0.27920    0.80400    0.55920    1.000
    C12      C        0.14950    0.30280    0.38130    1.000
    H3       H        0.23460    0.29900    0.40010    1.000
    C13      C        0.34860    0.89680    0.21870    1.000
    H4       H        0.31350    0.89930    0.28450    1.000
    C14      C        0.16550    0.94170    0.56850    1.000
    H5       H        0.09180    0.90140    0.58320    1.000
    C15      C        0.09540    0.21220    0.29650    1.000
    H6       H        0.14360    0.14670    0.25820    1.000
    C16      C        0.34390    0.78310    0.13360    1.000
    H7       H        0.30910    0.71110    0.14400    1.000
    C17      C        0.16040    0.06270    0.56310    1.000
    H8       H        0.08320    0.10200    0.57370    1.000
    C18      C        0.96650    0.21810    0.26710    1.000
    H9       H        0.93130    0.15730    0.20820    1.000
    C19      C        0.39190    0.78270    0.03620    1.000
    H10      H        0.38830    0.70850    0.98100    1.000
    C20      C        0.26740    0.12350    0.54270    1.000
    H11      H        0.26310    0.20510    0.54270    1.000
    C21      C        0.89310    0.31080    0.32310    1.000
    H12      H        0.80770    0.31140    0.30370    1.000
    C22      C        0.44750    0.89050    0.01450    1.000
    C23      C        0.38630    0.06400    0.52130    1.000
    C24      C        0.94610    0.40770    0.41190    1.000
    O1       O        0.39090    0.28100    0.19510    1.000
    O2       O        0.49290    0.66700    0.41590    1.000
    O3       O        0.35740    0.50530    0.50210    1.000
    O4       O        0.59850    0.28330    0.21720    1.000
    O5       O        0.52770    0.72420    0.59280    1.000
    O6       O        0.28870    0.48380    0.65240    1.000
    Nd2      Nd       0.51932    0.54658    0.66054    1.000
    C25      C        0.50130    0.76650    0.82940    1.000
    C26      C        0.49110    0.25380    0.49280    1.000
    C27      C        0.73320    0.50870    0.43880    1.000
    C28      C        0.50020    0.88460    0.91390    1.000
    C29      C        0.49360    0.12010    0.49310    1.000
    C30      C        0.87120    0.50340    0.47160    1.000
    C31      C        0.54860    0.99400    0.89900    1.000
    C32      C        0.60880    0.06030    0.47430    1.000
    C33      C        0.92360    0.59710    0.55910    1.000
    C34      C        0.59670    0.99950    0.79490    1.000
    H13      H        0.58900    0.92880    0.73630    1.000
    C35      C        0.72310    0.11690    0.44750    1.000
    H14      H        0.72080    0.19600    0.44080    1.000
    C36      C        0.85050    0.69720    0.61870    1.000
    H15      H        0.76540    0.70100    0.59990    1.000
    C37      C        0.65140    0.10320    0.78130    1.000
    H16      H        0.68650    0.10070    0.71550    1.000
    C38      C        0.83450    0.05830    0.43150    1.000
    H17      H        0.90820    0.09860    0.41680    1.000
    C39      C        0.90460    0.78780    0.70350    1.000
    H18      H        0.85640    0.85330    0.74180    1.000
    C40      C        0.65610    0.21690    0.86640    1.000
    H19      H        0.69090    0.28890    0.85600    1.000
    C41      C        0.83960    0.93730    0.43690    1.000
    H20      H        0.91680    0.89800    0.42630    1.000
    C42      C        0.03350    0.78190    0.73290    1.000
    H21      H        0.06870    0.84270    0.79180    1.000
    C43      C        0.60810    0.21730    0.96380    1.000
    H22      H        0.61170    0.29150    0.01900    1.000
    C44      C        0.73260    0.87650    0.45730    1.000
    H23      H        0.73690    0.79490    0.45730    1.000
    C45      C        0.10690    0.68920    0.67690    1.000
    H24      H        0.19230    0.68860    0.69630    1.000
    C46      C        0.55250    0.10950    0.98550    1.000
    C47      C        0.61370    0.93600    0.47870    1.000
    C48      C        0.05390    0.59230    0.58810    1.000
    O7       O        0.60910    0.71900    0.80490    1.000
    O8       O        0.50710    0.33300    0.58410    1.000
    O9       O        0.64260    0.49470    0.49790    1.000
    O10      O        0.40150    0.71670    0.78280    1.000
    O11      O        0.47230    0.27580    0.40720    1.000
    O12      O        0.71130    0.51620    0.34760    1.000
