data_functionalizedCrystal
_audit_creation_method	'EQeq! by Chris Wilmer'
_symmetry_space_group_name_H-M	'P1'
_symmetry_Int_Tables_number	1
_symmetry_cell_setting	triclinic
loop_
_symmetry_equiv_pos_as_xyz
  x,y,z
_cell_length_a	17.056
_cell_length_b	16.624
_cell_length_c	17.063
_cell_angle_alpha	90
_cell_angle_beta	90
_cell_angle_gamma	90
loop_
_atom_site_label
_atom_site_type_symbol
_atom_site_fract_x
_atom_site_fract_y
_atom_site_fract_z
_atom_site_charge
Mof_C 	C 	0.1978	0.2469	0.5561	0.172
Mof_N 	N 	0.13	0.2532	0.5612	-0.168
Mof_C 	C 	0.6978	0.7469	0.5561	0.174
Mof_N 	N 	0.63	0.7532	0.5612	-0.169
Mof_C 	C 	0.8022	0.2531	0.0561	0.184
Mof_N 	N 	0.87	0.2468	0.0612	-0.153
Mof_C 	C 	0.3022	0.7531	0.0561	0.173
Mof_N 	N 	0.37	0.7468	0.0612	-0.164
Mof_C 	C 	0.8022	0.7469	0.9439	0.146
Mof_N 	N 	0.87	0.7532	0.9388	-0.157
Mof_C 	C 	0.3022	0.2469	0.9439	0.142
Mof_N 	N 	0.37	0.2532	0.9388	-0.167
Mof_C 	C 	0.1978	0.7531	0.4439	0.169
Mof_N 	N 	0.13	0.7468	0.4388	-0.168
Mof_C 	C 	0.6978	0.2531	0.4439	0.179
Mof_N 	N 	0.63	0.2468	0.4388	-0.167
Mof_C 	C 	0.8022	0.7531	0.4439	0.176
Mof_N 	N 	0.87	0.7468	0.4388	-0.158
Mof_C 	C 	0.3022	0.2531	0.4439	0.172
Mof_N 	N 	0.37	0.2468	0.4388	-0.167
Mof_C 	C 	0.1978	0.7469	0.9439	0.138
Mof_N 	N 	0.13	0.7532	0.9388	-0.168
Mof_C 	C 	0.6978	0.2469	0.9439	0.148
Mof_N 	N 	0.63	0.2532	0.9388	-0.167
Mof_C 	C 	0.1978	0.2531	0.0561	0.176
Mof_N 	N 	0.13	0.2468	0.0612	-0.163
Mof_C 	C 	0.6978	0.7531	0.0561	0.18
Mof_N 	N 	0.63	0.7468	0.0612	-0.163
Mof_C 	C 	0.8022	0.2469	0.5561	0.178
Mof_N 	N 	0.87	0.2532	0.5612	-0.157
Mof_C 	C 	0.3022	0.7469	0.5561	0.167
Mof_N 	N 	0.37	0.7532	0.5612	-0.169
Mof_N 	N 	0.25	0.25	0.5	-0.166
Mof_N 	N 	0.75	0.25	-0	-0.143
Mof_N 	N 	0.75	0.75	-0	-0.144
Mof_N 	N 	0.25	0.75	0.5	-0.166
Mof_N 	N 	0.75	0.75	0.5	-0.165
Mof_N 	N 	0.25	0.75	-0	-0.145
Mof_N 	N 	0.25	0.25	-0	-0.145
Mof_N 	N 	0.75	0.25	0.5	-0.164
Mof_N 	N 	1.06452e-33	0.3277	0.2838	-0.173
Mof_Cd	Cd	-3.15412e-33	0.25298	0.55016	0.401
Mof_N 	N 	-3.43904e-33	0.1354	0.4742	-0.179
Mof_C 	C 	1.34734e-33	0.3131	0.3592	0.172
Mof_C 	C 	1.76932e-33	0.0662	0.4717	0.206
Mof_N 	N 	1.59565e-33	0.3209	0.4254	-0.168
Mof_C 	C 	8.47337e-34	0.2769	0.2259	0.177
Mof_N 	N 	-1.97121e-33	0.2401	0.17	-0.186
Mof_N 	N 	0.5	0.8277	0.2838	-0.173
Mof_Cd	Cd	0.5	0.75298	0.55016	0.409
Mof_N 	N 	0.5	0.6354	0.4742	-0.179
Mof_C 	C 	0.5	0.8131	0.3592	0.175
Mof_C 	C 	0.5	0.5662	0.4717	0.211
Mof_N 	N 	0.5	0.8209	0.4254	-0.167
Mof_C 	C 	0.5	0.7769	0.2259	0.18
Mof_N 	N 	0.5	0.7401	0.17	-0.184
Mof_N 	N 	2.93999e-33	0.1723	0.7838	-0.173
Mof_Cd	Cd	-2.42072e-33	0.24702	0.05016	0.421
Mof_N 	N 	3.65416e-33	0.3646	0.9742	-0.184
Mof_C 	C 	3.22281e-33	0.1869	0.8592	0.166
Mof_C 	C 	1.40803e-32	0.4338	0.9717	0.168
Mof_N 	N 	1.39066e-32	0.1791	0.9254	-0.177
Mof_C 	C 	2.72281e-33	0.2231	0.7259	0.172
Mof_N 	N 	2.51313e-33	0.2599	0.67	-0.187
Mof_N 	N 	0.5	0.6723	0.7838	-0.173
Mof_Cd	Cd	0.5	0.74702	0.05016	0.429
Mof_N 	N 	0.5	0.8646	0.9742	-0.18
Mof_C 	C 	0.5	0.6869	0.8592	0.169
Mof_C 	C 	0.5	0.9338	0.9717	0.156
Mof_N 	N 	0.5	0.6791	0.9254	-0.176
Mof_C 	C 	0.5	0.7231	0.7259	0.175
Mof_N 	N 	0.5	0.7599	0.67	-0.186
Mof_N 	N 	1.12464e-32	0.8277	0.2162	-0.174
Mof_Cd	Cd	-6.87269e-33	0.75298	0.94984	0.376
Mof_N 	N 	2.70564e-33	0.6354	0.0258	-0.169
Mof_C 	C 	-7.76303e-34	0.8131	0.1408	0.172
Mof_C 	C 	7.58369e-34	0.5662	0.0283	0.207
Mof_N 	N 	-6.24235e-33	0.8209	0.0746	-0.16
Mof_C 	C 	8.85474e-33	0.7769	0.2741	0.174
Mof_N 	N 	-6.5888e-33	0.7401	0.33	-0.187
Mof_N 	N 	0.5	0.3277	0.2162	-0.171
Mof_Cd	Cd	0.5	0.25298	0.94984	0.39
Mof_N 	N 	0.5	0.1354	0.0258	-0.166
Mof_C 	C 	0.5	0.3131	0.1408	0.181
Mof_C 	C 	0.5	0.0662	0.0283	0.216
Mof_N 	N 	0.5	0.3209	0.0746	-0.156
Mof_C 	C 	0.5	0.2769	0.2741	0.183
Mof_N 	N 	0.5	0.2401	0.33	-0.183
Mof_N 	N 	1.83396e-32	0.6723	0.7162	-0.174
Mof_Cd	Cd	1.21228e-32	0.74702	0.44984	0.398
Mof_N 	N 	-3.2455e-33	0.8646	0.5258	-0.178
Mof_C 	C 	7.62134e-33	0.6869	0.6408	0.167
Mof_C 	C 	1.98162e-33	0.9338	0.5283	0.185
Mof_N 	N 	1.78085e-32	0.6791	0.5746	-0.168
Mof_C 	C 	2.9036e-33	0.7231	0.7741	0.169
Mof_N 	N 	2.39842e-32	0.7599	0.83	-0.188
Mof_N 	N 	0.5	0.1723	0.7162	-0.171
Mof_Cd	Cd	0.5	0.24702	0.44984	0.413
Mof_N 	N 	0.5	0.3646	0.5258	-0.179
Mof_C 	C 	0.5	0.1869	0.6408	0.176
Mof_C 	C 	0.5	0.4338	0.5283	0.21
Mof_N 	N 	0.5	0.1791	0.5746	-0.164
Mof_C 	C 	0.5	0.2231	0.7741	0.178
Mof_N 	N 	0.5	0.2599	0.83	-0.185
Mof_N 	N 	7.09321e-33	0	0.5	-0.2
Mof_N 	N 	0.5	0.5	0.5	-0.213
Mof_N 	N 	-0	0.5	-0	-0.187
Mof_N 	N 	0.5	0	-0	-0.175
_end
