data_functionalizedCrystal
_audit_creation_method	'EQeq! by Chris Wilmer'
_symmetry_space_group_name_H-M	'P1'
_symmetry_Int_Tables_number	1
_symmetry_cell_setting	triclinic
loop_
_symmetry_equiv_pos_as_xyz
  x,y,z
_cell_length_a	9.6256
_cell_length_b	23.436
_cell_length_c	41.593
_cell_angle_alpha	90
_cell_angle_beta	90
_cell_angle_gamma	90
loop_
_atom_site_label
_atom_site_type_symbol
_atom_site_fract_x
_atom_site_fract_y
_atom_site_fract_z
_atom_site_charge
Mof_Zn	Zn	0.79659	0.50188	0.91714	1.177
Mof_Zn	Zn	0.70094	0.37572	0.03945	1.175
Mof_Zn	Zn	0.79692	0.37473	0.79179	1.175
Mof_N 	N 	0.7497	0.4412	0.9465	-0.294
Mof_N 	N 	0.7142	0.3925	0.99328	-0.29
Mof_N 	N 	0.7543	0.4781	0.87299	-0.285
Mof_N 	N 	0.7548	0.4299	0.82595	-0.284
Mof_N 	N 	0.6794	0.5663	0.9283	-0.288
Mof_N 	N 	0.4868	0.6129	0.9446	-0.288
Mof_N 	N 	0.8177	0.4276	0.0637	-0.291
Mof_N 	N 	0.0108	0.4734	0.0807	-0.29
Mof_N 	N 	0.6732	0.3945	0.7568	-0.282
Mof_N 	N 	0.4829	0.3905	0.7236	-0.281
Mof_N 	N 	0.757	0.2968	0.0483	-0.299
Mof_N 	N 	0.7744	0.2965	0.8085	-0.284
Mof_C 	C 	0.7591	0.4421	0.9795	0.065
Mof_H 	H 	0.7925	0.4731	0.9911	-0.053
Mof_C 	C 	0.6718	0.3581	0.9679	-0.015
Mof_H 	H 	0.6368	0.3213	0.9696	-0.002
Mof_C 	C 	0.6906	0.3883	0.9392	-0.018
Mof_H 	H 	0.6677	0.3754	0.9187	0.002
Mof_C 	C 	0.8125	0.4333	0.856	0.065
Mof_H 	H 	0.8809	0.409	0.8639	-0.048
Mof_C 	C 	0.6561	0.4732	0.8235	-0.017
Mof_H 	H 	0.5975	0.4798	0.8061	0.006
Mof_C 	C 	0.6615	0.5049	0.852	-0.014
Mof_H 	H 	0.6118	0.5381	0.8562	0.004
Mof_C 	C 	0.5528	0.5613	0.9433	0.06
Mof_H 	H 	0.5169	0.5274	0.9514	-0.049
Mof_C 	C 	0.5692	0.6523	0.9281	-0.018
Mof_H 	H 	0.5481	0.6904	0.9241	0.003
Mof_C 	C 	0.6892	0.6234	0.9185	-0.01
Mof_H 	H 	0.7636	0.6394	0.9074	0.001
Mof_C 	C 	0.9548	0.4381	0.0577	0.063
Mof_H 	H 	0.0039	0.4233	0.0403	-0.052
Mof_C 	C 	0.9087	0.4813	0.1038	-0.015
Mof_H 	H 	0.9185	0.5011	0.1231	0.001
Mof_C 	C 	0.7881	0.4538	0.0929	-0.012
Mof_H 	H 	0.7028	0.4533	0.1034	0.002
Mof_C 	C 	0.5384	0.3634	0.7497	0.017
Mof_H 	H 	0.5015	0.3324	0.7607	-0.034
Mof_C 	C 	0.5698	0.4353	0.7145	-0.017
Mof_H 	H 	0.5524	0.4605	0.6977	0.004
Mof_C 	C 	0.6856	0.4368	0.7341	-0.003
Mof_H 	H 	0.7594	0.4621	0.7323	0.001
Mof_C 	C 	0.8533	0.2789	0.0697	-0.008
Mof_H 	H 	0.9098	0.3023	0.0822	-0.001
Mof_C 	C 	0.7327	0.2789	0.8387	-0.012
Mof_H 	H 	0.709	0.3024	0.8559	-0
Mof_Zn	Zn	0.70341	0.49812	0.41714	1.178
Mof_Zn	Zn	0.79906	0.62428	0.53945	1.176
Mof_Zn	Zn	0.70308	0.62527	0.29179	1.176
Mof_N 	N 	0.7503	0.5588	0.4465	-0.293
Mof_N 	N 	0.7858	0.6075	0.49328	-0.289
Mof_N 	N 	0.7457	0.5219	0.37299	-0.284
Mof_N 	N 	0.7452	0.5701	0.32595	-0.283
Mof_N 	N 	0.8206	0.4337	0.4283	-0.287
Mof_N 	N 	0.0132	0.3871	0.4446	-0.287
Mof_N 	N 	0.6823	0.5724	0.5637	-0.29
Mof_N 	N 	0.4892	0.5266	0.5807	-0.289
Mof_N 	N 	0.8268	0.6055	0.2568	-0.281
Mof_N 	N 	0.0171	0.6095	0.2236	-0.281
Mof_N 	N 	0.743	0.7032	0.5483	-0.298
Mof_N 	N 	0.7256	0.7035	0.3085	-0.283
Mof_C 	C 	0.7409	0.5579	0.4795	0.066
Mof_H 	H 	0.7075	0.5269	0.4911	-0.052
Mof_C 	C 	0.8282	0.6419	0.4679	-0.014
Mof_H 	H 	0.8632	0.6787	0.4696	-0.001
Mof_C 	C 	0.8094	0.6117	0.4392	-0.017
Mof_H 	H 	0.8323	0.6246	0.4187	0.002
Mof_C 	C 	0.6875	0.5667	0.356	0.065
Mof_H 	H 	0.6191	0.591	0.3639	-0.048
Mof_C 	C 	0.8439	0.5268	0.3235	-0.017
Mof_H 	H 	0.9025	0.5202	0.3061	0.006
Mof_C 	C 	0.8385	0.4951	0.352	-0.014
Mof_H 	H 	0.8882	0.4619	0.3562	0.004
Mof_C 	C 	0.9472	0.4387	0.4433	0.06
Mof_H 	H 	0.9831	0.4726	0.4514	-0.049
Mof_C 	C 	0.9308	0.3477	0.4281	-0.018
Mof_H 	H 	0.9519	0.3096	0.4241	0.003
Mof_C 	C 	0.8108	0.3766	0.4185	-0.01
Mof_H 	H 	0.7364	0.3606	0.4074	0.001
Mof_C 	C 	0.5452	0.5619	0.5577	0.063
Mof_H 	H 	0.4961	0.5767	0.5403	-0.052
Mof_C 	C 	0.5913	0.5187	0.6038	-0.015
Mof_H 	H 	0.5815	0.4989	0.6231	0.001
Mof_C 	C 	0.7119	0.5462	0.5929	-0.012
Mof_H 	H 	0.7972	0.5467	0.6034	0.002
Mof_C 	C 	0.9616	0.6366	0.2497	0.017
Mof_H 	H 	0.9985	0.6676	0.2607	-0.034
Mof_C 	C 	0.9302	0.5647	0.2145	-0.017
Mof_H 	H 	0.9476	0.5395	0.1977	0.004
Mof_C 	C 	0.8144	0.5632	0.2341	-0.003
Mof_H 	H 	0.7406	0.5379	0.2323	0.001
Mof_C 	C 	0.6467	0.7211	0.5697	-0.008
Mof_H 	H 	0.5902	0.6977	0.5822	-0.001
Mof_C 	C 	0.7673	0.7211	0.3387	-0.012
Mof_H 	H 	0.791	0.6976	0.3559	-0
Mof_Zn	Zn	0.20341	0.00188	0.08286	1.178
Mof_Zn	Zn	0.29906	0.87572	0.96055	1.176
Mof_Zn	Zn	0.20308	0.87473	0.20821	1.176
Mof_N 	N 	0.2503	0.9412	0.0535	-0.293
Mof_N 	N 	0.2858	0.8925	0.00672	-0.289
Mof_N 	N 	0.2457	0.9781	0.12701	-0.283
Mof_N 	N 	0.2452	0.9299	0.17405	-0.283
Mof_N 	N 	0.3206	0.0663	0.0717	-0.287
Mof_N 	N 	0.5132	0.1129	0.0554	-0.287
Mof_N 	N 	0.1823	0.9276	0.9363	-0.29
Mof_N 	N 	0.9892	0.9734	0.9193	-0.289
Mof_N 	N 	0.3268	0.8945	0.2432	-0.281
Mof_N 	N 	0.5171	0.8905	0.2764	-0.28
Mof_N 	N 	0.243	0.7968	0.9517	-0.298
Mof_N 	N 	0.2256	0.7965	0.1915	-0.283
Mof_C 	C 	0.2409	0.9421	0.0205	0.066
Mof_H 	H 	0.2075	0.9731	0.0089	-0.052
Mof_C 	C 	0.3282	0.8581	0.0321	-0.014
Mof_H 	H 	0.3632	0.8213	0.0304	-0.001
Mof_C 	C 	0.3094	0.8883	0.0608	-0.017
Mof_H 	H 	0.3323	0.8754	0.0813	0.002
Mof_C 	C 	0.1875	0.9333	0.144	0.065
Mof_H 	H 	0.1191	0.909	0.1361	-0.048
Mof_C 	C 	0.3439	0.9732	0.1765	-0.016
Mof_H 	H 	0.4025	0.9798	0.1939	0.006
Mof_C 	C 	0.3385	0.0049	0.148	-0.015
Mof_H 	H 	0.3882	0.0381	0.1438	0.004
Mof_C 	C 	0.4472	0.0613	0.0567	0.06
Mof_H 	H 	0.4831	0.0274	0.0486	-0.049
Mof_C 	C 	0.4308	0.1523	0.0719	-0.018
Mof_H 	H 	0.4519	0.1904	0.0759	0.003
Mof_C 	C 	0.3108	0.1234	0.0815	-0.01
Mof_H 	H 	0.2364	0.1394	0.0926	0.001
Mof_C 	C 	0.0452	0.9381	0.9423	0.063
Mof_H 	H 	0.9961	0.9233	0.9597	-0.052
Mof_C 	C 	0.0913	0.9813	0.8962	-0.016
Mof_H 	H 	0.0815	0.0011	0.8769	0.002
Mof_C 	C 	0.2119	0.9538	0.9071	-0.012
Mof_H 	H 	0.2972	0.9533	0.8966	0.002
Mof_C 	C 	0.4616	0.8634	0.2503	0.017
Mof_H 	H 	0.4985	0.8324	0.2393	-0.034
Mof_C 	C 	0.4302	0.9353	0.2855	-0.017
Mof_H 	H 	0.4476	0.9605	0.3023	0.005
Mof_C 	C 	0.3144	0.9368	0.2659	-0.003
Mof_H 	H 	0.2406	0.9621	0.2677	0.001
Mof_C 	C 	0.1467	0.7789	0.9303	-0.008
Mof_H 	H 	0.0902	0.8023	0.9178	-0.001
Mof_C 	C 	0.2673	0.7789	0.1613	-0.012
Mof_H 	H 	0.291	0.8024	0.1441	0
Mof_Zn	Zn	0.29659	0.99812	0.58286	1.178
Mof_Zn	Zn	0.20094	0.12428	0.46055	1.176
Mof_Zn	Zn	0.29692	0.12527	0.70821	1.176
Mof_N 	N 	0.2497	0.0588	0.5535	-0.293
Mof_N 	N 	0.2142	0.1075	0.50672	-0.289
Mof_N 	N 	0.2543	0.0219	0.62701	-0.284
Mof_N 	N 	0.2548	0.0701	0.67405	-0.283
Mof_N 	N 	0.1794	0.9337	0.5717	-0.287
Mof_N 	N 	0.9868	0.8871	0.5554	-0.287
Mof_N 	N 	0.3177	0.0724	0.4363	-0.29
Mof_N 	N 	0.5108	0.0266	0.4193	-0.289
Mof_N 	N 	0.1732	0.1055	0.7432	-0.281
Mof_N 	N 	0.9829	0.1095	0.7764	-0.281
Mof_N 	N 	0.257	0.2032	0.4517	-0.298
Mof_N 	N 	0.2744	0.2035	0.6915	-0.283
Mof_C 	C 	0.2591	0.0579	0.5205	0.066
Mof_H 	H 	0.2925	0.0269	0.5089	-0.052
Mof_C 	C 	0.1718	0.1419	0.5321	-0.014
Mof_H 	H 	0.1368	0.1787	0.5304	-0.001
Mof_C 	C 	0.1906	0.1117	0.5608	-0.017
Mof_H 	H 	0.1677	0.1246	0.5813	0.002
Mof_C 	C 	0.3125	0.0667	0.644	0.065
Mof_H 	H 	0.3809	0.091	0.6361	-0.048
Mof_C 	C 	0.1561	0.0268	0.6765	-0.016
Mof_H 	H 	0.0975	0.0202	0.6939	0.006
Mof_C 	C 	0.1615	0.9951	0.648	-0.015
Mof_H 	H 	0.1118	0.9619	0.6438	0.004
Mof_C 	C 	0.0528	0.9387	0.5567	0.06
Mof_H 	H 	0.0169	0.9726	0.5486	-0.049
Mof_C 	C 	0.0692	0.8477	0.5719	-0.018
Mof_H 	H 	0.0481	0.8096	0.5759	0.003
Mof_C 	C 	0.1892	0.8766	0.5815	-0.01
Mof_H 	H 	0.2636	0.8606	0.5926	0.001
Mof_C 	C 	0.4548	0.0619	0.4423	0.063
Mof_H 	H 	0.5039	0.0767	0.4597	-0.052
Mof_C 	C 	0.4087	0.0187	0.3962	-0.016
Mof_H 	H 	0.4185	0.9989	0.3769	0.002
Mof_C 	C 	0.2881	0.0462	0.4071	-0.012
Mof_H 	H 	0.2028	0.0467	0.3966	0.002
Mof_C 	C 	0.0384	0.1366	0.7503	0.017
Mof_H 	H 	0.0015	0.1676	0.7393	-0.034
Mof_C 	C 	0.0698	0.0647	0.7855	-0.017
Mof_H 	H 	0.0524	0.0395	0.8023	0.005
Mof_C 	C 	0.1856	0.0632	0.7659	-0.003
Mof_H 	H 	0.2594	0.0379	0.7677	0.001
Mof_C 	C 	0.3533	0.2211	0.4303	-0.008
Mof_H 	H 	0.4098	0.1977	0.4178	-0.001
Mof_C 	C 	0.2327	0.2211	0.6613	-0.012
Mof_H 	H 	0.209	0.1976	0.6441	-0
Mof_Zn	Zn	0.20341	0.49812	0.08286	1.178
Mof_Zn	Zn	0.29906	0.62428	0.96055	1.176
Mof_Zn	Zn	0.20308	0.62527	0.20821	1.176
Mof_N 	N 	0.2503	0.5588	0.0535	-0.293
Mof_N 	N 	0.2858	0.6075	0.00672	-0.289
Mof_N 	N 	0.2457	0.5219	0.12701	-0.284
Mof_N 	N 	0.2452	0.5701	0.17405	-0.283
Mof_N 	N 	0.3206	0.4337	0.0717	-0.287
Mof_N 	N 	0.5132	0.3871	0.0554	-0.287
Mof_N 	N 	0.1823	0.5724	0.9363	-0.29
Mof_N 	N 	0.9892	0.5266	0.9193	-0.289
Mof_N 	N 	0.3268	0.6055	0.2432	-0.281
Mof_N 	N 	0.5171	0.6095	0.2764	-0.28
Mof_N 	N 	0.243	0.7032	0.9517	-0.298
Mof_N 	N 	0.2256	0.7035	0.1915	-0.283
Mof_C 	C 	0.2409	0.5579	0.0205	0.066
Mof_H 	H 	0.2075	0.5269	0.0089	-0.052
Mof_C 	C 	0.3282	0.6419	0.0321	-0.014
Mof_H 	H 	0.3632	0.6787	0.0304	-0.001
Mof_C 	C 	0.3094	0.6117	0.0608	-0.017
Mof_H 	H 	0.3323	0.6246	0.0813	0.002
Mof_C 	C 	0.1875	0.5667	0.144	0.065
Mof_H 	H 	0.1191	0.591	0.1361	-0.048
Mof_C 	C 	0.3439	0.5268	0.1765	-0.017
Mof_H 	H 	0.4025	0.5202	0.1939	0.006
Mof_C 	C 	0.3385	0.4951	0.148	-0.014
Mof_H 	H 	0.3882	0.4619	0.1438	0.004
Mof_C 	C 	0.4472	0.4387	0.0567	0.06
Mof_H 	H 	0.4831	0.4726	0.0486	-0.049
Mof_C 	C 	0.4308	0.3477	0.0719	-0.018
Mof_H 	H 	0.4519	0.3096	0.0759	0.003
Mof_C 	C 	0.3108	0.3766	0.0815	-0.01
Mof_H 	H 	0.2364	0.3606	0.0926	0.001
Mof_C 	C 	0.0452	0.5619	0.9423	0.063
Mof_H 	H 	0.9961	0.5767	0.9597	-0.052
Mof_C 	C 	0.0913	0.5187	0.8962	-0.015
Mof_H 	H 	0.0815	0.4989	0.8769	0.001
Mof_C 	C 	0.2119	0.5462	0.9071	-0.012
Mof_H 	H 	0.2972	0.5467	0.8966	0.002
Mof_C 	C 	0.4616	0.6366	0.2503	0.017
Mof_H 	H 	0.4985	0.6676	0.2393	-0.034
Mof_C 	C 	0.4302	0.5647	0.2855	-0.017
Mof_H 	H 	0.4476	0.5395	0.3023	0.004
Mof_C 	C 	0.3144	0.5632	0.2659	-0.003
Mof_H 	H 	0.2406	0.5379	0.2677	0.001
Mof_C 	C 	0.1467	0.7211	0.9303	-0.008
Mof_H 	H 	0.0902	0.6977	0.9178	-0.001
Mof_C 	C 	0.2673	0.7211	0.1613	-0.012
Mof_H 	H 	0.291	0.6976	0.1441	-0
Mof_Zn	Zn	0.29659	0.50188	0.58286	1.178
Mof_Zn	Zn	0.20094	0.37572	0.46055	1.176
Mof_Zn	Zn	0.29692	0.37473	0.70821	1.176
Mof_N 	N 	0.2497	0.4412	0.5535	-0.293
Mof_N 	N 	0.2142	0.3925	0.50672	-0.289
Mof_N 	N 	0.2543	0.4781	0.62701	-0.284
Mof_N 	N 	0.2548	0.4299	0.67405	-0.283
Mof_N 	N 	0.1794	0.5663	0.5717	-0.287
Mof_N 	N 	0.9868	0.6129	0.5554	-0.287
Mof_N 	N 	0.3177	0.4276	0.4363	-0.29
Mof_N 	N 	0.5108	0.4734	0.4193	-0.289
Mof_N 	N 	0.1732	0.3945	0.7432	-0.281
Mof_N 	N 	0.9829	0.3905	0.7764	-0.281
Mof_N 	N 	0.257	0.2968	0.4517	-0.298
Mof_N 	N 	0.2744	0.2965	0.6915	-0.283
Mof_C 	C 	0.2591	0.4421	0.5205	0.066
Mof_H 	H 	0.2925	0.4731	0.5089	-0.052
Mof_C 	C 	0.1718	0.3581	0.5321	-0.014
Mof_H 	H 	0.1368	0.3213	0.5304	-0.001
Mof_C 	C 	0.1906	0.3883	0.5608	-0.017
Mof_H 	H 	0.1677	0.3754	0.5813	0.002
Mof_C 	C 	0.3125	0.4333	0.644	0.065
Mof_H 	H 	0.3809	0.409	0.6361	-0.048
Mof_C 	C 	0.1561	0.4732	0.6765	-0.017
Mof_H 	H 	0.0975	0.4798	0.6939	0.006
Mof_C 	C 	0.1615	0.5049	0.648	-0.014
Mof_H 	H 	0.1118	0.5381	0.6438	0.004
Mof_C 	C 	0.0528	0.5613	0.5567	0.06
Mof_H 	H 	0.0169	0.5274	0.5486	-0.049
Mof_C 	C 	0.0692	0.6523	0.5719	-0.018
Mof_H 	H 	0.0481	0.6904	0.5759	0.003
Mof_C 	C 	0.1892	0.6234	0.5815	-0.01
Mof_H 	H 	0.2636	0.6394	0.5926	0.001
Mof_C 	C 	0.4548	0.4381	0.4423	0.063
Mof_H 	H 	0.5039	0.4233	0.4597	-0.052
Mof_C 	C 	0.4087	0.4813	0.3962	-0.015
Mof_H 	H 	0.4185	0.5011	0.3769	0.001
Mof_C 	C 	0.2881	0.4538	0.4071	-0.012
Mof_H 	H 	0.2028	0.4533	0.3966	0.002
Mof_C 	C 	0.0384	0.3634	0.7503	0.017
Mof_H 	H 	0.0015	0.3324	0.7393	-0.034
Mof_C 	C 	0.0698	0.4353	0.7855	-0.017
Mof_H 	H 	0.0524	0.4605	0.8023	0.004
Mof_C 	C 	0.1856	0.4368	0.7659	-0.003
Mof_H 	H 	0.2594	0.4621	0.7677	0.001
Mof_C 	C 	0.3533	0.2789	0.4303	-0.008
Mof_H 	H 	0.4098	0.3023	0.4178	-0.001
Mof_C 	C 	0.2327	0.2789	0.6613	-0.012
Mof_H 	H 	0.209	0.3024	0.6441	-0
Mof_Zn	Zn	0.79659	0.99812	0.91714	1.178
Mof_Zn	Zn	0.70094	0.12428	0.03945	1.176
Mof_Zn	Zn	0.79692	0.12527	0.79179	1.176
Mof_N 	N 	0.7497	0.0588	0.9465	-0.293
Mof_N 	N 	0.7142	0.1075	0.99328	-0.289
Mof_N 	N 	0.7543	0.0219	0.87299	-0.283
Mof_N 	N 	0.7548	0.0701	0.82595	-0.283
Mof_N 	N 	0.6794	0.9337	0.9283	-0.287
Mof_N 	N 	0.4868	0.8871	0.9446	-0.287
Mof_N 	N 	0.8177	0.0724	0.0637	-0.29
Mof_N 	N 	0.0108	0.0266	0.0807	-0.289
Mof_N 	N 	0.6732	0.1055	0.7568	-0.281
Mof_N 	N 	0.4829	0.1095	0.7236	-0.28
Mof_N 	N 	0.757	0.2032	0.0483	-0.298
Mof_N 	N 	0.7744	0.2035	0.8085	-0.283
Mof_C 	C 	0.7591	0.0579	0.9795	0.066
Mof_H 	H 	0.7925	0.0269	0.9911	-0.052
Mof_C 	C 	0.6718	0.1419	0.9679	-0.014
Mof_H 	H 	0.6368	0.1787	0.9696	-0.001
Mof_C 	C 	0.6906	0.1117	0.9392	-0.017
Mof_H 	H 	0.6677	0.1246	0.9187	0.002
Mof_C 	C 	0.8125	0.0667	0.856	0.065
Mof_H 	H 	0.8809	0.091	0.8639	-0.048
Mof_C 	C 	0.6561	0.0268	0.8235	-0.016
Mof_H 	H 	0.5975	0.0202	0.8061	0.006
Mof_C 	C 	0.6615	0.9951	0.852	-0.015
Mof_H 	H 	0.6118	0.9619	0.8562	0.004
Mof_C 	C 	0.5528	0.9387	0.9433	0.06
Mof_H 	H 	0.5169	0.9726	0.9514	-0.049
Mof_C 	C 	0.5692	0.8477	0.9281	-0.018
Mof_H 	H 	0.5481	0.8096	0.9241	0.003
Mof_C 	C 	0.6892	0.8766	0.9185	-0.01
Mof_H 	H 	0.7636	0.8606	0.9074	0.001
Mof_C 	C 	0.9548	0.0619	0.0577	0.063
Mof_H 	H 	0.0039	0.0767	0.0403	-0.052
Mof_C 	C 	0.9087	0.0187	0.1038	-0.016
Mof_H 	H 	0.9185	0.9989	0.1231	0.002
Mof_C 	C 	0.7881	0.0462	0.0929	-0.012
Mof_H 	H 	0.7028	0.0467	0.1034	0.002
Mof_C 	C 	0.5384	0.1366	0.7497	0.017
Mof_H 	H 	0.5015	0.1676	0.7607	-0.034
Mof_C 	C 	0.5698	0.0647	0.7145	-0.017
Mof_H 	H 	0.5524	0.0395	0.6977	0.005
Mof_C 	C 	0.6856	0.0632	0.7341	-0.003
Mof_H 	H 	0.7594	0.0379	0.7323	0.001
Mof_C 	C 	0.8533	0.2211	0.0697	-0.008
Mof_H 	H 	0.9098	0.1977	0.0822	-0.001
Mof_C 	C 	0.7327	0.2211	0.8387	-0.012
Mof_H 	H 	0.709	0.1976	0.8559	0
Mof_Zn	Zn	0.70341	0.00188	0.41714	1.178
Mof_Zn	Zn	0.79906	0.87572	0.53945	1.176
Mof_Zn	Zn	0.70308	0.87473	0.29179	1.176
Mof_N 	N 	0.7503	0.9412	0.4465	-0.293
Mof_N 	N 	0.7858	0.8925	0.49328	-0.289
Mof_N 	N 	0.7457	0.9781	0.37299	-0.284
Mof_N 	N 	0.7452	0.9299	0.32595	-0.283
Mof_N 	N 	0.8206	0.0663	0.4283	-0.287
Mof_N 	N 	0.0132	0.1129	0.4446	-0.287
Mof_N 	N 	0.6823	0.9276	0.5637	-0.29
Mof_N 	N 	0.4892	0.9734	0.5807	-0.289
Mof_N 	N 	0.8268	0.8945	0.2568	-0.281
Mof_N 	N 	0.0171	0.8905	0.2236	-0.281
Mof_N 	N 	0.743	0.7968	0.5483	-0.298
Mof_N 	N 	0.7256	0.7965	0.3085	-0.283
Mof_C 	C 	0.7409	0.9421	0.4795	0.066
Mof_H 	H 	0.7075	0.9731	0.4911	-0.052
Mof_C 	C 	0.8282	0.8581	0.4679	-0.014
Mof_H 	H 	0.8632	0.8213	0.4696	-0.001
Mof_C 	C 	0.8094	0.8883	0.4392	-0.017
Mof_H 	H 	0.8323	0.8754	0.4187	0.002
Mof_C 	C 	0.6875	0.9333	0.356	0.065
Mof_H 	H 	0.6191	0.909	0.3639	-0.048
Mof_C 	C 	0.8439	0.9732	0.3235	-0.016
Mof_H 	H 	0.9025	0.9798	0.3061	0.006
Mof_C 	C 	0.8385	0.0049	0.352	-0.015
Mof_H 	H 	0.8882	0.0381	0.3562	0.004
Mof_C 	C 	0.9472	0.0613	0.4433	0.06
Mof_H 	H 	0.9831	0.0274	0.4514	-0.049
Mof_C 	C 	0.9308	0.1523	0.4281	-0.018
Mof_H 	H 	0.9519	0.1904	0.4241	0.003
Mof_C 	C 	0.8108	0.1234	0.4185	-0.01
Mof_H 	H 	0.7364	0.1394	0.4074	0.001
Mof_C 	C 	0.5452	0.9381	0.5577	0.063
Mof_H 	H 	0.4961	0.9233	0.5403	-0.052
Mof_C 	C 	0.5913	0.9813	0.6038	-0.016
Mof_H 	H 	0.5815	0.0011	0.6231	0.002
Mof_C 	C 	0.7119	0.9538	0.5929	-0.012
Mof_H 	H 	0.7972	0.9533	0.6034	0.002
Mof_C 	C 	0.9616	0.8634	0.2497	0.017
Mof_H 	H 	0.9985	0.8324	0.2607	-0.034
Mof_C 	C 	0.9302	0.9353	0.2145	-0.017
Mof_H 	H 	0.9476	0.9605	0.1977	0.005
Mof_C 	C 	0.8144	0.9368	0.2341	-0.003
Mof_H 	H 	0.7406	0.9621	0.2323	0.001
Mof_C 	C 	0.6467	0.7789	0.5697	-0.008
Mof_H 	H 	0.5902	0.8023	0.5822	-0.001
Mof_C 	C 	0.7673	0.7789	0.3387	-0.012
Mof_H 	H 	0.791	0.8024	0.3559	-0
Mof_C 	C 	0.7039	0.25	0.036	0.107
Mof_H 	H 	0.6358	0.25	0.0201	-0.068
Mof_C 	C 	0.799	0.25	0.7895	0.045
Mof_H 	H 	0.8267	0.25	0.7681	-0.054
Mof_C 	C 	0.7961	0.75	0.536	0.107
Mof_H 	H 	0.8642	0.75	0.5201	-0.068
Mof_C 	C 	0.701	0.75	0.2895	0.045
Mof_H 	H 	0.6733	0.75	0.2681	-0.053
Mof_C 	C 	0.2961	0.75	0.964	0.107
Mof_H 	H 	0.3642	0.75	0.9799	-0.068
Mof_C 	C 	0.201	0.75	0.2105	0.045
Mof_H 	H 	0.1733	0.75	0.2319	-0.054
Mof_C 	C 	0.2039	0.25	0.464	0.107
Mof_H 	H 	0.1358	0.25	0.4799	-0.068
Mof_C 	C 	0.299	0.25	0.7105	0.045
Mof_H 	H 	0.3267	0.25	0.7319	-0.053
_end
