# CIF file generated by openbabel 3.1.0, see https://openbabel.org
data_I
_chemical_name_common 'IXOFEH_clean'
_cell_length_a 6.7884
_cell_length_b 13.2305
_cell_length_c 16.6357
_cell_angle_alpha 90
_cell_angle_beta 90
_cell_angle_gamma 90
_space_group_name_H-M_alt 'P 1'
_space_group_name_Hall 'P 1'
loop_
    _symmetry_equiv_pos_as_xyz
    x,y,z
loop_
    _atom_site_label
    _atom_site_type_symbol
    _atom_site_fract_x
    _atom_site_fract_y
    _atom_site_fract_z
    _atom_site_occupancy
    V1       V        0.43877    0.26461    0.49945    1.000
    V2       V        0.06123    0.73539    0.99945    1.000
    V3       V        0.56123    0.76461    0.00055    1.000
    V4       V        0.93877    0.23539    0.50055    1.000
    H1       H        0.54950    0.98330    0.81880    1.000
    H2       H        0.53070    0.08700    0.70820    1.000
    H3       H        0.96690    0.93560    0.80720    1.000
    H4       H        0.94830    0.03930    0.69570    1.000
    H5       H        0.95050    0.01670    0.31880    1.000
    H6       H        0.96930    0.91300    0.20820    1.000
    H7       H        0.53310    0.06440    0.30720    1.000
    H8       H        0.55170    0.96070    0.19570    1.000
    H9       H        0.45050    0.48330    0.68120    1.000
    H10      H        0.46930    0.58700    0.79180    1.000
    H11      H        0.03310    0.43560    0.69280    1.000
    H12      H        0.05170    0.53930    0.80430    1.000
    H13      H        0.04950    0.51670    0.18120    1.000
    H14      H        0.03070    0.41300    0.29180    1.000
    H15      H        0.46690    0.56440    0.19280    1.000
    H16      H        0.44830    0.46070    0.30430    1.000
    C1       C        0.27280    0.87800    0.89332    1.000
    C2       C        0.26060    0.94890    0.82410    1.000
    C3       C        0.42850    0.99450    0.79413    1.000
    C4       C        0.41710    0.05650    0.72792    1.000
    C5       C        0.08020    0.96600    0.78714    1.000
    C6       C        0.06910    0.02810    0.72054    1.000
    C7       C        0.23840    0.07400    0.69041    1.000
    C8       C        0.22690    0.13840    0.61753    1.000
    C9       C        0.22720    0.12200    0.39332    1.000
    C10      C        0.23940    0.05110    0.32410    1.000
    C11      C        0.07150    0.00550    0.29413    1.000
    C12      C        0.08290    0.94350    0.22792    1.000
    C13      C        0.41980    0.03400    0.28714    1.000
    C14      C        0.43090    0.97190    0.22054    1.000
    C15      C        0.26160    0.92600    0.19041    1.000
    C16      C        0.27310    0.86160    0.11753    1.000
    C17      C        0.72720    0.37800    0.60668    1.000
    C18      C        0.73940    0.44890    0.67590    1.000
    C19      C        0.57150    0.49450    0.70587    1.000
    C20      C        0.58290    0.55650    0.77208    1.000
    C21      C        0.91980    0.46600    0.71286    1.000
    C22      C        0.93090    0.52810    0.77946    1.000
    C23      C        0.76160    0.57400    0.80959    1.000
    C24      C        0.77310    0.63840    0.88247    1.000
    C25      C        0.77280    0.62200    0.10668    1.000
    C26      C        0.76060    0.55110    0.17590    1.000
    C27      C        0.92850    0.50550    0.20587    1.000
    C28      C        0.91710    0.44350    0.27208    1.000
    C29      C        0.58020    0.53400    0.21286    1.000
    C30      C        0.56910    0.47190    0.27946    1.000
    C31      C        0.73840    0.42600    0.30959    1.000
    C32      C        0.72690    0.36160    0.38247    1.000
    O1       O        0.21969    0.31192    0.49691    1.000
    O2       O        0.38770    0.17118    0.58981    1.000
    O3       O        0.44210    0.85785    0.92067    1.000
    O4       O        0.05970    0.15637    0.58916    1.000
    O5       O        0.11220    0.84273    0.91962    1.000
    O6       O        0.28031    0.68808    0.99691    1.000
    O7       O        0.11230    0.82882    0.08981    1.000
    O8       O        0.05790    0.14215    0.42067    1.000
    O9       O        0.44030    0.84363    0.08916    1.000
    O10      O        0.38780    0.15727    0.41962    1.000
    O11      O        0.78031    0.81192    0.00309    1.000
    O12      O        0.61230    0.67118    0.91019    1.000
    O13      O        0.55790    0.35785    0.57933    1.000
    O14      O        0.94030    0.65637    0.91084    1.000
    O15      O        0.88780    0.34273    0.58038    1.000
    O16      O        0.71969    0.18808    0.50309    1.000
    O17      O        0.88770    0.32882    0.41019    1.000
    O18      O        0.94210    0.64215    0.07933    1.000
    O19      O        0.55970    0.34363    0.41084    1.000
    O20      O        0.61220    0.65727    0.08038    1.000
