data_functionalizedCrystal
_audit_creation_method	'EQeq! by Chris Wilmer'
_symmetry_space_group_name_H-M	'P1'
_symmetry_Int_Tables_number	1
_symmetry_cell_setting	triclinic
loop_
_symmetry_equiv_pos_as_xyz
  x,y,z
_cell_length_a	13.8711
_cell_length_b	13.8711
_cell_length_c	12.663
_cell_angle_alpha	90
_cell_angle_beta	90
_cell_angle_gamma	120
loop_
_atom_site_label
_atom_site_type_symbol
_atom_site_fract_x
_atom_site_fract_y
_atom_site_fract_z
_atom_site_charge
Mof_O 	O 	0.8081	0.3786	0.1065	-0.317
Mof_O 	O 	0.8522	0.5454	0.1356	-0.303
Mof_C 	C 	0.882	0.4754	0.1113	0.32
Mof_C 	C 	0.9912	0.5072	0.0582	-0.042
Mof_O 	O 	0.6214	0.4295	0.1065	-0.316
Mof_O 	O 	0.4546	0.3068	0.1356	-0.302
Mof_C 	C 	0.5246	0.4066	0.1113	0.321
Mof_C 	C 	0.4928	0.484	0.0582	-0.041
Mof_O 	O 	0.5705	0.1919	0.1065	-0.316
Mof_O 	O 	0.6932	0.1478	0.1356	-0.302
Mof_C 	C 	0.5934	0.118	0.1113	0.321
Mof_C 	C 	0.516	0.0088	0.0582	-0.041
Mof_O 	O 	0.8081	0.3786	0.3935	-0.316
Mof_O 	O 	0.8522	0.5454	0.3644	-0.302
Mof_C 	C 	0.882	0.4754	0.3887	0.321
Mof_C 	C 	0.9912	0.5072	0.4418	-0.041
Mof_O 	O 	0.6214	0.4295	0.3935	-0.316
Mof_O 	O 	0.4546	0.3068	0.3644	-0.302
Mof_C 	C 	0.5246	0.4066	0.3887	0.321
Mof_C 	C 	0.4928	0.484	0.4418	-0.041
Mof_O 	O 	0.5705	0.1919	0.3935	-0.316
Mof_O 	O 	0.6932	0.1478	0.3644	-0.302
Mof_C 	C 	0.5934	0.118	0.3887	0.321
Mof_C 	C 	0.516	0.0088	0.4418	-0.041
Mof_O 	O 	0.3786	0.8081	0.8935	-0.316
Mof_O 	O 	0.5454	0.8522	0.8644	-0.302
Mof_C 	C 	0.4754	0.882	0.8887	0.321
Mof_C 	C 	0.5072	0.9912	0.9418	-0.041
Mof_O 	O 	0.4295	0.6214	0.8935	-0.316
Mof_O 	O 	0.3068	0.4546	0.8644	-0.302
Mof_C 	C 	0.4066	0.5246	0.8887	0.321
Mof_C 	C 	0.484	0.4928	0.9418	-0.041
Mof_O 	O 	0.1919	0.5705	0.8935	-0.316
Mof_O 	O 	0.1478	0.6932	0.8644	-0.302
Mof_C 	C 	0.118	0.5934	0.8887	0.321
Mof_C 	C 	0.0088	0.516	0.9418	-0.041
Mof_O 	O 	0.3786	0.8081	0.6065	-0.316
Mof_O 	O 	0.5454	0.8522	0.6356	-0.302
Mof_C 	C 	0.4754	0.882	0.6113	0.321
Mof_C 	C 	0.5072	0.9912	0.5582	-0.041
Mof_O 	O 	0.4295	0.6214	0.6065	-0.316
Mof_O 	O 	0.3068	0.4546	0.6356	-0.302
Mof_C 	C 	0.4066	0.5246	0.6113	0.321
Mof_C 	C 	0.484	0.4928	0.5582	-0.041
Mof_O 	O 	0.1919	0.5705	0.6065	-0.316
Mof_O 	O 	0.1478	0.6932	0.6356	-0.302
Mof_C 	C 	0.118	0.5934	0.6113	0.321
Mof_C 	C 	0.0088	0.516	0.5582	-0.041
Mof_Fe	Fe	0.7706	0.2866	0.25	0.842
Mof_Fe	Fe	0.7134	0.484	0.25	0.842
Mof_Fe	Fe	0.516	0.2294	0.25	0.842
Mof_Fe	Fe	0.2866	0.7706	0.75	0.842
Mof_Fe	Fe	0.484	0.7134	0.75	0.842
Mof_Fe	Fe	0.2294	0.516	0.75	0.842
Mof_O 	O 	0.66667	0.33333	0.25	-0.496
Mof_O 	O 	0.33333	0.66667	0.75	-0.496
_end
