data_functionalizedCrystal
_audit_creation_method	'EQeq! by Chris Wilmer'
_symmetry_space_group_name_H-M	'P1'
_symmetry_Int_Tables_number	1
_symmetry_cell_setting	triclinic
loop_
_symmetry_equiv_pos_as_xyz
  x,y,z
_cell_length_a	13.3346
_cell_length_b	13.4613
_cell_length_c	17.5115
_cell_angle_alpha	90
_cell_angle_beta	90
_cell_angle_gamma	90
loop_
_atom_site_label
_atom_site_type_symbol
_atom_site_fract_x
_atom_site_fract_y
_atom_site_fract_z
_atom_site_charge
Mof_Co	Co	0.73306	0.50992	0.57402	1.172
Mof_Co	Co	0.76574	0.49107	0.41613	1.167
Mof_O 	O 	0.5965	0.4717	0.5301	-0.475
Mof_O 	O 	0.6211	0.4415	0.4068	-0.465
Mof_O 	O 	0.3056	0.151	0.5506	-0.447
Mof_O 	O 	0.2689	0.1376	0.4254	-0.483
Mof_O 	O 	0.7066	0.6523	0.5439	-0.473
Mof_O 	O 	0.7156	0.6343	0.4188	-0.485
Mof_O 	O 	0.38	0.9568	0.4223	-0.527
Mof_O 	O 	0.4033	0.9619	0.5478	-0.458
Mof_O 	O 	0.6863	0.5248	0.8077	-0.518
Mof_O 	O 	0.6869	0.5221	0.683	-0.524
Mof_C 	C 	0.4538	0.4193	0.4552	-0.097
Mof_C 	C 	0.4432	0.3037	0.4465	0.492
Mof_C 	C 	0.3313	0.2916	0.4697	-0.381
Mof_H 	H 	0.2903	0.3184	0.4281	0.142
Mof_C 	C 	0.3174	0.3608	0.5398	0.086
Mof_H 	H 	0.2492	0.3857	0.5423	-0.015
Mof_H 	H 	0.3323	0.3258	0.5869	0.005
Mof_C 	C 	0.3902	0.4442	0.5274	-0.178
Mof_H 	H 	0.4335	0.4513	0.5715	0.089
Mof_H 	H 	0.3543	0.5061	0.5199	0.071
Mof_C 	C 	0.415	0.477	0.3883	-0.312
Mof_H 	H 	0.4228	0.5468	0.398	0.094
Mof_H 	H 	0.3454	0.4621	0.3807	0.101
Mof_H 	H 	0.4522	0.4592	0.3434	0.092
Mof_C 	C 	0.4627	0.2674	0.3655	-0.949
Mof_H 	H 	0.4203	0.3028	0.3305	0.285
Mof_H 	H 	0.4484	0.1976	0.3624	0.292
Mof_H 	H 	0.5317	0.2788	0.3525	0.301
Mof_C 	C 	0.5162	0.2437	0.5005	-0.937
Mof_H 	H 	0.5081	0.2662	0.5522	0.318
Mof_H 	H 	0.5843	0.2542	0.4846	0.307
Mof_H 	H 	0.5006	0.1741	0.4976	0.31
Mof_C 	C 	0.5688	0.4471	0.468	0.358
Mof_C 	C 	0.2989	0.1861	0.4827	0.415
Mof_C 	C 	0.6737	0.7946	0.4661	-0.191
Mof_C 	C 	0.5574	0.8081	0.4503	0.748
Mof_C 	C 	0.5429	0.9212	0.4672	-0.5
Mof_H 	H 	0.5682	0.9581	0.423	0.165
Mof_C 	C 	0.6115	0.9436	0.5338	0.118
Mof_H 	H 	0.5732	0.9495	0.5807	-0.001
Mof_H 	H 	0.6475	0.0052	0.5253	-0.023
Mof_C 	C 	0.6854	0.855	0.5386	-0.148
Mof_H 	H 	0.7537	0.879	0.5432	0.059
Mof_H 	H 	0.6702	0.8144	0.5829	0.07
Mof_C 	C 	0.7348	0.8373	0.3998	-0.247
Mof_H 	H 	0.805	0.8287	0.4099	0.09
Mof_H 	H 	0.7203	0.9068	0.3944	0.081
Mof_H 	H 	0.7174	0.8033	0.3535	0.078
Mof_C 	C 	0.528	0.7792	0.3679	-1.19
Mof_H 	H 	0.4574	0.7894	0.3609	0.373
Mof_H 	H 	0.5438	0.7105	0.3593	0.363
Mof_H 	H 	0.5645	0.8197	0.3324	0.356
Mof_C 	C 	0.496	0.75	0.5017	-1.39
Mof_H 	H 	0.4264	0.7604	0.4899	0.441
Mof_H 	H 	0.5087	0.7702	0.5534	0.452
Mof_H 	H 	0.5119	0.6808	0.496	0.44
Mof_C 	C 	0.6999	0.6838	0.4781	0.385
Mof_C 	C 	0.4365	0.9484	0.4775	0.467
Mof_C 	C 	0.8274	0.4513	0.744	-1.395
Mof_H 	H 	0.8478	0.4412	0.692	0.425
Mof_H 	H 	0.8215	0.3882	0.7692	0.426
Mof_H 	H 	0.8766	0.4912	0.7698	0.425
Mof_C 	C 	0.7298	0.5026	0.7454	0.755
Mof_Co	Co	0.76694	0.49008	0.07402	1.171
Mof_Co	Co	0.73426	0.50893	0.91613	1.167
Mof_O 	O 	0.9035	0.5283	0.0301	-0.479
Mof_O 	O 	0.8789	0.5585	0.9068	-0.467
Mof_O 	O 	0.1944	0.849	0.0506	-0.452
Mof_O 	O 	0.2311	0.8624	0.9254	-0.484
Mof_O 	O 	0.7934	0.3477	0.0439	-0.473
Mof_O 	O 	0.7844	0.3657	0.9188	-0.484
Mof_O 	O 	0.12	0.0432	0.9223	-0.525
Mof_O 	O 	0.0967	0.0381	0.0478	-0.452
Mof_O 	O 	0.8137	0.4752	0.3077	-0.518
Mof_O 	O 	0.8131	0.4779	0.183	-0.524
Mof_C 	C 	0.0462	0.5807	0.9552	-0.107
Mof_C 	C 	0.0568	0.6963	0.9465	0.514
Mof_C 	C 	0.1687	0.7084	0.9697	-0.389
Mof_H 	H 	0.2097	0.6816	0.9281	0.144
Mof_C 	C 	0.1826	0.6392	0.0398	0.086
Mof_H 	H 	0.2508	0.6143	0.0423	-0.015
Mof_H 	H 	0.1677	0.6742	0.0869	0.004
Mof_C 	C 	0.1098	0.5558	0.0274	-0.175
Mof_H 	H 	0.0665	0.5487	0.0715	0.087
Mof_H 	H 	0.1457	0.4939	0.0199	0.07
Mof_C 	C 	0.085	0.523	0.8883	-0.301
Mof_H 	H 	0.0772	0.4532	0.898	0.091
Mof_H 	H 	0.1546	0.5379	0.8807	0.097
Mof_H 	H 	0.0478	0.5408	0.8434	0.088
Mof_C 	C 	0.0373	0.7326	0.8655	-0.98
Mof_H 	H 	0.0797	0.6972	0.8305	0.295
Mof_H 	H 	0.0516	0.8024	0.8624	0.301
Mof_H 	H 	0.9683	0.7212	0.8525	0.312
Mof_C 	C 	0.9838	0.7563	0.0005	-0.991
Mof_H 	H 	0.9919	0.7338	0.0522	0.334
Mof_H 	H 	0.9157	0.7458	0.9846	0.326
Mof_H 	H 	0.9994	0.8259	0.9976	0.33
Mof_C 	C 	0.9312	0.5529	0.968	0.365
Mof_C 	C 	0.2011	0.8139	0.9827	0.422
Mof_C 	C 	0.8263	0.2054	0.9661	-0.187
Mof_C 	C 	0.9426	0.1919	0.9503	0.73
Mof_C 	C 	0.9571	0.0788	0.9672	-0.496
Mof_H 	H 	0.9318	0.0419	0.923	0.163
Mof_C 	C 	0.8885	0.0564	0.0338	0.123
Mof_H 	H 	0.9268	0.0505	0.0807	-0.003
Mof_H 	H 	0.8525	0.9948	0.0253	-0.026
Mof_C 	C 	0.8146	0.145	0.0386	-0.15
Mof_H 	H 	0.7463	0.121	0.0432	0.06
Mof_H 	H 	0.8298	0.1856	0.0829	0.071
Mof_C 	C 	0.7652	0.1627	0.8998	-0.25
Mof_H 	H 	0.695	0.1713	0.9099	0.09
Mof_H 	H 	0.7797	0.0932	0.8944	0.081
Mof_H 	H 	0.7826	0.1967	0.8535	0.079
Mof_C 	C 	0.972	0.2208	0.8679	-1.173
Mof_H 	H 	0.0426	0.2106	0.8609	0.369
Mof_H 	H 	0.9562	0.2895	0.8593	0.358
Mof_H 	H 	0.9355	0.1803	0.8324	0.35
Mof_C 	C 	0.004	0.25	0.0017	-1.344
Mof_H 	H 	0.0736	0.2396	0.9899	0.426
Mof_H 	H 	0.9913	0.2298	0.0534	0.438
Mof_H 	H 	0.9881	0.3192	0.996	0.425
Mof_C 	C 	0.8001	0.3162	0.9781	0.383
Mof_C 	C 	0.0635	0.0516	0.9775	0.46
Mof_C 	C 	0.6726	0.5487	0.244	-1.394
Mof_H 	H 	0.6522	0.5588	0.192	0.425
Mof_H 	H 	0.6785	0.6118	0.2692	0.426
Mof_H 	H 	0.6234	0.5088	0.2698	0.425
Mof_C 	C 	0.7702	0.4974	0.2454	0.755
Mof_Co	Co	0.26694	0.00992	0.92598	1.17
Mof_Co	Co	0.23426	0.99107	0.08387	1.164
Mof_O 	O 	0.4035	0.9717	0.9699	-0.469
Mof_O 	O 	0.3789	0.9415	0.0932	-0.464
Mof_O 	O 	0.6944	0.651	0.9494	-0.445
Mof_O 	O 	0.7311	0.6376	0.0746	-0.482
Mof_O 	O 	0.2934	0.1523	0.9561	-0.476
Mof_O 	O 	0.2844	0.1343	0.0812	-0.484
Mof_O 	O 	0.62	0.4568	0.0777	-0.527
Mof_O 	O 	0.5967	0.4619	0.9522	-0.458
Mof_O 	O 	0.3137	0.0248	0.6923	-0.517
Mof_O 	O 	0.3131	0.0221	0.817	-0.524
Mof_C 	C 	0.5462	0.9193	0.0448	-0.095
Mof_C 	C 	0.5568	0.8037	0.0535	0.477
Mof_C 	C 	0.6687	0.7916	0.0303	-0.377
Mof_H 	H 	0.7097	0.8184	0.0719	0.139
Mof_C 	C 	0.6826	0.8608	0.9602	0.08
Mof_H 	H 	0.7508	0.8857	0.9577	-0.012
Mof_H 	H 	0.6677	0.8258	0.9131	0.008
Mof_C 	C 	0.6098	0.9442	0.9726	-0.163
Mof_H 	H 	0.5665	0.9513	0.9285	0.085
Mof_H 	H 	0.6457	0.0061	0.9801	0.063
Mof_C 	C 	0.585	0.977	0.1117	-0.325
Mof_H 	H 	0.5772	0.0468	0.102	0.1
Mof_H 	H 	0.6546	0.9621	0.1193	0.104
Mof_H 	H 	0.5478	0.9592	0.1566	0.096
Mof_C 	C 	0.5373	0.7674	0.1345	-0.933
Mof_H 	H 	0.5797	0.8028	0.1695	0.281
Mof_H 	H 	0.5516	0.6976	0.1376	0.288
Mof_H 	H 	0.4683	0.7788	0.1475	0.296
Mof_C 	C 	0.4838	0.7437	0.9995	-0.898
Mof_H 	H 	0.4919	0.7662	0.9478	0.308
Mof_H 	H 	0.4157	0.7542	0.0154	0.294
Mof_H 	H 	0.4994	0.6741	0.0024	0.297
Mof_C 	C 	0.4312	0.9471	0.032	0.35
Mof_C 	C 	0.7011	0.6861	0.0173	0.41
Mof_C 	C 	0.3263	0.2946	0.0339	-0.196
Mof_C 	C 	0.4426	0.3081	0.0497	0.761
Mof_C 	C 	0.4571	0.4212	0.0328	-0.504
Mof_H 	H 	0.4318	0.4581	0.077	0.166
Mof_C 	C 	0.3885	0.4436	0.9662	0.118
Mof_H 	H 	0.4268	0.4495	0.9193	-0.002
Mof_H 	H 	0.3525	0.5052	0.9747	-0.022
Mof_C 	C 	0.3146	0.355	0.9614	-0.147
Mof_H 	H 	0.2463	0.379	0.9568	0.059
Mof_H 	H 	0.3298	0.3144	0.9171	0.07
Mof_C 	C 	0.2652	0.3373	0.1002	-0.243
Mof_H 	H 	0.195	0.3287	0.0901	0.089
Mof_H 	H 	0.2797	0.4068	0.1056	0.079
Mof_H 	H 	0.2826	0.3033	0.1465	0.077
Mof_C 	C 	0.472	0.2792	0.1321	-1.203
Mof_H 	H 	0.5426	0.2894	0.1391	0.377
Mof_H 	H 	0.4562	0.2105	0.1407	0.367
Mof_H 	H 	0.4355	0.3197	0.1676	0.359
Mof_C 	C 	0.504	0.25	0.9983	-1.419
Mof_H 	H 	0.5736	0.2604	0.0101	0.45
Mof_H 	H 	0.4913	0.2702	0.9466	0.46
Mof_H 	H 	0.4881	0.1808	0.004	0.449
Mof_C 	C 	0.3001	0.1838	0.0219	0.389
Mof_C 	C 	0.5635	0.4484	0.0225	0.467
Mof_C 	C 	0.1726	0.9513	0.756	-1.391
Mof_H 	H 	0.1522	0.9412	0.808	0.424
Mof_H 	H 	0.1785	0.8882	0.7308	0.425
Mof_H 	H 	0.1234	0.9912	0.7302	0.424
Mof_C 	C 	0.2702	0.0026	0.7546	0.754
Mof_Co	Co	0.23306	0.99008	0.42598	1.17
Mof_Co	Co	0.26574	0.00893	0.58387	1.167
Mof_O 	O 	0.0965	0.0283	0.4699	-0.474
Mof_O 	O 	0.1211	0.0585	0.5932	-0.465
Mof_O 	O 	0.8056	0.349	0.4494	-0.448
Mof_O 	O 	0.7689	0.3624	0.5746	-0.484
Mof_O 	O 	0.2066	0.8477	0.4561	-0.473
Mof_O 	O 	0.2156	0.8657	0.5812	-0.485
Mof_O 	O 	0.88	0.5432	0.5777	-0.526
Mof_O 	O 	0.9033	0.5381	0.4522	-0.458
Mof_O 	O 	0.1863	0.9752	0.1923	-0.518
Mof_O 	O 	0.1869	0.9779	0.317	-0.524
Mof_C 	C 	0.9538	0.0807	0.5448	-0.092
Mof_C 	C 	0.9432	0.1963	0.5535	0.49
Mof_C 	C 	0.8313	0.2084	0.5303	-0.382
Mof_H 	H 	0.7903	0.1816	0.5719	0.142
Mof_C 	C 	0.8174	0.1392	0.4602	0.09
Mof_H 	H 	0.7492	0.1143	0.4577	-0.017
Mof_H 	H 	0.8323	0.1742	0.4131	0.004
Mof_C 	C 	0.8902	0.0558	0.4726	-0.186
Mof_H 	H 	0.9335	0.0487	0.4285	0.091
Mof_H 	H 	0.8543	0.9939	0.4801	0.075
Mof_C 	C 	0.915	0.023	0.6117	-0.329
Mof_H 	H 	0.9228	0.9532	0.602	0.101
Mof_H 	H 	0.8454	0.0379	0.6193	0.105
Mof_H 	H 	0.9522	0.0408	0.6566	0.096
Mof_C 	C 	0.9627	0.2326	0.6345	-0.95
Mof_H 	H 	0.9203	0.1972	0.6695	0.285
Mof_H 	H 	0.9484	0.3024	0.6376	0.292
Mof_H 	H 	0.0317	0.2212	0.6475	0.302
Mof_C 	C 	0.0162	0.2563	0.4995	-0.934
Mof_H 	H 	0.0081	0.2338	0.4478	0.318
Mof_H 	H 	0.0843	0.2458	0.5154	0.306
Mof_H 	H 	0.0006	0.3259	0.5024	0.309
Mof_C 	C 	0.0688	0.0529	0.532	0.358
Mof_C 	C 	0.7989	0.3139	0.5173	0.415
Mof_C 	C 	0.1737	0.7054	0.5339	-0.188
Mof_C 	C 	0.0574	0.6919	0.5497	0.737
Mof_C 	C 	0.0429	0.5788	0.5328	-0.496
Mof_H 	H 	0.0682	0.5419	0.577	0.164
Mof_C 	C 	0.1115	0.5564	0.4662	0.115
Mof_H 	H 	0.0732	0.5505	0.4193	-0.001
Mof_H 	H 	0.1475	0.4948	0.4747	-0.022
Mof_C 	C 	0.1854	0.645	0.4614	-0.147
Mof_H 	H 	0.2537	0.621	0.4568	0.059
Mof_H 	H 	0.1702	0.6856	0.4171	0.07
Mof_C 	C 	0.2348	0.6627	0.6002	-0.25
Mof_H 	H 	0.305	0.6713	0.5901	0.09
Mof_H 	H 	0.2203	0.5932	0.6056	0.081
Mof_H 	H 	0.2174	0.6967	0.6465	0.079
Mof_C 	C 	0.028	0.7208	0.6321	-1.185
Mof_H 	H 	0.9574	0.7106	0.6391	0.373
Mof_H 	H 	0.0438	0.7895	0.6407	0.361
Mof_H 	H 	0.0645	0.6803	0.6676	0.354
Mof_C 	C 	0.996	0.75	0.4983	-1.359
Mof_H 	H 	0.9264	0.7396	0.5101	0.432
Mof_H 	H 	0.0087	0.7298	0.4466	0.442
Mof_H 	H 	0.0119	0.8192	0.504	0.429
Mof_C 	C 	0.1999	0.8162	0.5219	0.384
Mof_C 	C 	0.9365	0.5516	0.5225	0.466
Mof_C 	C 	0.3274	0.0487	0.256	-1.385
Mof_H 	H 	0.3478	0.0588	0.308	0.423
Mof_H 	H 	0.3215	0.1118	0.2308	0.424
Mof_H 	H 	0.3766	0.0088	0.2302	0.424
Mof_C 	C 	0.2298	0.9974	0.2546	0.75
_end
