data_functionalizedCrystal
_audit_creation_method	'EQeq! by Chris Wilmer'
_symmetry_space_group_name_H-M	'P1'
_symmetry_Int_Tables_number	1
_symmetry_cell_setting	triclinic
loop_
_symmetry_equiv_pos_as_xyz
  x,y,z
_cell_length_a	7.3041
_cell_length_b	7.3041
_cell_length_c	8.164
_cell_angle_alpha	90
_cell_angle_beta	90
_cell_angle_gamma	120
loop_
_atom_site_label
_atom_site_type_symbol
_atom_site_fract_x
_atom_site_fract_y
_atom_site_fract_z
_atom_site_charge
Mof_Zn	Zn	0.66667	0.33334	0.75	1.249
Mof_Zn	Zn	0.33333	0.66666	0.25	1.246
Mof_H 	H 	3.7675e-17	0.5654	-0	-0.065
Mof_H 	H 	-3.07661e-17	0.4346	0.5	-0.091
Mof_H 	H 	0.5654	0	-0	-0.061
Mof_H 	H 	0.4346	0.4346	-0	-0.084
Mof_H 	H 	0.5654	0.5654	0.5	-0.094
Mof_H 	H 	0.4346	0	0.5	-0.086
Mof_C 	C 	-0	0.4379	-0	0.243
Mof_C 	C 	4.45838e-17	0.5621	0.5	0.381
Mof_C 	C 	0.5621	0	0.5	0.348
Mof_C 	C 	0.5621	0.5621	-0	0.314
Mof_C 	C 	0.4379	0	-0	0.204
Mof_C 	C 	0.4379	0.4379	0.5	0.462
Mof_O 	O 	0.695	0.1109	0.6048	-0.36
Mof_O 	O 	0.4159	0.1109	0.8952	-0.279
Mof_O 	O 	0.5841	0.695	0.1048	-0.346
Mof_O 	O 	0.5841	0.8891	0.3952	-0.31
Mof_O 	O 	0.4159	0.305	0.6048	-0.397
Mof_O 	O 	0.1109	0.695	0.3952	-0.368
Mof_O 	O 	0.305	0.8891	0.1048	-0.297
Mof_O 	O 	0.8891	0.305	0.8952	-0.248
Mof_O 	O 	0.305	0.4159	0.3952	-0.404
Mof_O 	O 	0.1109	0.4159	0.1048	-0.364
Mof_O 	O 	0.695	0.5841	0.8952	-0.271
Mof_O 	O 	0.8891	0.5841	0.6048	-0.322
_end
