data_functionalizedCrystal
_audit_creation_method	'EQeq! by Chris Wilmer'
_symmetry_space_group_name_H-M	'P1'
_symmetry_Int_Tables_number	1
_symmetry_cell_setting	triclinic
loop_
_symmetry_equiv_pos_as_xyz
  x,y,z
_cell_length_a	5.5313
_cell_length_b	13.396
_cell_length_c	20.934
_cell_angle_alpha	90
_cell_angle_beta	96.177
_cell_angle_gamma	90
loop_
_atom_site_label
_atom_site_type_symbol
_atom_site_fract_x
_atom_site_fract_y
_atom_site_fract_z
_atom_site_charge
Mof_Eu	Eu	0.62677	0.13215	0.97237	2
Mof_Eu	Eu	0.37323	0.63215	0.52763	2
Mof_Eu	Eu	0.37323	0.86785	0.02763	2
Mof_Eu	Eu	0.62677	0.36785	0.47237	2
Mof_P 	P 	0.9131	0.0223	0.08659	0.524
Mof_P 	P 	0.0869	0.5223	0.41341	0.522
Mof_P 	P 	0.0869	0.9777	0.91341	0.524
Mof_P 	P 	0.9131	0.4777	0.58659	0.522
Mof_H 	H 	0.7718	0.9715	0.1816	0.096
Mof_H 	H 	0.6741	0.0784	0.1635	0.069
Mof_H 	H 	0.7621	0.0987	0.2816	0.047
Mof_H 	H 	0.8961	0.9953	0.2878	0.041
Mof_H 	H 	0.037	0.0975	0.3722	0.013
Mof_H 	H 	0.2485	0.0716	0.3308	0.029
Mof_H 	H 	0.9877	0.2524	0.3244	0.062
Mof_H 	H 	0.3693	0.2051	0.2502	0.047
Mof_H 	H 	0.2216	0.3054	0.2457	0.039
Mof_H 	H 	0.0731	0.1982	0.1618	0.033
Mof_H 	H 	0.8683	0.2202	0.2063	0.034
Mof_H 	H 	0.2282	0.4715	0.3184	0.096
Mof_H 	H 	0.3259	0.5784	0.3365	0.069
Mof_H 	H 	0.2379	0.5987	0.2184	0.047
Mof_H 	H 	0.1039	0.4953	0.2122	0.04
Mof_H 	H 	0.963	0.5975	0.1278	0.014
Mof_H 	H 	0.7515	0.5716	0.1692	0.029
Mof_H 	H 	0.0123	0.7524	0.1756	0.061
Mof_H 	H 	0.6307	0.7051	0.2498	0.047
Mof_H 	H 	0.7784	0.8054	0.2543	0.04
Mof_H 	H 	0.9269	0.6982	0.3382	0.032
Mof_H 	H 	0.1317	0.7202	0.2937	0.032
Mof_H 	H 	0.2282	0.0285	0.8184	0.096
Mof_H 	H 	0.3259	0.9216	0.8365	0.069
Mof_H 	H 	0.2379	0.9013	0.7184	0.047
Mof_H 	H 	0.1039	0.0047	0.7122	0.041
Mof_H 	H 	0.963	0.9025	0.6278	0.013
Mof_H 	H 	0.7515	0.9284	0.6692	0.029
Mof_H 	H 	0.0123	0.7476	0.6756	0.062
Mof_H 	H 	0.6307	0.7949	0.7498	0.047
Mof_H 	H 	0.7784	0.6946	0.7543	0.039
Mof_H 	H 	0.9269	0.8018	0.8382	0.033
Mof_H 	H 	0.1317	0.7798	0.7937	0.034
Mof_H 	H 	0.7718	0.5285	0.6816	0.096
Mof_H 	H 	0.6741	0.4216	0.6635	0.069
Mof_H 	H 	0.7621	0.4013	0.7816	0.047
Mof_H 	H 	0.8961	0.5047	0.7878	0.04
Mof_H 	H 	0.037	0.4025	0.8722	0.014
Mof_H 	H 	0.2485	0.4284	0.8308	0.029
Mof_H 	H 	0.9877	0.2476	0.8244	0.061
Mof_H 	H 	0.3693	0.2949	0.7502	0.047
Mof_H 	H 	0.2216	0.1946	0.7457	0.04
Mof_H 	H 	0.0731	0.3018	0.6618	0.032
Mof_H 	H 	0.8683	0.2798	0.7063	0.032
Mof_C 	C 	0.818	0.0366	0.1667	-0.223
Mof_C 	C 	0.918	0.066	0.28	-0.081
Mof_C 	C 	0.096	0.1076	0.3307	-0.039
Mof_C 	C 	0.143	0.2179	0.3217	-0.133
Mof_C 	C 	0.211	0.2344	0.2539	-0.064
Mof_C 	C 	0.024	0.1877	0.2044	-0.06
Mof_C 	C 	0.326	0.263	0.3734	0.323
Mof_C 	C 	0.182	0.5366	0.3333	-0.223
Mof_C 	C 	0.082	0.566	0.22	-0.08
Mof_C 	C 	0.904	0.6076	0.1693	-0.04
Mof_C 	C 	0.857	0.7179	0.1783	-0.13
Mof_C 	C 	0.789	0.7344	0.2461	-0.067
Mof_C 	C 	0.976	0.6877	0.2956	-0.057
Mof_C 	C 	0.674	0.763	0.1266	0.322
Mof_C 	C 	0.182	0.9634	0.8333	-0.223
Mof_C 	C 	0.082	0.934	0.72	-0.081
Mof_C 	C 	0.904	0.8924	0.6693	-0.039
Mof_C 	C 	0.857	0.7821	0.6783	-0.133
Mof_C 	C 	0.789	0.7656	0.7461	-0.064
Mof_C 	C 	0.976	0.8123	0.7956	-0.06
Mof_C 	C 	0.674	0.737	0.6266	0.323
Mof_C 	C 	0.818	0.4634	0.6667	-0.223
Mof_C 	C 	0.918	0.434	0.78	-0.08
Mof_C 	C 	0.096	0.3924	0.8307	-0.04
Mof_C 	C 	0.143	0.2821	0.8217	-0.13
Mof_C 	C 	0.211	0.2656	0.7539	-0.067
Mof_C 	C 	0.024	0.3123	0.7044	-0.057
Mof_C 	C 	0.326	0.237	0.8734	0.322
Mof_N 	N 	0.998	0.0797	0.2157	-0.07
Mof_N 	N 	0.002	0.5797	0.2843	-0.071
Mof_N 	N 	0.002	0.9203	0.7843	-0.07
Mof_N 	N 	0.998	0.4203	0.7157	-0.071
Mof_O 	O 	0.6835	0.9823	0.0455	-0.674
Mof_O 	O 	0.9613	0.122	0.0572	-0.532
Mof_O 	O 	0.1267	0.9531	0.09	-0.528
Mof_O 	O 	0.2965	0.2464	0.4324	-0.499
Mof_O 	O 	0.4973	0.3165	0.3598	-0.453
Mof_O 	O 	0.3165	0.4823	0.4545	-0.674
Mof_O 	O 	0.0387	0.622	0.4428	-0.533
Mof_O 	O 	0.8733	0.4531	0.41	-0.526
Mof_O 	O 	0.7035	0.7464	0.0676	-0.498
Mof_O 	O 	0.5027	0.8165	0.1402	-0.453
Mof_O 	O 	0.3165	0.0177	0.9545	-0.674
Mof_O 	O 	0.0387	0.878	0.9428	-0.532
Mof_O 	O 	0.8733	0.0469	0.91	-0.528
Mof_O 	O 	0.7035	0.7536	0.5676	-0.499
Mof_O 	O 	0.5027	0.6835	0.6402	-0.453
Mof_O 	O 	0.6835	0.5177	0.5455	-0.674
Mof_O 	O 	0.9613	0.378	0.5572	-0.533
Mof_O 	O 	0.1267	0.5469	0.59	-0.526
Mof_O 	O 	0.2965	0.2536	0.9324	-0.498
Mof_O 	O 	0.4973	0.1835	0.8598	-0.453
_end
