data_functionalizedCrystal
_audit_creation_method	'EQeq! by Chris Wilmer'
_symmetry_space_group_name_H-M	'P1'
_symmetry_Int_Tables_number	1
_symmetry_cell_setting	triclinic
loop_
_symmetry_equiv_pos_as_xyz
  x,y,z
_cell_length_a	28.7051
_cell_length_b	28.7051
_cell_length_c	35.1997
_cell_angle_alpha	90
_cell_angle_beta	90
_cell_angle_gamma	120
loop_
_atom_site_label
_atom_site_type_symbol
_atom_site_fract_x
_atom_site_fract_y
_atom_site_fract_z
_atom_site_charge
Mof_Eu	Eu	0.28334	0.4544	0.4745	1.694
Mof_Eu	Eu	0.14264	0.52303	0.37746	1.696
Mof_Eu	Eu	0.38416	0.49039	0.63594	1.698
Mof_Eu	Eu	0.14887	0.46341	0.20556	1.695
Mof_O 	O 	0.31693	0.47467	0.53936	-0.517
Mof_O 	O 	0.32788	0.51428	0.59606	-0.493
Mof_O 	O 	0.22194	0.47962	0.44556	-0.506
Mof_O 	O 	0.1812	0.52862	0.44167	-0.496
Mof_N 	N 	0.25424	0.50996	0.51469	-0.195
Mof_C 	C 	0.2709	0.52186	0.55091	-0.09
Mof_C 	C 	0.2547	0.5504	0.57469	-0.007
Mof_C 	C 	0.2192	0.5656	0.55982	-0.078
Mof_C 	C 	0.20209	0.5536	0.5224	-0.005
Mof_C 	C 	0.22103	0.52599	0.50052	-0.089
Mof_C 	C 	0.30824	0.5025	0.56356	0.379
Mof_C 	C 	0.20669	0.51088	0.45949	0.376
Mof_O 	O 	0.15591	0.51326	0.31021	-0.506
Mof_O 	O 	0.16422	0.53817	0.24908	-0.496
Mof_O 	O 	0.15667	0.60504	0.40796	-0.517
Mof_O 	O 	0.30955	0.48376	0.40773	-0.489
Mof_N 	N 	0.17021	0.60482	0.33445	-0.196
Mof_C 	C 	0.17755	0.6024	0.29702	-0.086
Mof_C 	C 	0.1958	0.647	0.27332	-0.006
Mof_C 	C 	0.2051	0.6952	0.28907	-0.078
Mof_C 	C 	0.1964	0.6978	0.32765	-0.005
Mof_C 	C 	0.17929	0.65171	0.3496	-0.089
Mof_C 	C 	0.16515	0.54728	0.28376	0.377
Mof_C 	C 	0.16936	0.64947	0.39157	0.375
Mof_O 	O 	0.29882	0.46413	0.66727	-0.507
Mof_O 	O 	0.48277	0.5533	0.64026	-0.497
Mof_O 	O 	0.42953	0.43821	0.63507	-0.517
Mof_O 	O 	0.07095	0.43515	0.3531	-0.488
Mof_N 	N 	0.336	0.3985	0.6685	-0.197
Mof_C 	C 	0.28839	0.38049	0.68621	-0.086
Mof_C 	C 	0.2626	0.3321	0.70615	-0.006
Mof_C 	C 	0.287	0.3009	0.70703	-0.078
Mof_C 	C 	0.3359	0.3184	0.68858	-0.006
Mof_C 	C 	0.35938	0.3676	0.66958	-0.09
Mof_C 	C 	0.26671	0.41868	0.68225	0.377
Mof_C 	C 	0.412	0.3914	0.64915	0.372
Mof_O 	O 	0.13277	0.5269	0.1704	-0.517
Mof_O 	O 	0.20971	0.42543	0.20825	-0.488
Mof_O 	O 	0.09844	0.36601	0.19847	-0.507
Mof_O 	O 	0.28957	0.37683	0.49964	-0.496
Mof_N 	N 	0.07474	0.42422	0.15503	-0.196
Mof_C 	C 	0.06317	0.45708	0.13484	-0.088
Mof_C 	C 	0.0212	0.4376	0.10825	-0.007
Mof_C 	C 	0.9909	0.3819	0.10286	-0.08
Mof_C 	C 	0.0027	0.3481	0.1236	-0.002
Mof_C 	C 	0.0452	0.37059	0.14926	-0.089
Mof_C 	C 	0.09847	0.51558	0.14397	0.373
Mof_C 	C 	0.06329	0.33901	0.17324	0.377
Mof_H 	H 	0.26838	0.55972	0.60083	0.007
Mof_H 	H 	0.20613	0.58432	0.57607	0.018
Mof_H 	H 	0.17746	0.56452	0.51162	-0.002
Mof_H 	H 	0.2017	0.6442	0.24611	-0.001
Mof_H 	H 	0.21802	0.72738	0.27307	0.018
Mof_H 	H 	0.20207	0.73135	0.33918	0.007
Mof_H 	H 	0.22821	0.32033	0.71891	-0.001
Mof_H 	H 	0.27005	0.26673	0.72091	0.018
Mof_H 	H 	0.35323	0.29643	0.68857	0.007
Mof_H 	H 	0.01356	0.46209	0.09371	0.007
Mof_H 	H 	0.96106	0.36698	0.08461	0.019
Mof_H 	H 	0.98152	0.30893	0.12011	-0.003
Mof_Eu	Eu	0.95001	0.78773	0.80783	1.695
Mof_Eu	Eu	0.80931	0.85636	0.71079	1.697
Mof_Eu	Eu	0.05083	0.82372	0.96927	1.697
Mof_Eu	Eu	0.81554	0.79675	0.5389	1.696
Mof_O 	O 	0.9836	0.808	0.87269	-0.517
Mof_O 	O 	0.99455	0.84761	0.92939	-0.492
Mof_O 	O 	0.88861	0.81295	0.77889	-0.506
Mof_O 	O 	0.84787	0.86195	0.775	-0.496
Mof_N 	N 	0.92091	0.84329	0.84802	-0.195
Mof_C 	C 	0.93757	0.85519	0.88424	-0.09
Mof_C 	C 	0.92137	0.88373	0.90802	-0.007
Mof_C 	C 	0.88587	0.89893	0.89315	-0.078
Mof_C 	C 	0.86876	0.88693	0.85573	-0.005
Mof_C 	C 	0.8877	0.85932	0.83385	-0.089
Mof_C 	C 	0.97491	0.83583	0.89689	0.379
Mof_C 	C 	0.87336	0.84421	0.79282	0.376
Mof_O 	O 	0.82258	0.84659	0.64354	-0.506
Mof_O 	O 	0.83089	0.8715	0.58241	-0.497
Mof_O 	O 	0.82334	0.93837	0.74129	-0.517
Mof_O 	O 	0.97622	0.81709	0.74106	-0.489
Mof_N 	N 	0.83688	0.93815	0.66778	-0.196
Mof_C 	C 	0.84422	0.93573	0.63035	-0.087
Mof_C 	C 	0.86247	0.98033	0.60665	-0.005
Mof_C 	C 	0.87177	0.02853	0.6224	-0.079
Mof_C 	C 	0.86307	0.03113	0.66098	-0.006
Mof_C 	C 	0.84596	0.98504	0.68293	-0.089
Mof_C 	C 	0.83182	0.88061	0.61709	0.377
Mof_C 	C 	0.83603	0.9828	0.7249	0.375
Mof_O 	O 	0.96549	0.79746	0.0006	-0.507
Mof_O 	O 	0.14944	0.88663	0.97359	-0.497
Mof_O 	O 	0.0962	0.77154	0.9684	-0.517
Mof_O 	O 	0.73762	0.76848	0.68643	-0.488
Mof_N 	N 	0.00267	0.73183	0.00183	-0.197
Mof_C 	C 	0.95506	0.71382	0.01954	-0.086
Mof_C 	C 	0.92927	0.66543	0.03948	-0.006
Mof_C 	C 	0.95367	0.63423	0.04036	-0.079
Mof_C 	C 	0.00257	0.65173	0.02191	-0.006
Mof_C 	C 	0.02605	0.70093	0.00291	-0.089
Mof_C 	C 	0.93338	0.75201	0.01558	0.377
Mof_C 	C 	0.07867	0.72473	0.98248	0.372
Mof_O 	O 	0.79944	0.86023	0.50373	-0.517
Mof_O 	O 	0.87638	0.75876	0.54158	-0.488
Mof_O 	O 	0.76511	0.69934	0.5318	-0.507
Mof_O 	O 	0.95624	0.71016	0.83297	-0.496
Mof_N 	N 	0.74141	0.75755	0.48836	-0.196
Mof_C 	C 	0.72984	0.79041	0.46817	-0.087
Mof_C 	C 	0.68787	0.77093	0.44158	-0.008
Mof_C 	C 	0.65757	0.71523	0.43619	-0.078
Mof_C 	C 	0.66937	0.68143	0.45693	-0.004
Mof_C 	C 	0.71187	0.70392	0.48259	-0.089
Mof_C 	C 	0.76514	0.84891	0.4773	0.373
Mof_C 	C 	0.72996	0.67234	0.50657	0.377
Mof_H 	H 	0.93505	0.89305	0.93416	0.007
Mof_H 	H 	0.8728	0.91765	0.9094	0.018
Mof_H 	H 	0.84413	0.89785	0.84495	-0.002
Mof_H 	H 	0.86837	0.97753	0.57944	-0.002
Mof_H 	H 	0.88469	0.06071	0.6064	0.018
Mof_H 	H 	0.86874	0.06468	0.67251	0.007
Mof_H 	H 	0.89488	0.65366	0.05224	-0.002
Mof_H 	H 	0.93672	0.60006	0.05424	0.018
Mof_H 	H 	0.0199	0.62976	0.0219	0.007
Mof_H 	H 	0.68023	0.79542	0.42704	0.008
Mof_H 	H 	0.62773	0.70031	0.41794	0.018
Mof_H 	H 	0.64819	0.64226	0.45344	-0.002
Mof_Eu	Eu	0.61667	0.12107	0.14116	1.695
Mof_Eu	Eu	0.47598	0.1897	0.04413	1.697
Mof_Eu	Eu	0.71749	0.15706	0.30261	1.699
Mof_Eu	Eu	0.48221	0.13008	0.87223	1.696
Mof_O 	O 	0.65026	0.14134	0.20603	-0.517
Mof_O 	O 	0.66121	0.18095	0.26273	-0.493
Mof_O 	O 	0.55527	0.14629	0.11223	-0.506
Mof_O 	O 	0.51453	0.19529	0.10834	-0.496
Mof_N 	N 	0.58757	0.17663	0.18136	-0.195
Mof_C 	C 	0.60423	0.18853	0.21758	-0.09
Mof_C 	C 	0.58803	0.21707	0.24136	-0.007
Mof_C 	C 	0.55253	0.23227	0.22649	-0.078
Mof_C 	C 	0.53542	0.22027	0.18907	-0.005
Mof_C 	C 	0.55436	0.19266	0.16719	-0.089
Mof_C 	C 	0.64157	0.16917	0.23023	0.379
Mof_C 	C 	0.54002	0.17755	0.12616	0.376
Mof_O 	O 	0.48924	0.17993	0.97688	-0.506
Mof_O 	O 	0.49755	0.20484	0.91575	-0.496
Mof_O 	O 	0.49	0.27171	0.07463	-0.517
Mof_O 	O 	0.64288	0.15043	0.0744	-0.489
Mof_N 	N 	0.50354	0.27149	0.00112	-0.196
Mof_C 	C 	0.51088	0.26907	0.96369	-0.086
Mof_C 	C 	0.52913	0.31367	0.93999	-0.006
Mof_C 	C 	0.53843	0.36187	0.95574	-0.078
Mof_C 	C 	0.52973	0.36447	0.99432	-0.005
Mof_C 	C 	0.51262	0.31838	0.01627	-0.09
Mof_C 	C 	0.49848	0.21395	0.95043	0.377
Mof_C 	C 	0.50269	0.31614	0.05824	0.375
Mof_O 	O 	0.63215	0.1308	0.33394	-0.507
Mof_O 	O 	0.8161	0.21997	0.30693	-0.497
Mof_O 	O 	0.76286	0.10488	0.30174	-0.517
Mof_O 	O 	0.40428	0.10182	0.01977	-0.488
Mof_N 	N 	0.66933	0.06517	0.33517	-0.197
Mof_C 	C 	0.62172	0.04716	0.35288	-0.086
Mof_C 	C 	0.59593	0.99877	0.37282	-0.006
Mof_C 	C 	0.62033	0.96757	0.3737	-0.078
Mof_C 	C 	0.66923	0.98507	0.35525	-0.005
Mof_C 	C 	0.69271	0.03427	0.33625	-0.09
Mof_C 	C 	0.60004	0.08535	0.34892	0.377
Mof_C 	C 	0.74533	0.05807	0.31582	0.373
Mof_O 	O 	0.4661	0.19357	0.83707	-0.517
Mof_O 	O 	0.54304	0.0921	0.87492	-0.488
Mof_O 	O 	0.43177	0.03268	0.86514	-0.507
Mof_O 	O 	0.6229	0.0435	0.16631	-0.496
Mof_N 	N 	0.40807	0.09089	0.8217	-0.196
Mof_C 	C 	0.3965	0.12375	0.80151	-0.087
Mof_C 	C 	0.35453	0.10427	0.77492	-0.008
Mof_C 	C 	0.32423	0.04857	0.76953	-0.078
Mof_C 	C 	0.33603	0.01477	0.79027	-0.003
Mof_C 	C 	0.37853	0.03726	0.81593	-0.089
Mof_C 	C 	0.4318	0.18225	0.81064	0.373
Mof_C 	C 	0.39662	0.00568	0.83991	0.377
Mof_H 	H 	0.60171	0.22639	0.2675	0.007
Mof_H 	H 	0.53946	0.25099	0.24274	0.018
Mof_H 	H 	0.51079	0.23119	0.17829	-0.002
Mof_H 	H 	0.53503	0.31087	0.91278	-0.002
Mof_H 	H 	0.55135	0.39405	0.93974	0.018
Mof_H 	H 	0.5354	0.39802	0.00585	0.007
Mof_H 	H 	0.56154	0.987	0.38558	-0.002
Mof_H 	H 	0.60338	0.9334	0.38758	0.018
Mof_H 	H 	0.68656	0.9631	0.35524	0.007
Mof_H 	H 	0.34689	0.12876	0.76038	0.008
Mof_H 	H 	0.29439	0.03365	0.75128	0.018
Mof_H 	H 	0.31485	0.9756	0.78678	-0.002
Mof_Eu	Eu	0.5456	0.82894	0.4745	1.695
Mof_Eu	Eu	0.47697	0.61961	0.37746	1.697
Mof_Eu	Eu	0.50961	0.89377	0.63594	1.699
Mof_Eu	Eu	0.53659	0.68546	0.20556	1.696
Mof_O 	O 	0.52533	0.84226	0.53936	-0.517
Mof_O 	O 	0.48572	0.8136	0.59606	-0.493
Mof_O 	O 	0.52038	0.74232	0.44556	-0.506
Mof_O 	O 	0.47138	0.65258	0.44167	-0.496
Mof_N 	N 	0.49004	0.74428	0.51469	-0.195
Mof_C 	C 	0.47814	0.74904	0.55091	-0.09
Mof_C 	C 	0.4496	0.7043	0.57469	-0.007
Mof_C 	C 	0.4344	0.6536	0.55982	-0.078
Mof_C 	C 	0.4464	0.64849	0.5224	-0.005
Mof_C 	C 	0.47401	0.69504	0.50052	-0.089
Mof_C 	C 	0.4975	0.80574	0.56356	0.379
Mof_C 	C 	0.48912	0.69581	0.45949	0.376
Mof_O 	O 	0.48674	0.64265	0.31021	-0.506
Mof_O 	O 	0.46183	0.62605	0.24908	-0.496
Mof_O 	O 	0.39496	0.55163	0.40796	-0.517
Mof_O 	O 	0.51624	0.82579	0.40773	-0.489
Mof_N 	N 	0.39518	0.56539	0.33445	-0.196
Mof_C 	C 	0.3976	0.57515	0.29702	-0.086
Mof_C 	C 	0.353	0.5488	0.27332	-0.006
Mof_C 	C 	0.3048	0.5099	0.28907	-0.078
Mof_C 	C 	0.3022	0.4986	0.32765	-0.005
Mof_C 	C 	0.34829	0.52758	0.3496	-0.089
Mof_C 	C 	0.45272	0.61787	0.28376	0.377
Mof_C 	C 	0.35053	0.51989	0.39157	0.375
Mof_O 	O 	0.53587	0.83469	0.66727	-0.507
Mof_O 	O 	0.4467	0.92947	0.64026	-0.497
Mof_O 	O 	0.56179	0.99132	0.63507	-0.517
Mof_O 	O 	0.56485	0.6358	0.3531	-0.488
Mof_N 	N 	0.6015	0.9375	0.6685	-0.197
Mof_C 	C 	0.61951	0.9079	0.68621	-0.086
Mof_C 	C 	0.6679	0.9305	0.70615	-0.006
Mof_C 	C 	0.6991	0.9861	0.70703	-0.078
Mof_C 	C 	0.6816	0.0175	0.68858	-0.006
Mof_C 	C 	0.6324	0.99178	0.66958	-0.09
Mof_C 	C 	0.58132	0.84803	0.68225	0.377
Mof_C 	C 	0.6086	0.0206	0.64915	0.373
Mof_O 	O 	0.4731	0.60587	0.1704	-0.517
Mof_O 	O 	0.57457	0.78428	0.20825	-0.488
Mof_O 	O 	0.63399	0.73243	0.19847	-0.507
Mof_O 	O 	0.62317	0.91274	0.49964	-0.496
Mof_N 	N 	0.57578	0.65052	0.15503	-0.196
Mof_C 	C 	0.54292	0.60609	0.13484	-0.087
Mof_C 	C 	0.5624	0.5836	0.10825	-0.008
Mof_C 	C 	0.6181	0.609	0.10286	-0.078
Mof_C 	C 	0.6519	0.6546	0.1236	-0.004
Mof_C 	C 	0.62941	0.67461	0.14926	-0.089
Mof_C 	C 	0.48442	0.58289	0.14397	0.373
Mof_C 	C 	0.66099	0.72428	0.17324	0.377
Mof_H 	H 	0.44028	0.70866	0.60083	0.007
Mof_H 	H 	0.41568	0.62181	0.57607	0.018
Mof_H 	H 	0.43548	0.61294	0.51162	-0.002
Mof_H 	H 	0.3558	0.5575	0.24611	-0.001
Mof_H 	H 	0.27262	0.49064	0.27307	0.018
Mof_H 	H 	0.26865	0.47072	0.33918	0.007
Mof_H 	H 	0.67967	0.90788	0.71891	-0.002
Mof_H 	H 	0.73327	0.00332	0.72091	0.018
Mof_H 	H 	0.70357	0.0568	0.68857	0.007
Mof_H 	H 	0.53791	0.55147	0.09371	0.008
Mof_H 	H 	0.63302	0.59408	0.08461	0.018
Mof_H 	H 	0.69107	0.67259	0.12011	-0.002
Mof_Eu	Eu	0.21227	0.16227	0.80783	1.695
Mof_Eu	Eu	0.14364	0.95295	0.71079	1.697
Mof_Eu	Eu	0.17628	0.2271	0.96927	1.699
Mof_Eu	Eu	0.20325	0.01879	0.5389	1.696
Mof_O 	O 	0.192	0.17559	0.87269	-0.517
Mof_O 	O 	0.15239	0.14693	0.92939	-0.493
Mof_O 	O 	0.18705	0.07565	0.77889	-0.506
Mof_O 	O 	0.13805	0.98591	0.775	-0.496
Mof_N 	N 	0.15671	0.07761	0.84802	-0.195
Mof_C 	C 	0.14481	0.08237	0.88424	-0.09
Mof_C 	C 	0.11627	0.03763	0.90802	-0.006
Mof_C 	C 	0.10107	0.98693	0.89315	-0.079
Mof_C 	C 	0.11307	0.98182	0.85573	-0.005
Mof_C 	C 	0.14068	0.02837	0.83385	-0.089
Mof_C 	C 	0.16417	0.13907	0.89689	0.38
Mof_C 	C 	0.15579	0.02914	0.79282	0.377
Mof_O 	O 	0.15341	0.97598	0.64354	-0.507
Mof_O 	O 	0.1285	0.95938	0.58241	-0.497
Mof_O 	O 	0.06163	0.88496	0.74129	-0.517
Mof_O 	O 	0.18291	0.15912	0.74106	-0.489
Mof_N 	N 	0.06185	0.89872	0.66778	-0.196
Mof_C 	C 	0.06427	0.90848	0.63035	-0.086
Mof_C 	C 	0.01967	0.88213	0.60665	-0.006
Mof_C 	C 	0.97147	0.84323	0.6224	-0.078
Mof_C 	C 	0.96887	0.83193	0.66098	-0.005
Mof_C 	C 	0.01496	0.86091	0.68293	-0.09
Mof_C 	C 	0.11939	0.9512	0.61709	0.377
Mof_C 	C 	0.0172	0.85322	0.7249	0.374
Mof_O 	O 	0.20254	0.16802	0.0006	-0.507
Mof_O 	O 	0.11337	0.2628	0.97359	-0.497
Mof_O 	O 	0.22846	0.32465	0.9684	-0.517
Mof_O 	O 	0.23152	0.96913	0.68643	-0.488
Mof_N 	N 	0.26817	0.27083	0.00183	-0.197
Mof_C 	C 	0.28618	0.24123	0.01954	-0.086
Mof_C 	C 	0.33457	0.26383	0.03948	-0.006
Mof_C 	C 	0.36577	0.31943	0.04036	-0.078
Mof_C 	C 	0.34827	0.35083	0.02191	-0.006
Mof_C 	C 	0.29907	0.32511	0.00291	-0.09
Mof_C 	C 	0.24799	0.18136	0.01558	0.377
Mof_C 	C 	0.27527	0.35393	0.98248	0.372
Mof_O 	O 	0.13977	0.9392	0.50373	-0.517
Mof_O 	O 	0.24124	0.11761	0.54158	-0.488
Mof_O 	O 	0.30066	0.06576	0.5318	-0.507
Mof_O 	O 	0.28984	0.24607	0.83297	-0.496
Mof_N 	N 	0.24245	0.98385	0.48836	-0.196
Mof_C 	C 	0.20959	0.93942	0.46817	-0.087
Mof_C 	C 	0.22907	0.91693	0.44158	-0.008
Mof_C 	C 	0.28477	0.94233	0.43619	-0.078
Mof_C 	C 	0.31857	0.98793	0.45693	-0.004
Mof_C 	C 	0.29608	0.00794	0.48259	-0.088
Mof_C 	C 	0.15109	0.91622	0.4773	0.373
Mof_C 	C 	0.32766	0.05761	0.50657	0.377
Mof_H 	H 	0.10695	0.04199	0.93416	0.007
Mof_H 	H 	0.08235	0.95514	0.9094	0.018
Mof_H 	H 	0.10215	0.94627	0.84495	-0.002
Mof_H 	H 	0.02247	0.89083	0.57944	-0.002
Mof_H 	H 	0.93929	0.82397	0.6064	0.018
Mof_H 	H 	0.93532	0.80405	0.67251	0.007
Mof_H 	H 	0.34634	0.24121	0.05224	-0.001
Mof_H 	H 	0.39994	0.33665	0.05424	0.018
Mof_H 	H 	0.37024	0.39013	0.0219	0.007
Mof_H 	H 	0.20458	0.8848	0.42704	0.008
Mof_H 	H 	0.29969	0.92741	0.41794	0.018
Mof_H 	H 	0.35774	0.00592	0.45344	-0.002
Mof_Eu	Eu	0.87893	0.49561	0.14116	1.695
Mof_Eu	Eu	0.8103	0.28628	0.04413	1.697
Mof_Eu	Eu	0.84294	0.56044	0.30261	1.699
Mof_Eu	Eu	0.86992	0.35213	0.87223	1.696
Mof_O 	O 	0.85866	0.50893	0.20603	-0.517
Mof_O 	O 	0.81905	0.48027	0.26273	-0.493
Mof_O 	O 	0.85371	0.40899	0.11223	-0.506
Mof_O 	O 	0.80471	0.31925	0.10834	-0.496
Mof_N 	N 	0.82337	0.41095	0.18136	-0.195
Mof_C 	C 	0.81147	0.41571	0.21758	-0.09
Mof_C 	C 	0.78293	0.37097	0.24136	-0.007
Mof_C 	C 	0.76773	0.32027	0.22649	-0.078
Mof_C 	C 	0.77973	0.31516	0.18907	-0.005
Mof_C 	C 	0.80734	0.36171	0.16719	-0.089
Mof_C 	C 	0.83083	0.47241	0.23023	0.379
Mof_C 	C 	0.82245	0.36248	0.12616	0.376
Mof_O 	O 	0.82007	0.30932	0.97688	-0.506
Mof_O 	O 	0.79516	0.29272	0.91575	-0.496
Mof_O 	O 	0.72829	0.2183	0.07463	-0.517
Mof_O 	O 	0.84957	0.49246	0.0744	-0.489
Mof_N 	N 	0.72851	0.23206	0.00112	-0.196
Mof_C 	C 	0.73093	0.24182	0.96369	-0.086
Mof_C 	C 	0.68633	0.21547	0.93999	-0.005
Mof_C 	C 	0.63813	0.17657	0.95574	-0.079
Mof_C 	C 	0.63553	0.16527	0.99432	-0.004
Mof_C 	C 	0.68162	0.19425	0.01627	-0.09
Mof_C 	C 	0.78605	0.28454	0.95043	0.377
Mof_C 	C 	0.68386	0.18656	0.05824	0.375
Mof_O 	O 	0.8692	0.50136	0.33394	-0.507
Mof_O 	O 	0.78003	0.59614	0.30693	-0.497
Mof_O 	O 	0.89512	0.65799	0.30174	-0.517
Mof_O 	O 	0.89818	0.30247	0.01977	-0.488
Mof_N 	N 	0.93483	0.60417	0.33517	-0.197
Mof_C 	C 	0.95284	0.57457	0.35288	-0.086
Mof_C 	C 	0.00123	0.59717	0.37282	-0.006
Mof_C 	C 	0.03243	0.65277	0.3737	-0.078
Mof_C 	C 	0.01493	0.68417	0.35525	-0.006
Mof_C 	C 	0.96573	0.65845	0.33625	-0.09
Mof_C 	C 	0.91465	0.5147	0.34892	0.377
Mof_C 	C 	0.94193	0.68727	0.31582	0.372
Mof_O 	O 	0.80643	0.27254	0.83707	-0.517
Mof_O 	O 	0.9079	0.45095	0.87492	-0.488
Mof_O 	O 	0.96732	0.3991	0.86514	-0.507
Mof_O 	O 	0.9565	0.57941	0.16631	-0.496
Mof_N 	N 	0.90911	0.31719	0.8217	-0.196
Mof_C 	C 	0.87625	0.27276	0.80151	-0.087
Mof_C 	C 	0.89573	0.25027	0.77492	-0.008
Mof_C 	C 	0.95143	0.27567	0.76953	-0.078
Mof_C 	C 	0.98523	0.32127	0.79027	-0.004
Mof_C 	C 	0.96274	0.34128	0.81593	-0.089
Mof_C 	C 	0.81775	0.24956	0.81064	0.373
Mof_C 	C 	0.99432	0.39095	0.83991	0.377
Mof_H 	H 	0.77361	0.37533	0.2675	0.007
Mof_H 	H 	0.74901	0.28848	0.24274	0.018
Mof_H 	H 	0.76881	0.27961	0.17829	-0.002
Mof_H 	H 	0.68913	0.22417	0.91278	-0.002
Mof_H 	H 	0.60595	0.15731	0.93974	0.018
Mof_H 	H 	0.60198	0.13739	0.00585	0.006
Mof_H 	H 	0.013	0.57455	0.38558	-0.001
Mof_H 	H 	0.0666	0.66999	0.38758	0.018
Mof_H 	H 	0.0369	0.72347	0.35524	0.007
Mof_H 	H 	0.87124	0.21814	0.76038	0.008
Mof_H 	H 	0.96635	0.26075	0.75128	0.018
Mof_H 	H 	0.0244	0.33926	0.78678	-0.002
Mof_Eu	Eu	0.17106	0.71666	0.4745	1.695
Mof_Eu	Eu	0.38039	0.85736	0.37746	1.697
Mof_Eu	Eu	0.10623	0.61584	0.63594	1.699
Mof_Eu	Eu	0.31454	0.85113	0.20556	1.696
Mof_O 	O 	0.15774	0.68307	0.53936	-0.517
Mof_O 	O 	0.1864	0.67212	0.59606	-0.493
Mof_O 	O 	0.25768	0.77806	0.44556	-0.506
Mof_O 	O 	0.34742	0.8188	0.44167	-0.496
Mof_N 	N 	0.25572	0.74576	0.51469	-0.195
Mof_C 	C 	0.25096	0.7291	0.55091	-0.09
Mof_C 	C 	0.2957	0.7453	0.57469	-0.007
Mof_C 	C 	0.3464	0.7808	0.55982	-0.078
Mof_C 	C 	0.35151	0.79791	0.5224	-0.005
Mof_C 	C 	0.30496	0.77897	0.50052	-0.089
Mof_C 	C 	0.19426	0.69176	0.56356	0.379
Mof_C 	C 	0.30419	0.79331	0.45949	0.376
Mof_O 	O 	0.35735	0.84409	0.31021	-0.506
Mof_O 	O 	0.37395	0.83578	0.24908	-0.496
Mof_O 	O 	0.44837	0.84333	0.40796	-0.517
Mof_O 	O 	0.17421	0.69045	0.40773	-0.489
Mof_N 	N 	0.43461	0.82979	0.33445	-0.196
Mof_C 	C 	0.42485	0.82245	0.29702	-0.086
Mof_C 	C 	0.4512	0.8042	0.27332	-0.006
Mof_C 	C 	0.4901	0.7949	0.28907	-0.078
Mof_C 	C 	0.5014	0.8036	0.32765	-0.005
Mof_C 	C 	0.47242	0.82071	0.3496	-0.089
Mof_C 	C 	0.38213	0.83485	0.28376	0.377
Mof_C 	C 	0.48011	0.83064	0.39157	0.375
Mof_O 	O 	0.16531	0.70118	0.66727	-0.507
Mof_O 	O 	0.07053	0.51723	0.64026	-0.497
Mof_O 	O 	0.00868	0.57047	0.63507	-0.517
Mof_O 	O 	0.3642	0.92905	0.3531	-0.488
Mof_N 	N 	0.0625	0.664	0.6685	-0.197
Mof_C 	C 	0.0921	0.71161	0.68621	-0.086
Mof_C 	C 	0.0695	0.7374	0.70615	-0.006
Mof_C 	C 	0.0139	0.713	0.70703	-0.08
Mof_C 	C 	0.9825	0.6641	0.68858	-0.005
Mof_C 	C 	0.00822	0.64062	0.66958	-0.09
Mof_C 	C 	0.15197	0.73329	0.68225	0.377
Mof_C 	C 	0.9794	0.588	0.64915	0.373
Mof_O 	O 	0.39413	0.86723	0.1704	-0.517
Mof_O 	O 	0.21572	0.79029	0.20825	-0.488
Mof_O 	O 	0.26757	0.90156	0.19847	-0.507
Mof_O 	O 	0.08726	0.71043	0.49964	-0.496
Mof_N 	N 	0.34948	0.92526	0.15503	-0.196
Mof_C 	C 	0.39391	0.93683	0.13484	-0.088
Mof_C 	C 	0.4164	0.9788	0.10825	-0.007
Mof_C 	C 	0.391	0.0091	0.10286	-0.079
Mof_C 	C 	0.3454	0.9973	0.1236	-0.003
Mof_C 	C 	0.32539	0.9548	0.14926	-0.089
Mof_C 	C 	0.41711	0.90153	0.14397	0.373
Mof_C 	C 	0.27572	0.93671	0.17324	0.377
Mof_H 	H 	0.29134	0.73162	0.60083	0.007
Mof_H 	H 	0.37819	0.79387	0.57607	0.018
Mof_H 	H 	0.38706	0.82254	0.51162	-0.002
Mof_H 	H 	0.4425	0.7983	0.24611	-0.001
Mof_H 	H 	0.50936	0.78198	0.27307	0.018
Mof_H 	H 	0.52928	0.79793	0.33918	0.007
Mof_H 	H 	0.09212	0.77179	0.71891	-0.002
Mof_H 	H 	0.99668	0.72995	0.72091	0.019
Mof_H 	H 	0.9432	0.64677	0.68857	0.007
Mof_H 	H 	0.44853	0.98644	0.09371	0.008
Mof_H 	H 	0.40592	0.03894	0.08461	0.018
Mof_H 	H 	0.32741	0.01848	0.12011	-0.002
Mof_Eu	Eu	0.83773	0.04999	0.80783	1.695
Mof_Eu	Eu	0.04705	0.19069	0.71079	1.697
Mof_Eu	Eu	0.7729	0.94917	0.96927	1.699
Mof_Eu	Eu	0.98121	0.18446	0.5389	1.695
Mof_O 	O 	0.82441	0.0164	0.87269	-0.517
Mof_O 	O 	0.85307	0.00545	0.92939	-0.493
Mof_O 	O 	0.92435	0.11139	0.77889	-0.506
Mof_O 	O 	0.01409	0.15213	0.775	-0.496
Mof_N 	N 	0.92239	0.07909	0.84802	-0.195
Mof_C 	C 	0.91763	0.06243	0.88424	-0.09
Mof_C 	C 	0.96237	0.07863	0.90802	-0.007
Mof_C 	C 	0.01307	0.11413	0.89315	-0.078
Mof_C 	C 	0.01818	0.13124	0.85573	-0.005
Mof_C 	C 	0.97163	0.1123	0.83385	-0.089
Mof_C 	C 	0.86093	0.02509	0.89689	0.379
Mof_C 	C 	0.97086	0.12664	0.79282	0.376
Mof_O 	O 	0.02402	0.17742	0.64354	-0.507
Mof_O 	O 	0.04062	0.16911	0.58241	-0.496
Mof_O 	O 	0.11504	0.17666	0.74129	-0.517
Mof_O 	O 	0.84088	0.02378	0.74106	-0.489
Mof_N 	N 	0.10128	0.16312	0.66778	-0.196
Mof_C 	C 	0.09152	0.15578	0.63035	-0.086
Mof_C 	C 	0.11787	0.13753	0.60665	-0.006
Mof_C 	C 	0.15677	0.12823	0.6224	-0.078
Mof_C 	C 	0.16807	0.13693	0.66098	-0.005
Mof_C 	C 	0.13909	0.15404	0.68293	-0.089
Mof_C 	C 	0.0488	0.16818	0.61709	0.377
Mof_C 	C 	0.14678	0.16397	0.7249	0.375
Mof_O 	O 	0.83198	0.03451	0.0006	-0.508
Mof_O 	O 	0.7372	0.85056	0.97359	-0.497
Mof_O 	O 	0.67535	0.9038	0.9684	-0.517
Mof_O 	O 	0.03087	0.26238	0.68643	-0.488
Mof_N 	N 	0.72917	0.99733	0.00183	-0.197
Mof_C 	C 	0.75877	0.04494	0.01954	-0.086
Mof_C 	C 	0.73617	0.07073	0.03948	-0.006
Mof_C 	C 	0.68057	0.04633	0.04036	-0.079
Mof_C 	C 	0.64917	0.99743	0.02191	-0.005
Mof_C 	C 	0.67489	0.97395	0.00291	-0.09
Mof_C 	C 	0.81864	0.06662	0.01558	0.377
Mof_C 	C 	0.64607	0.92133	0.98248	0.372
Mof_O 	O 	0.0608	0.20056	0.50373	-0.517
Mof_O 	O 	0.88239	0.12362	0.54158	-0.488
Mof_O 	O 	0.93424	0.23489	0.5318	-0.507
Mof_O 	O 	0.75393	0.04376	0.83297	-0.496
Mof_N 	N 	0.01615	0.25859	0.48836	-0.196
Mof_C 	C 	0.06058	0.27016	0.46817	-0.087
Mof_C 	C 	0.08307	0.31213	0.44158	-0.007
Mof_C 	C 	0.05767	0.34243	0.43619	-0.078
Mof_C 	C 	0.01207	0.33063	0.45693	-0.003
Mof_C 	C 	0.99206	0.28813	0.48259	-0.089
Mof_C 	C 	0.08378	0.23486	0.4773	0.373
Mof_C 	C 	0.94239	0.27004	0.50657	0.377
Mof_H 	H 	0.95801	0.06495	0.93416	0.007
Mof_H 	H 	0.04486	0.1272	0.9094	0.018
Mof_H 	H 	0.05373	0.15587	0.84495	-0.002
Mof_H 	H 	0.10917	0.13163	0.57944	-0.002
Mof_H 	H 	0.17603	0.11531	0.6064	0.018
Mof_H 	H 	0.19595	0.13126	0.67251	0.007
Mof_H 	H 	0.75879	0.10512	0.05224	-0.002
Mof_H 	H 	0.66335	0.06328	0.05424	0.018
Mof_H 	H 	0.60987	0.9801	0.0219	0.007
Mof_H 	H 	0.1152	0.31977	0.42704	0.008
Mof_H 	H 	0.07259	0.37227	0.41794	0.018
Mof_H 	H 	0.99408	0.35181	0.45344	-0.002
Mof_Eu	Eu	0.50439	0.38333	0.14116	1.695
Mof_Eu	Eu	0.71372	0.52402	0.04413	1.697
Mof_Eu	Eu	0.43956	0.28251	0.30261	1.699
Mof_Eu	Eu	0.64787	0.51779	0.87223	1.696
Mof_O 	O 	0.49107	0.34974	0.20603	-0.517
Mof_O 	O 	0.51973	0.33879	0.26273	-0.493
Mof_O 	O 	0.59101	0.44473	0.11223	-0.506
Mof_O 	O 	0.68075	0.48547	0.10834	-0.496
Mof_N 	N 	0.58905	0.41243	0.18136	-0.195
Mof_C 	C 	0.58429	0.39577	0.21758	-0.09
Mof_C 	C 	0.62903	0.41197	0.24136	-0.007
Mof_C 	C 	0.67973	0.44747	0.22649	-0.078
Mof_C 	C 	0.68484	0.46458	0.18907	-0.005
Mof_C 	C 	0.63829	0.44564	0.16719	-0.089
Mof_C 	C 	0.52759	0.35843	0.23023	0.379
Mof_C 	C 	0.63752	0.45998	0.12616	0.376
Mof_O 	O 	0.69068	0.51076	0.97688	-0.506
Mof_O 	O 	0.70728	0.50245	0.91575	-0.496
Mof_O 	O 	0.7817	0.51	0.07463	-0.517
Mof_O 	O 	0.50754	0.35712	0.0744	-0.489
Mof_N 	N 	0.76794	0.49646	0.00112	-0.196
Mof_C 	C 	0.75818	0.48912	0.96369	-0.086
Mof_C 	C 	0.78453	0.47087	0.93999	-0.005
Mof_C 	C 	0.82343	0.46157	0.95574	-0.079
Mof_C 	C 	0.83473	0.47027	0.99432	-0.004
Mof_C 	C 	0.80575	0.48738	0.01627	-0.09
Mof_C 	C 	0.71546	0.50152	0.95043	0.377
Mof_C 	C 	0.81344	0.49731	0.05824	0.375
Mof_O 	O 	0.49864	0.36785	0.33394	-0.507
Mof_O 	O 	0.40386	0.1839	0.30693	-0.497
Mof_O 	O 	0.34201	0.23714	0.30174	-0.517
Mof_O 	O 	0.69753	0.59572	0.01977	-0.488
Mof_N 	N 	0.39583	0.33067	0.33517	-0.197
Mof_C 	C 	0.42543	0.37828	0.35288	-0.086
Mof_C 	C 	0.40283	0.40407	0.37282	-0.006
Mof_C 	C 	0.34723	0.37967	0.3737	-0.078
Mof_C 	C 	0.31583	0.33077	0.35525	-0.006
Mof_C 	C 	0.34155	0.30729	0.33625	-0.09
Mof_C 	C 	0.4853	0.39996	0.34892	0.377
Mof_C 	C 	0.31273	0.25467	0.31582	0.372
Mof_O 	O 	0.72746	0.5339	0.83707	-0.517
Mof_O 	O 	0.54905	0.45696	0.87492	-0.488
Mof_O 	O 	0.6009	0.56823	0.86514	-0.507
Mof_O 	O 	0.42059	0.3771	0.16631	-0.496
Mof_N 	N 	0.68281	0.59193	0.8217	-0.196
Mof_C 	C 	0.72724	0.6035	0.80151	-0.087
Mof_C 	C 	0.74973	0.64547	0.77492	-0.008
Mof_C 	C 	0.72433	0.67577	0.76953	-0.078
Mof_C 	C 	0.67873	0.66397	0.79027	-0.004
Mof_C 	C 	0.65872	0.62147	0.81593	-0.089
Mof_C 	C 	0.75044	0.5682	0.81064	0.372
Mof_C 	C 	0.60905	0.60338	0.83991	0.377
Mof_H 	H 	0.62467	0.39829	0.2675	0.007
Mof_H 	H 	0.71152	0.46054	0.24274	0.018
Mof_H 	H 	0.72039	0.48921	0.17829	-0.002
Mof_H 	H 	0.77583	0.46497	0.91278	-0.002
Mof_H 	H 	0.84269	0.44865	0.93974	0.018
Mof_H 	H 	0.86261	0.4646	0.00585	0.007
Mof_H 	H 	0.42545	0.43846	0.38558	-0.001
Mof_H 	H 	0.33001	0.39662	0.38758	0.018
Mof_H 	H 	0.27653	0.31344	0.35524	0.007
Mof_H 	H 	0.78186	0.65311	0.76038	0.008
Mof_H 	H 	0.73925	0.70561	0.75128	0.018
Mof_H 	H 	0.66074	0.68515	0.78678	-0.002
Mof_Eu	Eu	0.71666	0.5456	0.5255	1.695
Mof_Eu	Eu	0.85736	0.47697	0.62254	1.697
Mof_Eu	Eu	0.61584	0.50961	0.36406	1.699
Mof_Eu	Eu	0.85113	0.53659	0.79444	1.696
Mof_O 	O 	0.68307	0.52533	0.46064	-0.517
Mof_O 	O 	0.67212	0.48572	0.40394	-0.493
Mof_O 	O 	0.77806	0.52038	0.55444	-0.506
Mof_O 	O 	0.8188	0.47138	0.55833	-0.496
Mof_N 	N 	0.74576	0.49004	0.48531	-0.195
Mof_C 	C 	0.7291	0.47814	0.44909	-0.09
Mof_C 	C 	0.7453	0.4496	0.42531	-0.007
Mof_C 	C 	0.7808	0.4344	0.44018	-0.078
Mof_C 	C 	0.79791	0.4464	0.4776	-0.005
Mof_C 	C 	0.77897	0.47401	0.49948	-0.089
Mof_C 	C 	0.69176	0.4975	0.43644	0.379
Mof_C 	C 	0.79331	0.48912	0.54051	0.376
Mof_O 	O 	0.84409	0.48674	0.68979	-0.506
Mof_O 	O 	0.83578	0.46183	0.75092	-0.496
Mof_O 	O 	0.84333	0.39496	0.59204	-0.517
Mof_O 	O 	0.69045	0.51624	0.59227	-0.489
Mof_N 	N 	0.82979	0.39518	0.66555	-0.196
Mof_C 	C 	0.82245	0.3976	0.70298	-0.086
Mof_C 	C 	0.8042	0.353	0.72668	-0.006
Mof_C 	C 	0.7949	0.3048	0.71093	-0.078
Mof_C 	C 	0.8036	0.3022	0.67235	-0.005
Mof_C 	C 	0.82071	0.34829	0.6504	-0.089
Mof_C 	C 	0.83485	0.45272	0.71624	0.377
Mof_C 	C 	0.83064	0.35053	0.60843	0.375
Mof_O 	O 	0.70118	0.53587	0.33273	-0.507
Mof_O 	O 	0.51723	0.4467	0.35974	-0.497
Mof_O 	O 	0.57047	0.56179	0.36493	-0.517
Mof_O 	O 	0.92905	0.56485	0.6469	-0.488
Mof_N 	N 	0.664	0.6015	0.3315	-0.197
Mof_C 	C 	0.71161	0.61951	0.31379	-0.086
Mof_C 	C 	0.7374	0.6679	0.29385	-0.006
Mof_C 	C 	0.713	0.6991	0.29297	-0.078
Mof_C 	C 	0.6641	0.6816	0.31142	-0.006
Mof_C 	C 	0.64062	0.6324	0.33042	-0.09
Mof_C 	C 	0.73329	0.58132	0.31775	0.377
Mof_C 	C 	0.588	0.6086	0.35085	0.372
Mof_O 	O 	0.86723	0.4731	0.8296	-0.517
Mof_O 	O 	0.79029	0.57457	0.79175	-0.488
Mof_O 	O 	0.90156	0.63399	0.80153	-0.507
Mof_O 	O 	0.71043	0.62317	0.50036	-0.496
Mof_N 	N 	0.92526	0.57578	0.84497	-0.196
Mof_C 	C 	0.93683	0.54292	0.86516	-0.088
Mof_C 	C 	0.9788	0.5624	0.89175	-0.007
Mof_C 	C 	0.0091	0.6181	0.89714	-0.08
Mof_C 	C 	0.9973	0.6519	0.8764	-0.002
Mof_C 	C 	0.9548	0.62941	0.85074	-0.089
Mof_C 	C 	0.90153	0.48442	0.85603	0.373
Mof_C 	C 	0.93671	0.66099	0.82676	0.377
Mof_H 	H 	0.73162	0.44028	0.39917	0.007
Mof_H 	H 	0.79387	0.41568	0.42393	0.018
Mof_H 	H 	0.82254	0.43548	0.48838	-0.002
Mof_H 	H 	0.7983	0.3558	0.75389	-0.001
Mof_H 	H 	0.78198	0.27262	0.72693	0.018
Mof_H 	H 	0.79793	0.26865	0.66082	0.007
Mof_H 	H 	0.77179	0.67967	0.28109	-0.001
Mof_H 	H 	0.72995	0.73327	0.27909	0.018
Mof_H 	H 	0.64677	0.70357	0.31143	0.007
Mof_H 	H 	0.98644	0.53791	0.90629	0.007
Mof_H 	H 	0.03894	0.63302	0.91539	0.019
Mof_H 	H 	0.01848	0.69107	0.87989	-0.003
Mof_Eu	Eu	0.38333	0.87893	0.85884	1.695
Mof_Eu	Eu	0.52402	0.8103	0.95587	1.697
Mof_Eu	Eu	0.28251	0.84294	0.69739	1.699
Mof_Eu	Eu	0.51779	0.86992	0.12777	1.696
Mof_O 	O 	0.34974	0.85866	0.79397	-0.517
Mof_O 	O 	0.33879	0.81905	0.73727	-0.493
Mof_O 	O 	0.44473	0.85371	0.88777	-0.506
Mof_O 	O 	0.48547	0.80471	0.89166	-0.496
Mof_N 	N 	0.41243	0.82337	0.81864	-0.195
Mof_C 	C 	0.39577	0.81147	0.78242	-0.09
Mof_C 	C 	0.41197	0.78293	0.75864	-0.007
Mof_C 	C 	0.44747	0.76773	0.77351	-0.078
Mof_C 	C 	0.46458	0.77973	0.81093	-0.005
Mof_C 	C 	0.44564	0.80734	0.83281	-0.089
Mof_C 	C 	0.35843	0.83083	0.76977	0.379
Mof_C 	C 	0.45998	0.82245	0.87384	0.376
Mof_O 	O 	0.51076	0.82007	0.02312	-0.506
Mof_O 	O 	0.50245	0.79516	0.08425	-0.496
Mof_O 	O 	0.51	0.72829	0.92537	-0.517
Mof_O 	O 	0.35712	0.84957	0.9256	-0.489
Mof_N 	N 	0.49646	0.72851	0.99888	-0.196
Mof_C 	C 	0.48912	0.73093	0.03631	-0.086
Mof_C 	C 	0.47087	0.68633	0.06001	-0.006
Mof_C 	C 	0.46157	0.63813	0.04426	-0.078
Mof_C 	C 	0.47027	0.63553	0.00568	-0.005
Mof_C 	C 	0.48738	0.68162	0.98373	-0.09
Mof_C 	C 	0.50152	0.78605	0.04957	0.377
Mof_C 	C 	0.49731	0.68386	0.94176	0.375
Mof_O 	O 	0.36785	0.8692	0.66606	-0.507
Mof_O 	O 	0.1839	0.78003	0.69307	-0.497
Mof_O 	O 	0.23714	0.89512	0.69826	-0.517
Mof_O 	O 	0.59572	0.89818	0.98023	-0.488
Mof_N 	N 	0.33067	0.93483	0.66483	-0.197
Mof_C 	C 	0.37828	0.95284	0.64712	-0.086
Mof_C 	C 	0.40407	0.00123	0.62718	-0.006
Mof_C 	C 	0.37967	0.03243	0.6263	-0.078
Mof_C 	C 	0.33077	0.01493	0.64475	-0.005
Mof_C 	C 	0.30729	0.96573	0.66375	-0.09
Mof_C 	C 	0.39996	0.91465	0.65108	0.377
Mof_C 	C 	0.25467	0.94193	0.68418	0.373
Mof_O 	O 	0.5339	0.80643	0.16293	-0.517
Mof_O 	O 	0.45696	0.9079	0.12508	-0.488
Mof_O 	O 	0.56823	0.96732	0.13486	-0.507
Mof_O 	O 	0.3771	0.9565	0.83369	-0.496
Mof_N 	N 	0.59193	0.90911	0.1783	-0.196
Mof_C 	C 	0.6035	0.87625	0.19849	-0.087
Mof_C 	C 	0.64547	0.89573	0.22508	-0.008
Mof_C 	C 	0.67577	0.95143	0.23047	-0.078
Mof_C 	C 	0.66397	0.98523	0.20973	-0.003
Mof_C 	C 	0.62147	0.96274	0.18407	-0.089
Mof_C 	C 	0.5682	0.81775	0.18936	0.373
Mof_C 	C 	0.60338	0.99432	0.16009	0.377
Mof_H 	H 	0.39829	0.77361	0.7325	0.007
Mof_H 	H 	0.46054	0.74901	0.75726	0.018
Mof_H 	H 	0.48921	0.76881	0.82171	-0.002
Mof_H 	H 	0.46497	0.68913	0.08722	-0.002
Mof_H 	H 	0.44865	0.60595	0.06026	0.018
Mof_H 	H 	0.4646	0.60198	0.99415	0.007
Mof_H 	H 	0.43846	0.013	0.61442	-0.002
Mof_H 	H 	0.39662	0.0666	0.61242	0.018
Mof_H 	H 	0.31344	0.0369	0.64476	0.007
Mof_H 	H 	0.65311	0.87124	0.23962	0.008
Mof_H 	H 	0.70561	0.96635	0.24872	0.018
Mof_H 	H 	0.68515	0.0244	0.21322	-0.002
Mof_Eu	Eu	0.04999	0.21227	0.19217	1.695
Mof_Eu	Eu	0.19069	0.14364	0.28921	1.697
Mof_Eu	Eu	0.94917	0.17628	0.03073	1.697
Mof_Eu	Eu	0.18446	0.20325	0.4611	1.696
Mof_O 	O 	0.0164	0.192	0.12731	-0.517
Mof_O 	O 	0.00545	0.15239	0.07061	-0.492
Mof_O 	O 	0.11139	0.18705	0.22111	-0.506
Mof_O 	O 	0.15213	0.13805	0.225	-0.496
Mof_N 	N 	0.07909	0.15671	0.15198	-0.195
Mof_C 	C 	0.06243	0.14481	0.11576	-0.09
Mof_C 	C 	0.07863	0.11627	0.09198	-0.007
Mof_C 	C 	0.11413	0.10107	0.10685	-0.078
Mof_C 	C 	0.13124	0.11307	0.14427	-0.005
Mof_C 	C 	0.1123	0.14068	0.16615	-0.089
Mof_C 	C 	0.02509	0.16417	0.10311	0.379
Mof_C 	C 	0.12664	0.15579	0.20718	0.376
Mof_O 	O 	0.17742	0.15341	0.35646	-0.506
Mof_O 	O 	0.16911	0.1285	0.41759	-0.497
Mof_O 	O 	0.17666	0.06163	0.25871	-0.517
Mof_O 	O 	0.02378	0.18291	0.25894	-0.489
Mof_N 	N 	0.16312	0.06185	0.33222	-0.196
Mof_C 	C 	0.15578	0.06427	0.36965	-0.087
Mof_C 	C 	0.13753	0.01967	0.39335	-0.005
Mof_C 	C 	0.12823	0.97147	0.3776	-0.079
Mof_C 	C 	0.13693	0.96887	0.33902	-0.006
Mof_C 	C 	0.15404	0.01496	0.31707	-0.089
Mof_C 	C 	0.16818	0.11939	0.38291	0.377
Mof_C 	C 	0.16397	0.0172	0.2751	0.375
Mof_O 	O 	0.03451	0.20254	0.9994	-0.507
Mof_O 	O 	0.85056	0.11337	0.02641	-0.497
Mof_O 	O 	0.9038	0.22846	0.0316	-0.517
Mof_O 	O 	0.26238	0.23152	0.31357	-0.488
Mof_N 	N 	0.99733	0.26817	0.99817	-0.197
Mof_C 	C 	0.04494	0.28618	0.98046	-0.086
Mof_C 	C 	0.07073	0.33457	0.96052	-0.006
Mof_C 	C 	0.04633	0.36577	0.95964	-0.079
Mof_C 	C 	0.99743	0.34827	0.97809	-0.006
Mof_C 	C 	0.97395	0.29907	0.99709	-0.089
Mof_C 	C 	0.06662	0.24799	0.98442	0.377
Mof_C 	C 	0.92133	0.27527	0.01752	0.372
Mof_O 	O 	0.20056	0.13977	0.49627	-0.517
Mof_O 	O 	0.12362	0.24124	0.45842	-0.488
Mof_O 	O 	0.23489	0.30066	0.4682	-0.507
Mof_O 	O 	0.04376	0.28984	0.16703	-0.496
Mof_N 	N 	0.25859	0.24245	0.51164	-0.196
Mof_C 	C 	0.27016	0.20959	0.53183	-0.087
Mof_C 	C 	0.31213	0.22907	0.55842	-0.008
Mof_C 	C 	0.34243	0.28477	0.56381	-0.078
Mof_C 	C 	0.33063	0.31857	0.54307	-0.004
Mof_C 	C 	0.28813	0.29608	0.51741	-0.089
Mof_C 	C 	0.23486	0.15109	0.5227	0.373
Mof_C 	C 	0.27004	0.32766	0.49343	0.377
Mof_H 	H 	0.06495	0.10695	0.06584	0.007
Mof_H 	H 	0.1272	0.08235	0.0906	0.018
Mof_H 	H 	0.15587	0.10215	0.15505	-0.002
Mof_H 	H 	0.13163	0.02247	0.42056	-0.002
Mof_H 	H 	0.11531	0.93929	0.3936	0.018
Mof_H 	H 	0.13126	0.93532	0.32749	0.007
Mof_H 	H 	0.10512	0.34634	0.94776	-0.002
Mof_H 	H 	0.06328	0.39994	0.94576	0.018
Mof_H 	H 	0.9801	0.37024	0.9781	0.007
Mof_H 	H 	0.31977	0.20458	0.57296	0.008
Mof_H 	H 	0.37227	0.29969	0.58206	0.018
Mof_H 	H 	0.35181	0.35774	0.54656	-0.002
Mof_Eu	Eu	0.4544	0.17106	0.5255	1.695
Mof_Eu	Eu	0.52303	0.38039	0.62254	1.697
Mof_Eu	Eu	0.49039	0.10623	0.36406	1.699
Mof_Eu	Eu	0.46341	0.31454	0.79444	1.696
Mof_O 	O 	0.47467	0.15774	0.46064	-0.517
Mof_O 	O 	0.51428	0.1864	0.40394	-0.493
Mof_O 	O 	0.47962	0.25768	0.55444	-0.506
Mof_O 	O 	0.52862	0.34742	0.55833	-0.496
Mof_N 	N 	0.50996	0.25572	0.48531	-0.195
Mof_C 	C 	0.52186	0.25096	0.44909	-0.09
Mof_C 	C 	0.5504	0.2957	0.42531	-0.007
Mof_C 	C 	0.5656	0.3464	0.44018	-0.078
Mof_C 	C 	0.5536	0.35151	0.4776	-0.005
Mof_C 	C 	0.52599	0.30496	0.49948	-0.089
Mof_C 	C 	0.5025	0.19426	0.43644	0.379
Mof_C 	C 	0.51088	0.30419	0.54051	0.376
Mof_O 	O 	0.51326	0.35735	0.68979	-0.506
Mof_O 	O 	0.53817	0.37395	0.75092	-0.496
Mof_O 	O 	0.60504	0.44837	0.59204	-0.517
Mof_O 	O 	0.48376	0.17421	0.59227	-0.489
Mof_N 	N 	0.60482	0.43461	0.66555	-0.196
Mof_C 	C 	0.6024	0.42485	0.70298	-0.086
Mof_C 	C 	0.647	0.4512	0.72668	-0.006
Mof_C 	C 	0.6952	0.4901	0.71093	-0.078
Mof_C 	C 	0.6978	0.5014	0.67235	-0.005
Mof_C 	C 	0.65171	0.47242	0.6504	-0.089
Mof_C 	C 	0.54728	0.38213	0.71624	0.377
Mof_C 	C 	0.64947	0.48011	0.60843	0.375
Mof_O 	O 	0.46413	0.16531	0.33273	-0.507
Mof_O 	O 	0.5533	0.07053	0.35974	-0.497
Mof_O 	O 	0.43821	0.00868	0.36493	-0.517
Mof_O 	O 	0.43515	0.3642	0.6469	-0.488
Mof_N 	N 	0.3985	0.0625	0.3315	-0.197
Mof_C 	C 	0.38049	0.0921	0.31379	-0.086
Mof_C 	C 	0.3321	0.0695	0.29385	-0.006
Mof_C 	C 	0.3009	0.0139	0.29297	-0.078
Mof_C 	C 	0.3184	0.9825	0.31142	-0.006
Mof_C 	C 	0.3676	0.00822	0.33042	-0.09
Mof_C 	C 	0.41868	0.15197	0.31775	0.377
Mof_C 	C 	0.3914	0.9794	0.35085	0.373
Mof_O 	O 	0.5269	0.39413	0.8296	-0.517
Mof_O 	O 	0.42543	0.21572	0.79175	-0.488
Mof_O 	O 	0.36601	0.26757	0.80153	-0.507
Mof_O 	O 	0.37683	0.08726	0.50036	-0.496
Mof_N 	N 	0.42422	0.34948	0.84497	-0.196
Mof_C 	C 	0.45708	0.39391	0.86516	-0.087
Mof_C 	C 	0.4376	0.4164	0.89175	-0.008
Mof_C 	C 	0.3819	0.391	0.89714	-0.078
Mof_C 	C 	0.3481	0.3454	0.8764	-0.004
Mof_C 	C 	0.37059	0.32539	0.85074	-0.089
Mof_C 	C 	0.51558	0.41711	0.85603	0.373
Mof_C 	C 	0.33901	0.27572	0.82676	0.377
Mof_H 	H 	0.55972	0.29134	0.39917	0.007
Mof_H 	H 	0.58432	0.37819	0.42393	0.018
Mof_H 	H 	0.56452	0.38706	0.48838	-0.002
Mof_H 	H 	0.6442	0.4425	0.75389	-0.001
Mof_H 	H 	0.72738	0.50936	0.72693	0.018
Mof_H 	H 	0.73135	0.52928	0.66082	0.007
Mof_H 	H 	0.32033	0.09212	0.28109	-0.002
Mof_H 	H 	0.26673	0.99668	0.27909	0.018
Mof_H 	H 	0.29643	0.9432	0.31143	0.007
Mof_H 	H 	0.46209	0.44853	0.90629	0.008
Mof_H 	H 	0.36698	0.40592	0.91539	0.018
Mof_H 	H 	0.30893	0.32741	0.87989	-0.002
Mof_Eu	Eu	0.12107	0.50439	0.85884	1.695
Mof_Eu	Eu	0.1897	0.71372	0.95587	1.697
Mof_Eu	Eu	0.15706	0.43956	0.69739	1.699
Mof_Eu	Eu	0.13008	0.64787	0.12777	1.696
Mof_O 	O 	0.14134	0.49107	0.79397	-0.517
Mof_O 	O 	0.18095	0.51973	0.73727	-0.493
Mof_O 	O 	0.14629	0.59101	0.88777	-0.506
Mof_O 	O 	0.19529	0.68075	0.89166	-0.496
Mof_N 	N 	0.17663	0.58905	0.81864	-0.195
Mof_C 	C 	0.18853	0.58429	0.78242	-0.09
Mof_C 	C 	0.21707	0.62903	0.75864	-0.007
Mof_C 	C 	0.23227	0.67973	0.77351	-0.078
Mof_C 	C 	0.22027	0.68484	0.81093	-0.005
Mof_C 	C 	0.19266	0.63829	0.83281	-0.089
Mof_C 	C 	0.16917	0.52759	0.76977	0.379
Mof_C 	C 	0.17755	0.63752	0.87384	0.376
Mof_O 	O 	0.17993	0.69068	0.02312	-0.506
Mof_O 	O 	0.20484	0.70728	0.08425	-0.496
Mof_O 	O 	0.27171	0.7817	0.92537	-0.517
Mof_O 	O 	0.15043	0.50754	0.9256	-0.489
Mof_N 	N 	0.27149	0.76794	0.99888	-0.196
Mof_C 	C 	0.26907	0.75818	0.03631	-0.086
Mof_C 	C 	0.31367	0.78453	0.06001	-0.005
Mof_C 	C 	0.36187	0.82343	0.04426	-0.079
Mof_C 	C 	0.36447	0.83473	0.00568	-0.004
Mof_C 	C 	0.31838	0.80575	0.98373	-0.09
Mof_C 	C 	0.21395	0.71546	0.04957	0.377
Mof_C 	C 	0.31614	0.81344	0.94176	0.375
Mof_O 	O 	0.1308	0.49864	0.66606	-0.507
Mof_O 	O 	0.21997	0.40386	0.69307	-0.497
Mof_O 	O 	0.10488	0.34201	0.69826	-0.517
Mof_O 	O 	0.10182	0.69753	0.98023	-0.488
Mof_N 	N 	0.06517	0.39583	0.66483	-0.197
Mof_C 	C 	0.04716	0.42543	0.64712	-0.086
Mof_C 	C 	0.99877	0.40283	0.62718	-0.006
Mof_C 	C 	0.96757	0.34723	0.6263	-0.078
Mof_C 	C 	0.98507	0.31583	0.64475	-0.006
Mof_C 	C 	0.03427	0.34155	0.66375	-0.09
Mof_C 	C 	0.08535	0.4853	0.65108	0.377
Mof_C 	C 	0.05807	0.31273	0.68418	0.372
Mof_O 	O 	0.19357	0.72746	0.16293	-0.517
Mof_O 	O 	0.0921	0.54905	0.12508	-0.488
Mof_O 	O 	0.03268	0.6009	0.13486	-0.507
Mof_O 	O 	0.0435	0.42059	0.83369	-0.496
Mof_N 	N 	0.09089	0.68281	0.1783	-0.196
Mof_C 	C 	0.12375	0.72724	0.19849	-0.087
Mof_C 	C 	0.10427	0.74973	0.22508	-0.008
Mof_C 	C 	0.04857	0.72433	0.23047	-0.078
Mof_C 	C 	0.01477	0.67873	0.20973	-0.004
Mof_C 	C 	0.03726	0.65872	0.18407	-0.089
Mof_C 	C 	0.18225	0.75044	0.18936	0.373
Mof_C 	C 	0.00568	0.60905	0.16009	0.377
Mof_H 	H 	0.22639	0.62467	0.7325	0.007
Mof_H 	H 	0.25099	0.71152	0.75726	0.018
Mof_H 	H 	0.23119	0.72039	0.82171	-0.002
Mof_H 	H 	0.31087	0.77583	0.08722	-0.002
Mof_H 	H 	0.39405	0.84269	0.06026	0.018
Mof_H 	H 	0.39802	0.86261	0.99415	0.006
Mof_H 	H 	0.987	0.42545	0.61442	-0.001
Mof_H 	H 	0.9334	0.33001	0.61242	0.018
Mof_H 	H 	0.9631	0.27653	0.64476	0.007
Mof_H 	H 	0.12876	0.78186	0.23962	0.008
Mof_H 	H 	0.03365	0.73925	0.24872	0.018
Mof_H 	H 	0.9756	0.66074	0.21322	-0.002
Mof_Eu	Eu	0.78773	0.83773	0.19217	1.695
Mof_Eu	Eu	0.85636	0.04705	0.28921	1.697
Mof_Eu	Eu	0.82372	0.7729	0.03073	1.699
Mof_Eu	Eu	0.79675	0.98121	0.4611	1.696
Mof_O 	O 	0.808	0.82441	0.12731	-0.517
Mof_O 	O 	0.84761	0.85307	0.07061	-0.493
Mof_O 	O 	0.81295	0.92435	0.22111	-0.506
Mof_O 	O 	0.86195	0.01409	0.225	-0.496
Mof_N 	N 	0.84329	0.92239	0.15198	-0.195
Mof_C 	C 	0.85519	0.91763	0.11576	-0.09
Mof_C 	C 	0.88373	0.96237	0.09198	-0.006
Mof_C 	C 	0.89893	0.01307	0.10685	-0.079
Mof_C 	C 	0.88693	0.01818	0.14427	-0.005
Mof_C 	C 	0.85932	0.97163	0.16615	-0.089
Mof_C 	C 	0.83583	0.86093	0.10311	0.38
Mof_C 	C 	0.84421	0.97086	0.20718	0.377
Mof_O 	O 	0.84659	0.02402	0.35646	-0.507
Mof_O 	O 	0.8715	0.04062	0.41759	-0.497
Mof_O 	O 	0.93837	0.11504	0.25871	-0.517
Mof_O 	O 	0.81709	0.84088	0.25894	-0.489
Mof_N 	N 	0.93815	0.10128	0.33222	-0.196
Mof_C 	C 	0.93573	0.09152	0.36965	-0.086
Mof_C 	C 	0.98033	0.11787	0.39335	-0.006
Mof_C 	C 	0.02853	0.15677	0.3776	-0.078
Mof_C 	C 	0.03113	0.16807	0.33902	-0.005
Mof_C 	C 	0.98504	0.13909	0.31707	-0.09
Mof_C 	C 	0.88061	0.0488	0.38291	0.377
Mof_C 	C 	0.9828	0.14678	0.2751	0.374
Mof_O 	O 	0.79746	0.83198	0.9994	-0.507
Mof_O 	O 	0.88663	0.7372	0.02641	-0.497
Mof_O 	O 	0.77154	0.67535	0.0316	-0.517
Mof_O 	O 	0.76848	0.03087	0.31357	-0.488
Mof_N 	N 	0.73183	0.72917	0.99817	-0.197
Mof_C 	C 	0.71382	0.75877	0.98046	-0.086
Mof_C 	C 	0.66543	0.73617	0.96052	-0.006
Mof_C 	C 	0.63423	0.68057	0.95964	-0.078
Mof_C 	C 	0.65173	0.64917	0.97809	-0.006
Mof_C 	C 	0.70093	0.67489	0.99709	-0.09
Mof_C 	C 	0.75201	0.81864	0.98442	0.377
Mof_C 	C 	0.72473	0.64607	0.01752	0.372
Mof_O 	O 	0.86023	0.0608	0.49627	-0.517
Mof_O 	O 	0.75876	0.88239	0.45842	-0.488
Mof_O 	O 	0.69934	0.93424	0.4682	-0.507
Mof_O 	O 	0.71016	0.75393	0.16703	-0.496
Mof_N 	N 	0.75755	0.01615	0.51164	-0.196
Mof_C 	C 	0.79041	0.06058	0.53183	-0.087
Mof_C 	C 	0.77093	0.08307	0.55842	-0.008
Mof_C 	C 	0.71523	0.05767	0.56381	-0.078
Mof_C 	C 	0.68143	0.01207	0.54307	-0.004
Mof_C 	C 	0.70392	0.99206	0.51741	-0.088
Mof_C 	C 	0.84891	0.08378	0.5227	0.373
Mof_C 	C 	0.67234	0.94239	0.49343	0.377
Mof_H 	H 	0.89305	0.95801	0.06584	0.007
Mof_H 	H 	0.91765	0.04486	0.0906	0.018
Mof_H 	H 	0.89785	0.05373	0.15505	-0.002
Mof_H 	H 	0.97753	0.10917	0.42056	-0.002
Mof_H 	H 	0.06071	0.17603	0.3936	0.018
Mof_H 	H 	0.06468	0.19595	0.32749	0.007
Mof_H 	H 	0.65366	0.75879	0.94776	-0.001
Mof_H 	H 	0.60006	0.66335	0.94576	0.018
Mof_H 	H 	0.62976	0.60987	0.9781	0.007
Mof_H 	H 	0.79542	0.1152	0.57296	0.008
Mof_H 	H 	0.70031	0.07259	0.58206	0.018
Mof_H 	H 	0.64226	0.99408	0.54656	-0.002
Mof_Eu	Eu	0.82894	0.28334	0.5255	1.695
Mof_Eu	Eu	0.61961	0.14264	0.62254	1.697
Mof_Eu	Eu	0.89377	0.38416	0.36406	1.699
Mof_Eu	Eu	0.68546	0.14887	0.79444	1.696
Mof_O 	O 	0.84226	0.31693	0.46064	-0.517
Mof_O 	O 	0.8136	0.32788	0.40394	-0.493
Mof_O 	O 	0.74232	0.22194	0.55444	-0.506
Mof_O 	O 	0.65258	0.1812	0.55833	-0.496
Mof_N 	N 	0.74428	0.25424	0.48531	-0.195
Mof_C 	C 	0.74904	0.2709	0.44909	-0.09
Mof_C 	C 	0.7043	0.2547	0.42531	-0.007
Mof_C 	C 	0.6536	0.2192	0.44018	-0.078
Mof_C 	C 	0.64849	0.20209	0.4776	-0.005
Mof_C 	C 	0.69504	0.22103	0.49948	-0.089
Mof_C 	C 	0.80574	0.30824	0.43644	0.379
Mof_C 	C 	0.69581	0.20669	0.54051	0.376
Mof_O 	O 	0.64265	0.15591	0.68979	-0.506
Mof_O 	O 	0.62605	0.16422	0.75092	-0.496
Mof_O 	O 	0.55163	0.15667	0.59204	-0.517
Mof_O 	O 	0.82579	0.30955	0.59227	-0.489
Mof_N 	N 	0.56539	0.17021	0.66555	-0.196
Mof_C 	C 	0.57515	0.17755	0.70298	-0.086
Mof_C 	C 	0.5488	0.1958	0.72668	-0.006
Mof_C 	C 	0.5099	0.2051	0.71093	-0.078
Mof_C 	C 	0.4986	0.1964	0.67235	-0.005
Mof_C 	C 	0.52758	0.17929	0.6504	-0.089
Mof_C 	C 	0.61787	0.16515	0.71624	0.377
Mof_C 	C 	0.51989	0.16936	0.60843	0.375
Mof_O 	O 	0.83469	0.29882	0.33273	-0.507
Mof_O 	O 	0.92947	0.48277	0.35974	-0.497
Mof_O 	O 	0.99132	0.42953	0.36493	-0.517
Mof_O 	O 	0.6358	0.07095	0.6469	-0.488
Mof_N 	N 	0.9375	0.336	0.3315	-0.197
Mof_C 	C 	0.9079	0.28839	0.31379	-0.086
Mof_C 	C 	0.9305	0.2626	0.29385	-0.006
Mof_C 	C 	0.9861	0.287	0.29297	-0.08
Mof_C 	C 	0.0175	0.3359	0.31142	-0.005
Mof_C 	C 	0.99178	0.35938	0.33042	-0.09
Mof_C 	C 	0.84803	0.26671	0.31775	0.377
Mof_C 	C 	0.0206	0.412	0.35085	0.373
Mof_O 	O 	0.60587	0.13277	0.8296	-0.517
Mof_O 	O 	0.78428	0.20971	0.79175	-0.488
Mof_O 	O 	0.73243	0.09844	0.80153	-0.507
Mof_O 	O 	0.91274	0.28957	0.50036	-0.496
Mof_N 	N 	0.65052	0.07474	0.84497	-0.196
Mof_C 	C 	0.60609	0.06317	0.86516	-0.088
Mof_C 	C 	0.5836	0.0212	0.89175	-0.007
Mof_C 	C 	0.609	0.9909	0.89714	-0.079
Mof_C 	C 	0.6546	0.0027	0.8764	-0.003
Mof_C 	C 	0.67461	0.0452	0.85074	-0.089
Mof_C 	C 	0.58289	0.09847	0.85603	0.373
Mof_C 	C 	0.72428	0.06329	0.82676	0.377
Mof_H 	H 	0.70866	0.26838	0.39917	0.007
Mof_H 	H 	0.62181	0.20613	0.42393	0.018
Mof_H 	H 	0.61294	0.17746	0.48838	-0.002
Mof_H 	H 	0.5575	0.2017	0.75389	-0.001
Mof_H 	H 	0.49064	0.21802	0.72693	0.018
Mof_H 	H 	0.47072	0.20207	0.66082	0.007
Mof_H 	H 	0.90788	0.22821	0.28109	-0.002
Mof_H 	H 	0.00332	0.27005	0.27909	0.019
Mof_H 	H 	0.0568	0.35323	0.31143	0.007
Mof_H 	H 	0.55147	0.01356	0.90629	0.008
Mof_H 	H 	0.59408	0.96106	0.91539	0.018
Mof_H 	H 	0.67259	0.98152	0.87989	-0.002
Mof_Eu	Eu	0.49561	0.61667	0.85884	1.695
Mof_Eu	Eu	0.28628	0.47598	0.95587	1.697
Mof_Eu	Eu	0.56044	0.71749	0.69739	1.699
Mof_Eu	Eu	0.35213	0.48221	0.12777	1.696
Mof_O 	O 	0.50893	0.65026	0.79397	-0.517
Mof_O 	O 	0.48027	0.66121	0.73727	-0.493
Mof_O 	O 	0.40899	0.55527	0.88777	-0.506
Mof_O 	O 	0.31925	0.51453	0.89166	-0.496
Mof_N 	N 	0.41095	0.58757	0.81864	-0.195
Mof_C 	C 	0.41571	0.60423	0.78242	-0.09
Mof_C 	C 	0.37097	0.58803	0.75864	-0.007
Mof_C 	C 	0.32027	0.55253	0.77351	-0.078
Mof_C 	C 	0.31516	0.53542	0.81093	-0.005
Mof_C 	C 	0.36171	0.55436	0.83281	-0.089
Mof_C 	C 	0.47241	0.64157	0.76977	0.379
Mof_C 	C 	0.36248	0.54002	0.87384	0.376
Mof_O 	O 	0.30932	0.48924	0.02312	-0.506
Mof_O 	O 	0.29272	0.49755	0.08425	-0.496
Mof_O 	O 	0.2183	0.49	0.92537	-0.517
Mof_O 	O 	0.49246	0.64288	0.9256	-0.489
Mof_N 	N 	0.23206	0.50354	0.99888	-0.196
Mof_C 	C 	0.24182	0.51088	0.03631	-0.086
Mof_C 	C 	0.21547	0.52913	0.06001	-0.005
Mof_C 	C 	0.17657	0.53843	0.04426	-0.079
Mof_C 	C 	0.16527	0.52973	0.00568	-0.004
Mof_C 	C 	0.19425	0.51262	0.98373	-0.09
Mof_C 	C 	0.28454	0.49848	0.04957	0.377
Mof_C 	C 	0.18656	0.50269	0.94176	0.375
Mof_O 	O 	0.50136	0.63215	0.66606	-0.507
Mof_O 	O 	0.59614	0.8161	0.69307	-0.497
Mof_O 	O 	0.65799	0.76286	0.69826	-0.517
Mof_O 	O 	0.30247	0.40428	0.98023	-0.488
Mof_N 	N 	0.60417	0.66933	0.66483	-0.197
Mof_C 	C 	0.57457	0.62172	0.64712	-0.086
Mof_C 	C 	0.59717	0.59593	0.62718	-0.006
Mof_C 	C 	0.65277	0.62033	0.6263	-0.078
Mof_C 	C 	0.68417	0.66923	0.64475	-0.006
Mof_C 	C 	0.65845	0.69271	0.66375	-0.09
Mof_C 	C 	0.5147	0.60004	0.65108	0.377
Mof_C 	C 	0.68727	0.74533	0.68418	0.372
Mof_O 	O 	0.27254	0.4661	0.16293	-0.517
Mof_O 	O 	0.45095	0.54304	0.12508	-0.488
Mof_O 	O 	0.3991	0.43177	0.13486	-0.507
Mof_O 	O 	0.57941	0.6229	0.83369	-0.496
Mof_N 	N 	0.31719	0.40807	0.1783	-0.196
Mof_C 	C 	0.27276	0.3965	0.19849	-0.087
Mof_C 	C 	0.25027	0.35453	0.22508	-0.008
Mof_C 	C 	0.27567	0.32423	0.23047	-0.078
Mof_C 	C 	0.32127	0.33603	0.20973	-0.004
Mof_C 	C 	0.34128	0.37853	0.18407	-0.089
Mof_C 	C 	0.24956	0.4318	0.18936	0.372
Mof_C 	C 	0.39095	0.39662	0.16009	0.377
Mof_H 	H 	0.37533	0.60171	0.7325	0.007
Mof_H 	H 	0.28848	0.53946	0.75726	0.018
Mof_H 	H 	0.27961	0.51079	0.82171	-0.002
Mof_H 	H 	0.22417	0.53503	0.08722	-0.002
Mof_H 	H 	0.15731	0.55135	0.06026	0.018
Mof_H 	H 	0.13739	0.5354	0.99415	0.007
Mof_H 	H 	0.57455	0.56154	0.61442	-0.001
Mof_H 	H 	0.66999	0.60338	0.61242	0.018
Mof_H 	H 	0.72347	0.68656	0.64476	0.007
Mof_H 	H 	0.21814	0.34689	0.23962	0.008
Mof_H 	H 	0.26075	0.29439	0.24872	0.018
Mof_H 	H 	0.33926	0.31485	0.21322	-0.002
Mof_Eu	Eu	0.16227	0.95001	0.19217	1.695
Mof_Eu	Eu	0.95295	0.80931	0.28921	1.697
Mof_Eu	Eu	0.2271	0.05083	0.03073	1.699
Mof_Eu	Eu	0.01879	0.81554	0.4611	1.695
Mof_O 	O 	0.17559	0.9836	0.12731	-0.517
Mof_O 	O 	0.14693	0.99455	0.07061	-0.493
Mof_O 	O 	0.07565	0.88861	0.22111	-0.506
Mof_O 	O 	0.98591	0.84787	0.225	-0.496
Mof_N 	N 	0.07761	0.92091	0.15198	-0.195
Mof_C 	C 	0.08237	0.93757	0.11576	-0.09
Mof_C 	C 	0.03763	0.92137	0.09198	-0.007
Mof_C 	C 	0.98693	0.88587	0.10685	-0.078
Mof_C 	C 	0.98182	0.86876	0.14427	-0.005
Mof_C 	C 	0.02837	0.8877	0.16615	-0.089
Mof_C 	C 	0.13907	0.97491	0.10311	0.379
Mof_C 	C 	0.02914	0.87336	0.20718	0.376
Mof_O 	O 	0.97598	0.82258	0.35646	-0.507
Mof_O 	O 	0.95938	0.83089	0.41759	-0.496
Mof_O 	O 	0.88496	0.82334	0.25871	-0.517
Mof_O 	O 	0.15912	0.97622	0.25894	-0.489
Mof_N 	N 	0.89872	0.83688	0.33222	-0.196
Mof_C 	C 	0.90848	0.84422	0.36965	-0.086
Mof_C 	C 	0.88213	0.86247	0.39335	-0.006
Mof_C 	C 	0.84323	0.87177	0.3776	-0.078
Mof_C 	C 	0.83193	0.86307	0.33902	-0.005
Mof_C 	C 	0.86091	0.84596	0.31707	-0.089
Mof_C 	C 	0.9512	0.83182	0.38291	0.377
Mof_C 	C 	0.85322	0.83603	0.2751	0.375
Mof_O 	O 	0.16802	0.96549	0.9994	-0.508
Mof_O 	O 	0.2628	0.14944	0.02641	-0.497
Mof_O 	O 	0.32465	0.0962	0.0316	-0.517
Mof_O 	O 	0.96913	0.73762	0.31357	-0.488
Mof_N 	N 	0.27083	0.00267	0.99817	-0.197
Mof_C 	C 	0.24123	0.95506	0.98046	-0.086
Mof_C 	C 	0.26383	0.92927	0.96052	-0.006
Mof_C 	C 	0.31943	0.95367	0.95964	-0.079
Mof_C 	C 	0.35083	0.00257	0.97809	-0.005
Mof_C 	C 	0.32511	0.02605	0.99709	-0.09
Mof_C 	C 	0.18136	0.93338	0.98442	0.377
Mof_C 	C 	0.35393	0.07867	0.01752	0.372
Mof_O 	O 	0.9392	0.79944	0.49627	-0.517
Mof_O 	O 	0.11761	0.87638	0.45842	-0.488
Mof_O 	O 	0.06576	0.76511	0.4682	-0.507
Mof_O 	O 	0.24607	0.95624	0.16703	-0.496
Mof_N 	N 	0.98385	0.74141	0.51164	-0.196
Mof_C 	C 	0.93942	0.72984	0.53183	-0.087
Mof_C 	C 	0.91693	0.68787	0.55842	-0.007
Mof_C 	C 	0.94233	0.65757	0.56381	-0.078
Mof_C 	C 	0.98793	0.66937	0.54307	-0.003
Mof_C 	C 	0.00794	0.71187	0.51741	-0.089
Mof_C 	C 	0.91622	0.76514	0.5227	0.373
Mof_C 	C 	0.05761	0.72996	0.49343	0.377
Mof_H 	H 	0.04199	0.93505	0.06584	0.007
Mof_H 	H 	0.95514	0.8728	0.0906	0.018
Mof_H 	H 	0.94627	0.84413	0.15505	-0.002
Mof_H 	H 	0.89083	0.86837	0.42056	-0.002
Mof_H 	H 	0.82397	0.88469	0.3936	0.018
Mof_H 	H 	0.80405	0.86874	0.32749	0.007
Mof_H 	H 	0.24121	0.89488	0.94776	-0.002
Mof_H 	H 	0.33665	0.93672	0.94576	0.018
Mof_H 	H 	0.39013	0.0199	0.9781	0.007
Mof_H 	H 	0.8848	0.68023	0.57296	0.008
Mof_H 	H 	0.92741	0.62773	0.58206	0.018
Mof_H 	H 	0.00592	0.64819	0.54656	-0.002
_end
