data_functionalizedCrystal
_audit_creation_method	'EQeq! by Chris Wilmer'
_symmetry_space_group_name_H-M	'P1'
_symmetry_Int_Tables_number	1
_symmetry_cell_setting	triclinic
loop_
_symmetry_equiv_pos_as_xyz
  x,y,z
_cell_length_a	27.7364
_cell_length_b	27.7364
_cell_length_c	27.7364
_cell_angle_alpha	90
_cell_angle_beta	90
_cell_angle_gamma	90
loop_
_atom_site_label
_atom_site_type_symbol
_atom_site_fract_x
_atom_site_fract_y
_atom_site_fract_z
_atom_site_charge
Mof_Zn	Zn	1.1339e-32	0.80126	0.5	1.203
Mof_Zn	Zn	1.8747e-33	0.19874	0.5	1.203
Mof_Zn	Zn	0.5	0	0.80126	1.203
Mof_Zn	Zn	0.5	-2.36608e-33	0.19874	1.203
Mof_Zn	Zn	0.80126	0.5	-0	1.203
Mof_Zn	Zn	0.19874	0.5	-0	1.204
Mof_Zn	Zn	0.30126	0.5	-0	1.205
Mof_Zn	Zn	0.69874	0.5	-0	1.205
Mof_Zn	Zn	0.5	0	0.69874	1.205
Mof_Zn	Zn	0.5	2.36608e-33	0.30126	1.205
Mof_Zn	Zn	1.8747e-33	0.30126	0.5	1.205
Mof_Zn	Zn	1.8747e-33	0.69874	0.5	1.205
Mof_H 	H 	0.82875	0.67269	0.67427	0.047
Mof_H 	H 	0.89129	0.67131	0.60838	0.039
Mof_H 	H 	0.17125	0.32731	0.67427	0.044
Mof_H 	H 	0.10871	0.32869	0.60838	0.032
Mof_H 	H 	0.17125	0.67269	0.32573	0.043
Mof_H 	H 	0.10871	0.67131	0.39162	0.032
Mof_H 	H 	0.82875	0.32731	0.32573	0.046
Mof_H 	H 	0.89129	0.32869	0.39162	0.038
Mof_H 	H 	0.67427	0.82875	0.67269	0.046
Mof_H 	H 	0.60838	0.89129	0.67131	0.039
Mof_H 	H 	0.67427	0.17125	0.32731	0.044
Mof_H 	H 	0.60838	0.10871	0.32869	0.032
Mof_H 	H 	0.32573	0.17125	0.67269	0.043
Mof_H 	H 	0.39162	0.10871	0.67131	0.032
Mof_H 	H 	0.32573	0.82875	0.32731	0.046
Mof_H 	H 	0.39162	0.89129	0.32869	0.038
Mof_H 	H 	0.67269	0.67427	0.82875	0.046
Mof_H 	H 	0.67131	0.60838	0.89129	0.039
Mof_H 	H 	0.32731	0.67427	0.17125	0.044
Mof_H 	H 	0.32869	0.60838	0.10871	0.032
Mof_H 	H 	0.67269	0.32573	0.17125	0.043
Mof_H 	H 	0.67131	0.39162	0.10871	0.032
Mof_H 	H 	0.32731	0.32573	0.82875	0.046
Mof_H 	H 	0.32869	0.39162	0.89129	0.038
Mof_H 	H 	0.17269	0.32875	0.82573	0.043
Mof_H 	H 	0.17131	0.39129	0.89162	0.034
Mof_H 	H 	0.82731	0.67125	0.82573	0.049
Mof_H 	H 	0.82869	0.60871	0.89162	0.039
Mof_H 	H 	0.17269	0.67125	0.17427	0.041
Mof_H 	H 	0.17131	0.60871	0.10838	0.029
Mof_H 	H 	0.82731	0.32875	0.17427	0.045
Mof_H 	H 	0.82869	0.39129	0.10838	0.033
Mof_H 	H 	0.32875	0.17427	0.82731	0.045
Mof_H 	H 	0.39129	0.10838	0.82869	0.033
Mof_H 	H 	0.67125	0.17427	0.17269	0.041
Mof_H 	H 	0.60871	0.10838	0.17131	0.029
Mof_H 	H 	0.67125	0.82573	0.82731	0.049
Mof_H 	H 	0.60871	0.89162	0.82869	0.039
Mof_H 	H 	0.32875	0.82573	0.17269	0.043
Mof_H 	H 	0.39129	0.89162	0.17131	0.034
Mof_H 	H 	0.17427	0.17269	0.67125	0.041
Mof_H 	H 	0.10838	0.17131	0.60871	0.029
Mof_H 	H 	0.17427	0.82731	0.32875	0.045
Mof_H 	H 	0.10838	0.82869	0.39129	0.033
Mof_H 	H 	0.82573	0.17269	0.32875	0.043
Mof_H 	H 	0.89162	0.17131	0.39129	0.034
Mof_H 	H 	0.82573	0.82731	0.67125	0.049
Mof_H 	H 	0.89162	0.82869	0.60871	0.039
Mof_H 	H 	0.17125	0.32731	0.32573	0.043
Mof_H 	H 	0.10871	0.32869	0.39162	0.031
Mof_H 	H 	0.82875	0.67269	0.32573	0.046
Mof_H 	H 	0.89129	0.67131	0.39162	0.039
Mof_H 	H 	0.82875	0.32731	0.67427	0.046
Mof_H 	H 	0.89129	0.32869	0.60838	0.039
Mof_H 	H 	0.17125	0.67269	0.67427	0.044
Mof_H 	H 	0.10871	0.67131	0.60838	0.032
Mof_H 	H 	0.32573	0.17125	0.32731	0.043
Mof_H 	H 	0.39162	0.10871	0.32869	0.031
Mof_H 	H 	0.32573	0.82875	0.67269	0.046
Mof_H 	H 	0.39162	0.89129	0.67131	0.039
Mof_H 	H 	0.67427	0.82875	0.32731	0.046
Mof_H 	H 	0.60838	0.89129	0.32869	0.039
Mof_H 	H 	0.67427	0.17125	0.67269	0.044
Mof_H 	H 	0.60838	0.10871	0.67131	0.032
Mof_H 	H 	0.32731	0.32573	0.17125	0.043
Mof_H 	H 	0.32869	0.39162	0.10871	0.031
Mof_H 	H 	0.67269	0.32573	0.82875	0.046
Mof_H 	H 	0.67131	0.39162	0.89129	0.039
Mof_H 	H 	0.32731	0.67427	0.82875	0.046
Mof_H 	H 	0.32869	0.60838	0.89129	0.039
Mof_H 	H 	0.67269	0.67427	0.17125	0.044
Mof_H 	H 	0.67131	0.60838	0.10871	0.032
Mof_H 	H 	0.82731	0.67125	0.17427	0.046
Mof_H 	H 	0.82869	0.60871	0.10838	0.033
Mof_H 	H 	0.17269	0.32875	0.17427	0.04
Mof_H 	H 	0.17131	0.39129	0.10838	0.028
Mof_H 	H 	0.82731	0.32875	0.82573	0.048
Mof_H 	H 	0.82869	0.39129	0.89162	0.038
Mof_H 	H 	0.17269	0.67125	0.82573	0.044
Mof_H 	H 	0.17131	0.60871	0.89162	0.035
Mof_H 	H 	0.67125	0.82573	0.17269	0.044
Mof_H 	H 	0.60871	0.89162	0.17131	0.035
Mof_H 	H 	0.32875	0.82573	0.82731	0.048
Mof_H 	H 	0.39129	0.89162	0.82869	0.038
Mof_H 	H 	0.32875	0.17427	0.17269	0.04
Mof_H 	H 	0.39129	0.10838	0.17131	0.028
Mof_H 	H 	0.67125	0.17427	0.82731	0.046
Mof_H 	H 	0.60871	0.10838	0.82869	0.033
Mof_H 	H 	0.82573	0.82731	0.32875	0.048
Mof_H 	H 	0.89162	0.82869	0.39129	0.038
Mof_H 	H 	0.82573	0.17269	0.67125	0.044
Mof_H 	H 	0.89162	0.17131	0.60871	0.035
Mof_H 	H 	0.17427	0.82731	0.67125	0.046
Mof_H 	H 	0.10838	0.82869	0.60871	0.033
Mof_H 	H 	0.17427	0.17269	0.32875	0.04
Mof_H 	H 	0.10838	0.17131	0.39129	0.028
Mof_H 	H 	0.74922	0.81436	0.68642	0.042
Mof_H 	H 	0.25078	0.18564	0.68642	0.038
Mof_H 	H 	0.25078	0.81436	0.31358	0.04
Mof_H 	H 	0.74922	0.18564	0.31358	0.038
Mof_H 	H 	0.68642	0.74922	0.81436	0.042
Mof_H 	H 	0.68642	0.25078	0.18564	0.038
Mof_H 	H 	0.31358	0.25078	0.81436	0.04
Mof_H 	H 	0.31358	0.74922	0.18564	0.038
Mof_H 	H 	0.81358	0.68564	0.75078	0.042
Mof_H 	H 	0.18642	0.68564	0.24922	0.038
Mof_H 	H 	0.81358	0.31436	0.24922	0.04
Mof_H 	H 	0.18642	0.31436	0.75078	0.038
Mof_H 	H 	0.25078	0.18564	0.31358	0.037
Mof_H 	H 	0.74922	0.81436	0.31358	0.041
Mof_H 	H 	0.74922	0.18564	0.68642	0.039
Mof_H 	H 	0.25078	0.81436	0.68642	0.041
Mof_H 	H 	0.31358	0.25078	0.18564	0.037
Mof_H 	H 	0.31358	0.74922	0.81436	0.041
Mof_H 	H 	0.68642	0.74922	0.18564	0.039
Mof_H 	H 	0.68642	0.25078	0.81436	0.041
Mof_H 	H 	0.18642	0.31436	0.24922	0.037
Mof_H 	H 	0.81358	0.31436	0.75078	0.041
Mof_H 	H 	0.18642	0.68564	0.75078	0.039
Mof_H 	H 	0.81358	0.68564	0.24922	0.041
Mof_C 	C 	0.84273	0.70796	0.65846	-0.067
Mof_C 	C 	0.87743	0.70721	0.62282	0.041
Mof_C 	C 	0.15727	0.29204	0.65846	-0.072
Mof_C 	C 	0.12257	0.29279	0.62282	0.039
Mof_C 	C 	0.15727	0.70796	0.34154	-0.072
Mof_C 	C 	0.12257	0.70721	0.37718	0.039
Mof_C 	C 	0.84273	0.29204	0.34154	-0.068
Mof_C 	C 	0.87743	0.29279	0.37718	0.04
Mof_C 	C 	0.65846	0.84273	0.70796	-0.067
Mof_C 	C 	0.62282	0.87743	0.70721	0.041
Mof_C 	C 	0.65846	0.15727	0.29204	-0.072
Mof_C 	C 	0.62282	0.12257	0.29279	0.039
Mof_C 	C 	0.34154	0.15727	0.70796	-0.072
Mof_C 	C 	0.37718	0.12257	0.70721	0.039
Mof_C 	C 	0.34154	0.84273	0.29204	-0.068
Mof_C 	C 	0.37718	0.87743	0.29279	0.04
Mof_C 	C 	0.70796	0.65846	0.84273	-0.067
Mof_C 	C 	0.70721	0.62282	0.87743	0.041
Mof_C 	C 	0.29204	0.65846	0.15727	-0.072
Mof_C 	C 	0.29279	0.62282	0.12257	0.039
Mof_C 	C 	0.70796	0.34154	0.15727	-0.072
Mof_C 	C 	0.70721	0.37718	0.12257	0.039
Mof_C 	C 	0.29204	0.34154	0.84273	-0.068
Mof_C 	C 	0.29279	0.37718	0.87743	0.04
Mof_C 	C 	0.20796	0.34273	0.84154	-0.069
Mof_C 	C 	0.20721	0.37743	0.87718	0.039
Mof_C 	C 	0.79204	0.65727	0.84154	-0.067
Mof_C 	C 	0.79279	0.62257	0.87718	0.041
Mof_C 	C 	0.20796	0.65727	0.15846	-0.073
Mof_C 	C 	0.20721	0.62257	0.12282	0.039
Mof_C 	C 	0.79204	0.34273	0.15846	-0.071
Mof_C 	C 	0.79279	0.37743	0.12282	0.04
Mof_C 	C 	0.34273	0.15846	0.79204	-0.071
Mof_C 	C 	0.37743	0.12282	0.79279	0.04
Mof_C 	C 	0.65727	0.15846	0.20796	-0.072
Mof_C 	C 	0.62257	0.12282	0.20721	0.039
Mof_C 	C 	0.65727	0.84154	0.79204	-0.067
Mof_C 	C 	0.62257	0.87718	0.79279	0.041
Mof_C 	C 	0.34273	0.84154	0.20796	-0.069
Mof_C 	C 	0.37743	0.87718	0.20721	0.039
Mof_C 	C 	0.15846	0.20796	0.65727	-0.072
Mof_C 	C 	0.12282	0.20721	0.62257	0.039
Mof_C 	C 	0.15846	0.79204	0.34273	-0.071
Mof_C 	C 	0.12282	0.79279	0.37743	0.04
Mof_C 	C 	0.84154	0.20796	0.34273	-0.069
Mof_C 	C 	0.87718	0.20721	0.37743	0.039
Mof_C 	C 	0.84154	0.79204	0.65727	-0.067
Mof_C 	C 	0.87718	0.79279	0.62257	0.041
Mof_C 	C 	0.15727	0.29204	0.34154	-0.072
Mof_C 	C 	0.12257	0.29279	0.37718	0.039
Mof_C 	C 	0.84273	0.70796	0.34154	-0.068
Mof_C 	C 	0.87743	0.70721	0.37718	0.04
Mof_C 	C 	0.84273	0.29204	0.65846	-0.068
Mof_C 	C 	0.87743	0.29279	0.62282	0.04
Mof_C 	C 	0.15727	0.70796	0.65846	-0.071
Mof_C 	C 	0.12257	0.70721	0.62282	0.04
Mof_C 	C 	0.34154	0.15727	0.29204	-0.072
Mof_C 	C 	0.37718	0.12257	0.29279	0.039
Mof_C 	C 	0.34154	0.84273	0.70796	-0.068
Mof_C 	C 	0.37718	0.87743	0.70721	0.04
Mof_C 	C 	0.65846	0.84273	0.29204	-0.068
Mof_C 	C 	0.62282	0.87743	0.29279	0.04
Mof_C 	C 	0.65846	0.15727	0.70796	-0.071
Mof_C 	C 	0.62282	0.12257	0.70721	0.04
Mof_C 	C 	0.29204	0.34154	0.15727	-0.072
Mof_C 	C 	0.29279	0.37718	0.12257	0.039
Mof_C 	C 	0.70796	0.34154	0.84273	-0.068
Mof_C 	C 	0.70721	0.37718	0.87743	0.04
Mof_C 	C 	0.29204	0.65846	0.84273	-0.068
Mof_C 	C 	0.29279	0.62282	0.87743	0.04
Mof_C 	C 	0.70796	0.65846	0.15727	-0.071
Mof_C 	C 	0.70721	0.62282	0.12257	0.04
Mof_C 	C 	0.79204	0.65727	0.15846	-0.071
Mof_C 	C 	0.79279	0.62257	0.12282	0.041
Mof_C 	C 	0.20796	0.34273	0.15846	-0.073
Mof_C 	C 	0.20721	0.37743	0.12282	0.038
Mof_C 	C 	0.79204	0.34273	0.84154	-0.068
Mof_C 	C 	0.79279	0.37743	0.87718	0.041
Mof_C 	C 	0.20796	0.65727	0.84154	-0.069
Mof_C 	C 	0.20721	0.62257	0.87718	0.04
Mof_C 	C 	0.65727	0.84154	0.20796	-0.069
Mof_C 	C 	0.62257	0.87718	0.20721	0.04
Mof_C 	C 	0.34273	0.84154	0.79204	-0.067
Mof_C 	C 	0.37743	0.87718	0.79279	0.041
Mof_C 	C 	0.34273	0.15846	0.20796	-0.073
Mof_C 	C 	0.37743	0.12282	0.20721	0.038
Mof_C 	C 	0.65727	0.15846	0.79204	-0.071
Mof_C 	C 	0.62257	0.12282	0.79279	0.041
Mof_C 	C 	0.84154	0.79204	0.34273	-0.067
Mof_C 	C 	0.87718	0.79279	0.37743	0.041
Mof_C 	C 	0.84154	0.20796	0.65727	-0.069
Mof_C 	C 	0.87718	0.20721	0.62257	0.04
Mof_C 	C 	0.15846	0.79204	0.65727	-0.071
Mof_C 	C 	0.12282	0.79279	0.62257	0.041
Mof_C 	C 	0.15846	0.20796	0.34273	-0.073
Mof_C 	C 	0.12282	0.20721	0.37743	0.038
Mof_C 	C 	2.08034e-32	0.97379	0.5	0.047
Mof_C 	C 	1.8747e-33	0.02621	0.5	-0.048
Mof_C 	C 	0.5	0	0.97379	0.047
Mof_C 	C 	0.5	2.9576e-34	0.02621	-0.048
Mof_C 	C 	0.97379	0.5	-0	0.047
Mof_C 	C 	0.02621	0.5	-0	-0.048
Mof_C 	C 	0.47379	0.5	-0	0.027
Mof_C 	C 	0.52621	0.5	-0	0.027
Mof_C 	C 	0.5	0	0.52621	0.027
Mof_C 	C 	0.5	0	0.47379	0.026
Mof_C 	C 	6.60687e-33	0.47379	0.5	0.027
Mof_C 	C 	6.60687e-33	0.52621	0.5	0.027
Mof_C 	C 	0.93337	0.75	0.56663	0.409
Mof_C 	C 	0.89573	0.75	0.60427	-0.125
Mof_C 	C 	0.82385	0.75	0.67615	0.032
Mof_C 	C 	0.78586	0.75	0.71414	0.012
Mof_C 	C 	0.06663	0.25	0.56663	0.412
Mof_C 	C 	0.10427	0.25	0.60427	-0.133
Mof_C 	C 	0.17615	0.25	0.67615	0.031
Mof_C 	C 	0.21414	0.25	0.71414	0.008
Mof_C 	C 	0.06663	0.75	0.43337	0.412
Mof_C 	C 	0.10427	0.75	0.39573	-0.133
Mof_C 	C 	0.17615	0.75	0.32385	0.031
Mof_C 	C 	0.21414	0.75	0.28586	0.008
Mof_C 	C 	0.93337	0.25	0.43337	0.409
Mof_C 	C 	0.89573	0.25	0.39573	-0.126
Mof_C 	C 	0.82385	0.25	0.32385	0.031
Mof_C 	C 	0.78586	0.25	0.28586	0.009
Mof_C 	C 	0.56663	0.93337	0.75	0.409
Mof_C 	C 	0.60427	0.89573	0.75	-0.125
Mof_C 	C 	0.67615	0.82385	0.75	0.032
Mof_C 	C 	0.71414	0.78586	0.75	0.011
Mof_C 	C 	0.56663	0.06663	0.25	0.412
Mof_C 	C 	0.60427	0.10427	0.25	-0.133
Mof_C 	C 	0.67615	0.17615	0.25	0.031
Mof_C 	C 	0.71414	0.21414	0.25	0.008
Mof_C 	C 	0.43337	0.06663	0.75	0.412
Mof_C 	C 	0.39573	0.10427	0.75	-0.133
Mof_C 	C 	0.32385	0.17615	0.75	0.031
Mof_C 	C 	0.28586	0.21414	0.75	0.008
Mof_C 	C 	0.43337	0.93337	0.25	0.409
Mof_C 	C 	0.39573	0.89573	0.25	-0.126
Mof_C 	C 	0.32385	0.82385	0.25	0.03
Mof_C 	C 	0.28586	0.78586	0.25	0.009
Mof_C 	C 	0.75	0.56663	0.93337	0.409
Mof_C 	C 	0.75	0.60427	0.89573	-0.125
Mof_C 	C 	0.75	0.67615	0.82385	0.032
Mof_C 	C 	0.75	0.71414	0.78586	0.011
Mof_C 	C 	0.25	0.56663	0.06663	0.412
Mof_C 	C 	0.25	0.60427	0.10427	-0.133
Mof_C 	C 	0.25	0.67615	0.17615	0.03
Mof_C 	C 	0.25	0.71414	0.21414	0.007
Mof_C 	C 	0.75	0.43337	0.06663	0.412
Mof_C 	C 	0.75	0.39573	0.10427	-0.133
Mof_C 	C 	0.75	0.32385	0.17615	0.031
Mof_C 	C 	0.75	0.28586	0.21414	0.008
Mof_C 	C 	0.25	0.43337	0.93337	0.409
Mof_C 	C 	0.25	0.39573	0.89573	-0.126
Mof_C 	C 	0.25	0.32385	0.82385	0.03
Mof_C 	C 	0.25	0.28586	0.78586	0.009
Mof_C 	C 	0.06663	0.25	0.43337	0.412
Mof_C 	C 	0.10427	0.25	0.39573	-0.134
Mof_C 	C 	0.17615	0.25	0.32385	0.03
Mof_C 	C 	0.21414	0.25	0.28586	0.007
Mof_C 	C 	0.93337	0.75	0.43337	0.409
Mof_C 	C 	0.89573	0.75	0.39573	-0.125
Mof_C 	C 	0.82385	0.75	0.32385	0.031
Mof_C 	C 	0.78586	0.75	0.28586	0.011
Mof_C 	C 	0.93337	0.25	0.56663	0.409
Mof_C 	C 	0.89573	0.25	0.60427	-0.126
Mof_C 	C 	0.82385	0.25	0.67615	0.031
Mof_C 	C 	0.78586	0.25	0.71414	0.01
Mof_C 	C 	0.06663	0.75	0.56663	0.412
Mof_C 	C 	0.10427	0.75	0.60427	-0.132
Mof_C 	C 	0.17615	0.75	0.67615	0.031
Mof_C 	C 	0.21414	0.75	0.71414	0.009
Mof_C 	C 	0.43337	0.06663	0.25	0.412
Mof_C 	C 	0.39573	0.10427	0.25	-0.134
Mof_C 	C 	0.32385	0.17615	0.25	0.03
Mof_C 	C 	0.28586	0.21414	0.25	0.006
Mof_C 	C 	0.43337	0.93337	0.75	0.409
Mof_C 	C 	0.39573	0.89573	0.75	-0.125
Mof_C 	C 	0.32385	0.82385	0.75	0.031
Mof_C 	C 	0.28586	0.78586	0.75	0.01
Mof_C 	C 	0.56663	0.93337	0.25	0.409
Mof_C 	C 	0.60427	0.89573	0.25	-0.126
Mof_C 	C 	0.67615	0.82385	0.25	0.031
Mof_C 	C 	0.71414	0.78586	0.25	0.01
Mof_C 	C 	0.56663	0.06663	0.75	0.412
Mof_C 	C 	0.60427	0.10427	0.75	-0.132
Mof_C 	C 	0.67615	0.17615	0.75	0.031
Mof_C 	C 	0.71414	0.21414	0.75	0.009
Mof_C 	C 	0.25	0.43337	0.06663	0.412
Mof_C 	C 	0.25	0.39573	0.10427	-0.134
Mof_C 	C 	0.25	0.32385	0.17615	0.03
Mof_C 	C 	0.25	0.28586	0.21414	0.006
Mof_C 	C 	0.75	0.43337	0.93337	0.409
Mof_C 	C 	0.75	0.39573	0.89573	-0.125
Mof_C 	C 	0.75	0.32385	0.82385	0.031
Mof_C 	C 	0.75	0.28586	0.78586	0.01
Mof_C 	C 	0.25	0.56663	0.93337	0.409
Mof_C 	C 	0.25	0.60427	0.89573	-0.126
Mof_C 	C 	0.25	0.67615	0.82385	0.031
Mof_C 	C 	0.25	0.71414	0.78586	0.01
Mof_C 	C 	0.75	0.56663	0.06663	0.412
Mof_C 	C 	0.75	0.60427	0.10427	-0.132
Mof_C 	C 	0.75	0.67615	0.17615	0.031
Mof_C 	C 	0.75	0.71414	0.21414	0.009
Mof_C 	C 	0.75	0.78491	0.71509	-0.05
Mof_C 	C 	0.25	0.21509	0.71509	-0.051
Mof_C 	C 	0.25	0.78491	0.28491	-0.05
Mof_C 	C 	0.75	0.21509	0.28491	-0.051
Mof_C 	C 	0.71509	0.75	0.78491	-0.049
Mof_C 	C 	0.71509	0.25	0.21509	-0.05
Mof_C 	C 	0.28491	0.25	0.78491	-0.05
Mof_C 	C 	0.28491	0.75	0.21509	-0.05
Mof_C 	C 	0.78491	0.71509	0.75	-0.049
Mof_C 	C 	0.21509	0.71509	0.25	-0.05
Mof_C 	C 	0.78491	0.28491	0.25	-0.05
Mof_C 	C 	0.21509	0.28491	0.75	-0.051
Mof_C 	C 	0.25	0.21509	0.28491	-0.051
Mof_C 	C 	0.75	0.78491	0.28491	-0.05
Mof_C 	C 	0.75	0.21509	0.71509	-0.05
Mof_C 	C 	0.25	0.78491	0.71509	-0.05
Mof_C 	C 	0.28491	0.25	0.21509	-0.051
Mof_C 	C 	0.28491	0.75	0.78491	-0.05
Mof_C 	C 	0.71509	0.75	0.21509	-0.05
Mof_C 	C 	0.71509	0.25	0.78491	-0.05
Mof_C 	C 	0.21509	0.28491	0.25	-0.051
Mof_C 	C 	0.78491	0.28491	0.75	-0.05
Mof_C 	C 	0.21509	0.71509	0.75	-0.05
Mof_C 	C 	0.78491	0.71509	0.25	-0.05
Mof_C 	C 	0.9592	0.898	0.5	0.08
Mof_C 	C 	0.9569	0.9494	0.5	-0.053
Mof_C 	C 	0.0408	0.102	0.5	0.034
Mof_C 	C 	0.0431	0.0506	0.5	-0.052
Mof_C 	C 	0.0408	0.898	0.5	0.051
Mof_C 	C 	0.0431	0.9494	0.5	-0.079
Mof_C 	C 	0.9592	0.102	0.5	0.063
Mof_C 	C 	0.9569	0.0506	0.5	-0.026
Mof_C 	C 	0.5	0.9592	0.898	0.08
Mof_C 	C 	0.5	0.9569	0.9494	-0.053
Mof_C 	C 	0.5	0.0408	0.102	0.034
Mof_C 	C 	0.5	0.0431	0.0506	-0.052
Mof_C 	C 	0.5	0.0408	0.898	0.051
Mof_C 	C 	0.5	0.0431	0.9494	-0.079
Mof_C 	C 	0.5	0.9592	0.102	0.063
Mof_C 	C 	0.5	0.9569	0.0506	-0.026
Mof_C 	C 	0.898	0.5	0.9592	0.08
Mof_C 	C 	0.9494	0.5	0.9569	-0.053
Mof_C 	C 	0.102	0.5	0.0408	0.034
Mof_C 	C 	0.0506	0.5	0.0431	-0.052
Mof_C 	C 	0.898	0.5	0.0408	0.051
Mof_C 	C 	0.9494	0.5	0.0431	-0.079
Mof_C 	C 	0.102	0.5	0.9592	0.063
Mof_C 	C 	0.0506	0.5	0.9569	-0.026
Mof_C 	C 	0.398	0.4592	-0	0.046
Mof_C 	C 	0.4494	0.4569	-0	-0.073
Mof_C 	C 	0.602	0.5408	-0	0.045
Mof_C 	C 	0.5506	0.5431	-0	-0.072
Mof_C 	C 	0.398	0.5408	-0	0.045
Mof_C 	C 	0.4494	0.5431	-0	-0.072
Mof_C 	C 	0.602	0.4592	-0	0.046
Mof_C 	C 	0.5506	0.4569	-0	-0.072
Mof_C 	C 	0.4592	0	0.602	0.046
Mof_C 	C 	0.4569	4.73217e-33	0.5506	-0.072
Mof_C 	C 	0.5408	0	0.398	0.046
Mof_C 	C 	0.5431	0	0.4494	-0.072
Mof_C 	C 	0.5408	0	0.602	0.045
Mof_C 	C 	0.5431	4.73217e-33	0.5506	-0.072
Mof_C 	C 	0.4592	0	0.398	0.046
Mof_C 	C 	0.4569	0	0.4494	-0.072
Mof_C 	C 	-2.70449e-33	0.398	0.5408	0.045
Mof_C 	C 	-1.21602e-32	0.4494	0.5431	-0.072
Mof_C 	C 	6.45389e-33	0.602	0.4592	0.046
Mof_C 	C 	1.11774e-32	0.5506	0.4569	-0.072
Mof_C 	C 	1.72172e-33	0.398	0.4592	0.046
Mof_C 	C 	6.44527e-33	0.4494	0.4569	-0.073
Mof_C 	C 	6.75984e-33	0.602	0.5408	0.045
Mof_C 	C 	-7.42804e-33	0.5506	0.5431	-0.072
Mof_N 	N 	1.8747e-33	0.87411	0.5	-0.264
Mof_N 	N 	1.8747e-33	0.12589	0.5	-0.259
Mof_N 	N 	0.5	0	0.87411	-0.264
Mof_N 	N 	0.5	0	0.12589	-0.259
Mof_N 	N 	0.87411	0.5	-0	-0.264
Mof_N 	N 	0.12589	0.5	-0	-0.259
Mof_N 	N 	0.37411	0.5	-0	-0.246
Mof_N 	N 	0.62589	0.5	-0	-0.246
Mof_N 	N 	0.5	4.73217e-33	0.62589	-0.246
Mof_N 	N 	0.5	0	0.37411	-0.246
Mof_N 	N 	6.60687e-33	0.37411	0.5	-0.246
Mof_N 	N 	1.60712e-32	0.62589	0.5	-0.246
Mof_O 	O 	0.94838	0.78961	0.55142	-0.454
Mof_O 	O 	0.05162	0.21039	0.55142	-0.475
Mof_O 	O 	0.05162	0.78961	0.44858	-0.473
Mof_O 	O 	0.94838	0.21039	0.44858	-0.456
Mof_O 	O 	0.55142	0.94838	0.78961	-0.454
Mof_O 	O 	0.55142	0.05162	0.21039	-0.475
Mof_O 	O 	0.44858	0.05162	0.78961	-0.474
Mof_O 	O 	0.44858	0.94838	0.21039	-0.456
Mof_O 	O 	0.78961	0.55142	0.94838	-0.454
Mof_O 	O 	0.21039	0.55142	0.05162	-0.475
Mof_O 	O 	0.78961	0.44858	0.05162	-0.474
Mof_O 	O 	0.21039	0.44858	0.94838	-0.456
Mof_O 	O 	0.28961	0.44838	0.94858	-0.452
Mof_O 	O 	0.71039	0.55162	0.94858	-0.452
Mof_O 	O 	0.28961	0.55162	0.05142	-0.473
Mof_O 	O 	0.71039	0.44838	0.05142	-0.473
Mof_O 	O 	0.44838	0.05142	0.71039	-0.473
Mof_O 	O 	0.55162	0.05142	0.28961	-0.473
Mof_O 	O 	0.55162	0.94858	0.71039	-0.452
Mof_O 	O 	0.44838	0.94858	0.28961	-0.452
Mof_O 	O 	0.05142	0.28961	0.55162	-0.473
Mof_O 	O 	0.05142	0.71039	0.44838	-0.473
Mof_O 	O 	0.94858	0.28961	0.44838	-0.452
Mof_O 	O 	0.94858	0.71039	0.55162	-0.452
Mof_O 	O 	0.05162	0.21039	0.44858	-0.475
Mof_O 	O 	0.94838	0.78961	0.44858	-0.454
Mof_O 	O 	0.94838	0.21039	0.55142	-0.455
Mof_O 	O 	0.05162	0.78961	0.55142	-0.473
Mof_O 	O 	0.44858	0.05162	0.21039	-0.475
Mof_O 	O 	0.44858	0.94838	0.78961	-0.454
Mof_O 	O 	0.55142	0.94838	0.21039	-0.455
Mof_O 	O 	0.55142	0.05162	0.78961	-0.473
Mof_O 	O 	0.21039	0.44858	0.05162	-0.475
Mof_O 	O 	0.78961	0.44858	0.94838	-0.454
Mof_O 	O 	0.21039	0.55142	0.94838	-0.455
Mof_O 	O 	0.78961	0.55142	0.05162	-0.473
Mof_O 	O 	0.71039	0.55162	0.05142	-0.473
Mof_O 	O 	0.28961	0.44838	0.05142	-0.473
Mof_O 	O 	0.71039	0.44838	0.94858	-0.452
Mof_O 	O 	0.28961	0.55162	0.94858	-0.452
Mof_O 	O 	0.55162	0.94858	0.28961	-0.452
Mof_O 	O 	0.44838	0.94858	0.71039	-0.452
Mof_O 	O 	0.44838	0.05142	0.28961	-0.473
Mof_O 	O 	0.55162	0.05142	0.71039	-0.473
Mof_O 	O 	0.94858	0.71039	0.44838	-0.452
Mof_O 	O 	0.94858	0.28961	0.55162	-0.452
Mof_O 	O 	0.05142	0.71039	0.55162	-0.473
Mof_O 	O 	0.05142	0.28961	0.44838	-0.473
Mof_H 	H 	0.92456	0.87588	0.5	0.012
Mof_H 	H 	0.92148	0.97026	0.5	0.055
Mof_H 	H 	0.07544	0.12412	0.5	0.012
Mof_H 	H 	0.07852	0.02974	0.5	0.024
Mof_H 	H 	0.07544	0.87588	0.5	0.013
Mof_H 	H 	0.07852	0.97026	0.5	0.055
Mof_H 	H 	0.92456	0.12412	0.5	0.011
Mof_H 	H 	0.92148	0.02974	0.5	0.024
Mof_H 	H 	0.5	0.92456	0.87588	0.012
Mof_H 	H 	0.5	0.92148	0.97026	0.055
Mof_H 	H 	0.5	0.07544	0.12412	0.012
Mof_H 	H 	0.5	0.07852	0.02974	0.024
Mof_H 	H 	0.5	0.07544	0.87588	0.013
Mof_H 	H 	0.5	0.07852	0.97026	0.055
Mof_H 	H 	0.5	0.92456	0.12412	0.011
Mof_H 	H 	0.5	0.92148	0.02974	0.024
Mof_H 	H 	0.87588	0.5	0.92456	0.012
Mof_H 	H 	0.97026	0.5	0.92148	0.055
Mof_H 	H 	0.12412	0.5	0.07544	0.012
Mof_H 	H 	0.02974	0.5	0.07852	0.024
Mof_H 	H 	0.87588	0.5	0.07544	0.013
Mof_H 	H 	0.97026	0.5	0.07852	0.055
Mof_H 	H 	0.12412	0.5	0.92456	0.011
Mof_H 	H 	0.02974	0.5	0.92148	0.024
Mof_H 	H 	0.37588	0.42456	-0	0.006
Mof_H 	H 	0.47026	0.42148	-0	0.038
Mof_H 	H 	0.62412	0.57544	-0	0.006
Mof_H 	H 	0.53166	0.57958	-0	0.038
Mof_H 	H 	0.37588	0.57544	-0	0.006
Mof_H 	H 	0.46834	0.57958	-0	0.038
Mof_H 	H 	0.62412	0.42456	-0	0.006
Mof_H 	H 	0.52974	0.42148	-0	0.038
Mof_H 	H 	0.42456	4.73217e-33	0.62412	0.006
Mof_H 	H 	0.42148	4.73217e-33	0.52974	0.038
Mof_H 	H 	0.57544	-4.73217e-33	0.37588	0.006
Mof_H 	H 	0.57852	0	0.47026	0.038
Mof_H 	H 	0.57544	4.73217e-33	0.62412	0.006
Mof_H 	H 	0.57958	0	0.53166	0.038
Mof_H 	H 	0.42456	-4.73217e-33	0.37588	0.006
Mof_H 	H 	0.42148	0	0.47026	0.038
Mof_H 	H 	-7.30678e-33	0.37588	0.57544	0.006
Mof_H 	H 	6.90524e-33	0.46834	0.57958	0.038
Mof_H 	H 	1.59185e-33	0.62412	0.42456	0.006
Mof_H 	H 	6.31246e-33	0.52974	0.42148	0.038
Mof_H 	H 	1.59185e-33	0.37588	0.42456	0.006
Mof_H 	H 	1.5803e-33	0.47026	0.42148	0.038
Mof_H 	H 	2.15755e-33	0.62412	0.57544	0.006
Mof_H 	H 	-2.55909e-33	0.53166	0.57958	0.038
_end
