data_functionalizedCrystal
_audit_creation_method	'EQeq! by Chris Wilmer'
_symmetry_space_group_name_H-M	'P1'
_symmetry_Int_Tables_number	1
_symmetry_cell_setting	triclinic
loop_
_symmetry_equiv_pos_as_xyz
  x,y,z
_cell_length_a	13.085
_cell_length_b	14.106
_cell_length_c	18.175
_cell_angle_alpha	90
_cell_angle_beta	90
_cell_angle_gamma	90
loop_
_atom_site_label
_atom_site_type_symbol
_atom_site_fract_x
_atom_site_fract_y
_atom_site_fract_z
_atom_site_charge
Mof_Mn	Mn	0.24024	0.48619	0.42018	0.959
Mof_Mn	Mn	0.28306	0.51069	0.58329	0.949
Mof_O 	O 	0.725	0.12754	0.41538	-0.428
Mof_O 	O 	0.7115	0.14952	0.53558	-0.414
Mof_O 	O 	0.4273	0.4567	0.54645	-0.421
Mof_O 	O 	0.39489	0.4522	0.42786	-0.475
Mof_C 	C 	0.7088	0.1785	0.4702	0.377
Mof_C 	C 	0.4533	0.4416	0.4809	0.488
Mof_C 	C 	0.7447	0.3154	0.39	-0.288
Mof_H 	H 	0.726	0.2775	0.3483	0.099
Mof_H 	H 	0.8165	0.3084	0.3995	0.104
Mof_H 	H 	0.7297	0.3808	0.38	0.092
Mof_C 	C 	0.6844	0.2832	0.4569	-0.153
Mof_C 	C 	0.7134	0.3441	0.523	-0.16
Mof_H 	H 	0.7083	0.3075	0.568	0.072
Mof_H 	H 	0.783	0.367	0.5181	0.06
Mof_C 	C 	0.6389	0.4265	0.5244	0.113
Mof_H 	H 	0.6744	0.4855	0.5146	-0.021
Mof_H 	H 	0.6065	0.431	0.5722	-0.003
Mof_C 	C 	0.5592	0.4081	0.4653	-0.456
Mof_H 	H 	0.5821	0.4412	0.4209	0.151
Mof_C 	C 	0.5671	0.3006	0.4492	0.595
Mof_C 	C 	0.5245	0.2736	0.373	-1.035
Mof_H 	H 	0.5315	0.2065	0.3657	0.316
Mof_H 	H 	0.5619	0.3068	0.3356	0.308
Mof_H 	H 	0.4536	0.2907	0.3703	0.327
Mof_C 	C 	0.5058	0.2446	0.505	-1.112
Mof_H 	H 	0.5118	0.1781	0.4945	0.356
Mof_H 	H 	0.4353	0.263	0.5024	0.36
Mof_H 	H 	0.5315	0.257	0.5535	0.37
Mof_O 	O 	0.09796	0.5308	0.46069	-0.415
Mof_O 	O 	0.13054	0.5622	0.57745	-0.44
Mof_O 	O 	0.785	0.86842	0.5818	-0.457
Mof_O 	O 	0.8263	0.85958	0.46427	-0.442
Mof_C 	C 	0.0726	0.5598	0.5225	0.391
Mof_C 	C 	0.8154	0.8245	0.5269	0.489
Mof_C 	C 	0.9173	0.5264	0.5935	-0.231
Mof_H 	H 	0.9236	0.4617	0.578	0.073
Mof_H 	H 	0.8464	0.5414	0.6009	0.075
Mof_H 	H 	0.9538	0.5353	0.6388	0.065
Mof_C 	C 	0.962	0.5919	0.53429	-0.191
Mof_C 	C 	0.8981	0.5855	0.4644	-0.165
Mof_H 	H 	0.9404	0.5975	0.4216	0.08
Mof_H 	H 	0.8685	0.5228	0.4598	0.073
Mof_C 	C 	0.8158	0.6584	0.4699	0.148
Mof_H 	H 	0.7498	0.6282	0.4763	-0.039
Mof_H 	H 	0.8137	0.6966	0.4255	-0.021
Mof_C 	C 	0.8407	0.7196	0.5357	-0.499
Mof_H 	H 	0.7994	0.696	0.5768	0.169
Mof_C 	C 	0.9543	0.6998	0.5556	0.723
Mof_C 	C 	0.9764	0.7211	0.6341	-1.254
Mof_H 	H 	0.9698	0.7881	0.6425	0.381
Mof_H 	H 	0.0447	0.7015	0.6457	0.392
Mof_H 	H 	0.9288	0.6877	0.6648	0.375
Mof_C 	C 	0.0265	0.7564	0.5073	-1.252
Mof_H 	H 	0.0223	0.8223	0.5202	0.398
Mof_H 	H 	0.0076	0.7483	0.4566	0.409
Mof_H 	H 	0.0951	0.7344	0.5145	0.401
Mof_O 	O 	0.19626	0.4629	0.31228	-0.496
Mof_O 	O 	0.18481	0.46652	0.1934	-0.502
Mof_C 	C 	0.2346	0.4813	0.2503	0.751
Mof_C 	C 	0.3392	0.5216	0.2458	-1.286
Mof_H 	H 	0.3575	0.5305	0.1951	0.398
Mof_H 	H 	0.3868	0.4788	0.2685	0.386
Mof_H 	H 	0.341	0.5815	0.2709	0.39
Mof_Mn	Mn	0.25976	0.51381	0.92018	0.959
Mof_Mn	Mn	0.21694	0.48931	0.08329	0.948
Mof_O 	O 	0.775	0.87246	0.91538	-0.427
Mof_O 	O 	0.7885	0.85048	0.03558	-0.417
Mof_O 	O 	0.0727	0.5433	0.04645	-0.424
Mof_O 	O 	0.10511	0.5478	0.92786	-0.476
Mof_C 	C 	0.7912	0.8215	0.9702	0.379
Mof_C 	C 	0.0467	0.5584	0.9809	0.49
Mof_C 	C 	0.7553	0.6846	0.89	-0.291
Mof_H 	H 	0.774	0.7225	0.8483	0.1
Mof_H 	H 	0.6835	0.6916	0.8995	0.105
Mof_H 	H 	0.7703	0.6192	0.88	0.093
Mof_C 	C 	0.8156	0.7168	0.9569	-0.151
Mof_C 	C 	0.7866	0.6559	0.023	-0.162
Mof_H 	H 	0.7917	0.6925	0.068	0.073
Mof_H 	H 	0.717	0.633	0.0181	0.06
Mof_C 	C 	0.8611	0.5735	0.0244	0.113
Mof_H 	H 	0.8256	0.5145	0.0146	-0.021
Mof_H 	H 	0.8935	0.569	0.0722	-0.003
Mof_C 	C 	0.9408	0.5919	0.9653	-0.456
Mof_H 	H 	0.9179	0.5588	0.9209	0.151
Mof_C 	C 	0.9329	0.6994	0.9492	0.594
Mof_C 	C 	0.9755	0.7264	0.873	-1.028
Mof_H 	H 	0.9685	0.7935	0.8657	0.315
Mof_H 	H 	0.9381	0.6932	0.8356	0.306
Mof_H 	H 	0.0464	0.7093	0.8703	0.324
Mof_C 	C 	0.9942	0.7554	0.005	-1.11
Mof_H 	H 	0.9882	0.8219	0.9945	0.358
Mof_H 	H 	0.0647	0.737	0.0024	0.356
Mof_H 	H 	0.9685	0.743	0.0535	0.37
Mof_O 	O 	0.40204	0.4692	0.96069	-0.415
Mof_O 	O 	0.36946	0.4378	0.07745	-0.44
Mof_O 	O 	0.715	0.13158	0.0818	-0.458
Mof_O 	O 	0.6737	0.14042	0.96427	-0.445
Mof_C 	C 	0.4274	0.4402	0.0225	0.392
Mof_C 	C 	0.6846	0.1755	0.0269	0.493
Mof_C 	C 	0.5827	0.4736	0.0935	-0.231
Mof_H 	H 	0.5764	0.5383	0.078	0.073
Mof_H 	H 	0.6536	0.4586	0.1009	0.076
Mof_H 	H 	0.5462	0.4647	0.1388	0.064
Mof_C 	C 	0.538	0.4081	0.03429	-0.191
Mof_C 	C 	0.6019	0.4145	0.9644	-0.165
Mof_H 	H 	0.5596	0.4025	0.9216	0.079
Mof_H 	H 	0.6315	0.4772	0.9598	0.073
Mof_C 	C 	0.6842	0.3416	0.9699	0.145
Mof_H 	H 	0.7502	0.3718	0.9763	-0.039
Mof_H 	H 	0.6863	0.3034	0.9255	-0.02
Mof_C 	C 	0.6593	0.2804	0.0357	-0.497
Mof_H 	H 	0.7006	0.304	0.0768	0.169
Mof_C 	C 	0.5457	0.3002	0.0556	0.72
Mof_C 	C 	0.5236	0.2789	0.1341	-1.259
Mof_H 	H 	0.5302	0.2119	0.1425	0.382
Mof_H 	H 	0.4553	0.2985	0.1457	0.395
Mof_H 	H 	0.5712	0.3123	0.1648	0.376
Mof_C 	C 	0.4735	0.2436	0.0073	-1.242
Mof_H 	H 	0.4777	0.1777	0.0202	0.397
Mof_H 	H 	0.4924	0.2517	0.9566	0.406
Mof_H 	H 	0.4049	0.2656	0.0145	0.399
Mof_O 	O 	0.30374	0.5371	0.81228	-0.496
Mof_O 	O 	0.31519	0.53348	0.6934	-0.502
Mof_C 	C 	0.2654	0.5187	0.7503	0.751
Mof_C 	C 	0.1608	0.4784	0.7458	-1.285
Mof_H 	H 	0.1425	0.4695	0.6951	0.398
Mof_H 	H 	0.1132	0.5212	0.7685	0.386
Mof_H 	H 	0.159	0.4185	0.7709	0.39
Mof_Mn	Mn	0.75976	0.98619	0.07982	0.955
Mof_Mn	Mn	0.71694	0.01069	0.91671	0.941
Mof_O 	O 	0.275	0.62754	0.08462	-0.429
Mof_O 	O 	0.2885	0.64952	0.96442	-0.413
Mof_O 	O 	0.5727	0.9567	0.95355	-0.415
Mof_O 	O 	0.60511	0.9522	0.07214	-0.474
Mof_C 	C 	0.2912	0.6785	0.0298	0.373
Mof_C 	C 	0.5467	0.9416	0.0191	0.48
Mof_C 	C 	0.2553	0.8154	0.11	-0.284
Mof_H 	H 	0.274	0.7775	0.1517	0.097
Mof_H 	H 	0.1835	0.8084	0.1005	0.101
Mof_H 	H 	0.2703	0.8808	0.12	0.089
Mof_C 	C 	0.3156	0.7832	0.0431	-0.155
Mof_C 	C 	0.2866	0.8441	0.977	-0.156
Mof_H 	H 	0.2917	0.8075	0.932	0.071
Mof_H 	H 	0.217	0.867	0.9819	0.059
Mof_C 	C 	0.3611	0.9265	0.9756	0.114
Mof_H 	H 	0.3256	0.9855	0.9854	-0.02
Mof_H 	H 	0.3935	0.931	0.9278	-0.002
Mof_C 	C 	0.4408	0.9081	0.0347	-0.455
Mof_H 	H 	0.4179	0.9412	0.0791	0.15
Mof_C 	C 	0.4329	0.8006	0.0508	0.586
Mof_C 	C 	0.4755	0.7736	0.127	-1.026
Mof_H 	H 	0.4685	0.7065	0.1343	0.313
Mof_H 	H 	0.4381	0.8068	0.1644	0.305
Mof_H 	H 	0.5464	0.7907	0.1297	0.324
Mof_C 	C 	0.4942	0.7446	0.995	-1.089
Mof_H 	H 	0.4882	0.6781	0.0055	0.347
Mof_H 	H 	0.5647	0.763	0.9976	0.355
Mof_H 	H 	0.4685	0.757	0.9465	0.364
Mof_O 	O 	0.90204	0.0308	0.03931	-0.409
Mof_O 	O 	0.86946	0.0622	0.92255	-0.438
Mof_O 	O 	0.215	0.36842	0.9182	-0.459
Mof_O 	O 	0.1737	0.35958	0.03573	-0.443
Mof_C 	C 	0.9274	0.0598	0.9775	0.382
Mof_C 	C 	0.1846	0.3245	0.9731	0.49
Mof_C 	C 	0.0827	0.0264	0.9065	-0.23
Mof_H 	H 	0.0764	0.9617	0.922	0.073
Mof_H 	H 	0.1536	0.0414	0.8991	0.075
Mof_H 	H 	0.0462	0.0353	0.8612	0.065
Mof_C 	C 	0.038	0.0919	0.96571	-0.191
Mof_C 	C 	0.1019	0.0855	0.0356	-0.166
Mof_H 	H 	0.0596	0.0975	0.0784	0.081
Mof_H 	H 	0.1315	0.0228	0.0402	0.076
Mof_C 	C 	0.1842	0.1584	0.0301	0.153
Mof_H 	H 	0.2502	0.1282	0.0237	-0.039
Mof_H 	H 	0.1863	0.1966	0.0745	-0.022
Mof_C 	C 	0.1593	0.2196	0.9643	-0.505
Mof_H 	H 	0.2006	0.196	0.9232	0.17
Mof_C 	C 	0.0457	0.1998	0.9444	0.729
Mof_C 	C 	0.0236	0.2211	0.8659	-1.259
Mof_H 	H 	0.0302	0.2881	0.8575	0.382
Mof_H 	H 	0.9553	0.2015	0.8543	0.393
Mof_H 	H 	0.0712	0.1877	0.8352	0.377
Mof_C 	C 	0.9735	0.2564	0.9927	-1.274
Mof_H 	H 	0.9777	0.3223	0.9798	0.405
Mof_H 	H 	0.9924	0.2483	0.0434	0.418
Mof_H 	H 	0.9049	0.2344	0.9855	0.407
Mof_O 	O 	0.80374	0.9629	0.18772	-0.494
Mof_O 	O 	0.81519	0.96652	0.3066	-0.5
Mof_C 	C 	0.7654	0.9813	0.2497	0.744
Mof_C 	C 	0.6608	0.0216	0.2542	-1.267
Mof_H 	H 	0.6425	0.0305	0.3049	0.393
Mof_H 	H 	0.6132	0.9788	0.2315	0.38
Mof_H 	H 	0.659	0.0815	0.2291	0.386
Mof_Mn	Mn	0.74024	0.01381	0.57982	0.956
Mof_Mn	Mn	0.78306	0.98931	0.41671	0.95
Mof_O 	O 	0.225	0.37246	0.58462	-0.429
Mof_O 	O 	0.2115	0.35048	0.46442	-0.415
Mof_O 	O 	0.9273	0.0433	0.45355	-0.422
Mof_O 	O 	0.89489	0.0478	0.57214	-0.475
Mof_C 	C 	0.2088	0.3215	0.5298	0.375
Mof_C 	C 	0.9533	0.0584	0.5191	0.483
Mof_C 	C 	0.2447	0.1846	0.61	-0.292
Mof_H 	H 	0.226	0.2225	0.6517	0.1
Mof_H 	H 	0.3165	0.1916	0.6005	0.105
Mof_H 	H 	0.2297	0.1192	0.62	0.094
Mof_C 	C 	0.1844	0.2168	0.5431	-0.15
Mof_C 	C 	0.2134	0.1559	0.477	-0.159
Mof_H 	H 	0.2083	0.1925	0.432	0.072
Mof_H 	H 	0.283	0.133	0.4819	0.059
Mof_C 	C 	0.1389	0.0735	0.4756	0.108
Mof_H 	H 	0.1744	0.0145	0.4854	-0.018
Mof_H 	H 	0.1065	0.069	0.4278	-0
Mof_C 	C 	0.0592	0.0919	0.5347	-0.448
Mof_H 	H 	0.0821	0.0588	0.5791	0.15
Mof_C 	C 	0.0671	0.1994	0.5508	0.587
Mof_C 	C 	0.0245	0.2264	0.627	-1.019
Mof_H 	H 	0.0315	0.2935	0.6343	0.312
Mof_H 	H 	0.0619	0.1932	0.6644	0.304
Mof_H 	H 	0.9536	0.2093	0.6297	0.321
Mof_C 	C 	0.0058	0.2554	0.495	-1.098
Mof_H 	H 	0.0118	0.3219	0.5055	0.352
Mof_H 	H 	0.9353	0.237	0.4976	0.355
Mof_H 	H 	0.0315	0.243	0.4465	0.366
Mof_O 	O 	0.59796	0.9692	0.53931	-0.414
Mof_O 	O 	0.63054	0.9378	0.42255	-0.44
Mof_O 	O 	0.285	0.63158	0.4182	-0.459
Mof_O 	O 	0.3263	0.64042	0.53573	-0.443
Mof_C 	C 	0.5726	0.9402	0.4775	0.391
Mof_C 	C 	0.3154	0.6755	0.4731	0.489
Mof_C 	C 	0.4173	0.9736	0.4065	-0.239
Mof_H 	H 	0.4236	0.0383	0.422	0.077
Mof_H 	H 	0.3464	0.9586	0.3991	0.077
Mof_H 	H 	0.4538	0.9647	0.3612	0.066
Mof_C 	C 	0.462	0.9081	0.46571	-0.19
Mof_C 	C 	0.3981	0.9145	0.5356	-0.166
Mof_H 	H 	0.4404	0.9025	0.5784	0.08
Mof_H 	H 	0.3685	0.9772	0.5402	0.073
Mof_C 	C 	0.3158	0.8416	0.5301	0.149
Mof_H 	H 	0.2498	0.8718	0.5237	-0.04
Mof_H 	H 	0.3137	0.8034	0.5745	-0.021
Mof_C 	C 	0.3407	0.7804	0.4643	-0.5
Mof_H 	H 	0.2994	0.804	0.4232	0.169
Mof_C 	C 	0.4543	0.8002	0.4444	0.722
Mof_C 	C 	0.4764	0.7789	0.3659	-1.26
Mof_H 	H 	0.4698	0.7119	0.3575	0.382
Mof_H 	H 	0.5447	0.7985	0.3543	0.395
Mof_H 	H 	0.4288	0.8123	0.3352	0.376
Mof_C 	C 	0.5265	0.7436	0.4927	-1.25
Mof_H 	H 	0.5223	0.6777	0.4798	0.399
Mof_H 	H 	0.5076	0.7517	0.5434	0.41
Mof_H 	H 	0.5951	0.7656	0.4855	0.401
Mof_O 	O 	0.69626	0.0371	0.68772	-0.492
Mof_O 	O 	0.68481	0.03348	0.8066	-0.498
Mof_C 	C 	0.7346	0.0187	0.7497	0.735
Mof_C 	C 	0.8392	0.9784	0.7542	-1.245
Mof_H 	H 	0.8575	0.9695	0.8049	0.388
Mof_H 	H 	0.8868	0.0212	0.7315	0.371
Mof_H 	H 	0.841	0.9185	0.7291	0.38
_end
