# CIF file generated by openbabel 3.1.0, see https://openbabel.org
data_I
_chemical_name_common 'image0'
_cell_length_a 21.9717
_cell_length_b 16.6692
_cell_length_c 25.6289
_cell_angle_alpha 90
_cell_angle_beta 115.344
_cell_angle_gamma 90
_space_group_name_H-M_alt 'P 1'
_space_group_name_Hall 'P 1'
loop_
    _symmetry_equiv_pos_as_xyz
    x,y,z
loop_
    _atom_site_label
    _atom_site_type_symbol
    _atom_site_fract_x
    _atom_site_fract_y
    _atom_site_fract_z
    _atom_site_occupancy
    Ag1      Ag       0.27371    0.20896    0.86808    1.000
    Ag2      Ag       0.29539    0.00244    0.36756    1.000
    C1       C        0.92210    0.39970    0.39200    1.000
    H1       H        0.90170    0.40340    0.35190    1.000
    C2       C        0.15350    0.22000    0.50080    1.000
    C3       C        0.12760    0.06140    0.91090    1.000
    H2       H        0.08490    0.04010    0.88960    1.000
    C4       C        0.12800    0.00720    0.00190    1.000
    C5       C        0.98170    0.38700    0.50900    1.000
    H3       H        0.00090    0.38360    0.54910    1.000
    C6       C        0.90300    0.81540    0.88890    1.000
    H4       H        0.88530    0.80830    0.84910    1.000
    C7       C        0.07480    0.30150    0.50630    1.000
    C8       C        0.24340    0.13340    0.49650    1.000
    H5       H        0.26370    0.13230    0.53670    1.000
    C9       C        0.27110    0.09320    0.46480    1.000
    H6       H        0.31130    0.06580    0.48480    1.000
    C10      C        0.22280    0.08500    0.99900    1.000
    H7       H        0.24600    0.07990    0.03880    1.000
    C11      C        0.15960    0.05170    0.96950    1.000
    C12      C        0.12740    0.97590    0.08750    1.000
    C13      C        0.15830    0.98560    0.15120    1.000
    C14      C        0.96060    0.86130    0.91530    1.000
    H8       H        0.98040    0.88440    0.89340    1.000
    C15      C        0.18390    0.17570    0.46630    1.000
    C16      C        0.19000    0.24240    0.65140    1.000
    C17      C        0.25070    0.12590    0.96780    1.000
    H9       H        0.29280    0.14900    0.98810    1.000
    C18      C        0.98210    0.35800    0.41830    1.000
    H10      H        0.00170    0.33550    0.39600    1.000
    C19      C        0.95720    0.83380    0.00510    1.000
    H11      H        0.97500    0.83710    0.04520    1.000
    C20      C        0.25200    0.20730    0.68050    1.000
    H12      H        0.27590    0.18960    0.66020    1.000
    C21      C        0.04950    0.92280    0.00510    1.000
    C22      C        0.27910    0.19820    0.73990    1.000
    H13      H        0.32110    0.17430    0.75890    1.000
    C23      C        0.16060    0.10390    0.88430    1.000
    H14      H        0.13820    0.11140    0.84460    1.000
    C24      C        0.01260    0.34990    0.47700    1.000
    C25      C        0.15580    0.26820    0.68320    1.000
    H15      H        0.11360    0.29210    0.66540    1.000
    C26      C        0.15830    0.25160    0.58740    1.000
    C27      C        0.89900    0.79070    0.97430    1.000
    H16      H        0.87770    0.76690    0.99490    1.000
    C28      C        0.18710    0.25660    0.74240    1.000
    H17      H        0.16430    0.27410    0.76370    1.000
    C29      C        0.15520    0.17520    0.40700    1.000
    H18      H        0.11600    0.20400    0.38600    1.000
    C30      C        0.92220    0.42860    0.47930    1.000
    H19      H        0.90220    0.45340    0.50050    1.000
    C31      C        0.24120    0.04390    0.23680    1.000
    H20      H        0.27670    0.07960    0.25420    1.000
    C32      C        0.21180    0.03770    0.17740    1.000
    H21      H        0.22770    0.06800    0.15540    1.000
    C33      C        0.13330    0.94490    0.18460    1.000
    H22      H        0.09510    0.91280    0.16800    1.000
    C34      C        0.98880    0.87270    0.97470    1.000
    C35      C        0.16740    0.95380    0.24420    1.000
    H23      H        0.15160    0.92490    0.26700    1.000
    C36      C        0.18590    0.13120    0.37950    1.000
    H24      H        0.16520    0.12920    0.33940    1.000
    N1       N        0.22200    0.13460    0.91160    1.000
    N2       N        0.87140    0.78080    0.91750    1.000
    N3       N        0.22060    0.00020    0.27090    1.000
    N4       N        0.07400    0.96070    0.97210    1.000
    N5       N        0.07470    0.92740    0.06260    1.000
    N6       N        0.15580    0.01750    0.05870    1.000
    N7       N        0.24380    0.09100    0.40720    1.000
    N8       N        0.89200    0.43520    0.42200    1.000
    N9       N        0.24640    0.22300    0.77110    1.000
    N10      N        0.09710    0.26080    0.47270    1.000
    N11      N        0.10360    0.29930    0.56400    1.000
    N12      N        0.18610    0.21260    0.55840    1.000
    Ag3      Ag       0.77371    0.70896    0.86808    1.000
    Ag4      Ag       0.79539    0.50244    0.36756    1.000
    C37      C        0.42210    0.89970    0.39200    1.000
    H25      H        0.40170    0.90340    0.35190    1.000
    C38      C        0.65350    0.72000    0.50080    1.000
    C39      C        0.62760    0.56140    0.91090    1.000
    H26      H        0.58490    0.54010    0.88960    1.000
    C40      C        0.62800    0.50720    0.00190    1.000
    C41      C        0.48170    0.88700    0.50900    1.000
    H27      H        0.50090    0.88360    0.54910    1.000
    C42      C        0.40300    0.31540    0.88890    1.000
    H28      H        0.38530    0.30830    0.84910    1.000
    C43      C        0.57480    0.80150    0.50630    1.000
    C44      C        0.74340    0.63340    0.49650    1.000
    H29      H        0.76370    0.63230    0.53670    1.000
    C45      C        0.77110    0.59320    0.46480    1.000
    H30      H        0.81130    0.56580    0.48480    1.000
    C46      C        0.72280    0.58500    0.99900    1.000
    H31      H        0.74600    0.57990    0.03880    1.000
    C47      C        0.65960    0.55170    0.96950    1.000
    C48      C        0.62740    0.47590    0.08750    1.000
    C49      C        0.65830    0.48560    0.15120    1.000
    C50      C        0.46060    0.36130    0.91530    1.000
    H32      H        0.48040    0.38440    0.89340    1.000
    C51      C        0.68390    0.67570    0.46630    1.000
    C52      C        0.69000    0.74240    0.65140    1.000
    C53      C        0.75070    0.62590    0.96780    1.000
    H33      H        0.79280    0.64900    0.98810    1.000
    C54      C        0.48210    0.85800    0.41830    1.000
    H34      H        0.50170    0.83550    0.39600    1.000
    C55      C        0.45720    0.33380    0.00510    1.000
    H35      H        0.47500    0.33710    0.04520    1.000
    C56      C        0.75200    0.70730    0.68050    1.000
    H36      H        0.77590    0.68960    0.66020    1.000
    C57      C        0.54950    0.42280    0.00510    1.000
    C58      C        0.77910    0.69820    0.73990    1.000
    H37      H        0.82110    0.67430    0.75890    1.000
    C59      C        0.66060    0.60390    0.88430    1.000
    H38      H        0.63820    0.61140    0.84460    1.000
    C60      C        0.51260    0.84990    0.47700    1.000
    C61      C        0.65580    0.76820    0.68320    1.000
    H39      H        0.61360    0.79210    0.66540    1.000
    C62      C        0.65830    0.75160    0.58740    1.000
    C63      C        0.39900    0.29070    0.97430    1.000
    H40      H        0.37770    0.26690    0.99490    1.000
    C64      C        0.68710    0.75660    0.74240    1.000
    H41      H        0.66430    0.77410    0.76370    1.000
    C65      C        0.65520    0.67520    0.40700    1.000
    H42      H        0.61600    0.70400    0.38600    1.000
    C66      C        0.42220    0.92860    0.47930    1.000
    H43      H        0.40220    0.95340    0.50050    1.000
    C67      C        0.74120    0.54390    0.23680    1.000
    H44      H        0.77670    0.57960    0.25420    1.000
    C68      C        0.71180    0.53770    0.17740    1.000
    H45      H        0.72770    0.56800    0.15540    1.000
    C69      C        0.63330    0.44490    0.18460    1.000
    H46      H        0.59510    0.41280    0.16800    1.000
    C70      C        0.48880    0.37270    0.97470    1.000
    C71      C        0.66740    0.45380    0.24420    1.000
    H47      H        0.65160    0.42490    0.26700    1.000
    C72      C        0.68590    0.63120    0.37950    1.000
    H48      H        0.66520    0.62920    0.33940    1.000
    N13      N        0.72200    0.63460    0.91160    1.000
    N14      N        0.37140    0.28080    0.91750    1.000
    N15      N        0.72060    0.50020    0.27090    1.000
    N16      N        0.57400    0.46070    0.97210    1.000
    N17      N        0.57470    0.42740    0.06260    1.000
    N18      N        0.65580    0.51750    0.05870    1.000
    N19      N        0.74380    0.59100    0.40720    1.000
    N20      N        0.39200    0.93520    0.42200    1.000
    N21      N        0.74640    0.72300    0.77110    1.000
    N22      N        0.59710    0.76080    0.47270    1.000
    N23      N        0.60360    0.79930    0.56400    1.000
    N24      N        0.68610    0.71260    0.55840    1.000
    Ag5      Ag       0.72629    0.20896    0.63192    1.000
    Ag6      Ag       0.70461    0.00244    0.13244    1.000
    C73      C        0.07790    0.39970    0.10800    1.000
    H49      H        0.09830    0.40340    0.14810    1.000
    C74      C        0.84650    0.22000    0.99920    1.000
    C75      C        0.87240    0.06140    0.58910    1.000
    H50      H        0.91510    0.04010    0.61040    1.000
    C76      C        0.87200    0.00720    0.49810    1.000
    C77      C        0.01830    0.38700    0.99100    1.000
    H51      H        0.99910    0.38360    0.95090    1.000
    C78      C        0.09700    0.81540    0.61110    1.000
    H52      H        0.11470    0.80830    0.65090    1.000
    C79      C        0.92520    0.30150    0.99370    1.000
    C80      C        0.75660    0.13340    0.00350    1.000
    H53      H        0.73630    0.13230    0.96330    1.000
    C81      C        0.72890    0.09320    0.03520    1.000
    H54      H        0.68870    0.06580    0.01520    1.000
    C82      C        0.77720    0.08500    0.50100    1.000
    H55      H        0.75400    0.07990    0.46120    1.000
    C83      C        0.84040    0.05170    0.53050    1.000
    C84      C        0.87260    0.97590    0.41250    1.000
    C85      C        0.84170    0.98560    0.34880    1.000
    C86      C        0.03940    0.86130    0.58470    1.000
    H56      H        0.01960    0.88440    0.60660    1.000
    C87      C        0.81610    0.17570    0.03370    1.000
    C88      C        0.81000    0.24240    0.84860    1.000
    C89      C        0.74930    0.12590    0.53220    1.000
    H57      H        0.70720    0.14900    0.51190    1.000
    C90      C        0.01790    0.35800    0.08170    1.000
    H58      H        0.99830    0.33550    0.10400    1.000
    C91      C        0.04280    0.83380    0.49490    1.000
    H59      H        0.02500    0.83710    0.45480    1.000
    C92      C        0.74800    0.20730    0.81950    1.000
    H60      H        0.72410    0.18960    0.83980    1.000
    C93      C        0.95050    0.92280    0.49490    1.000
    C94      C        0.72090    0.19820    0.76010    1.000
    H61      H        0.67890    0.17430    0.74110    1.000
    C95      C        0.83940    0.10390    0.61570    1.000
    H62      H        0.86180    0.11140    0.65540    1.000
    C96      C        0.98740    0.34990    0.02300    1.000
    C97      C        0.84420    0.26820    0.81680    1.000
    H63      H        0.88640    0.29210    0.83460    1.000
    C98      C        0.84170    0.25160    0.91260    1.000
    C99      C        0.10100    0.79070    0.52570    1.000
    H64      H        0.12230    0.76690    0.50510    1.000
    C100     C        0.81290    0.25660    0.75760    1.000
    H65      H        0.83570    0.27410    0.73630    1.000
    C101     C        0.84480    0.17520    0.09300    1.000
    H66      H        0.88400    0.20400    0.11400    1.000
    C102     C        0.07780    0.42860    0.02070    1.000
    H67      H        0.09780    0.45340    0.99950    1.000
    C103     C        0.75880    0.04390    0.26320    1.000
    H68      H        0.72330    0.07960    0.24580    1.000
    C104     C        0.78820    0.03770    0.32260    1.000
    H69      H        0.77230    0.06800    0.34460    1.000
    C105     C        0.86670    0.94490    0.31540    1.000
    H70      H        0.90490    0.91280    0.33200    1.000
    C106     C        0.01120    0.87270    0.52530    1.000
    C107     C        0.83260    0.95380    0.25580    1.000
    H71      H        0.84840    0.92490    0.23300    1.000
    C108     C        0.81410    0.13120    0.12050    1.000
    H72      H        0.83480    0.12920    0.16060    1.000
    N25      N        0.77800    0.13460    0.58840    1.000
    N26      N        0.12860    0.78080    0.58250    1.000
    N27      N        0.77940    0.00020    0.22910    1.000
    N28      N        0.92600    0.96070    0.52790    1.000
    N29      N        0.92530    0.92740    0.43740    1.000
    N30      N        0.84420    0.01750    0.44130    1.000
    N31      N        0.75620    0.09100    0.09280    1.000
    N32      N        0.10800    0.43520    0.07800    1.000
    N33      N        0.75360    0.22300    0.72890    1.000
    N34      N        0.90290    0.26080    0.02730    1.000
    N35      N        0.89640    0.29930    0.93600    1.000
    N36      N        0.81390    0.21260    0.94160    1.000
    Ag7      Ag       0.22629    0.70896    0.63192    1.000
    Ag8      Ag       0.20461    0.50244    0.13244    1.000
    C109     C        0.57790    0.89970    0.10800    1.000
    H73      H        0.59830    0.90340    0.14810    1.000
    C110     C        0.34650    0.72000    0.99920    1.000
    C111     C        0.37240    0.56140    0.58910    1.000
    H74      H        0.41510    0.54010    0.61040    1.000
    C112     C        0.37200    0.50720    0.49810    1.000
    C113     C        0.51830    0.88700    0.99100    1.000
    H75      H        0.49910    0.88360    0.95090    1.000
    C114     C        0.59700    0.31540    0.61110    1.000
    H76      H        0.61470    0.30830    0.65090    1.000
    C115     C        0.42520    0.80150    0.99370    1.000
    C116     C        0.25660    0.63340    0.00350    1.000
    H77      H        0.23630    0.63230    0.96330    1.000
    C117     C        0.22890    0.59320    0.03520    1.000
    H78      H        0.18870    0.56580    0.01520    1.000
    C118     C        0.27720    0.58500    0.50100    1.000
    H79      H        0.25400    0.57990    0.46120    1.000
    C119     C        0.34040    0.55170    0.53050    1.000
    C120     C        0.37260    0.47590    0.41250    1.000
    C121     C        0.34170    0.48560    0.34880    1.000
    C122     C        0.53940    0.36130    0.58470    1.000
    H80      H        0.51960    0.38440    0.60660    1.000
    C123     C        0.31610    0.67570    0.03370    1.000
    C124     C        0.31000    0.74240    0.84860    1.000
    C125     C        0.24930    0.62590    0.53220    1.000
    H81      H        0.20720    0.64900    0.51190    1.000
    C126     C        0.51790    0.85800    0.08170    1.000
    H82      H        0.49830    0.83550    0.10400    1.000
    C127     C        0.54280    0.33380    0.49490    1.000
    H83      H        0.52500    0.33710    0.45480    1.000
    C128     C        0.24800    0.70730    0.81950    1.000
    H84      H        0.22410    0.68960    0.83980    1.000
    C129     C        0.45050    0.42280    0.49490    1.000
    C130     C        0.22090    0.69820    0.76010    1.000
    H85      H        0.17890    0.67430    0.74110    1.000
    C131     C        0.33940    0.60390    0.61570    1.000
    H86      H        0.36180    0.61140    0.65540    1.000
    C132     C        0.48740    0.84990    0.02300    1.000
    C133     C        0.34420    0.76820    0.81680    1.000
    H87      H        0.38640    0.79210    0.83460    1.000
    C134     C        0.34170    0.75160    0.91260    1.000
    C135     C        0.60100    0.29070    0.52570    1.000
    H88      H        0.62230    0.26690    0.50510    1.000
    C136     C        0.31290    0.75660    0.75760    1.000
    H89      H        0.33570    0.77410    0.73630    1.000
    C137     C        0.34480    0.67520    0.09300    1.000
    H90      H        0.38400    0.70400    0.11400    1.000
    C138     C        0.57780    0.92860    0.02070    1.000
    H91      H        0.59780    0.95340    0.99950    1.000
    C139     C        0.25880    0.54390    0.26320    1.000
    H92      H        0.22330    0.57960    0.24580    1.000
    C140     C        0.28820    0.53770    0.32260    1.000
    H93      H        0.27230    0.56800    0.34460    1.000
    C141     C        0.36670    0.44490    0.31540    1.000
    H94      H        0.40490    0.41280    0.33200    1.000
    C142     C        0.51120    0.37270    0.52530    1.000
    C143     C        0.33260    0.45380    0.25580    1.000
    H95      H        0.34840    0.42490    0.23300    1.000
    C144     C        0.31410    0.63120    0.12050    1.000
    H96      H        0.33480    0.62920    0.16060    1.000
    N37      N        0.27800    0.63460    0.58840    1.000
    N38      N        0.62860    0.28080    0.58250    1.000
    N39      N        0.27940    0.50020    0.22910    1.000
    N40      N        0.42600    0.46070    0.52790    1.000
    N41      N        0.42530    0.42740    0.43740    1.000
    N42      N        0.34420    0.51750    0.44130    1.000
    N43      N        0.25620    0.59100    0.09280    1.000
    N44      N        0.60800    0.93520    0.07800    1.000
    N45      N        0.25360    0.72300    0.72890    1.000
    N46      N        0.40290    0.76080    0.02730    1.000
    N47      N        0.39640    0.79930    0.93600    1.000
    N48      N        0.31390    0.71260    0.94160    1.000
    Ag9      Ag       0.72629    0.79104    0.13192    1.000
    Ag10     Ag       0.70461    0.99756    0.63244    1.000
    C145     C        0.07790    0.60030    0.60800    1.000
    H97      H        0.09830    0.59660    0.64810    1.000
    C146     C        0.84650    0.78000    0.49920    1.000
    C147     C        0.87240    0.93860    0.08910    1.000
    H98      H        0.91510    0.95990    0.11040    1.000
    C148     C        0.87200    0.99280    0.99810    1.000
    C149     C        0.01830    0.61300    0.49100    1.000
    H99      H        0.99910    0.61640    0.45090    1.000
    C150     C        0.09700    0.18460    0.11110    1.000
    H100     H        0.11470    0.19170    0.15090    1.000
    C151     C        0.92520    0.69850    0.49370    1.000
    C152     C        0.75660    0.86660    0.50350    1.000
    H101     H        0.73630    0.86770    0.46330    1.000
    C153     C        0.72890    0.90680    0.53520    1.000
    H102     H        0.68870    0.93420    0.51520    1.000
    C154     C        0.77720    0.91500    0.00100    1.000
    H103     H        0.75400    0.92010    0.96120    1.000
    C155     C        0.84040    0.94830    0.03050    1.000
    C156     C        0.87260    0.02410    0.91250    1.000
    C157     C        0.84170    0.01440    0.84880    1.000
    C158     C        0.03940    0.13870    0.08470    1.000
    H104     H        0.01960    0.11560    0.10660    1.000
    C159     C        0.81610    0.82430    0.53370    1.000
    C160     C        0.81000    0.75760    0.34860    1.000
    C161     C        0.74930    0.87410    0.03220    1.000
    H105     H        0.70720    0.85100    0.01190    1.000
    C162     C        0.01790    0.64200    0.58170    1.000
    H106     H        0.99830    0.66450    0.60400    1.000
    C163     C        0.04280    0.16620    0.99490    1.000
    H107     H        0.02500    0.16290    0.95480    1.000
    C164     C        0.74800    0.79270    0.31950    1.000
    H108     H        0.72410    0.81040    0.33980    1.000
    C165     C        0.95050    0.07720    0.99490    1.000
    C166     C        0.72090    0.80180    0.26010    1.000
    H109     H        0.67890    0.82570    0.24110    1.000
    C167     C        0.83940    0.89610    0.11570    1.000
    H110     H        0.86180    0.88860    0.15540    1.000
    C168     C        0.98740    0.65010    0.52300    1.000
    C169     C        0.84420    0.73180    0.31680    1.000
    H111     H        0.88640    0.70790    0.33460    1.000
    C170     C        0.84170    0.74840    0.41260    1.000
    C171     C        0.10100    0.20930    0.02570    1.000
    H112     H        0.12230    0.23310    0.00510    1.000
    C172     C        0.81290    0.74340    0.25760    1.000
    H113     H        0.83570    0.72590    0.23630    1.000
    C173     C        0.84480    0.82480    0.59300    1.000
    H114     H        0.88400    0.79600    0.61400    1.000
    C174     C        0.07780    0.57140    0.52070    1.000
    H115     H        0.09780    0.54660    0.49950    1.000
    C175     C        0.75880    0.95610    0.76320    1.000
    H116     H        0.72330    0.92040    0.74580    1.000
    C176     C        0.78820    0.96230    0.82260    1.000
    H117     H        0.77230    0.93200    0.84460    1.000
    C177     C        0.86670    0.05510    0.81540    1.000
    H118     H        0.90490    0.08720    0.83200    1.000
    C178     C        0.01120    0.12730    0.02530    1.000
    C179     C        0.83260    0.04620    0.75580    1.000
    H119     H        0.84840    0.07510    0.73300    1.000
    C180     C        0.81410    0.86880    0.62050    1.000
    H120     H        0.83480    0.87080    0.66060    1.000
    N49      N        0.77800    0.86540    0.08840    1.000
    N50      N        0.12860    0.21920    0.08250    1.000
    N51      N        0.77940    0.99980    0.72910    1.000
    N52      N        0.92600    0.03930    0.02790    1.000
    N53      N        0.92530    0.07260    0.93740    1.000
    N54      N        0.84420    0.98250    0.94130    1.000
    N55      N        0.75620    0.90900    0.59280    1.000
    N56      N        0.10800    0.56480    0.57800    1.000
    N57      N        0.75360    0.77700    0.22890    1.000
    N58      N        0.90290    0.73920    0.52730    1.000
    N59      N        0.89640    0.70070    0.43600    1.000
    N60      N        0.81390    0.78740    0.44160    1.000
    Ag11     Ag       0.22629    0.29104    0.13192    1.000
    Ag12     Ag       0.20461    0.49756    0.63244    1.000
    C181     C        0.57790    0.10030    0.60800    1.000
    H121     H        0.59830    0.09660    0.64810    1.000
    C182     C        0.34650    0.28000    0.49920    1.000
    C183     C        0.37240    0.43860    0.08910    1.000
    H122     H        0.41510    0.45990    0.11040    1.000
    C184     C        0.37200    0.49280    0.99810    1.000
    C185     C        0.51830    0.11300    0.49100    1.000
    H123     H        0.49910    0.11640    0.45090    1.000
    C186     C        0.59700    0.68460    0.11110    1.000
    H124     H        0.61470    0.69170    0.15090    1.000
    C187     C        0.42520    0.19850    0.49370    1.000
    C188     C        0.25660    0.36660    0.50350    1.000
    H125     H        0.23630    0.36770    0.46330    1.000
    C189     C        0.22890    0.40680    0.53520    1.000
    H126     H        0.18870    0.43420    0.51520    1.000
    C190     C        0.27720    0.41500    0.00100    1.000
    H127     H        0.25400    0.42010    0.96120    1.000
    C191     C        0.34040    0.44830    0.03050    1.000
    C192     C        0.37260    0.52410    0.91250    1.000
    C193     C        0.34170    0.51440    0.84880    1.000
    C194     C        0.53940    0.63870    0.08470    1.000
    H128     H        0.51960    0.61560    0.10660    1.000
    C195     C        0.31610    0.32430    0.53370    1.000
    C196     C        0.31000    0.25760    0.34860    1.000
    C197     C        0.24930    0.37410    0.03220    1.000
    H129     H        0.20720    0.35100    0.01190    1.000
    C198     C        0.51790    0.14200    0.58170    1.000
    H130     H        0.49830    0.16450    0.60400    1.000
    C199     C        0.54280    0.66620    0.99490    1.000
    H131     H        0.52500    0.66290    0.95480    1.000
    C200     C        0.24800    0.29270    0.31950    1.000
    H132     H        0.22410    0.31040    0.33980    1.000
    C201     C        0.45050    0.57720    0.99490    1.000
    C202     C        0.22090    0.30180    0.26010    1.000
    H133     H        0.17890    0.32570    0.24110    1.000
    C203     C        0.33940    0.39610    0.11570    1.000
    H134     H        0.36180    0.38860    0.15540    1.000
    C204     C        0.48740    0.15010    0.52300    1.000
    C205     C        0.34420    0.23180    0.31680    1.000
    H135     H        0.38640    0.20790    0.33460    1.000
    C206     C        0.34170    0.24840    0.41260    1.000
    C207     C        0.60100    0.70930    0.02570    1.000
    H136     H        0.62230    0.73310    0.00510    1.000
    C208     C        0.31290    0.24340    0.25760    1.000
    H137     H        0.33570    0.22590    0.23630    1.000
    C209     C        0.34480    0.32480    0.59300    1.000
    H138     H        0.38400    0.29600    0.61400    1.000
    C210     C        0.57780    0.07140    0.52070    1.000
    H139     H        0.59780    0.04660    0.49950    1.000
    C211     C        0.25880    0.45610    0.76320    1.000
    H140     H        0.22330    0.42040    0.74580    1.000
    C212     C        0.28820    0.46230    0.82260    1.000
    H141     H        0.27230    0.43200    0.84460    1.000
    C213     C        0.36670    0.55510    0.81540    1.000
    H142     H        0.40490    0.58720    0.83200    1.000
    C214     C        0.51120    0.62730    0.02530    1.000
    C215     C        0.33260    0.54620    0.75580    1.000
    H143     H        0.34840    0.57510    0.73300    1.000
    C216     C        0.31410    0.36880    0.62050    1.000
    H144     H        0.33480    0.37080    0.66060    1.000
    N61      N        0.27800    0.36540    0.08840    1.000
    N62      N        0.62860    0.71920    0.08250    1.000
    N63      N        0.27940    0.49980    0.72910    1.000
    N64      N        0.42600    0.53930    0.02790    1.000
    N65      N        0.42530    0.57260    0.93740    1.000
    N66      N        0.34420    0.48250    0.94130    1.000
    N67      N        0.25620    0.40900    0.59280    1.000
    N68      N        0.60800    0.06480    0.57800    1.000
    N69      N        0.25360    0.27700    0.22890    1.000
    N70      N        0.40290    0.23920    0.52730    1.000
    N71      N        0.39640    0.20070    0.43600    1.000
    N72      N        0.31390    0.28740    0.44160    1.000
    Ag13     Ag       0.27371    0.79104    0.36808    1.000
    Ag14     Ag       0.29539    0.99756    0.86756    1.000
    C217     C        0.92210    0.60030    0.89200    1.000
    H145     H        0.90170    0.59660    0.85190    1.000
    C218     C        0.15350    0.78000    0.00080    1.000
    C219     C        0.12760    0.93860    0.41090    1.000
    H146     H        0.08490    0.95990    0.38960    1.000
    C220     C        0.12800    0.99280    0.50190    1.000
    C221     C        0.98170    0.61300    0.00900    1.000
    H147     H        0.00090    0.61640    0.04910    1.000
    C222     C        0.90300    0.18460    0.38890    1.000
    H148     H        0.88530    0.19170    0.34910    1.000
    C223     C        0.07480    0.69850    0.00630    1.000
    C224     C        0.24340    0.86660    0.99650    1.000
    H149     H        0.26370    0.86770    0.03670    1.000
    C225     C        0.27110    0.90680    0.96480    1.000
    H150     H        0.31130    0.93420    0.98480    1.000
    C226     C        0.22280    0.91500    0.49900    1.000
    H151     H        0.24600    0.92010    0.53880    1.000
    C227     C        0.15960    0.94830    0.46950    1.000
    C228     C        0.12740    0.02410    0.58750    1.000
    C229     C        0.15830    0.01440    0.65120    1.000
    C230     C        0.96060    0.13870    0.41530    1.000
    H152     H        0.98040    0.11560    0.39340    1.000
    C231     C        0.18390    0.82430    0.96630    1.000
    C232     C        0.19000    0.75760    0.15140    1.000
    C233     C        0.25070    0.87410    0.46780    1.000
    H153     H        0.29280    0.85100    0.48810    1.000
    C234     C        0.98210    0.64200    0.91830    1.000
    H154     H        0.00170    0.66450    0.89600    1.000
    C235     C        0.95720    0.16620    0.50510    1.000
    H155     H        0.97500    0.16290    0.54520    1.000
    C236     C        0.25200    0.79270    0.18050    1.000
    H156     H        0.27590    0.81040    0.16020    1.000
    C237     C        0.04950    0.07720    0.50510    1.000
    C238     C        0.27910    0.80180    0.23990    1.000
    H157     H        0.32110    0.82570    0.25890    1.000
    C239     C        0.16060    0.89610    0.38430    1.000
    H158     H        0.13820    0.88860    0.34460    1.000
    C240     C        0.01260    0.65010    0.97700    1.000
    C241     C        0.15580    0.73180    0.18320    1.000
    H159     H        0.11360    0.70790    0.16540    1.000
    C242     C        0.15830    0.74840    0.08740    1.000
    C243     C        0.89900    0.20930    0.47430    1.000
    H160     H        0.87770    0.23310    0.49490    1.000
    C244     C        0.18710    0.74340    0.24240    1.000
    H161     H        0.16430    0.72590    0.26370    1.000
    C245     C        0.15520    0.82480    0.90700    1.000
    H162     H        0.11600    0.79600    0.88600    1.000
    C246     C        0.92220    0.57140    0.97930    1.000
    H163     H        0.90220    0.54660    0.00050    1.000
    C247     C        0.24120    0.95610    0.73680    1.000
    H164     H        0.27670    0.92040    0.75420    1.000
    C248     C        0.21180    0.96230    0.67740    1.000
    H165     H        0.22770    0.93200    0.65540    1.000
    C249     C        0.13330    0.05510    0.68460    1.000
    H166     H        0.09510    0.08720    0.66800    1.000
    C250     C        0.98880    0.12730    0.47470    1.000
    C251     C        0.16740    0.04620    0.74420    1.000
    H167     H        0.15160    0.07510    0.76700    1.000
    C252     C        0.18590    0.86880    0.87950    1.000
    H168     H        0.16520    0.87080    0.83940    1.000
    N73      N        0.22200    0.86540    0.41160    1.000
    N74      N        0.87140    0.21920    0.41750    1.000
    N75      N        0.22060    0.99980    0.77090    1.000
    N76      N        0.07400    0.03930    0.47210    1.000
    N77      N        0.07470    0.07260    0.56260    1.000
    N78      N        0.15580    0.98250    0.55870    1.000
    N79      N        0.24380    0.90900    0.90720    1.000
    N80      N        0.89200    0.56480    0.92200    1.000
    N81      N        0.24640    0.77700    0.27110    1.000
    N82      N        0.09710    0.73920    0.97270    1.000
    N83      N        0.10360    0.70070    0.06400    1.000
    N84      N        0.18610    0.78740    0.05840    1.000
    Ag15     Ag       0.77371    0.29104    0.36808    1.000
    Ag16     Ag       0.79539    0.49756    0.86756    1.000
    C253     C        0.42210    0.10030    0.89200    1.000
    H169     H        0.40170    0.09660    0.85190    1.000
    C254     C        0.65350    0.28000    0.00080    1.000
    C255     C        0.62760    0.43860    0.41090    1.000
    H170     H        0.58490    0.45990    0.38960    1.000
    C256     C        0.62800    0.49280    0.50190    1.000
    C257     C        0.48170    0.11300    0.00900    1.000
    H171     H        0.50090    0.11640    0.04910    1.000
    C258     C        0.40300    0.68460    0.38890    1.000
    H172     H        0.38530    0.69170    0.34910    1.000
    C259     C        0.57480    0.19850    0.00630    1.000
    C260     C        0.74340    0.36660    0.99650    1.000
    H173     H        0.76370    0.36770    0.03670    1.000
    C261     C        0.77110    0.40680    0.96480    1.000
    H174     H        0.81130    0.43420    0.98480    1.000
    C262     C        0.72280    0.41500    0.49900    1.000
    H175     H        0.74600    0.42010    0.53880    1.000
    C263     C        0.65960    0.44830    0.46950    1.000
    C264     C        0.62740    0.52410    0.58750    1.000
    C265     C        0.65830    0.51440    0.65120    1.000
    C266     C        0.46060    0.63870    0.41530    1.000
    H176     H        0.48040    0.61560    0.39340    1.000
    C267     C        0.68390    0.32430    0.96630    1.000
    C268     C        0.69000    0.25760    0.15140    1.000
    C269     C        0.75070    0.37410    0.46780    1.000
    H177     H        0.79280    0.35100    0.48810    1.000
    C270     C        0.48210    0.14200    0.91830    1.000
    H178     H        0.50170    0.16450    0.89600    1.000
    C271     C        0.45720    0.66620    0.50510    1.000
    H179     H        0.47500    0.66290    0.54520    1.000
    C272     C        0.75200    0.29270    0.18050    1.000
    H180     H        0.77590    0.31040    0.16020    1.000
    C273     C        0.54950    0.57720    0.50510    1.000
    C274     C        0.77910    0.30180    0.23990    1.000
    H181     H        0.82110    0.32570    0.25890    1.000
    C275     C        0.66060    0.39610    0.38430    1.000
    H182     H        0.63820    0.38860    0.34460    1.000
    C276     C        0.51260    0.15010    0.97700    1.000
    C277     C        0.65580    0.23180    0.18320    1.000
    H183     H        0.61360    0.20790    0.16540    1.000
    C278     C        0.65830    0.24840    0.08740    1.000
    C279     C        0.39900    0.70930    0.47430    1.000
    H184     H        0.37770    0.73310    0.49490    1.000
    C280     C        0.68710    0.24340    0.24240    1.000
    H185     H        0.66430    0.22590    0.26370    1.000
    C281     C        0.65520    0.32480    0.90700    1.000
    H186     H        0.61600    0.29600    0.88600    1.000
    C282     C        0.42220    0.07140    0.97930    1.000
    H187     H        0.40220    0.04660    0.00050    1.000
    C283     C        0.74120    0.45610    0.73680    1.000
    H188     H        0.77670    0.42040    0.75420    1.000
    C284     C        0.71180    0.46230    0.67740    1.000
    H189     H        0.72770    0.43200    0.65540    1.000
    C285     C        0.63330    0.55510    0.68460    1.000
    H190     H        0.59510    0.58720    0.66800    1.000
    C286     C        0.48880    0.62730    0.47470    1.000
    C287     C        0.66740    0.54620    0.74420    1.000
    H191     H        0.65160    0.57510    0.76700    1.000
    C288     C        0.68590    0.36880    0.87950    1.000
    H192     H        0.66520    0.37080    0.83940    1.000
    N85      N        0.72200    0.36540    0.41160    1.000
    N86      N        0.37140    0.71920    0.41750    1.000
    N87      N        0.72060    0.49980    0.77090    1.000
    N88      N        0.57400    0.53930    0.47210    1.000
    N89      N        0.57470    0.57260    0.56260    1.000
    N90      N        0.65580    0.48250    0.55870    1.000
    N91      N        0.74380    0.40900    0.90720    1.000
    N92      N        0.39200    0.06480    0.92200    1.000
    N93      N        0.74640    0.27700    0.27110    1.000
    N94      N        0.59710    0.23920    0.97270    1.000
    N95      N        0.60360    0.20070    0.06400    1.000
    N96      N        0.68610    0.28740    0.05840    1.000
