data_functionalizedCrystal
_audit_creation_method	'EQeq! by Chris Wilmer'
_symmetry_space_group_name_H-M	'P1'
_symmetry_Int_Tables_number	1
_symmetry_cell_setting	triclinic
loop_
_symmetry_equiv_pos_as_xyz
  x,y,z
_cell_length_a	7.6827
_cell_length_b	7.7269
_cell_length_c	18.092
_cell_angle_alpha	90
_cell_angle_beta	94.443
_cell_angle_gamma	90
loop_
_atom_site_label
_atom_site_type_symbol
_atom_site_fract_x
_atom_site_fract_y
_atom_site_fract_z
_atom_site_charge
Mof_Fe	Fe	0.11372	0.58491	0.361	0.876
Mof_Fe	Fe	0.77657	0.33346	0.31126	0.881
Mof_P 	P 	0.94077	0.9472	0.3081	0.598
Mof_H 	H 	0.8312	0.8832	0.2985	-0.146
Mof_O 	O 	0.0599	0.8374	0.36021	-0.346
Mof_O 	O 	0.278	0.3704	0.37566	-0.293
Mof_O 	O 	0.9022	0.4714	0.41036	-0.373
Mof_O 	O 	0.0197	0.9707	0.23357	-0.435
Mof_O 	O 	0.8165	0.3785	0.51862	-0.276
Mof_O 	O 	0.3391	0.6504	0.29279	-0.335
Mof_O 	O 	0.8968	0.1166	0.34358	-0.347
Mof_O 	O 	0.5472	0.2792	0.36289	-0.278
Mof_O 	O 	0.6057	0.5429	0.27504	-0.295
Mof_C 	C 	0.4254	0.3831	0.35093	0.249
Mof_C 	C 	0.917	0.4547	0.48	0.273
Mof_C 	C 	0.4599	0.5403	0.30099	0.251
Mof_Fe	Fe	0.88628	0.08491	0.139	0.876
Mof_Fe	Fe	0.22343	0.83346	0.18874	0.881
Mof_P 	P 	0.05923	0.4472	0.1919	0.602
Mof_H 	H 	0.1688	0.3832	0.2015	-0.149
Mof_O 	O 	0.9401	0.3374	0.13979	-0.347
Mof_O 	O 	0.722	0.8704	0.12434	-0.294
Mof_O 	O 	0.0978	0.9714	0.08964	-0.373
Mof_O 	O 	0.9803	0.4707	0.26643	-0.437
Mof_O 	O 	0.1835	0.8785	0.98138	-0.276
Mof_O 	O 	0.6609	0.1504	0.20721	-0.335
Mof_O 	O 	0.1032	0.6166	0.15642	-0.349
Mof_O 	O 	0.4528	0.7792	0.13711	-0.278
Mof_O 	O 	0.3943	0.0429	0.22496	-0.296
Mof_C 	C 	0.5746	0.8831	0.14907	0.249
Mof_C 	C 	0.083	0.9547	0.02	0.273
Mof_C 	C 	0.5401	0.0403	0.19901	0.251
Mof_Fe	Fe	0.88628	0.41509	0.639	0.875
Mof_Fe	Fe	0.22343	0.66654	0.68874	0.88
Mof_P 	P 	0.05923	0.0528	0.6919	0.597
Mof_H 	H 	0.1688	0.1168	0.7015	-0.147
Mof_O 	O 	0.9401	0.1626	0.63979	-0.346
Mof_O 	O 	0.722	0.6296	0.62434	-0.293
Mof_O 	O 	0.0978	0.5286	0.58964	-0.373
Mof_O 	O 	0.9803	0.0293	0.76643	-0.435
Mof_O 	O 	0.1835	0.6215	0.48138	-0.276
Mof_O 	O 	0.6609	0.3496	0.70721	-0.335
Mof_O 	O 	0.1032	0.8834	0.65642	-0.347
Mof_O 	O 	0.4528	0.7208	0.63711	-0.278
Mof_O 	O 	0.3943	0.4571	0.72496	-0.295
Mof_C 	C 	0.5746	0.6169	0.64907	0.249
Mof_C 	C 	0.083	0.5453	0.52	0.273
Mof_C 	C 	0.5401	0.4597	0.69901	0.251
Mof_Fe	Fe	0.11372	0.91509	0.861	0.876
Mof_Fe	Fe	0.77657	0.16654	0.81126	0.881
Mof_P 	P 	0.94077	0.5528	0.8081	0.602
Mof_H 	H 	0.8312	0.6168	0.7985	-0.149
Mof_O 	O 	0.0599	0.6626	0.86021	-0.347
Mof_O 	O 	0.278	0.1296	0.87566	-0.294
Mof_O 	O 	0.9022	0.0286	0.91036	-0.373
Mof_O 	O 	0.0197	0.5293	0.73357	-0.437
Mof_O 	O 	0.8165	0.1215	0.01862	-0.276
Mof_O 	O 	0.3391	0.8496	0.79279	-0.335
Mof_O 	O 	0.8968	0.3834	0.84358	-0.349
Mof_O 	O 	0.5472	0.2208	0.86289	-0.278
Mof_O 	O 	0.6057	0.9571	0.77504	-0.296
Mof_C 	C 	0.4254	0.1169	0.85093	0.249
Mof_C 	C 	0.917	0.0453	0.98	0.273
Mof_C 	C 	0.4599	0.9597	0.80099	0.251
_end
