data_functionalizedCrystal
_audit_creation_method	'EQeq! by Chris Wilmer'
_symmetry_space_group_name_H-M	'P1'
_symmetry_Int_Tables_number	1
_symmetry_cell_setting	triclinic
loop_
_symmetry_equiv_pos_as_xyz
  x,y,z
_cell_length_a	22.07
_cell_length_b	16.4328
_cell_length_c	25.6173
_cell_angle_alpha	90
_cell_angle_beta	115.315
_cell_angle_gamma	90
loop_
_atom_site_label
_atom_site_type_symbol
_atom_site_fract_x
_atom_site_fract_y
_atom_site_fract_z
_atom_site_charge
Mof_Ag	Ag	0.34417	0.95761	0.3678	0.525
Mof_Ag	Ag	0.32282	0.25282	0.8672	0.537
Mof_C 	C 	0.1239	0.2568	0.50186	0.1
Mof_C 	C 	0.0332	0.3123	0.4109	-0.142
Mof_H 	H 	0.0549	0.2914	0.3897	0.082
Mof_C 	C 	0.4441	0.3435	0.9648	0.085
Mof_H 	H 	0.4241	0.3156	0.9849	-0.011
Mof_C 	C 	0.5978	0.4702	0.0007	0.101
Mof_C 	C 	0.778	0.6379	0.0092	-0.132
Mof_H 	H 	0.7989	0.6342	0.0492	0.073
Mof_C 	C 	0.06	0.3018	0.4698	0.06
Mof_C 	C 	0.2352	0.0646	0.3884	0.085
Mof_H 	H 	0.2132	0.0575	0.3486	-0.01
Mof_C 	C 	0.5036	0.3837	0.9963	-0.133
Mof_H 	H 	0.5232	0.3823	0.0365	0.085
Mof_C 	C 	0.7201	0.6521	0.8922	0.067
Mof_H 	H 	0.6999	0.6566	0.8522	-0.026
Mof_C 	C 	0.2097	0.2264	0.5873	0.101
Mof_C 	C 	0.2979	0.0843	0.5047	-0.134
Mof_H 	H 	0.3202	0.0888	0.5446	0.085
Mof_C 	C 	0.5336	0.4264	0.96667	0.065
Mof_C 	C 	0.026	0.3353	0.4996	-0.143
Mof_H 	H 	0.0434	0.3306	0.5396	0.074
Mof_C 	C 	0.9669	0.3753	0.4694	0.07
Mof_H 	H 	0.9446	0.3971	0.4898	-0.019
Mof_C 	C 	0.2433	0.2371	0.651	0.06
Mof_C 	C 	0.6825	0.5518	0.0066	0.094
Mof_C 	C 	0.7155	0.6015	0.9775	0.052
Mof_C 	C 	0.6803	0.5022	0.0879	0.095
Mof_C 	C 	0.6791	0.4559	0.181	-0.136
Mof_H 	H 	0.635	0.4384	0.1609	0.081
Mof_C 	C 	0.2054	0.1721	0.5051	0.102
Mof_C 	C 	0.9734	0.3545	0.3839	0.072
Mof_H 	H 	0.9562	0.3623	0.3441	-0.02
Mof_C 	C 	0.8074	0.5049	0.2425	0.073
Mof_H 	H 	0.8515	0.5216	0.2634	-0.024
Mof_C 	C 	0.2359	0.1214	0.4744	0.069
Mof_C 	C 	0.3256	0.0404	0.4738	0.088
Mof_H 	H 	0.3676	0.0169	0.4941	-0.013
Mof_C 	C 	0.2038	0.1099	0.415	-0.134
Mof_H 	H 	0.1618	0.1325	0.3934	0.084
Mof_C 	C 	0.7124	0.4915	0.1517	0.054
Mof_C 	C 	0.8079	0.6798	0.979	0.071
Mof_H 	H 	0.8493	0.7043	0.0001	-0.01
Mof_C 	C 	0.6865	0.61	0.9183	-0.135
Mof_H 	H 	0.6446	0.5875	0.8962	0.078
Mof_C 	C 	0.5024	0.4271	0.907	-0.136
Mof_H 	H 	0.5206	0.4563	0.886	0.079
Mof_C 	C 	0.4436	0.3835	0.879	0.082
Mof_H 	H 	0.4237	0.3827	0.8388	-0.006
Mof_C 	C 	0.7119	0.4466	0.2404	0.078
Mof_H 	H 	0.689	0.4227	0.2596	-0.015
Mof_C 	C 	0.2155	0.2886	0.6778	-0.135
Mof_H 	H 	0.177	0.3183	0.6561	0.069
Mof_C 	C 	0.2458	0.2952	0.7372	0.071
Mof_H 	H 	0.2269	0.3302	0.7547	-0.017
Mof_C 	C 	0.3023	0.1978	0.6849	-0.141
Mof_H 	H 	0.3241	0.1658	0.6682	0.083
Mof_C 	C 	0.7783	0.5167	0.1833	-0.142
Mof_H 	H 	0.8022	0.5409	0.1651	0.073
Mof_C 	C 	0.3284	0.2072	0.7441	0.084
Mof_H 	H 	0.3676	0.1792	0.7667	-0.021
Mof_N 	N 	0.93922	0.3846	0.41173	-0.214
Mof_N 	N 	0.29547	0.0302	0.4167	-0.193
Mof_N 	N 	0.3008	0.2539	0.77089	-0.2
Mof_N 	N 	0.15295	0.268	0.5591	-0.142
Mof_N 	N 	0.148	0.2109	0.47237	-0.138
Mof_N 	N 	0.23813	0.1776	0.56265	-0.137
Mof_N 	N 	0.4135	0.3423	0.90683	-0.187
Mof_N 	N 	0.7802	0.6868	0.92143	-0.209
Mof_N 	N 	0.7758	0.471	0.27145	-0.198
Mof_N 	N 	0.62287	0.4624	0.05853	-0.137
Mof_N 	N 	0.62625	0.5115	0.97295	-0.141
Mof_N 	N 	0.71152	0.5495	0.0646	-0.149
Mof_Ag	Ag	0.84417	0.45761	0.3678	0.524
Mof_Ag	Ag	0.82282	0.75282	0.8672	0.535
Mof_C 	C 	0.6239	0.7568	0.50186	0.099
Mof_C 	C 	0.5332	0.8123	0.4109	-0.142
Mof_H 	H 	0.5549	0.7914	0.3897	0.081
Mof_C 	C 	0.9441	0.8435	0.9648	0.08
Mof_H 	H 	0.9241	0.8156	0.9849	-0.011
Mof_C 	C 	0.0978	0.9702	0.0007	0.099
Mof_C 	C 	0.278	0.1379	0.0092	-0.139
Mof_H 	H 	0.2989	0.1342	0.0492	0.076
Mof_C 	C 	0.56	0.8018	0.4698	0.06
Mof_C 	C 	0.7352	0.5646	0.3884	0.085
Mof_H 	H 	0.7132	0.5575	0.3486	-0.01
Mof_C 	C 	0.0036	0.8837	0.9963	-0.126
Mof_H 	H 	0.0232	0.8823	0.0365	0.082
Mof_C 	C 	0.2201	0.1521	0.8922	0.069
Mof_H 	H 	0.1999	0.1566	0.8522	-0.026
Mof_C 	C 	0.7097	0.7264	0.5873	0.101
Mof_C 	C 	0.7979	0.5843	0.5047	-0.134
Mof_H 	H 	0.8202	0.5888	0.5446	0.085
Mof_C 	C 	0.0336	0.9264	0.96667	0.063
Mof_C 	C 	0.526	0.8353	0.4996	-0.142
Mof_H 	H 	0.5434	0.8306	0.5396	0.074
Mof_C 	C 	0.4669	0.8753	0.4694	0.07
Mof_H 	H 	0.4446	0.8971	0.4898	-0.019
Mof_C 	C 	0.7433	0.7371	0.651	0.06
Mof_C 	C 	0.1825	0.0518	0.0066	0.09
Mof_C 	C 	0.2155	0.1015	0.9775	0.058
Mof_C 	C 	0.1803	0.0022	0.0879	0.096
Mof_C 	C 	0.1791	0.9559	0.181	-0.136
Mof_H 	H 	0.135	0.9384	0.1609	0.081
Mof_C 	C 	0.7054	0.6721	0.5051	0.102
Mof_C 	C 	0.4734	0.8545	0.3839	0.072
Mof_H 	H 	0.4562	0.8623	0.3441	-0.02
Mof_C 	C 	0.3074	0.0049	0.2425	0.073
Mof_H 	H 	0.3515	0.0216	0.2634	-0.024
Mof_C 	C 	0.7359	0.6214	0.4744	0.069
Mof_C 	C 	0.8256	0.5404	0.4738	0.088
Mof_H 	H 	0.8676	0.5169	0.4941	-0.013
Mof_C 	C 	0.7038	0.6099	0.415	-0.134
Mof_H 	H 	0.6618	0.6325	0.3934	0.085
Mof_C 	C 	0.2124	0.9915	0.1517	0.054
Mof_C 	C 	0.3079	0.1798	0.979	0.078
Mof_H 	H 	0.3493	0.2043	0.0001	-0.013
Mof_C 	C 	0.1865	0.11	0.9183	-0.138
Mof_H 	H 	0.1446	0.0875	0.8962	0.079
Mof_C 	C 	0.0024	0.9271	0.907	-0.133
Mof_H 	H 	0.0206	0.9563	0.886	0.079
Mof_C 	C 	0.9436	0.8835	0.879	0.079
Mof_H 	H 	0.9237	0.8827	0.8388	-0.006
Mof_C 	C 	0.2119	0.9466	0.2404	0.077
Mof_H 	H 	0.189	0.9227	0.2596	-0.015
Mof_C 	C 	0.7155	0.7886	0.6778	-0.135
Mof_H 	H 	0.677	0.8183	0.6561	0.069
Mof_C 	C 	0.7458	0.7952	0.7372	0.071
Mof_H 	H 	0.7269	0.8302	0.7547	-0.017
Mof_C 	C 	0.8023	0.6978	0.6849	-0.141
Mof_H 	H 	0.8241	0.6658	0.6682	0.083
Mof_C 	C 	0.2783	0.0167	0.1833	-0.141
Mof_H 	H 	0.3022	0.0409	0.1651	0.073
Mof_C 	C 	0.8284	0.7072	0.7441	0.084
Mof_H 	H 	0.8676	0.6792	0.7667	-0.021
Mof_N 	N 	0.43922	0.8846	0.41173	-0.214
Mof_N 	N 	0.79547	0.5302	0.4167	-0.193
Mof_N 	N 	0.8008	0.7539	0.77089	-0.2
Mof_N 	N 	0.65295	0.768	0.5591	-0.142
Mof_N 	N 	0.648	0.7109	0.47237	-0.138
Mof_N 	N 	0.73813	0.6776	0.56265	-0.137
Mof_N 	N 	0.9135	0.8423	0.90683	-0.186
Mof_N 	N 	0.2802	0.1868	0.92143	-0.21
Mof_N 	N 	0.2758	0.971	0.27145	-0.198
Mof_N 	N 	0.12287	0.9624	0.05853	-0.137
Mof_N 	N 	0.12625	0.0115	0.97295	-0.14
Mof_N 	N 	0.21152	0.0495	0.0646	-0.149
Mof_Ag	Ag	0.65583	0.95761	0.1322	0.524
Mof_Ag	Ag	0.67718	0.25282	0.6328	0.535
Mof_C 	C 	0.8761	0.2568	0.99814	0.098
Mof_C 	C 	0.9668	0.3123	0.0891	-0.139
Mof_H 	H 	0.9451	0.2914	0.1103	0.08
Mof_C 	C 	0.5559	0.3435	0.5352	0.084
Mof_H 	H 	0.5759	0.3156	0.5151	-0.012
Mof_C 	C 	0.4022	0.4702	0.4993	0.1
Mof_C 	C 	0.222	0.6379	0.4908	-0.136
Mof_H 	H 	0.2011	0.6342	0.4508	0.075
Mof_C 	C 	0.94	0.3018	0.0302	0.058
Mof_C 	C 	0.7648	0.0646	0.1116	0.086
Mof_H 	H 	0.7868	0.0575	0.1514	-0.01
Mof_C 	C 	0.4964	0.3837	0.5037	-0.132
Mof_H 	H 	0.4768	0.3823	0.4635	0.085
Mof_C 	C 	0.2799	0.6521	0.6078	0.068
Mof_H 	H 	0.3001	0.6566	0.6478	-0.026
Mof_C 	C 	0.7903	0.2264	0.9127	0.101
Mof_C 	C 	0.7021	0.0843	0.9953	-0.138
Mof_H 	H 	0.6798	0.0888	0.9554	0.086
Mof_C 	C 	0.4664	0.4264	0.53333	0.065
Mof_C 	C 	0.974	0.3353	0.0004	-0.136
Mof_H 	H 	0.9566	0.3306	0.9604	0.071
Mof_C 	C 	0.0331	0.3753	0.0306	0.066
Mof_H 	H 	0.0554	0.3971	0.0102	-0.018
Mof_C 	C 	0.7567	0.2371	0.849	0.06
Mof_C 	C 	0.3175	0.5518	0.4934	0.092
Mof_C 	C 	0.2845	0.6015	0.5225	0.055
Mof_C 	C 	0.3197	0.5022	0.4121	0.095
Mof_C 	C 	0.3209	0.4559	0.319	-0.136
Mof_H 	H 	0.365	0.4384	0.3391	0.081
Mof_C 	C 	0.7946	0.1721	0.9949	0.1
Mof_C 	C 	0.0266	0.3545	0.1161	0.069
Mof_H 	H 	0.0438	0.3623	0.1559	-0.019
Mof_C 	C 	0.1926	0.5049	0.2575	0.073
Mof_H 	H 	0.1485	0.5216	0.2366	-0.024
Mof_C 	C 	0.7641	0.1214	0.0256	0.073
Mof_C 	C 	0.6744	0.0404	0.0262	0.09
Mof_H 	H 	0.6324	0.0169	0.0059	-0.014
Mof_C 	C 	0.7962	0.1099	0.085	-0.137
Mof_H 	H 	0.8382	0.1325	0.1066	0.085
Mof_C 	C 	0.2876	0.4915	0.3483	0.054
Mof_C 	C 	0.1921	0.6798	0.521	0.075
Mof_H 	H 	0.1507	0.7043	0.4999	-0.012
Mof_C 	C 	0.3135	0.61	0.5817	-0.137
Mof_H 	H 	0.3554	0.5875	0.6038	0.078
Mof_C 	C 	0.4976	0.4271	0.593	-0.136
Mof_H 	H 	0.4794	0.4563	0.614	0.079
Mof_C 	C 	0.5564	0.3835	0.621	0.082
Mof_H 	H 	0.5763	0.3827	0.6612	-0.006
Mof_C 	C 	0.2881	0.4466	0.2596	0.078
Mof_H 	H 	0.311	0.4227	0.2404	-0.015
Mof_C 	C 	0.7845	0.2886	0.8222	-0.135
Mof_H 	H 	0.823	0.3183	0.8439	0.069
Mof_C 	C 	0.7542	0.2952	0.7628	0.071
Mof_H 	H 	0.7731	0.3302	0.7453	-0.017
Mof_C 	C 	0.6977	0.1978	0.8151	-0.141
Mof_H 	H 	0.6759	0.1658	0.8318	0.083
Mof_C 	C 	0.2217	0.5167	0.3167	-0.142
Mof_H 	H 	0.1978	0.5409	0.3349	0.073
Mof_C 	C 	0.6716	0.2072	0.7559	0.084
Mof_H 	H 	0.6324	0.1792	0.7333	-0.021
Mof_N 	N 	0.06078	0.3846	0.08827	-0.212
Mof_N 	N 	0.70453	0.0302	0.0833	-0.194
Mof_N 	N 	0.6992	0.2539	0.72911	-0.2
Mof_N 	N 	0.84705	0.268	0.9409	-0.142
Mof_N 	N 	0.852	0.2109	0.02763	-0.137
Mof_N 	N 	0.76187	0.1776	0.93735	-0.137
Mof_N 	N 	0.5865	0.3423	0.59317	-0.187
Mof_N 	N 	0.2198	0.6868	0.57857	-0.209
Mof_N 	N 	0.2242	0.471	0.22855	-0.198
Mof_N 	N 	0.37713	0.4624	0.44147	-0.137
Mof_N 	N 	0.37375	0.5115	0.52705	-0.141
Mof_N 	N 	0.28848	0.5495	0.4354	-0.149
Mof_Ag	Ag	0.15583	0.45761	0.1322	0.524
Mof_Ag	Ag	0.17718	0.75282	0.6328	0.536
Mof_C 	C 	0.3761	0.7568	0.99814	0.099
Mof_C 	C 	0.4668	0.8123	0.0891	-0.142
Mof_H 	H 	0.4451	0.7914	0.1103	0.081
Mof_C 	C 	0.0559	0.8435	0.5352	0.084
Mof_H 	H 	0.0759	0.8156	0.5151	-0.012
Mof_C 	C 	0.9022	0.9702	0.4993	0.1
Mof_C 	C 	0.722	0.1379	0.4908	-0.136
Mof_H 	H 	0.7011	0.1342	0.4508	0.075
Mof_C 	C 	0.44	0.8018	0.0302	0.059
Mof_C 	C 	0.2648	0.5646	0.1116	0.083
Mof_H 	H 	0.2868	0.5575	0.1514	-0.01
Mof_C 	C 	0.9964	0.8837	0.5037	-0.133
Mof_H 	H 	0.9768	0.8823	0.4635	0.085
Mof_C 	C 	0.7799	0.1521	0.6078	0.068
Mof_H 	H 	0.8001	0.1566	0.6478	-0.026
Mof_C 	C 	0.2903	0.7264	0.9127	0.101
Mof_C 	C 	0.2021	0.5843	0.9953	-0.13
Mof_H 	H 	0.1798	0.5888	0.9554	0.084
Mof_C 	C 	0.9664	0.9264	0.53333	0.065
Mof_C 	C 	0.474	0.8353	0.0004	-0.143
Mof_H 	H 	0.4566	0.8306	0.9604	0.074
Mof_C 	C 	0.5331	0.8753	0.0306	0.071
Mof_H 	H 	0.5554	0.8971	0.0102	-0.019
Mof_C 	C 	0.2567	0.7371	0.849	0.06
Mof_C 	C 	0.8175	0.0518	0.4934	0.092
Mof_C 	C 	0.7845	0.1015	0.5225	0.055
Mof_C 	C 	0.8197	0.0022	0.4121	0.096
Mof_C 	C 	0.8209	0.9559	0.319	-0.136
Mof_H 	H 	0.865	0.9384	0.3391	0.081
Mof_C 	C 	0.2946	0.6721	0.9949	0.104
Mof_C 	C 	0.5266	0.8545	0.1161	0.072
Mof_H 	H 	0.5438	0.8623	0.1559	-0.02
Mof_C 	C 	0.6926	0.0049	0.2575	0.073
Mof_H 	H 	0.6485	0.0216	0.2366	-0.024
Mof_C 	C 	0.2641	0.6214	0.0256	0.066
Mof_C 	C 	0.1744	0.5404	0.0262	0.085
Mof_H 	H 	0.1324	0.5169	0.0059	-0.013
Mof_C 	C 	0.2962	0.6099	0.085	-0.133
Mof_H 	H 	0.3382	0.6325	0.1066	0.084
Mof_C 	C 	0.7876	0.9915	0.3483	0.054
Mof_C 	C 	0.6921	0.1798	0.521	0.075
Mof_H 	H 	0.6507	0.2043	0.4999	-0.012
Mof_C 	C 	0.8135	0.11	0.5817	-0.137
Mof_H 	H 	0.8554	0.0875	0.6038	0.078
Mof_C 	C 	0.9976	0.9271	0.593	-0.137
Mof_H 	H 	0.9794	0.9563	0.614	0.079
Mof_C 	C 	0.0564	0.8835	0.621	0.082
Mof_H 	H 	0.0763	0.8827	0.6612	-0.006
Mof_C 	C 	0.7881	0.9466	0.2596	0.078
Mof_H 	H 	0.811	0.9227	0.2404	-0.015
Mof_C 	C 	0.2845	0.7886	0.8222	-0.135
Mof_H 	H 	0.323	0.8183	0.8439	0.069
Mof_C 	C 	0.2542	0.7952	0.7628	0.071
Mof_H 	H 	0.2731	0.8302	0.7453	-0.017
Mof_C 	C 	0.1977	0.6978	0.8151	-0.141
Mof_H 	H 	0.1759	0.6658	0.8318	0.083
Mof_C 	C 	0.7217	0.0167	0.3167	-0.142
Mof_H 	H 	0.6978	0.0409	0.3349	0.073
Mof_C 	C 	0.1716	0.7072	0.7559	0.084
Mof_H 	H 	0.1324	0.6792	0.7333	-0.021
Mof_N 	N 	0.56078	0.8846	0.08827	-0.214
Mof_N 	N 	0.20453	0.5302	0.0833	-0.193
Mof_N 	N 	0.1992	0.7539	0.72911	-0.2
Mof_N 	N 	0.34705	0.768	0.9409	-0.142
Mof_N 	N 	0.352	0.7109	0.02763	-0.139
Mof_N 	N 	0.26187	0.6776	0.93735	-0.138
Mof_N 	N 	0.0865	0.8423	0.59317	-0.187
Mof_N 	N 	0.7198	0.1868	0.57857	-0.209
Mof_N 	N 	0.7242	0.971	0.22855	-0.199
Mof_N 	N 	0.87713	0.9624	0.44147	-0.137
Mof_N 	N 	0.87375	0.0115	0.52705	-0.141
Mof_N 	N 	0.78848	0.0495	0.4354	-0.149
Mof_Ag	Ag	0.65583	0.04239	0.6322	0.524
Mof_Ag	Ag	0.67718	0.74718	0.1328	0.536
Mof_C 	C 	0.8761	0.7432	0.49814	0.099
Mof_C 	C 	0.9668	0.6877	0.5891	-0.143
Mof_H 	H 	0.9451	0.7086	0.6103	0.081
Mof_C 	C 	0.5559	0.6565	0.0352	0.084
Mof_H 	H 	0.5759	0.6844	0.0151	-0.012
Mof_C 	C 	0.4022	0.5298	0.9993	0.1
Mof_C 	C 	0.222	0.3621	0.9908	-0.132
Mof_H 	H 	0.2011	0.3658	0.9508	0.073
Mof_C 	C 	0.94	0.6982	0.5302	0.06
Mof_C 	C 	0.7648	0.9354	0.6116	0.085
Mof_H 	H 	0.7868	0.9425	0.6514	-0.01
Mof_C 	C 	0.4964	0.6163	0.0037	-0.133
Mof_H 	H 	0.4768	0.6177	0.9635	0.085
Mof_C 	C 	0.2799	0.3479	0.1078	0.067
Mof_H 	H 	0.3001	0.3434	0.1478	-0.026
Mof_C 	C 	0.7903	0.7736	0.4127	0.101
Mof_C 	C 	0.7021	0.9157	0.4953	-0.134
Mof_H 	H 	0.6798	0.9112	0.4554	0.085
Mof_C 	C 	0.4664	0.5736	0.03333	0.065
Mof_C 	C 	0.974	0.6647	0.5004	-0.143
Mof_H 	H 	0.9566	0.6694	0.4604	0.074
Mof_C 	C 	0.0331	0.6247	0.5306	0.07
Mof_H 	H 	0.0554	0.6029	0.5102	-0.019
Mof_C 	C 	0.7567	0.7629	0.349	0.06
Mof_C 	C 	0.3175	0.4482	0.9934	0.094
Mof_C 	C 	0.2845	0.3985	0.0225	0.052
Mof_C 	C 	0.3197	0.4978	0.9121	0.095
Mof_C 	C 	0.3209	0.5441	0.819	-0.136
Mof_H 	H 	0.365	0.5616	0.8391	0.081
Mof_C 	C 	0.7946	0.8279	0.4949	0.102
Mof_C 	C 	0.0266	0.6455	0.6161	0.072
Mof_H 	H 	0.0438	0.6377	0.6559	-0.02
Mof_C 	C 	0.1926	0.4951	0.7575	0.073
Mof_H 	H 	0.1485	0.4784	0.7366	-0.024
Mof_C 	C 	0.7641	0.8786	0.5256	0.069
Mof_C 	C 	0.6744	0.9596	0.5262	0.088
Mof_H 	H 	0.6324	0.9831	0.5059	-0.013
Mof_C 	C 	0.7962	0.8901	0.585	-0.134
Mof_H 	H 	0.8382	0.8675	0.6066	0.084
Mof_C 	C 	0.2876	0.5085	0.8483	0.054
Mof_C 	C 	0.1921	0.3202	0.021	0.071
Mof_H 	H 	0.1507	0.2957	0.9999	-0.01
Mof_C 	C 	0.3135	0.39	0.0817	-0.135
Mof_H 	H 	0.3554	0.4125	0.1038	0.078
Mof_C 	C 	0.4976	0.5729	0.093	-0.136
Mof_H 	H 	0.4794	0.5437	0.114	0.079
Mof_C 	C 	0.5564	0.6165	0.121	0.082
Mof_H 	H 	0.5763	0.6173	0.1612	-0.006
Mof_C 	C 	0.2881	0.5534	0.7596	0.078
Mof_H 	H 	0.311	0.5773	0.7404	-0.015
Mof_C 	C 	0.7845	0.7114	0.3222	-0.135
Mof_H 	H 	0.823	0.6817	0.3439	0.069
Mof_C 	C 	0.7542	0.7048	0.2628	0.071
Mof_H 	H 	0.7731	0.6698	0.2453	-0.017
Mof_C 	C 	0.6977	0.8022	0.3151	-0.141
Mof_H 	H 	0.6759	0.8342	0.3318	0.083
Mof_C 	C 	0.2217	0.4833	0.8167	-0.142
Mof_H 	H 	0.1978	0.4591	0.8349	0.073
Mof_C 	C 	0.6716	0.7928	0.2559	0.084
Mof_H 	H 	0.6324	0.8208	0.2333	-0.021
Mof_N 	N 	0.06078	0.6154	0.58827	-0.214
Mof_N 	N 	0.70453	0.9698	0.5833	-0.193
Mof_N 	N 	0.6992	0.7461	0.22911	-0.2
Mof_N 	N 	0.84705	0.732	0.4409	-0.142
Mof_N 	N 	0.852	0.7891	0.52763	-0.138
Mof_N 	N 	0.76187	0.8224	0.43735	-0.137
Mof_N 	N 	0.5865	0.6577	0.09317	-0.187
Mof_N 	N 	0.2198	0.3132	0.07857	-0.209
Mof_N 	N 	0.2242	0.529	0.72855	-0.198
Mof_N 	N 	0.37713	0.5376	0.94147	-0.137
Mof_N 	N 	0.37375	0.4885	0.02705	-0.141
Mof_N 	N 	0.28848	0.4505	0.9354	-0.149
Mof_Ag	Ag	0.15583	0.54239	0.6322	0.524
Mof_Ag	Ag	0.17718	0.24718	0.1328	0.535
Mof_C 	C 	0.3761	0.2432	0.49814	0.099
Mof_C 	C 	0.4668	0.1877	0.5891	-0.142
Mof_H 	H 	0.4451	0.2086	0.6103	0.081
Mof_C 	C 	0.0559	0.1565	0.0352	0.08
Mof_H 	H 	0.0759	0.1844	0.0151	-0.011
Mof_C 	C 	0.9022	0.0298	0.9993	0.099
Mof_C 	C 	0.722	0.8621	0.9908	-0.139
Mof_H 	H 	0.7011	0.8658	0.9508	0.076
Mof_C 	C 	0.44	0.1982	0.5302	0.06
Mof_C 	C 	0.2648	0.4354	0.6116	0.085
Mof_H 	H 	0.2868	0.4425	0.6514	-0.01
Mof_C 	C 	0.9964	0.1163	0.0037	-0.126
Mof_H 	H 	0.9768	0.1177	0.9635	0.082
Mof_C 	C 	0.7799	0.8479	0.1078	0.069
Mof_H 	H 	0.8001	0.8434	0.1478	-0.026
Mof_C 	C 	0.2903	0.2736	0.4127	0.101
Mof_C 	C 	0.2021	0.4157	0.4953	-0.134
Mof_H 	H 	0.1798	0.4112	0.4554	0.085
Mof_C 	C 	0.9664	0.0736	0.03333	0.063
Mof_C 	C 	0.474	0.1647	0.5004	-0.142
Mof_H 	H 	0.4566	0.1694	0.4604	0.074
Mof_C 	C 	0.5331	0.1247	0.5306	0.07
Mof_H 	H 	0.5554	0.1029	0.5102	-0.019
Mof_C 	C 	0.2567	0.2629	0.349	0.06
Mof_C 	C 	0.8175	0.9482	0.9934	0.09
Mof_C 	C 	0.7845	0.8985	0.0225	0.058
Mof_C 	C 	0.8197	0.9978	0.9121	0.096
Mof_C 	C 	0.8209	0.0441	0.819	-0.136
Mof_H 	H 	0.865	0.0616	0.8391	0.081
Mof_C 	C 	0.2946	0.3279	0.4949	0.102
Mof_C 	C 	0.5266	0.1455	0.6161	0.072
Mof_H 	H 	0.5438	0.1377	0.6559	-0.02
Mof_C 	C 	0.6926	0.9951	0.7575	0.073
Mof_H 	H 	0.6485	0.9784	0.7366	-0.024
Mof_C 	C 	0.2641	0.3786	0.5256	0.069
Mof_C 	C 	0.1744	0.4596	0.5262	0.088
Mof_H 	H 	0.1324	0.4831	0.5059	-0.013
Mof_C 	C 	0.2962	0.3901	0.585	-0.134
Mof_H 	H 	0.3382	0.3675	0.6066	0.085
Mof_C 	C 	0.7876	0.0085	0.8483	0.054
Mof_C 	C 	0.6921	0.8202	0.021	0.078
Mof_H 	H 	0.6507	0.7957	0.9999	-0.013
Mof_C 	C 	0.8135	0.89	0.0817	-0.138
Mof_H 	H 	0.8554	0.9125	0.1038	0.079
Mof_C 	C 	0.9976	0.0729	0.093	-0.133
Mof_H 	H 	0.9794	0.0437	0.114	0.079
Mof_C 	C 	0.0564	0.1165	0.121	0.079
Mof_H 	H 	0.0763	0.1173	0.1612	-0.006
Mof_C 	C 	0.7881	0.0534	0.7596	0.077
Mof_H 	H 	0.811	0.0773	0.7404	-0.015
Mof_C 	C 	0.2845	0.2114	0.3222	-0.135
Mof_H 	H 	0.323	0.1817	0.3439	0.069
Mof_C 	C 	0.2542	0.2048	0.2628	0.071
Mof_H 	H 	0.2731	0.1698	0.2453	-0.017
Mof_C 	C 	0.1977	0.3022	0.3151	-0.141
Mof_H 	H 	0.1759	0.3342	0.3318	0.083
Mof_C 	C 	0.7217	0.9833	0.8167	-0.141
Mof_H 	H 	0.6978	0.9591	0.8349	0.073
Mof_C 	C 	0.1716	0.2928	0.2559	0.084
Mof_H 	H 	0.1324	0.3208	0.2333	-0.021
Mof_N 	N 	0.56078	0.1154	0.58827	-0.214
Mof_N 	N 	0.20453	0.4698	0.5833	-0.193
Mof_N 	N 	0.1992	0.2461	0.22911	-0.2
Mof_N 	N 	0.34705	0.232	0.4409	-0.142
Mof_N 	N 	0.352	0.2891	0.52763	-0.138
Mof_N 	N 	0.26187	0.3224	0.43735	-0.137
Mof_N 	N 	0.0865	0.1577	0.09317	-0.186
Mof_N 	N 	0.7198	0.8132	0.07857	-0.21
Mof_N 	N 	0.7242	0.029	0.72855	-0.198
Mof_N 	N 	0.87713	0.0376	0.94147	-0.137
Mof_N 	N 	0.87375	0.9885	0.02705	-0.14
Mof_N 	N 	0.78848	0.9505	0.9354	-0.149
Mof_Ag	Ag	0.34417	0.04239	0.8678	0.524
Mof_Ag	Ag	0.32282	0.74718	0.3672	0.535
Mof_C 	C 	0.1239	0.7432	0.00186	0.098
Mof_C 	C 	0.0332	0.6877	0.9109	-0.139
Mof_H 	H 	0.0549	0.7086	0.8897	0.08
Mof_C 	C 	0.4441	0.6565	0.4648	0.084
Mof_H 	H 	0.4241	0.6844	0.4849	-0.012
Mof_C 	C 	0.5978	0.5298	0.5007	0.1
Mof_C 	C 	0.778	0.3621	0.5092	-0.136
Mof_H 	H 	0.7989	0.3658	0.5492	0.075
Mof_C 	C 	0.06	0.6982	0.9698	0.058
Mof_C 	C 	0.2352	0.9354	0.8884	0.086
Mof_H 	H 	0.2132	0.9425	0.8486	-0.01
Mof_C 	C 	0.5036	0.6163	0.4963	-0.132
Mof_H 	H 	0.5232	0.6177	0.5365	0.085
Mof_C 	C 	0.7201	0.3479	0.3922	0.068
Mof_H 	H 	0.6999	0.3434	0.3522	-0.026
Mof_C 	C 	0.2097	0.7736	0.0873	0.101
Mof_C 	C 	0.2979	0.9157	0.0047	-0.138
Mof_H 	H 	0.3202	0.9112	0.0446	0.086
Mof_C 	C 	0.5336	0.5736	0.46667	0.065
Mof_C 	C 	0.026	0.6647	0.9996	-0.136
Mof_H 	H 	0.0434	0.6694	0.0396	0.071
Mof_C 	C 	0.9669	0.6247	0.9694	0.066
Mof_H 	H 	0.9446	0.6029	0.9898	-0.018
Mof_C 	C 	0.2433	0.7629	0.151	0.06
Mof_C 	C 	0.6825	0.4482	0.5066	0.092
Mof_C 	C 	0.7155	0.3985	0.4775	0.055
Mof_C 	C 	0.6803	0.4978	0.5879	0.095
Mof_C 	C 	0.6791	0.5441	0.681	-0.136
Mof_H 	H 	0.635	0.5616	0.6609	0.081
Mof_C 	C 	0.2054	0.8279	0.0051	0.1
Mof_C 	C 	0.9734	0.6455	0.8839	0.069
Mof_H 	H 	0.9562	0.6377	0.8441	-0.019
Mof_C 	C 	0.8074	0.4951	0.7425	0.073
Mof_H 	H 	0.8515	0.4784	0.7634	-0.024
Mof_C 	C 	0.2359	0.8786	0.9744	0.073
Mof_C 	C 	0.3256	0.9596	0.9738	0.09
Mof_H 	H 	0.3676	0.9831	0.9941	-0.014
Mof_C 	C 	0.2038	0.8901	0.915	-0.137
Mof_H 	H 	0.1618	0.8675	0.8934	0.085
Mof_C 	C 	0.7124	0.5085	0.6517	0.054
Mof_C 	C 	0.8079	0.3202	0.479	0.075
Mof_H 	H 	0.8493	0.2957	0.5001	-0.012
Mof_C 	C 	0.6865	0.39	0.4183	-0.137
Mof_H 	H 	0.6446	0.4125	0.3962	0.078
Mof_C 	C 	0.5024	0.5729	0.407	-0.136
Mof_H 	H 	0.5206	0.5437	0.386	0.079
Mof_C 	C 	0.4436	0.6165	0.379	0.082
Mof_H 	H 	0.4237	0.6173	0.3388	-0.006
Mof_C 	C 	0.7119	0.5534	0.7404	0.078
Mof_H 	H 	0.689	0.5773	0.7596	-0.015
Mof_C 	C 	0.2155	0.7114	0.1778	-0.135
Mof_H 	H 	0.177	0.6817	0.1561	0.069
Mof_C 	C 	0.2458	0.7048	0.2372	0.071
Mof_H 	H 	0.2269	0.6698	0.2547	-0.017
Mof_C 	C 	0.3023	0.8022	0.1849	-0.141
Mof_H 	H 	0.3241	0.8342	0.1682	0.083
Mof_C 	C 	0.7783	0.4833	0.6833	-0.142
Mof_H 	H 	0.8022	0.4591	0.6651	0.073
Mof_C 	C 	0.3284	0.7928	0.2441	0.084
Mof_H 	H 	0.3676	0.8208	0.2667	-0.021
Mof_N 	N 	0.93922	0.6154	0.91173	-0.212
Mof_N 	N 	0.29547	0.9698	0.9167	-0.194
Mof_N 	N 	0.3008	0.7461	0.27089	-0.2
Mof_N 	N 	0.15295	0.732	0.0591	-0.142
Mof_N 	N 	0.148	0.7891	0.97237	-0.137
Mof_N 	N 	0.23813	0.8224	0.06265	-0.137
Mof_N 	N 	0.4135	0.6577	0.40683	-0.187
Mof_N 	N 	0.7802	0.3132	0.42143	-0.209
Mof_N 	N 	0.7758	0.529	0.77145	-0.198
Mof_N 	N 	0.62287	0.5376	0.55853	-0.137
Mof_N 	N 	0.62625	0.4885	0.47295	-0.141
Mof_N 	N 	0.71152	0.4505	0.5646	-0.149
Mof_Ag	Ag	0.84417	0.54239	0.8678	0.524
Mof_Ag	Ag	0.82282	0.24718	0.3672	0.536
Mof_C 	C 	0.6239	0.2432	0.00186	0.099
Mof_C 	C 	0.5332	0.1877	0.9109	-0.142
Mof_H 	H 	0.5549	0.2086	0.8897	0.081
Mof_C 	C 	0.9441	0.1565	0.4648	0.084
Mof_H 	H 	0.9241	0.1844	0.4849	-0.012
Mof_C 	C 	0.0978	0.0298	0.5007	0.1
Mof_C 	C 	0.278	0.8621	0.5092	-0.136
Mof_H 	H 	0.2989	0.8658	0.5492	0.075
Mof_C 	C 	0.56	0.1982	0.9698	0.059
Mof_C 	C 	0.7352	0.4354	0.8884	0.083
Mof_H 	H 	0.7132	0.4425	0.8486	-0.01
Mof_C 	C 	0.0036	0.1163	0.4963	-0.133
Mof_H 	H 	0.0232	0.1177	0.5365	0.085
Mof_C 	C 	0.2201	0.8479	0.3922	0.068
Mof_H 	H 	0.1999	0.8434	0.3522	-0.026
Mof_C 	C 	0.7097	0.2736	0.0873	0.101
Mof_C 	C 	0.7979	0.4157	0.0047	-0.13
Mof_H 	H 	0.8202	0.4112	0.0446	0.084
Mof_C 	C 	0.0336	0.0736	0.46667	0.065
Mof_C 	C 	0.526	0.1647	0.9996	-0.143
Mof_H 	H 	0.5434	0.1694	0.0396	0.074
Mof_C 	C 	0.4669	0.1247	0.9694	0.071
Mof_H 	H 	0.4446	0.1029	0.9898	-0.019
Mof_C 	C 	0.7433	0.2629	0.151	0.06
Mof_C 	C 	0.1825	0.9482	0.5066	0.092
Mof_C 	C 	0.2155	0.8985	0.4775	0.055
Mof_C 	C 	0.1803	0.9978	0.5879	0.096
Mof_C 	C 	0.1791	0.0441	0.681	-0.136
Mof_H 	H 	0.135	0.0616	0.6609	0.081
Mof_C 	C 	0.7054	0.3279	0.0051	0.104
Mof_C 	C 	0.4734	0.1455	0.8839	0.072
Mof_H 	H 	0.4562	0.1377	0.8441	-0.02
Mof_C 	C 	0.3074	0.9951	0.7425	0.073
Mof_H 	H 	0.3515	0.9784	0.7634	-0.024
Mof_C 	C 	0.7359	0.3786	0.9744	0.066
Mof_C 	C 	0.8256	0.4596	0.9738	0.085
Mof_H 	H 	0.8676	0.4831	0.9941	-0.013
Mof_C 	C 	0.7038	0.3901	0.915	-0.133
Mof_H 	H 	0.6618	0.3675	0.8934	0.084
Mof_C 	C 	0.2124	0.0085	0.6517	0.054
Mof_C 	C 	0.3079	0.8202	0.479	0.075
Mof_H 	H 	0.3493	0.7957	0.5001	-0.012
Mof_C 	C 	0.1865	0.89	0.4183	-0.137
Mof_H 	H 	0.1446	0.9125	0.3962	0.078
Mof_C 	C 	0.0024	0.0729	0.407	-0.137
Mof_H 	H 	0.0206	0.0437	0.386	0.079
Mof_C 	C 	0.9436	0.1165	0.379	0.082
Mof_H 	H 	0.9237	0.1173	0.3388	-0.006
Mof_C 	C 	0.2119	0.0534	0.7404	0.078
Mof_H 	H 	0.189	0.0773	0.7596	-0.015
Mof_C 	C 	0.7155	0.2114	0.1778	-0.135
Mof_H 	H 	0.677	0.1817	0.1561	0.069
Mof_C 	C 	0.7458	0.2048	0.2372	0.071
Mof_H 	H 	0.7269	0.1698	0.2547	-0.017
Mof_C 	C 	0.8023	0.3022	0.1849	-0.141
Mof_H 	H 	0.8241	0.3342	0.1682	0.083
Mof_C 	C 	0.2783	0.9833	0.6833	-0.142
Mof_H 	H 	0.3022	0.9591	0.6651	0.073
Mof_C 	C 	0.8284	0.2928	0.2441	0.084
Mof_H 	H 	0.8676	0.3208	0.2667	-0.021
Mof_N 	N 	0.43922	0.1154	0.91173	-0.214
Mof_N 	N 	0.79547	0.4698	0.9167	-0.193
Mof_N 	N 	0.8008	0.2461	0.27089	-0.2
Mof_N 	N 	0.65295	0.232	0.0591	-0.142
Mof_N 	N 	0.648	0.2891	0.97237	-0.139
Mof_N 	N 	0.73813	0.3224	0.06265	-0.138
Mof_N 	N 	0.9135	0.1577	0.40683	-0.187
Mof_N 	N 	0.2802	0.8132	0.42143	-0.209
Mof_N 	N 	0.2758	0.029	0.77145	-0.199
Mof_N 	N 	0.12287	0.0376	0.55853	-0.137
Mof_N 	N 	0.12625	0.9885	0.47295	-0.141
Mof_N 	N 	0.21152	0.9505	0.5646	-0.149
_end
