data_functionalizedCrystal
_audit_creation_method	'EQeq! by Chris Wilmer'
_symmetry_space_group_name_H-M	'P1'
_symmetry_Int_Tables_number	1
_symmetry_cell_setting	triclinic
loop_
_symmetry_equiv_pos_as_xyz
  x,y,z
_cell_length_a	10.83
_cell_length_b	17.049
_cell_length_c	17.293
_cell_angle_alpha	90
_cell_angle_beta	90
_cell_angle_gamma	90
loop_
_atom_site_label
_atom_site_type_symbol
_atom_site_fract_x
_atom_site_fract_y
_atom_site_fract_z
_atom_site_charge
Mof_Zn	Zn	0.67571	0.78271	0.49535	1.227
Mof_Zn	Zn	0.71365	0.60151	0.51127	1.213
Mof_Zn	Zn	0.44309	0.64813	0.4319	1.225
Mof_Zn	Zn	0.83081	0.90247	0.39254	1.228
Mof_Zn	Zn	0.82429	0.21729	0.99535	1.226
Mof_Zn	Zn	0.78635	0.39849	0.01127	1.213
Mof_Zn	Zn	0.05691	0.35187	0.9319	1.225
Mof_Zn	Zn	0.66919	0.09753	0.89254	1.228
Mof_Zn	Zn	0.32429	0.28271	0.00465	1.226
Mof_Zn	Zn	0.28635	0.10151	0.98873	1.213
Mof_Zn	Zn	0.55691	0.14813	0.0681	1.225
Mof_Zn	Zn	0.16919	0.40247	0.10746	1.228
Mof_Zn	Zn	0.17571	0.71729	0.50465	1.227
Mof_Zn	Zn	0.21365	0.89849	0.48873	1.213
Mof_Zn	Zn	0.94309	0.85187	0.5681	1.225
Mof_Zn	Zn	0.33081	0.59753	0.60746	1.228
Mof_H 	H 	0.693	0.6592	0.7362	0.055
Mof_H 	H 	0.7046	0.6771	0.2648	0.059
Mof_H 	H 	0.7428	0.5952	0.1609	0.024
Mof_H 	H 	0.7093	0.5699	0.8353	0.044
Mof_H 	H 	0.0614	0.5286	0.7763	0.053
Mof_H 	H 	0.0674	0.5346	0.2522	0.023
Mof_H 	H 	0.807	0.3408	0.2362	0.055
Mof_H 	H 	0.7954	0.3229	0.7648	0.059
Mof_H 	H 	0.7572	0.4048	0.6609	0.024
Mof_H 	H 	0.7907	0.4301	0.3353	0.043
Mof_H 	H 	0.4386	0.4714	0.2763	0.05
Mof_H 	H 	0.4326	0.4654	0.7522	0.024
Mof_H 	H 	0.307	0.1592	0.7638	0.055
Mof_H 	H 	0.2954	0.1771	0.2352	0.059
Mof_H 	H 	0.2572	0.0952	0.3391	0.025
Mof_H 	H 	0.2907	0.0699	0.6647	0.043
Mof_H 	H 	0.9386	0.0286	0.7237	0.047
Mof_H 	H 	0.9326	0.0346	0.2478	0.025
Mof_H 	H 	0.193	0.8408	0.2638	0.055
Mof_H 	H 	0.2046	0.8229	0.7352	0.059
Mof_H 	H 	0.2428	0.9048	0.8391	0.026
Mof_H 	H 	0.2093	0.9301	0.1647	0.042
Mof_H 	H 	0.5614	0.9714	0.2237	0.049
Mof_H 	H 	0.5674	0.9654	0.7478	0.025
Mof_C 	C 	0.8508	0.7321	0.3707	0.389
Mof_C 	C 	0.9834	0.6187	0.3104	-0.098
Mof_C 	C 	0.0877	0.6252	0.6558	0.406
Mof_C 	C 	0.869	0.6514	0.7001	-0.052
Mof_C 	C 	0.7677	0.6338	0.7453	-0.042
Mof_C 	C 	0.8532	0.7153	0.6406	0.375
Mof_C 	C 	0.9793	0.611	0.7065	-0.099
Mof_C 	C 	0.0809	0.6311	0.3704	0.365
Mof_C 	C 	0.7813	0.6533	0.2591	-0.071
Mof_C 	C 	0.8758	0.6706	0.3091	-0.031
Mof_C 	C 	0.9061	0.5527	0.1973	-0.166
Mof_C 	C 	0.8013	0.5998	0.2	0.053
Mof_C 	C 	0.8899	0.5394	0.8121	-0.095
Mof_C 	C 	0.776	0.58	0.8029	0.004
Mof_C 	C 	0.9247	0.4916	0.1391	0.451
Mof_C 	C 	0.9874	0.5547	0.7675	0.032
Mof_C 	C 	0.996	0.5648	0.2537	0.072
Mof_C 	C 	0.8996	0.4773	0.8773	0.394
Mof_C 	C 	0.6492	0.2679	0.8707	0.389
Mof_C 	C 	0.5166	0.3813	0.8104	-0.097
Mof_C 	C 	0.4123	0.3748	0.1558	0.406
Mof_C 	C 	0.631	0.3486	0.2001	-0.051
Mof_C 	C 	0.7323	0.3662	0.2453	-0.043
Mof_C 	C 	0.6468	0.2847	0.1406	0.375
Mof_C 	C 	0.5207	0.389	0.2065	-0.1
Mof_C 	C 	0.4191	0.3689	0.8704	0.365
Mof_C 	C 	0.7187	0.3467	0.7591	-0.07
Mof_C 	C 	0.6242	0.3294	0.8091	-0.031
Mof_C 	C 	0.5939	0.4473	0.6973	-0.165
Mof_C 	C 	0.6987	0.4002	0.7	0.052
Mof_C 	C 	0.6101	0.4606	0.3121	-0.097
Mof_C 	C 	0.724	0.42	0.3029	0.006
Mof_C 	C 	0.5753	0.5084	0.6391	0.449
Mof_C 	C 	0.5126	0.4453	0.2675	0.037
Mof_C 	C 	0.504	0.4352	0.7537	0.069
Mof_C 	C 	0.6004	0.5227	0.3773	0.397
Mof_C 	C 	0.1492	0.2321	0.1293	0.389
Mof_C 	C 	0.0166	0.1187	0.1896	-0.097
Mof_C 	C 	0.9123	0.1252	0.8442	0.404
Mof_C 	C 	0.131	0.1514	0.7999	-0.051
Mof_C 	C 	0.2323	0.1338	0.7547	-0.044
Mof_C 	C 	0.1468	0.2153	0.8594	0.375
Mof_C 	C 	0.0207	0.111	0.7935	-0.099
Mof_C 	C 	0.9191	0.1311	0.1296	0.365
Mof_C 	C 	0.2187	0.1533	0.2409	-0.069
Mof_C 	C 	0.1242	0.1706	0.1909	-0.032
Mof_C 	C 	0.0939	0.0527	0.3027	-0.162
Mof_C 	C 	0.1987	0.0998	0.3	0.051
Mof_C 	C 	0.1101	0.0394	0.6879	-0.099
Mof_C 	C 	0.224	0.08	0.6971	0.007
Mof_C 	C 	0.0753	0.9916	0.3609	0.445
Mof_C 	C 	0.0126	0.0547	0.7325	0.04
Mof_C 	C 	0.004	0.0648	0.2463	0.068
Mof_C 	C 	0.1004	0.9773	0.6227	0.398
Mof_C 	C 	0.3508	0.7679	0.6293	0.389
Mof_C 	C 	0.4834	0.8813	0.6896	-0.096
Mof_C 	C 	0.5877	0.8748	0.3442	0.406
Mof_C 	C 	0.369	0.8486	0.2999	-0.05
Mof_C 	C 	0.2677	0.8662	0.2547	-0.045
Mof_C 	C 	0.3532	0.7847	0.3594	0.375
Mof_C 	C 	0.4793	0.889	0.2935	-0.101
Mof_C 	C 	0.5809	0.8689	0.6296	0.365
Mof_C 	C 	0.2813	0.8467	0.7409	-0.069
Mof_C 	C 	0.3758	0.8294	0.6909	-0.032
Mof_C 	C 	0.4061	0.9473	0.8027	-0.162
Mof_C 	C 	0.3013	0.9002	0.8	0.051
Mof_C 	C 	0.3899	0.9606	0.1879	-0.101
Mof_C 	C 	0.276	0.92	0.1971	0.007
Mof_C 	C 	0.4247	0.0084	0.8609	0.446
Mof_C 	C 	0.4874	0.9453	0.2325	0.038
Mof_C 	C 	0.496	0.9352	0.7463	0.068
Mof_C 	C 	0.3996	0.0227	0.1227	0.399
Mof_O 	O 	0.783	0.706	0.58	-0.526
Mof_O 	O 	0.5697	0.6778	0.5041	-0.656
Mof_O 	O 	0.7698	0.7143	0.4199	-0.552
Mof_O 	O 	0.8342	0.4762	0.0925	-0.478
Mof_O 	O 	0.8141	0.464	0.9211	-0.513
Mof_O 	O 	0.0592	0.6753	0.4235	-0.447
Mof_O 	O 	0.8004	0.8757	0.5009	-0.676
Mof_O 	O 	0.1621	0.5776	0.373	-0.289
Mof_O 	O 	0.071	0.6614	0.5939	-0.477
Mof_O 	O 	0.9057	0.7786	0.6516	-0.469
Mof_O 	O 	0.9013	0.7971	0.3593	-0.446
Mof_O 	O 	0.0069	0.4436	0.8746	-0.479
Mof_O 	O 	0.1916	0.5986	0.6733	-0.501
Mof_O 	O 	0.0229	0.4544	0.1379	-0.531
Mof_O 	O 	0.717	0.294	0.08	-0.525
Mof_O 	O 	0.9303	0.3222	0.0041	-0.655
Mof_O 	O 	0.7302	0.2857	0.9199	-0.552
Mof_O 	O 	0.6658	0.5238	0.5925	-0.477
Mof_O 	O 	0.6859	0.536	0.4211	-0.514
Mof_O 	O 	0.4408	0.3247	0.9235	-0.446
Mof_O 	O 	0.6996	0.1243	0.0009	-0.675
Mof_O 	O 	0.3379	0.4224	0.873	-0.288
Mof_O 	O 	0.429	0.3386	0.0939	-0.477
Mof_O 	O 	0.5943	0.2214	0.1516	-0.468
Mof_O 	O 	0.5987	0.2029	0.8593	-0.446
Mof_O 	O 	0.4931	0.5564	0.3746	-0.481
Mof_O 	O 	0.3084	0.4014	0.1733	-0.501
Mof_O 	O 	0.4771	0.5456	0.6379	-0.529
Mof_O 	O 	0.217	0.206	0.92	-0.525
Mof_O 	O 	0.4303	0.1778	0.9959	-0.655
Mof_O 	O 	0.2302	0.2143	0.0801	-0.552
Mof_O 	O 	0.1658	0.9762	0.4075	-0.477
Mof_O 	O 	0.1859	0.964	0.5789	-0.514
Mof_O 	O 	0.9408	0.1753	0.0765	-0.446
Mof_O 	O 	0.1996	0.3757	0.9991	-0.674
Mof_O 	O 	0.8379	0.0776	0.127	-0.288
Mof_O 	O 	0.929	0.1614	0.9061	-0.478
Mof_O 	O 	0.0943	0.2786	0.8484	-0.468
Mof_O 	O 	0.0987	0.2971	0.1407	-0.446
Mof_O 	O 	0.9931	0.9436	0.6254	-0.481
Mof_O 	O 	0.8084	0.0986	0.8267	-0.502
Mof_O 	O 	0.9771	0.9544	0.3621	-0.528
Mof_O 	O 	0.283	0.794	0.42	-0.525
Mof_O 	O 	0.0697	0.8222	0.4959	-0.656
Mof_O 	O 	0.2698	0.7857	0.5801	-0.552
Mof_O 	O 	0.3342	0.0238	0.9075	-0.477
Mof_O 	O 	0.3141	0.036	0.0789	-0.514
Mof_O 	O 	0.5592	0.8247	0.5765	-0.447
Mof_O 	O 	0.3004	0.6243	0.4991	-0.676
Mof_O 	O 	0.6621	0.9224	0.627	-0.289
Mof_O 	O 	0.571	0.8386	0.4061	-0.477
Mof_O 	O 	0.4057	0.7214	0.3484	-0.469
Mof_O 	O 	0.4013	0.7029	0.6407	-0.446
Mof_O 	O 	0.5069	0.0564	0.1254	-0.481
Mof_O 	O 	0.6916	0.9014	0.3267	-0.502
Mof_O 	O 	0.5229	0.0456	0.8621	-0.529
_end
