data_functionalizedCrystal
_audit_creation_method	'EQeq! by Chris Wilmer'
_symmetry_space_group_name_H-M	'P1'
_symmetry_Int_Tables_number	1
_symmetry_cell_setting	triclinic
loop_
_symmetry_equiv_pos_as_xyz
  x,y,z
_cell_length_a	9.0056
_cell_length_b	10.7263
_cell_length_c	12.9899
_cell_angle_alpha	104.047
_cell_angle_beta	90
_cell_angle_gamma	90
loop_
_atom_site_label
_atom_site_type_symbol
_atom_site_fract_x
_atom_site_fract_y
_atom_site_fract_z
_atom_site_charge
Mof_Zn	Zn	0.61926	0.5	-0	1.195
Mof_Zn	Zn	0.93446	0	0.5	1.17
Mof_H 	H 	0.7758	0.1795	0.3868	-0.053
Mof_H 	H 	0.6028	0.17	0.2563	0.171
Mof_H 	H 	0.6195	0.7875	0.2013	0.174
Mof_H 	H 	0.7745	0.8101	0.3407	-0.071
Mof_H 	H 	0.5117	0.1153	0.0773	0.013
Mof_H 	H 	0.3773	0.1081	0.1534	0.02
Mof_H 	H 	0.3026	0.8216	0.0297	0.012
Mof_H 	H 	0.2003	0.9291	0.0983	0.039
Mof_H 	H 	0.9003	0.8088	0.8439	0.192
Mof_H 	H 	0.7077	0.6808	0.866	-0.064
Mof_H 	H 	0.8879	0.619	0.1183	-0.032
Mof_H 	H 	0.089	0.7424	0.1021	0.152
Mof_H 	H 	0.3115	0.2957	0.7557	0.055
Mof_H 	H 	0.9924	0.407	0.5831	-0.042
Mof_H 	H 	0.2377	0.6676	0.7826	0.096
Mof_H 	H 	0.7758	0.8205	0.6132	-0.063
Mof_H 	H 	0.6028	0.83	0.7437	0.142
Mof_H 	H 	0.6195	0.2125	0.7987	0.163
Mof_H 	H 	0.7745	0.1899	0.6593	-0.062
Mof_H 	H 	0.5117	0.8847	0.9227	0.003
Mof_H 	H 	0.3773	0.8919	0.8466	-0.008
Mof_H 	H 	0.3026	0.1784	0.9703	0.013
Mof_H 	H 	0.2003	0.0709	0.9017	-0.005
Mof_H 	H 	0.9003	0.1912	0.1561	0.177
Mof_H 	H 	0.7077	0.3192	0.134	-0.059
Mof_H 	H 	0.8879	0.381	0.8817	-0.042
Mof_H 	H 	0.089	0.2576	0.8979	0.124
Mof_H 	H 	0.3115	0.7043	0.2443	0.053
Mof_H 	H 	0.9924	0.593	0.4169	-0.039
Mof_H 	H 	0.2377	0.3324	0.2174	0.093
Mof_C 	C 	0.7422	0.0993	0.3494	0.166
Mof_C 	C 	0.6408	0.0949	0.2698	-0.397
Mof_C 	C 	0.5963	0.9747	0.2096	0.416
Mof_C 	C 	0.6487	0.8692	0.2384	-0.372
Mof_C 	C 	0.7432	0.8836	0.3209	0.216
Mof_C 	C 	0.4376	0.0589	0.0958	0.088
Mof_C 	C 	0.2433	0.8968	0.0285	0.121
Mof_C 	C 	0.0183	0.7884	0.9697	0.497
Mof_C 	C 	0.9011	0.7696	0.9004	-0.477
Mof_C 	C 	0.7857	0.6932	0.9143	0.256
Mof_C 	C 	0.8914	0.6569	0.0611	0.043
Mof_C 	C 	0.0125	0.7313	0.0525	-0.285
Mof_C 	C 	0.4217	0.5235	0.8567	0.322
Mof_C 	C 	0.2957	0.4876	0.7798	-0.042
Mof_C 	C 	0.2591	0.361	0.7361	0.014
Mof_C 	C 	0.1454	0.3308	0.6637	-0.099
Mof_C 	C 	0.0683	0.4275	0.6329	0.089
Mof_C 	C 	0.2159	0.5822	0.7509	-0.097
Mof_C 	C 	0.1041	0.1914	0.6168	0.372
Mof_C 	C 	0.1047	0.5549	0.6765	0.13
Mof_C 	C 	0.7422	0.9007	0.6506	0.224
Mof_C 	C 	0.6408	0.9051	0.7302	-0.279
Mof_C 	C 	0.5963	0.0253	0.7904	0.3
Mof_C 	C 	0.6487	0.1308	0.7616	-0.321
Mof_C 	C 	0.7432	0.1164	0.6791	0.171
Mof_C 	C 	0.4376	0.9411	0.9042	0.259
Mof_C 	C 	0.2433	0.1032	0.9715	0.22
Mof_C 	C 	0.0183	0.2116	0.0303	0.384
Mof_C 	C 	0.9011	0.2304	0.0996	-0.454
Mof_C 	C 	0.7857	0.3068	0.0857	0.216
Mof_C 	C 	0.8914	0.3431	0.9389	0.106
Mof_C 	C 	0.0125	0.2687	0.9475	-0.172
Mof_C 	C 	0.4217	0.4765	0.1433	0.33
Mof_C 	C 	0.2957	0.5124	0.2202	-0.06
Mof_C 	C 	0.2591	0.639	0.2639	0.018
Mof_C 	C 	0.1454	0.6692	0.3363	-0.097
Mof_C 	C 	0.0683	0.5725	0.3671	0.089
Mof_C 	C 	0.2159	0.4178	0.2491	-0.08
Mof_C 	C 	0.1041	0.8086	0.3832	0.366
Mof_C 	C 	0.1047	0.4451	0.3235	0.117
Mof_C 	C 	0.341	0	-0	-0.213
Mof_N 	N 	0.7948	0.9976	0.3762	-0.295
Mof_N 	N 	0.7795	0.6356	0.9938	-0.27
Mof_N 	N 	0.7948	0.0024	0.6238	-0.352
Mof_N 	N 	0.7795	0.3644	0.0062	-0.329
Mof_O 	O 	0.444	0.6351	0.9013	-0.308
Mof_O 	O 	0.5035	0.4332	0.872	-0.439
Mof_O 	O 	0.0139	0.1721	0.5402	-0.421
Mof_O 	O 	0.1535	0.1091	0.6546	-0.321
Mof_O 	O 	0.1289	0.8633	0.9513	-0.259
Mof_O 	O 	0.5062	0.9545	0.1258	-0.279
Mof_O 	O 	0.0294	0.65	0.6473	-0.217
Mof_O 	O 	0.444	0.3649	0.0987	-0.342
Mof_O 	O 	0.5035	0.5668	0.128	-0.467
Mof_O 	O 	0.0139	0.8279	0.4598	-0.401
Mof_O 	O 	0.1535	0.8909	0.3454	-0.292
Mof_O 	O 	0.1289	0.1367	0.0487	-0.317
Mof_O 	O 	0.5062	0.0455	0.8742	-0.311
Mof_O 	O 	0.0294	0.35	0.3527	-0.17
Mof_H 	H 	0.04992	0.74251	0.70593	0.136
Mof_H 	H 	0.96771	0.39052	0.4273	0.052
_end
