data_functionalizedCrystal
_audit_creation_method	'EQeq! by Chris Wilmer'
_symmetry_space_group_name_H-M	'P1'
_symmetry_Int_Tables_number	1
_symmetry_cell_setting	triclinic
loop_
_symmetry_equiv_pos_as_xyz
  x,y,z
_cell_length_a	26.2041
_cell_length_b	13.7663
_cell_length_c	43.6039
_cell_angle_alpha	90
_cell_angle_beta	90
_cell_angle_gamma	90
loop_
_atom_site_label
_atom_site_type_symbol
_atom_site_fract_x
_atom_site_fract_y
_atom_site_fract_z
_atom_site_charge
Mof_Zn	Zn	0.26433	0.7803	0.65296	1.183
Mof_Zn	Zn	0.51235	0.0966	0.90836	1.188
Mof_Zn	Zn	0.0192	0.1384	0.88556	1.193
Mof_C 	C 	0.2739	0.979	0.7865	0.113
Mof_C 	C 	0.2782	0.936	0.7537	0.01
Mof_C 	C 	0.322	0.893	0.7442	-0.05
Mof_C 	C 	0.2319	0.928	0.7348	-0.037
Mof_C 	C 	0.3131	0.011	0.8326	0.106
Mof_C 	C 	0.2264	0.005	0.8297	0.11
Mof_C 	C 	0.3246	0.864	0.713	0.046
Mof_C 	C 	0.2371	0.88	0.7065	0.024
Mof_C 	C 	0.3615	0.014	0.851	0.027
Mof_C 	C 	0.1762	0.023	0.8428	0.009
Mof_C 	C 	0.3608	0.026	0.8814	-0.055
Mof_C 	C 	0.4067	0.01	0.8364	-0.058
Mof_C 	C 	0.1339	0.022	0.8228	-0.054
Mof_C 	C 	0.1685	0.048	0.8737	-0.044
Mof_C 	C 	0.4042	0.059	0.8949	0.052
Mof_C 	C 	0.4502	0.037	0.8521	0.058
Mof_C 	C 	0.0865	0.029	0.8349	0.045
Mof_C 	C 	0.1195	0.07	0.8822	0.021
Mof_C 	C 	0.3375	0.8198	0.5994	0.055
Mof_C 	C 	0.3171	0.956	0.6288	0.01
Mof_C 	C 	0.3635	0.877	0.5782	-0.054
Mof_C 	C 	0.3354	0.02	0.6042	-0.031
Mof_C 	C 	0.3631	0.975	0.5815	0.012
Mof_C 	C 	0.3797	0.038	0.5566	0.113
Mof_C 	C 	0.416	0.177	0.544	0.129
Mof_C 	C 	0.4281	0.048	0.514	0.119
Mof_C 	C 	0.4315	0.278	0.5532	0.004
Mof_C 	C 	0.4432	0.007	0.482	0.009
Mof_C 	C 	0.4723	0.323	0.5378	-0.06
Mof_C 	C 	0.4152	0.321	0.5798	-0.06
Mof_C 	C 	0.469	0.07	0.4608	-0.057
Mof_C 	C 	0.4404	0.91	0.4769	-0.028
Mof_C 	C 	0.4859	0.414	0.5465	0.067
Mof_C 	C 	0.4341	0.408	0.5881	0.03
Mof_C 	C 	0.4863	0.028	0.4334	0.054
Mof_C 	C 	0.4551	0.87	0.4487	-0.013
Mof_Br	Br	0.30109	0.614	0.66567	-0.41
Mof_Br	Br	0.17998	0.7797	0.638	-0.488
Mof_Br	Br	0.57409	0.1548	0.8764	-0.486
Mof_Br	Br	0.47641	0.1706	0.95049	-0.504
Mof_Br	Br	0.95474	0.0715	0.8592	-0.482
Mof_Br	Br	0.0494	0.2986	0.89098	-0.487
Mof_N 	N 	0.3179	0.99	0.8022	-0.136
Mof_N 	N 	0.2266	0.992	0.7985	-0.136
Mof_N 	N 	0.268	0.0099	0.8484	-0.135
Mof_N 	N 	0.281	0.847	0.6964	-0.233
Mof_N 	N 	0.3182	0.85	0.626	-0.242
Mof_N 	N 	0.4476	0.06	0.881	-0.243
Mof_N 	N 	0.0795	0.0714	0.8627	-0.237
Mof_N 	N 	0.3857	0.132	0.5618	-0.151
Mof_N 	N 	0.4022	0.9903	0.5325	-0.144
Mof_N 	N 	0.443	0.138	0.5227	-0.146
Mof_N 	N 	0.4633	0.4612	0.5684	-0.227
Mof_N 	N 	0.4709	0.94	0.4261	-0.238
Mof_H 	H 	0.35472	0.88155	0.76105	0.054
Mof_H 	H 	0.19435	0.95988	0.74335	0.057
Mof_H 	H 	0.36327	0.85454	0.7014	0.029
Mof_H 	H 	0.20228	0.86835	0.69126	0.01
Mof_H 	H 	0.32472	0.00871	0.89495	0.057
Mof_H 	H 	0.40856	0.98467	0.81153	0.058
Mof_H 	H 	0.14004	0.01539	0.797	0.056
Mof_H 	H 	0.20215	0.04921	0.89026	0.051
Mof_H 	H 	0.4031	0.08725	0.91947	0.016
Mof_H 	H 	0.48852	0.03918	0.83974	0.016
Mof_H 	H 	0.0523	0.99926	0.82175	0.03
Mof_H 	H 	0.11056	0.08864	0.9071	-0.001
Mof_H 	H 	0.33115	0.73928	0.59463	0.014
Mof_H 	H 	0.30143	0.98853	0.65092	0.024
Mof_H 	H 	0.38479	0.84139	0.55836	0.051
Mof_H 	H 	0.32632	0.10096	0.60486	0.062
Mof_H 	H 	0.49298	0.28303	0.51857	0.068
Mof_H 	H 	0.3857	0.28307	0.59483	0.081
Mof_H 	H 	0.47456	0.15003	0.46663	0.077
Mof_H 	H 	0.4259	0.85955	0.49571	0.046
Mof_H 	H 	0.51865	0.45272	0.53439	0.021
Mof_H 	H 	0.42578	0.43828	0.61191	0.017
Mof_H 	H 	0.51333	0.07003	0.4178	0.017
Mof_H 	H 	0.4539	0.78798	0.44517	0.021
Mof_Zn	Zn	0.23567	0.2197	0.15296	1.184
Mof_Zn	Zn	0.98765	0.9034	0.40836	1.189
Mof_Zn	Zn	0.4808	0.8616	0.38556	1.194
Mof_C 	C 	0.2261	0.021	0.2865	0.114
Mof_C 	C 	0.2218	0.064	0.2537	0.01
Mof_C 	C 	0.178	0.107	0.2442	-0.05
Mof_C 	C 	0.2681	0.072	0.2348	-0.037
Mof_C 	C 	0.1869	0.989	0.3326	0.107
Mof_C 	C 	0.2736	0.995	0.3297	0.111
Mof_C 	C 	0.1754	0.136	0.213	0.046
Mof_C 	C 	0.2629	0.12	0.2065	0.024
Mof_C 	C 	0.1385	0.986	0.351	0.026
Mof_C 	C 	0.3238	0.977	0.3428	0.009
Mof_C 	C 	0.1392	0.974	0.3814	-0.055
Mof_C 	C 	0.0933	0.99	0.3364	-0.055
Mof_C 	C 	0.3661	0.978	0.3228	-0.055
Mof_C 	C 	0.3315	0.952	0.3737	-0.044
Mof_C 	C 	0.0958	0.941	0.3949	0.052
Mof_C 	C 	0.0498	0.963	0.3521	0.058
Mof_C 	C 	0.4135	0.971	0.3349	0.047
Mof_C 	C 	0.3805	0.93	0.3822	0.021
Mof_C 	C 	0.1625	0.1802	0.0994	0.054
Mof_C 	C 	0.1829	0.044	0.1288	0.007
Mof_C 	C 	0.1365	0.123	0.0782	-0.052
Mof_C 	C 	0.1646	0.98	0.1042	-0.027
Mof_C 	C 	0.1369	0.025	0.0815	0.007
Mof_C 	C 	0.1203	0.962	0.0566	0.116
Mof_C 	C 	0.084	0.823	0.044	0.129
Mof_C 	C 	0.0719	0.952	0.014	0.12
Mof_C 	C 	0.0685	0.722	0.0532	0.004
Mof_C 	C 	0.0568	0.993	0.982	0.011
Mof_C 	C 	0.0277	0.677	0.0378	-0.06
Mof_C 	C 	0.0848	0.679	0.0798	-0.06
Mof_C 	C 	0.031	0.93	0.9608	-0.058
Mof_C 	C 	0.0596	0.09	0.9769	-0.03
Mof_C 	C 	0.0141	0.586	0.0465	0.067
Mof_C 	C 	0.0659	0.592	0.0881	0.03
Mof_C 	C 	0.0137	0.972	0.9334	0.058
Mof_C 	C 	0.0449	0.13	0.9487	-0.012
Mof_Br	Br	0.19891	0.386	0.16567	-0.41
Mof_Br	Br	0.32002	0.2203	0.138	-0.489
Mof_Br	Br	0.92591	0.8452	0.3764	-0.487
Mof_Br	Br	0.02359	0.8294	0.45049	-0.502
Mof_Br	Br	0.54526	0.9285	0.3592	-0.483
Mof_Br	Br	0.4506	0.7014	0.39098	-0.487
Mof_N 	N 	0.1821	0.01	0.3022	-0.137
Mof_N 	N 	0.2734	0.008	0.2985	-0.137
Mof_N 	N 	0.232	0.9901	0.3484	-0.135
Mof_N 	N 	0.219	0.153	0.1964	-0.233
Mof_N 	N 	0.1818	0.15	0.126	-0.242
Mof_N 	N 	0.0524	0.94	0.381	-0.242
Mof_N 	N 	0.4205	0.9286	0.3627	-0.237
Mof_N 	N 	0.1143	0.868	0.0618	-0.152
Mof_N 	N 	0.0978	0.0097	0.0325	-0.145
Mof_N 	N 	0.057	0.862	0.0227	-0.146
Mof_N 	N 	0.0367	0.5388	0.0684	-0.227
Mof_N 	N 	0.0291	0.06	0.9261	-0.24
Mof_H 	H 	0.14528	0.11845	0.26105	0.054
Mof_H 	H 	0.30565	0.04012	0.24335	0.057
Mof_H 	H 	0.13673	0.14546	0.2014	0.029
Mof_H 	H 	0.29772	0.13165	0.19126	0.01
Mof_H 	H 	0.17528	0.99129	0.39495	0.058
Mof_H 	H 	0.09144	0.01533	0.31153	0.057
Mof_H 	H 	0.35996	0.98461	0.297	0.056
Mof_H 	H 	0.29785	0.95079	0.39026	0.051
Mof_H 	H 	0.0969	0.91275	0.41947	0.016
Mof_H 	H 	0.01148	0.96082	0.33974	0.017
Mof_H 	H 	0.4477	0.00074	0.32175	0.028
Mof_H 	H 	0.38944	0.91136	0.4071	-0.001
Mof_H 	H 	0.16885	0.26072	0.09463	0.014
Mof_H 	H 	0.19857	0.01147	0.15092	0.024
Mof_H 	H 	0.11521	0.15861	0.05836	0.05
Mof_H 	H 	0.17368	0.89904	0.10486	0.062
Mof_H 	H 	0.00702	0.71697	0.01857	0.068
Mof_H 	H 	0.1143	0.71693	0.09483	0.081
Mof_H 	H 	0.02544	0.84997	0.96663	0.078
Mof_H 	H 	0.0741	0.14045	0.99571	0.047
Mof_H 	H 	0.98135	0.54728	0.03439	0.021
Mof_H 	H 	0.07422	0.56172	0.11191	0.017
Mof_H 	H 	0.98667	0.92997	0.9178	0.016
Mof_H 	H 	0.0461	0.21202	0.94517	0.021
Mof_Zn	Zn	0.73567	0.2803	0.84704	1.184
Mof_Zn	Zn	0.48765	0.5966	0.59164	1.189
Mof_Zn	Zn	0.9808	0.6384	0.61444	1.194
Mof_C 	C 	0.7261	0.479	0.7135	0.114
Mof_C 	C 	0.7218	0.436	0.7463	0.01
Mof_C 	C 	0.678	0.393	0.7558	-0.05
Mof_C 	C 	0.7681	0.428	0.7652	-0.037
Mof_C 	C 	0.6869	0.511	0.6674	0.107
Mof_C 	C 	0.7736	0.505	0.6703	0.111
Mof_C 	C 	0.6754	0.364	0.787	0.046
Mof_C 	C 	0.7629	0.38	0.7935	0.024
Mof_C 	C 	0.6385	0.514	0.649	0.026
Mof_C 	C 	0.8238	0.523	0.6572	0.009
Mof_C 	C 	0.6392	0.526	0.6186	-0.055
Mof_C 	C 	0.5933	0.51	0.6636	-0.056
Mof_C 	C 	0.8661	0.522	0.6772	-0.055
Mof_C 	C 	0.8315	0.548	0.6263	-0.044
Mof_C 	C 	0.5958	0.559	0.6051	0.052
Mof_C 	C 	0.5498	0.537	0.6479	0.058
Mof_C 	C 	0.9135	0.529	0.6651	0.048
Mof_C 	C 	0.8805	0.57	0.6178	0.021
Mof_C 	C 	0.6625	0.3198	0.9006	0.054
Mof_C 	C 	0.6829	0.456	0.8712	0.009
Mof_C 	C 	0.6365	0.377	0.9218	-0.053
Mof_C 	C 	0.6646	0.52	0.8958	-0.029
Mof_C 	C 	0.6369	0.475	0.9185	0.01
Mof_C 	C 	0.6203	0.538	0.9434	0.114
Mof_C 	C 	0.584	0.677	0.956	0.129
Mof_C 	C 	0.5719	0.548	0.986	0.12
Mof_C 	C 	0.5685	0.778	0.9468	0.004
Mof_C 	C 	0.5568	0.507	0.018	0.009
Mof_C 	C 	0.5277	0.823	0.9622	-0.06
Mof_C 	C 	0.5848	0.821	0.9202	-0.06
Mof_C 	C 	0.531	0.57	0.0392	-0.057
Mof_C 	C 	0.5596	0.41	0.0231	-0.028
Mof_C 	C 	0.5141	0.914	0.9535	0.067
Mof_C 	C 	0.5659	0.908	0.9119	0.03
Mof_C 	C 	0.5137	0.528	0.0666	0.054
Mof_C 	C 	0.5449	0.37	0.0513	-0.013
Mof_Br	Br	0.69891	0.114	0.83433	-0.41
Mof_Br	Br	0.82002	0.2797	0.862	-0.488
Mof_Br	Br	0.42591	0.6548	0.6236	-0.486
Mof_Br	Br	0.52359	0.6706	0.54951	-0.503
Mof_Br	Br	0.04526	0.5715	0.6408	-0.482
Mof_Br	Br	0.9506	0.7986	0.60902	-0.488
Mof_N 	N 	0.6821	0.49	0.6978	-0.137
Mof_N 	N 	0.7734	0.492	0.7015	-0.137
Mof_N 	N 	0.732	0.5099	0.6516	-0.135
Mof_N 	N 	0.719	0.347	0.8036	-0.233
Mof_N 	N 	0.6818	0.35	0.874	-0.242
Mof_N 	N 	0.5524	0.56	0.619	-0.243
Mof_N 	N 	0.9205	0.5714	0.6373	-0.237
Mof_N 	N 	0.6143	0.632	0.9382	-0.152
Mof_N 	N 	0.5978	0.4903	0.9675	-0.144
Mof_N 	N 	0.557	0.638	0.9773	-0.146
Mof_N 	N 	0.5367	0.9612	0.9316	-0.226
Mof_N 	N 	0.5291	0.44	0.0739	-0.238
Mof_H 	H 	0.64528	0.38155	0.73895	0.054
Mof_H 	H 	0.80565	0.45988	0.75665	0.057
Mof_H 	H 	0.63673	0.35454	0.7986	0.029
Mof_H 	H 	0.79772	0.36835	0.80874	0.01
Mof_H 	H 	0.67528	0.50871	0.60505	0.058
Mof_H 	H 	0.59144	0.48467	0.68847	0.058
Mof_H 	H 	0.85996	0.51539	0.703	0.056
Mof_H 	H 	0.79785	0.54921	0.60974	0.051
Mof_H 	H 	0.5969	0.58725	0.58053	0.016
Mof_H 	H 	0.51148	0.53918	0.66026	0.016
Mof_H 	H 	0.9477	0.49926	0.67825	0.028
Mof_H 	H 	0.88944	0.58864	0.5929	-0.001
Mof_H 	H 	0.66885	0.23928	0.90537	0.014
Mof_H 	H 	0.69857	0.48853	0.84908	0.024
Mof_H 	H 	0.61521	0.34139	0.94164	0.051
Mof_H 	H 	0.67368	0.60096	0.89514	0.062
Mof_H 	H 	0.50702	0.78303	0.98143	0.068
Mof_H 	H 	0.6143	0.78307	0.90517	0.081
Mof_H 	H 	0.52544	0.65003	0.03337	0.077
Mof_H 	H 	0.5741	0.35955	0.00429	0.046
Mof_H 	H 	0.48135	0.95272	0.96561	0.021
Mof_H 	H 	0.57422	0.93828	0.88809	0.017
Mof_H 	H 	0.48667	0.57003	0.0822	0.017
Mof_H 	H 	0.5461	0.28798	0.05483	0.021
Mof_Zn	Zn	0.76433	0.7197	0.34704	1.184
Mof_Zn	Zn	0.01235	0.4034	0.09164	1.189
Mof_Zn	Zn	0.5192	0.3616	0.11444	1.194
Mof_C 	C 	0.7739	0.521	0.2135	0.114
Mof_C 	C 	0.7782	0.564	0.2463	0.01
Mof_C 	C 	0.822	0.607	0.2558	-0.05
Mof_C 	C 	0.7319	0.572	0.2652	-0.037
Mof_C 	C 	0.8131	0.489	0.1674	0.107
Mof_C 	C 	0.7264	0.495	0.1703	0.111
Mof_C 	C 	0.8246	0.636	0.287	0.046
Mof_C 	C 	0.7371	0.62	0.2935	0.024
Mof_C 	C 	0.8615	0.486	0.149	0.026
Mof_C 	C 	0.6762	0.477	0.1572	0.009
Mof_C 	C 	0.8608	0.474	0.1186	-0.055
Mof_C 	C 	0.9067	0.49	0.1636	-0.056
Mof_C 	C 	0.6339	0.478	0.1772	-0.055
Mof_C 	C 	0.6685	0.452	0.1263	-0.044
Mof_C 	C 	0.9042	0.441	0.1051	0.052
Mof_C 	C 	0.9502	0.463	0.1479	0.058
Mof_C 	C 	0.5865	0.471	0.1651	0.048
Mof_C 	C 	0.6195	0.43	0.1178	0.021
Mof_C 	C 	0.8375	0.6802	0.4006	0.054
Mof_C 	C 	0.8171	0.544	0.3712	0.009
Mof_C 	C 	0.8635	0.623	0.4218	-0.053
Mof_C 	C 	0.8354	0.48	0.3958	-0.029
Mof_C 	C 	0.8631	0.525	0.4185	0.01
Mof_C 	C 	0.8797	0.462	0.4434	0.114
Mof_C 	C 	0.916	0.323	0.456	0.129
Mof_C 	C 	0.9281	0.452	0.486	0.12
Mof_C 	C 	0.9315	0.222	0.4468	0.004
Mof_C 	C 	0.9432	0.493	0.518	0.009
Mof_C 	C 	0.9723	0.177	0.4622	-0.06
Mof_C 	C 	0.9152	0.179	0.4202	-0.06
Mof_C 	C 	0.969	0.43	0.5392	-0.057
Mof_C 	C 	0.9404	0.59	0.5231	-0.028
Mof_C 	C 	0.9859	0.086	0.4535	0.069
Mof_C 	C 	0.9341	0.092	0.4119	0.031
Mof_C 	C 	0.9863	0.472	0.5666	0.054
Mof_C 	C 	0.9551	0.63	0.5513	-0.013
Mof_Br	Br	0.80109	0.886	0.33433	-0.411
Mof_Br	Br	0.67998	0.7203	0.362	-0.489
Mof_Br	Br	0.07409	0.3452	0.1236	-0.486
Mof_Br	Br	0.97641	0.3294	0.04951	-0.503
Mof_Br	Br	0.45474	0.4285	0.1408	-0.483
Mof_Br	Br	0.5494	0.2014	0.10902	-0.487
Mof_N 	N 	0.8179	0.51	0.1978	-0.137
Mof_N 	N 	0.7266	0.508	0.2015	-0.137
Mof_N 	N 	0.768	0.4901	0.1516	-0.135
Mof_N 	N 	0.781	0.653	0.3036	-0.233
Mof_N 	N 	0.8182	0.65	0.374	-0.242
Mof_N 	N 	0.9476	0.44	0.119	-0.242
Mof_N 	N 	0.5795	0.4286	0.1373	-0.237
Mof_N 	N 	0.8857	0.368	0.4382	-0.151
Mof_N 	N 	0.9022	0.5097	0.4675	-0.144
Mof_N 	N 	0.943	0.362	0.4773	-0.146
Mof_N 	N 	0.9633	0.0388	0.4316	-0.226
Mof_N 	N 	0.9709	0.56	0.5739	-0.238
Mof_H 	H 	0.85472	0.61845	0.23895	0.054
Mof_H 	H 	0.69435	0.54012	0.25665	0.057
Mof_H 	H 	0.86327	0.64546	0.2986	0.029
Mof_H 	H 	0.70228	0.63165	0.30874	0.01
Mof_H 	H 	0.82472	0.49129	0.10505	0.058
Mof_H 	H 	0.90856	0.51533	0.18847	0.058
Mof_H 	H 	0.64004	0.48461	0.203	0.056
Mof_H 	H 	0.70215	0.45079	0.10974	0.051
Mof_H 	H 	0.9031	0.41275	0.08053	0.016
Mof_H 	H 	0.98852	0.46082	0.16026	0.016
Mof_H 	H 	0.5523	0.50074	0.17825	0.028
Mof_H 	H 	0.61056	0.41136	0.0929	-0.001
Mof_H 	H 	0.83115	0.76072	0.40537	0.014
Mof_H 	H 	0.80143	0.51147	0.34908	0.024
Mof_H 	H 	0.88479	0.65861	0.44164	0.051
Mof_H 	H 	0.82632	0.39904	0.39514	0.062
Mof_H 	H 	0.99298	0.21697	0.48143	0.069
Mof_H 	H 	0.8857	0.21693	0.40517	0.081
Mof_H 	H 	0.97456	0.34997	0.53337	0.078
Mof_H 	H 	0.9259	0.64045	0.50429	0.046
Mof_H 	H 	0.01865	0.04728	0.46561	0.02
Mof_H 	H 	0.92578	0.06172	0.38809	0.018
Mof_H 	H 	0.01333	0.42997	0.5822	0.017
Mof_H 	H 	0.9539	0.71202	0.55483	0.021
Mof_Zn	Zn	0.73567	0.2197	0.34704	1.184
Mof_Zn	Zn	0.48765	0.9034	0.09164	1.189
Mof_Zn	Zn	0.9808	0.8616	0.11444	1.194
Mof_C 	C 	0.7261	0.021	0.2135	0.114
Mof_C 	C 	0.7218	0.064	0.2463	0.01
Mof_C 	C 	0.678	0.107	0.2558	-0.05
Mof_C 	C 	0.7681	0.072	0.2652	-0.037
Mof_C 	C 	0.6869	0.989	0.1674	0.106
Mof_C 	C 	0.7736	0.995	0.1703	0.11
Mof_C 	C 	0.6754	0.136	0.287	0.046
Mof_C 	C 	0.7629	0.12	0.2935	0.024
Mof_C 	C 	0.6385	0.986	0.149	0.027
Mof_C 	C 	0.8238	0.977	0.1572	0.009
Mof_C 	C 	0.6392	0.974	0.1186	-0.055
Mof_C 	C 	0.5933	0.99	0.1636	-0.058
Mof_C 	C 	0.8661	0.978	0.1772	-0.054
Mof_C 	C 	0.8315	0.952	0.1263	-0.044
Mof_C 	C 	0.5958	0.941	0.1051	0.052
Mof_C 	C 	0.5498	0.963	0.1479	0.058
Mof_C 	C 	0.9135	0.971	0.1651	0.045
Mof_C 	C 	0.8805	0.93	0.1178	0.021
Mof_C 	C 	0.6625	0.1802	0.4006	0.055
Mof_C 	C 	0.6829	0.044	0.3712	0.01
Mof_C 	C 	0.6365	0.123	0.4218	-0.054
Mof_C 	C 	0.6646	0.98	0.3958	-0.031
Mof_C 	C 	0.6369	0.025	0.4185	0.012
Mof_C 	C 	0.6203	0.962	0.4434	0.113
Mof_C 	C 	0.584	0.823	0.456	0.129
Mof_C 	C 	0.5719	0.952	0.486	0.119
Mof_C 	C 	0.5685	0.722	0.4468	0.004
Mof_C 	C 	0.5568	0.993	0.518	0.009
Mof_C 	C 	0.5277	0.677	0.4622	-0.06
Mof_C 	C 	0.5848	0.679	0.4202	-0.06
Mof_C 	C 	0.531	0.93	0.5392	-0.057
Mof_C 	C 	0.5596	0.09	0.5231	-0.028
Mof_C 	C 	0.5141	0.586	0.4535	0.067
Mof_C 	C 	0.5659	0.592	0.4119	0.03
Mof_C 	C 	0.5137	0.972	0.5666	0.054
Mof_C 	C 	0.5449	0.13	0.5513	-0.013
Mof_Br	Br	0.69891	0.386	0.33433	-0.41
Mof_Br	Br	0.82002	0.2203	0.362	-0.488
Mof_Br	Br	0.42591	0.8452	0.1236	-0.486
Mof_Br	Br	0.52359	0.8294	0.04951	-0.504
Mof_Br	Br	0.04526	0.9285	0.1408	-0.482
Mof_Br	Br	0.9506	0.7014	0.10902	-0.487
Mof_N 	N 	0.6821	0.01	0.1978	-0.136
Mof_N 	N 	0.7734	0.008	0.2015	-0.136
Mof_N 	N 	0.732	0.9901	0.1516	-0.135
Mof_N 	N 	0.719	0.153	0.3036	-0.233
Mof_N 	N 	0.6818	0.15	0.374	-0.242
Mof_N 	N 	0.5524	0.94	0.119	-0.243
Mof_N 	N 	0.9205	0.9286	0.1373	-0.237
Mof_N 	N 	0.6143	0.868	0.4382	-0.151
Mof_N 	N 	0.5978	0.0097	0.4675	-0.144
Mof_N 	N 	0.557	0.862	0.4773	-0.146
Mof_N 	N 	0.5367	0.5388	0.4316	-0.227
Mof_N 	N 	0.5291	0.06	0.5739	-0.238
Mof_H 	H 	0.64528	0.11845	0.23895	0.054
Mof_H 	H 	0.80565	0.04012	0.25665	0.057
Mof_H 	H 	0.63673	0.14546	0.2986	0.029
Mof_H 	H 	0.79772	0.13165	0.30874	0.01
Mof_H 	H 	0.67528	0.99129	0.10505	0.057
Mof_H 	H 	0.59144	0.01533	0.18847	0.058
Mof_H 	H 	0.85996	0.98461	0.203	0.056
Mof_H 	H 	0.79785	0.95079	0.10974	0.051
Mof_H 	H 	0.5969	0.91275	0.08053	0.016
Mof_H 	H 	0.51148	0.96082	0.16026	0.016
Mof_H 	H 	0.9477	0.00074	0.17825	0.03
Mof_H 	H 	0.88944	0.91136	0.0929	-0.001
Mof_H 	H 	0.66885	0.26072	0.40537	0.014
Mof_H 	H 	0.69857	0.01147	0.34908	0.024
Mof_H 	H 	0.61521	0.15861	0.44164	0.051
Mof_H 	H 	0.67368	0.89904	0.39514	0.062
Mof_H 	H 	0.50702	0.71697	0.48143	0.068
Mof_H 	H 	0.6143	0.71693	0.40517	0.081
Mof_H 	H 	0.52544	0.84997	0.53337	0.077
Mof_H 	H 	0.5741	0.14045	0.50429	0.046
Mof_H 	H 	0.48135	0.54728	0.46561	0.021
Mof_H 	H 	0.57422	0.56172	0.38809	0.017
Mof_H 	H 	0.48667	0.92997	0.5822	0.017
Mof_H 	H 	0.5461	0.21202	0.55483	0.021
Mof_Zn	Zn	0.76433	0.7803	0.84704	1.184
Mof_Zn	Zn	0.01235	0.0966	0.59164	1.189
Mof_Zn	Zn	0.5192	0.1384	0.61444	1.194
Mof_C 	C 	0.7739	0.979	0.7135	0.114
Mof_C 	C 	0.7782	0.936	0.7463	0.01
Mof_C 	C 	0.822	0.893	0.7558	-0.05
Mof_C 	C 	0.7319	0.928	0.7652	-0.037
Mof_C 	C 	0.8131	0.011	0.6674	0.107
Mof_C 	C 	0.7264	0.005	0.6703	0.111
Mof_C 	C 	0.8246	0.864	0.787	0.046
Mof_C 	C 	0.7371	0.88	0.7935	0.024
Mof_C 	C 	0.8615	0.014	0.649	0.026
Mof_C 	C 	0.6762	0.023	0.6572	0.009
Mof_C 	C 	0.8608	0.026	0.6186	-0.055
Mof_C 	C 	0.9067	0.01	0.6636	-0.055
Mof_C 	C 	0.6339	0.022	0.6772	-0.055
Mof_C 	C 	0.6685	0.048	0.6263	-0.044
Mof_C 	C 	0.9042	0.059	0.6051	0.052
Mof_C 	C 	0.9502	0.037	0.6479	0.058
Mof_C 	C 	0.5865	0.029	0.6651	0.047
Mof_C 	C 	0.6195	0.07	0.6178	0.021
Mof_C 	C 	0.8375	0.8198	0.9006	0.054
Mof_C 	C 	0.8171	0.956	0.8712	0.007
Mof_C 	C 	0.8635	0.877	0.9218	-0.052
Mof_C 	C 	0.8354	0.02	0.8958	-0.027
Mof_C 	C 	0.8631	0.975	0.9185	0.007
Mof_C 	C 	0.8797	0.038	0.9434	0.116
Mof_C 	C 	0.916	0.177	0.956	0.129
Mof_C 	C 	0.9281	0.048	0.986	0.12
Mof_C 	C 	0.9315	0.278	0.9468	0.004
Mof_C 	C 	0.9432	0.007	0.018	0.011
Mof_C 	C 	0.9723	0.323	0.9622	-0.06
Mof_C 	C 	0.9152	0.321	0.9202	-0.06
Mof_C 	C 	0.969	0.07	0.0392	-0.058
Mof_C 	C 	0.9404	0.91	0.0231	-0.03
Mof_C 	C 	0.9859	0.414	0.9535	0.067
Mof_C 	C 	0.9341	0.408	0.9119	0.03
Mof_C 	C 	0.9863	0.028	0.0666	0.058
Mof_C 	C 	0.9551	0.87	0.0513	-0.012
Mof_Br	Br	0.80109	0.614	0.83433	-0.41
Mof_Br	Br	0.67998	0.7797	0.862	-0.489
Mof_Br	Br	0.07409	0.1548	0.6236	-0.487
Mof_Br	Br	0.97641	0.1706	0.54951	-0.502
Mof_Br	Br	0.45474	0.0715	0.6408	-0.483
Mof_Br	Br	0.5494	0.2986	0.60902	-0.487
Mof_N 	N 	0.8179	0.99	0.6978	-0.137
Mof_N 	N 	0.7266	0.992	0.7015	-0.137
Mof_N 	N 	0.768	0.0099	0.6516	-0.135
Mof_N 	N 	0.781	0.847	0.8036	-0.233
Mof_N 	N 	0.8182	0.85	0.874	-0.242
Mof_N 	N 	0.9476	0.06	0.619	-0.242
Mof_N 	N 	0.5795	0.0714	0.6373	-0.237
Mof_N 	N 	0.8857	0.132	0.9382	-0.152
Mof_N 	N 	0.9022	0.9903	0.9675	-0.145
Mof_N 	N 	0.943	0.138	0.9773	-0.146
Mof_N 	N 	0.9633	0.4612	0.9316	-0.227
Mof_N 	N 	0.9709	0.94	0.0739	-0.24
Mof_H 	H 	0.85472	0.88155	0.73895	0.054
Mof_H 	H 	0.69435	0.95988	0.75665	0.057
Mof_H 	H 	0.86327	0.85454	0.7986	0.029
Mof_H 	H 	0.70228	0.86835	0.80874	0.01
Mof_H 	H 	0.82472	0.00871	0.60505	0.058
Mof_H 	H 	0.90856	0.98467	0.68847	0.057
Mof_H 	H 	0.64004	0.01539	0.703	0.056
Mof_H 	H 	0.70215	0.04921	0.60974	0.051
Mof_H 	H 	0.9031	0.08725	0.58053	0.016
Mof_H 	H 	0.98852	0.03918	0.66026	0.017
Mof_H 	H 	0.5523	0.99926	0.67825	0.028
Mof_H 	H 	0.61056	0.08864	0.5929	-0.001
Mof_H 	H 	0.83115	0.73928	0.90537	0.014
Mof_H 	H 	0.80143	0.98853	0.84908	0.024
Mof_H 	H 	0.88479	0.84139	0.94164	0.05
Mof_H 	H 	0.82632	0.10096	0.89514	0.062
Mof_H 	H 	0.99298	0.28303	0.98143	0.068
Mof_H 	H 	0.8857	0.28307	0.90517	0.081
Mof_H 	H 	0.97456	0.15003	0.03337	0.078
Mof_H 	H 	0.9259	0.85955	0.00429	0.047
Mof_H 	H 	0.01865	0.45272	0.96561	0.021
Mof_H 	H 	0.92578	0.43828	0.88809	0.017
Mof_H 	H 	0.01333	0.07003	0.0822	0.016
Mof_H 	H 	0.9539	0.78798	0.05483	0.021
Mof_Zn	Zn	0.26433	0.7197	0.15296	1.184
Mof_Zn	Zn	0.51235	0.4034	0.40836	1.189
Mof_Zn	Zn	0.0192	0.3616	0.38556	1.194
Mof_C 	C 	0.2739	0.521	0.2865	0.114
Mof_C 	C 	0.2782	0.564	0.2537	0.01
Mof_C 	C 	0.322	0.607	0.2442	-0.05
Mof_C 	C 	0.2319	0.572	0.2348	-0.037
Mof_C 	C 	0.3131	0.489	0.3326	0.107
Mof_C 	C 	0.2264	0.495	0.3297	0.111
Mof_C 	C 	0.3246	0.636	0.213	0.046
Mof_C 	C 	0.2371	0.62	0.2065	0.024
Mof_C 	C 	0.3615	0.486	0.351	0.026
Mof_C 	C 	0.1762	0.477	0.3428	0.009
Mof_C 	C 	0.3608	0.474	0.3814	-0.055
Mof_C 	C 	0.4067	0.49	0.3364	-0.056
Mof_C 	C 	0.1339	0.478	0.3228	-0.055
Mof_C 	C 	0.1685	0.452	0.3737	-0.044
Mof_C 	C 	0.4042	0.441	0.3949	0.052
Mof_C 	C 	0.4502	0.463	0.3521	0.058
Mof_C 	C 	0.0865	0.471	0.3349	0.048
Mof_C 	C 	0.1195	0.43	0.3822	0.021
Mof_C 	C 	0.3375	0.6802	0.0994	0.054
Mof_C 	C 	0.3171	0.544	0.1288	0.009
Mof_C 	C 	0.3635	0.623	0.0782	-0.053
Mof_C 	C 	0.3354	0.48	0.1042	-0.029
Mof_C 	C 	0.3631	0.525	0.0815	0.01
Mof_C 	C 	0.3797	0.462	0.0566	0.114
Mof_C 	C 	0.416	0.323	0.044	0.129
Mof_C 	C 	0.4281	0.452	0.014	0.12
Mof_C 	C 	0.4315	0.222	0.0532	0.004
Mof_C 	C 	0.4432	0.493	0.982	0.009
Mof_C 	C 	0.4723	0.177	0.0378	-0.06
Mof_C 	C 	0.4152	0.179	0.0798	-0.06
Mof_C 	C 	0.469	0.43	0.9608	-0.057
Mof_C 	C 	0.4404	0.59	0.9769	-0.028
Mof_C 	C 	0.4859	0.086	0.0465	0.067
Mof_C 	C 	0.4341	0.092	0.0881	0.03
Mof_C 	C 	0.4863	0.472	0.9334	0.054
Mof_C 	C 	0.4551	0.63	0.9487	-0.013
Mof_Br	Br	0.30109	0.886	0.16567	-0.41
Mof_Br	Br	0.17998	0.7203	0.138	-0.488
Mof_Br	Br	0.57409	0.3452	0.3764	-0.486
Mof_Br	Br	0.47641	0.3294	0.45049	-0.503
Mof_Br	Br	0.95474	0.4285	0.3592	-0.482
Mof_Br	Br	0.0494	0.2014	0.39098	-0.488
Mof_N 	N 	0.3179	0.51	0.3022	-0.137
Mof_N 	N 	0.2266	0.508	0.2985	-0.137
Mof_N 	N 	0.268	0.4901	0.3484	-0.135
Mof_N 	N 	0.281	0.653	0.1964	-0.233
Mof_N 	N 	0.3182	0.65	0.126	-0.242
Mof_N 	N 	0.4476	0.44	0.381	-0.243
Mof_N 	N 	0.0795	0.4286	0.3627	-0.237
Mof_N 	N 	0.3857	0.368	0.0618	-0.152
Mof_N 	N 	0.4022	0.5097	0.0325	-0.144
Mof_N 	N 	0.443	0.362	0.0227	-0.146
Mof_N 	N 	0.4633	0.0388	0.0684	-0.226
Mof_N 	N 	0.4709	0.56	0.9261	-0.238
Mof_H 	H 	0.35472	0.61845	0.26105	0.054
Mof_H 	H 	0.19435	0.54012	0.24335	0.057
Mof_H 	H 	0.36327	0.64546	0.2014	0.029
Mof_H 	H 	0.20228	0.63165	0.19126	0.01
Mof_H 	H 	0.32472	0.49129	0.39495	0.058
Mof_H 	H 	0.40856	0.51533	0.31153	0.058
Mof_H 	H 	0.14004	0.48461	0.297	0.056
Mof_H 	H 	0.20215	0.45079	0.39026	0.051
Mof_H 	H 	0.4031	0.41275	0.41947	0.016
Mof_H 	H 	0.48852	0.46082	0.33974	0.016
Mof_H 	H 	0.0523	0.50074	0.32175	0.028
Mof_H 	H 	0.11056	0.41136	0.4071	-0.001
Mof_H 	H 	0.33115	0.76072	0.09463	0.014
Mof_H 	H 	0.30143	0.51147	0.15092	0.024
Mof_H 	H 	0.38479	0.65861	0.05836	0.051
Mof_H 	H 	0.32632	0.39904	0.10486	0.062
Mof_H 	H 	0.49298	0.21697	0.01857	0.068
Mof_H 	H 	0.3857	0.21693	0.09483	0.081
Mof_H 	H 	0.47456	0.34997	0.96663	0.077
Mof_H 	H 	0.4259	0.64045	0.99571	0.046
Mof_H 	H 	0.51865	0.04728	0.03439	0.021
Mof_H 	H 	0.42578	0.06172	0.11191	0.017
Mof_H 	H 	0.51333	0.42997	0.9178	0.017
Mof_H 	H 	0.4539	0.71202	0.94517	0.021
Mof_Zn	Zn	0.23567	0.2803	0.65296	1.184
Mof_Zn	Zn	0.98765	0.5966	0.90836	1.189
Mof_Zn	Zn	0.4808	0.6384	0.88556	1.194
Mof_C 	C 	0.2261	0.479	0.7865	0.114
Mof_C 	C 	0.2218	0.436	0.7537	0.01
Mof_C 	C 	0.178	0.393	0.7442	-0.05
Mof_C 	C 	0.2681	0.428	0.7348	-0.037
Mof_C 	C 	0.1869	0.511	0.8326	0.107
Mof_C 	C 	0.2736	0.505	0.8297	0.111
Mof_C 	C 	0.1754	0.364	0.713	0.046
Mof_C 	C 	0.2629	0.38	0.7065	0.024
Mof_C 	C 	0.1385	0.514	0.851	0.026
Mof_C 	C 	0.3238	0.523	0.8428	0.009
Mof_C 	C 	0.1392	0.526	0.8814	-0.055
Mof_C 	C 	0.0933	0.51	0.8364	-0.056
Mof_C 	C 	0.3661	0.522	0.8228	-0.055
Mof_C 	C 	0.3315	0.548	0.8737	-0.044
Mof_C 	C 	0.0958	0.559	0.8949	0.052
Mof_C 	C 	0.0498	0.537	0.8521	0.058
Mof_C 	C 	0.4135	0.529	0.8349	0.048
Mof_C 	C 	0.3805	0.57	0.8822	0.021
Mof_C 	C 	0.1625	0.3198	0.5994	0.054
Mof_C 	C 	0.1829	0.456	0.6288	0.009
Mof_C 	C 	0.1365	0.377	0.5782	-0.053
Mof_C 	C 	0.1646	0.52	0.6042	-0.029
Mof_C 	C 	0.1369	0.475	0.5815	0.01
Mof_C 	C 	0.1203	0.538	0.5566	0.114
Mof_C 	C 	0.084	0.677	0.544	0.129
Mof_C 	C 	0.0719	0.548	0.514	0.12
Mof_C 	C 	0.0685	0.778	0.5532	0.004
Mof_C 	C 	0.0568	0.507	0.482	0.009
Mof_C 	C 	0.0277	0.823	0.5378	-0.06
Mof_C 	C 	0.0848	0.821	0.5798	-0.06
Mof_C 	C 	0.031	0.57	0.4608	-0.057
Mof_C 	C 	0.0596	0.41	0.4769	-0.028
Mof_C 	C 	0.0141	0.914	0.5465	0.069
Mof_C 	C 	0.0659	0.908	0.5881	0.031
Mof_C 	C 	0.0137	0.528	0.4334	0.054
Mof_C 	C 	0.0449	0.37	0.4487	-0.013
Mof_Br	Br	0.19891	0.114	0.66567	-0.411
Mof_Br	Br	0.32002	0.2797	0.638	-0.489
Mof_Br	Br	0.92591	0.6548	0.8764	-0.486
Mof_Br	Br	0.02359	0.6706	0.95049	-0.503
Mof_Br	Br	0.54526	0.5715	0.8592	-0.483
Mof_Br	Br	0.4506	0.7986	0.89098	-0.487
Mof_N 	N 	0.1821	0.49	0.8022	-0.137
Mof_N 	N 	0.2734	0.492	0.7985	-0.137
Mof_N 	N 	0.232	0.5099	0.8484	-0.135
Mof_N 	N 	0.219	0.347	0.6964	-0.233
Mof_N 	N 	0.1818	0.35	0.626	-0.242
Mof_N 	N 	0.0524	0.56	0.881	-0.242
Mof_N 	N 	0.4205	0.5714	0.8627	-0.237
Mof_N 	N 	0.1143	0.632	0.5618	-0.151
Mof_N 	N 	0.0978	0.4903	0.5325	-0.144
Mof_N 	N 	0.057	0.638	0.5227	-0.146
Mof_N 	N 	0.0367	0.9612	0.5684	-0.226
Mof_N 	N 	0.0291	0.44	0.4261	-0.238
Mof_H 	H 	0.14528	0.38155	0.76105	0.054
Mof_H 	H 	0.30565	0.45988	0.74335	0.057
Mof_H 	H 	0.13673	0.35454	0.7014	0.029
Mof_H 	H 	0.29772	0.36835	0.69126	0.01
Mof_H 	H 	0.17528	0.50871	0.89495	0.058
Mof_H 	H 	0.09144	0.48467	0.81153	0.058
Mof_H 	H 	0.35996	0.51539	0.797	0.056
Mof_H 	H 	0.29785	0.54921	0.89026	0.051
Mof_H 	H 	0.0969	0.58725	0.91947	0.016
Mof_H 	H 	0.01148	0.53918	0.83974	0.016
Mof_H 	H 	0.4477	0.49926	0.82175	0.028
Mof_H 	H 	0.38944	0.58864	0.9071	-0.001
Mof_H 	H 	0.16885	0.23928	0.59463	0.014
Mof_H 	H 	0.19857	0.48853	0.65092	0.024
Mof_H 	H 	0.11521	0.34139	0.55836	0.051
Mof_H 	H 	0.17368	0.60096	0.60486	0.062
Mof_H 	H 	0.00702	0.78303	0.51857	0.069
Mof_H 	H 	0.1143	0.78307	0.59483	0.081
Mof_H 	H 	0.02544	0.65003	0.46663	0.078
Mof_H 	H 	0.0741	0.35955	0.49571	0.046
Mof_H 	H 	0.98135	0.95272	0.53439	0.02
Mof_H 	H 	0.07422	0.93828	0.61191	0.018
Mof_H 	H 	0.98667	0.57003	0.4178	0.017
Mof_H 	H 	0.0461	0.28798	0.44517	0.021
_end
