data_functionalizedCrystal
_audit_creation_method	'EQeq! by Chris Wilmer'
_symmetry_space_group_name_H-M	'P1'
_symmetry_Int_Tables_number	1
_symmetry_cell_setting	triclinic
loop_
_symmetry_equiv_pos_as_xyz
  x,y,z
_cell_length_a	19.848
_cell_length_b	19.848
_cell_length_c	27.853
_cell_angle_alpha	90
_cell_angle_beta	90
_cell_angle_gamma	120
loop_
_atom_site_label
_atom_site_type_symbol
_atom_site_fract_x
_atom_site_fract_y
_atom_site_fract_z
_atom_site_charge
Mof_Yb	Yb	0.58033	0.2146	0.75	1.756
Mof_Yb	Yb	0.63427	0.41967	0.75	1.756
Mof_Yb	Yb	0.7854	0.36573	0.75	1.757
Mof_Yb	Yb	0.36573	0.7854	0.25	1.757
Mof_Yb	Yb	0.2146	0.58033	0.25	1.757
Mof_Yb	Yb	0.41967	0.63427	0.25	1.757
Mof_H 	H 	0.8408	0.2463	0.8664	-0.022
Mof_H 	H 	0.8655	0.1794	0.924	0.099
Mof_H 	H 	0.6424	0.0154	0.9221	0.097
Mof_H 	H 	0.6192	0.0839	0.8637	-0.023
Mof_H 	H 	0.8799	0.0752	0.945	0.053
Mof_H 	H 	0.4055	0.1592	0.8664	-0.022
Mof_H 	H 	0.3139	0.1345	0.924	0.099
Mof_H 	H 	0.373	0.3576	0.9221	0.097
Mof_H 	H 	0.4647	0.3808	0.8637	-0.023
Mof_H 	H 	0.1953	0.1201	0.945	0.053
Mof_H 	H 	0.7537	0.5945	0.8664	-0.022
Mof_H 	H 	0.8206	0.6861	0.924	0.099
Mof_H 	H 	0.9846	0.627	0.9221	0.097
Mof_H 	H 	0.9161	0.5353	0.8637	-0.023
Mof_H 	H 	0.9248	0.8047	0.945	0.053
Mof_H 	H 	0.8408	0.2463	0.6336	-0.022
Mof_H 	H 	0.8655	0.1794	0.576	0.099
Mof_H 	H 	0.6424	0.0154	0.5779	0.097
Mof_H 	H 	0.6192	0.0839	0.6363	-0.023
Mof_H 	H 	0.8799	0.0752	0.555	0.053
Mof_H 	H 	0.4055	0.1592	0.6336	-0.022
Mof_H 	H 	0.3139	0.1345	0.576	0.099
Mof_H 	H 	0.373	0.3576	0.5779	0.097
Mof_H 	H 	0.4647	0.3808	0.6363	-0.023
Mof_H 	H 	0.1953	0.1201	0.555	0.053
Mof_H 	H 	0.7537	0.5945	0.6336	-0.022
Mof_H 	H 	0.8206	0.6861	0.576	0.099
Mof_H 	H 	0.9846	0.627	0.5779	0.097
Mof_H 	H 	0.9161	0.5353	0.6363	-0.023
Mof_H 	H 	0.9248	0.8047	0.555	0.053
Mof_H 	H 	0.5945	0.7537	0.1336	-0.022
Mof_H 	H 	0.6861	0.8206	0.076	0.099
Mof_H 	H 	0.627	0.9846	0.0779	0.097
Mof_H 	H 	0.5353	0.9161	0.1363	-0.023
Mof_H 	H 	0.8047	0.9248	0.055	0.053
Mof_H 	H 	0.2463	0.8408	0.1336	-0.022
Mof_H 	H 	0.1794	0.8655	0.076	0.099
Mof_H 	H 	0.0154	0.6424	0.0779	0.097
Mof_H 	H 	0.0839	0.6192	0.1363	-0.023
Mof_H 	H 	0.0752	0.8799	0.055	0.053
Mof_H 	H 	0.1592	0.4055	0.1336	-0.022
Mof_H 	H 	0.1345	0.3139	0.076	0.099
Mof_H 	H 	0.3576	0.373	0.0779	0.097
Mof_H 	H 	0.3808	0.4647	0.1363	-0.023
Mof_H 	H 	0.1201	0.1953	0.055	0.053
Mof_H 	H 	0.5945	0.7537	0.3664	-0.022
Mof_H 	H 	0.6861	0.8206	0.424	0.099
Mof_H 	H 	0.627	0.9846	0.4221	0.097
Mof_H 	H 	0.5353	0.9161	0.3637	-0.023
Mof_H 	H 	0.8047	0.9248	0.445	0.053
Mof_H 	H 	0.2463	0.8408	0.3664	-0.022
Mof_H 	H 	0.1794	0.8655	0.424	0.099
Mof_H 	H 	0.0154	0.6424	0.4221	0.097
Mof_H 	H 	0.0839	0.6192	0.3637	-0.023
Mof_H 	H 	0.0752	0.8799	0.445	0.053
Mof_H 	H 	0.1592	0.4055	0.3664	-0.022
Mof_H 	H 	0.1345	0.3139	0.424	0.099
Mof_H 	H 	0.3576	0.373	0.4221	0.097
Mof_H 	H 	0.3808	0.4647	0.3637	-0.023
Mof_H 	H 	0.1201	0.1953	0.445	0.053
Mof_H 	H 	0.6684	0	-0	0.047
Mof_H 	H 	0.3316	0.3316	-0	0.047
Mof_H 	H 	4.78557e-17	0.6684	-0	0.047
Mof_H 	H 	0.6684	-2.12522e-32	0.5	0.047
Mof_H 	H 	0.3316	0.3316	0.5	0.047
Mof_H 	H 	5.7639e-17	0.6684	0.5	0.047
Mof_H 	H 	-0	0.1168	-0	0.075
Mof_H 	H 	0.1168	0	-0	0.075
Mof_H 	H 	0.8832	0.8832	-0	0.075
Mof_H 	H 	-2.18072e-18	0.1168	0.5	0.075
Mof_H 	H 	0.1168	-2.12522e-32	0.5	0.075
Mof_H 	H 	0.8832	0.8832	0.5	0.075
Mof_C 	C 	0.7115	0.2143	0.8195	0.512
Mof_C 	C 	0.7274	0.1708	0.8585	-0.244
Mof_C 	C 	0.8004	0.199	0.8774	0.15
Mof_C 	C 	0.8153	0.1594	0.9121	-0.213
Mof_C 	C 	0.7568	0.0908	0.9291	0.122
Mof_C 	C 	0.6831	0.0623	0.9108	-0.207
Mof_C 	C 	0.6693	0.1033	0.8756	0.15
Mof_C 	C 	0.7716	0.0443	0.9658	-0.01
Mof_C 	C 	0.8411	0.0446	0.9669	-0.075
Mof_C 	C 	0.5028	0.2885	0.8195	0.512
Mof_C 	C 	0.4434	0.2726	0.8585	-0.244
Mof_C 	C 	0.3986	0.1996	0.8774	0.151
Mof_C 	C 	0.3441	0.1847	0.9121	-0.213
Mof_C 	C 	0.334	0.2432	0.9291	0.122
Mof_C 	C 	0.3792	0.3169	0.9108	-0.207
Mof_C 	C 	0.434	0.3307	0.8756	0.15
Mof_C 	C 	0.2727	0.2284	0.9658	-0.01
Mof_C 	C 	0.2035	0.1589	0.9669	-0.075
Mof_C 	C 	0.7857	0.4972	0.8195	0.512
Mof_C 	C 	0.8292	0.5566	0.8585	-0.244
Mof_C 	C 	0.801	0.6014	0.8774	0.15
Mof_C 	C 	0.8406	0.6559	0.9121	-0.213
Mof_C 	C 	0.9092	0.666	0.9291	0.122
Mof_C 	C 	0.9377	0.6208	0.9108	-0.207
Mof_C 	C 	0.8967	0.566	0.8756	0.15
Mof_C 	C 	0.9557	0.7273	0.9658	-0.01
Mof_C 	C 	0.9554	0.7965	0.9669	-0.075
Mof_C 	C 	0.7115	0.2143	0.6805	0.512
Mof_C 	C 	0.7274	0.1708	0.6415	-0.244
Mof_C 	C 	0.8004	0.199	0.6226	0.15
Mof_C 	C 	0.8153	0.1594	0.5879	-0.213
Mof_C 	C 	0.7568	0.0908	0.5709	0.122
Mof_C 	C 	0.6831	0.0623	0.5892	-0.207
Mof_C 	C 	0.6693	0.1033	0.6244	0.15
Mof_C 	C 	0.7716	0.0443	0.5342	-0.009
Mof_C 	C 	0.8411	0.0446	0.5331	-0.075
Mof_C 	C 	0.5028	0.2885	0.6805	0.512
Mof_C 	C 	0.4434	0.2726	0.6415	-0.244
Mof_C 	C 	0.3986	0.1996	0.6226	0.151
Mof_C 	C 	0.3441	0.1847	0.5879	-0.213
Mof_C 	C 	0.334	0.2432	0.5709	0.122
Mof_C 	C 	0.3792	0.3169	0.5892	-0.207
Mof_C 	C 	0.434	0.3307	0.6244	0.15
Mof_C 	C 	0.2727	0.2284	0.5342	-0.009
Mof_C 	C 	0.2035	0.1589	0.5331	-0.075
Mof_C 	C 	0.7857	0.4972	0.6805	0.512
Mof_C 	C 	0.8292	0.5566	0.6415	-0.244
Mof_C 	C 	0.801	0.6014	0.6226	0.151
Mof_C 	C 	0.8406	0.6559	0.5879	-0.213
Mof_C 	C 	0.9092	0.666	0.5709	0.122
Mof_C 	C 	0.9377	0.6208	0.5892	-0.207
Mof_C 	C 	0.8967	0.566	0.6244	0.15
Mof_C 	C 	0.9557	0.7273	0.5342	-0.009
Mof_C 	C 	0.9554	0.7965	0.5331	-0.075
Mof_C 	C 	0.4972	0.7857	0.1805	0.512
Mof_C 	C 	0.5566	0.8292	0.1415	-0.244
Mof_C 	C 	0.6014	0.801	0.1226	0.151
Mof_C 	C 	0.6559	0.8406	0.0879	-0.213
Mof_C 	C 	0.666	0.9092	0.0709	0.122
Mof_C 	C 	0.6208	0.9377	0.0892	-0.207
Mof_C 	C 	0.566	0.8967	0.1244	0.15
Mof_C 	C 	0.7273	0.9557	0.0342	-0.009
Mof_C 	C 	0.7965	0.9554	0.0331	-0.075
Mof_C 	C 	0.2143	0.7115	0.1805	0.512
Mof_C 	C 	0.1708	0.7274	0.1415	-0.244
Mof_C 	C 	0.199	0.8004	0.1226	0.15
Mof_C 	C 	0.1594	0.8153	0.0879	-0.213
Mof_C 	C 	0.0908	0.7568	0.0709	0.122
Mof_C 	C 	0.0623	0.6831	0.0892	-0.207
Mof_C 	C 	0.1033	0.6693	0.1244	0.15
Mof_C 	C 	0.0443	0.7716	0.0342	-0.009
Mof_C 	C 	0.0446	0.8411	0.0331	-0.075
Mof_C 	C 	0.2885	0.5028	0.1805	0.512
Mof_C 	C 	0.2726	0.4434	0.1415	-0.244
Mof_C 	C 	0.1996	0.3986	0.1226	0.151
Mof_C 	C 	0.1847	0.3441	0.0879	-0.213
Mof_C 	C 	0.2432	0.334	0.0709	0.122
Mof_C 	C 	0.3169	0.3792	0.0892	-0.207
Mof_C 	C 	0.3307	0.434	0.1244	0.15
Mof_C 	C 	0.2284	0.2727	0.0342	-0.009
Mof_C 	C 	0.1589	0.2035	0.0331	-0.075
Mof_C 	C 	0.4972	0.7857	0.3195	0.512
Mof_C 	C 	0.5566	0.8292	0.3585	-0.244
Mof_C 	C 	0.6014	0.801	0.3774	0.151
Mof_C 	C 	0.6559	0.8406	0.4121	-0.213
Mof_C 	C 	0.666	0.9092	0.4291	0.122
Mof_C 	C 	0.6208	0.9377	0.4108	-0.207
Mof_C 	C 	0.566	0.8967	0.3756	0.15
Mof_C 	C 	0.7273	0.9557	0.4658	-0.009
Mof_C 	C 	0.7965	0.9554	0.4669	-0.075
Mof_C 	C 	0.2143	0.7115	0.3195	0.512
Mof_C 	C 	0.1708	0.7274	0.3585	-0.244
Mof_C 	C 	0.199	0.8004	0.3774	0.15
Mof_C 	C 	0.1594	0.8153	0.4121	-0.213
Mof_C 	C 	0.0908	0.7568	0.4291	0.122
Mof_C 	C 	0.0623	0.6831	0.4108	-0.207
Mof_C 	C 	0.1033	0.6693	0.3756	0.15
Mof_C 	C 	0.0443	0.7716	0.4658	-0.009
Mof_C 	C 	0.0446	0.8411	0.4669	-0.075
Mof_C 	C 	0.2885	0.5028	0.3195	0.512
Mof_C 	C 	0.2726	0.4434	0.3585	-0.244
Mof_C 	C 	0.1996	0.3986	0.3774	0.151
Mof_C 	C 	0.1847	0.3441	0.4121	-0.213
Mof_C 	C 	0.2432	0.334	0.4291	0.122
Mof_C 	C 	0.3169	0.3792	0.4108	-0.207
Mof_C 	C 	0.3307	0.434	0.3756	0.15
Mof_C 	C 	0.2284	0.2727	0.4658	-0.009
Mof_C 	C 	0.1589	0.2035	0.4669	-0.075
Mof_C 	C 	0.7152	0	-0	-0.066
Mof_C 	C 	0.8545	0	-0	0.01
Mof_C 	C 	0.9301	0	-0	0.064
Mof_C 	C 	0.2848	0.2848	-0	-0.066
Mof_C 	C 	0.1455	0.1455	-0	0.01
Mof_C 	C 	0.0699	0.0699	-0	0.065
Mof_C 	C 	-0	0.7152	-0	-0.066
Mof_C 	C 	9.57115e-17	0.8545	-0	0.01
Mof_C 	C 	-0	0.9301	-0	0.064
Mof_C 	C 	0.7152	-2.12522e-32	0.5	-0.066
Mof_C 	C 	0.8545	-2.12522e-32	0.5	0.009
Mof_C 	C 	0.9301	-2.12522e-32	0.5	0.064
Mof_C 	C 	0.2848	0.2848	0.5	-0.066
Mof_C 	C 	0.1455	0.1455	0.5	0.01
Mof_C 	C 	0.0699	0.0699	0.5	0.065
Mof_C 	C 	5.7639e-17	0.7152	0.5	-0.066
Mof_C 	C 	5.7639e-17	0.8545	0.5	0.009
Mof_C 	C 	-8.59283e-17	0.9301	0.5	0.064
Mof_C 	C 	5.98197e-18	0.0699	-0	-0.135
Mof_C 	C 	0.0699	0	-0	-0.135
Mof_C 	C 	0.9301	0.9301	-0	-0.135
Mof_C 	C 	1.57652e-17	0.0699	0.5	-0.135
Mof_C 	C 	0.0699	-2.12522e-32	0.5	-0.135
Mof_C 	C 	0.9301	0.9301	0.5	-0.135
Mof_O 	O 	0.6438	0.1864	0.8049	-0.565
Mof_O 	O 	0.7689	0.2787	0.8054	-0.555
Mof_O 	O 	0.5426	0.3562	0.8049	-0.565
Mof_O 	O 	0.5098	0.2311	0.8054	-0.555
Mof_O 	O 	0.8136	0.4574	0.8049	-0.565
Mof_O 	O 	0.7213	0.4902	0.8054	-0.555
Mof_O 	O 	0.6438	0.1864	0.6951	-0.565
Mof_O 	O 	0.7689	0.2787	0.6946	-0.555
Mof_O 	O 	0.5426	0.3562	0.6951	-0.565
Mof_O 	O 	0.5098	0.2311	0.6946	-0.555
Mof_O 	O 	0.8136	0.4574	0.6951	-0.565
Mof_O 	O 	0.7213	0.4902	0.6946	-0.555
Mof_O 	O 	0.4574	0.8136	0.1951	-0.565
Mof_O 	O 	0.4902	0.7213	0.1946	-0.555
Mof_O 	O 	0.1864	0.6438	0.1951	-0.565
Mof_O 	O 	0.2787	0.7689	0.1946	-0.555
Mof_O 	O 	0.3562	0.5426	0.1951	-0.565
Mof_O 	O 	0.2311	0.5098	0.1946	-0.555
Mof_O 	O 	0.4574	0.8136	0.3049	-0.565
Mof_O 	O 	0.4902	0.7213	0.3054	-0.555
Mof_O 	O 	0.1864	0.6438	0.3049	-0.565
Mof_O 	O 	0.2787	0.7689	0.3054	-0.555
Mof_O 	O 	0.3562	0.5426	0.3049	-0.565
Mof_O 	O 	0.2311	0.5098	0.3054	-0.555
Mof_O 	O 	0.66667	0.33334	0.75	-0.877
Mof_O 	O 	0.33333	0.66666	0.25	-0.877
_end
