data_functionalizedCrystal
_audit_creation_method	'EQeq! by Chris Wilmer'
_symmetry_space_group_name_H-M	'P1'
_symmetry_Int_Tables_number	1
_symmetry_cell_setting	triclinic
loop_
_symmetry_equiv_pos_as_xyz
  x,y,z
_cell_length_a	17.0615
_cell_length_b	17.0615
_cell_length_c	21.2553
_cell_angle_alpha	66.3376
_cell_angle_beta	66.3376
_cell_angle_gamma	60
loop_
_atom_site_label
_atom_site_type_symbol
_atom_site_fract_x
_atom_site_fract_y
_atom_site_fract_z
_atom_site_charge
Mof_Eu	Eu	0.60446	0.44733	0.60316	2.535
Mof_Eu	Eu	0.44733	0.34505	0.60316	2.535
Mof_Eu	Eu	0.34505	0.60446	0.60316	2.535
Mof_Eu	Eu	0.89554	0.15495	0.89684	2.521
Mof_Eu	Eu	0.05267	0.89554	0.89684	2.516
Mof_Eu	Eu	0.15495	0.05267	0.89684	2.548
Mof_Eu	Eu	0.39554	0.55267	0.39684	2.535
Mof_Eu	Eu	0.55267	0.65495	0.39684	2.536
Mof_Eu	Eu	0.65495	0.39554	0.39684	2.536
Mof_Eu	Eu	0.10446	0.84505	0.10316	2.517
Mof_Eu	Eu	0.94733	0.10446	0.10316	2.518
Mof_Eu	Eu	0.84505	0.94733	0.10316	2.555
Mof_Eu	Eu	0.75	0.27623	0.75	2.32
Mof_Eu	Eu	0.27623	0.22377	0.75	2.322
Mof_Eu	Eu	0.22377	0.75	0.75	2.321
Mof_Eu	Eu	0.25	0.72377	0.25	2.32
Mof_Eu	Eu	0.72377	0.77623	0.25	2.323
Mof_Eu	Eu	0.77623	0.25	0.25	2.32
Mof_H 	H 	0.9679	0.2216	0.4477	-0.034
Mof_H 	H 	0.0676	0.1259	0.5212	0.114
Mof_H 	H 	0.0112	0.1255	0.64	-0.04
Mof_H 	H 	0.4659	0.6625	0.7969	-0.054
Mof_H 	H 	0.579	0.5967	0.862	0.133
Mof_H 	H 	0.6833	0.4457	0.8659	-0.049
Mof_H 	H 	0.2216	0.3628	0.4477	-0.04
Mof_H 	H 	0.1259	0.2853	0.5212	0.123
Mof_H 	H 	0.1255	0.2233	0.64	-0.052
Mof_H 	H 	0.6625	0.0747	0.7969	-0.054
Mof_H 	H 	0.5967	0.9623	0.862	0.133
Mof_H 	H 	0.4457	0.0051	0.8659	-0.049
Mof_H 	H 	0.3628	0.9679	0.4477	-0.036
Mof_H 	H 	0.2853	0.0676	0.5212	0.116
Mof_H 	H 	0.2233	0.0112	0.64	-0.045
Mof_H 	H 	0.0747	0.4659	0.7969	-0.053
Mof_H 	H 	0.9623	0.579	0.862	0.132
Mof_H 	H 	0.0051	0.6833	0.8659	-0.05
Mof_H 	H 	0.5321	0.1372	0.0523	-0.036
Mof_H 	H 	0.4324	0.2147	0.9788	0.119
Mof_H 	H 	0.4888	0.2767	0.86	-0.051
Mof_H 	H 	0.0341	0.4253	0.7031	-0.053
Mof_H 	H 	0.921	0.5377	0.638	0.133
Mof_H 	H 	0.8167	0.4949	0.6341	-0.049
Mof_H 	H 	0.2784	0.5321	0.0523	-0.036
Mof_H 	H 	0.3741	0.4324	0.9788	0.119
Mof_H 	H 	0.3745	0.4888	0.86	-0.051
Mof_H 	H 	0.8375	0.0341	0.7031	-0.057
Mof_H 	H 	0.9033	0.921	0.638	0.13
Mof_H 	H 	0.0543	0.8167	0.6341	-0.046
Mof_H 	H 	0.1372	0.2784	0.0523	-0.03
Mof_H 	H 	0.2147	0.3741	0.9788	0.115
Mof_H 	H 	0.2767	0.3745	0.86	-0.049
Mof_H 	H 	0.4253	0.8375	0.7031	-0.055
Mof_H 	H 	0.5377	0.9033	0.638	0.134
Mof_H 	H 	0.4949	0.0543	0.6341	-0.051
Mof_H 	H 	0.0321	0.7784	0.5523	-0.03
Mof_H 	H 	0.9324	0.8741	0.4788	0.108
Mof_H 	H 	0.9888	0.8745	0.36	-0.032
Mof_H 	H 	0.5341	0.3375	0.2031	-0.054
Mof_H 	H 	0.421	0.4033	0.138	0.132
Mof_H 	H 	0.3167	0.5543	0.1341	-0.049
Mof_H 	H 	0.7784	0.6372	0.5523	-0.04
Mof_H 	H 	0.8741	0.7147	0.4788	0.123
Mof_H 	H 	0.8745	0.7767	0.36	-0.052
Mof_H 	H 	0.3375	0.9253	0.2031	-0.052
Mof_H 	H 	0.4033	0.0377	0.138	0.127
Mof_H 	H 	0.5543	0.9949	0.1341	-0.046
Mof_H 	H 	0.6372	0.0321	0.5523	-0.032
Mof_H 	H 	0.7147	0.9324	0.4788	0.111
Mof_H 	H 	0.7767	0.9888	0.36	-0.037
Mof_H 	H 	0.9253	0.5341	0.2031	-0.051
Mof_H 	H 	0.0377	0.421	0.138	0.127
Mof_H 	H 	0.9949	0.3167	0.1341	-0.048
Mof_H 	H 	0.4679	0.8628	0.9477	-0.039
Mof_H 	H 	0.5676	0.7853	0.0212	0.122
Mof_H 	H 	0.5112	0.7233	0.14	-0.053
Mof_H 	H 	0.9659	0.5747	0.2969	-0.049
Mof_H 	H 	0.079	0.4623	0.362	0.131
Mof_H 	H 	0.1833	0.5051	0.3659	-0.049
Mof_H 	H 	0.7216	0.4679	0.9477	-0.04
Mof_H 	H 	0.6259	0.5676	0.0212	0.122
Mof_H 	H 	0.6255	0.5112	0.14	-0.053
Mof_H 	H 	0.1625	0.9659	0.2969	-0.055
Mof_H 	H 	0.0967	0.079	0.362	0.131
Mof_H 	H 	0.9457	0.1833	0.3659	-0.047
Mof_H 	H 	0.8628	0.7216	0.9477	-0.034
Mof_H 	H 	0.7853	0.6259	0.0212	0.118
Mof_H 	H 	0.7233	0.6255	0.14	-0.051
Mof_H 	H 	0.5747	0.1625	0.2969	-0.057
Mof_H 	H 	0.4623	0.0967	0.362	0.137
Mof_H 	H 	0.5051	0.9457	0.3659	-0.053
Mof_H 	H 	0.5	0.5	0.5	0.12
Mof_H 	H 	-0	0	-0	0.112
Mof_C 	C 	0.83021	0.28871	0.59137	0.392
Mof_C 	C 	0.85516	0.28406	0.52042	-0.35
Mof_C 	C 	0.9469	0.223	0.4951	0.193
Mof_C 	C 	0.0065	0.1653	0.5386	-0.26
Mof_C 	C 	0.97284	0.16754	0.60928	0.156
Mof_C 	C 	0.78875	0.33635	0.47545	0.499
Mof_C 	C 	0.59139	0.46539	0.75463	0.387
Mof_C 	C 	0.52252	0.55832	0.75094	-0.411
Mof_C 	C 	0.5145	0.6041	0.7942	0.256
Mof_C 	C 	0.58	0.5633	0.8359	-0.311
Mof_C 	C 	0.6434	0.4745	0.8362	0.214
Mof_C 	C 	0.45594	0.60434	0.70528	0.637
Mof_C 	C 	0.28871	0.28971	0.59137	0.396
Mof_C 	C 	0.28406	0.34036	0.52042	-0.358
Mof_C 	C 	0.223	0.335	0.4951	0.213
Mof_C 	C 	0.1653	0.2896	0.5386	-0.288
Mof_C 	C 	0.16754	0.25034	0.60928	0.183
Mof_C 	C 	0.33635	0.39945	0.47545	0.502
Mof_C 	C 	0.46539	0.18859	0.75463	0.387
Mof_C 	C 	0.55832	0.16822	0.75094	-0.411
Mof_C 	C 	0.6041	0.0872	0.7942	0.256
Mof_C 	C 	0.5633	0.0208	0.8359	-0.312
Mof_C 	C 	0.4745	0.0459	0.8362	0.214
Mof_C 	C 	0.60434	0.23444	0.70528	0.637
Mof_C 	C 	0.28971	0.83021	0.59137	0.394
Mof_C 	C 	0.34036	0.85516	0.52042	-0.353
Mof_C 	C 	0.335	0.9469	0.4951	0.2
Mof_C 	C 	0.2896	0.0065	0.5386	-0.271
Mof_C 	C 	0.25034	0.97284	0.60928	0.165
Mof_C 	C 	0.39945	0.78875	0.47545	0.5
Mof_C 	C 	0.18859	0.59139	0.75463	0.387
Mof_C 	C 	0.16822	0.52252	0.75094	-0.411
Mof_C 	C 	0.0872	0.5145	0.7942	0.256
Mof_C 	C 	0.0208	0.58	0.8359	-0.311
Mof_C 	C 	0.0459	0.6434	0.8362	0.214
Mof_C 	C 	0.23444	0.45594	0.70528	0.637
Mof_C 	C 	0.66979	0.21029	0.90863	0.392
Mof_C 	C 	0.64484	0.15964	0.97958	-0.346
Mof_C 	C 	0.5531	0.165	0.0049	0.196
Mof_C 	C 	0.4935	0.2104	0.9614	-0.275
Mof_C 	C 	0.52716	0.24966	0.89072	0.177
Mof_C 	C 	0.71125	0.10055	0.02455	0.495
Mof_C 	C 	0.90861	0.31141	0.74537	0.387
Mof_C 	C 	0.97748	0.33178	0.74906	-0.415
Mof_C 	C 	0.9855	0.4128	0.7058	0.255
Mof_C 	C 	0.92	0.4792	0.6641	-0.311
Mof_C 	C 	0.8566	0.4541	0.6638	0.214
Mof_C 	C 	0.04406	0.26556	0.79472	0.641
Mof_C 	C 	0.21129	0.66979	0.90863	0.392
Mof_C 	C 	0.21594	0.64484	0.97958	-0.348
Mof_C 	C 	0.277	0.5531	0.0049	0.199
Mof_C 	C 	0.3347	0.4935	0.9614	-0.278
Mof_C 	C 	0.33246	0.52716	0.89072	0.178
Mof_C 	C 	0.16365	0.71125	0.02455	0.495
Mof_C 	C 	0.03461	0.90861	0.74537	0.376
Mof_C 	C 	0.94168	0.97748	0.74906	-0.397
Mof_C 	C 	0.8959	0.9855	0.7058	0.255
Mof_C 	C 	0.9367	0.92	0.6641	-0.298
Mof_C 	C 	0.0255	0.8566	0.6638	0.2
Mof_C 	C 	0.89566	0.04406	0.79472	0.628
Mof_C 	C 	0.21029	0.21129	0.90863	0.389
Mof_C 	C 	0.15964	0.21594	0.97958	-0.334
Mof_C 	C 	0.165	0.277	0.0049	0.182
Mof_C 	C 	0.2104	0.3347	0.9614	-0.264
Mof_C 	C 	0.24966	0.33246	0.89072	0.171
Mof_C 	C 	0.10055	0.16365	0.02455	0.483
Mof_C 	C 	0.31141	0.03461	0.74537	0.392
Mof_C 	C 	0.33178	0.94168	0.74906	-0.417
Mof_C 	C 	0.4128	0.8959	0.7058	0.26
Mof_C 	C 	0.4792	0.9367	0.6641	-0.315
Mof_C 	C 	0.4541	0.0255	0.6638	0.217
Mof_C 	C 	0.26556	0.89566	0.79472	0.639
Mof_C 	C 	0.16979	0.71129	0.40863	0.39
Mof_C 	C 	0.14484	0.71594	0.47958	-0.344
Mof_C 	C 	0.0531	0.777	0.5049	0.18
Mof_C 	C 	0.9935	0.8347	0.4614	-0.242
Mof_C 	C 	0.02716	0.83246	0.39072	0.141
Mof_C 	C 	0.21125	0.66365	0.52455	0.497
Mof_C 	C 	0.40861	0.53461	0.24537	0.387
Mof_C 	C 	0.47748	0.44168	0.24906	-0.411
Mof_C 	C 	0.4855	0.3959	0.2058	0.256
Mof_C 	C 	0.42	0.4367	0.1641	-0.311
Mof_C 	C 	0.3566	0.5255	0.1638	0.214
Mof_C 	C 	0.54406	0.39566	0.29472	0.637
Mof_C 	C 	0.71129	0.71029	0.40863	0.396
Mof_C 	C 	0.71594	0.65964	0.47958	-0.358
Mof_C 	C 	0.777	0.665	0.5049	0.213
Mof_C 	C 	0.8347	0.7104	0.4614	-0.288
Mof_C 	C 	0.83246	0.74966	0.39072	0.183
Mof_C 	C 	0.66365	0.60055	0.52455	0.502
Mof_C 	C 	0.53461	0.81141	0.24537	0.386
Mof_C 	C 	0.44168	0.83178	0.24906	-0.409
Mof_C 	C 	0.3959	0.9128	0.2058	0.252
Mof_C 	C 	0.4367	0.9792	0.1641	-0.303
Mof_C 	C 	0.5255	0.9541	0.1638	0.21
Mof_C 	C 	0.39566	0.76556	0.29472	0.636
Mof_C 	C 	0.71029	0.16979	0.40863	0.391
Mof_C 	C 	0.65964	0.14484	0.47958	-0.347
Mof_C 	C 	0.665	0.0531	0.5049	0.187
Mof_C 	C 	0.7104	0.9935	0.4614	-0.252
Mof_C 	C 	0.74966	0.02716	0.39072	0.15
Mof_C 	C 	0.60055	0.21125	0.52455	0.498
Mof_C 	C 	0.81141	0.40861	0.24537	0.386
Mof_C 	C 	0.83178	0.47748	0.24906	-0.409
Mof_C 	C 	0.9128	0.4855	0.2058	0.251
Mof_C 	C 	0.9792	0.42	0.1641	-0.302
Mof_C 	C 	0.9541	0.3566	0.1638	0.209
Mof_C 	C 	0.76556	0.54406	0.29472	0.637
Mof_C 	C 	0.33021	0.78971	0.09137	0.395
Mof_C 	C 	0.35516	0.84036	0.02042	-0.355
Mof_C 	C 	0.4469	0.835	0.9951	0.209
Mof_C 	C 	0.5065	0.7896	0.0386	-0.285
Mof_C 	C 	0.47284	0.75034	0.10928	0.181
Mof_C 	C 	0.28875	0.89945	0.97545	0.502
Mof_C 	C 	0.09139	0.68859	0.25463	0.386
Mof_C 	C 	0.02252	0.66822	0.25094	-0.415
Mof_C 	C 	0.0145	0.5872	0.2942	0.249
Mof_C 	C 	0.08	0.5208	0.3359	-0.308
Mof_C 	C 	0.1434	0.5459	0.3362	0.212
Mof_C 	C 	0.95594	0.73444	0.20528	0.642
Mof_C 	C 	0.78871	0.33021	0.09137	0.396
Mof_C 	C 	0.78406	0.35516	0.02042	-0.357
Mof_C 	C 	0.723	0.4469	0.9951	0.212
Mof_C 	C 	0.6653	0.5065	0.0386	-0.288
Mof_C 	C 	0.66754	0.47284	0.10928	0.182
Mof_C 	C 	0.83635	0.28875	0.97545	0.502
Mof_C 	C 	0.96539	0.09139	0.25463	0.379
Mof_C 	C 	0.05832	0.02252	0.25094	-0.403
Mof_C 	C 	0.1041	0.0145	0.2942	0.254
Mof_C 	C 	0.0633	0.08	0.3359	-0.303
Mof_C 	C 	0.9745	0.1434	0.3362	0.205
Mof_C 	C 	0.10434	0.95594	0.20528	0.631
Mof_C 	C 	0.78971	0.78871	0.09137	0.392
Mof_C 	C 	0.84036	0.78406	0.02042	-0.343
Mof_C 	C 	0.835	0.723	0.9951	0.195
Mof_C 	C 	0.7896	0.6653	0.0386	-0.274
Mof_C 	C 	0.75034	0.66754	0.10928	0.176
Mof_C 	C 	0.89945	0.83635	0.97545	0.49
Mof_C 	C 	0.68859	0.96539	0.25463	0.396
Mof_C 	C 	0.66822	0.05832	0.25094	-0.423
Mof_C 	C 	0.5872	0.1041	0.2942	0.266
Mof_C 	C 	0.5208	0.0633	0.3359	-0.324
Mof_C 	C 	0.5459	0.9745	0.3362	0.224
Mof_C 	C 	0.73444	0.10434	0.20528	0.641
Mof_N 	N 	0.88646	0.22816	0.63592	-0.307
Mof_N 	N 	0.6516	0.4259	0.7963	-0.34
Mof_N 	N 	0.22816	0.24946	0.63592	-0.311
Mof_N 	N 	0.4259	0.1262	0.7963	-0.34
Mof_N 	N 	0.24946	0.88646	0.63592	-0.308
Mof_N 	N 	0.1262	0.6516	0.7963	-0.34
Mof_N 	N 	0.61354	0.25054	0.86408	-0.309
Mof_N 	N 	0.8484	0.3738	0.7037	-0.34
Mof_N 	N 	0.27184	0.61354	0.86408	-0.31
Mof_N 	N 	0.0741	0.8484	0.7037	-0.337
Mof_N 	N 	0.25054	0.27184	0.86408	-0.308
Mof_N 	N 	0.3738	0.0741	0.7037	-0.341
Mof_N 	N 	0.11354	0.77184	0.36408	-0.304
Mof_N 	N 	0.3484	0.5741	0.2037	-0.34
Mof_N 	N 	0.77184	0.75054	0.36408	-0.311
Mof_N 	N 	0.5741	0.8738	0.2037	-0.339
Mof_N 	N 	0.75054	0.11354	0.36408	-0.306
Mof_N 	N 	0.8738	0.3484	0.2037	-0.339
Mof_N 	N 	0.38646	0.74946	0.13592	-0.311
Mof_N 	N 	0.1516	0.6262	0.2963	-0.34
Mof_N 	N 	0.72816	0.38646	0.13592	-0.311
Mof_N 	N 	0.9259	0.1516	0.2963	-0.338
Mof_N 	N 	0.74946	0.72816	0.13592	-0.309
Mof_N 	N 	0.6262	0.9259	0.2963	-0.343
Mof_O 	O 	0.70176	0.38606	0.50062	-0.769
Mof_O 	O 	0.81461	0.32871	0.41347	-0.533
Mof_O 	O 	0.753	0.3476	0.6205	-0.724
Mof_O 	O 	0.4681	0.566	0.6589	-0.809
Mof_O 	O 	0.39043	0.67943	0.71491	-0.608
Mof_O 	O 	0.60461	0.40951	0.72097	-0.74
Mof_O 	O 	0.38606	0.41156	0.50062	-0.769
Mof_O 	O 	0.32871	0.44321	0.41347	-0.533
Mof_O 	O 	0.3476	0.2789	0.6205	-0.725
Mof_O 	O 	0.566	0.307	0.6589	-0.81
Mof_O 	O 	0.67943	0.21523	0.71491	-0.608
Mof_O 	O 	0.40951	0.26491	0.72097	-0.741
Mof_O 	O 	0.41156	0.70176	0.50062	-0.769
Mof_O 	O 	0.44321	0.81461	0.41347	-0.533
Mof_O 	O 	0.2789	0.753	0.6205	-0.724
Mof_O 	O 	0.307	0.4681	0.6589	-0.81
Mof_O 	O 	0.21523	0.39043	0.71491	-0.608
Mof_O 	O 	0.26491	0.60461	0.72097	-0.74
Mof_O 	O 	0.79824	0.08844	0.99938	-0.769
Mof_O 	O 	0.68539	0.05679	0.08653	-0.537
Mof_O 	O 	0.747	0.2211	0.8795	-0.722
Mof_O 	O 	0.0319	0.193	0.8411	-0.807
Mof_O 	O 	0.10957	0.28477	0.78509	-0.609
Mof_O 	O 	0.89539	0.23509	0.77903	-0.74
Mof_O 	O 	0.11394	0.79824	0.99938	-0.766
Mof_O 	O 	0.17129	0.68539	0.08653	-0.531
Mof_O 	O 	0.1524	0.747	0.8795	-0.722
Mof_O 	O 	0.934	0.0319	0.8411	-0.808
Mof_O 	O 	0.82057	0.10957	0.78509	-0.606
Mof_O 	O 	0.09049	0.89539	0.77903	-0.737
Mof_O 	O 	0.08844	0.11394	0.99938	-0.758
Mof_O 	O 	0.05679	0.17129	0.08653	-0.527
Mof_O 	O 	0.2211	0.1524	0.8795	-0.723
Mof_O 	O 	0.193	0.934	0.8411	-0.812
Mof_O 	O 	0.28477	0.82057	0.78509	-0.608
Mof_O 	O 	0.23509	0.09049	0.77903	-0.742
Mof_O 	O 	0.29824	0.61394	0.49938	-0.768
Mof_O 	O 	0.18539	0.67129	0.58653	-0.532
Mof_O 	O 	0.247	0.6524	0.3795	-0.723
Mof_O 	O 	0.5319	0.434	0.3411	-0.809
Mof_O 	O 	0.60957	0.32057	0.28509	-0.608
Mof_O 	O 	0.39539	0.59049	0.27903	-0.74
Mof_O 	O 	0.61394	0.58844	0.49938	-0.769
Mof_O 	O 	0.67129	0.55679	0.58653	-0.533
Mof_O 	O 	0.6524	0.7211	0.3795	-0.725
Mof_O 	O 	0.434	0.693	0.3411	-0.809
Mof_O 	O 	0.32057	0.78477	0.28509	-0.608
Mof_O 	O 	0.59049	0.73509	0.27903	-0.74
Mof_O 	O 	0.58844	0.29824	0.49938	-0.769
Mof_O 	O 	0.55679	0.18539	0.58653	-0.532
Mof_O 	O 	0.7211	0.247	0.3795	-0.724
Mof_O 	O 	0.693	0.5319	0.3411	-0.809
Mof_O 	O 	0.78477	0.60957	0.28509	-0.608
Mof_O 	O 	0.73509	0.39539	0.27903	-0.74
Mof_O 	O 	0.20176	0.91156	0.00062	-0.771
Mof_O 	O 	0.31461	0.94321	0.91347	-0.536
Mof_O 	O 	0.253	0.7789	0.1205	-0.722
Mof_O 	O 	0.9681	0.807	0.1589	-0.807
Mof_O 	O 	0.89043	0.71523	0.21491	-0.609
Mof_O 	O 	0.10461	0.76491	0.22097	-0.74
Mof_O 	O 	0.88606	0.20176	0.00062	-0.769
Mof_O 	O 	0.82871	0.31461	0.91347	-0.533
Mof_O 	O 	0.8476	0.253	0.1205	-0.723
Mof_O 	O 	0.066	0.9681	0.1589	-0.808
Mof_O 	O 	0.17943	0.89043	0.21491	-0.607
Mof_O 	O 	0.90951	0.10461	0.22097	-0.738
Mof_O 	O 	0.91156	0.88606	0.00062	-0.761
Mof_O 	O 	0.94321	0.82871	0.91347	-0.527
Mof_O 	O 	0.7789	0.8476	0.1205	-0.725
Mof_O 	O 	0.807	0.066	0.1589	-0.814
Mof_O 	O 	0.71523	0.17943	0.21491	-0.609
Mof_O 	O 	0.76491	0.90951	0.22097	-0.743
Mof_O 	O 	0.47761	0.47761	0.56717	-1.071
Mof_O 	O 	0.02239	0.02239	0.93283	-1.06
Mof_O 	O 	0.52239	0.52239	0.43283	-1.071
Mof_O 	O 	0.97761	0.97761	0.06717	-1.058
_end
