data_functionalizedCrystal
_audit_creation_method	'EQeq! by Chris Wilmer'
_symmetry_space_group_name_H-M	'P1'
_symmetry_Int_Tables_number	1
_symmetry_cell_setting	triclinic
loop_
_symmetry_equiv_pos_as_xyz
  x,y,z
_cell_length_a	22.8995
_cell_length_b	22.8995
_cell_length_c	19.0201
_cell_angle_alpha	90
_cell_angle_beta	90
_cell_angle_gamma	90
loop_
_atom_site_label
_atom_site_type_symbol
_atom_site_fract_x
_atom_site_fract_y
_atom_site_fract_z
_atom_site_charge
Mof_F 	F 	0.3577	0.373	0.0897	-0.048
Mof_F 	F 	0.3909	0.3632	0.1996	-0.082
Mof_F 	F 	0.3687	0.2837	0.1355	-0.061
Mof_O 	O 	0.1581	0.4416	0.07	-0.653
Mof_O 	O 	0.0869	0.3944	0.1304	-0.742
Mof_C 	C 	0.14	0.4048	0.1152	0.715
Mof_C 	C 	0.1849	0.3719	0.1565	-0.643
Mof_C 	C 	0.2419	0.3766	0.1424	0.815
Mof_H 	H 	0.2554	0.4023	0.1067	-0.122
Mof_C 	C 	0.2816	0.3425	0.1817	-0.954
Mof_C 	C 	0.263	0.3035	0.2321	0.581
Mof_C 	C 	0.2046	0.3074	0.2503	-0.841
Mof_H 	H 	0.1913	0.2878	0.2913	1.03
Mof_C 	C 	0.165	0.339	0.2104	0.767
Mof_H 	H 	0.1245	0.3376	0.2208	-0.148
Mof_C 	C 	0.3422	0.341	0.1562	-1.037
Mof_F 	F 	0.1732	0.2064	0.2971	-0.128
Mof_F 	F 	0.1161	0.2814	0.3266	-0.189
Mof_F 	F 	0.2039	0.2713	0.3783	-0.152
Mof_H 	H 	0.3222	0.3465	0.1731	1.304
Mof_C 	C 	0.1794	0.2707	0.3064	-0.697
Mof_F 	F 	0.6423	0.627	0.0897	-0.038
Mof_F 	F 	0.6091	0.6368	0.1996	-0.075
Mof_F 	F 	0.6313	0.7163	0.1355	-0.039
Mof_O 	O 	0.8419	0.5584	0.07	-0.639
Mof_O 	O 	0.9131	0.6056	0.1304	-0.619
Mof_C 	C 	0.86	0.5952	0.1152	0.696
Mof_C 	C 	0.8151	0.6281	0.1565	-0.598
Mof_C 	C 	0.7581	0.6234	0.1424	0.806
Mof_H 	H 	0.7446	0.5977	0.1067	-0.114
Mof_C 	C 	0.7184	0.6575	0.1817	-0.948
Mof_C 	C 	0.737	0.6965	0.2321	0.58
Mof_C 	C 	0.7954	0.6926	0.2503	-0.821
Mof_H 	H 	0.8087	0.7122	0.2913	1.057
Mof_C 	C 	0.835	0.661	0.2104	0.757
Mof_H 	H 	0.8755	0.6624	0.2208	-0.083
Mof_C 	C 	0.6578	0.659	0.1562	-1.061
Mof_F 	F 	0.8268	0.7936	0.2971	-0.036
Mof_F 	F 	0.8839	0.7186	0.3266	-0.071
Mof_F 	F 	0.7961	0.7287	0.3783	-0.1
Mof_H 	H 	0.6778	0.6535	0.1731	1.321
Mof_C 	C 	0.8206	0.7293	0.3064	-0.732
Mof_F 	F 	0.627	0.3577	0.5897	-0.035
Mof_F 	F 	0.6368	0.3909	0.6996	-0.075
Mof_F 	F 	0.7163	0.3687	0.6355	-0.039
Mof_O 	O 	0.5584	0.1581	0.57	-0.643
Mof_O 	O 	0.6056	0.0869	0.6304	-0.731
Mof_C 	C 	0.5952	0.14	0.6152	0.715
Mof_C 	C 	0.6281	0.1849	0.6565	-0.636
Mof_C 	C 	0.6234	0.2419	0.6424	0.817
Mof_H 	H 	0.5977	0.2554	0.6067	-0.117
Mof_C 	C 	0.6575	0.2816	0.6817	-0.953
Mof_C 	C 	0.6965	0.263	0.7321	0.583
Mof_C 	C 	0.6926	0.2046	0.7503	-0.837
Mof_H 	H 	0.7122	0.1913	0.7913	1.034
Mof_C 	C 	0.661	0.165	0.7104	0.769
Mof_H 	H 	0.6624	0.1245	0.7208	-0.14
Mof_C 	C 	0.659	0.3422	0.6562	-1.043
Mof_F 	F 	0.7936	0.1732	0.7971	-0.084
Mof_F 	F 	0.7186	0.1161	0.8266	-0.162
Mof_F 	F 	0.7287	0.2039	0.8783	-0.129
Mof_H 	H 	0.6535	0.3222	0.6731	1.308
Mof_C 	C 	0.7293	0.1794	0.8064	-0.703
Mof_F 	F 	0.373	0.6423	0.5897	-0.035
Mof_F 	F 	0.3632	0.6091	0.6996	-0.075
Mof_F 	F 	0.2837	0.6313	0.6355	-0.05
Mof_O 	O 	0.4416	0.8419	0.57	-0.632
Mof_O 	O 	0.3944	0.9131	0.6304	-0.623
Mof_C 	C 	0.4048	0.86	0.6152	0.694
Mof_C 	C 	0.3719	0.8151	0.6565	-0.599
Mof_C 	C 	0.3766	0.7581	0.6424	0.805
Mof_H 	H 	0.4023	0.7446	0.6067	-0.111
Mof_C 	C 	0.3425	0.7184	0.6817	-0.948
Mof_C 	C 	0.3035	0.737	0.7321	0.578
Mof_C 	C 	0.3074	0.7954	0.7503	-0.822
Mof_H 	H 	0.2878	0.8087	0.7913	1.054
Mof_C 	C 	0.339	0.835	0.7104	0.754
Mof_H 	H 	0.3376	0.8755	0.7208	-0.088
Mof_C 	C 	0.341	0.6578	0.6562	-1.063
Mof_F 	F 	0.2064	0.8268	0.7971	-0.073
Mof_F 	F 	0.2814	0.8839	0.8266	-0.089
Mof_F 	F 	0.2713	0.7961	0.8783	-0.111
Mof_H 	H 	0.3465	0.6778	0.6731	1.322
Mof_C 	C 	0.2707	0.8206	0.8064	-0.729
Mof_F 	F 	0.6423	0.373	0.9103	-0.028
Mof_F 	F 	0.6091	0.3632	0.8004	-0.073
Mof_F 	F 	0.6313	0.2837	0.8645	-0.046
Mof_O 	O 	0.8419	0.4416	0.93	-0.622
Mof_O 	O 	0.9131	0.3944	0.8696	-0.618
Mof_C 	C 	0.86	0.4048	0.8848	0.694
Mof_C 	C 	0.8151	0.3719	0.8435	-0.596
Mof_C 	C 	0.7581	0.3766	0.8576	0.805
Mof_H 	H 	0.7446	0.4023	0.8933	-0.107
Mof_C 	C 	0.7184	0.3425	0.8183	-0.948
Mof_C 	C 	0.737	0.3035	0.7679	0.579
Mof_C 	C 	0.7954	0.3074	0.7497	-0.822
Mof_H 	H 	0.8087	0.2878	0.7087	1.055
Mof_C 	C 	0.835	0.339	0.7896	0.754
Mof_H 	H 	0.8755	0.3376	0.7792	-0.088
Mof_C 	C 	0.6578	0.341	0.8438	-1.067
Mof_F 	F 	0.8268	0.2064	0.7029	-0.075
Mof_F 	F 	0.8839	0.2814	0.6734	-0.092
Mof_F 	F 	0.7961	0.2713	0.6217	-0.117
Mof_H 	H 	0.6778	0.3465	0.8269	1.325
Mof_C 	C 	0.8206	0.2707	0.6936	-0.73
Mof_F 	F 	0.3577	0.627	0.9103	-0.027
Mof_F 	F 	0.3909	0.6368	0.8004	-0.073
Mof_F 	F 	0.3687	0.7163	0.8645	-0.034
Mof_O 	O 	0.1581	0.5584	0.93	-0.632
Mof_O 	O 	0.0869	0.6056	0.8696	-0.725
Mof_C 	C 	0.14	0.5952	0.8848	0.715
Mof_C 	C 	0.1849	0.6281	0.8435	-0.633
Mof_C 	C 	0.2419	0.6234	0.8576	0.816
Mof_H 	H 	0.2554	0.5977	0.8933	-0.113
Mof_C 	C 	0.2816	0.6575	0.8183	-0.952
Mof_C 	C 	0.263	0.6965	0.7679	0.584
Mof_C 	C 	0.2046	0.6926	0.7497	-0.838
Mof_H 	H 	0.1913	0.7122	0.7087	1.036
Mof_C 	C 	0.165	0.661	0.7896	0.769
Mof_H 	H 	0.1245	0.6624	0.7792	-0.139
Mof_C 	C 	0.3422	0.659	0.8438	-1.046
Mof_F 	F 	0.1732	0.7936	0.7029	-0.085
Mof_F 	F 	0.1161	0.7186	0.6734	-0.165
Mof_F 	F 	0.2039	0.7287	0.6217	-0.134
Mof_H 	H 	0.3222	0.6535	0.8269	1.311
Mof_C 	C 	0.1794	0.7293	0.6936	-0.704
Mof_F 	F 	0.373	0.3577	0.4103	-0.04
Mof_F 	F 	0.3632	0.3909	0.3004	-0.079
Mof_F 	F 	0.2837	0.3687	0.3645	-0.055
Mof_O 	O 	0.4416	0.1581	0.43	-0.645
Mof_O 	O 	0.3944	0.0869	0.3696	-0.74
Mof_C 	C 	0.4048	0.14	0.3848	0.714
Mof_C 	C 	0.3719	0.1849	0.3435	-0.641
Mof_C 	C 	0.3766	0.2419	0.3576	0.815
Mof_H 	H 	0.4023	0.2554	0.3933	-0.119
Mof_C 	C 	0.3425	0.2816	0.3183	-0.954
Mof_C 	C 	0.3035	0.263	0.2679	0.581
Mof_C 	C 	0.3074	0.2046	0.2497	-0.841
Mof_H 	H 	0.2878	0.1913	0.2087	1.03
Mof_C 	C 	0.339	0.165	0.2896	0.767
Mof_H 	H 	0.3376	0.1245	0.2792	-0.148
Mof_C 	C 	0.341	0.3422	0.3438	-1.04
Mof_F 	F 	0.2064	0.1732	0.2029	-0.129
Mof_F 	F 	0.2814	0.1161	0.1734	-0.191
Mof_F 	F 	0.2713	0.2039	0.1217	-0.156
Mof_H 	H 	0.3465	0.3222	0.3269	1.306
Mof_C 	C 	0.2707	0.1794	0.1936	-0.698
Mof_F 	F 	0.627	0.6423	0.4103	-0.03
Mof_F 	F 	0.6368	0.6091	0.3004	-0.073
Mof_F 	F 	0.7163	0.6313	0.3645	-0.034
Mof_O 	O 	0.5584	0.8419	0.43	-0.631
Mof_O 	O 	0.6056	0.9131	0.3696	-0.616
Mof_C 	C 	0.5952	0.86	0.3848	0.696
Mof_C 	C 	0.6281	0.8151	0.3435	-0.595
Mof_C 	C 	0.6234	0.7581	0.3576	0.806
Mof_H 	H 	0.5977	0.7446	0.3933	-0.11
Mof_C 	C 	0.6575	0.7184	0.3183	-0.948
Mof_C 	C 	0.6965	0.737	0.2679	0.581
Mof_C 	C 	0.6926	0.7954	0.2497	-0.821
Mof_H 	H 	0.7122	0.8087	0.2087	1.058
Mof_C 	C 	0.661	0.835	0.2896	0.756
Mof_H 	H 	0.6624	0.8755	0.2792	-0.082
Mof_C 	C 	0.659	0.6578	0.3438	-1.065
Mof_F 	F 	0.7936	0.8268	0.2029	-0.037
Mof_F 	F 	0.7186	0.8839	0.1734	-0.074
Mof_F 	F 	0.7287	0.7961	0.1217	-0.105
Mof_H 	H 	0.6535	0.6778	0.3269	1.324
Mof_C 	C 	0.7293	0.8206	0.1936	-0.733
Mof_F 	F 	0.6423	0.627	0.9103	-0.023
Mof_F 	F 	0.6091	0.6368	0.8004	-0.07
Mof_F 	F 	0.6313	0.7163	0.8645	-0.03
Mof_O 	O 	0.8419	0.5584	0.93	-0.62
Mof_O 	O 	0.9131	0.6056	0.8696	-0.611
Mof_C 	C 	0.86	0.5952	0.8848	0.695
Mof_C 	C 	0.8151	0.6281	0.8435	-0.592
Mof_C 	C 	0.7581	0.6234	0.8576	0.806
Mof_H 	H 	0.7446	0.5977	0.8933	-0.106
Mof_C 	C 	0.7184	0.6575	0.8183	-0.948
Mof_C 	C 	0.737	0.6965	0.7679	0.581
Mof_C 	C 	0.7954	0.6926	0.7497	-0.82
Mof_H 	H 	0.8087	0.7122	0.7087	1.059
Mof_C 	C 	0.835	0.661	0.7896	0.756
Mof_H 	H 	0.8755	0.6624	0.7792	-0.081
Mof_C 	C 	0.6578	0.659	0.8438	-1.069
Mof_F 	F 	0.8268	0.7936	0.7029	-0.034
Mof_F 	F 	0.8839	0.7186	0.6734	-0.07
Mof_F 	F 	0.7961	0.7287	0.6217	-0.099
Mof_H 	H 	0.6778	0.6535	0.8269	1.327
Mof_C 	C 	0.8206	0.7293	0.6936	-0.735
Mof_F 	F 	0.3577	0.373	0.9103	-0.032
Mof_F 	F 	0.3909	0.3632	0.8004	-0.076
Mof_F 	F 	0.3687	0.2837	0.8645	-0.05
Mof_O 	O 	0.1581	0.4416	0.93	-0.633
Mof_O 	O 	0.0869	0.3944	0.8696	-0.733
Mof_C 	C 	0.14	0.4048	0.8848	0.714
Mof_C 	C 	0.1849	0.3719	0.8435	-0.637
Mof_C 	C 	0.2419	0.3766	0.8576	0.815
Mof_H 	H 	0.2554	0.4023	0.8933	-0.114
Mof_C 	C 	0.2816	0.3425	0.8183	-0.953
Mof_C 	C 	0.263	0.3035	0.7679	0.582
Mof_C 	C 	0.2046	0.3074	0.7497	-0.84
Mof_H 	H 	0.1913	0.2878	0.7087	1.032
Mof_C 	C 	0.165	0.339	0.7896	0.767
Mof_H 	H 	0.1245	0.3376	0.7792	-0.146
Mof_C 	C 	0.3422	0.341	0.8438	-1.044
Mof_F 	F 	0.1732	0.2064	0.7029	-0.126
Mof_F 	F 	0.1161	0.2814	0.6734	-0.187
Mof_F 	F 	0.2039	0.2713	0.6217	-0.151
Mof_H 	H 	0.3222	0.3465	0.8269	1.31
Mof_C 	C 	0.1794	0.2707	0.6936	-0.7
Mof_F 	F 	0.373	0.6423	0.4103	-0.035
Mof_F 	F 	0.3632	0.6091	0.3004	-0.076
Mof_F 	F 	0.2837	0.6313	0.3645	-0.05
Mof_O 	O 	0.4416	0.8419	0.43	-0.633
Mof_O 	O 	0.3944	0.9131	0.3696	-0.624
Mof_C 	C 	0.4048	0.86	0.3848	0.694
Mof_C 	C 	0.3719	0.8151	0.3435	-0.6
Mof_C 	C 	0.3766	0.7581	0.3576	0.805
Mof_H 	H 	0.4023	0.7446	0.3933	-0.111
Mof_C 	C 	0.3425	0.7184	0.3183	-0.949
Mof_C 	C 	0.3035	0.737	0.2679	0.579
Mof_C 	C 	0.3074	0.7954	0.2497	-0.823
Mof_H 	H 	0.2878	0.8087	0.2087	1.054
Mof_C 	C 	0.339	0.835	0.2896	0.754
Mof_H 	H 	0.3376	0.8755	0.2792	-0.089
Mof_C 	C 	0.341	0.6578	0.3438	-1.063
Mof_F 	F 	0.2064	0.8268	0.2029	-0.078
Mof_F 	F 	0.2814	0.8839	0.1734	-0.096
Mof_F 	F 	0.2713	0.7961	0.1217	-0.122
Mof_H 	H 	0.3465	0.6778	0.3269	1.322
Mof_C 	C 	0.2707	0.8206	0.1936	-0.729
Mof_F 	F 	0.627	0.3577	0.4103	-0.035
Mof_F 	F 	0.6368	0.3909	0.3004	-0.076
Mof_F 	F 	0.7163	0.3687	0.3645	-0.039
Mof_O 	O 	0.5584	0.1581	0.43	-0.643
Mof_O 	O 	0.6056	0.0869	0.3696	-0.732
Mof_C 	C 	0.5952	0.14	0.3848	0.715
Mof_C 	C 	0.6281	0.1849	0.3435	-0.637
Mof_C 	C 	0.6234	0.2419	0.3576	0.817
Mof_H 	H 	0.5977	0.2554	0.3933	-0.117
Mof_C 	C 	0.6575	0.2816	0.3183	-0.953
Mof_C 	C 	0.6965	0.263	0.2679	0.583
Mof_C 	C 	0.6926	0.2046	0.2497	-0.839
Mof_H 	H 	0.7122	0.1913	0.2087	1.034
Mof_C 	C 	0.661	0.165	0.2896	0.769
Mof_H 	H 	0.6624	0.1245	0.2792	-0.141
Mof_C 	C 	0.659	0.3422	0.3438	-1.042
Mof_F 	F 	0.7936	0.1732	0.2029	-0.089
Mof_F 	F 	0.7186	0.1161	0.1734	-0.169
Mof_F 	F 	0.7287	0.2039	0.1217	-0.139
Mof_H 	H 	0.6535	0.3222	0.3269	1.308
Mof_C 	C 	0.7293	0.1794	0.1936	-0.703
Mof_F 	F 	0.3577	0.627	0.0897	-0.043
Mof_F 	F 	0.3909	0.6368	0.1996	-0.078
Mof_F 	F 	0.3687	0.7163	0.1355	-0.044
Mof_O 	O 	0.1581	0.5584	0.07	-0.65
Mof_O 	O 	0.0869	0.6056	0.1304	-0.733
Mof_C 	C 	0.14	0.5952	0.1152	0.716
Mof_C 	C 	0.1849	0.6281	0.1565	-0.639
Mof_C 	C 	0.2419	0.6234	0.1424	0.817
Mof_H 	H 	0.2554	0.5977	0.1067	-0.121
Mof_C 	C 	0.2816	0.6575	0.1817	-0.953
Mof_C 	C 	0.263	0.6965	0.2321	0.583
Mof_C 	C 	0.2046	0.6926	0.2503	-0.838
Mof_H 	H 	0.1913	0.7122	0.2913	1.033
Mof_C 	C 	0.165	0.661	0.2104	0.769
Mof_H 	H 	0.1245	0.6624	0.2208	-0.141
Mof_C 	C 	0.3422	0.659	0.1562	-1.039
Mof_F 	F 	0.1732	0.7936	0.2971	-0.087
Mof_F 	F 	0.1161	0.7186	0.3266	-0.166
Mof_F 	F 	0.2039	0.7287	0.3783	-0.134
Mof_H 	H 	0.3222	0.6535	0.1731	1.305
Mof_C 	C 	0.1794	0.7293	0.3064	-0.701
Mof_F 	F 	0.6423	0.373	0.0897	-0.043
Mof_F 	F 	0.6091	0.3632	0.1996	-0.078
Mof_F 	F 	0.6313	0.2837	0.1355	-0.055
Mof_O 	O 	0.8419	0.4416	0.07	-0.64
Mof_O 	O 	0.9131	0.3944	0.1304	-0.627
Mof_C 	C 	0.86	0.4048	0.1152	0.695
Mof_C 	C 	0.8151	0.3719	0.1565	-0.603
Mof_C 	C 	0.7581	0.3766	0.1424	0.805
Mof_H 	H 	0.7446	0.4023	0.1067	-0.115
Mof_C 	C 	0.7184	0.3425	0.1817	-0.949
Mof_C 	C 	0.737	0.3035	0.2321	0.578
Mof_C 	C 	0.7954	0.3074	0.2503	-0.823
Mof_H 	H 	0.8087	0.2878	0.2913	1.053
Mof_C 	C 	0.835	0.339	0.2104	0.755
Mof_H 	H 	0.8755	0.3376	0.2208	-0.09
Mof_C 	C 	0.6578	0.341	0.1562	-1.059
Mof_F 	F 	0.8268	0.2064	0.2971	-0.077
Mof_F 	F 	0.8839	0.2814	0.3266	-0.093
Mof_F 	F 	0.7961	0.2713	0.3783	-0.117
Mof_H 	H 	0.6778	0.3465	0.1731	1.319
Mof_C 	C 	0.8206	0.2707	0.3064	-0.727
Mof_F 	F 	0.627	0.6423	0.5897	-0.03
Mof_F 	F 	0.6368	0.6091	0.6996	-0.072
Mof_F 	F 	0.7163	0.6313	0.6355	-0.034
Mof_O 	O 	0.5584	0.8419	0.57	-0.631
Mof_O 	O 	0.6056	0.9131	0.6304	-0.615
Mof_C 	C 	0.5952	0.86	0.6152	0.696
Mof_C 	C 	0.6281	0.8151	0.6565	-0.594
Mof_C 	C 	0.6234	0.7581	0.6424	0.806
Mof_H 	H 	0.5977	0.7446	0.6067	-0.11
Mof_C 	C 	0.6575	0.7184	0.6817	-0.948
Mof_C 	C 	0.6965	0.737	0.7321	0.581
Mof_C 	C 	0.6926	0.7954	0.7503	-0.819
Mof_H 	H 	0.7122	0.8087	0.7913	1.058
Mof_C 	C 	0.661	0.835	0.7104	0.756
Mof_H 	H 	0.6624	0.8755	0.7208	-0.081
Mof_C 	C 	0.659	0.6578	0.6562	-1.066
Mof_F 	F 	0.7936	0.8268	0.7971	-0.032
Mof_F 	F 	0.7186	0.8839	0.8266	-0.067
Mof_F 	F 	0.7287	0.7961	0.8783	-0.094
Mof_H 	H 	0.6535	0.6778	0.6731	1.324
Mof_C 	C 	0.7293	0.8206	0.8064	-0.733
Mof_F 	F 	0.373	0.3577	0.5897	-0.04
Mof_F 	F 	0.3632	0.3909	0.6996	-0.078
Mof_F 	F 	0.2837	0.3687	0.6355	-0.055
Mof_O 	O 	0.4416	0.1581	0.57	-0.645
Mof_O 	O 	0.3944	0.0869	0.6304	-0.739
Mof_C 	C 	0.4048	0.14	0.6152	0.714
Mof_C 	C 	0.3719	0.1849	0.6565	-0.64
Mof_C 	C 	0.3766	0.2419	0.6424	0.815
Mof_H 	H 	0.4023	0.2554	0.6067	-0.118
Mof_C 	C 	0.3425	0.2816	0.6817	-0.953
Mof_C 	C 	0.3035	0.263	0.7321	0.581
Mof_C 	C 	0.3074	0.2046	0.7503	-0.839
Mof_H 	H 	0.2878	0.1913	0.7913	1.03
Mof_C 	C 	0.339	0.165	0.7104	0.767
Mof_H 	H 	0.3376	0.1245	0.7208	-0.147
Mof_C 	C 	0.341	0.3422	0.6562	-1.04
Mof_F 	F 	0.2064	0.1732	0.7971	-0.124
Mof_F 	F 	0.2814	0.1161	0.8266	-0.184
Mof_F 	F 	0.2713	0.2039	0.8783	-0.145
Mof_H 	H 	0.3465	0.3222	0.6731	1.307
Mof_C 	C 	0.2707	0.1794	0.8064	-0.698
Mof_Zr	Zr	2.82005e-33	0.42394	0.09283	3.175
Mof_O 	O 	5.70937e-33	0.4441	0.2079	-0.602
Mof_O 	O 	-3.63312e-33	0.3969	0.4588	0.554
Mof_C 	C 	-1.44348e-33	0.44739	0.3492	-0.415
Mof_H 	H 	3.54059e-33	0.4115	0.3242	0.211
Mof_C 	C 	1.1439e-32	0.44744	0.4223	0.564
Mof_H 	H 	3.91212e-33	0.3625	0.4435	-0.057
Mof_H 	H 	6.45398e-33	0.4114	0.447	-0.656
Mof_Zr	Zr	2.82005e-33	0.57606	0.09283	3.176
Mof_O 	O 	-4.41448e-33	0.5559	0.2079	-0.599
Mof_O 	O 	1.4288e-33	0.6031	0.4588	0.555
Mof_C 	C 	8.68037e-33	0.55261	0.3492	-0.417
Mof_H 	H 	8.60251e-33	0.5885	0.3242	0.216
Mof_C 	C 	6.37706e-33	0.55256	0.4223	0.568
Mof_H 	H 	1.1505e-32	0.6375	0.4435	-0.046
Mof_H 	H 	6.45398e-33	0.5886	0.447	-0.657
Mof_Zr	Zr	0.57606	-5.06192e-33	0.59283	3.176
Mof_O 	O 	0.5559	0	0.7079	-0.6
Mof_O 	O 	0.6031	0	0.9588	0.559
Mof_C 	C 	0.55261	5.06192e-33	0.8492	-0.402
Mof_H 	H 	0.5885	0	0.8242	0.212
Mof_C 	C 	0.55256	1.01238e-32	0.9223	0.551
Mof_H 	H 	0.6375	0	0.9435	-0.04
Mof_H 	H 	0.5886	1.01238e-32	0.947	-0.648
Mof_Zr	Zr	0.42394	-5.06192e-33	0.59283	3.175
Mof_O 	O 	0.4441	0	0.7079	-0.603
Mof_O 	O 	0.3969	0	0.9588	0.558
Mof_C 	C 	0.44739	5.06192e-33	0.8492	-0.401
Mof_H 	H 	0.4115	0	0.8242	0.208
Mof_C 	C 	0.44744	1.01238e-32	0.9223	0.547
Mof_H 	H 	0.3625	0	0.9435	-0.05
Mof_H 	H 	0.4114	1.01238e-32	0.947	-0.646
Mof_Zr	Zr	-7.29873e-33	0.42394	0.90717	3.177
Mof_O 	O 	7.52869e-33	0.4441	0.7921	-0.601
Mof_O 	O 	1.18093e-32	0.3969	0.5412	0.554
Mof_C 	C 	2.02673e-33	0.44739	0.6508	-0.415
Mof_H 	H 	2.10459e-33	0.4115	0.6758	0.212
Mof_C 	C 	6.86101e-33	0.44744	0.5777	0.564
Mof_H 	H 	-3.32886e-33	0.3625	0.5565	-0.056
Mof_H 	H 	1.72216e-33	0.4114	0.553	-0.656
Mof_Zr	Zr	1.2949e-32	0.57606	0.90717	3.178
Mof_O 	O 	2.46677e-33	0.5559	0.7921	-0.598
Mof_O 	O 	6.74734e-33	0.6031	0.5412	0.555
Mof_C 	C 	2.02673e-33	0.55261	0.6508	-0.417
Mof_H 	H 	1.22284e-32	0.5885	0.6758	0.216
Mof_C 	C 	1.79908e-33	0.55256	0.5777	0.568
Mof_H 	H 	1.18569e-32	0.6375	0.5565	-0.046
Mof_H 	H 	1.72216e-33	0.5886	0.553	-0.657
Mof_Zr	Zr	0.42394	0	0.40717	3.175
Mof_O 	O 	0.4441	-2.53096e-33	0.2921	-0.603
Mof_O 	O 	0.3969	3.1637e-34	0.0412	0.55
Mof_C 	C 	0.44739	0	0.1508	-0.429
Mof_H 	H 	0.4115	-1.26548e-33	0.1758	0.214
Mof_C 	C 	0.44744	-6.3274e-34	0.0777	0.581
Mof_H 	H 	0.3625	-6.3274e-34	0.0565	-0.061
Mof_H 	H 	0.4114	0	0.053	-0.665
Mof_Zr	Zr	0.57606	0	0.40717	3.176
Mof_O 	O 	0.5559	-2.53096e-33	0.2921	-0.6
Mof_O 	O 	0.6031	3.1637e-34	0.0412	0.551
Mof_C 	C 	0.55261	0	0.1508	-0.431
Mof_H 	H 	0.5885	-1.26548e-33	0.1758	0.219
Mof_C 	C 	0.55256	-6.3274e-34	0.0777	0.584
Mof_H 	H 	0.6375	-6.3274e-34	0.0565	-0.051
Mof_H 	H 	0.5886	0	0.053	-0.666
Mof_Zr	Zr	0.10788	0.5	-0	3.211
Mof_Zr	Zr	0.89212	0.5	-0	3.21
Mof_Zr	Zr	0.5	0.10788	0.5	3.214
Mof_Zr	Zr	0.5	0.89212	0.5	3.213
Mof_O 	O 	0.0541	0.4212	-0	-1.348
Mof_O 	O 	0.9459	0.5788	-0	-1.187
Mof_O 	O 	0.5788	0.0541	0.5	-1.33
Mof_O 	O 	0.4212	0.9459	0.5	-1.176
Mof_O 	O 	0.9459	0.4212	-0	-1.193
Mof_O 	O 	0.0541	0.5788	-0	-1.342
Mof_O 	O 	0.4212	0.0541	0.5	-1.337
Mof_O 	O 	0.5788	0.9459	0.5	-1.169
Mof_O 	O 	0.9483	0.5	0.0905	-1.179
Mof_O 	O 	0.0517	0.5	0.0905	-1.343
Mof_O 	O 	0.5	0.9483	0.5905	-1.176
Mof_O 	O 	0.5	0.0517	0.5905	-1.343
Mof_O 	O 	0.0517	0.5	0.9095	-1.332
Mof_O 	O 	0.9483	0.5	0.9095	-1.167
Mof_O 	O 	0.5	0.9483	0.4095	-1.176
Mof_O 	O 	0.5	0.0517	0.4095	-1.343
Mof_C 	C 	-4.33631e-33	0.5	0.233	0.218
Mof_C 	C 	3.50447e-33	0.5	0.3126	0.237
Mof_C 	C 	6.49415e-33	0.5	0.4599	-0.273
Mof_C 	C 	0.5	0	0.733	0.22
Mof_C 	C 	0.5	0	0.8126	0.229
Mof_C 	C 	0.5	0	0.9599	-0.23
Mof_C 	C 	7.45053e-33	0.5	0.767	0.217
Mof_C 	C 	2.14071e-33	0.5	0.6874	0.238
Mof_C 	C 	-3.37994e-33	0.5	0.5401	-0.274
Mof_C 	C 	0.5	0	0.267	0.214
Mof_C 	C 	0.5	0	0.1874	0.245
Mof_C 	C 	0.5	0	0.0401	-0.315
_end
