data_functionalizedCrystal
_audit_creation_method	'EQeq! by Chris Wilmer'
_symmetry_space_group_name_H-M	'P1'
_symmetry_Int_Tables_number	1
_symmetry_cell_setting	triclinic
loop_
_symmetry_equiv_pos_as_xyz
  x,y,z
_cell_length_a	13.7995
_cell_length_b	13.7995
_cell_length_c	17.669
_cell_angle_alpha	98.1134
_cell_angle_beta	98.1134
_cell_angle_gamma	96.6595
loop_
_atom_site_label
_atom_site_type_symbol
_atom_site_fract_x
_atom_site_fract_y
_atom_site_fract_z
_atom_site_charge
Mof_Cd	Cd	0.40482	0.22496	0.79913	0.451
Mof_Cd	Cd	0.22854	0.26592	0.9275	0.456
Mof_Cd	Cd	0.77504	0.59518	0.70087	0.452
Mof_Cd	Cd	0.73408	0.77146	0.5725	0.457
Mof_Cd	Cd	0.59518	0.77504	0.20087	0.452
Mof_Cd	Cd	0.77146	0.73408	0.0725	0.457
Mof_Cd	Cd	0.22496	0.40482	0.29913	0.452
Mof_Cd	Cd	0.26592	0.22854	0.4275	0.457
Mof_Cd	Cd	0.54289	0.45711	0.75	0.419
Mof_Cd	Cd	0.45711	0.54289	0.25	0.419
Mof_H 	H 	0.9145	0.4127	0.8871	0.051
Mof_H 	H 	0.7443	0.3999	0.8592	0.057
Mof_H 	H 	0.7233	0.1053	0.834	0.043
Mof_H 	H 	0.8929	0.1189	0.8731	0.056
Mof_H 	H 	0.2271	0.9023	0.7588	0.048
Mof_H 	H 	0.0334	0.0954	0.7642	0.052
Mof_H 	H 	0.5578	0.1448	0.9611	0.06
Mof_H 	H 	0.3346	0.9624	0.005	0.054
Mof_H 	H 	0.2966	0.1528	0.6054	0.015
Mof_H 	H 	0.4289	0.3941	0.5593	0.013
Mof_H 	H 	0.2004	0.5292	0.9665	0.079
Mof_H 	H 	0.2219	0.6965	0.9644	0.044
Mof_H 	H 	0.3316	0.767	0.8958	0.04
Mof_H 	H 	0.4328	0.6752	0.8282	0.062
Mof_H 	H 	0.5873	0.0855	0.6129	0.051
Mof_H 	H 	0.6001	0.2557	0.6408	0.057
Mof_H 	H 	0.8947	0.2767	0.666	0.043
Mof_H 	H 	0.8811	0.1071	0.6269	0.056
Mof_H 	H 	0.0977	0.7729	0.7412	0.048
Mof_H 	H 	0.9046	0.9666	0.7358	0.052
Mof_H 	H 	0.8552	0.4422	0.5389	0.06
Mof_H 	H 	0.0376	0.6654	0.495	0.054
Mof_H 	H 	0.8472	0.7034	0.8946	0.015
Mof_H 	H 	0.6059	0.5711	0.9407	0.013
Mof_H 	H 	0.4708	0.7996	0.5335	0.079
Mof_H 	H 	0.3035	0.7781	0.5356	0.044
Mof_H 	H 	0.233	0.6684	0.6042	0.04
Mof_H 	H 	0.3248	0.5672	0.6718	0.062
Mof_H 	H 	0.0855	0.5873	0.1129	0.051
Mof_H 	H 	0.2557	0.6001	0.1408	0.057
Mof_H 	H 	0.2767	0.8947	0.166	0.043
Mof_H 	H 	0.1071	0.8811	0.1269	0.056
Mof_H 	H 	0.7729	0.0977	0.2412	0.048
Mof_H 	H 	0.9666	0.9046	0.2358	0.052
Mof_H 	H 	0.4422	0.8552	0.0389	0.06
Mof_H 	H 	0.6654	0.0376	0.995	0.054
Mof_H 	H 	0.7034	0.8472	0.3946	0.015
Mof_H 	H 	0.5711	0.6059	0.4407	0.013
Mof_H 	H 	0.7996	0.4708	0.0335	0.079
Mof_H 	H 	0.7781	0.3035	0.0356	0.044
Mof_H 	H 	0.6684	0.233	0.1042	0.04
Mof_H 	H 	0.5672	0.3248	0.1718	0.062
Mof_H 	H 	0.4127	0.9145	0.3871	0.051
Mof_H 	H 	0.3999	0.7443	0.3592	0.057
Mof_H 	H 	0.1053	0.7233	0.334	0.043
Mof_H 	H 	0.1189	0.8929	0.3731	0.056
Mof_H 	H 	0.9023	0.2271	0.2588	0.048
Mof_H 	H 	0.0954	0.0334	0.2642	0.052
Mof_H 	H 	0.1448	0.5578	0.4611	0.06
Mof_H 	H 	0.9624	0.3346	0.505	0.054
Mof_H 	H 	0.1528	0.2966	0.1054	0.015
Mof_H 	H 	0.3941	0.4289	0.0593	0.013
Mof_H 	H 	0.5292	0.2004	0.4665	0.079
Mof_H 	H 	0.6965	0.2219	0.4644	0.044
Mof_H 	H 	0.767	0.3316	0.3958	0.04
Mof_H 	H 	0.6752	0.4328	0.3282	0.062
Mof_C 	C 	0.92	0.2678	0.8838	-0.056
Mof_C 	C 	0.8761	0.3511	0.8785	-0.026
Mof_C 	C 	0.7743	0.3431	0.8603	-0.024
Mof_C 	C 	0.7165	0.2509	0.8437	-0.06
Mof_C 	C 	0.7611	0.1673	0.8467	-0.019
Mof_C 	C 	0.8631	0.1753	0.8686	-0.032
Mof_C 	C 	0.0304	0.2738	0.9027	0.301
Mof_C 	C 	0.6068	0.2442	0.8208	0.299
Mof_C 	C 	0.1623	0.9157	0.756	-0.025
Mof_C 	C 	0.1431	0.0123	0.7638	-0.047
Mof_C 	C 	0.0469	0.0305	0.7578	-0.02
Mof_C 	C 	0.2287	0.0949	0.778	0.291
Mof_C 	C 	0.4346	0.0644	0.9781	-0.054
Mof_C 	C 	0.5339	0.0861	0.9765	-0.031
Mof_C 	C 	0.4014	0.9778	0.0026	-0.033
Mof_C 	C 	0.3647	0.1357	0.956	0.29
Mof_C 	C 	0.3365	0.2131	0.6104	0.099
Mof_C 	C 	0.4082	0.3434	0.5854	0.1
Mof_C 	C 	0.3727	0.5427	0.8569	0.059
Mof_C 	C 	0.3026	0.5	0.897	0.07
Mof_C 	C 	0.2457	0.5571	0.9387	-0.098
Mof_C 	C 	0.2591	0.6563	0.937	-0.019
Mof_C 	C 	0.3267	0.6993	0.8958	-0.028
Mof_C 	C 	0.3868	0.646	0.8549	-0.09
Mof_C 	C 	0.7322	0.08	0.6162	-0.056
Mof_C 	C 	0.6489	0.1239	0.6215	-0.026
Mof_C 	C 	0.6569	0.2257	0.6397	-0.024
Mof_C 	C 	0.7491	0.2835	0.6563	-0.06
Mof_C 	C 	0.8327	0.2389	0.6533	-0.019
Mof_C 	C 	0.8247	0.1369	0.6314	-0.033
Mof_C 	C 	0.7262	0.9696	0.5973	0.301
Mof_C 	C 	0.7558	0.3932	0.6792	0.299
Mof_C 	C 	0.0843	0.8377	0.744	-0.024
Mof_C 	C 	0.9877	0.8569	0.7362	-0.047
Mof_C 	C 	0.9695	0.9531	0.7422	-0.021
Mof_C 	C 	0.9051	0.7713	0.722	0.291
Mof_C 	C 	0.9356	0.5654	0.5219	-0.054
Mof_C 	C 	0.9139	0.4661	0.5235	-0.031
Mof_C 	C 	0.0222	0.5986	0.4974	-0.033
Mof_C 	C 	0.8643	0.6353	0.544	0.29
Mof_C 	C 	0.7869	0.6635	0.8896	0.099
Mof_C 	C 	0.6566	0.5918	0.9146	0.1
Mof_C 	C 	0.4573	0.6273	0.6431	0.059
Mof_C 	C 	0.5	0.6974	0.603	0.07
Mof_C 	C 	0.4429	0.7543	0.5613	-0.098
Mof_C 	C 	0.3437	0.7409	0.563	-0.019
Mof_C 	C 	0.3007	0.6733	0.6042	-0.028
Mof_C 	C 	0.354	0.6132	0.6451	-0.09
Mof_C 	C 	0.08	0.7322	0.1162	-0.056
Mof_C 	C 	0.1239	0.6489	0.1215	-0.026
Mof_C 	C 	0.2257	0.6569	0.1397	-0.024
Mof_C 	C 	0.2835	0.7491	0.1563	-0.06
Mof_C 	C 	0.2389	0.8327	0.1533	-0.019
Mof_C 	C 	0.1369	0.8247	0.1314	-0.032
Mof_C 	C 	0.9696	0.7262	0.0973	0.301
Mof_C 	C 	0.3932	0.7558	0.1792	0.299
Mof_C 	C 	0.8377	0.0843	0.244	-0.025
Mof_C 	C 	0.8569	0.9877	0.2362	-0.047
Mof_C 	C 	0.9531	0.9695	0.2422	-0.02
Mof_C 	C 	0.7713	0.9051	0.222	0.291
Mof_C 	C 	0.5654	0.9356	0.0219	-0.054
Mof_C 	C 	0.4661	0.9139	0.0235	-0.031
Mof_C 	C 	0.5986	0.0222	0.9974	-0.033
Mof_C 	C 	0.6353	0.8643	0.044	0.29
Mof_C 	C 	0.6635	0.7869	0.3896	0.099
Mof_C 	C 	0.5918	0.6566	0.4146	0.1
Mof_C 	C 	0.6273	0.4573	0.1431	0.059
Mof_C 	C 	0.6974	0.5	0.103	0.07
Mof_C 	C 	0.7543	0.4429	0.0613	-0.098
Mof_C 	C 	0.7409	0.3437	0.063	-0.019
Mof_C 	C 	0.6733	0.3007	0.1042	-0.028
Mof_C 	C 	0.6132	0.354	0.1451	-0.09
Mof_C 	C 	0.2678	0.92	0.3838	-0.056
Mof_C 	C 	0.3511	0.8761	0.3785	-0.026
Mof_C 	C 	0.3431	0.7743	0.3603	-0.024
Mof_C 	C 	0.2509	0.7165	0.3437	-0.06
Mof_C 	C 	0.1673	0.7611	0.3467	-0.019
Mof_C 	C 	0.1753	0.8631	0.3686	-0.033
Mof_C 	C 	0.2738	0.0304	0.4027	0.301
Mof_C 	C 	0.2442	0.6068	0.3208	0.299
Mof_C 	C 	0.9157	0.1623	0.256	-0.024
Mof_C 	C 	0.0123	0.1431	0.2638	-0.047
Mof_C 	C 	0.0305	0.0469	0.2578	-0.021
Mof_C 	C 	0.0949	0.2287	0.278	0.291
Mof_C 	C 	0.0644	0.4346	0.4781	-0.054
Mof_C 	C 	0.0861	0.5339	0.4765	-0.031
Mof_C 	C 	0.9778	0.4014	0.5026	-0.033
Mof_C 	C 	0.1357	0.3647	0.456	0.29
Mof_C 	C 	0.2131	0.3365	0.1104	0.099
Mof_C 	C 	0.3434	0.4082	0.0854	0.1
Mof_C 	C 	0.5427	0.3727	0.3569	0.059
Mof_C 	C 	0.5	0.3026	0.397	0.07
Mof_C 	C 	0.5571	0.2457	0.4387	-0.098
Mof_C 	C 	0.6563	0.2591	0.437	-0.019
Mof_C 	C 	0.6993	0.3267	0.3958	-0.028
Mof_C 	C 	0.646	0.3868	0.3549	-0.09
Mof_N 	N 	0.4388	0.3436	0.659	-0.12
Mof_N 	N 	0.391	0.2578	0.676	-0.12
Mof_N 	N 	0.3443	0.2637	0.5511	-0.155
Mof_N 	N 	0.4159	0.4701	0.8228	-0.113
Mof_N 	N 	0.3728	0.3848	0.8414	-0.071
Mof_N 	N 	0.3061	0.4009	0.8858	-0.108
Mof_N 	N 	0.6564	0.5612	0.841	-0.12
Mof_N 	N 	0.7422	0.609	0.824	-0.12
Mof_N 	N 	0.7363	0.6557	0.9489	-0.156
Mof_N 	N 	0.5299	0.5841	0.6772	-0.113
Mof_N 	N 	0.6152	0.6272	0.6586	-0.071
Mof_N 	N 	0.5991	0.6939	0.6142	-0.108
Mof_N 	N 	0.5612	0.6564	0.341	-0.12
Mof_N 	N 	0.609	0.7422	0.324	-0.12
Mof_N 	N 	0.6557	0.7363	0.4489	-0.155
Mof_N 	N 	0.5841	0.5299	0.1772	-0.113
Mof_N 	N 	0.6272	0.6152	0.1586	-0.071
Mof_N 	N 	0.6939	0.5991	0.1142	-0.108
Mof_N 	N 	0.3436	0.4388	0.159	-0.12
Mof_N 	N 	0.2578	0.391	0.176	-0.12
Mof_N 	N 	0.2637	0.3443	0.0511	-0.156
Mof_N 	N 	0.4701	0.4159	0.3228	-0.113
Mof_N 	N 	0.3848	0.3728	0.3414	-0.071
Mof_N 	N 	0.4009	0.3061	0.3858	-0.108
Mof_O 	O 	0.7948	0.9336	0.5708	-0.27
Mof_O 	O 	0.653	0.9182	0.6114	-0.281
Mof_O 	O 	0.5562	0.1596	0.808	-0.282
Mof_O 	O 	0.5694	0.3222	0.817	-0.293
Mof_O 	O 	0.2134	0.183	0.7968	-0.284
Mof_O 	O 	0.3131	0.0727	0.7673	-0.28
Mof_O 	O 	0.2765	0.1187	0.9656	-0.264
Mof_O 	O 	0.39703	0.21077	0.9288	-0.284
Mof_O 	O 	0.0664	0.2052	0.9292	-0.27
Mof_O 	O 	0.0818	0.347	0.8886	-0.281
Mof_O 	O 	0.8404	0.4438	0.692	-0.282
Mof_O 	O 	0.6778	0.4306	0.683	-0.293
Mof_O 	O 	0.817	0.7866	0.7032	-0.284
Mof_O 	O 	0.9273	0.6869	0.7327	-0.28
Mof_O 	O 	0.8813	0.7235	0.5344	-0.264
Mof_O 	O 	0.78923	0.60297	0.5712	-0.284
Mof_O 	O 	0.2052	0.0664	0.4292	-0.27
Mof_O 	O 	0.347	0.0818	0.3886	-0.281
Mof_O 	O 	0.4438	0.8404	0.192	-0.282
Mof_O 	O 	0.4306	0.6778	0.183	-0.293
Mof_O 	O 	0.7866	0.817	0.2032	-0.284
Mof_O 	O 	0.6869	0.9273	0.2327	-0.28
Mof_O 	O 	0.7235	0.8813	0.0344	-0.264
Mof_O 	O 	0.60297	0.78923	0.0712	-0.284
Mof_O 	O 	0.9336	0.7948	0.0708	-0.27
Mof_O 	O 	0.9182	0.653	0.1114	-0.281
Mof_O 	O 	0.1596	0.5562	0.308	-0.282
Mof_O 	O 	0.3222	0.5694	0.317	-0.293
Mof_O 	O 	0.183	0.2134	0.2968	-0.284
Mof_O 	O 	0.0727	0.3131	0.2673	-0.28
Mof_O 	O 	0.1187	0.2765	0.4656	-0.264
Mof_O 	O 	0.21077	0.39703	0.4288	-0.284
Mof_H 	H 	0.5641	0.9499	0.7018	0.118
Mof_H 	H 	0.5693	0.0163	0.7744	0.121
Mof_H 	H 	0.703	0.9396	0.7788	0.152
Mof_H 	H 	0.6402	0.9106	0.8416	0.15
Mof_H 	H 	0.6336	0.8382	0.7637	0.16
Mof_H 	H 	0.42	0.9404	0.7376	0.152
Mof_H 	H 	0.4616	0.8394	0.7374	0.141
Mof_H 	H 	0.4671	0.9109	0.8156	0.145
Mof_C 	C 	0.6412	0.9064	0.7871	-0.37
Mof_C 	C 	0.4708	0.9074	0.7615	-0.352
Mof_N 	N 	0.5616	0.9522	0.7526	-0.13
Mof_H 	H 	0.0501	0.4359	0.7982	0.118
Mof_H 	H 	0.9837	0.4307	0.7256	0.12
Mof_H 	H 	0.0604	0.297	0.7212	0.153
Mof_H 	H 	0.0894	0.3598	0.6584	0.15
Mof_H 	H 	0.1618	0.3664	0.7363	0.16
Mof_H 	H 	0.0596	0.58	0.7624	0.152
Mof_H 	H 	0.1606	0.5384	0.7626	0.141
Mof_H 	H 	0.0891	0.5329	0.6844	0.145
Mof_C 	C 	0.0936	0.3588	0.7129	-0.37
Mof_C 	C 	0.0926	0.5292	0.7385	-0.352
Mof_N 	N 	0.0478	0.4384	0.7474	-0.13
Mof_H 	H 	0.4359	0.0501	0.2982	0.118
Mof_H 	H 	0.4307	0.9837	0.2256	0.121
Mof_H 	H 	0.297	0.0604	0.2212	0.152
Mof_H 	H 	0.3598	0.0894	0.1584	0.15
Mof_H 	H 	0.3664	0.1618	0.2363	0.16
Mof_H 	H 	0.58	0.0596	0.2624	0.152
Mof_H 	H 	0.5384	0.1606	0.2626	0.141
Mof_H 	H 	0.5329	0.0891	0.1844	0.145
Mof_C 	C 	0.3588	0.0936	0.2129	-0.37
Mof_C 	C 	0.5292	0.0926	0.2385	-0.352
Mof_N 	N 	0.4384	0.0478	0.2474	-0.13
Mof_H 	H 	0.9499	0.5641	0.2018	0.118
Mof_H 	H 	0.0163	0.5693	0.2744	0.12
Mof_H 	H 	0.9396	0.703	0.2788	0.153
Mof_H 	H 	0.9106	0.6402	0.3416	0.15
Mof_H 	H 	0.8382	0.6336	0.2637	0.16
Mof_H 	H 	0.9404	0.42	0.2376	0.152
Mof_H 	H 	0.8394	0.4616	0.2374	0.141
Mof_H 	H 	0.9109	0.4671	0.3156	0.145
Mof_C 	C 	0.9064	0.6412	0.2871	-0.37
Mof_C 	C 	0.9074	0.4708	0.2615	-0.352
Mof_N 	N 	0.9522	0.5616	0.2526	-0.13
_end
