data_functionalizedCrystal
_audit_creation_method	'EQeq! by Chris Wilmer'
_symmetry_space_group_name_H-M	'P1'
_symmetry_Int_Tables_number	1
_symmetry_cell_setting	triclinic
loop_
_symmetry_equiv_pos_as_xyz
  x,y,z
_cell_length_a	9.116
_cell_length_b	15.128
_cell_length_c	18.517
_cell_angle_alpha	102.48
_cell_angle_beta	99.371
_cell_angle_gamma	106.819
loop_
_atom_site_label
_atom_site_type_symbol
_atom_site_fract_x
_atom_site_fract_y
_atom_site_fract_z
_atom_site_charge
Mof_C 	C 	0.1624	0.6526	0.6285	0.471
Mof_C 	C 	0.237	0.7266	0.7048	-0.187
Mof_C 	C 	0.3955	0.7475	0.7429	0.078
Mof_H 	H 	0.4593	0.7164	0.7192	0.011
Mof_C 	C 	0.4592	0.8131	0.8146	-0.151
Mof_H 	H 	0.5671	0.8288	0.8392	0.083
Mof_C 	C 	0.3637	0.8555	0.85	0.081
Mof_C 	C 	0.206	0.8367	0.8129	-0.154
Mof_H 	H 	0.1412	0.8667	0.8368	0.077
Mof_C 	C 	0.148	0.7732	0.7405	0.087
Mof_H 	H 	0.0424	0.7613	0.7144	0.008
Mof_C 	C 	0.5749	0.001	0.9407	-0.097
Mof_H 	H 	0.6283	0.0017	0.9008	0.055
Mof_C 	C 	0.4293	0.927	0.9278	-0.025
Mof_C 	C 	0.3556	0.9267	0.9902	0.005
Mof_C 	C 	0.2188	0.8103	0.0766	-0.344
Mof_H 	H 	0.3272	0.8098	0.089	0.127
Mof_H 	H 	0.1449	0.7482	0.0757	0.124
Mof_H 	H 	0.2068	0.8617	0.1151	0.115
Mof_C 	C 	0.5625	0.5481	0.6213	0.525
Mof_C 	C 	0.6044	0.566	0.7066	-0.205
Mof_C 	C 	0.5134	0.5044	0.7398	0.101
Mof_H 	H 	0.4216	0.4537	0.7084	-0.013
Mof_C 	C 	0.5517	0.5139	0.8192	-0.164
Mof_H 	H 	0.4898	0.4698	0.8411	0.081
Mof_C 	C 	0.6855	0.5915	0.8637	0.087
Mof_C 	C 	0.7752	0.6535	0.83	-0.15
Mof_H 	H 	0.8651	0.7056	0.8612	0.06
Mof_C 	C 	0.7382	0.642	0.7516	0.092
Mof_H 	H 	0.8023	0.6847	0.7295	0.003
Mof_C 	C 	0.7377	0.5982	0.9479	-0.038
Mof_C 	C 	0.7547	0.5187	0.9687	-0.05
Mof_H 	H 	0.7225	0.4595	0.9301	0.042
Mof_C 	C 	0.8171	0.5206	0.0441	-0.009
Mof_C 	C 	0.8607	0.6089	0.103	-0.015
Mof_C 	C 	0.8314	0.6873	0.0836	-0.091
Mof_H 	H 	0.8519	0.7444	0.1229	0.051
Mof_C 	C 	0.7719	0.6847	0.0071	0.024
Mof_C 	C 	0.7374	0.3855	0.1288	-0.417
Mof_H 	H 	0.7746	0.4416	0.1736	0.154
Mof_H 	H 	0.7562	0.3306	0.1436	0.158
Mof_H 	H 	0.6241	0.3699	0.108	0.157
Mof_C 	C 	0.6652	0.8347	0.0666	-0.339
Mof_H 	H 	0.5722	0.785	0.0703	0.127
Mof_H 	H 	0.6367	0.8907	0.0601	0.119
Mof_H 	H 	0.7487	0.8539	0.1133	0.116
Mof_C 	C 	0.9384	0.6154	0.1821	0.076
Mof_C 	C 	0.0744	0.5927	0.1973	-0.144
Mof_H 	H 	0.1253	0.5793	0.1574	0.076
Mof_C 	C 	0.139	0.5891	0.2701	0.074
Mof_H 	H 	0.2347	0.5757	0.2801	0.014
Mof_C 	C 	0.0604	0.6053	0.3278	-0.186
Mof_C 	C 	0.929	0.6339	0.3141	0.095
Mof_H 	H 	0.8799	0.6492	0.3543	-0.041
Mof_C 	C 	0.8686	0.6405	0.2419	-0.161
Mof_H 	H 	0.7806	0.6618	0.2334	0.076
Mof_C 	C 	0.1134	0.5832	0.4007	0.425
Mof_O 	O 	0.2509	0.6131	0.5937	-0.535
Mof_O 	O 	0.0166	0.6349	0.6017	-0.576
Mof_O 	O 	0.4308	0.4888	0.584	-0.614
Mof_O 	O 	0.6651	0.5949	0.5916	-0.551
Mof_O 	O 	0.2499	0.5744	0.4184	-0.495
Mof_O 	O 	0.0173	0.5656	0.4434	-0.649
Mof_S 	S 	0.177	0.8312	0.98355	-0.153
Mof_S 	S 	0.8445	0.4127	0.05616	0.042
Mof_S 	S 	0.736	0.787	0.98473	-0.165
Mof_Cu	Cu	0.97885	0.90229	0.99124	0.789
Mof_I 	I 	0.93109	0.97145	0.87279	-0.49
Mof_Eu	Eu	0.19898	0.46633	0.49847	2.321
Mof_C 	C 	0.8376	0.3474	0.3715	0.472
Mof_C 	C 	0.763	0.2734	0.2952	-0.186
Mof_C 	C 	0.6045	0.2525	0.2571	0.079
Mof_H 	H 	0.5407	0.2836	0.2808	0.012
Mof_C 	C 	0.5408	0.1869	0.1854	-0.151
Mof_H 	H 	0.4329	0.1712	0.1608	0.083
Mof_C 	C 	0.6363	0.1445	0.15	0.081
Mof_C 	C 	0.794	0.1633	0.1871	-0.154
Mof_H 	H 	0.8588	0.1333	0.1632	0.077
Mof_C 	C 	0.852	0.2268	0.2595	0.087
Mof_H 	H 	0.9576	0.2387	0.2856	0.008
Mof_C 	C 	0.4251	0.999	0.0593	-0.097
Mof_H 	H 	0.3717	0.9983	0.0992	0.055
Mof_C 	C 	0.5707	0.073	0.0722	-0.025
Mof_C 	C 	0.6444	0.0733	0.0098	0.005
Mof_C 	C 	0.7812	0.1897	0.9234	-0.344
Mof_H 	H 	0.6728	0.1902	0.911	0.127
Mof_H 	H 	0.8551	0.2518	0.9243	0.124
Mof_H 	H 	0.7932	0.1383	0.8849	0.115
Mof_C 	C 	0.4375	0.4519	0.3787	0.525
Mof_C 	C 	0.3956	0.434	0.2934	-0.205
Mof_C 	C 	0.4866	0.4956	0.2602	0.101
Mof_H 	H 	0.5784	0.5463	0.2916	-0.013
Mof_C 	C 	0.4483	0.4861	0.1808	-0.164
Mof_H 	H 	0.5102	0.5302	0.1589	0.081
Mof_C 	C 	0.3145	0.4085	0.1363	0.087
Mof_C 	C 	0.2248	0.3465	0.17	-0.15
Mof_H 	H 	0.1349	0.2944	0.1388	0.06
Mof_C 	C 	0.2618	0.358	0.2484	0.092
Mof_H 	H 	0.1977	0.3153	0.2705	0.003
Mof_C 	C 	0.2623	0.4018	0.0521	-0.038
Mof_C 	C 	0.2453	0.4813	0.0313	-0.05
Mof_H 	H 	0.2775	0.5405	0.0699	0.042
Mof_C 	C 	0.1829	0.4794	0.9559	-0.009
Mof_C 	C 	0.1393	0.3911	0.897	-0.015
Mof_C 	C 	0.1686	0.3127	0.9164	-0.091
Mof_H 	H 	0.1481	0.2556	0.8771	0.051
Mof_C 	C 	0.2281	0.3153	0.9929	0.024
Mof_C 	C 	0.2626	0.6145	0.8712	-0.417
Mof_H 	H 	0.2254	0.5584	0.8264	0.154
Mof_H 	H 	0.2438	0.6694	0.8564	0.158
Mof_H 	H 	0.3759	0.6301	0.892	0.157
Mof_C 	C 	0.3348	0.1653	0.9334	-0.339
Mof_H 	H 	0.4278	0.215	0.9297	0.127
Mof_H 	H 	0.3633	0.1093	0.9399	0.119
Mof_H 	H 	0.2513	0.1461	0.8867	0.116
Mof_C 	C 	0.0616	0.3846	0.8179	0.076
Mof_C 	C 	0.9256	0.4073	0.8027	-0.144
Mof_H 	H 	0.8747	0.4207	0.8426	0.076
Mof_C 	C 	0.861	0.4109	0.7299	0.074
Mof_H 	H 	0.7653	0.4243	0.7199	0.014
Mof_C 	C 	0.9396	0.3947	0.6722	-0.186
Mof_C 	C 	0.071	0.3661	0.6859	0.095
Mof_H 	H 	0.1201	0.3508	0.6457	-0.041
Mof_C 	C 	0.1314	0.3595	0.7581	-0.161
Mof_H 	H 	0.2194	0.3382	0.7666	0.076
Mof_C 	C 	0.8866	0.4168	0.5993	0.425
Mof_O 	O 	0.7491	0.3869	0.4063	-0.535
Mof_O 	O 	0.9834	0.3651	0.3983	-0.576
Mof_O 	O 	0.5692	0.5112	0.416	-0.614
Mof_O 	O 	0.3349	0.4051	0.4084	-0.551
Mof_O 	O 	0.7501	0.4256	0.5816	-0.495
Mof_O 	O 	0.9827	0.4344	0.5566	-0.649
Mof_S 	S 	0.823	0.1688	0.01645	-0.153
Mof_S 	S 	0.1555	0.5873	0.94384	0.042
Mof_S 	S 	0.264	0.213	0.01527	-0.165
Mof_Cu	Cu	0.02115	0.09771	0.00876	0.789
Mof_I 	I 	0.06891	0.02855	0.12721	-0.49
Mof_Eu	Eu	0.80102	0.53367	0.50153	2.321
_end
