# CIF file generated by openbabel 3.1.0, see https://openbabel.org
data_I
_chemical_name_common 'image0'
_cell_length_a 10.006
_cell_length_b 18.34
_cell_length_c 20.26
_cell_angle_alpha 88.72
_cell_angle_beta 83.46
_cell_angle_gamma 86.86
_space_group_name_H-M_alt 'P 1'
_space_group_name_Hall 'P 1'
loop_
    _symmetry_equiv_pos_as_xyz
    x,y,z
loop_
    _atom_site_label
    _atom_site_type_symbol
    _atom_site_fract_x
    _atom_site_fract_y
    _atom_site_fract_z
    _atom_site_occupancy
    Na1      Na       0.89290    0.72080    0.87910    1.000
    Cd1      Cd       0.88666    0.54786    0.96064    1.000
    Cd2      Cd       0.38930    0.95980    0.45490    1.000
    C1       C        0.96400    0.59710    0.10070    1.000
    C2       C        0.95700    0.65640    0.15340    1.000
    C3       C        0.04320    0.65130    0.20150    1.000
    H1       H        0.10690    0.61240    0.20150    1.000
    C4       C        0.03560    0.70450    0.25070    1.000
    H2       H        0.09220    0.69900    0.28400    1.000
    C5       C        0.94990    0.76240    0.25110    1.000
    C6       C        0.86260    0.76810    0.20110    1.000
    H3       H        0.79790    0.80660    0.20260    1.000
    C7       C        0.86920    0.71840    0.14970    1.000
    H4       H        0.81780    0.72600    0.11450    1.000
    C8       C        0.93460    0.82070    0.30430    1.000
    C9       C        0.81130    0.84920    0.33040    1.000
    H5       H        0.73390    0.83510    0.31380    1.000
    C10      C        0.80030    0.89970    0.38240    1.000
    C11      C        0.91630    0.92410    0.40400    1.000
    H6       H        0.91100    0.95960    0.43630    1.000
    C12      C        0.03930    0.89490    0.37700    1.000
    C13      C        0.05080    0.84020    0.33030    1.000
    H7       H        0.13400    0.81690    0.31670    1.000
    C14      C        0.16870    0.91210    0.40070    1.000
    C15      C        0.66690    0.93050    0.41180    1.000
    C16      C        0.48270    0.89330    0.58520    1.000
    C17      C        0.46300    0.83780    0.64480    1.000
    C18      C        0.38700    0.77620    0.63640    1.000
    H8       H        0.35030    0.76920    0.59700    1.000
    C19      C        0.36840    0.72380    0.69250    1.000
    H9       H        0.31590    0.68360    0.69170    1.000
    C20      C        0.43270    0.73850    0.74490    1.000
    C21      C        0.50280    0.79710    0.75230    1.000
    H10      H        0.53540    0.80450    0.79270    1.000
    C22      C        0.52950    0.85050    0.69710    1.000
    H11      H        0.58630    0.88890    0.69850    1.000
    C23      C        0.41990    0.68120    0.80010    1.000
    C24      C        0.29310    0.65400    0.82270    1.000
    H12      H        0.21880    0.66460    0.79980    1.000
    C25      C        0.28200    0.60900    0.88290    1.000
    C26      C        0.39390    0.58720    0.91020    1.000
    H13      H        0.38710    0.55410    0.94580    1.000
    C27      C        0.52030    0.61250    0.88710    1.000
    C28      C        0.52960    0.66010    0.83090    1.000
    H14      H        0.61300    0.67720    0.81460    1.000
    C29      C        0.65000    0.58360    0.91650    1.000
    C30      C        0.14800    0.58440    0.91300    1.000
    O1       O        0.65090    0.53370    0.94810    1.000
    O2       O        0.74350    0.62950    0.91260    1.000
    O3       O        0.13880    0.54800    0.96410    1.000
    O4       O        0.04200    0.60820    0.88770    1.000
    O5       O        0.40520    0.88820    0.54110    1.000
    O6       O        0.57820    0.93090    0.59280    1.000
    O7       O        0.16920    0.96500    0.44150    1.000
    O8       O        0.27920    0.88940    0.38150    1.000
    O9       O        0.67500    0.96650    0.45790    1.000
    O10      O        0.56760    0.90870    0.39560    1.000
    O11      O        0.88780    0.61190    0.05360    1.000
    O12      O        0.05410    0.54910    0.10300    1.000
    Na2      Na       0.10710    0.27920    0.12090    1.000
    Cd3      Cd       0.11334    0.45214    0.03936    1.000
    Cd4      Cd       0.61070    0.04020    0.54510    1.000
    C31      C        0.03600    0.40290    0.89930    1.000
    C32      C        0.04300    0.34360    0.84660    1.000
    C33      C        0.95680    0.34870    0.79850    1.000
    H15      H        0.89310    0.38760    0.79850    1.000
    C34      C        0.96440    0.29550    0.74930    1.000
    H16      H        0.90780    0.30100    0.71600    1.000
    C35      C        0.05010    0.23760    0.74890    1.000
    C36      C        0.13740    0.23190    0.79890    1.000
    H17      H        0.20210    0.19340    0.79740    1.000
    C37      C        0.13080    0.28160    0.85030    1.000
    H18      H        0.18220    0.27400    0.88550    1.000
    C38      C        0.06540    0.17930    0.69570    1.000
    C39      C        0.18870    0.15080    0.66960    1.000
    H19      H        0.26610    0.16490    0.68620    1.000
    C40      C        0.19970    0.10030    0.61760    1.000
    C41      C        0.08370    0.07590    0.59600    1.000
    H20      H        0.08900    0.04040    0.56370    1.000
    C42      C        0.96070    0.10510    0.62300    1.000
    C43      C        0.94920    0.15980    0.66970    1.000
    H21      H        0.86600    0.18310    0.68330    1.000
    C44      C        0.83130    0.08790    0.59930    1.000
    C45      C        0.33310    0.06950    0.58820    1.000
    C46      C        0.51730    0.10670    0.41480    1.000
    C47      C        0.53700    0.16220    0.35520    1.000
    C48      C        0.61300    0.22380    0.36360    1.000
    H22      H        0.64970    0.23080    0.40300    1.000
    C49      C        0.63160    0.27620    0.30750    1.000
    H23      H        0.68410    0.31640    0.30830    1.000
    C50      C        0.56730    0.26150    0.25510    1.000
    C51      C        0.49720    0.20290    0.24770    1.000
    H24      H        0.46460    0.19550    0.20730    1.000
    C52      C        0.47050    0.14950    0.30290    1.000
    H25      H        0.41370    0.11110    0.30150    1.000
    C53      C        0.58010    0.31880    0.19990    1.000
    C54      C        0.70690    0.34600    0.17730    1.000
    H26      H        0.78120    0.33540    0.20020    1.000
    C55      C        0.71800    0.39100    0.11710    1.000
    C56      C        0.60610    0.41280    0.08980    1.000
    H27      H        0.61290    0.44590    0.05420    1.000
    C57      C        0.47970    0.38750    0.11290    1.000
    C58      C        0.47040    0.33990    0.16910    1.000
    H28      H        0.38700    0.32280    0.18540    1.000
    C59      C        0.35000    0.41640    0.08350    1.000
    C60      C        0.85200    0.41560    0.08700    1.000
    O13      O        0.34910    0.46630    0.05190    1.000
    O14      O        0.25650    0.37050    0.08740    1.000
    O15      O        0.86120    0.45200    0.03590    1.000
    O16      O        0.95800    0.39180    0.11230    1.000
    O17      O        0.59480    0.11180    0.45890    1.000
    O18      O        0.42180    0.06910    0.40720    1.000
    O19      O        0.83080    0.03500    0.55850    1.000
    O20      O        0.72080    0.11060    0.61850    1.000
    O21      O        0.32500    0.03350    0.54210    1.000
    O22      O        0.43240    0.09130    0.60440    1.000
    O23      O        0.11220    0.38810    0.94640    1.000
    O24      O        0.94590    0.45090    0.89700    1.000
    Cd5      Cd       0.91568    0.96922    0.01845    1.000
    Cl1      Cl       0.72950    0.88230    0.05250    1.000
    N1       N        0.90020    0.08350    0.06060    1.000
    N2       N        0.90190    0.03620    0.92190    1.000
    N3       N        0.00140    0.10660    0.36740    1.000
    N4       N        0.54000    0.33670    0.92320    1.000
    C61      C        0.46650    0.40010    0.89760    1.000
    H29      H        0.42830    0.38690    0.85850    1.000
    H30      H        0.52710    0.43850    0.88670    1.000
    H31      H        0.39580    0.41670    0.93080    1.000
    C62      C        0.66180    0.34270    0.93350    1.000
    H32      H        0.69610    0.38890    0.92870    1.000
    C63      C        0.75270    0.28200    0.95240    1.000
    H33      H        0.83840    0.29010    0.96340    1.000
    C64      C        0.70750    0.21520    0.95330    1.000
    C65      C        0.55680    0.21190    0.95170    1.000
    H34      H        0.50980    0.17100    0.96580    1.000
    C66      C        0.49700    0.27250    0.92840    1.000
    H35      H        0.41310    0.26710    0.91410    1.000
    C67      C        0.78660    0.14640    0.97260    1.000
    C68      C        0.81940    0.13660    0.03940    1.000
    C69      C        0.77350    0.18860    0.09190    1.000
    H36      H        0.71960    0.23130    0.08920    1.000
    C70      C        0.82930    0.15940    0.14640    1.000
    H37      H        0.81550    0.17810    0.18900    1.000
    C71      C        0.91230    0.09550    0.12660    1.000
    C72      C        0.82420    0.10370    0.91610    1.000
    C73      C        0.79460    0.11680    0.84890    1.000
    H38      H        0.74300    0.15620    0.83390    1.000
    C74      C        0.85480    0.06220    0.81170    1.000
    H39      H        0.85250    0.05740    0.76630    1.000
    C75      C        0.92440    0.01170    0.85420    1.000
    C76      C        0.99360    0.04930    0.16480    1.000
    C77      C        0.99420    0.07030    0.23730    1.000
    C78      C        0.87940    0.07780    0.28050    1.000
    H40      H        0.79630    0.07090    0.26580    1.000
    C79      C        0.88620    0.09580    0.34600    1.000
    H41      H        0.80750    0.10020    0.37520    1.000
    C80      C        0.12210    0.08150    0.26130    1.000
    H42      H        0.20340    0.07420    0.23450    1.000
    C81      C        0.11640    0.10350    0.32510    1.000
    H43      H        0.19530    0.11710    0.34050    1.000
    C82      C        0.01100    0.12850    0.43760    1.000
    H44      H        0.93070    0.15670    0.45390    1.000
    H45      H        0.02010    0.08560    0.46500    1.000
    H46      H        0.08780    0.15730    0.43880    1.000
    Cd6      Cd       0.08432    0.03078    0.98155    1.000
    Cl2      Cl       0.27050    0.11770    0.94750    1.000
    N5       N        0.09980    0.91650    0.93940    1.000
    N6       N        0.09810    0.96380    0.07810    1.000
    N7       N        0.99860    0.89340    0.63260    1.000
    N8       N        0.46000    0.66330    0.07680    1.000
    C83      C        0.53350    0.59990    0.10240    1.000
    H47      H        0.57170    0.61310    0.14150    1.000
    H48      H        0.47290    0.56150    0.11330    1.000
    H49      H        0.60420    0.58330    0.06920    1.000
    C84      C        0.33820    0.65730    0.06650    1.000
    H50      H        0.30390    0.61110    0.07130    1.000
    C85      C        0.24730    0.71800    0.04760    1.000
    H51      H        0.16160    0.70990    0.03660    1.000
    C86      C        0.29250    0.78480    0.04670    1.000
    C87      C        0.44320    0.78810    0.04830    1.000
    H52      H        0.49020    0.82900    0.03420    1.000
    C88      C        0.50300    0.72750    0.07160    1.000
    H53      H        0.58690    0.73290    0.08590    1.000
    C89      C        0.21340    0.85360    0.02740    1.000
    C90      C        0.18060    0.86340    0.96060    1.000
    C91      C        0.22650    0.81140    0.90810    1.000
    H54      H        0.28040    0.76870    0.91080    1.000
    C92      C        0.17070    0.84060    0.85360    1.000
    H55      H        0.18450    0.82190    0.81100    1.000
    C93      C        0.08770    0.90450    0.87340    1.000
    C94      C        0.17580    0.89630    0.08390    1.000
    C95      C        0.20540    0.88320    0.15110    1.000
    H56      H        0.25700    0.84380    0.16610    1.000
    C96      C        0.14520    0.93780    0.18830    1.000
    H57      H        0.14750    0.94260    0.23370    1.000
    C97      C        0.07560    0.98830    0.14580    1.000
    C98      C        0.00640    0.95070    0.83520    1.000
    C99      C        0.00580    0.92970    0.76270    1.000
    C100     C        0.12060    0.92220    0.71950    1.000
    H58      H        0.20370    0.92910    0.73420    1.000
    C101     C        0.11380    0.90420    0.65400    1.000
    H59      H        0.19250    0.89980    0.62480    1.000
    C102     C        0.87790    0.91850    0.73870    1.000
    H60      H        0.79660    0.92580    0.76550    1.000
    C103     C        0.88360    0.89650    0.67490    1.000
    H61      H        0.80470    0.88290    0.65950    1.000
    C104     C        0.98900    0.87150    0.56240    1.000
    H62      H        0.06930    0.84330    0.54610    1.000
    H63      H        0.97990    0.91440    0.53500    1.000
    H64      H        0.91220    0.84270    0.56120    1.000
