# CIF file generated by openbabel 3.1.0, see https://openbabel.org
data_I
_chemical_name_common 'image0'
_cell_length_a 13.081
_cell_length_b 16.379
_cell_length_c 15.407
_cell_angle_alpha 90
_cell_angle_beta 102.368
_cell_angle_gamma 90
_space_group_name_H-M_alt 'P 1'
_space_group_name_Hall 'P 1'
loop_
    _symmetry_equiv_pos_as_xyz
    x,y,z
loop_
    _atom_site_label
    _atom_site_type_symbol
    _atom_site_fract_x
    _atom_site_fract_y
    _atom_site_fract_z
    _atom_site_occupancy
    Ni1      Ni       0.48884    0.30586    0.57391    1.000
    V1       V        0.34094    0.33234    0.35453    1.000
    V2       V        0.27631    0.65855    0.25152    1.000
    V3       V        0.21851    0.50397    0.37800    1.000
    O1       O        0.11347    0.49888    0.42107    1.000
    O2       O        0.20195    0.58293    0.29693    1.000
    O3       O        0.62118    0.31387    0.67173    1.000
    O4       O        0.23726    0.40738    0.33093    1.000
    O5       O        0.30330    0.24596    0.28597    1.000
    O6       O        0.36682    0.30945    0.46192    1.000
    N1       N        0.01124    0.36893    0.51236    1.000
    N2       N        0.38089    0.02037    0.88675    1.000
    N3       N        0.01578    0.67877    0.92433    1.000
    N4       N        0.38962    0.30581    0.66265    1.000
    C1       C        0.39260    0.07092    0.82090    1.000
    H1       H        0.45940    0.08960    0.81980    1.000
    C2       C        0.01790    0.19754    0.51764    1.000
    C3       C        0.24710    0.30951    0.77491    1.000
    C4       C        0.42160    0.31970    0.74970    1.000
    H2       H        0.49250    0.32860    0.77280    1.000
    C5       C        0.94550    0.63502    0.86790    1.000
    H3       H        0.88730    0.66170    0.83460    1.000
    C6       C        0.21630    0.29613    0.68490    1.000
    H4       H        0.14580    0.28830    0.65950    1.000
    C7       C        0.07650    0.24181    0.46991    1.000
    H5       H        0.11980    0.21490    0.43860    1.000
    C8       C        0.95490    0.55175    0.85650    1.000
    H6       H        0.90350    0.52380    0.81640    1.000
    C9       C        0.95370    0.32597    0.55850    1.000
    H7       H        0.91160    0.35430    0.58980    1.000
    C10      C        0.28500    0.99280    0.88435    1.000
    H8       H        0.27550    0.95630    0.92820    1.000
    C11      C        0.20950    0.06882    0.75405    1.000
    C12      C        0.31040    0.09623    0.75519    1.000
    H9       H        0.32220    0.13180    0.71130    1.000
    C13      C        0.02680    0.10586    0.52260    1.000
    H10      H        0.03030    0.08460    0.46450    1.000
    H11      H        0.96480    0.08350    0.53870    1.000
    C14      C        0.19880    0.01517    0.82060    1.000
    H12      H        0.13330    0.99410    0.82240    1.000
    C15      C        0.35290    0.32130    0.80660    1.000
    H13      H        0.37840    0.33040    0.86700    1.000
    C16      C        0.07130    0.32570    0.46843    1.000
    H14      H        0.11140    0.35390    0.43530    1.000
    C17      C        0.11510    0.09480    0.68650    1.000
    H15      H        0.05430    0.06610    0.69770    1.000
    H16      H        0.10380    0.15270    0.69340    1.000
    C18      C        0.12460    0.07824    0.59110    1.000
    H17      H        0.13530    0.02020    0.58390    1.000
    H18      H        0.18540    0.10670    0.57980    1.000
    C19      C        0.09750    0.63795    0.97196    1.000
    H19      H        0.14710    0.66680    0.01280    1.000
    C20      C        0.03960    0.51019    0.90390    1.000
    C21      C        0.11150    0.55524    0.96330    1.000
    H20      H        0.16980    0.52970    0.99760    1.000
    C22      C        0.95370    0.24141    0.56190    1.000
    H21      H        0.91100    0.21420    0.59360    1.000
    C23      C        0.16950    0.31666    0.83320    1.000
    H22      H        0.20090    0.29820    0.89280    1.000
    H23      H        0.10900    0.28270    0.81020    1.000
    C24      C        0.28800    0.29429    0.63262    1.000
    H24      H        0.26430    0.28430    0.57220    1.000
    C25      C        0.13610    0.40553    0.83560    1.000
    H25      H        0.19750    0.43860    0.85830    1.000
    H26      H        0.10660    0.42340    0.77550    1.000
    C26      C        0.05620    0.42021    0.89260    1.000
    H27      H        0.99030    0.39490    0.86480    1.000
    H28      H        0.08040    0.39520    0.95040    1.000
    Ni2      Ni       0.01116    0.80586    0.92609    1.000
    V4       V        0.15906    0.83234    0.14547    1.000
    V5       V        0.22369    0.15855    0.24848    1.000
    V6       V        0.28149    0.00397    0.12200    1.000
    O7       O        0.38653    0.99888    0.07893    1.000
    O8       O        0.29805    0.08293    0.20307    1.000
    O9       O        0.87882    0.81387    0.82827    1.000
    O10      O        0.26274    0.90738    0.16907    1.000
    O11      O        0.19670    0.74596    0.21403    1.000
    O12      O        0.13318    0.80945    0.03808    1.000
    N5       N        0.48876    0.86893    0.98764    1.000
    N6       N        0.11911    0.52037    0.61325    1.000
    N7       N        0.48422    0.17877    0.57567    1.000
    N8       N        0.11038    0.80581    0.83735    1.000
    C27      C        0.10740    0.57092    0.67910    1.000
    H29      H        0.04060    0.58960    0.68020    1.000
    C28      C        0.48210    0.69754    0.98236    1.000
    C29      C        0.25290    0.80951    0.72509    1.000
    C30      C        0.07840    0.81970    0.75030    1.000
    H30      H        0.00750    0.82860    0.72720    1.000
    C31      C        0.55450    0.13502    0.63210    1.000
    H31      H        0.61270    0.16170    0.66540    1.000
    C32      C        0.28370    0.79613    0.81510    1.000
    H32      H        0.35420    0.78830    0.84050    1.000
    C33      C        0.42350    0.74181    0.03009    1.000
    H33      H        0.38020    0.71490    0.06140    1.000
    C34      C        0.54510    0.05175    0.64350    1.000
    H34      H        0.59650    0.02380    0.68360    1.000
    C35      C        0.54630    0.82597    0.94150    1.000
    H35      H        0.58840    0.85430    0.91020    1.000
    C36      C        0.21500    0.49280    0.61565    1.000
    H36      H        0.22450    0.45630    0.57180    1.000
    C37      C        0.29050    0.56882    0.74595    1.000
    C38      C        0.18960    0.59623    0.74481    1.000
    H37      H        0.17780    0.63180    0.78870    1.000
    C39      C        0.47320    0.60586    0.97740    1.000
    H38      H        0.46970    0.58460    0.03550    1.000
    H39      H        0.53520    0.58350    0.96130    1.000
    C40      C        0.30120    0.51517    0.67940    1.000
    H40      H        0.36670    0.49410    0.67760    1.000
    C41      C        0.14710    0.82130    0.69340    1.000
    H41      H        0.12160    0.83040    0.63300    1.000
    C42      C        0.42870    0.82570    0.03157    1.000
    H42      H        0.38860    0.85390    0.06470    1.000
    C43      C        0.38490    0.59480    0.81350    1.000
    H43      H        0.44570    0.56610    0.80230    1.000
    H44      H        0.39620    0.65270    0.80660    1.000
    C44      C        0.37540    0.57824    0.90890    1.000
    H45      H        0.36470    0.52020    0.91610    1.000
    H46      H        0.31460    0.60670    0.92020    1.000
    C45      C        0.40250    0.13795    0.52804    1.000
    H47      H        0.35290    0.16680    0.48720    1.000
    C46      C        0.46040    0.01019    0.59610    1.000
    C47      C        0.38850    0.05524    0.53670    1.000
    H48      H        0.33020    0.02970    0.50240    1.000
    C48      C        0.54630    0.74141    0.93810    1.000
    H49      H        0.58900    0.71420    0.90640    1.000
    C49      C        0.33050    0.81666    0.66680    1.000
    H50      H        0.29910    0.79820    0.60720    1.000
    H51      H        0.39100    0.78270    0.68980    1.000
    C50      C        0.21200    0.79429    0.86738    1.000
    H52      H        0.23570    0.78430    0.92780    1.000
    C51      C        0.36390    0.90553    0.66440    1.000
    H53      H        0.30250    0.93860    0.64170    1.000
    H54      H        0.39340    0.92340    0.72450    1.000
    C52      C        0.44380    0.92021    0.60740    1.000
    H55      H        0.50970    0.89490    0.63520    1.000
    H56      H        0.41960    0.89520    0.54960    1.000
    Ni3      Ni       0.51116    0.69414    0.42609    1.000
    V7       V        0.65906    0.66766    0.64547    1.000
    V8       V        0.72369    0.34145    0.74848    1.000
    V9       V        0.78149    0.49603    0.62200    1.000
    O13      O        0.88653    0.50112    0.57893    1.000
    O14      O        0.79805    0.41707    0.70307    1.000
    O15      O        0.37882    0.68613    0.32827    1.000
    O16      O        0.76274    0.59262    0.66907    1.000
    O17      O        0.69670    0.75404    0.71403    1.000
    O18      O        0.63318    0.69055    0.53808    1.000
    N9       N        0.98876    0.63107    0.48764    1.000
    N10      N        0.61911    0.97963    0.11325    1.000
    N11      N        0.98422    0.32123    0.07567    1.000
    N12      N        0.61038    0.69419    0.33735    1.000
    C53      C        0.60740    0.92908    0.17910    1.000
    H57      H        0.54060    0.91040    0.18020    1.000
    C54      C        0.98210    0.80246    0.48236    1.000
    C55      C        0.75290    0.69049    0.22509    1.000
    C56      C        0.57840    0.68030    0.25030    1.000
    H58      H        0.50750    0.67140    0.22720    1.000
    C57      C        0.05450    0.36498    0.13210    1.000
    H59      H        0.11270    0.33830    0.16540    1.000
    C58      C        0.78370    0.70387    0.31510    1.000
    H60      H        0.85420    0.71170    0.34050    1.000
    C59      C        0.92350    0.75819    0.53009    1.000
    H61      H        0.88020    0.78510    0.56140    1.000
    C60      C        0.04510    0.44825    0.14350    1.000
    H62      H        0.09650    0.47620    0.18360    1.000
    C61      C        0.04630    0.67403    0.44150    1.000
    H63      H        0.08840    0.64570    0.41020    1.000
    C62      C        0.71500    0.00720    0.11565    1.000
    H64      H        0.72450    0.04370    0.07180    1.000
    C63      C        0.79050    0.93118    0.24595    1.000
    C64      C        0.68960    0.90377    0.24481    1.000
    H65      H        0.67780    0.86820    0.28870    1.000
    C65      C        0.97320    0.89414    0.47740    1.000
    H66      H        0.96970    0.91540    0.53550    1.000
    H67      H        0.03520    0.91650    0.46130    1.000
    C66      C        0.80120    0.98483    0.17940    1.000
    H68      H        0.86670    0.00590    0.17760    1.000
    C67      C        0.64710    0.67870    0.19340    1.000
    H69      H        0.62160    0.66960    0.13300    1.000
    C68      C        0.92870    0.67430    0.53157    1.000
    H70      H        0.88860    0.64610    0.56470    1.000
    C69      C        0.88490    0.90520    0.31350    1.000
    H71      H        0.94570    0.93390    0.30230    1.000
    H72      H        0.89620    0.84730    0.30660    1.000
    C70      C        0.87540    0.92176    0.40890    1.000
    H73      H        0.86470    0.97980    0.41610    1.000
    H74      H        0.81460    0.89330    0.42020    1.000
    C71      C        0.90250    0.36205    0.02804    1.000
    H75      H        0.85290    0.33320    0.98720    1.000
    C72      C        0.96040    0.48981    0.09610    1.000
    C73      C        0.88850    0.44476    0.03670    1.000
    H76      H        0.83020    0.47030    0.00240    1.000
    C74      C        0.04630    0.75859    0.43810    1.000
    H77      H        0.08900    0.78580    0.40640    1.000
    C75      C        0.83050    0.68334    0.16680    1.000
    H78      H        0.79910    0.70180    0.10720    1.000
    H79      H        0.89100    0.71730    0.18980    1.000
    C76      C        0.71200    0.70571    0.36738    1.000
    H80      H        0.73570    0.71570    0.42780    1.000
    C77      C        0.86390    0.59447    0.16440    1.000
    H81      H        0.80250    0.56140    0.14170    1.000
    H82      H        0.89340    0.57660    0.22450    1.000
    C78      C        0.94380    0.57979    0.10740    1.000
    H83      H        0.00970    0.60510    0.13520    1.000
    H84      H        0.91960    0.60480    0.04960    1.000
    Ni4      Ni       0.98884    0.19414    0.07391    1.000
    V10      V        0.84094    0.16766    0.85453    1.000
    V11      V        0.77631    0.84145    0.75152    1.000
    V12      V        0.71851    0.99603    0.87800    1.000
    O19      O        0.61347    0.00112    0.92107    1.000
    O20      O        0.70195    0.91707    0.79693    1.000
    O21      O        0.12118    0.18613    0.17173    1.000
    O22      O        0.73726    0.09262    0.83093    1.000
    O23      O        0.80330    0.25404    0.78597    1.000
    O24      O        0.86682    0.19055    0.96192    1.000
    N13      N        0.51124    0.13107    0.01236    1.000
    N14      N        0.88089    0.47963    0.38675    1.000
    N15      N        0.51578    0.82123    0.42433    1.000
    N16      N        0.88962    0.19419    0.16265    1.000
    C79      C        0.89260    0.42908    0.32090    1.000
    H85      H        0.95940    0.41040    0.31980    1.000
    C80      C        0.51790    0.30246    0.01764    1.000
    C81      C        0.74710    0.19049    0.27491    1.000
    C82      C        0.92160    0.18030    0.24970    1.000
    H86      H        0.99250    0.17140    0.27280    1.000
    C83      C        0.44550    0.86498    0.36790    1.000
    H87      H        0.38730    0.83830    0.33460    1.000
    C84      C        0.71630    0.20387    0.18490    1.000
    H88      H        0.64580    0.21170    0.15950    1.000
    C85      C        0.57650    0.25819    0.96991    1.000
    H89      H        0.61980    0.28510    0.93860    1.000
    C86      C        0.45490    0.94825    0.35650    1.000
    H90      H        0.40350    0.97620    0.31640    1.000
    C87      C        0.45370    0.17403    0.05850    1.000
    H91      H        0.41160    0.14570    0.08980    1.000
    C88      C        0.78500    0.50720    0.38435    1.000
    H92      H        0.77550    0.54370    0.42820    1.000
    C89      C        0.70950    0.43118    0.25405    1.000
    C90      C        0.81040    0.40377    0.25519    1.000
    H93      H        0.82220    0.36820    0.21130    1.000
    C91      C        0.52680    0.39414    0.02260    1.000
    H94      H        0.53030    0.41540    0.96450    1.000
    H95      H        0.46480    0.41650    0.03870    1.000
    C92      C        0.69880    0.48483    0.32060    1.000
    H96      H        0.63330    0.50590    0.32240    1.000
    C93      C        0.85290    0.17870    0.30660    1.000
    H97      H        0.87840    0.16960    0.36700    1.000
    C94      C        0.57130    0.17430    0.96843    1.000
    H98      H        0.61140    0.14610    0.93530    1.000
    C95      C        0.61510    0.40520    0.18650    1.000
    H99      H        0.55430    0.43390    0.19770    1.000
    H100     H        0.60380    0.34730    0.19340    1.000
    C96      C        0.62460    0.42176    0.09110    1.000
    H101     H        0.63530    0.47980    0.08390    1.000
    H102     H        0.68540    0.39330    0.07980    1.000
    C97      C        0.59750    0.86205    0.47196    1.000
    H103     H        0.64710    0.83320    0.51280    1.000
    C98      C        0.53960    0.98981    0.40390    1.000
    C99      C        0.61150    0.94476    0.46330    1.000
    H104     H        0.66980    0.97030    0.49760    1.000
    C100     C        0.45370    0.25859    0.06190    1.000
    H105     H        0.41100    0.28580    0.09360    1.000
    C101     C        0.66950    0.18334    0.33320    1.000
    H106     H        0.70090    0.20180    0.39280    1.000
    H107     H        0.60900    0.21730    0.31020    1.000
    C102     C        0.78800    0.20571    0.13262    1.000
    H108     H        0.76430    0.21570    0.07220    1.000
    C103     C        0.63610    0.09447    0.33560    1.000
    H109     H        0.69750    0.06140    0.35830    1.000
    H110     H        0.60660    0.07660    0.27550    1.000
    C104     C        0.55620    0.07979    0.39260    1.000
    H111     H        0.49030    0.10510    0.36480    1.000
    H112     H        0.58040    0.10480    0.45040    1.000
    Ni5      Ni       0.00000    0.50000    0.50000    1.000
    Ni6      Ni       0.50000    0.00000    0.00000    1.000
