data_functionalizedCrystal
_audit_creation_method	'EQeq! by Chris Wilmer'
_symmetry_space_group_name_H-M	'P1'
_symmetry_Int_Tables_number	1
_symmetry_cell_setting	triclinic
loop_
_symmetry_equiv_pos_as_xyz
  x,y,z
_cell_length_a	60.6741
_cell_length_b	60.6741
_cell_length_c	5.1277
_cell_angle_alpha	90
_cell_angle_beta	90
_cell_angle_gamma	120
loop_
_atom_site_label
_atom_site_type_symbol
_atom_site_fract_x
_atom_site_fract_y
_atom_site_fract_z
_atom_site_charge
Mof_C 	C 	0.1061	0.5866	0.542	0.024
Mof_C 	C 	0.0903	0.5748	0.751	-0.014
Mof_C 	C 	0.0761	0.5847	0.861	0.02
Mof_C 	C 	0.0834	0.6095	0.807	0
Mof_C 	C 	0.1026	0.6228	0.615	0.027
Mof_C 	C 	0.1148	0.6112	0.492	-0.038
Mof_P 	P 	0.02345	0.54672	0.0283	0.543
Mof_O 	O 	0.0178	0.5278	0.788	-0.659
Mof_O 	O 	0.0116	0.5294	0.248	-0.724
Mof_C 	C 	0.1339	0.6257	0.261	0.138
Mof_N 	N 	0.1495	0.6176	0.131	-0.126
Mof_O 	O 	0.0093	0.5619	0.969	-0.189
Mof_C 	C 	0.0587	0.5715	0.1	-0.054
Mof_N 	N 	0.1435	0.6499	0.26	-0.149
Mof_C 	C 	0.1554	0.6626	0.054	0.172
Mof_N 	N 	0.1686	0.655	0.903	-0.142
Mof_C 	C 	0.1638	0.6306	0.928	0.122
Mof_C 	C 	0.1613	0.688	0.072	-0.036
Mof_C 	C 	0.1479	0.6925	0.255	0.04
Mof_C 	C 	0.1519	0.7167	0.307	0.011
Mof_C 	C 	0.1668	0.7359	0.148	0.055
Mof_C 	C 	0.1777	0.7311	0.932	-0.019
Mof_C 	C 	0.1767	0.7067	0.905	0.019
Mof_C 	C 	0.1803	0.6198	0.775	-0.015
Mof_C 	C 	0.1872	0.6242	0.508	0.039
Mof_C 	C 	0.1798	0.5987	0.874	0.01
Mof_C 	C 	0.1971	0.5905	0.772	0.012
Mof_C 	C 	0.2053	0.595	0.518	0.027
Mof_C 	C 	0.2041	0.6148	0.39	0.045
Mof_C 	C 	0.2127	0.5782	0.386	-0.041
Mof_P 	P 	0.24285	0.58427	0.461	0.439
Mof_C 	C 	0.1682	0.7615	0.193	-0.017
Mof_P 	P 	0.15332	0.76875	0.937	0.404
Mof_O 	O 	0.1563	0.7557	0.706	-0.209
Mof_O 	O 	0.1652	0.79957	0.891	-0.673
Mof_O 	O 	0.1229	0.7559	0.996	-0.169
Mof_O 	O 	0.2536	0.5811	0.217	-0.16
Mof_O 	O 	0.2586	0.6091	0.575	-0.158
Mof_O 	O 	0.2437	0.5672	0.656	-0.193
Mof_C 	C 	0.77277	0.91993	0.87533	-0.003
Mof_C 	C 	0.75697	0.90813	0.08433	0.016
Mof_C 	C 	0.74277	0.91803	0.19433	0.015
Mof_C 	C 	0.75007	0.94283	0.14033	0.02
Mof_C 	C 	0.76927	0.95613	0.94833	0.011
Mof_C 	C 	0.78147	0.94453	0.82533	-0.025
Mof_P 	P 	0.69012	0.88005	0.36163	0.545
Mof_O 	O 	0.68447	0.86113	0.12133	-0.642
Mof_O 	O 	0.67827	0.86273	0.58133	-0.726
Mof_C 	C 	0.80057	0.95903	0.59433	0.133
Mof_N 	N 	0.81617	0.95093	0.46433	-0.134
Mof_O 	O 	0.67597	0.89523	0.30233	-0.183
Mof_C 	C 	0.72537	0.90483	0.43333	-0.057
Mof_N 	N 	0.81017	0.98323	0.59333	-0.147
Mof_C 	C 	0.82207	0.99593	0.38733	0.162
Mof_N 	N 	0.83527	0.98833	0.23633	-0.135
Mof_C 	C 	0.83047	0.96393	0.26133	0.136
Mof_C 	C 	0.82797	0.02133	0.40533	-0.057
Mof_C 	C 	0.81457	0.02583	0.58833	0.04
Mof_C 	C 	0.81857	0.05003	0.64033	0.02
Mof_C 	C 	0.83347	0.06923	0.48133	0.029
Mof_C 	C 	0.84437	0.06443	0.26533	0.002
Mof_C 	C 	0.84337	0.04003	0.23833	0.034
Mof_C 	C 	0.84697	0.95313	0.10833	-0.009
Mof_C 	C 	0.85387	0.95753	0.84133	0.031
Mof_C 	C 	0.84647	0.93203	0.20733	0.017
Mof_C 	C 	0.86377	0.92383	0.10533	0.023
Mof_C 	C 	0.87197	0.92833	0.85133	0.022
Mof_C 	C 	0.87077	0.94813	0.72333	0.042
Mof_C 	C 	0.87937	0.91153	0.71933	-0.045
Mof_P 	P 	0.90952	0.9176	0.79433	0.439
Mof_C 	C 	0.83487	0.09483	0.52633	-0.028
Mof_P 	P 	0.81999	0.10208	0.27033	0.42
Mof_O 	O 	0.82297	0.08903	0.03933	-0.22
Mof_O 	O 	0.83187	0.1329	0.22433	-0.671
Mof_O 	O 	0.78957	0.08923	0.32933	-0.162
Mof_O 	O 	0.92027	0.91443	0.55033	-0.17
Mof_O 	O 	0.92527	0.94243	0.90833	-0.156
Mof_O 	O 	0.91037	0.90053	0.98933	-0.19
Mof_C 	C 	0.43943	0.25327	0.20867	0.018
Mof_C 	C 	0.42363	0.24147	0.41767	-0.009
Mof_C 	C 	0.40943	0.25137	0.52767	0.02
Mof_C 	C 	0.41673	0.27617	0.47367	0.005
Mof_C 	C 	0.43593	0.28947	0.28167	0.024
Mof_C 	C 	0.44813	0.27787	0.15867	-0.057
Mof_P 	P 	0.35678	0.21339	0.69497	0.544
Mof_O 	O 	0.35113	0.19447	0.45467	-0.662
Mof_O 	O 	0.34493	0.19607	0.91467	-0.704
Mof_C 	C 	0.46723	0.29237	0.92767	0.159
Mof_N 	N 	0.48283	0.28427	0.79767	-0.132
Mof_O 	O 	0.34263	0.22857	0.63567	-0.187
Mof_C 	C 	0.39203	0.23817	0.76667	-0.044
Mof_N 	N 	0.47683	0.31657	0.92667	-0.146
Mof_C 	C 	0.48873	0.32927	0.72067	0.162
Mof_N 	N 	0.50193	0.32167	0.56967	-0.136
Mof_C 	C 	0.49713	0.29727	0.59467	0.136
Mof_C 	C 	0.49463	0.35467	0.73867	-0.057
Mof_C 	C 	0.48123	0.35917	0.92167	0.045
Mof_C 	C 	0.48523	0.38337	0.97367	0.019
Mof_C 	C 	0.50013	0.40257	0.81467	0.029
Mof_C 	C 	0.51103	0.39777	0.59867	0.004
Mof_C 	C 	0.51003	0.37337	0.57167	0.033
Mof_C 	C 	0.51363	0.28647	0.44167	-0.014
Mof_C 	C 	0.52053	0.29087	0.17467	0.028
Mof_C 	C 	0.51313	0.26537	0.54067	0.025
Mof_C 	C 	0.53043	0.25717	0.43867	0.021
Mof_C 	C 	0.53863	0.26167	0.18467	0.029
Mof_C 	C 	0.53743	0.28147	0.05667	0.028
Mof_C 	C 	0.54603	0.24487	0.05267	-0.054
Mof_P 	P 	0.57618	0.25094	0.12767	0.423
Mof_C 	C 	0.50153	0.42817	0.85967	-0.03
Mof_P 	P 	0.48665	0.43542	0.60367	0.421
Mof_O 	O 	0.48963	0.42237	0.37267	-0.214
Mof_O 	O 	0.49853	0.46624	0.55767	-0.662
Mof_O 	O 	0.45623	0.42257	0.66267	-0.159
Mof_O 	O 	0.58693	0.24777	0.88367	-0.151
Mof_O 	O 	0.59193	0.27577	0.24167	-0.157
Mof_O 	O 	0.57703	0.23387	0.32267	-0.189
Mof_C 	C 	0.4134	0.5195	0.542	0.025
Mof_C 	C 	0.4252	0.5155	0.751	-0.013
Mof_C 	C 	0.4153	0.4914	0.861	0.021
Mof_C 	C 	0.3905	0.4739	0.807	0.001
Mof_C 	C 	0.3772	0.4798	0.615	0.028
Mof_C 	C 	0.3888	0.5036	0.492	-0.037
Mof_P 	P 	0.45328	0.47673	0.0283	0.544
Mof_O 	O 	0.4722	0.49	0.788	-0.658
Mof_O 	O 	0.4706	0.4822	0.248	-0.723
Mof_C 	C 	0.3743	0.5082	0.261	0.139
Mof_N 	N 	0.3824	0.5319	0.131	-0.125
Mof_O 	O 	0.4381	0.4474	0.969	-0.188
Mof_C 	C 	0.4285	0.4872	0.1	-0.053
Mof_N 	N 	0.3501	0.4936	0.26	-0.149
Mof_C 	C 	0.3374	0.4928	0.054	0.172
Mof_N 	N 	0.345	0.5136	0.903	-0.142
Mof_C 	C 	0.3694	0.5332	0.928	0.122
Mof_C 	C 	0.312	0.4733	0.072	-0.036
Mof_C 	C 	0.3075	0.4554	0.255	0.04
Mof_C 	C 	0.2833	0.4352	0.307	0.012
Mof_C 	C 	0.2641	0.4309	0.148	0.055
Mof_C 	C 	0.2689	0.4466	0.932	-0.019
Mof_C 	C 	0.2933	0.47	0.905	0.019
Mof_C 	C 	0.3802	0.5605	0.775	-0.015
Mof_C 	C 	0.3758	0.563	0.508	0.039
Mof_C 	C 	0.4013	0.5811	0.874	0.01
Mof_C 	C 	0.4095	0.6066	0.772	0.012
Mof_C 	C 	0.405	0.6103	0.518	0.027
Mof_C 	C 	0.3852	0.5893	0.39	0.045
Mof_C 	C 	0.4218	0.6345	0.386	-0.041
Mof_P 	P 	0.41573	0.65858	0.461	0.439
Mof_C 	C 	0.2385	0.4067	0.193	-0.017
Mof_P 	P 	0.23125	0.38457	0.937	0.403
Mof_O 	O 	0.2443	0.4006	0.706	-0.209
Mof_O 	O 	0.20043	0.36563	0.891	-0.673
Mof_O 	O 	0.2441	0.367	0.996	-0.169
Mof_O 	O 	0.4189	0.6725	0.217	-0.16
Mof_O 	O 	0.3909	0.6495	0.575	-0.158
Mof_O 	O 	0.4328	0.6765	0.656	-0.193
Mof_C 	C 	0.08007	0.85283	0.87533	-0.003
Mof_C 	C 	0.09187	0.84883	0.08433	0.016
Mof_C 	C 	0.08197	0.82473	0.19433	0.015
Mof_C 	C 	0.05717	0.80723	0.14033	0.02
Mof_C 	C 	0.04387	0.81313	0.94833	0.011
Mof_C 	C 	0.05547	0.83693	0.82533	-0.025
Mof_P 	P 	0.11995	0.81006	0.36163	0.545
Mof_O 	O 	0.13887	0.82333	0.12133	-0.642
Mof_O 	O 	0.13727	0.81553	0.58133	-0.726
Mof_C 	C 	0.04097	0.84153	0.59433	0.133
Mof_N 	N 	0.04907	0.86523	0.46433	-0.134
Mof_O 	O 	0.10477	0.78073	0.30233	-0.183
Mof_C 	C 	0.09517	0.82053	0.43333	-0.057
Mof_N 	N 	0.01677	0.82693	0.59333	-0.147
Mof_C 	C 	0.00407	0.82613	0.38733	0.161
Mof_N 	N 	0.01167	0.84693	0.23633	-0.135
Mof_C 	C 	0.03607	0.86653	0.26133	0.136
Mof_C 	C 	0.97867	0.80663	0.40533	-0.056
Mof_C 	C 	0.97417	0.78873	0.58833	0.04
Mof_C 	C 	0.94997	0.76853	0.64033	0.02
Mof_C 	C 	0.93077	0.76423	0.48133	0.029
Mof_C 	C 	0.93557	0.77993	0.26533	0.002
Mof_C 	C 	0.95997	0.80333	0.23833	0.033
Mof_C 	C 	0.04687	0.89383	0.10833	-0.009
Mof_C 	C 	0.04247	0.89633	0.84133	0.031
Mof_C 	C 	0.06797	0.91443	0.20733	0.017
Mof_C 	C 	0.07617	0.93993	0.10533	0.023
Mof_C 	C 	0.07167	0.94363	0.85133	0.022
Mof_C 	C 	0.05187	0.92263	0.72333	0.042
Mof_C 	C 	0.08847	0.96783	0.71933	-0.045
Mof_P 	P 	0.0824	0.99191	0.79433	0.44
Mof_C 	C 	0.90517	0.74003	0.52633	-0.028
Mof_P 	P 	0.89792	0.7179	0.27033	0.421
Mof_O 	O 	0.91097	0.73393	0.03933	-0.22
Mof_O 	O 	0.8671	0.69896	0.22433	-0.672
Mof_O 	O 	0.91077	0.70033	0.32933	-0.162
Mof_O 	O 	0.08557	0.00583	0.55033	-0.171
Mof_O 	O 	0.05757	0.98283	0.90833	-0.156
Mof_O 	O 	0.09947	0.00983	0.98933	-0.191
Mof_C 	C 	0.74673	0.18617	0.20867	0.018
Mof_C 	C 	0.75853	0.18217	0.41767	-0.009
Mof_C 	C 	0.74863	0.15807	0.52767	0.02
Mof_C 	C 	0.72383	0.14057	0.47367	0.005
Mof_C 	C 	0.71053	0.14647	0.28167	0.024
Mof_C 	C 	0.72213	0.17027	0.15867	-0.057
Mof_P 	P 	0.78661	0.1434	0.69497	0.545
Mof_O 	O 	0.80553	0.15667	0.45467	-0.662
Mof_O 	O 	0.80393	0.14887	0.91467	-0.704
Mof_C 	C 	0.70763	0.17487	0.92767	0.159
Mof_N 	N 	0.71573	0.19857	0.79767	-0.132
Mof_O 	O 	0.77143	0.11407	0.63567	-0.187
Mof_C 	C 	0.76183	0.15387	0.76667	-0.044
Mof_N 	N 	0.68343	0.16027	0.92667	-0.146
Mof_C 	C 	0.67073	0.15947	0.72067	0.162
Mof_N 	N 	0.67833	0.18027	0.56967	-0.136
Mof_C 	C 	0.70273	0.19987	0.59467	0.136
Mof_C 	C 	0.64533	0.13997	0.73867	-0.057
Mof_C 	C 	0.64083	0.12207	0.92167	0.045
Mof_C 	C 	0.61663	0.10187	0.97367	0.019
Mof_C 	C 	0.59743	0.09757	0.81467	0.029
Mof_C 	C 	0.60223	0.11327	0.59867	0.004
Mof_C 	C 	0.62663	0.13667	0.57167	0.033
Mof_C 	C 	0.71353	0.22717	0.44167	-0.014
Mof_C 	C 	0.70913	0.22967	0.17467	0.028
Mof_C 	C 	0.73463	0.24777	0.54067	0.025
Mof_C 	C 	0.74283	0.27327	0.43867	0.021
Mof_C 	C 	0.73833	0.27697	0.18467	0.029
Mof_C 	C 	0.71853	0.25597	0.05667	0.028
Mof_C 	C 	0.75513	0.30117	0.05267	-0.054
Mof_P 	P 	0.74906	0.32525	0.12767	0.423
Mof_C 	C 	0.57183	0.07337	0.85967	-0.03
Mof_P 	P 	0.56458	0.05124	0.60367	0.421
Mof_O 	O 	0.57763	0.06727	0.37267	-0.214
Mof_O 	O 	0.53376	0.0323	0.55767	-0.662
Mof_O 	O 	0.57743	0.03367	0.66267	-0.159
Mof_O 	O 	0.75223	0.33917	0.88367	-0.151
Mof_O 	O 	0.72423	0.31617	0.24167	-0.157
Mof_O 	O 	0.76613	0.34317	0.32267	-0.189
Mof_C 	C 	0.4805	0.8939	0.542	0.025
Mof_C 	C 	0.4845	0.9097	0.751	-0.013
Mof_C 	C 	0.5086	0.9239	0.861	0.021
Mof_C 	C 	0.5261	0.9166	0.807	0.001
Mof_C 	C 	0.5202	0.8974	0.615	0.028
Mof_C 	C 	0.4964	0.8852	0.492	-0.037
Mof_P 	P 	0.52327	0.97655	0.0283	0.544
Mof_O 	O 	0.51	0.9822	0.788	-0.658
Mof_O 	O 	0.5178	0.9884	0.248	-0.723
Mof_C 	C 	0.4918	0.8661	0.261	0.139
Mof_N 	N 	0.4681	0.8505	0.131	-0.125
Mof_O 	O 	0.5526	0.9907	0.969	-0.188
Mof_C 	C 	0.5128	0.9413	0.1	-0.053
Mof_N 	N 	0.5064	0.8565	0.26	-0.149
Mof_C 	C 	0.5072	0.8446	0.054	0.172
Mof_N 	N 	0.4864	0.8314	0.903	-0.142
Mof_C 	C 	0.4668	0.8362	0.928	0.122
Mof_C 	C 	0.5267	0.8387	0.072	-0.036
Mof_C 	C 	0.5446	0.8521	0.255	0.04
Mof_C 	C 	0.5648	0.8481	0.307	0.012
Mof_C 	C 	0.5691	0.8332	0.148	0.055
Mof_C 	C 	0.5534	0.8223	0.932	-0.019
Mof_C 	C 	0.53	0.8233	0.905	0.019
Mof_C 	C 	0.4395	0.8197	0.775	-0.015
Mof_C 	C 	0.437	0.8128	0.508	0.039
Mof_C 	C 	0.4189	0.8202	0.874	0.01
Mof_C 	C 	0.3934	0.8029	0.772	0.012
Mof_C 	C 	0.3897	0.7947	0.518	0.027
Mof_C 	C 	0.4107	0.7959	0.39	0.045
Mof_C 	C 	0.3655	0.7873	0.386	-0.041
Mof_P 	P 	0.34142	0.75715	0.461	0.439
Mof_C 	C 	0.5933	0.8318	0.193	-0.017
Mof_P 	P 	0.61543	0.84668	0.937	0.403
Mof_O 	O 	0.5994	0.8437	0.706	-0.209
Mof_O 	O 	0.63437	0.8348	0.891	-0.673
Mof_O 	O 	0.633	0.8771	0.996	-0.169
Mof_O 	O 	0.3275	0.7464	0.217	-0.16
Mof_O 	O 	0.3505	0.7414	0.575	-0.158
Mof_O 	O 	0.3235	0.7563	0.656	-0.193
Mof_C 	C 	0.14717	0.22723	0.87533	-0.003
Mof_C 	C 	0.15117	0.24303	0.08433	0.016
Mof_C 	C 	0.17527	0.25723	0.19433	0.015
Mof_C 	C 	0.19277	0.24993	0.14033	0.02
Mof_C 	C 	0.18687	0.23073	0.94833	0.011
Mof_C 	C 	0.16307	0.21853	0.82533	-0.025
Mof_P 	P 	0.18994	0.30988	0.36163	0.545
Mof_O 	O 	0.17667	0.31553	0.12133	-0.642
Mof_O 	O 	0.18447	0.32173	0.58133	-0.726
Mof_C 	C 	0.15847	0.19943	0.59433	0.133
Mof_N 	N 	0.13477	0.18383	0.46433	-0.134
Mof_O 	O 	0.21927	0.32403	0.30233	-0.183
Mof_C 	C 	0.17947	0.27463	0.43333	-0.057
Mof_N 	N 	0.17307	0.18983	0.59333	-0.147
Mof_C 	C 	0.17387	0.17793	0.38733	0.161
Mof_N 	N 	0.15307	0.16473	0.23633	-0.135
Mof_C 	C 	0.13347	0.16953	0.26133	0.136
Mof_C 	C 	0.19337	0.17203	0.40533	-0.057
Mof_C 	C 	0.21127	0.18543	0.58833	0.04
Mof_C 	C 	0.23147	0.18143	0.64033	0.02
Mof_C 	C 	0.23577	0.16653	0.48133	0.029
Mof_C 	C 	0.22007	0.15563	0.26533	0.002
Mof_C 	C 	0.19667	0.15663	0.23833	0.034
Mof_C 	C 	0.10617	0.15303	0.10833	-0.009
Mof_C 	C 	0.10367	0.14613	0.84133	0.031
Mof_C 	C 	0.08557	0.15353	0.20733	0.017
Mof_C 	C 	0.06007	0.13623	0.10533	0.023
Mof_C 	C 	0.05637	0.12803	0.85133	0.022
Mof_C 	C 	0.07737	0.12923	0.72333	0.042
Mof_C 	C 	0.03217	0.12063	0.71933	-0.045
Mof_P 	P 	0.00809	0.09048	0.79433	0.438
Mof_C 	C 	0.25997	0.16513	0.52633	-0.028
Mof_P 	P 	0.2821	0.18001	0.27033	0.421
Mof_O 	O 	0.26607	0.17703	0.03933	-0.22
Mof_O 	O 	0.30104	0.16813	0.22433	-0.672
Mof_O 	O 	0.29967	0.21043	0.32933	-0.162
Mof_O 	O 	0.99417	0.07973	0.55033	-0.17
Mof_O 	O 	0.01717	0.07473	0.90833	-0.156
Mof_O 	O 	0.99017	0.08963	0.98933	-0.19
Mof_C 	C 	0.81383	0.56057	0.20867	0.018
Mof_C 	C 	0.81783	0.57637	0.41767	-0.009
Mof_C 	C 	0.84193	0.59057	0.52767	0.02
Mof_C 	C 	0.85943	0.58327	0.47367	0.005
Mof_C 	C 	0.85353	0.56407	0.28167	0.025
Mof_C 	C 	0.82973	0.55187	0.15867	-0.057
Mof_P 	P 	0.8566	0.64322	0.69497	0.545
Mof_O 	O 	0.84333	0.64887	0.45467	-0.662
Mof_O 	O 	0.85113	0.65507	0.91467	-0.704
Mof_C 	C 	0.82513	0.53277	0.92767	0.16
Mof_N 	N 	0.80143	0.51717	0.79767	-0.132
Mof_O 	O 	0.88593	0.65737	0.63567	-0.187
Mof_C 	C 	0.84613	0.60797	0.76667	-0.044
Mof_N 	N 	0.83973	0.52317	0.92667	-0.146
Mof_C 	C 	0.84053	0.51127	0.72067	0.162
Mof_N 	N 	0.81973	0.49807	0.56967	-0.136
Mof_C 	C 	0.80013	0.50287	0.59467	0.136
Mof_C 	C 	0.86003	0.50537	0.73867	-0.057
Mof_C 	C 	0.87793	0.51877	0.92167	0.045
Mof_C 	C 	0.89813	0.51477	0.97367	0.019
Mof_C 	C 	0.90243	0.49987	0.81467	0.029
Mof_C 	C 	0.88673	0.48897	0.59867	0.004
Mof_C 	C 	0.86333	0.48997	0.57167	0.033
Mof_C 	C 	0.77283	0.48637	0.44167	-0.014
Mof_C 	C 	0.77033	0.47947	0.17467	0.028
Mof_C 	C 	0.75223	0.48687	0.54067	0.025
Mof_C 	C 	0.72673	0.46957	0.43867	0.021
Mof_C 	C 	0.72303	0.46137	0.18467	0.029
Mof_C 	C 	0.74403	0.46257	0.05667	0.028
Mof_C 	C 	0.69883	0.45397	0.05267	-0.054
Mof_P 	P 	0.67475	0.42382	0.12767	0.423
Mof_C 	C 	0.92663	0.49847	0.85967	-0.03
Mof_P 	P 	0.94876	0.51335	0.60367	0.421
Mof_O 	O 	0.93273	0.51037	0.37267	-0.213
Mof_O 	O 	0.9677	0.50147	0.55767	-0.662
Mof_O 	O 	0.96633	0.54377	0.66267	-0.159
Mof_O 	O 	0.66083	0.41307	0.88367	-0.151
Mof_O 	O 	0.68383	0.40807	0.24167	-0.157
Mof_O 	O 	0.65683	0.42297	0.32267	-0.189
Mof_C 	C 	0.8939	0.4134	0.458	0.025
Mof_C 	C 	0.9097	0.4252	0.249	-0.013
Mof_C 	C 	0.9239	0.4153	0.139	0.021
Mof_C 	C 	0.9166	0.3905	0.193	0.001
Mof_C 	C 	0.8974	0.3772	0.385	0.028
Mof_C 	C 	0.8852	0.3888	0.508	-0.037
Mof_P 	P 	0.97655	0.45328	0.9717	0.544
Mof_O 	O 	0.9822	0.4722	0.212	-0.658
Mof_O 	O 	0.9884	0.4706	0.752	-0.723
Mof_C 	C 	0.8661	0.3743	0.739	0.139
Mof_N 	N 	0.8505	0.3824	0.869	-0.125
Mof_O 	O 	0.9907	0.4381	0.031	-0.188
Mof_C 	C 	0.9413	0.4285	0.9	-0.053
Mof_N 	N 	0.8565	0.3501	0.74	-0.149
Mof_C 	C 	0.8446	0.3374	0.946	0.172
Mof_N 	N 	0.8314	0.345	0.097	-0.142
Mof_C 	C 	0.8362	0.3694	0.072	0.122
Mof_C 	C 	0.8387	0.312	0.928	-0.036
Mof_C 	C 	0.8521	0.3075	0.745	0.04
Mof_C 	C 	0.8481	0.2833	0.693	0.012
Mof_C 	C 	0.8332	0.2641	0.852	0.055
Mof_C 	C 	0.8223	0.2689	0.068	-0.019
Mof_C 	C 	0.8233	0.2933	0.095	0.019
Mof_C 	C 	0.8197	0.3802	0.225	-0.015
Mof_C 	C 	0.8128	0.3758	0.492	0.039
Mof_C 	C 	0.8202	0.4013	0.126	0.01
Mof_C 	C 	0.8029	0.4095	0.228	0.012
Mof_C 	C 	0.7947	0.405	0.482	0.027
Mof_C 	C 	0.7959	0.3852	0.61	0.045
Mof_C 	C 	0.7873	0.4218	0.614	-0.041
Mof_P 	P 	0.75715	0.41573	0.539	0.439
Mof_C 	C 	0.8318	0.2385	0.807	-0.017
Mof_P 	P 	0.84668	0.23125	0.063	0.404
Mof_O 	O 	0.8437	0.2443	0.294	-0.209
Mof_O 	O 	0.8348	0.20043	0.109	-0.673
Mof_O 	O 	0.8771	0.2441	0.004	-0.169
Mof_O 	O 	0.7464	0.4189	0.783	-0.16
Mof_O 	O 	0.7414	0.3909	0.425	-0.158
Mof_O 	O 	0.7563	0.4328	0.344	-0.193
Mof_C 	C 	0.56057	0.74673	0.79133	0.018
Mof_C 	C 	0.57637	0.75853	0.58233	-0.009
Mof_C 	C 	0.59057	0.74863	0.47233	0.02
Mof_C 	C 	0.58327	0.72383	0.52633	0.005
Mof_C 	C 	0.56407	0.71053	0.71833	0.024
Mof_C 	C 	0.55187	0.72213	0.84133	-0.057
Mof_P 	P 	0.64322	0.78661	0.30503	0.544
Mof_O 	O 	0.64887	0.80553	0.54533	-0.662
Mof_O 	O 	0.65507	0.80393	0.08533	-0.704
Mof_C 	C 	0.53277	0.70763	0.07233	0.159
Mof_N 	N 	0.51717	0.71573	0.20233	-0.132
Mof_O 	O 	0.65737	0.77143	0.36433	-0.187
Mof_C 	C 	0.60797	0.76183	0.23333	-0.044
Mof_N 	N 	0.52317	0.68343	0.07333	-0.146
Mof_C 	C 	0.51127	0.67073	0.27933	0.162
Mof_N 	N 	0.49807	0.67833	0.43033	-0.136
Mof_C 	C 	0.50287	0.70273	0.40533	0.136
Mof_C 	C 	0.50537	0.64533	0.26133	-0.057
Mof_C 	C 	0.51877	0.64083	0.07833	0.045
Mof_C 	C 	0.51477	0.61663	0.02633	0.019
Mof_C 	C 	0.49987	0.59743	0.18533	0.029
Mof_C 	C 	0.48897	0.60223	0.40133	0.004
Mof_C 	C 	0.48997	0.62663	0.42833	0.033
Mof_C 	C 	0.48637	0.71353	0.55833	-0.014
Mof_C 	C 	0.47947	0.70913	0.82533	0.028
Mof_C 	C 	0.48687	0.73463	0.45933	0.025
Mof_C 	C 	0.46957	0.74283	0.56133	0.021
Mof_C 	C 	0.46137	0.73833	0.81533	0.029
Mof_C 	C 	0.46257	0.71853	0.94333	0.028
Mof_C 	C 	0.45397	0.75513	0.94733	-0.054
Mof_P 	P 	0.42382	0.74906	0.87233	0.423
Mof_C 	C 	0.49847	0.57183	0.14033	-0.03
Mof_P 	P 	0.51335	0.56458	0.39633	0.421
Mof_O 	O 	0.51037	0.57763	0.62733	-0.214
Mof_O 	O 	0.50147	0.53376	0.44233	-0.662
Mof_O 	O 	0.54377	0.57743	0.33733	-0.159
Mof_O 	O 	0.41307	0.75223	0.11633	-0.151
Mof_O 	O 	0.40807	0.72423	0.75833	-0.157
Mof_O 	O 	0.42297	0.76613	0.67733	-0.189
Mof_C 	C 	0.22723	0.08007	0.12467	-0.003
Mof_C 	C 	0.24303	0.09187	0.91567	0.016
Mof_C 	C 	0.25723	0.08197	0.80567	0.015
Mof_C 	C 	0.24993	0.05717	0.85967	0.02
Mof_C 	C 	0.23073	0.04387	0.05167	0.011
Mof_C 	C 	0.21853	0.05547	0.17467	-0.025
Mof_P 	P 	0.30988	0.11995	0.63837	0.545
Mof_O 	O 	0.31553	0.13887	0.87867	-0.642
Mof_O 	O 	0.32173	0.13727	0.41867	-0.726
Mof_C 	C 	0.19943	0.04097	0.40567	0.133
Mof_N 	N 	0.18383	0.04907	0.53567	-0.134
Mof_O 	O 	0.32403	0.10477	0.69767	-0.183
Mof_C 	C 	0.27463	0.09517	0.56667	-0.057
Mof_N 	N 	0.18983	0.01677	0.40667	-0.147
Mof_C 	C 	0.17793	0.00407	0.61267	0.161
Mof_N 	N 	0.16473	0.01167	0.76367	-0.135
Mof_C 	C 	0.16953	0.03607	0.73867	0.136
Mof_C 	C 	0.17203	0.97867	0.59467	-0.056
Mof_C 	C 	0.18543	0.97417	0.41167	0.04
Mof_C 	C 	0.18143	0.94997	0.35967	0.02
Mof_C 	C 	0.16653	0.93077	0.51867	0.029
Mof_C 	C 	0.15563	0.93557	0.73467	0.002
Mof_C 	C 	0.15663	0.95997	0.76167	0.033
Mof_C 	C 	0.15303	0.04687	0.89167	-0.009
Mof_C 	C 	0.14613	0.04247	0.15867	0.031
Mof_C 	C 	0.15353	0.06797	0.79267	0.017
Mof_C 	C 	0.13623	0.07617	0.89467	0.023
Mof_C 	C 	0.12803	0.07167	0.14867	0.022
Mof_C 	C 	0.12923	0.05187	0.27667	0.042
Mof_C 	C 	0.12063	0.08847	0.28067	-0.045
Mof_P 	P 	0.09048	0.0824	0.20567	0.439
Mof_C 	C 	0.16513	0.90517	0.47367	-0.028
Mof_P 	P 	0.18001	0.89792	0.72967	0.42
Mof_O 	O 	0.17703	0.91097	0.96067	-0.22
Mof_O 	O 	0.16813	0.8671	0.77567	-0.671
Mof_O 	O 	0.21043	0.91077	0.67067	-0.162
Mof_O 	O 	0.07973	0.08557	0.44967	-0.17
Mof_O 	O 	0.07473	0.05757	0.09167	-0.156
Mof_O 	O 	0.08963	0.09947	0.01067	-0.19
Mof_C 	C 	0.5866	0.4805	0.458	0.025
Mof_C 	C 	0.5748	0.4845	0.249	-0.013
Mof_C 	C 	0.5847	0.5086	0.139	0.021
Mof_C 	C 	0.6095	0.5261	0.193	0.001
Mof_C 	C 	0.6228	0.5202	0.385	0.028
Mof_C 	C 	0.6112	0.4964	0.508	-0.037
Mof_P 	P 	0.54672	0.52327	0.9717	0.544
Mof_O 	O 	0.5278	0.51	0.212	-0.658
Mof_O 	O 	0.5294	0.5178	0.752	-0.723
Mof_C 	C 	0.6257	0.4918	0.739	0.139
Mof_N 	N 	0.6176	0.4681	0.869	-0.125
Mof_O 	O 	0.5619	0.5526	0.031	-0.188
Mof_C 	C 	0.5715	0.5128	0.9	-0.053
Mof_N 	N 	0.6499	0.5064	0.74	-0.149
Mof_C 	C 	0.6626	0.5072	0.946	0.172
Mof_N 	N 	0.655	0.4864	0.097	-0.142
Mof_C 	C 	0.6306	0.4668	0.072	0.122
Mof_C 	C 	0.688	0.5267	0.928	-0.036
Mof_C 	C 	0.6925	0.5446	0.745	0.04
Mof_C 	C 	0.7167	0.5648	0.693	0.011
Mof_C 	C 	0.7359	0.5691	0.852	0.055
Mof_C 	C 	0.7311	0.5534	0.068	-0.019
Mof_C 	C 	0.7067	0.53	0.095	0.019
Mof_C 	C 	0.6198	0.4395	0.225	-0.015
Mof_C 	C 	0.6242	0.437	0.492	0.039
Mof_C 	C 	0.5987	0.4189	0.126	0.01
Mof_C 	C 	0.5905	0.3934	0.228	0.012
Mof_C 	C 	0.595	0.3897	0.482	0.027
Mof_C 	C 	0.6148	0.4107	0.61	0.045
Mof_C 	C 	0.5782	0.3655	0.614	-0.041
Mof_P 	P 	0.58427	0.34142	0.539	0.439
Mof_C 	C 	0.7615	0.5933	0.807	-0.017
Mof_P 	P 	0.76875	0.61543	0.063	0.403
Mof_O 	O 	0.7557	0.5994	0.294	-0.209
Mof_O 	O 	0.79957	0.63437	0.109	-0.673
Mof_O 	O 	0.7559	0.633	0.004	-0.169
Mof_O 	O 	0.5811	0.3275	0.783	-0.16
Mof_O 	O 	0.6091	0.3505	0.425	-0.158
Mof_O 	O 	0.5672	0.3235	0.344	-0.193
Mof_C 	C 	0.25327	0.81383	0.79133	0.018
Mof_C 	C 	0.24147	0.81783	0.58233	-0.009
Mof_C 	C 	0.25137	0.84193	0.47233	0.02
Mof_C 	C 	0.27617	0.85943	0.52633	0.005
Mof_C 	C 	0.28947	0.85353	0.71833	0.025
Mof_C 	C 	0.27787	0.82973	0.84133	-0.057
Mof_P 	P 	0.21339	0.8566	0.30503	0.545
Mof_O 	O 	0.19447	0.84333	0.54533	-0.662
Mof_O 	O 	0.19607	0.85113	0.08533	-0.704
Mof_C 	C 	0.29237	0.82513	0.07233	0.16
Mof_N 	N 	0.28427	0.80143	0.20233	-0.132
Mof_O 	O 	0.22857	0.88593	0.36433	-0.187
Mof_C 	C 	0.23817	0.84613	0.23333	-0.044
Mof_N 	N 	0.31657	0.83973	0.07333	-0.146
Mof_C 	C 	0.32927	0.84053	0.27933	0.162
Mof_N 	N 	0.32167	0.81973	0.43033	-0.136
Mof_C 	C 	0.29727	0.80013	0.40533	0.136
Mof_C 	C 	0.35467	0.86003	0.26133	-0.057
Mof_C 	C 	0.35917	0.87793	0.07833	0.045
Mof_C 	C 	0.38337	0.89813	0.02633	0.019
Mof_C 	C 	0.40257	0.90243	0.18533	0.029
Mof_C 	C 	0.39777	0.88673	0.40133	0.004
Mof_C 	C 	0.37337	0.86333	0.42833	0.033
Mof_C 	C 	0.28647	0.77283	0.55833	-0.014
Mof_C 	C 	0.29087	0.77033	0.82533	0.028
Mof_C 	C 	0.26537	0.75223	0.45933	0.025
Mof_C 	C 	0.25717	0.72673	0.56133	0.021
Mof_C 	C 	0.26167	0.72303	0.81533	0.029
Mof_C 	C 	0.28147	0.74403	0.94333	0.028
Mof_C 	C 	0.24487	0.69883	0.94733	-0.054
Mof_P 	P 	0.25094	0.67475	0.87233	0.423
Mof_C 	C 	0.42817	0.92663	0.14033	-0.03
Mof_P 	P 	0.43542	0.94876	0.39633	0.421
Mof_O 	O 	0.42237	0.93273	0.62733	-0.213
Mof_O 	O 	0.46624	0.9677	0.44233	-0.662
Mof_O 	O 	0.42257	0.96633	0.33733	-0.159
Mof_O 	O 	0.24777	0.66083	0.11633	-0.151
Mof_O 	O 	0.27577	0.68383	0.75833	-0.157
Mof_O 	O 	0.23387	0.65683	0.67733	-0.189
Mof_C 	C 	0.91993	0.14717	0.12467	-0.003
Mof_C 	C 	0.90813	0.15117	0.91567	0.016
Mof_C 	C 	0.91803	0.17527	0.80567	0.015
Mof_C 	C 	0.94283	0.19277	0.85967	0.02
Mof_C 	C 	0.95613	0.18687	0.05167	0.011
Mof_C 	C 	0.94453	0.16307	0.17467	-0.025
Mof_P 	P 	0.88005	0.18994	0.63837	0.545
Mof_O 	O 	0.86113	0.17667	0.87867	-0.642
Mof_O 	O 	0.86273	0.18447	0.41867	-0.726
Mof_C 	C 	0.95903	0.15847	0.40567	0.133
Mof_N 	N 	0.95093	0.13477	0.53567	-0.134
Mof_O 	O 	0.89523	0.21927	0.69767	-0.183
Mof_C 	C 	0.90483	0.17947	0.56667	-0.057
Mof_N 	N 	0.98323	0.17307	0.40667	-0.147
Mof_C 	C 	0.99593	0.17387	0.61267	0.162
Mof_N 	N 	0.98833	0.15307	0.76367	-0.135
Mof_C 	C 	0.96393	0.13347	0.73867	0.136
Mof_C 	C 	0.02133	0.19337	0.59467	-0.057
Mof_C 	C 	0.02583	0.21127	0.41167	0.04
Mof_C 	C 	0.05003	0.23147	0.35967	0.02
Mof_C 	C 	0.06923	0.23577	0.51867	0.029
Mof_C 	C 	0.06443	0.22007	0.73467	0.002
Mof_C 	C 	0.04003	0.19667	0.76167	0.034
Mof_C 	C 	0.95313	0.10617	0.89167	-0.009
Mof_C 	C 	0.95753	0.10367	0.15867	0.031
Mof_C 	C 	0.93203	0.08557	0.79267	0.017
Mof_C 	C 	0.92383	0.06007	0.89467	0.023
Mof_C 	C 	0.92833	0.05637	0.14867	0.022
Mof_C 	C 	0.94813	0.07737	0.27667	0.042
Mof_C 	C 	0.91153	0.03217	0.28067	-0.045
Mof_P 	P 	0.9176	0.00809	0.20567	0.438
Mof_C 	C 	0.09483	0.25997	0.47367	-0.028
Mof_P 	P 	0.10208	0.2821	0.72967	0.421
Mof_O 	O 	0.08903	0.26607	0.96067	-0.22
Mof_O 	O 	0.1329	0.30104	0.77567	-0.672
Mof_O 	O 	0.08923	0.29967	0.67067	-0.162
Mof_O 	O 	0.91443	0.99417	0.44967	-0.17
Mof_O 	O 	0.94243	0.01717	0.09167	-0.156
Mof_O 	O 	0.90053	0.99017	0.01067	-0.19
Mof_C 	C 	0.5195	0.1061	0.458	0.025
Mof_C 	C 	0.5155	0.0903	0.249	-0.013
Mof_C 	C 	0.4914	0.0761	0.139	0.021
Mof_C 	C 	0.4739	0.0834	0.193	0.001
Mof_C 	C 	0.4798	0.1026	0.385	0.028
Mof_C 	C 	0.5036	0.1148	0.508	-0.037
Mof_P 	P 	0.47673	0.02345	0.9717	0.544
Mof_O 	O 	0.49	0.0178	0.212	-0.658
Mof_O 	O 	0.4822	0.0116	0.752	-0.723
Mof_C 	C 	0.5082	0.1339	0.739	0.139
Mof_N 	N 	0.5319	0.1495	0.869	-0.125
Mof_O 	O 	0.4474	0.0093	0.031	-0.188
Mof_C 	C 	0.4872	0.0587	0.9	-0.053
Mof_N 	N 	0.4936	0.1435	0.74	-0.149
Mof_C 	C 	0.4928	0.1554	0.946	0.172
Mof_N 	N 	0.5136	0.1686	0.097	-0.142
Mof_C 	C 	0.5332	0.1638	0.072	0.122
Mof_C 	C 	0.4733	0.1613	0.928	-0.036
Mof_C 	C 	0.4554	0.1479	0.745	0.04
Mof_C 	C 	0.4352	0.1519	0.693	0.011
Mof_C 	C 	0.4309	0.1668	0.852	0.055
Mof_C 	C 	0.4466	0.1777	0.068	-0.019
Mof_C 	C 	0.47	0.1767	0.095	0.019
Mof_C 	C 	0.5605	0.1803	0.225	-0.015
Mof_C 	C 	0.563	0.1872	0.492	0.039
Mof_C 	C 	0.5811	0.1798	0.126	0.01
Mof_C 	C 	0.6066	0.1971	0.228	0.012
Mof_C 	C 	0.6103	0.2053	0.482	0.027
Mof_C 	C 	0.5893	0.2041	0.61	0.045
Mof_C 	C 	0.6345	0.2127	0.614	-0.041
Mof_P 	P 	0.65858	0.24285	0.539	0.439
Mof_C 	C 	0.4067	0.1682	0.807	-0.017
Mof_P 	P 	0.38457	0.15332	0.063	0.403
Mof_O 	O 	0.4006	0.1563	0.294	-0.209
Mof_O 	O 	0.36563	0.1652	0.109	-0.673
Mof_O 	O 	0.367	0.1229	0.004	-0.169
Mof_O 	O 	0.6725	0.2536	0.783	-0.16
Mof_O 	O 	0.6495	0.2586	0.425	-0.158
Mof_O 	O 	0.6765	0.2437	0.344	-0.193
Mof_C 	C 	0.18617	0.43943	0.79133	0.018
Mof_C 	C 	0.18217	0.42363	0.58233	-0.009
Mof_C 	C 	0.15807	0.40943	0.47233	0.02
Mof_C 	C 	0.14057	0.41673	0.52633	0.005
Mof_C 	C 	0.14647	0.43593	0.71833	0.024
Mof_C 	C 	0.17027	0.44813	0.84133	-0.057
Mof_P 	P 	0.1434	0.35678	0.30503	0.545
Mof_O 	O 	0.15667	0.35113	0.54533	-0.662
Mof_O 	O 	0.14887	0.34493	0.08533	-0.704
Mof_C 	C 	0.17487	0.46723	0.07233	0.159
Mof_N 	N 	0.19857	0.48283	0.20233	-0.132
Mof_O 	O 	0.11407	0.34263	0.36433	-0.187
Mof_C 	C 	0.15387	0.39203	0.23333	-0.044
Mof_N 	N 	0.16027	0.47683	0.07333	-0.146
Mof_C 	C 	0.15947	0.48873	0.27933	0.162
Mof_N 	N 	0.18027	0.50193	0.43033	-0.136
Mof_C 	C 	0.19987	0.49713	0.40533	0.136
Mof_C 	C 	0.13997	0.49463	0.26133	-0.057
Mof_C 	C 	0.12207	0.48123	0.07833	0.045
Mof_C 	C 	0.10187	0.48523	0.02633	0.019
Mof_C 	C 	0.09757	0.50013	0.18533	0.029
Mof_C 	C 	0.11327	0.51103	0.40133	0.004
Mof_C 	C 	0.13667	0.51003	0.42833	0.033
Mof_C 	C 	0.22717	0.51363	0.55833	-0.014
Mof_C 	C 	0.22967	0.52053	0.82533	0.028
Mof_C 	C 	0.24777	0.51313	0.45933	0.025
Mof_C 	C 	0.27327	0.53043	0.56133	0.021
Mof_C 	C 	0.27697	0.53863	0.81533	0.029
Mof_C 	C 	0.25597	0.53743	0.94333	0.028
Mof_C 	C 	0.30117	0.54603	0.94733	-0.054
Mof_P 	P 	0.32525	0.57618	0.87233	0.423
Mof_C 	C 	0.07337	0.50153	0.14033	-0.03
Mof_P 	P 	0.05124	0.48665	0.39633	0.421
Mof_O 	O 	0.06727	0.48963	0.62733	-0.214
Mof_O 	O 	0.0323	0.49853	0.44233	-0.662
Mof_O 	O 	0.03367	0.45623	0.33733	-0.159
Mof_O 	O 	0.33917	0.58693	0.11633	-0.151
Mof_O 	O 	0.31617	0.59193	0.75833	-0.157
Mof_O 	O 	0.34317	0.57703	0.67733	-0.189
Mof_C 	C 	0.85283	0.77277	0.12467	-0.003
Mof_C 	C 	0.84883	0.75697	0.91567	0.016
Mof_C 	C 	0.82473	0.74277	0.80567	0.015
Mof_C 	C 	0.80723	0.75007	0.85967	0.02
Mof_C 	C 	0.81313	0.76927	0.05167	0.011
Mof_C 	C 	0.83693	0.78147	0.17467	-0.025
Mof_P 	P 	0.81006	0.69012	0.63837	0.545
Mof_O 	O 	0.82333	0.68447	0.87867	-0.642
Mof_O 	O 	0.81553	0.67827	0.41867	-0.726
Mof_C 	C 	0.84153	0.80057	0.40567	0.133
Mof_N 	N 	0.86523	0.81617	0.53567	-0.134
Mof_O 	O 	0.78073	0.67597	0.69767	-0.183
Mof_C 	C 	0.82053	0.72537	0.56667	-0.057
Mof_N 	N 	0.82693	0.81017	0.40667	-0.147
Mof_C 	C 	0.82613	0.82207	0.61267	0.161
Mof_N 	N 	0.84693	0.83527	0.76367	-0.135
Mof_C 	C 	0.86653	0.83047	0.73867	0.136
Mof_C 	C 	0.80663	0.82797	0.59467	-0.057
Mof_C 	C 	0.78873	0.81457	0.41167	0.04
Mof_C 	C 	0.76853	0.81857	0.35967	0.02
Mof_C 	C 	0.76423	0.83347	0.51867	0.029
Mof_C 	C 	0.77993	0.84437	0.73467	0.002
Mof_C 	C 	0.80333	0.84337	0.76167	0.034
Mof_C 	C 	0.89383	0.84697	0.89167	-0.009
Mof_C 	C 	0.89633	0.85387	0.15867	0.031
Mof_C 	C 	0.91443	0.84647	0.79267	0.017
Mof_C 	C 	0.93993	0.86377	0.89467	0.023
Mof_C 	C 	0.94363	0.87197	0.14867	0.022
Mof_C 	C 	0.92263	0.87077	0.27667	0.042
Mof_C 	C 	0.96783	0.87937	0.28067	-0.045
Mof_P 	P 	0.99191	0.90952	0.20567	0.44
Mof_C 	C 	0.74003	0.83487	0.47367	-0.028
Mof_P 	P 	0.7179	0.81999	0.72967	0.421
Mof_O 	O 	0.73393	0.82297	0.96067	-0.22
Mof_O 	O 	0.69896	0.83187	0.77567	-0.672
Mof_O 	O 	0.70033	0.78957	0.67067	-0.162
Mof_O 	O 	0.00583	0.92027	0.44967	-0.171
Mof_O 	O 	0.98283	0.92527	0.09167	-0.156
Mof_O 	O 	0.00983	0.91037	0.01067	-0.191
Mof_Zr	Zr	2.26421e-17	0.5	0.5	3.216
Mof_Zr	Zr	0.66667	0.83333	0.83333	3.213
Mof_Zr	Zr	0.33333	0.16667	0.16667	3.213
Mof_Zr	Zr	0.5	0.5	0.5	3.216
Mof_Zr	Zr	0.16667	0.83333	0.83333	3.213
Mof_Zr	Zr	0.83333	0.16667	0.16667	3.213
Mof_Zr	Zr	0.5	0	0.5	3.216
Mof_Zr	Zr	0.16667	0.33333	0.83333	3.213
Mof_Zr	Zr	0.83333	0.66667	0.16667	3.213
_end
