# CIF file generated by openbabel 3.1.0, see https://openbabel.org
data_I
_chemical_name_common 'image0'
_cell_length_a 33.929
_cell_length_b 13.045
_cell_length_c 8.9713
_cell_angle_alpha 90
_cell_angle_beta 104.37
_cell_angle_gamma 90
_space_group_name_H-M_alt 'P 1'
_space_group_name_Hall 'P 1'
loop_
    _symmetry_equiv_pos_as_xyz
    x,y,z
loop_
    _atom_site_label
    _atom_site_type_symbol
    _atom_site_fract_x
    _atom_site_fract_y
    _atom_site_fract_z
    _atom_site_occupancy
    Mn1      Mn       0.14770    0.10455    0.66062    1.000
    Mn2      Mn       0.22899    0.85717    0.62707    1.000
    P1       P        0.05116    0.11897    0.56630    1.000
    H1       H        0.04650    0.22720    0.56300    1.000
    P2       P        0.19505    0.94880    0.90430    1.000
    P3       P        0.18009    0.70650    0.38430    1.000
    H2       H        0.16110    0.61170    0.40100    1.000
    O1       O        0.19220    0.73740    0.54790    1.000
    O2       O        0.22456    0.87110    0.83280    1.000
    O3       O        0.21860    0.04700    0.97120    1.000
    O4       O        0.15683    0.97940    0.77770    1.000
    O5       O        0.18398    0.88780    0.03070    1.000
    O6       O        0.09316    0.09000    0.53880    1.000
    O7       O        0.01617    0.10520    0.42480    1.000
    O8       O        0.14620    0.77450    0.29040    1.000
    O9       O        0.04420    0.07030    0.71180    1.000
    O10      O        0.21390    0.69030    0.30750    1.000
    Zn1      Zn       0.85230    0.10455    0.83938    1.000
    Zn2      Zn       0.77101    0.85717    0.87293    1.000
    Mn3      Mn       0.64770    0.60455    0.66062    1.000
    Mn4      Mn       0.72899    0.35717    0.62707    1.000
    P4       P        0.55116    0.61897    0.56630    1.000
    H3       H        0.54650    0.72720    0.56300    1.000
    P5       P        0.69505    0.44880    0.90430    1.000
    P6       P        0.68009    0.20650    0.38430    1.000
    H4       H        0.66110    0.11170    0.40100    1.000
    O11      O        0.69220    0.23740    0.54790    1.000
    O12      O        0.72456    0.37110    0.83280    1.000
    O13      O        0.71860    0.54700    0.97120    1.000
    O14      O        0.65683    0.47940    0.77770    1.000
    O15      O        0.68398    0.38780    0.03070    1.000
    O16      O        0.59316    0.59000    0.53880    1.000
    O17      O        0.51617    0.60520    0.42480    1.000
    O18      O        0.64620    0.27450    0.29040    1.000
    O19      O        0.54420    0.57030    0.71180    1.000
    O20      O        0.71390    0.19030    0.30750    1.000
    Zn3      Zn       0.35230    0.60455    0.83938    1.000
    Zn4      Zn       0.27101    0.35717    0.87293    1.000
    P7       P        0.94884    0.11897    0.93370    1.000
    H5       H        0.95350    0.22720    0.93700    1.000
    P8       P        0.80495    0.94880    0.59570    1.000
    P9       P        0.81991    0.70650    0.11570    1.000
    H6       H        0.83890    0.61170    0.09900    1.000
    O21      O        0.80780    0.73740    0.95210    1.000
    O22      O        0.77544    0.87110    0.66720    1.000
    O23      O        0.78140    0.04700    0.52880    1.000
    O24      O        0.84317    0.97940    0.72230    1.000
    O25      O        0.81602    0.88780    0.46930    1.000
    O26      O        0.90684    0.09000    0.96120    1.000
    O27      O        0.98383    0.10520    0.07520    1.000
    O28      O        0.85380    0.77450    0.20960    1.000
    O29      O        0.95580    0.07030    0.78820    1.000
    O30      O        0.78610    0.69030    0.19250    1.000
    P10      P        0.44884    0.61897    0.93370    1.000
    H7       H        0.45350    0.72720    0.93700    1.000
    P11      P        0.30495    0.44880    0.59570    1.000
    P12      P        0.31991    0.20650    0.11570    1.000
    H8       H        0.33890    0.11170    0.09900    1.000
    O31      O        0.30780    0.23740    0.95210    1.000
    O32      O        0.27544    0.37110    0.66720    1.000
    O33      O        0.28140    0.54700    0.52880    1.000
    O34      O        0.34317    0.47940    0.72230    1.000
    O35      O        0.31602    0.38780    0.46930    1.000
    O36      O        0.40684    0.59000    0.96120    1.000
    O37      O        0.48383    0.60520    0.07520    1.000
    O38      O        0.35380    0.27450    0.20960    1.000
    O39      O        0.45580    0.57030    0.78820    1.000
    O40      O        0.28610    0.19030    0.19250    1.000
    Mn5      Mn       0.85230    0.89545    0.33938    1.000
    Mn6      Mn       0.77101    0.14283    0.37293    1.000
    P13      P        0.94884    0.88103    0.43370    1.000
    H9       H        0.95350    0.77280    0.43700    1.000
    P14      P        0.80495    0.05120    0.09570    1.000
    P15      P        0.81991    0.29350    0.61570    1.000
    H10      H        0.83890    0.38830    0.59900    1.000
    O41      O        0.80780    0.26260    0.45210    1.000
    O42      O        0.77544    0.12890    0.16720    1.000
    O43      O        0.78140    0.95300    0.02880    1.000
    O44      O        0.84317    0.02060    0.22230    1.000
    O45      O        0.81602    0.11220    0.96930    1.000
    O46      O        0.90684    0.91000    0.46120    1.000
    O47      O        0.98383    0.89480    0.57520    1.000
    O48      O        0.85380    0.22550    0.70960    1.000
    O49      O        0.95580    0.92970    0.28820    1.000
    O50      O        0.78610    0.30970    0.69250    1.000
    Zn5      Zn       0.14770    0.89545    0.16062    1.000
    Zn6      Zn       0.22899    0.14283    0.12707    1.000
    Mn7      Mn       0.35230    0.39545    0.33938    1.000
    Mn8      Mn       0.27101    0.64283    0.37293    1.000
    P16      P        0.44884    0.38103    0.43370    1.000
    H11      H        0.45350    0.27280    0.43700    1.000
    P17      P        0.30495    0.55120    0.09570    1.000
    P18      P        0.31991    0.79350    0.61570    1.000
    H12      H        0.33890    0.88830    0.59900    1.000
    O51      O        0.30780    0.76260    0.45210    1.000
    O52      O        0.27544    0.62890    0.16720    1.000
    O53      O        0.28140    0.45300    0.02880    1.000
    O54      O        0.34317    0.52060    0.22230    1.000
    O55      O        0.31602    0.61220    0.96930    1.000
    O56      O        0.40684    0.41000    0.46120    1.000
    O57      O        0.48383    0.39480    0.57520    1.000
    O58      O        0.35380    0.72550    0.70960    1.000
    O59      O        0.45580    0.42970    0.28820    1.000
    O60      O        0.28610    0.80970    0.69250    1.000
    Zn7      Zn       0.64770    0.39545    0.16062    1.000
    Zn8      Zn       0.72899    0.64283    0.12707    1.000
    P19      P        0.05116    0.88103    0.06630    1.000
    H13      H        0.04650    0.77280    0.06300    1.000
    P20      P        0.19505    0.05120    0.40430    1.000
    P21      P        0.18009    0.29350    0.88430    1.000
    H14      H        0.16110    0.38830    0.90100    1.000
    O61      O        0.19220    0.26260    0.04790    1.000
    O62      O        0.22456    0.12890    0.33280    1.000
    O63      O        0.21860    0.95300    0.47120    1.000
    O64      O        0.15683    0.02060    0.27770    1.000
    O65      O        0.18398    0.11220    0.53070    1.000
    O66      O        0.09316    0.91000    0.03880    1.000
    O67      O        0.01617    0.89480    0.92480    1.000
    O68      O        0.14620    0.22550    0.79040    1.000
    O69      O        0.04420    0.92970    0.21180    1.000
    O70      O        0.21390    0.30970    0.80750    1.000
    P22      P        0.55116    0.38103    0.06630    1.000
    H15      H        0.54650    0.27280    0.06300    1.000
    P23      P        0.69505    0.55120    0.40430    1.000
    P24      P        0.68009    0.79350    0.88430    1.000
    H16      H        0.66110    0.88830    0.90100    1.000
    O71      O        0.69220    0.76260    0.04790    1.000
    O72      O        0.72456    0.62890    0.33280    1.000
    O73      O        0.71860    0.45300    0.47120    1.000
    O74      O        0.65683    0.52060    0.27770    1.000
    O75      O        0.68398    0.61220    0.53070    1.000
    O76      O        0.59316    0.41000    0.03880    1.000
    O77      O        0.51617    0.39480    0.92480    1.000
    O78      O        0.64620    0.72550    0.79040    1.000
    O79      O        0.54420    0.42970    0.21180    1.000
    O80      O        0.71390    0.80970    0.80750    1.000
    Mn9      Mn       0.00000    0.01279    0.25000    1.000
    Mn10     Mn       0.50000    0.51279    0.25000    1.000
    Mn11     Mn       0.00000    0.98721    0.75000    1.000
    Mn12     Mn       0.50000    0.48721    0.75000    1.000
