data_functionalizedCrystal
_audit_creation_method	'EQeq! by Chris Wilmer'
_symmetry_space_group_name_H-M	'P1'
_symmetry_Int_Tables_number	1
_symmetry_cell_setting	triclinic
loop_
_symmetry_equiv_pos_as_xyz
  x,y,z
_cell_length_a	16.9892
_cell_length_b	20.6271
_cell_length_c	25.8309
_cell_angle_alpha	90
_cell_angle_beta	90
_cell_angle_gamma	90
loop_
_atom_site_label
_atom_site_type_symbol
_atom_site_fract_x
_atom_site_fract_y
_atom_site_fract_z
_atom_site_charge
Mof_Zn	Zn	0.48468	0.83895	0.88147	1.23
Mof_Zn	Zn	0.01532	0.16105	0.38147	1.23
Mof_Zn	Zn	0.48468	0.66105	0.88147	1.231
Mof_Zn	Zn	0.01532	0.33895	0.38147	1.231
Mof_Co	Co	0.36847	0.75	0.81134	1.178
Mof_Co	Co	0.13153	0.25	0.31134	1.178
Mof_H 	H 	0.8417	0.4841	0.4963	0.042
Mof_H 	H 	0.7199	0.4969	0.5331	0.073
Mof_H 	H 	0.6539	0.3247	0.4742	0.065
Mof_H 	H 	0.7759	0.3138	0.4368	0.039
Mof_H 	H 	0.6237	0.4679	0.5945	0.072
Mof_H 	H 	0.3904	0.4506	0.5785	0.071
Mof_H 	H 	0.5341	0.3789	0.4698	0.07
Mof_H 	H 	0.5835	0.47	0.6852	0.072
Mof_H 	H 	0.5634	0.5321	0.7565	0.027
Mof_H 	H 	0.3777	0.6162	0.687	0.027
Mof_H 	H 	0.3953	0.5514	0.6164	0.072
Mof_H 	H 	0.3084	0.37	0.5504	0.073
Mof_H 	H 	0.1972	0.3475	0.5035	0.03
Mof_H 	H 	0.3186	0.3669	0.3722	0.028
Mof_H 	H 	0.4292	0.3958	0.4185	0.075
Mof_H 	H 	0.2595	0.6554	0.7548	0.005
Mof_H 	H 	0.1786	0.6532	0.6834	0.086
Mof_H 	H 	0.6583	0.5159	0.9963	0.042
Mof_H 	H 	0.7801	0.5031	0.0331	0.073
Mof_H 	H 	0.8461	0.6753	0.9742	0.065
Mof_H 	H 	0.7241	0.6862	0.9368	0.038
Mof_H 	H 	0.8763	0.5321	0.0945	0.072
Mof_H 	H 	0.1096	0.5494	0.0785	0.071
Mof_H 	H 	0.9659	0.6211	0.9698	0.068
Mof_H 	H 	0.9165	0.53	0.1852	0.072
Mof_H 	H 	0.9366	0.4679	0.2565	0.027
Mof_H 	H 	0.1223	0.3838	0.187	0.027
Mof_H 	H 	0.1047	0.4486	0.1164	0.072
Mof_H 	H 	0.1916	0.63	0.0504	0.074
Mof_H 	H 	0.3028	0.6525	0.0035	0.03
Mof_H 	H 	0.1814	0.6331	0.8722	0.028
Mof_H 	H 	0.0708	0.6042	0.9185	0.075
Mof_H 	H 	0.2405	0.3446	0.2548	0.005
Mof_H 	H 	0.3214	0.3468	0.1834	0.086
Mof_H 	H 	0.8417	0.0159	0.4963	0.042
Mof_H 	H 	0.7199	0.0031	0.5331	0.073
Mof_H 	H 	0.6539	0.1753	0.4742	0.065
Mof_H 	H 	0.7759	0.1862	0.4368	0.039
Mof_H 	H 	0.6237	0.0321	0.5945	0.072
Mof_H 	H 	0.3904	0.0494	0.5785	0.071
Mof_H 	H 	0.5341	0.1211	0.4698	0.07
Mof_H 	H 	0.5835	0.03	0.6852	0.072
Mof_H 	H 	0.5634	0.9679	0.7565	0.027
Mof_H 	H 	0.3777	0.8838	0.687	0.027
Mof_H 	H 	0.3953	0.9486	0.6164	0.072
Mof_H 	H 	0.3084	0.13	0.5504	0.073
Mof_H 	H 	0.1972	0.1525	0.5035	0.03
Mof_H 	H 	0.3186	0.1331	0.3722	0.028
Mof_H 	H 	0.4292	0.1042	0.4185	0.075
Mof_H 	H 	0.2595	0.8446	0.7548	0.005
Mof_H 	H 	0.1786	0.8468	0.6834	0.086
Mof_H 	H 	0.6583	0.9841	0.9963	0.042
Mof_H 	H 	0.7801	0.9969	0.0331	0.073
Mof_H 	H 	0.8461	0.8247	0.9742	0.065
Mof_H 	H 	0.7241	0.8138	0.9368	0.038
Mof_H 	H 	0.8763	0.9679	0.0945	0.072
Mof_H 	H 	0.1096	0.9506	0.0785	0.071
Mof_H 	H 	0.9659	0.8789	0.9698	0.068
Mof_H 	H 	0.9165	0.97	0.1852	0.074
Mof_H 	H 	0.9366	0.0321	0.2565	0.026
Mof_H 	H 	0.1223	0.1162	0.187	0.026
Mof_H 	H 	0.1047	0.0514	0.1164	0.072
Mof_H 	H 	0.1916	0.87	0.0504	0.074
Mof_H 	H 	0.3028	0.8475	0.0035	0.03
Mof_H 	H 	0.1814	0.8669	0.8722	0.028
Mof_H 	H 	0.0708	0.8958	0.9185	0.076
Mof_H 	H 	0.2405	0.1554	0.2548	0.004
Mof_H 	H 	0.3214	0.1532	0.1834	0.086
Mof_H 	H 	0.14	0.75	0.6462	0.016
Mof_H 	H 	0.36	0.25	0.1462	0.016
Mof_C 	C 	0.9005	0.3909	0.4376	0.331
Mof_C 	C 	0.8221	0.3985	0.46298	-0.097
Mof_C 	C 	0.8038	0.4521	0.4916	0.031
Mof_C 	C 	0.7307	0.46	0.51378	-0.102
Mof_C 	C 	0.6723	0.4123	0.50735	0.035
Mof_C 	C 	0.6912	0.3573	0.47853	-0.1
Mof_C 	C 	0.7645	0.3505	0.45633	0.026
Mof_C 	C 	0.5919	0.4209	0.52925	0.049
Mof_C 	C 	0.5803	0.4536	0.5757	-0.113
Mof_C 	C 	0.505	0.4654	0.5944	0.045
Mof_C 	C 	0.4409	0.4428	0.5662	-0.111
Mof_C 	C 	0.4505	0.4087	0.51994	0.046
Mof_C 	C 	0.5266	0.3996	0.50137	-0.112
Mof_C 	C 	0.4918	0.5033	0.6423	0.043
Mof_C 	C 	0.5417	0.4992	0.68564	-0.115
Mof_C 	C 	0.5303	0.5368	0.72813	0.051
Mof_C 	C 	0.4696	0.5822	0.7298	-0.121
Mof_C 	C 	0.419	0.5866	0.6866	0.047
Mof_C 	C 	0.4297	0.548	0.64434	-0.116
Mof_C 	C 	0.4579	0.6264	0.77483	0.381
Mof_C 	C 	0.3812	0.3881	0.48997	0.046
Mof_C 	C 	0.3105	0.3711	0.51448	-0.116
Mof_C 	C 	0.2442	0.3561	0.48637	0.05
Mof_C 	C 	0.247	0.3535	0.43298	-0.127
Mof_C 	C 	0.3164	0.3684	0.40812	0.048
Mof_C 	C 	0.3829	0.3857	0.43597	-0.116
Mof_C 	C 	0.1756	0.3383	0.402	0.373
Mof_C 	C 	0.2444	0.6944	0.73955	0.088
Mof_C 	C 	0.1953	0.6925	0.69706	-0.143
Mof_C 	C 	0.5995	0.6091	0.9376	0.331
Mof_C 	C 	0.6779	0.6015	0.96298	-0.098
Mof_C 	C 	0.6962	0.5479	0.9916	0.031
Mof_C 	C 	0.7693	0.54	0.01378	-0.102
Mof_C 	C 	0.8277	0.5877	0.00735	0.036
Mof_C 	C 	0.8088	0.6427	0.97853	-0.101
Mof_C 	C 	0.7355	0.6495	0.95633	0.027
Mof_C 	C 	0.9081	0.5791	0.02925	0.048
Mof_C 	C 	0.9197	0.5464	0.0757	-0.113
Mof_C 	C 	0.995	0.5346	0.0944	0.045
Mof_C 	C 	0.0591	0.5572	0.0662	-0.11
Mof_C 	C 	0.0495	0.5913	0.01994	0.044
Mof_C 	C 	0.9734	0.6004	0.00137	-0.109
Mof_C 	C 	0.0082	0.4967	0.1423	0.042
Mof_C 	C 	0.9583	0.5008	0.18564	-0.115
Mof_C 	C 	0.9697	0.4632	0.22813	0.051
Mof_C 	C 	0.0304	0.4178	0.2298	-0.122
Mof_C 	C 	0.081	0.4134	0.1866	0.047
Mof_C 	C 	0.0703	0.452	0.14434	-0.116
Mof_C 	C 	0.0421	0.3736	0.27483	0.381
Mof_C 	C 	0.1188	0.6119	0.98997	0.048
Mof_C 	C 	0.1895	0.6289	0.01448	-0.119
Mof_C 	C 	0.2558	0.6439	0.98637	0.053
Mof_C 	C 	0.253	0.6465	0.93298	-0.129
Mof_C 	C 	0.1836	0.6316	0.90812	0.05
Mof_C 	C 	0.1171	0.6143	0.93597	-0.118
Mof_C 	C 	0.3244	0.6617	0.902	0.373
Mof_C 	C 	0.2556	0.3056	0.23955	0.088
Mof_C 	C 	0.3047	0.3075	0.19706	-0.143
Mof_C 	C 	0.9005	0.1091	0.4376	0.331
Mof_C 	C 	0.8221	0.1015	0.46298	-0.097
Mof_C 	C 	0.8038	0.0479	0.4916	0.031
Mof_C 	C 	0.7307	0.04	0.51378	-0.102
Mof_C 	C 	0.6723	0.0877	0.50735	0.035
Mof_C 	C 	0.6912	0.1427	0.47853	-0.1
Mof_C 	C 	0.7645	0.1495	0.45633	0.026
Mof_C 	C 	0.5919	0.0791	0.52925	0.049
Mof_C 	C 	0.5803	0.0464	0.5757	-0.114
Mof_C 	C 	0.505	0.0346	0.5944	0.045
Mof_C 	C 	0.4409	0.0572	0.5662	-0.111
Mof_C 	C 	0.4505	0.0913	0.51994	0.046
Mof_C 	C 	0.5266	0.1004	0.50137	-0.112
Mof_C 	C 	0.4918	0.9967	0.6423	0.042
Mof_C 	C 	0.5417	0.0008	0.68564	-0.114
Mof_C 	C 	0.5303	0.9632	0.72813	0.05
Mof_C 	C 	0.4696	0.9178	0.7298	-0.121
Mof_C 	C 	0.419	0.9134	0.6866	0.047
Mof_C 	C 	0.4297	0.952	0.64434	-0.116
Mof_C 	C 	0.4579	0.8736	0.77483	0.381
Mof_C 	C 	0.3812	0.1119	0.48997	0.046
Mof_C 	C 	0.3105	0.1289	0.51448	-0.116
Mof_C 	C 	0.2442	0.1439	0.48637	0.05
Mof_C 	C 	0.247	0.1465	0.43298	-0.127
Mof_C 	C 	0.3164	0.1316	0.40812	0.048
Mof_C 	C 	0.3829	0.1143	0.43597	-0.116
Mof_C 	C 	0.1756	0.1617	0.402	0.373
Mof_C 	C 	0.2444	0.8056	0.73955	0.088
Mof_C 	C 	0.1953	0.8075	0.69706	-0.143
Mof_C 	C 	0.5995	0.8909	0.9376	0.331
Mof_C 	C 	0.6779	0.8985	0.96298	-0.097
Mof_C 	C 	0.6962	0.9521	0.9916	0.03
Mof_C 	C 	0.7693	0.96	0.01378	-0.102
Mof_C 	C 	0.8277	0.9123	0.00735	0.036
Mof_C 	C 	0.8088	0.8573	0.97853	-0.101
Mof_C 	C 	0.7355	0.8505	0.95633	0.026
Mof_C 	C 	0.9081	0.9209	0.02925	0.048
Mof_C 	C 	0.9197	0.9536	0.0757	-0.112
Mof_C 	C 	0.995	0.9654	0.0944	0.043
Mof_C 	C 	0.0591	0.9428	0.0662	-0.109
Mof_C 	C 	0.0495	0.9087	0.01994	0.044
Mof_C 	C 	0.9734	0.8996	0.00137	-0.11
Mof_C 	C 	0.0082	0.0033	0.1423	0.044
Mof_C 	C 	0.9583	0.9992	0.18564	-0.119
Mof_C 	C 	0.9697	0.0368	0.22813	0.057
Mof_C 	C 	0.0304	0.0822	0.2298	-0.125
Mof_C 	C 	0.081	0.0866	0.1866	0.05
Mof_C 	C 	0.0703	0.048	0.14434	-0.118
Mof_C 	C 	0.0421	0.1264	0.27483	0.382
Mof_C 	C 	0.1188	0.8881	0.98997	0.048
Mof_C 	C 	0.1895	0.8711	0.01448	-0.117
Mof_C 	C 	0.2558	0.8561	0.98637	0.052
Mof_C 	C 	0.253	0.8535	0.93298	-0.128
Mof_C 	C 	0.1836	0.8684	0.90812	0.049
Mof_C 	C 	0.1171	0.8857	0.93597	-0.117
Mof_C 	C 	0.3244	0.8383	0.902	0.373
Mof_C 	C 	0.2556	0.1944	0.23955	0.088
Mof_C 	C 	0.3047	0.1925	0.19706	-0.143
Mof_C 	C 	0.1718	0.75	0.6754	0.066
Mof_C 	C 	0.3282	0.25	0.1754	0.065
Mof_N 	N 	0.2711	0.75	0.75976	-0.219
Mof_N 	N 	0.2289	0.25	0.25976	-0.219
Mof_O 	O 	0.91239	0.33813	0.4136	-0.449
Mof_O 	O 	0.95116	0.43403	0.43988	-0.303
Mof_O 	O 	0.48829	0.61007	0.81733	-0.466
Mof_O 	O 	0.41824	0.67772	0.76591	-0.42
Mof_O 	O 	0.10869	0.34363	0.42449	-0.472
Mof_O 	O 	0.18389	0.32103	0.35596	-0.454
Mof_O 	O 	0.58761	0.66187	0.9136	-0.449
Mof_O 	O 	0.54884	0.56597	0.93988	-0.304
Mof_O 	O 	0.01171	0.38993	0.31733	-0.466
Mof_O 	O 	0.08176	0.32228	0.26591	-0.42
Mof_O 	O 	0.39131	0.65637	0.92449	-0.472
Mof_O 	O 	0.31611	0.67897	0.85596	-0.454
Mof_O 	O 	0.91239	0.16187	0.4136	-0.448
Mof_O 	O 	0.95116	0.06597	0.43988	-0.303
Mof_O 	O 	0.48829	0.88993	0.81733	-0.466
Mof_O 	O 	0.41824	0.82228	0.76591	-0.42
Mof_O 	O 	0.10869	0.15637	0.42449	-0.473
Mof_O 	O 	0.18389	0.17897	0.35596	-0.454
Mof_O 	O 	0.58761	0.83813	0.9136	-0.449
Mof_O 	O 	0.54884	0.93403	0.93988	-0.304
Mof_O 	O 	0.01171	0.11007	0.31733	-0.466
Mof_O 	O 	0.08176	0.17772	0.26591	-0.42
Mof_O 	O 	0.39131	0.84363	0.92449	-0.472
Mof_O 	O 	0.31611	0.82103	0.85596	-0.454
Mof_O 	O 	0.47779	0.75	0.85115	-0.626
Mof_O 	O 	0.02221	0.25	0.35115	-0.627
Mof_Zn	Zn	0.51532	0.33895	0.11853	1.231
Mof_Zn	Zn	0.98468	0.66105	0.61853	1.231
Mof_Zn	Zn	0.51532	0.16105	0.11853	1.231
Mof_Zn	Zn	0.98468	0.83895	0.61853	1.231
Mof_Co	Co	0.63153	0.25	0.18866	1.178
Mof_Co	Co	0.86847	0.75	0.68866	1.178
Mof_H 	H 	0.1583	0.9841	0.5037	0.042
Mof_H 	H 	0.2801	0.9969	0.4669	0.073
Mof_H 	H 	0.3461	0.8247	0.5258	0.065
Mof_H 	H 	0.2241	0.8138	0.5632	0.039
Mof_H 	H 	0.3763	0.9679	0.4055	0.072
Mof_H 	H 	0.6096	0.9506	0.4215	0.071
Mof_H 	H 	0.4659	0.8789	0.5302	0.07
Mof_H 	H 	0.4165	0.97	0.3148	0.072
Mof_H 	H 	0.4366	0.0321	0.2435	0.027
Mof_H 	H 	0.6223	0.1162	0.313	0.027
Mof_H 	H 	0.6047	0.0514	0.3836	0.072
Mof_H 	H 	0.6916	0.87	0.4496	0.073
Mof_H 	H 	0.8028	0.8475	0.4965	0.03
Mof_H 	H 	0.6814	0.8669	0.6278	0.028
Mof_H 	H 	0.5708	0.8958	0.5815	0.075
Mof_H 	H 	0.7405	0.1554	0.2452	0.005
Mof_H 	H 	0.8214	0.1532	0.3166	0.086
Mof_H 	H 	0.3417	0.0159	0.0037	0.042
Mof_H 	H 	0.2199	0.0031	0.9669	0.073
Mof_H 	H 	0.1539	0.1753	0.0258	0.065
Mof_H 	H 	0.2759	0.1862	0.0632	0.038
Mof_H 	H 	0.1237	0.0321	0.9055	0.072
Mof_H 	H 	0.8904	0.0494	0.9215	0.071
Mof_H 	H 	0.0341	0.1211	0.0302	0.068
Mof_H 	H 	0.0835	0.03	0.8148	0.074
Mof_H 	H 	0.0634	0.9679	0.7435	0.026
Mof_H 	H 	0.8777	0.8838	0.813	0.026
Mof_H 	H 	0.8953	0.9486	0.8836	0.072
Mof_H 	H 	0.8084	0.13	0.9496	0.074
Mof_H 	H 	0.6972	0.1525	0.9965	0.03
Mof_H 	H 	0.8186	0.1331	0.1278	0.028
Mof_H 	H 	0.9292	0.1042	0.0815	0.076
Mof_H 	H 	0.7595	0.8446	0.7452	0.004
Mof_H 	H 	0.6786	0.8468	0.8166	0.086
Mof_H 	H 	0.1583	0.5159	0.5037	0.042
Mof_H 	H 	0.2801	0.5031	0.4669	0.073
Mof_H 	H 	0.3461	0.6753	0.5258	0.065
Mof_H 	H 	0.2241	0.6862	0.5632	0.039
Mof_H 	H 	0.3763	0.5321	0.4055	0.072
Mof_H 	H 	0.6096	0.5494	0.4215	0.071
Mof_H 	H 	0.4659	0.6211	0.5302	0.07
Mof_H 	H 	0.4165	0.53	0.3148	0.072
Mof_H 	H 	0.4366	0.4679	0.2435	0.027
Mof_H 	H 	0.6223	0.3838	0.313	0.027
Mof_H 	H 	0.6047	0.4486	0.3836	0.072
Mof_H 	H 	0.6916	0.63	0.4496	0.073
Mof_H 	H 	0.8028	0.6525	0.4965	0.03
Mof_H 	H 	0.6814	0.6331	0.6278	0.028
Mof_H 	H 	0.5708	0.6042	0.5815	0.075
Mof_H 	H 	0.7405	0.3446	0.2452	0.005
Mof_H 	H 	0.8214	0.3468	0.3166	0.086
Mof_H 	H 	0.3417	0.4841	0.0037	0.042
Mof_H 	H 	0.2199	0.4969	0.9669	0.073
Mof_H 	H 	0.1539	0.3247	0.0258	0.065
Mof_H 	H 	0.2759	0.3138	0.0632	0.038
Mof_H 	H 	0.1237	0.4679	0.9055	0.072
Mof_H 	H 	0.8904	0.4506	0.9215	0.071
Mof_H 	H 	0.0341	0.3789	0.0302	0.068
Mof_H 	H 	0.0835	0.47	0.8148	0.072
Mof_H 	H 	0.0634	0.5321	0.7435	0.027
Mof_H 	H 	0.8777	0.6162	0.813	0.027
Mof_H 	H 	0.8953	0.5514	0.8836	0.072
Mof_H 	H 	0.8084	0.37	0.9496	0.074
Mof_H 	H 	0.6972	0.3475	0.9965	0.03
Mof_H 	H 	0.8186	0.3669	0.1278	0.028
Mof_H 	H 	0.9292	0.3958	0.0815	0.075
Mof_H 	H 	0.7595	0.6554	0.7452	0.005
Mof_H 	H 	0.6786	0.6532	0.8166	0.086
Mof_H 	H 	0.86	0.25	0.3538	0.016
Mof_H 	H 	0.64	0.75	0.8538	0.016
Mof_C 	C 	0.0995	0.8909	0.5624	0.331
Mof_C 	C 	0.1779	0.8985	0.53702	-0.097
Mof_C 	C 	0.1962	0.9521	0.5084	0.031
Mof_C 	C 	0.2693	0.96	0.48622	-0.102
Mof_C 	C 	0.3277	0.9123	0.49265	0.035
Mof_C 	C 	0.3088	0.8573	0.52147	-0.1
Mof_C 	C 	0.2355	0.8505	0.54367	0.026
Mof_C 	C 	0.4081	0.9209	0.47075	0.049
Mof_C 	C 	0.4197	0.9536	0.4243	-0.114
Mof_C 	C 	0.495	0.9654	0.4056	0.045
Mof_C 	C 	0.5591	0.9428	0.4338	-0.111
Mof_C 	C 	0.5495	0.9087	0.48006	0.046
Mof_C 	C 	0.4734	0.8996	0.49863	-0.112
Mof_C 	C 	0.5082	0.0033	0.3577	0.042
Mof_C 	C 	0.4583	0.9992	0.31436	-0.114
Mof_C 	C 	0.4697	0.0368	0.27187	0.05
Mof_C 	C 	0.5304	0.0822	0.2702	-0.121
Mof_C 	C 	0.581	0.0866	0.3134	0.047
Mof_C 	C 	0.5703	0.048	0.35566	-0.116
Mof_C 	C 	0.5421	0.1264	0.22517	0.381
Mof_C 	C 	0.6188	0.8881	0.51003	0.046
Mof_C 	C 	0.6895	0.8711	0.48552	-0.116
Mof_C 	C 	0.7558	0.8561	0.51363	0.05
Mof_C 	C 	0.753	0.8535	0.56702	-0.127
Mof_C 	C 	0.6836	0.8684	0.59188	0.048
Mof_C 	C 	0.6171	0.8857	0.56403	-0.116
Mof_C 	C 	0.8244	0.8383	0.598	0.373
Mof_C 	C 	0.7556	0.1944	0.26045	0.088
Mof_C 	C 	0.8047	0.1925	0.30294	-0.143
Mof_C 	C 	0.4005	0.1091	0.0624	0.331
Mof_C 	C 	0.3221	0.1015	0.03702	-0.097
Mof_C 	C 	0.3038	0.0479	0.0084	0.03
Mof_C 	C 	0.2307	0.04	0.98622	-0.102
Mof_C 	C 	0.1723	0.0877	0.99265	0.036
Mof_C 	C 	0.1912	0.1427	0.02147	-0.101
Mof_C 	C 	0.2645	0.1495	0.04367	0.026
Mof_C 	C 	0.0919	0.0791	0.97075	0.048
Mof_C 	C 	0.0803	0.0464	0.9243	-0.112
Mof_C 	C 	0.005	0.0346	0.9056	0.043
Mof_C 	C 	0.9409	0.0572	0.9338	-0.109
Mof_C 	C 	0.9505	0.0913	0.98006	0.044
Mof_C 	C 	0.0266	0.1004	0.99863	-0.11
Mof_C 	C 	0.9918	0.9967	0.8577	0.044
Mof_C 	C 	0.0417	0.0008	0.81436	-0.119
Mof_C 	C 	0.0303	0.9632	0.77187	0.057
Mof_C 	C 	0.9696	0.9178	0.7702	-0.125
Mof_C 	C 	0.919	0.9134	0.8134	0.05
Mof_C 	C 	0.9297	0.952	0.85566	-0.118
Mof_C 	C 	0.9579	0.8736	0.72517	0.382
Mof_C 	C 	0.8812	0.1119	0.01003	0.048
Mof_C 	C 	0.8105	0.1289	0.98552	-0.117
Mof_C 	C 	0.7442	0.1439	0.01363	0.052
Mof_C 	C 	0.747	0.1465	0.06702	-0.128
Mof_C 	C 	0.8164	0.1316	0.09188	0.049
Mof_C 	C 	0.8829	0.1143	0.06403	-0.117
Mof_C 	C 	0.6756	0.1617	0.098	0.373
Mof_C 	C 	0.7444	0.8056	0.76045	0.088
Mof_C 	C 	0.6953	0.8075	0.80294	-0.143
Mof_C 	C 	0.0995	0.6091	0.5624	0.331
Mof_C 	C 	0.1779	0.6015	0.53702	-0.097
Mof_C 	C 	0.1962	0.5479	0.5084	0.031
Mof_C 	C 	0.2693	0.54	0.48622	-0.102
Mof_C 	C 	0.3277	0.5877	0.49265	0.035
Mof_C 	C 	0.3088	0.6427	0.52147	-0.1
Mof_C 	C 	0.2355	0.6495	0.54367	0.026
Mof_C 	C 	0.4081	0.5791	0.47075	0.049
Mof_C 	C 	0.4197	0.5464	0.4243	-0.113
Mof_C 	C 	0.495	0.5346	0.4056	0.045
Mof_C 	C 	0.5591	0.5572	0.4338	-0.111
Mof_C 	C 	0.5495	0.5913	0.48006	0.046
Mof_C 	C 	0.4734	0.6004	0.49863	-0.112
Mof_C 	C 	0.5082	0.4967	0.3577	0.043
Mof_C 	C 	0.4583	0.5008	0.31436	-0.115
Mof_C 	C 	0.4697	0.4632	0.27187	0.051
Mof_C 	C 	0.5304	0.4178	0.2702	-0.121
Mof_C 	C 	0.581	0.4134	0.3134	0.047
Mof_C 	C 	0.5703	0.452	0.35566	-0.116
Mof_C 	C 	0.5421	0.3736	0.22517	0.381
Mof_C 	C 	0.6188	0.6119	0.51003	0.046
Mof_C 	C 	0.6895	0.6289	0.48552	-0.116
Mof_C 	C 	0.7558	0.6439	0.51363	0.05
Mof_C 	C 	0.753	0.6465	0.56702	-0.127
Mof_C 	C 	0.6836	0.6316	0.59188	0.048
Mof_C 	C 	0.6171	0.6143	0.56403	-0.116
Mof_C 	C 	0.8244	0.6617	0.598	0.373
Mof_C 	C 	0.7556	0.3056	0.26045	0.088
Mof_C 	C 	0.8047	0.3075	0.30294	-0.143
Mof_C 	C 	0.4005	0.3909	0.0624	0.331
Mof_C 	C 	0.3221	0.3985	0.03702	-0.098
Mof_C 	C 	0.3038	0.4521	0.0084	0.031
Mof_C 	C 	0.2307	0.46	0.98622	-0.102
Mof_C 	C 	0.1723	0.4123	0.99265	0.036
Mof_C 	C 	0.1912	0.3573	0.02147	-0.101
Mof_C 	C 	0.2645	0.3505	0.04367	0.027
Mof_C 	C 	0.0919	0.4209	0.97075	0.048
Mof_C 	C 	0.0803	0.4536	0.9243	-0.113
Mof_C 	C 	0.005	0.4654	0.9056	0.045
Mof_C 	C 	0.9409	0.4428	0.9338	-0.11
Mof_C 	C 	0.9505	0.4087	0.98006	0.044
Mof_C 	C 	0.0266	0.3996	0.99863	-0.109
Mof_C 	C 	0.9918	0.5033	0.8577	0.042
Mof_C 	C 	0.0417	0.4992	0.81436	-0.115
Mof_C 	C 	0.0303	0.5368	0.77187	0.051
Mof_C 	C 	0.9696	0.5822	0.7702	-0.122
Mof_C 	C 	0.919	0.5866	0.8134	0.047
Mof_C 	C 	0.9297	0.548	0.85566	-0.116
Mof_C 	C 	0.9579	0.6264	0.72517	0.381
Mof_C 	C 	0.8812	0.3881	0.01003	0.048
Mof_C 	C 	0.8105	0.3711	0.98552	-0.119
Mof_C 	C 	0.7442	0.3561	0.01363	0.053
Mof_C 	C 	0.747	0.3535	0.06702	-0.129
Mof_C 	C 	0.8164	0.3684	0.09188	0.05
Mof_C 	C 	0.8829	0.3857	0.06403	-0.118
Mof_C 	C 	0.6756	0.3383	0.098	0.373
Mof_C 	C 	0.7444	0.6944	0.76045	0.088
Mof_C 	C 	0.6953	0.6925	0.80294	-0.143
Mof_C 	C 	0.8282	0.25	0.3246	0.066
Mof_C 	C 	0.6718	0.75	0.8246	0.065
Mof_N 	N 	0.7289	0.25	0.24024	-0.219
Mof_N 	N 	0.7711	0.75	0.74024	-0.219
Mof_O 	O 	0.08761	0.83813	0.5864	-0.448
Mof_O 	O 	0.04884	0.93403	0.56012	-0.303
Mof_O 	O 	0.51171	0.11007	0.18267	-0.466
Mof_O 	O 	0.58176	0.17772	0.23409	-0.42
Mof_O 	O 	0.89131	0.84363	0.57551	-0.473
Mof_O 	O 	0.81611	0.82103	0.64404	-0.454
Mof_O 	O 	0.41239	0.16187	0.0864	-0.449
Mof_O 	O 	0.45116	0.06597	0.06012	-0.304
Mof_O 	O 	0.98829	0.88993	0.68267	-0.466
Mof_O 	O 	0.91824	0.82228	0.73409	-0.42
Mof_O 	O 	0.60869	0.15637	0.07551	-0.472
Mof_O 	O 	0.68389	0.17897	0.14404	-0.454
Mof_O 	O 	0.08761	0.66187	0.5864	-0.449
Mof_O 	O 	0.04884	0.56597	0.56012	-0.303
Mof_O 	O 	0.51171	0.38993	0.18267	-0.466
Mof_O 	O 	0.58176	0.32228	0.23409	-0.42
Mof_O 	O 	0.89131	0.65637	0.57551	-0.472
Mof_O 	O 	0.81611	0.67897	0.64404	-0.454
Mof_O 	O 	0.41239	0.33813	0.0864	-0.449
Mof_O 	O 	0.45116	0.43403	0.06012	-0.304
Mof_O 	O 	0.98829	0.61007	0.68267	-0.466
Mof_O 	O 	0.91824	0.67772	0.73409	-0.42
Mof_O 	O 	0.60869	0.34363	0.07551	-0.472
Mof_O 	O 	0.68389	0.32103	0.14404	-0.454
Mof_O 	O 	0.52221	0.25	0.14885	-0.626
Mof_O 	O 	0.97779	0.75	0.64885	-0.627
_end
