# CIF file generated by openbabel 3.1.0, see https://openbabel.org
data_I
_chemical_name_common 'ja406030p_si_007_clean'
_cell_length_a 19.2087
_cell_length_b 19.2087
_cell_length_c 36.042
_cell_angle_alpha 90
_cell_angle_beta 90
_cell_angle_gamma 120
_space_group_name_H-M_alt 'P 63/m m c'
_space_group_name_Hall '-P 6c 2c'
loop_
    _symmetry_equiv_pos_as_xyz
    x,y,z
    -y,x-y,z
    -x+y,-x,z
    -x,-y,1/2+z
    y,-x+y,1/2+z
    x-y,x,1/2+z
    y,x,-z
    x-y,-y,-z
    -x,-x+y,-z
    -y,-x,1/2-z
    -x+y,y,1/2-z
    x,x-y,1/2-z
    -x,-y,-z
    y,-x+y,-z
    x-y,x,-z
    x,y,1/2-z
    -y,x-y,1/2-z
    -x+y,-x,1/2-z
    -y,-x,z
    -x+y,y,z
    x,x-y,z
    y,x,1/2+z
    x-y,-y,1/2+z
    -x,-x+y,1/2+z
loop_
    _atom_site_label
    _atom_site_type_symbol
    _atom_site_fract_x
    _atom_site_fract_y
    _atom_site_fract_z
    _atom_site_occupancy
    H2       H        0.61370    0.91210    0.91250    1.000
    H3       H        0.46780    0.14250    0.65270    1.000
    H4       H        0.64700    0.09270    0.59260    1.000
    C3       C        0.72250    0.57081    0.04023    1.000
    C8       C        0.35740    0.90283    0.97639    1.000
    C12      C        0.49330    0.10340    0.89514    1.000
    C14      C        0.26180    0.39780    0.92446    1.000
    C16      C        0.13330    0.62720    0.35916    1.000
    O4       O        0.40591    0.96147    0.54257    1.000
    O5       O        0.88643    0.36976    0.99164    1.000
    O6       O        0.65950    0.45735    0.71013    1.000
    O7       O        0.89060    0.22990    0.35320    1.000
    Zn1      Zn       0.47652    0.52348    0.03480    1.000
    H1       H        0.76270    0.23730    0.00140    1.000
    C51      C        0.77609    0.22391    0.02434    1.000
    N1       N        0.45533    0.54467    0.08725    1.000
    Cr1      Cr       0.44817    0.72408    0.25000    1.000
    C1       C        0.18720    0.59360    0.30335    1.000
    N8       N        0.64960    0.82480    0.63280    1.000
    C25      C        0.57445    0.14890    0.65860    1.000
    C35      C        0.38280    0.19140    0.40660    1.000
    O36      O        0.33333    0.66667    0.25000    1.000
