data_functionalizedCrystal
_audit_creation_method	'EQeq! by Chris Wilmer'
_symmetry_space_group_name_H-M	'P1'
_symmetry_Int_Tables_number	1
_symmetry_cell_setting	triclinic
loop_
_symmetry_equiv_pos_as_xyz
  x,y,z
_cell_length_a	6.8538
_cell_length_b	15.1576
_cell_length_c	15.1576
_cell_angle_alpha	62.23
_cell_angle_beta	81.3311
_cell_angle_gamma	98.6689
loop_
_atom_site_label
_atom_site_type_symbol
_atom_site_fract_x
_atom_site_fract_y
_atom_site_fract_z
_atom_site_charge
Mof_Fe	Fe	0.8881	0.684	0.588	0.837
Mof_Fe	Fe	0.4761	0.588	0.728	0.837
Mof_Fe	Fe	0.2041	0.728	0.684	0.837
Mof_Fe	Fe	0.1119	0.316	0.412	0.837
Mof_Fe	Fe	0.5239	0.412	0.272	0.836
Mof_Fe	Fe	0.7959	0.272	0.316	0.836
Mof_H 	H 	0.6409	0.0198	0.5419	0.065
Mof_H 	H 	0.1828	0.5419	0.4383	0.065
Mof_H 	H 	0.6211	0.4383	0.0198	0.065
Mof_H 	H 	0.3591	0.9802	0.4581	0.065
Mof_H 	H 	0.8172	0.4581	0.5617	0.065
Mof_H 	H 	0.3789	0.5617	0.9802	0.065
Mof_C 	C 	0.6719	0.8279	0.6119	0.315
Mof_C 	C 	0.8372	0.9205	0.5452	-0.163
Mof_C 	C 	0.0281	0.8941	0.5344	0.227
Mof_C 	C 	0.8028	0.0143	0.522	-0.058
Mof_C 	C 	0.2838	0.6119	0.5602	0.315
Mof_C 	C 	0.3824	0.5452	0.5343	-0.163
Mof_C 	C 	0.5625	0.5344	0.5715	0.227
Mof_C 	C 	0.3248	0.522	0.4637	-0.058
Mof_C 	C 	0.844	0.5602	0.8279	0.315
Mof_C 	C 	0.9167	0.5343	0.9205	-0.162
Mof_C 	C 	0.134	0.5715	0.8941	0.227
Mof_C 	C 	0.7885	0.4637	0.0143	-0.059
Mof_C 	C 	0.3281	0.1721	0.3881	0.315
Mof_C 	C 	0.1628	0.0795	0.4548	-0.163
Mof_C 	C 	0.9719	0.1059	0.4656	0.227
Mof_C 	C 	0.1972	0.9857	0.478	-0.058
Mof_C 	C 	0.7162	0.3881	0.4398	0.315
Mof_C 	C 	0.6176	0.4548	0.4657	-0.163
Mof_C 	C 	0.4375	0.4656	0.4285	0.227
Mof_C 	C 	0.6752	0.478	0.5363	-0.058
Mof_C 	C 	0.156	0.4398	0.1721	0.315
Mof_C 	C 	0.0833	0.4657	0.0795	-0.162
Mof_C 	C 	0.866	0.4285	0.1059	0.227
Mof_C 	C 	0.2115	0.5363	0.9857	-0.059
Mof_O 	O 	0.6808	0.7336	0.6457	-0.449
Mof_O 	O 	0.4753	0.8515	0.6196	-0.321
Mof_O 	O 	0.069	0.8072	0.5696	-0.453
Mof_O 	O 	0.3265	0.6457	0.6207	-0.449
Mof_O 	O 	0.0949	0.6196	0.5289	-0.321
Mof_O 	O 	0.6386	0.5696	0.6232	-0.453
Mof_O 	O 	0.9472	0.6207	0.7336	-0.449
Mof_O 	O 	0.6238	0.5289	0.8515	-0.321
Mof_O 	O 	0.2618	0.6232	0.8072	-0.452
Mof_O 	O 	0.3192	0.2664	0.3543	-0.449
Mof_O 	O 	0.5247	0.1485	0.3804	-0.321
Mof_O 	O 	0.931	0.1928	0.4304	-0.453
Mof_O 	O 	0.6735	0.3543	0.3793	-0.449
Mof_O 	O 	0.9051	0.3804	0.4711	-0.321
Mof_O 	O 	0.3614	0.4304	0.3768	-0.453
Mof_O 	O 	0.0528	0.3793	0.2664	-0.449
Mof_O 	O 	0.3762	0.4711	0.1485	-0.321
Mof_O 	O 	0.7382	0.3768	0.1928	-0.452
_end
