data_functionalizedCrystal
_audit_creation_method	'EQeq! by Chris Wilmer'
_symmetry_space_group_name_H-M	'P1'
_symmetry_Int_Tables_number	1
_symmetry_cell_setting	triclinic
loop_
_symmetry_equiv_pos_as_xyz
  x,y,z
_cell_length_a	8.954
_cell_length_b	13.64
_cell_length_c	22.026
_cell_angle_alpha	90
_cell_angle_beta	90
_cell_angle_gamma	95.57
loop_
_atom_site_label
_atom_site_type_symbol
_atom_site_fract_x
_atom_site_fract_y
_atom_site_fract_z
_atom_site_charge
Mof_Yb	Yb	0.0177	0.02386	0.67378	1.795
Mof_Yb	Yb	0.45487	0.74594	0.60899	1.138
Mof_Yb	Yb	0.9823	0.47614	0.17378	1.807
Mof_Yb	Yb	0.54513	0.75406	0.10899	1.136
Mof_Yb	Yb	0.9823	0.97614	0.32622	1.795
Mof_Yb	Yb	0.54513	0.25406	0.39101	1.138
Mof_Yb	Yb	0.0177	0.52386	0.82622	1.807
Mof_Yb	Yb	0.45487	0.24594	0.89101	1.136
Mof_C 	C 	0.9185	0.7883	0.7073	-0.03
Mof_C 	C 	0.9343	0.6934	0.7283	-0.007
Mof_C 	C 	0.1199	0.7594	0.7955	-0.003
Mof_C 	C 	0.1065	0.8546	0.7731	-0.016
Mof_C 	C 	0.8017	0.8176	0.6626	0.387
Mof_C 	C 	0.8598	0.5954	0.7065	0.326
Mof_C 	C 	0.2365	0.7275	0.8412	0.322
Mof_C 	C 	0.1824	0.9527	0.7945	0.333
Mof_C 	C 	0.9283	0.0709	0.5302	0.001
Mof_C 	C 	0.9113	0.0536	0.4668	-0.022
Mof_C 	C 	0.8638	0.1473	0.5709	0.321
Mof_C 	C 	0.8075	0.1028	0.4223	0.39
Mof_C 	C 	0.0815	0.7117	0.2073	-0.026
Mof_C 	C 	0.0657	0.8066	0.2283	-0.004
Mof_C 	C 	0.8801	0.7406	0.2955	-0.004
Mof_C 	C 	0.8935	0.6454	0.2731	-0.016
Mof_C 	C 	0.1983	0.6824	0.1626	0.386
Mof_C 	C 	0.1402	0.9046	0.2065	0.326
Mof_C 	C 	0.7635	0.7725	0.3412	0.321
Mof_C 	C 	0.8176	0.5473	0.2945	0.329
Mof_C 	C 	0.0717	0.4291	0.0302	0.001
Mof_C 	C 	0.0887	0.4464	0.9668	-0.03
Mof_C 	C 	0.1362	0.3527	0.0709	0.321
Mof_C 	C 	0.1925	0.3972	0.9223	0.391
Mof_C 	C 	0.0815	0.2117	0.2927	-0.03
Mof_C 	C 	0.0657	0.3066	0.2717	-0.007
Mof_C 	C 	0.8801	0.2406	0.2045	-0.003
Mof_C 	C 	0.8935	0.1454	0.2269	-0.016
Mof_C 	C 	0.1983	0.1824	0.3374	0.387
Mof_C 	C 	0.1402	0.4046	0.2935	0.326
Mof_C 	C 	0.7635	0.2725	0.1588	0.322
Mof_C 	C 	0.8176	0.0473	0.2055	0.333
Mof_C 	C 	0.0717	0.9291	0.4698	0.001
Mof_C 	C 	0.0887	0.9464	0.5332	-0.022
Mof_C 	C 	0.1362	0.8527	0.4291	0.321
Mof_C 	C 	0.1925	0.8972	0.5777	0.39
Mof_C 	C 	0.9185	0.2883	0.7927	-0.026
Mof_C 	C 	0.9343	0.1934	0.7717	-0.004
Mof_C 	C 	0.1199	0.2594	0.7045	-0.004
Mof_C 	C 	0.1065	0.3546	0.7269	-0.016
Mof_C 	C 	0.8017	0.3176	0.8374	0.386
Mof_C 	C 	0.8598	0.0954	0.7935	0.326
Mof_C 	C 	0.2365	0.2275	0.6588	0.321
Mof_C 	C 	0.1824	0.4527	0.7055	0.329
Mof_C 	C 	0.9283	0.5709	0.9698	0.001
Mof_C 	C 	0.9113	0.5536	0.0332	-0.03
Mof_C 	C 	0.8638	0.6473	0.9291	0.321
Mof_C 	C 	0.8075	0.6028	0.0777	0.391
Mof_N 	N 	0.0058	0.8645	0.7292	-0.169
Mof_N 	N 	0.0339	0.6834	0.7734	-0.186
Mof_N 	N 	0.0177	0.015	0.5603	-0.175
Mof_N 	N 	0.9942	0.6355	0.2292	-0.174
Mof_N 	N 	0.9661	0.8166	0.2734	-0.188
Mof_N 	N 	0.9823	0.485	0.0603	-0.171
Mof_N 	N 	0.9942	0.1355	0.2708	-0.169
Mof_N 	N 	0.9661	0.3166	0.2266	-0.186
Mof_N 	N 	0.9823	0.985	0.4397	-0.175
Mof_N 	N 	0.0058	0.3645	0.7708	-0.174
Mof_N 	N 	0.0339	0.1834	0.7266	-0.188
Mof_N 	N 	0.0177	0.515	0.9397	-0.171
Mof_O 	O 	0.8313	0.9034	0.6391	-0.435
Mof_O 	O 	0.6882	0.7606	0.6542	-0.438
Mof_O 	O 	0.8258	0.5828	0.6527	-0.252
Mof_O 	O 	0.8477	0.5301	0.7482	-0.411
Mof_O 	O 	0.2022	0.64	0.862	-0.409
Mof_O 	O 	0.3533	0.7802	0.85	-0.245
Mof_O 	O 	0.2138	0.9649	0.8482	-0.266
Mof_O 	O 	0.1961	0.0176	0.7524	-0.418
Mof_O 	O 	0.8515	0.1196	0.6262	-0.396
Mof_O 	O 	0.8382	0.228	0.5501	-0.241
Mof_O 	O 	0.7171	0.1587	0.441	-0.423
Mof_O 	O 	0.824	0.0779	0.3675	-0.471
Mof_O 	O 	0.1687	0.5966	0.1391	-0.434
Mof_O 	O 	0.3118	0.7394	0.1542	-0.438
Mof_O 	O 	0.1742	0.9172	0.1527	-0.251
Mof_O 	O 	0.1523	0.9699	0.2482	-0.409
Mof_O 	O 	0.7978	0.86	0.362	-0.409
Mof_O 	O 	0.6467	0.7198	0.35	-0.245
Mof_O 	O 	0.7862	0.5351	0.3482	-0.266
Mof_O 	O 	0.8039	0.4824	0.2524	-0.414
Mof_O 	O 	0.1485	0.3804	0.1262	-0.399
Mof_O 	O 	0.1618	0.272	0.0501	-0.241
Mof_O 	O 	0.2829	0.3413	0.941	-0.424
Mof_O 	O 	0.176	0.4221	0.8675	-0.475
Mof_O 	O 	0.1687	0.0966	0.3609	-0.435
Mof_O 	O 	0.3118	0.2394	0.3458	-0.438
Mof_O 	O 	0.1742	0.4172	0.3473	-0.252
Mof_O 	O 	0.1523	0.4699	0.2518	-0.411
Mof_O 	O 	0.7978	0.36	0.138	-0.409
Mof_O 	O 	0.6467	0.2198	0.15	-0.245
Mof_O 	O 	0.7862	0.0351	0.1518	-0.266
Mof_O 	O 	0.8039	0.9824	0.2476	-0.418
Mof_O 	O 	0.1485	0.8804	0.3738	-0.396
Mof_O 	O 	0.1618	0.772	0.4499	-0.241
Mof_O 	O 	0.2829	0.8413	0.559	-0.423
Mof_O 	O 	0.176	0.9221	0.6325	-0.471
Mof_O 	O 	0.8313	0.4034	0.8609	-0.434
Mof_O 	O 	0.6882	0.2606	0.8458	-0.438
Mof_O 	O 	0.8258	0.0828	0.8473	-0.251
Mof_O 	O 	0.8477	0.0301	0.7518	-0.409
Mof_O 	O 	0.2022	0.14	0.638	-0.409
Mof_O 	O 	0.3533	0.2802	0.65	-0.245
Mof_O 	O 	0.2138	0.4649	0.6518	-0.266
Mof_O 	O 	0.1961	0.5176	0.7476	-0.414
Mof_O 	O 	0.8515	0.6196	0.8738	-0.399
Mof_O 	O 	0.8382	0.728	0.9499	-0.241
Mof_O 	O 	0.7171	0.6587	0.059	-0.424
Mof_O 	O 	0.824	0.5779	0.1325	-0.475
_end
