data_functionalizedCrystal
_audit_creation_method	'EQeq! by Chris Wilmer'
_symmetry_space_group_name_H-M	'P1'
_symmetry_Int_Tables_number	1
_symmetry_cell_setting	triclinic
loop_
_symmetry_equiv_pos_as_xyz
  x,y,z
_cell_length_a	23.129
_cell_length_b	39.47
_cell_length_c	40.61
_cell_angle_alpha	90
_cell_angle_beta	90
_cell_angle_gamma	90
loop_
_atom_site_label
_atom_site_type_symbol
_atom_site_fract_x
_atom_site_fract_y
_atom_site_fract_z
_atom_site_charge
Mof_O 	O 	0.62403	0.66489	0.34804	-0.53
Mof_O 	O 	0.70849	0.64771	0.36414	-0.486
Mof_O 	O 	0.89711	0.83597	0.18099	-0.473
Mof_O 	O 	0.81132	0.84323	0.16256	-0.539
Mof_C 	C 	0.6712	0.71319	0.30564	0.037
Mof_H 	H 	0.6314	0.7138	0.3091	0.039
Mof_C 	C 	0.6964	0.73519	0.28359	-0.107
Mof_H 	H 	0.6732	0.7507	0.2726	0.073
Mof_C 	C 	0.7551	0.73491	0.27726	0.05
Mof_C 	C 	0.7881	0.71128	0.29398	-0.11
Mof_H 	H 	0.8276	0.7097	0.29	0.074
Mof_C 	C 	0.7627	0.69034	0.31635	0.041
Mof_H 	H 	0.7861	0.6753	0.328	0.039
Mof_C 	C 	0.7049	0.69021	0.32261	-0.098
Mof_C 	C 	0.8591	0.79221	0.23157	0.033
Mof_H 	H 	0.8973	0.7992	0.2331	0.037
Mof_C 	C 	0.8353	0.76993	0.25446	-0.099
Mof_H 	H 	0.8585	0.7622	0.2716	0.069
Mof_C 	C 	0.779	0.75881	0.25296	0.039
Mof_C 	C 	0.7453	0.77049	0.2268	-0.097
Mof_H 	H 	0.7074	0.763	0.2246	0.07
Mof_C 	C 	0.7677	0.79327	0.20394	0.041
Mof_H 	H 	0.7443	0.8014	0.1871	0.05
Mof_C 	C 	0.8232	0.80367	0.2061	-0.105
Mof_C 	C 	0.6786	0.66596	0.34654	0.345
Mof_C 	C 	0.8465	0.82872	0.18262	0.373
Mof_O 	O 	0.62403	0.16489	0.84804	-0.53
Mof_O 	O 	0.70849	0.14771	0.86414	-0.486
Mof_O 	O 	0.89711	0.33597	0.68099	-0.473
Mof_O 	O 	0.81132	0.34323	0.66256	-0.539
Mof_C 	C 	0.6712	0.21319	0.80564	0.037
Mof_H 	H 	0.6314	0.2138	0.8091	0.039
Mof_C 	C 	0.6964	0.23519	0.78359	-0.107
Mof_H 	H 	0.6732	0.2507	0.7726	0.073
Mof_C 	C 	0.7551	0.23491	0.77726	0.05
Mof_C 	C 	0.7881	0.21128	0.79398	-0.11
Mof_H 	H 	0.8276	0.2097	0.79	0.074
Mof_C 	C 	0.7627	0.19034	0.81635	0.041
Mof_H 	H 	0.7861	0.1753	0.828	0.039
Mof_C 	C 	0.7049	0.19021	0.82261	-0.098
Mof_C 	C 	0.8591	0.29221	0.73157	0.033
Mof_H 	H 	0.8973	0.2992	0.7331	0.037
Mof_C 	C 	0.8353	0.26993	0.75446	-0.099
Mof_H 	H 	0.8585	0.2622	0.7716	0.069
Mof_C 	C 	0.779	0.25881	0.75296	0.039
Mof_C 	C 	0.7453	0.27049	0.7268	-0.097
Mof_H 	H 	0.7074	0.263	0.7246	0.07
Mof_C 	C 	0.7677	0.29327	0.70394	0.041
Mof_H 	H 	0.7443	0.3014	0.6871	0.05
Mof_C 	C 	0.8232	0.30367	0.7061	-0.105
Mof_C 	C 	0.6786	0.16596	0.84654	0.345
Mof_C 	C 	0.8465	0.32872	0.68262	0.373
Mof_O 	O 	0.12403	0.66489	0.84804	-0.53
Mof_O 	O 	0.20849	0.64771	0.86414	-0.486
Mof_O 	O 	0.39711	0.83597	0.68099	-0.473
Mof_O 	O 	0.31132	0.84323	0.66256	-0.539
Mof_C 	C 	0.1712	0.71319	0.80564	0.037
Mof_H 	H 	0.1314	0.7138	0.8091	0.039
Mof_C 	C 	0.1964	0.73519	0.78359	-0.107
Mof_H 	H 	0.1732	0.7507	0.7726	0.073
Mof_C 	C 	0.2551	0.73491	0.77726	0.05
Mof_C 	C 	0.2881	0.71128	0.79398	-0.11
Mof_H 	H 	0.3276	0.7097	0.79	0.074
Mof_C 	C 	0.2627	0.69034	0.81635	0.041
Mof_H 	H 	0.2861	0.6753	0.828	0.039
Mof_C 	C 	0.2049	0.69021	0.82261	-0.098
Mof_C 	C 	0.3591	0.79221	0.73157	0.033
Mof_H 	H 	0.3973	0.7992	0.7331	0.037
Mof_C 	C 	0.3353	0.76993	0.75446	-0.099
Mof_H 	H 	0.3585	0.7622	0.7716	0.069
Mof_C 	C 	0.279	0.75881	0.75296	0.039
Mof_C 	C 	0.2453	0.77049	0.7268	-0.097
Mof_H 	H 	0.2074	0.763	0.7246	0.07
Mof_C 	C 	0.2677	0.79327	0.70394	0.041
Mof_H 	H 	0.2443	0.8014	0.6871	0.05
Mof_C 	C 	0.3232	0.80367	0.7061	-0.105
Mof_C 	C 	0.1786	0.66596	0.84654	0.345
Mof_C 	C 	0.3465	0.82872	0.68262	0.373
Mof_O 	O 	0.12403	0.16489	0.34804	-0.53
Mof_O 	O 	0.20849	0.14771	0.36414	-0.486
Mof_O 	O 	0.39711	0.33597	0.18099	-0.473
Mof_O 	O 	0.31132	0.34323	0.16256	-0.539
Mof_C 	C 	0.1712	0.21319	0.30564	0.037
Mof_H 	H 	0.1314	0.2138	0.3091	0.039
Mof_C 	C 	0.1964	0.23519	0.28359	-0.107
Mof_H 	H 	0.1732	0.2507	0.2726	0.073
Mof_C 	C 	0.2551	0.23491	0.27726	0.05
Mof_C 	C 	0.2881	0.21128	0.29398	-0.11
Mof_H 	H 	0.3276	0.2097	0.29	0.073
Mof_C 	C 	0.2627	0.19034	0.31635	0.04
Mof_H 	H 	0.2861	0.1753	0.328	0.038
Mof_C 	C 	0.2049	0.19021	0.32261	-0.099
Mof_C 	C 	0.3591	0.29221	0.23157	0.032
Mof_H 	H 	0.3973	0.2992	0.2331	0.036
Mof_C 	C 	0.3353	0.26993	0.25446	-0.1
Mof_H 	H 	0.3585	0.2622	0.2716	0.068
Mof_C 	C 	0.279	0.25881	0.25296	0.038
Mof_C 	C 	0.2453	0.27049	0.2268	-0.098
Mof_H 	H 	0.2074	0.263	0.2246	0.069
Mof_C 	C 	0.2677	0.29327	0.20394	0.04
Mof_H 	H 	0.2443	0.3014	0.1871	0.049
Mof_C 	C 	0.3232	0.30367	0.2061	-0.106
Mof_C 	C 	0.1786	0.16596	0.34654	0.344
Mof_C 	C 	0.3465	0.32872	0.18262	0.372
Mof_O 	O 	0.12597	0.08511	0.34804	-0.53
Mof_O 	O 	0.04151	0.10229	0.36414	-0.487
Mof_O 	O 	0.85289	0.91403	0.18099	-0.474
Mof_O 	O 	0.93868	0.90677	0.16256	-0.54
Mof_C 	C 	0.0788	0.03681	0.30564	0.034
Mof_H 	H 	0.1186	0.0362	0.3091	0.039
Mof_C 	C 	0.0536	0.01481	0.28359	-0.106
Mof_H 	H 	0.0768	0.9993	0.2726	0.071
Mof_C 	C 	0.9949	0.01509	0.27726	0.047
Mof_C 	C 	0.9619	0.03872	0.29398	-0.109
Mof_H 	H 	0.9224	0.0403	0.29	0.072
Mof_C 	C 	0.9873	0.05966	0.31635	0.038
Mof_H 	H 	0.9639	0.0747	0.328	0.038
Mof_C 	C 	0.0451	0.05979	0.32261	-0.097
Mof_C 	C 	0.8909	0.95779	0.23157	0.033
Mof_H 	H 	0.8527	0.9508	0.2331	0.036
Mof_C 	C 	0.9147	0.98007	0.25446	-0.101
Mof_H 	H 	0.8915	0.9878	0.2716	0.069
Mof_C 	C 	0.971	0.99119	0.25296	0.04
Mof_C 	C 	0.0047	0.97951	0.2268	-0.1
Mof_H 	H 	0.0426	0.987	0.2246	0.07
Mof_C 	C 	0.9823	0.95673	0.20394	0.042
Mof_H 	H 	0.0057	0.9486	0.1871	0.048
Mof_C 	C 	0.9268	0.94633	0.2061	-0.107
Mof_C 	C 	0.0714	0.08404	0.34654	0.344
Mof_C 	C 	0.9035	0.92128	0.18262	0.373
Mof_O 	O 	0.12597	0.58511	0.84804	-0.531
Mof_O 	O 	0.04151	0.60229	0.86414	-0.487
Mof_O 	O 	0.85289	0.41403	0.68099	-0.474
Mof_O 	O 	0.93868	0.40677	0.66256	-0.54
Mof_C 	C 	0.0788	0.53681	0.80564	0.036
Mof_H 	H 	0.1186	0.5362	0.8091	0.038
Mof_C 	C 	0.0536	0.51481	0.78359	-0.108
Mof_H 	H 	0.0768	0.4993	0.7726	0.072
Mof_C 	C 	0.9949	0.51509	0.77726	0.049
Mof_C 	C 	0.9619	0.53872	0.79398	-0.111
Mof_H 	H 	0.9224	0.5403	0.79	0.073
Mof_C 	C 	0.9873	0.55966	0.81635	0.04
Mof_H 	H 	0.9639	0.5747	0.828	0.038
Mof_C 	C 	0.0451	0.55979	0.82261	-0.099
Mof_C 	C 	0.8909	0.45779	0.73157	0.032
Mof_H 	H 	0.8527	0.4508	0.7331	0.036
Mof_C 	C 	0.9147	0.48007	0.75446	-0.1
Mof_H 	H 	0.8915	0.4878	0.7716	0.068
Mof_C 	C 	0.971	0.49119	0.75296	0.038
Mof_C 	C 	0.0047	0.47951	0.7268	-0.098
Mof_H 	H 	0.0426	0.487	0.7246	0.069
Mof_C 	C 	0.9823	0.45673	0.70394	0.04
Mof_H 	H 	0.0057	0.4486	0.6871	0.049
Mof_C 	C 	0.9268	0.44633	0.7061	-0.106
Mof_C 	C 	0.0714	0.58404	0.84654	0.344
Mof_C 	C 	0.9035	0.42128	0.68262	0.373
Mof_O 	O 	0.62597	0.08511	0.84804	-0.531
Mof_O 	O 	0.54151	0.10229	0.86414	-0.487
Mof_O 	O 	0.35289	0.91403	0.68099	-0.474
Mof_O 	O 	0.43868	0.90677	0.66256	-0.54
Mof_C 	C 	0.5788	0.03681	0.80564	0.036
Mof_H 	H 	0.6186	0.0362	0.8091	0.038
Mof_C 	C 	0.5536	0.01481	0.78359	-0.108
Mof_H 	H 	0.5768	0.9993	0.7726	0.072
Mof_C 	C 	0.4949	0.01509	0.77726	0.049
Mof_C 	C 	0.4619	0.03872	0.79398	-0.111
Mof_H 	H 	0.4224	0.0403	0.79	0.073
Mof_C 	C 	0.4873	0.05966	0.81635	0.04
Mof_H 	H 	0.4639	0.0747	0.828	0.038
Mof_C 	C 	0.5451	0.05979	0.82261	-0.099
Mof_C 	C 	0.3909	0.95779	0.73157	0.032
Mof_H 	H 	0.3527	0.9508	0.7331	0.036
Mof_C 	C 	0.4147	0.98007	0.75446	-0.1
Mof_H 	H 	0.3915	0.9878	0.7716	0.068
Mof_C 	C 	0.471	0.99119	0.75296	0.038
Mof_C 	C 	0.5047	0.97951	0.7268	-0.098
Mof_H 	H 	0.5426	0.987	0.7246	0.069
Mof_C 	C 	0.4823	0.95673	0.70394	0.04
Mof_H 	H 	0.5057	0.9486	0.6871	0.049
Mof_C 	C 	0.4268	0.94633	0.7061	-0.106
Mof_C 	C 	0.5714	0.08404	0.84654	0.344
Mof_C 	C 	0.4035	0.92128	0.68262	0.372
Mof_O 	O 	0.62597	0.58511	0.34804	-0.531
Mof_O 	O 	0.54151	0.60229	0.36414	-0.487
Mof_O 	O 	0.35289	0.41403	0.18099	-0.474
Mof_O 	O 	0.43868	0.40677	0.16256	-0.54
Mof_C 	C 	0.5788	0.53681	0.30564	0.036
Mof_H 	H 	0.6186	0.5362	0.3091	0.038
Mof_C 	C 	0.5536	0.51481	0.28359	-0.108
Mof_H 	H 	0.5768	0.4993	0.2726	0.072
Mof_C 	C 	0.4949	0.51509	0.27726	0.049
Mof_C 	C 	0.4619	0.53872	0.29398	-0.111
Mof_H 	H 	0.4224	0.5403	0.29	0.073
Mof_C 	C 	0.4873	0.55966	0.31635	0.04
Mof_H 	H 	0.4639	0.5747	0.328	0.038
Mof_C 	C 	0.5451	0.55979	0.32261	-0.099
Mof_C 	C 	0.3909	0.45779	0.23157	0.032
Mof_H 	H 	0.3527	0.4508	0.2331	0.036
Mof_C 	C 	0.4147	0.48007	0.25446	-0.1
Mof_H 	H 	0.3915	0.4878	0.2716	0.068
Mof_C 	C 	0.471	0.49119	0.25296	0.038
Mof_C 	C 	0.5047	0.47951	0.2268	-0.098
Mof_H 	H 	0.5426	0.487	0.2246	0.069
Mof_C 	C 	0.4823	0.45673	0.20394	0.04
Mof_H 	H 	0.5057	0.4486	0.1871	0.049
Mof_C 	C 	0.4268	0.44633	0.2061	-0.106
Mof_C 	C 	0.5714	0.58404	0.34654	0.344
Mof_C 	C 	0.4035	0.42128	0.18262	0.372
Mof_O 	O 	0.87403	0.33511	0.59804	-0.531
Mof_O 	O 	0.95849	0.35229	0.61414	-0.487
Mof_O 	O 	0.14711	0.16403	0.43099	-0.474
Mof_O 	O 	0.06132	0.15677	0.41256	-0.54
Mof_C 	C 	0.9212	0.28681	0.55564	0.036
Mof_H 	H 	0.8814	0.2862	0.5591	0.038
Mof_C 	C 	0.9464	0.26481	0.53359	-0.108
Mof_H 	H 	0.9232	0.2493	0.5226	0.072
Mof_C 	C 	0.0051	0.26509	0.52726	0.049
Mof_C 	C 	0.0381	0.28872	0.54398	-0.111
Mof_H 	H 	0.0776	0.2903	0.54	0.073
Mof_C 	C 	0.0127	0.30966	0.56635	0.04
Mof_H 	H 	0.0361	0.3247	0.578	0.038
Mof_C 	C 	0.9549	0.30979	0.57261	-0.099
Mof_C 	C 	0.1091	0.20779	0.48157	0.032
Mof_H 	H 	0.1473	0.2008	0.4831	0.036
Mof_C 	C 	0.0853	0.23007	0.50446	-0.1
Mof_H 	H 	0.1085	0.2378	0.5216	0.068
Mof_C 	C 	0.029	0.24119	0.50296	0.038
Mof_C 	C 	0.9953	0.22951	0.4768	-0.098
Mof_H 	H 	0.9574	0.237	0.4746	0.07
Mof_C 	C 	0.0177	0.20673	0.45394	0.041
Mof_H 	H 	0.9943	0.1986	0.4371	0.049
Mof_C 	C 	0.0732	0.19633	0.4561	-0.106
Mof_C 	C 	0.9286	0.33404	0.59654	0.344
Mof_C 	C 	0.0965	0.17128	0.43262	0.373
Mof_O 	O 	0.87403	0.83511	0.09804	-0.531
Mof_O 	O 	0.95849	0.85229	0.11414	-0.487
Mof_O 	O 	0.14711	0.66403	0.93099	-0.474
Mof_O 	O 	0.06132	0.65677	0.91256	-0.54
Mof_C 	C 	0.9212	0.78681	0.05564	0.035
Mof_H 	H 	0.8814	0.7862	0.0591	0.038
Mof_C 	C 	0.9464	0.76481	0.03359	-0.108
Mof_H 	H 	0.9232	0.7493	0.0226	0.072
Mof_C 	C 	0.0051	0.76509	0.02726	0.049
Mof_C 	C 	0.0381	0.78872	0.04398	-0.111
Mof_H 	H 	0.0776	0.7903	0.04	0.073
Mof_C 	C 	0.0127	0.80966	0.06635	0.039
Mof_H 	H 	0.0361	0.8247	0.078	0.038
Mof_C 	C 	0.9549	0.80979	0.07261	-0.098
Mof_C 	C 	0.1091	0.70779	0.98157	0.031
Mof_H 	H 	0.1473	0.7008	0.9831	0.036
Mof_C 	C 	0.0853	0.73007	0.00446	-0.1
Mof_H 	H 	0.1085	0.7378	0.0216	0.068
Mof_C 	C 	0.029	0.74119	0.00296	0.038
Mof_C 	C 	0.9953	0.72951	0.9768	-0.097
Mof_H 	H 	0.9574	0.737	0.9746	0.069
Mof_C 	C 	0.0177	0.70673	0.95394	0.04
Mof_H 	H 	0.9943	0.6986	0.9371	0.049
Mof_C 	C 	0.0732	0.69633	0.9561	-0.105
Mof_C 	C 	0.9286	0.83404	0.09654	0.344
Mof_C 	C 	0.0965	0.67128	0.93262	0.372
Mof_O 	O 	0.37403	0.33511	0.09804	-0.531
Mof_O 	O 	0.45849	0.35229	0.11414	-0.487
Mof_O 	O 	0.64711	0.16403	0.93099	-0.474
Mof_O 	O 	0.56132	0.15677	0.91256	-0.54
Mof_C 	C 	0.4212	0.28681	0.05564	0.036
Mof_H 	H 	0.3814	0.2862	0.0591	0.038
Mof_C 	C 	0.4464	0.26481	0.03359	-0.108
Mof_H 	H 	0.4232	0.2493	0.0226	0.072
Mof_C 	C 	0.5051	0.26509	0.02726	0.049
Mof_C 	C 	0.5381	0.28872	0.04398	-0.111
Mof_H 	H 	0.5776	0.2903	0.04	0.073
Mof_C 	C 	0.5127	0.30966	0.06635	0.04
Mof_H 	H 	0.5361	0.3247	0.078	0.038
Mof_C 	C 	0.4549	0.30979	0.07261	-0.099
Mof_C 	C 	0.6091	0.20779	0.98157	0.032
Mof_H 	H 	0.6473	0.2008	0.9831	0.036
Mof_C 	C 	0.5853	0.23007	0.00446	-0.1
Mof_H 	H 	0.6085	0.2378	0.0216	0.068
Mof_C 	C 	0.529	0.24119	0.00296	0.038
Mof_C 	C 	0.4953	0.22951	0.9768	-0.098
Mof_H 	H 	0.4574	0.237	0.9746	0.069
Mof_C 	C 	0.5177	0.20673	0.95394	0.04
Mof_H 	H 	0.4943	0.1986	0.9371	0.049
Mof_C 	C 	0.5732	0.19633	0.9561	-0.106
Mof_C 	C 	0.4286	0.33404	0.09654	0.344
Mof_C 	C 	0.5965	0.17128	0.93262	0.372
Mof_O 	O 	0.37403	0.83511	0.59804	-0.531
Mof_O 	O 	0.45849	0.85229	0.61414	-0.487
Mof_O 	O 	0.64711	0.66403	0.43099	-0.474
Mof_O 	O 	0.56132	0.65677	0.41256	-0.54
Mof_C 	C 	0.4212	0.78681	0.55564	0.036
Mof_H 	H 	0.3814	0.7862	0.5591	0.038
Mof_C 	C 	0.4464	0.76481	0.53359	-0.108
Mof_H 	H 	0.4232	0.7493	0.5226	0.072
Mof_C 	C 	0.5051	0.76509	0.52726	0.049
Mof_C 	C 	0.5381	0.78872	0.54398	-0.111
Mof_H 	H 	0.5776	0.7903	0.54	0.073
Mof_C 	C 	0.5127	0.80966	0.56635	0.04
Mof_H 	H 	0.5361	0.8247	0.578	0.038
Mof_C 	C 	0.4549	0.80979	0.57261	-0.099
Mof_C 	C 	0.6091	0.70779	0.48157	0.032
Mof_H 	H 	0.6473	0.7008	0.4831	0.036
Mof_C 	C 	0.5853	0.73007	0.50446	-0.1
Mof_H 	H 	0.6085	0.7378	0.5216	0.068
Mof_C 	C 	0.529	0.74119	0.50296	0.038
Mof_C 	C 	0.4953	0.72951	0.4768	-0.098
Mof_H 	H 	0.4574	0.737	0.4746	0.069
Mof_C 	C 	0.5177	0.70673	0.45394	0.04
Mof_H 	H 	0.4943	0.6986	0.4371	0.049
Mof_C 	C 	0.5732	0.69633	0.4561	-0.106
Mof_C 	C 	0.4286	0.83404	0.59654	0.344
Mof_C 	C 	0.5965	0.67128	0.43262	0.372
Mof_O 	O 	0.37597	0.91489	0.59804	-0.531
Mof_O 	O 	0.29151	0.89771	0.61414	-0.487
Mof_O 	O 	0.10289	0.08597	0.43099	-0.474
Mof_O 	O 	0.18868	0.09323	0.41256	-0.54
Mof_C 	C 	0.3288	0.96319	0.55564	0.036
Mof_H 	H 	0.3686	0.9638	0.5591	0.038
Mof_C 	C 	0.3036	0.98519	0.53359	-0.108
Mof_H 	H 	0.3268	0.0007	0.5226	0.072
Mof_C 	C 	0.2449	0.98491	0.52726	0.049
Mof_C 	C 	0.2119	0.96128	0.54398	-0.111
Mof_H 	H 	0.1724	0.9597	0.54	0.073
Mof_C 	C 	0.2373	0.94034	0.56635	0.04
Mof_H 	H 	0.2139	0.9253	0.578	0.038
Mof_C 	C 	0.2951	0.94021	0.57261	-0.099
Mof_C 	C 	0.1409	0.04221	0.48157	0.032
Mof_H 	H 	0.1027	0.0492	0.4831	0.036
Mof_C 	C 	0.1647	0.01993	0.50446	-0.1
Mof_H 	H 	0.1415	0.0122	0.5216	0.068
Mof_C 	C 	0.221	0.00881	0.50296	0.038
Mof_C 	C 	0.2547	0.02049	0.4768	-0.098
Mof_H 	H 	0.2926	0.013	0.4746	0.069
Mof_C 	C 	0.2323	0.04327	0.45394	0.04
Mof_H 	H 	0.2557	0.0514	0.4371	0.049
Mof_C 	C 	0.1768	0.05367	0.4561	-0.106
Mof_C 	C 	0.3214	0.91596	0.59654	0.344
Mof_C 	C 	0.1535	0.07872	0.43262	0.373
Mof_O 	O 	0.37597	0.41489	0.09804	-0.531
Mof_O 	O 	0.29151	0.39771	0.11414	-0.487
Mof_O 	O 	0.10289	0.58597	0.93099	-0.474
Mof_O 	O 	0.18868	0.59323	0.91256	-0.54
Mof_C 	C 	0.3288	0.46319	0.05564	0.036
Mof_H 	H 	0.3686	0.4638	0.0591	0.038
Mof_C 	C 	0.3036	0.48519	0.03359	-0.108
Mof_H 	H 	0.3268	0.5007	0.0226	0.072
Mof_C 	C 	0.2449	0.48491	0.02726	0.049
Mof_C 	C 	0.2119	0.46128	0.04398	-0.111
Mof_H 	H 	0.1724	0.4597	0.04	0.073
Mof_C 	C 	0.2373	0.44034	0.06635	0.04
Mof_H 	H 	0.2139	0.4253	0.078	0.038
Mof_C 	C 	0.2951	0.44021	0.07261	-0.099
Mof_C 	C 	0.1409	0.54221	0.98157	0.032
Mof_H 	H 	0.1027	0.5492	0.9831	0.036
Mof_C 	C 	0.1647	0.51993	0.00446	-0.1
Mof_H 	H 	0.1415	0.5122	0.0216	0.068
Mof_C 	C 	0.221	0.50881	0.00296	0.038
Mof_C 	C 	0.2547	0.52049	0.9768	-0.098
Mof_H 	H 	0.2926	0.513	0.9746	0.069
Mof_C 	C 	0.2323	0.54327	0.95394	0.04
Mof_H 	H 	0.2557	0.5514	0.9371	0.049
Mof_C 	C 	0.1768	0.55367	0.9561	-0.106
Mof_C 	C 	0.3214	0.41596	0.09654	0.344
Mof_C 	C 	0.1535	0.57872	0.93262	0.372
Mof_O 	O 	0.87597	0.91489	0.09804	-0.531
Mof_O 	O 	0.79151	0.89771	0.11414	-0.487
Mof_O 	O 	0.60289	0.08597	0.93099	-0.474
Mof_O 	O 	0.68868	0.09323	0.91256	-0.54
Mof_C 	C 	0.8288	0.96319	0.05564	0.036
Mof_H 	H 	0.8686	0.9638	0.0591	0.038
Mof_C 	C 	0.8036	0.98519	0.03359	-0.108
Mof_H 	H 	0.8268	0.0007	0.0226	0.072
Mof_C 	C 	0.7449	0.98491	0.02726	0.049
Mof_C 	C 	0.7119	0.96128	0.04398	-0.111
Mof_H 	H 	0.6724	0.9597	0.04	0.073
Mof_C 	C 	0.7373	0.94034	0.06635	0.04
Mof_H 	H 	0.7139	0.9253	0.078	0.038
Mof_C 	C 	0.7951	0.94021	0.07261	-0.099
Mof_C 	C 	0.6409	0.04221	0.98157	0.032
Mof_H 	H 	0.6027	0.0492	0.9831	0.036
Mof_C 	C 	0.6647	0.01993	0.00446	-0.1
Mof_H 	H 	0.6415	0.0122	0.0216	0.068
Mof_C 	C 	0.721	0.00881	0.00296	0.038
Mof_C 	C 	0.7547	0.02049	0.9768	-0.098
Mof_H 	H 	0.7926	0.013	0.9746	0.069
Mof_C 	C 	0.7323	0.04327	0.95394	0.04
Mof_H 	H 	0.7557	0.0514	0.9371	0.049
Mof_C 	C 	0.6768	0.05367	0.9561	-0.106
Mof_C 	C 	0.8214	0.91596	0.09654	0.344
Mof_C 	C 	0.6535	0.07872	0.93262	0.372
Mof_O 	O 	0.87597	0.41489	0.59804	-0.531
Mof_O 	O 	0.79151	0.39771	0.61414	-0.487
Mof_O 	O 	0.60289	0.58597	0.43099	-0.474
Mof_O 	O 	0.68868	0.59323	0.41256	-0.54
Mof_C 	C 	0.8288	0.46319	0.55564	0.036
Mof_H 	H 	0.8686	0.4638	0.5591	0.038
Mof_C 	C 	0.8036	0.48519	0.53359	-0.108
Mof_H 	H 	0.8268	0.5007	0.5226	0.072
Mof_C 	C 	0.7449	0.48491	0.52726	0.049
Mof_C 	C 	0.7119	0.46128	0.54398	-0.111
Mof_H 	H 	0.6724	0.4597	0.54	0.073
Mof_C 	C 	0.7373	0.44034	0.56635	0.04
Mof_H 	H 	0.7139	0.4253	0.578	0.038
Mof_C 	C 	0.7951	0.44021	0.57261	-0.099
Mof_C 	C 	0.6409	0.54221	0.48157	0.032
Mof_H 	H 	0.6027	0.5492	0.4831	0.036
Mof_C 	C 	0.6647	0.51993	0.50446	-0.1
Mof_H 	H 	0.6415	0.5122	0.5216	0.068
Mof_C 	C 	0.721	0.50881	0.50296	0.038
Mof_C 	C 	0.7547	0.52049	0.4768	-0.098
Mof_H 	H 	0.7926	0.513	0.4746	0.069
Mof_C 	C 	0.7323	0.54327	0.45394	0.04
Mof_H 	H 	0.7557	0.5514	0.4371	0.049
Mof_C 	C 	0.6768	0.55367	0.4561	-0.106
Mof_C 	C 	0.8214	0.41596	0.59654	0.344
Mof_C 	C 	0.6535	0.57872	0.43262	0.372
Mof_In	In	0.625	0.625	0.38727	2.522
Mof_In	In	0.625	0.125	0.88727	2.522
Mof_In	In	0.125	0.125	0.38727	2.522
Mof_In	In	0.125	0.625	0.88727	2.522
Mof_In	In	0.875	0.375	0.63727	2.522
Mof_In	In	0.875	0.875	0.13727	2.522
Mof_In	In	0.375	0.375	0.13727	2.522
Mof_In	In	0.375	0.875	0.63727	2.522
Mof_O 	O 	0.94754	0.27871	0.39685	-0.561
Mof_O 	O 	0.86686	0.2867	0.41831	-0.533
Mof_O 	O 	0.13825	0.45873	0.58373	-0.497
Mof_O 	O 	0.05225	0.47103	0.60078	-0.53
Mof_C 	C 	0.0017	0.32227	0.44189	0.093
Mof_H 	H 	0.0254	0.3124	0.4261	0.019
Mof_C 	C 	0.0243	0.344	0.46505	-0.149
Mof_H 	H 	0.0642	0.3471	0.4649	0.084
Mof_C 	C 	0.9935	0.36133	0.48809	0.088
Mof_C 	C 	0.9375	0.35117	0.48942	-0.148
Mof_H 	H 	0.914	0.3602	0.5058	0.079
Mof_C 	C 	0.9137	0.32807	0.46772	0.095
Mof_H 	H 	0.8756	0.3211	0.4708	0.016
Mof_C 	C 	0.944	0.31548	0.44236	-0.167
Mof_C 	C 	0.0939	0.41897	0.53203	0.015
Mof_H 	H 	0.1323	0.4258	0.5301	0.042
Mof_C 	C 	0.071	0.39655	0.50912	-0.08
Mof_H 	H 	0.0939	0.389	0.4918	0.06
Mof_C 	C 	0.0152	0.38545	0.51183	0.012
Mof_C 	C 	0.9829	0.39745	0.53715	-0.068
Mof_H 	H 	0.9451	0.3897	0.5395	0.054
Mof_C 	C 	0.0044	0.42116	0.56013	0.015
Mof_H 	H 	0.9806	0.4297	0.5766	0.055
Mof_C 	C 	0.0604	0.43134	0.55774	-0.079
Mof_C 	C 	0.9179	0.29217	0.41779	0.449
Mof_C 	C 	0.0844	0.45553	0.58232	0.353
Mof_O 	O 	0.94754	0.77871	0.89685	-0.561
Mof_O 	O 	0.86686	0.7867	0.91831	-0.533
Mof_O 	O 	0.13825	0.95873	0.08373	-0.497
Mof_O 	O 	0.05225	0.97103	0.10078	-0.53
Mof_C 	C 	0.0017	0.82227	0.94189	0.093
Mof_H 	H 	0.0254	0.8124	0.9261	0.019
Mof_C 	C 	0.0243	0.844	0.96505	-0.15
Mof_H 	H 	0.0642	0.8471	0.9649	0.085
Mof_C 	C 	0.9935	0.86133	0.98809	0.089
Mof_C 	C 	0.9375	0.85117	0.98942	-0.149
Mof_H 	H 	0.914	0.8602	0.0058	0.08
Mof_C 	C 	0.9137	0.82807	0.96772	0.095
Mof_H 	H 	0.8756	0.8211	0.9708	0.016
Mof_C 	C 	0.944	0.81548	0.94236	-0.167
Mof_C 	C 	0.0939	0.91897	0.03203	0.014
Mof_H 	H 	0.1323	0.9258	0.0301	0.042
Mof_C 	C 	0.071	0.89655	0.00912	-0.078
Mof_H 	H 	0.0939	0.889	0.9918	0.059
Mof_C 	C 	0.0152	0.88545	0.01183	0.01
Mof_C 	C 	0.9829	0.89745	0.03715	-0.066
Mof_H 	H 	0.9451	0.8897	0.0395	0.053
Mof_C 	C 	0.0044	0.92116	0.06013	0.013
Mof_H 	H 	0.9806	0.9297	0.0766	0.056
Mof_C 	C 	0.0604	0.93134	0.05774	-0.078
Mof_C 	C 	0.9179	0.79217	0.91779	0.449
Mof_C 	C 	0.0844	0.95553	0.08232	0.353
Mof_O 	O 	0.44754	0.27871	0.89685	-0.561
Mof_O 	O 	0.36686	0.2867	0.91831	-0.533
Mof_O 	O 	0.63825	0.45873	0.08373	-0.497
Mof_O 	O 	0.55225	0.47103	0.10078	-0.53
Mof_C 	C 	0.5017	0.32227	0.94189	0.093
Mof_H 	H 	0.5254	0.3124	0.9261	0.019
Mof_C 	C 	0.5243	0.344	0.96505	-0.15
Mof_H 	H 	0.5642	0.3471	0.9649	0.084
Mof_C 	C 	0.4935	0.36133	0.98809	0.088
Mof_C 	C 	0.4375	0.35117	0.98942	-0.149
Mof_H 	H 	0.414	0.3602	0.0058	0.079
Mof_C 	C 	0.4137	0.32807	0.96772	0.095
Mof_H 	H 	0.3756	0.3211	0.9708	0.016
Mof_C 	C 	0.444	0.31548	0.94236	-0.167
Mof_C 	C 	0.5939	0.41897	0.03203	0.015
Mof_H 	H 	0.6323	0.4258	0.0301	0.042
Mof_C 	C 	0.571	0.39655	0.00912	-0.079
Mof_H 	H 	0.5939	0.389	0.9918	0.06
Mof_C 	C 	0.5152	0.38545	0.01183	0.011
Mof_C 	C 	0.4829	0.39745	0.03715	-0.068
Mof_H 	H 	0.4451	0.3897	0.0395	0.054
Mof_C 	C 	0.5044	0.42116	0.06013	0.015
Mof_H 	H 	0.4806	0.4297	0.0766	0.055
Mof_C 	C 	0.5604	0.43134	0.05774	-0.079
Mof_C 	C 	0.4179	0.29217	0.91779	0.449
Mof_C 	C 	0.5844	0.45553	0.08232	0.353
Mof_O 	O 	0.44754	0.77871	0.39685	-0.561
Mof_O 	O 	0.36686	0.7867	0.41831	-0.533
Mof_O 	O 	0.63825	0.95873	0.58373	-0.497
Mof_O 	O 	0.55225	0.97103	0.60078	-0.53
Mof_C 	C 	0.5017	0.82227	0.44189	0.093
Mof_H 	H 	0.5254	0.8124	0.4261	0.019
Mof_C 	C 	0.5243	0.844	0.46505	-0.15
Mof_H 	H 	0.5642	0.8471	0.4649	0.084
Mof_C 	C 	0.4935	0.86133	0.48809	0.088
Mof_C 	C 	0.4375	0.85117	0.48942	-0.149
Mof_H 	H 	0.414	0.8602	0.5058	0.079
Mof_C 	C 	0.4137	0.82807	0.46772	0.095
Mof_H 	H 	0.3756	0.8211	0.4708	0.016
Mof_C 	C 	0.444	0.81548	0.44236	-0.167
Mof_C 	C 	0.5939	0.91897	0.53203	0.015
Mof_H 	H 	0.6323	0.9258	0.5301	0.042
Mof_C 	C 	0.571	0.89655	0.50912	-0.079
Mof_H 	H 	0.5939	0.889	0.4918	0.06
Mof_C 	C 	0.5152	0.88545	0.51183	0.011
Mof_C 	C 	0.4829	0.89745	0.53715	-0.068
Mof_H 	H 	0.4451	0.8897	0.5395	0.054
Mof_C 	C 	0.5044	0.92116	0.56013	0.015
Mof_H 	H 	0.4806	0.9297	0.5766	0.055
Mof_C 	C 	0.5604	0.93134	0.55774	-0.079
Mof_C 	C 	0.4179	0.79217	0.41779	0.449
Mof_C 	C 	0.5844	0.95553	0.58232	0.353
Mof_O 	O 	0.80246	0.27871	0.35315	-0.561
Mof_O 	O 	0.88314	0.2867	0.33169	-0.533
Mof_O 	O 	0.61175	0.45873	0.16627	-0.497
Mof_O 	O 	0.69775	0.47103	0.14922	-0.53
Mof_C 	C 	0.7483	0.32227	0.30811	0.093
Mof_H 	H 	0.7246	0.3124	0.3239	0.019
Mof_C 	C 	0.7257	0.344	0.28495	-0.15
Mof_H 	H 	0.6858	0.3471	0.2851	0.084
Mof_C 	C 	0.7565	0.36133	0.26191	0.088
Mof_C 	C 	0.8125	0.35117	0.26058	-0.149
Mof_H 	H 	0.836	0.3602	0.2442	0.079
Mof_C 	C 	0.8363	0.32807	0.28228	0.095
Mof_H 	H 	0.8744	0.3211	0.2792	0.016
Mof_C 	C 	0.806	0.31548	0.30764	-0.167
Mof_C 	C 	0.6561	0.41897	0.21797	0.015
Mof_H 	H 	0.6177	0.4258	0.2199	0.042
Mof_C 	C 	0.679	0.39655	0.24088	-0.079
Mof_H 	H 	0.6561	0.389	0.2582	0.06
Mof_C 	C 	0.7348	0.38545	0.23817	0.011
Mof_C 	C 	0.7671	0.39745	0.21285	-0.068
Mof_H 	H 	0.8049	0.3897	0.2105	0.054
Mof_C 	C 	0.7456	0.42116	0.18987	0.015
Mof_H 	H 	0.7694	0.4297	0.1734	0.055
Mof_C 	C 	0.6896	0.43134	0.19226	-0.079
Mof_C 	C 	0.8321	0.29217	0.33221	0.449
Mof_C 	C 	0.6656	0.45553	0.16768	0.353
Mof_O 	O 	0.80246	0.77871	0.85315	-0.561
Mof_O 	O 	0.88314	0.7867	0.83169	-0.533
Mof_O 	O 	0.61175	0.95873	0.66627	-0.497
Mof_O 	O 	0.69775	0.97103	0.64922	-0.53
Mof_C 	C 	0.7483	0.82227	0.80811	0.093
Mof_H 	H 	0.7246	0.8124	0.8239	0.019
Mof_C 	C 	0.7257	0.844	0.78495	-0.15
Mof_H 	H 	0.6858	0.8471	0.7851	0.084
Mof_C 	C 	0.7565	0.86133	0.76191	0.088
Mof_C 	C 	0.8125	0.85117	0.76058	-0.149
Mof_H 	H 	0.836	0.8602	0.7442	0.079
Mof_C 	C 	0.8363	0.82807	0.78228	0.095
Mof_H 	H 	0.8744	0.8211	0.7792	0.016
Mof_C 	C 	0.806	0.81548	0.80764	-0.167
Mof_C 	C 	0.6561	0.91897	0.71797	0.015
Mof_H 	H 	0.6177	0.9258	0.7199	0.042
Mof_C 	C 	0.679	0.89655	0.74088	-0.079
Mof_H 	H 	0.6561	0.889	0.7582	0.06
Mof_C 	C 	0.7348	0.88545	0.73817	0.011
Mof_C 	C 	0.7671	0.89745	0.71285	-0.068
Mof_H 	H 	0.8049	0.8897	0.7105	0.054
Mof_C 	C 	0.7456	0.92116	0.68987	0.015
Mof_H 	H 	0.7694	0.9297	0.6734	0.055
Mof_C 	C 	0.6896	0.93134	0.69226	-0.079
Mof_C 	C 	0.8321	0.79217	0.83221	0.449
Mof_C 	C 	0.6656	0.95553	0.66768	0.353
Mof_O 	O 	0.30246	0.27871	0.85315	-0.561
Mof_O 	O 	0.38314	0.2867	0.83169	-0.533
Mof_O 	O 	0.11175	0.45873	0.66627	-0.497
Mof_O 	O 	0.19775	0.47103	0.64922	-0.53
Mof_C 	C 	0.2483	0.32227	0.80811	0.093
Mof_H 	H 	0.2246	0.3124	0.8239	0.019
Mof_C 	C 	0.2257	0.344	0.78495	-0.15
Mof_H 	H 	0.1858	0.3471	0.7851	0.084
Mof_C 	C 	0.2565	0.36133	0.76191	0.088
Mof_C 	C 	0.3125	0.35117	0.76058	-0.148
Mof_H 	H 	0.336	0.3602	0.7442	0.079
Mof_C 	C 	0.3363	0.32807	0.78228	0.095
Mof_H 	H 	0.3744	0.3211	0.7792	0.016
Mof_C 	C 	0.306	0.31548	0.80764	-0.167
Mof_C 	C 	0.1561	0.41897	0.71797	0.015
Mof_H 	H 	0.1177	0.4258	0.7199	0.042
Mof_C 	C 	0.179	0.39655	0.74088	-0.079
Mof_H 	H 	0.1561	0.389	0.7582	0.06
Mof_C 	C 	0.2348	0.38545	0.73817	0.011
Mof_C 	C 	0.2671	0.39745	0.71285	-0.068
Mof_H 	H 	0.3049	0.3897	0.7105	0.054
Mof_C 	C 	0.2456	0.42116	0.68987	0.015
Mof_H 	H 	0.2694	0.4297	0.6734	0.055
Mof_C 	C 	0.1896	0.43134	0.69226	-0.079
Mof_C 	C 	0.3321	0.29217	0.83221	0.449
Mof_C 	C 	0.1656	0.45553	0.66768	0.353
Mof_O 	O 	0.30246	0.77871	0.35315	-0.561
Mof_O 	O 	0.38314	0.7867	0.33169	-0.533
Mof_O 	O 	0.11175	0.95873	0.16627	-0.497
Mof_O 	O 	0.19775	0.97103	0.14922	-0.53
Mof_C 	C 	0.2483	0.82227	0.30811	0.093
Mof_H 	H 	0.2246	0.8124	0.3239	0.019
Mof_C 	C 	0.2257	0.844	0.28495	-0.15
Mof_H 	H 	0.1858	0.8471	0.2851	0.084
Mof_C 	C 	0.2565	0.86133	0.26191	0.088
Mof_C 	C 	0.3125	0.85117	0.26058	-0.148
Mof_H 	H 	0.336	0.8602	0.2442	0.079
Mof_C 	C 	0.3363	0.82807	0.28228	0.095
Mof_H 	H 	0.3744	0.8211	0.2792	0.016
Mof_C 	C 	0.306	0.81548	0.30764	-0.167
Mof_C 	C 	0.1561	0.91897	0.21797	0.015
Mof_H 	H 	0.1177	0.9258	0.2199	0.042
Mof_C 	C 	0.179	0.89655	0.24088	-0.079
Mof_H 	H 	0.1561	0.889	0.2582	0.06
Mof_C 	C 	0.2348	0.88545	0.23817	0.011
Mof_C 	C 	0.2671	0.89745	0.21285	-0.068
Mof_H 	H 	0.3049	0.8897	0.2105	0.054
Mof_C 	C 	0.2456	0.92116	0.18987	0.015
Mof_H 	H 	0.2694	0.9297	0.1734	0.055
Mof_C 	C 	0.1896	0.93134	0.19226	-0.079
Mof_C 	C 	0.3321	0.79217	0.33221	0.449
Mof_C 	C 	0.1656	0.95553	0.16768	0.353
Mof_O 	O 	0.19754	0.52871	0.60315	-0.561
Mof_O 	O 	0.11686	0.5367	0.58169	-0.533
Mof_O 	O 	0.38825	0.70873	0.41627	-0.497
Mof_O 	O 	0.30225	0.72103	0.39922	-0.53
Mof_C 	C 	0.2517	0.57227	0.55811	0.093
Mof_H 	H 	0.2754	0.5624	0.5739	0.019
Mof_C 	C 	0.2743	0.594	0.53495	-0.15
Mof_H 	H 	0.3142	0.5971	0.5351	0.084
Mof_C 	C 	0.2435	0.61133	0.51191	0.088
Mof_C 	C 	0.1875	0.60117	0.51058	-0.149
Mof_H 	H 	0.164	0.6102	0.4942	0.079
Mof_C 	C 	0.1637	0.57807	0.53228	0.095
Mof_H 	H 	0.1256	0.5711	0.5292	0.016
Mof_C 	C 	0.194	0.56548	0.55764	-0.167
Mof_C 	C 	0.3439	0.66897	0.46797	0.015
Mof_H 	H 	0.3823	0.6758	0.4699	0.042
Mof_C 	C 	0.321	0.64655	0.49088	-0.079
Mof_H 	H 	0.3439	0.639	0.5082	0.06
Mof_C 	C 	0.2652	0.63545	0.48817	0.011
Mof_C 	C 	0.2329	0.64745	0.46285	-0.068
Mof_H 	H 	0.1951	0.6397	0.4605	0.054
Mof_C 	C 	0.2544	0.67116	0.43987	0.015
Mof_H 	H 	0.2306	0.6797	0.4234	0.055
Mof_C 	C 	0.3104	0.68134	0.44226	-0.079
Mof_C 	C 	0.1679	0.54217	0.58221	0.449
Mof_C 	C 	0.3344	0.70553	0.41768	0.353
Mof_O 	O 	0.19754	0.02871	0.10315	-0.561
Mof_O 	O 	0.11686	0.0367	0.08169	-0.533
Mof_O 	O 	0.38825	0.20873	0.91627	-0.497
Mof_O 	O 	0.30225	0.22103	0.89922	-0.53
Mof_C 	C 	0.2517	0.07227	0.05811	0.093
Mof_H 	H 	0.2754	0.0624	0.0739	0.019
Mof_C 	C 	0.2743	0.094	0.03495	-0.15
Mof_H 	H 	0.3142	0.0971	0.0351	0.084
Mof_C 	C 	0.2435	0.11133	0.01191	0.088
Mof_C 	C 	0.1875	0.10117	0.01058	-0.148
Mof_H 	H 	0.164	0.1102	0.9942	0.079
Mof_C 	C 	0.1637	0.07807	0.03228	0.095
Mof_H 	H 	0.1256	0.0711	0.0292	0.016
Mof_C 	C 	0.194	0.06548	0.05764	-0.167
Mof_C 	C 	0.3439	0.16897	0.96797	0.015
Mof_H 	H 	0.3823	0.1758	0.9699	0.042
Mof_C 	C 	0.321	0.14655	0.99088	-0.079
Mof_H 	H 	0.3439	0.139	0.0082	0.06
Mof_C 	C 	0.2652	0.13545	0.98817	0.011
Mof_C 	C 	0.2329	0.14745	0.96285	-0.068
Mof_H 	H 	0.1951	0.1397	0.9605	0.054
Mof_C 	C 	0.2544	0.17116	0.93987	0.015
Mof_H 	H 	0.2306	0.1797	0.9234	0.055
Mof_C 	C 	0.3104	0.18134	0.94226	-0.079
Mof_C 	C 	0.1679	0.04217	0.08221	0.449
Mof_C 	C 	0.3344	0.20553	0.91768	0.353
Mof_O 	O 	0.69754	0.52871	0.10315	-0.561
Mof_O 	O 	0.61686	0.5367	0.08169	-0.533
Mof_O 	O 	0.88825	0.70873	0.91627	-0.497
Mof_O 	O 	0.80225	0.72103	0.89922	-0.53
Mof_C 	C 	0.7517	0.57227	0.05811	0.093
Mof_H 	H 	0.7754	0.5624	0.0739	0.019
Mof_C 	C 	0.7743	0.594	0.03495	-0.15
Mof_H 	H 	0.8142	0.5971	0.0351	0.084
Mof_C 	C 	0.7435	0.61133	0.01191	0.088
Mof_C 	C 	0.6875	0.60117	0.01058	-0.149
Mof_H 	H 	0.664	0.6102	0.9942	0.079
Mof_C 	C 	0.6637	0.57807	0.03228	0.095
Mof_H 	H 	0.6256	0.5711	0.0292	0.016
Mof_C 	C 	0.694	0.56548	0.05764	-0.167
Mof_C 	C 	0.8439	0.66897	0.96797	0.015
Mof_H 	H 	0.8823	0.6758	0.9699	0.042
Mof_C 	C 	0.821	0.64655	0.99088	-0.079
Mof_H 	H 	0.8439	0.639	0.0082	0.06
Mof_C 	C 	0.7652	0.63545	0.98817	0.011
Mof_C 	C 	0.7329	0.64745	0.96285	-0.068
Mof_H 	H 	0.6951	0.6397	0.9605	0.054
Mof_C 	C 	0.7544	0.67116	0.93987	0.015
Mof_H 	H 	0.7306	0.6797	0.9234	0.055
Mof_C 	C 	0.8104	0.68134	0.94226	-0.079
Mof_C 	C 	0.6679	0.54217	0.08221	0.449
Mof_C 	C 	0.8344	0.70553	0.91768	0.353
Mof_O 	O 	0.69754	0.02871	0.60315	-0.561
Mof_O 	O 	0.61686	0.0367	0.58169	-0.533
Mof_O 	O 	0.88825	0.20873	0.41627	-0.497
Mof_O 	O 	0.80225	0.22103	0.39922	-0.53
Mof_C 	C 	0.7517	0.07227	0.55811	0.093
Mof_H 	H 	0.7754	0.0624	0.5739	0.019
Mof_C 	C 	0.7743	0.094	0.53495	-0.15
Mof_H 	H 	0.8142	0.0971	0.5351	0.084
Mof_C 	C 	0.7435	0.11133	0.51191	0.088
Mof_C 	C 	0.6875	0.10117	0.51058	-0.148
Mof_H 	H 	0.664	0.1102	0.4942	0.079
Mof_C 	C 	0.6637	0.07807	0.53228	0.095
Mof_H 	H 	0.6256	0.0711	0.5292	0.016
Mof_C 	C 	0.694	0.06548	0.55764	-0.167
Mof_C 	C 	0.8439	0.16897	0.46797	0.015
Mof_H 	H 	0.8823	0.1758	0.4699	0.042
Mof_C 	C 	0.821	0.14655	0.49088	-0.079
Mof_H 	H 	0.8439	0.139	0.5082	0.06
Mof_C 	C 	0.7652	0.13545	0.48817	0.011
Mof_C 	C 	0.7329	0.14745	0.46285	-0.068
Mof_H 	H 	0.6951	0.1397	0.4605	0.054
Mof_C 	C 	0.7544	0.17116	0.43987	0.015
Mof_H 	H 	0.7306	0.1797	0.4234	0.055
Mof_C 	C 	0.8104	0.18134	0.44226	-0.079
Mof_C 	C 	0.6679	0.04217	0.58221	0.449
Mof_C 	C 	0.8344	0.20553	0.41768	0.353
Mof_O 	O 	0.05246	0.52871	0.64685	-0.561
Mof_O 	O 	0.13314	0.5367	0.66831	-0.533
Mof_O 	O 	0.86175	0.70873	0.83373	-0.497
Mof_O 	O 	0.94775	0.72103	0.85078	-0.53
Mof_C 	C 	0.9983	0.57227	0.69189	0.093
Mof_H 	H 	0.9746	0.5624	0.6761	0.019
Mof_C 	C 	0.9757	0.594	0.71505	-0.149
Mof_H 	H 	0.9358	0.5971	0.7149	0.084
Mof_C 	C 	0.0065	0.61133	0.73809	0.087
Mof_C 	C 	0.0625	0.60117	0.73942	-0.148
Mof_H 	H 	0.086	0.6102	0.7558	0.079
Mof_C 	C 	0.0863	0.57807	0.71772	0.094
Mof_H 	H 	0.1244	0.5711	0.7208	0.016
Mof_C 	C 	0.056	0.56548	0.69236	-0.167
Mof_C 	C 	0.9061	0.66897	0.78203	0.016
Mof_H 	H 	0.8677	0.6758	0.7801	0.042
Mof_C 	C 	0.929	0.64655	0.75912	-0.08
Mof_H 	H 	0.9061	0.639	0.7418	0.06
Mof_C 	C 	0.9848	0.63545	0.76183	0.012
Mof_C 	C 	0.0171	0.64745	0.78715	-0.068
Mof_H 	H 	0.0549	0.6397	0.7895	0.054
Mof_C 	C 	0.9956	0.67116	0.81013	0.015
Mof_H 	H 	0.0194	0.6797	0.8266	0.055
Mof_C 	C 	0.9396	0.68134	0.80774	-0.079
Mof_C 	C 	0.0821	0.54217	0.66779	0.449
Mof_C 	C 	0.9156	0.70553	0.83232	0.353
Mof_O 	O 	0.05246	0.02871	0.14685	-0.561
Mof_O 	O 	0.13314	0.0367	0.16831	-0.533
Mof_O 	O 	0.86175	0.20873	0.33373	-0.497
Mof_O 	O 	0.94775	0.22103	0.35078	-0.53
Mof_C 	C 	0.9983	0.07227	0.19189	0.093
Mof_H 	H 	0.9746	0.0624	0.1761	0.019
Mof_C 	C 	0.9757	0.094	0.21505	-0.15
Mof_H 	H 	0.9358	0.0971	0.2149	0.085
Mof_C 	C 	0.0065	0.11133	0.23809	0.089
Mof_C 	C 	0.0625	0.10117	0.23942	-0.149
Mof_H 	H 	0.086	0.1102	0.2558	0.08
Mof_C 	C 	0.0863	0.07807	0.21772	0.095
Mof_H 	H 	0.1244	0.0711	0.2208	0.016
Mof_C 	C 	0.056	0.06548	0.19236	-0.167
Mof_C 	C 	0.9061	0.16897	0.28203	0.014
Mof_H 	H 	0.8677	0.1758	0.2801	0.042
Mof_C 	C 	0.929	0.14655	0.25912	-0.078
Mof_H 	H 	0.9061	0.139	0.2418	0.059
Mof_C 	C 	0.9848	0.13545	0.26183	0.01
Mof_C 	C 	0.0171	0.14745	0.28715	-0.067
Mof_H 	H 	0.0549	0.1397	0.2895	0.053
Mof_C 	C 	0.9956	0.17116	0.31013	0.014
Mof_H 	H 	0.0194	0.1797	0.3266	0.056
Mof_C 	C 	0.9396	0.18134	0.30774	-0.078
Mof_C 	C 	0.0821	0.04217	0.16779	0.449
Mof_C 	C 	0.9156	0.20553	0.33232	0.353
Mof_O 	O 	0.55246	0.52871	0.14685	-0.561
Mof_O 	O 	0.63314	0.5367	0.16831	-0.533
Mof_O 	O 	0.36175	0.70873	0.33373	-0.497
Mof_O 	O 	0.44775	0.72103	0.35078	-0.53
Mof_C 	C 	0.4983	0.57227	0.19189	0.093
Mof_H 	H 	0.4746	0.5624	0.1761	0.019
Mof_C 	C 	0.4757	0.594	0.21505	-0.15
Mof_H 	H 	0.4358	0.5971	0.2149	0.084
Mof_C 	C 	0.5065	0.61133	0.23809	0.088
Mof_C 	C 	0.5625	0.60117	0.23942	-0.149
Mof_H 	H 	0.586	0.6102	0.2558	0.079
Mof_C 	C 	0.5863	0.57807	0.21772	0.095
Mof_H 	H 	0.6244	0.5711	0.2208	0.016
Mof_C 	C 	0.556	0.56548	0.19236	-0.167
Mof_C 	C 	0.4061	0.66897	0.28203	0.015
Mof_H 	H 	0.3677	0.6758	0.2801	0.042
Mof_C 	C 	0.429	0.64655	0.25912	-0.079
Mof_H 	H 	0.4061	0.639	0.2418	0.06
Mof_C 	C 	0.4848	0.63545	0.26183	0.011
Mof_C 	C 	0.5171	0.64745	0.28715	-0.068
Mof_H 	H 	0.5549	0.6397	0.2895	0.054
Mof_C 	C 	0.4956	0.67116	0.31013	0.015
Mof_H 	H 	0.5194	0.6797	0.3266	0.055
Mof_C 	C 	0.4396	0.68134	0.30774	-0.079
Mof_C 	C 	0.5821	0.54217	0.16779	0.449
Mof_C 	C 	0.4156	0.70553	0.33232	0.353
Mof_O 	O 	0.55246	0.02871	0.64685	-0.561
Mof_O 	O 	0.63314	0.0367	0.66831	-0.533
Mof_O 	O 	0.36175	0.20873	0.83373	-0.497
Mof_O 	O 	0.44775	0.22103	0.85078	-0.53
Mof_C 	C 	0.4983	0.07227	0.69189	0.093
Mof_H 	H 	0.4746	0.0624	0.6761	0.019
Mof_C 	C 	0.4757	0.094	0.71505	-0.15
Mof_H 	H 	0.4358	0.0971	0.7149	0.084
Mof_C 	C 	0.5065	0.11133	0.73809	0.088
Mof_C 	C 	0.5625	0.10117	0.73942	-0.148
Mof_H 	H 	0.586	0.1102	0.7558	0.079
Mof_C 	C 	0.5863	0.07807	0.71772	0.095
Mof_H 	H 	0.6244	0.0711	0.7208	0.016
Mof_C 	C 	0.556	0.06548	0.69236	-0.167
Mof_C 	C 	0.4061	0.16897	0.78203	0.015
Mof_H 	H 	0.3677	0.1758	0.7801	0.042
Mof_C 	C 	0.429	0.14655	0.75912	-0.079
Mof_H 	H 	0.4061	0.139	0.7418	0.06
Mof_C 	C 	0.4848	0.13545	0.76183	0.011
Mof_C 	C 	0.5171	0.14745	0.78715	-0.068
Mof_H 	H 	0.5549	0.1397	0.7895	0.054
Mof_C 	C 	0.4956	0.17116	0.81013	0.015
Mof_H 	H 	0.5194	0.1797	0.8266	0.055
Mof_C 	C 	0.4396	0.18134	0.80774	-0.079
Mof_C 	C 	0.5821	0.04217	0.66779	0.449
Mof_C 	C 	0.4156	0.20553	0.83232	0.353
Mof_In	In	0.875	0.24866	0.375	2.56
Mof_In	In	0.875	0.74866	0.875	2.56
Mof_In	In	0.375	0.24866	0.875	2.56
Mof_In	In	0.375	0.74866	0.375	2.56
Mof_In	In	0.125	0.49866	0.625	2.56
Mof_In	In	0.125	0.99866	0.125	2.56
Mof_In	In	0.625	0.49866	0.125	2.56
Mof_In	In	0.625	0.99866	0.625	2.56
Mof_O 	O 	0.80246	0.47129	0.39685	-0.561
Mof_O 	O 	0.88314	0.4633	0.41831	-0.533
Mof_O 	O 	0.61175	0.29127	0.58373	-0.497
Mof_O 	O 	0.69775	0.27897	0.60078	-0.53
Mof_C 	C 	0.7483	0.42773	0.44189	0.093
Mof_H 	H 	0.7246	0.4376	0.4261	0.019
Mof_C 	C 	0.7257	0.406	0.46505	-0.15
Mof_H 	H 	0.6858	0.4029	0.4649	0.084
Mof_C 	C 	0.7565	0.38867	0.48809	0.088
Mof_C 	C 	0.8125	0.39883	0.48942	-0.149
Mof_H 	H 	0.836	0.3898	0.5058	0.079
Mof_C 	C 	0.8363	0.42193	0.46772	0.095
Mof_H 	H 	0.8744	0.4289	0.4708	0.016
Mof_C 	C 	0.806	0.43452	0.44236	-0.167
Mof_C 	C 	0.6561	0.33103	0.53203	0.015
Mof_H 	H 	0.6177	0.3242	0.5301	0.042
Mof_C 	C 	0.679	0.35345	0.50912	-0.079
Mof_H 	H 	0.6561	0.361	0.4918	0.06
Mof_C 	C 	0.7348	0.36455	0.51183	0.011
Mof_C 	C 	0.7671	0.35255	0.53715	-0.068
Mof_H 	H 	0.8049	0.3603	0.5395	0.054
Mof_C 	C 	0.7456	0.32884	0.56013	0.015
Mof_H 	H 	0.7694	0.3203	0.5766	0.055
Mof_C 	C 	0.6896	0.31866	0.55774	-0.079
Mof_C 	C 	0.8321	0.45783	0.41779	0.449
Mof_C 	C 	0.6656	0.29447	0.58232	0.353
Mof_O 	O 	0.80246	0.97129	0.89685	-0.561
Mof_O 	O 	0.88314	0.9633	0.91831	-0.533
Mof_O 	O 	0.61175	0.79127	0.08373	-0.497
Mof_O 	O 	0.69775	0.77897	0.10078	-0.53
Mof_C 	C 	0.7483	0.92773	0.94189	0.093
Mof_H 	H 	0.7246	0.9376	0.9261	0.019
Mof_C 	C 	0.7257	0.906	0.96505	-0.15
Mof_H 	H 	0.6858	0.9029	0.9649	0.084
Mof_C 	C 	0.7565	0.88867	0.98809	0.088
Mof_C 	C 	0.8125	0.89883	0.98942	-0.148
Mof_H 	H 	0.836	0.8898	0.0058	0.079
Mof_C 	C 	0.8363	0.92193	0.96772	0.095
Mof_H 	H 	0.8744	0.9289	0.9708	0.016
Mof_C 	C 	0.806	0.93452	0.94236	-0.167
Mof_C 	C 	0.6561	0.83103	0.03203	0.015
Mof_H 	H 	0.6177	0.8242	0.0301	0.042
Mof_C 	C 	0.679	0.85345	0.00912	-0.079
Mof_H 	H 	0.6561	0.861	0.9918	0.06
Mof_C 	C 	0.7348	0.86455	0.01183	0.011
Mof_C 	C 	0.7671	0.85255	0.03715	-0.068
Mof_H 	H 	0.8049	0.8603	0.0395	0.054
Mof_C 	C 	0.7456	0.82884	0.06013	0.015
Mof_H 	H 	0.7694	0.8203	0.0766	0.055
Mof_C 	C 	0.6896	0.81866	0.05774	-0.079
Mof_C 	C 	0.8321	0.95783	0.91779	0.449
Mof_C 	C 	0.6656	0.79447	0.08232	0.353
Mof_O 	O 	0.30246	0.47129	0.89685	-0.561
Mof_O 	O 	0.38314	0.4633	0.91831	-0.533
Mof_O 	O 	0.11175	0.29127	0.08373	-0.497
Mof_O 	O 	0.19775	0.27897	0.10078	-0.53
Mof_C 	C 	0.2483	0.42773	0.94189	0.093
Mof_H 	H 	0.2246	0.4376	0.9261	0.019
Mof_C 	C 	0.2257	0.406	0.96505	-0.15
Mof_H 	H 	0.1858	0.4029	0.9649	0.084
Mof_C 	C 	0.2565	0.38867	0.98809	0.088
Mof_C 	C 	0.3125	0.39883	0.98942	-0.149
Mof_H 	H 	0.336	0.3898	0.0058	0.079
Mof_C 	C 	0.3363	0.42193	0.96772	0.095
Mof_H 	H 	0.3744	0.4289	0.9708	0.016
Mof_C 	C 	0.306	0.43452	0.94236	-0.167
Mof_C 	C 	0.1561	0.33103	0.03203	0.015
Mof_H 	H 	0.1177	0.3242	0.0301	0.042
Mof_C 	C 	0.179	0.35345	0.00912	-0.079
Mof_H 	H 	0.1561	0.361	0.9918	0.06
Mof_C 	C 	0.2348	0.36455	0.01183	0.011
Mof_C 	C 	0.2671	0.35255	0.03715	-0.068
Mof_H 	H 	0.3049	0.3603	0.0395	0.054
Mof_C 	C 	0.2456	0.32884	0.06013	0.015
Mof_H 	H 	0.2694	0.3203	0.0766	0.055
Mof_C 	C 	0.1896	0.31866	0.05774	-0.079
Mof_C 	C 	0.3321	0.45783	0.91779	0.449
Mof_C 	C 	0.1656	0.29447	0.08232	0.353
Mof_O 	O 	0.30246	0.97129	0.39685	-0.561
Mof_O 	O 	0.38314	0.9633	0.41831	-0.533
Mof_O 	O 	0.11175	0.79127	0.58373	-0.497
Mof_O 	O 	0.19775	0.77897	0.60078	-0.53
Mof_C 	C 	0.2483	0.92773	0.44189	0.093
Mof_H 	H 	0.2246	0.9376	0.4261	0.019
Mof_C 	C 	0.2257	0.906	0.46505	-0.15
Mof_H 	H 	0.1858	0.9029	0.4649	0.084
Mof_C 	C 	0.2565	0.88867	0.48809	0.088
Mof_C 	C 	0.3125	0.89883	0.48942	-0.148
Mof_H 	H 	0.336	0.8898	0.5058	0.079
Mof_C 	C 	0.3363	0.92193	0.46772	0.095
Mof_H 	H 	0.3744	0.9289	0.4708	0.016
Mof_C 	C 	0.306	0.93452	0.44236	-0.167
Mof_C 	C 	0.1561	0.83103	0.53203	0.015
Mof_H 	H 	0.1177	0.8242	0.5301	0.042
Mof_C 	C 	0.179	0.85345	0.50912	-0.079
Mof_H 	H 	0.1561	0.861	0.4918	0.06
Mof_C 	C 	0.2348	0.86455	0.51183	0.011
Mof_C 	C 	0.2671	0.85255	0.53715	-0.068
Mof_H 	H 	0.3049	0.8603	0.5395	0.054
Mof_C 	C 	0.2456	0.82884	0.56013	0.015
Mof_H 	H 	0.2694	0.8203	0.5766	0.055
Mof_C 	C 	0.1896	0.81866	0.55774	-0.079
Mof_C 	C 	0.3321	0.95783	0.41779	0.449
Mof_C 	C 	0.1656	0.79447	0.58232	0.353
Mof_O 	O 	0.94754	0.47129	0.35315	-0.561
Mof_O 	O 	0.86686	0.4633	0.33169	-0.533
Mof_O 	O 	0.13825	0.29127	0.16627	-0.497
Mof_O 	O 	0.05225	0.27897	0.14922	-0.53
Mof_C 	C 	0.0017	0.42773	0.30811	0.093
Mof_H 	H 	0.0254	0.4376	0.3239	0.019
Mof_C 	C 	0.0243	0.406	0.28495	-0.149
Mof_H 	H 	0.0642	0.4029	0.2851	0.084
Mof_C 	C 	0.9935	0.38867	0.26191	0.087
Mof_C 	C 	0.9375	0.39883	0.26058	-0.148
Mof_H 	H 	0.914	0.3898	0.2442	0.079
Mof_C 	C 	0.9137	0.42193	0.28228	0.094
Mof_H 	H 	0.8756	0.4289	0.2792	0.016
Mof_C 	C 	0.944	0.43452	0.30764	-0.167
Mof_C 	C 	0.0939	0.33103	0.21797	0.016
Mof_H 	H 	0.1323	0.3242	0.2199	0.042
Mof_C 	C 	0.071	0.35345	0.24088	-0.08
Mof_H 	H 	0.0939	0.361	0.2582	0.06
Mof_C 	C 	0.0152	0.36455	0.23817	0.012
Mof_C 	C 	0.9829	0.35255	0.21285	-0.068
Mof_H 	H 	0.9451	0.3603	0.2105	0.054
Mof_C 	C 	0.0044	0.32884	0.18987	0.015
Mof_H 	H 	0.9806	0.3203	0.1734	0.055
Mof_C 	C 	0.0604	0.31866	0.19226	-0.079
Mof_C 	C 	0.9179	0.45783	0.33221	0.449
Mof_C 	C 	0.0844	0.29447	0.16768	0.353
Mof_O 	O 	0.94754	0.97129	0.85315	-0.561
Mof_O 	O 	0.86686	0.9633	0.83169	-0.533
Mof_O 	O 	0.13825	0.79127	0.66627	-0.497
Mof_O 	O 	0.05225	0.77897	0.64922	-0.53
Mof_C 	C 	0.0017	0.92773	0.80811	0.093
Mof_H 	H 	0.0254	0.9376	0.8239	0.019
Mof_C 	C 	0.0243	0.906	0.78495	-0.15
Mof_H 	H 	0.0642	0.9029	0.7851	0.085
Mof_C 	C 	0.9935	0.88867	0.76191	0.089
Mof_C 	C 	0.9375	0.89883	0.76058	-0.149
Mof_H 	H 	0.914	0.8898	0.7442	0.08
Mof_C 	C 	0.9137	0.92193	0.78228	0.095
Mof_H 	H 	0.8756	0.9289	0.7792	0.016
Mof_C 	C 	0.944	0.93452	0.80764	-0.167
Mof_C 	C 	0.0939	0.83103	0.71797	0.014
Mof_H 	H 	0.1323	0.8242	0.7199	0.042
Mof_C 	C 	0.071	0.85345	0.74088	-0.078
Mof_H 	H 	0.0939	0.861	0.7582	0.059
Mof_C 	C 	0.0152	0.86455	0.73817	0.01
Mof_C 	C 	0.9829	0.85255	0.71285	-0.067
Mof_H 	H 	0.9451	0.8603	0.7105	0.053
Mof_C 	C 	0.0044	0.82884	0.68987	0.014
Mof_H 	H 	0.9806	0.8203	0.6734	0.056
Mof_C 	C 	0.0604	0.81866	0.69226	-0.078
Mof_C 	C 	0.9179	0.95783	0.83221	0.449
Mof_C 	C 	0.0844	0.79447	0.66768	0.353
Mof_O 	O 	0.44754	0.47129	0.85315	-0.561
Mof_O 	O 	0.36686	0.4633	0.83169	-0.533
Mof_O 	O 	0.63825	0.29127	0.66627	-0.497
Mof_O 	O 	0.55225	0.27897	0.64922	-0.53
Mof_C 	C 	0.5017	0.42773	0.80811	0.093
Mof_H 	H 	0.5254	0.4376	0.8239	0.019
Mof_C 	C 	0.5243	0.406	0.78495	-0.15
Mof_H 	H 	0.5642	0.4029	0.7851	0.084
Mof_C 	C 	0.4935	0.38867	0.76191	0.088
Mof_C 	C 	0.4375	0.39883	0.76058	-0.149
Mof_H 	H 	0.414	0.3898	0.7442	0.079
Mof_C 	C 	0.4137	0.42193	0.78228	0.095
Mof_H 	H 	0.3756	0.4289	0.7792	0.016
Mof_C 	C 	0.444	0.43452	0.80764	-0.167
Mof_C 	C 	0.5939	0.33103	0.71797	0.015
Mof_H 	H 	0.6323	0.3242	0.7199	0.042
Mof_C 	C 	0.571	0.35345	0.74088	-0.079
Mof_H 	H 	0.5939	0.361	0.7582	0.06
Mof_C 	C 	0.5152	0.36455	0.73817	0.011
Mof_C 	C 	0.4829	0.35255	0.71285	-0.068
Mof_H 	H 	0.4451	0.3603	0.7105	0.054
Mof_C 	C 	0.5044	0.32884	0.68987	0.015
Mof_H 	H 	0.4806	0.3203	0.6734	0.055
Mof_C 	C 	0.5604	0.31866	0.69226	-0.079
Mof_C 	C 	0.4179	0.45783	0.83221	0.449
Mof_C 	C 	0.5844	0.29447	0.66768	0.353
Mof_O 	O 	0.44754	0.97129	0.35315	-0.561
Mof_O 	O 	0.36686	0.9633	0.33169	-0.533
Mof_O 	O 	0.63825	0.79127	0.16627	-0.497
Mof_O 	O 	0.55225	0.77897	0.14922	-0.53
Mof_C 	C 	0.5017	0.92773	0.30811	0.093
Mof_H 	H 	0.5254	0.9376	0.3239	0.019
Mof_C 	C 	0.5243	0.906	0.28495	-0.15
Mof_H 	H 	0.5642	0.9029	0.2851	0.084
Mof_C 	C 	0.4935	0.88867	0.26191	0.088
Mof_C 	C 	0.4375	0.89883	0.26058	-0.148
Mof_H 	H 	0.414	0.8898	0.2442	0.079
Mof_C 	C 	0.4137	0.92193	0.28228	0.095
Mof_H 	H 	0.3756	0.9289	0.2792	0.016
Mof_C 	C 	0.444	0.93452	0.30764	-0.167
Mof_C 	C 	0.5939	0.83103	0.21797	0.015
Mof_H 	H 	0.6323	0.8242	0.2199	0.042
Mof_C 	C 	0.571	0.85345	0.24088	-0.079
Mof_H 	H 	0.5939	0.861	0.2582	0.06
Mof_C 	C 	0.5152	0.86455	0.23817	0.011
Mof_C 	C 	0.4829	0.85255	0.21285	-0.068
Mof_H 	H 	0.4451	0.8603	0.2105	0.054
Mof_C 	C 	0.5044	0.82884	0.18987	0.015
Mof_H 	H 	0.4806	0.8203	0.1734	0.055
Mof_C 	C 	0.5604	0.81866	0.19226	-0.079
Mof_C 	C 	0.4179	0.95783	0.33221	0.449
Mof_C 	C 	0.5844	0.79447	0.16768	0.353
Mof_O 	O 	0.05246	0.72129	0.60315	-0.561
Mof_O 	O 	0.13314	0.7133	0.58169	-0.533
Mof_O 	O 	0.86175	0.54127	0.41627	-0.497
Mof_O 	O 	0.94775	0.52897	0.39922	-0.53
Mof_C 	C 	0.9983	0.67773	0.55811	0.093
Mof_H 	H 	0.9746	0.6876	0.5739	0.019
Mof_C 	C 	0.9757	0.656	0.53495	-0.149
Mof_H 	H 	0.9358	0.6529	0.5351	0.084
Mof_C 	C 	0.0065	0.63867	0.51191	0.088
Mof_C 	C 	0.0625	0.64883	0.51058	-0.148
Mof_H 	H 	0.086	0.6398	0.4942	0.079
Mof_C 	C 	0.0863	0.67193	0.53228	0.095
Mof_H 	H 	0.1244	0.6789	0.5292	0.016
Mof_C 	C 	0.056	0.68452	0.55764	-0.167
Mof_C 	C 	0.9061	0.58103	0.46797	0.015
Mof_H 	H 	0.8677	0.5742	0.4699	0.042
Mof_C 	C 	0.929	0.60345	0.49088	-0.08
Mof_H 	H 	0.9061	0.611	0.5082	0.06
Mof_C 	C 	0.9848	0.61455	0.48817	0.012
Mof_C 	C 	0.0171	0.60255	0.46285	-0.068
Mof_H 	H 	0.0549	0.6103	0.4605	0.054
Mof_C 	C 	0.9956	0.57884	0.43987	0.015
Mof_H 	H 	0.0194	0.5703	0.4234	0.055
Mof_C 	C 	0.9396	0.56866	0.44226	-0.079
Mof_C 	C 	0.0821	0.70783	0.58221	0.449
Mof_C 	C 	0.9156	0.54447	0.41768	0.353
Mof_O 	O 	0.05246	0.22129	0.10315	-0.561
Mof_O 	O 	0.13314	0.2133	0.08169	-0.533
Mof_O 	O 	0.86175	0.04127	0.91627	-0.497
Mof_O 	O 	0.94775	0.02897	0.89922	-0.53
Mof_C 	C 	0.9983	0.17773	0.05811	0.093
Mof_H 	H 	0.9746	0.1876	0.0739	0.019
Mof_C 	C 	0.9757	0.156	0.03495	-0.15
Mof_H 	H 	0.9358	0.1529	0.0351	0.085
Mof_C 	C 	0.0065	0.13867	0.01191	0.089
Mof_C 	C 	0.0625	0.14883	0.01058	-0.149
Mof_H 	H 	0.086	0.1398	0.9942	0.08
Mof_C 	C 	0.0863	0.17193	0.03228	0.095
Mof_H 	H 	0.1244	0.1789	0.0292	0.016
Mof_C 	C 	0.056	0.18452	0.05764	-0.167
Mof_C 	C 	0.9061	0.08103	0.96797	0.014
Mof_H 	H 	0.8677	0.0742	0.9699	0.042
Mof_C 	C 	0.929	0.10345	0.99088	-0.078
Mof_H 	H 	0.9061	0.111	0.0082	0.059
Mof_C 	C 	0.9848	0.11455	0.98817	0.01
Mof_C 	C 	0.0171	0.10255	0.96285	-0.066
Mof_H 	H 	0.0549	0.1103	0.9605	0.053
Mof_C 	C 	0.9956	0.07884	0.93987	0.013
Mof_H 	H 	0.0194	0.0703	0.9234	0.056
Mof_C 	C 	0.9396	0.06866	0.94226	-0.078
Mof_C 	C 	0.0821	0.20783	0.08221	0.449
Mof_C 	C 	0.9156	0.04447	0.91768	0.353
Mof_O 	O 	0.55246	0.72129	0.10315	-0.561
Mof_O 	O 	0.63314	0.7133	0.08169	-0.533
Mof_O 	O 	0.36175	0.54127	0.91627	-0.497
Mof_O 	O 	0.44775	0.52897	0.89922	-0.53
Mof_C 	C 	0.4983	0.67773	0.05811	0.093
Mof_H 	H 	0.4746	0.6876	0.0739	0.019
Mof_C 	C 	0.4757	0.656	0.03495	-0.15
Mof_H 	H 	0.4358	0.6529	0.0351	0.084
Mof_C 	C 	0.5065	0.63867	0.01191	0.088
Mof_C 	C 	0.5625	0.64883	0.01058	-0.149
Mof_H 	H 	0.586	0.6398	0.9942	0.079
Mof_C 	C 	0.5863	0.67193	0.03228	0.095
Mof_H 	H 	0.6244	0.6789	0.0292	0.016
Mof_C 	C 	0.556	0.68452	0.05764	-0.167
Mof_C 	C 	0.4061	0.58103	0.96797	0.015
Mof_H 	H 	0.3677	0.5742	0.9699	0.042
Mof_C 	C 	0.429	0.60345	0.99088	-0.079
Mof_H 	H 	0.4061	0.611	0.0082	0.06
Mof_C 	C 	0.4848	0.61455	0.98817	0.011
Mof_C 	C 	0.5171	0.60255	0.96285	-0.068
Mof_H 	H 	0.5549	0.6103	0.9605	0.054
Mof_C 	C 	0.4956	0.57884	0.93987	0.015
Mof_H 	H 	0.5194	0.5703	0.9234	0.055
Mof_C 	C 	0.4396	0.56866	0.94226	-0.079
Mof_C 	C 	0.5821	0.70783	0.08221	0.449
Mof_C 	C 	0.4156	0.54447	0.91768	0.353
Mof_O 	O 	0.55246	0.22129	0.60315	-0.561
Mof_O 	O 	0.63314	0.2133	0.58169	-0.533
Mof_O 	O 	0.36175	0.04127	0.41627	-0.497
Mof_O 	O 	0.44775	0.02897	0.39922	-0.53
Mof_C 	C 	0.4983	0.17773	0.55811	0.093
Mof_H 	H 	0.4746	0.1876	0.5739	0.019
Mof_C 	C 	0.4757	0.156	0.53495	-0.15
Mof_H 	H 	0.4358	0.1529	0.5351	0.084
Mof_C 	C 	0.5065	0.13867	0.51191	0.088
Mof_C 	C 	0.5625	0.14883	0.51058	-0.149
Mof_H 	H 	0.586	0.1398	0.4942	0.079
Mof_C 	C 	0.5863	0.17193	0.53228	0.095
Mof_H 	H 	0.6244	0.1789	0.5292	0.016
Mof_C 	C 	0.556	0.18452	0.55764	-0.167
Mof_C 	C 	0.4061	0.08103	0.46797	0.015
Mof_H 	H 	0.3677	0.0742	0.4699	0.042
Mof_C 	C 	0.429	0.10345	0.49088	-0.079
Mof_H 	H 	0.4061	0.111	0.5082	0.06
Mof_C 	C 	0.4848	0.11455	0.48817	0.011
Mof_C 	C 	0.5171	0.10255	0.46285	-0.068
Mof_H 	H 	0.5549	0.1103	0.4605	0.054
Mof_C 	C 	0.4956	0.07884	0.43987	0.015
Mof_H 	H 	0.5194	0.0703	0.4234	0.055
Mof_C 	C 	0.4396	0.06866	0.44226	-0.079
Mof_C 	C 	0.5821	0.20783	0.58221	0.449
Mof_C 	C 	0.4156	0.04447	0.41768	0.353
Mof_O 	O 	0.19754	0.72129	0.64685	-0.561
Mof_O 	O 	0.11686	0.7133	0.66831	-0.533
Mof_O 	O 	0.38825	0.54127	0.83373	-0.497
Mof_O 	O 	0.30225	0.52897	0.85078	-0.53
Mof_C 	C 	0.2517	0.67773	0.69189	0.093
Mof_H 	H 	0.2754	0.6876	0.6761	0.019
Mof_C 	C 	0.2743	0.656	0.71505	-0.15
Mof_H 	H 	0.3142	0.6529	0.7149	0.084
Mof_C 	C 	0.2435	0.63867	0.73809	0.088
Mof_C 	C 	0.1875	0.64883	0.73942	-0.149
Mof_H 	H 	0.164	0.6398	0.7558	0.079
Mof_C 	C 	0.1637	0.67193	0.71772	0.095
Mof_H 	H 	0.1256	0.6789	0.7208	0.016
Mof_C 	C 	0.194	0.68452	0.69236	-0.167
Mof_C 	C 	0.3439	0.58103	0.78203	0.015
Mof_H 	H 	0.3823	0.5742	0.7801	0.042
Mof_C 	C 	0.321	0.60345	0.75912	-0.079
Mof_H 	H 	0.3439	0.611	0.7418	0.06
Mof_C 	C 	0.2652	0.61455	0.76183	0.011
Mof_C 	C 	0.2329	0.60255	0.78715	-0.068
Mof_H 	H 	0.1951	0.6103	0.7895	0.054
Mof_C 	C 	0.2544	0.57884	0.81013	0.015
Mof_H 	H 	0.2306	0.5703	0.8266	0.055
Mof_C 	C 	0.3104	0.56866	0.80774	-0.079
Mof_C 	C 	0.1679	0.70783	0.66779	0.449
Mof_C 	C 	0.3344	0.54447	0.83232	0.353
Mof_O 	O 	0.19754	0.22129	0.14685	-0.561
Mof_O 	O 	0.11686	0.2133	0.16831	-0.533
Mof_O 	O 	0.38825	0.04127	0.33373	-0.497
Mof_O 	O 	0.30225	0.02897	0.35078	-0.53
Mof_C 	C 	0.2517	0.17773	0.19189	0.093
Mof_H 	H 	0.2754	0.1876	0.1761	0.019
Mof_C 	C 	0.2743	0.156	0.21505	-0.15
Mof_H 	H 	0.3142	0.1529	0.2149	0.084
Mof_C 	C 	0.2435	0.13867	0.23809	0.088
Mof_C 	C 	0.1875	0.14883	0.23942	-0.149
Mof_H 	H 	0.164	0.1398	0.2558	0.079
Mof_C 	C 	0.1637	0.17193	0.21772	0.095
Mof_H 	H 	0.1256	0.1789	0.2208	0.016
Mof_C 	C 	0.194	0.18452	0.19236	-0.167
Mof_C 	C 	0.3439	0.08103	0.28203	0.015
Mof_H 	H 	0.3823	0.0742	0.2801	0.042
Mof_C 	C 	0.321	0.10345	0.25912	-0.079
Mof_H 	H 	0.3439	0.111	0.2418	0.06
Mof_C 	C 	0.2652	0.11455	0.26183	0.011
Mof_C 	C 	0.2329	0.10255	0.28715	-0.068
Mof_H 	H 	0.1951	0.1103	0.2895	0.054
Mof_C 	C 	0.2544	0.07884	0.31013	0.015
Mof_H 	H 	0.2306	0.0703	0.3266	0.055
Mof_C 	C 	0.3104	0.06866	0.30774	-0.079
Mof_C 	C 	0.1679	0.20783	0.16779	0.449
Mof_C 	C 	0.3344	0.04447	0.33232	0.353
Mof_O 	O 	0.69754	0.72129	0.14685	-0.561
Mof_O 	O 	0.61686	0.7133	0.16831	-0.533
Mof_O 	O 	0.88825	0.54127	0.33373	-0.497
Mof_O 	O 	0.80225	0.52897	0.35078	-0.53
Mof_C 	C 	0.7517	0.67773	0.19189	0.093
Mof_H 	H 	0.7754	0.6876	0.1761	0.019
Mof_C 	C 	0.7743	0.656	0.21505	-0.15
Mof_H 	H 	0.8142	0.6529	0.2149	0.084
Mof_C 	C 	0.7435	0.63867	0.23809	0.088
Mof_C 	C 	0.6875	0.64883	0.23942	-0.148
Mof_H 	H 	0.664	0.6398	0.2558	0.079
Mof_C 	C 	0.6637	0.67193	0.21772	0.095
Mof_H 	H 	0.6256	0.6789	0.2208	0.016
Mof_C 	C 	0.694	0.68452	0.19236	-0.167
Mof_C 	C 	0.8439	0.58103	0.28203	0.015
Mof_H 	H 	0.8823	0.5742	0.2801	0.042
Mof_C 	C 	0.821	0.60345	0.25912	-0.079
Mof_H 	H 	0.8439	0.611	0.2418	0.06
Mof_C 	C 	0.7652	0.61455	0.26183	0.011
Mof_C 	C 	0.7329	0.60255	0.28715	-0.068
Mof_H 	H 	0.6951	0.6103	0.2895	0.054
Mof_C 	C 	0.7544	0.57884	0.31013	0.015
Mof_H 	H 	0.7306	0.5703	0.3266	0.055
Mof_C 	C 	0.8104	0.56866	0.30774	-0.079
Mof_C 	C 	0.6679	0.70783	0.16779	0.449
Mof_C 	C 	0.8344	0.54447	0.33232	0.353
Mof_O 	O 	0.69754	0.22129	0.64685	-0.561
Mof_O 	O 	0.61686	0.2133	0.66831	-0.533
Mof_O 	O 	0.88825	0.04127	0.83373	-0.497
Mof_O 	O 	0.80225	0.02897	0.85078	-0.53
Mof_C 	C 	0.7517	0.17773	0.69189	0.093
Mof_H 	H 	0.7754	0.1876	0.6761	0.019
Mof_C 	C 	0.7743	0.156	0.71505	-0.15
Mof_H 	H 	0.8142	0.1529	0.7149	0.084
Mof_C 	C 	0.7435	0.13867	0.73809	0.088
Mof_C 	C 	0.6875	0.14883	0.73942	-0.148
Mof_H 	H 	0.664	0.1398	0.7558	0.079
Mof_C 	C 	0.6637	0.17193	0.71772	0.095
Mof_H 	H 	0.6256	0.1789	0.7208	0.016
Mof_C 	C 	0.694	0.18452	0.69236	-0.167
Mof_C 	C 	0.8439	0.08103	0.78203	0.015
Mof_H 	H 	0.8823	0.0742	0.7801	0.042
Mof_C 	C 	0.821	0.10345	0.75912	-0.079
Mof_H 	H 	0.8439	0.111	0.7418	0.06
Mof_C 	C 	0.7652	0.11455	0.76183	0.011
Mof_C 	C 	0.7329	0.10255	0.78715	-0.068
Mof_H 	H 	0.6951	0.1103	0.7895	0.054
Mof_C 	C 	0.7544	0.07884	0.81013	0.015
Mof_H 	H 	0.7306	0.0703	0.8266	0.055
Mof_C 	C 	0.8104	0.06866	0.80774	-0.079
Mof_C 	C 	0.6679	0.20783	0.66779	0.449
Mof_C 	C 	0.8344	0.04447	0.83232	0.353
Mof_In	In	0.875	0.50134	0.375	2.56
Mof_In	In	0.875	0.00134	0.875	2.56
Mof_In	In	0.375	0.50134	0.875	2.56
Mof_In	In	0.375	0.00134	0.375	2.56
Mof_In	In	0.125	0.75134	0.625	2.56
Mof_In	In	0.125	0.25134	0.125	2.56
Mof_In	In	0.625	0.75134	0.125	2.56
Mof_In	In	0.625	0.25134	0.625	2.56
Mof_O 	O 	0.12597	0.66489	0.40196	-0.531
Mof_O 	O 	0.04151	0.64771	0.38586	-0.487
Mof_O 	O 	0.85289	0.83597	0.56901	-0.474
Mof_O 	O 	0.93868	0.84323	0.58744	-0.54
Mof_C 	C 	0.0788	0.71319	0.44436	0.036
Mof_H 	H 	0.1186	0.7138	0.4409	0.038
Mof_C 	C 	0.0536	0.73519	0.46641	-0.108
Mof_H 	H 	0.0768	0.7507	0.4774	0.072
Mof_C 	C 	0.9949	0.73491	0.47274	0.049
Mof_C 	C 	0.9619	0.71128	0.45602	-0.111
Mof_H 	H 	0.9224	0.7097	0.46	0.073
Mof_C 	C 	0.9873	0.69034	0.43365	0.04
Mof_H 	H 	0.9639	0.6753	0.422	0.038
Mof_C 	C 	0.0451	0.69021	0.42739	-0.099
Mof_C 	C 	0.8909	0.79221	0.51843	0.032
Mof_H 	H 	0.8527	0.7992	0.5169	0.036
Mof_C 	C 	0.9147	0.76993	0.49554	-0.1
Mof_H 	H 	0.8915	0.7622	0.4784	0.068
Mof_C 	C 	0.971	0.75881	0.49704	0.038
Mof_C 	C 	0.0047	0.77049	0.5232	-0.098
Mof_H 	H 	0.0426	0.763	0.5254	0.07
Mof_C 	C 	0.9823	0.79327	0.54606	0.041
Mof_H 	H 	0.0057	0.8014	0.5629	0.049
Mof_C 	C 	0.9268	0.80367	0.5439	-0.106
Mof_C 	C 	0.0714	0.66596	0.40346	0.344
Mof_C 	C 	0.9035	0.82872	0.56738	0.373
Mof_O 	O 	0.12597	0.16489	0.90196	-0.531
Mof_O 	O 	0.04151	0.14771	0.88586	-0.487
Mof_O 	O 	0.85289	0.33597	0.06901	-0.474
Mof_O 	O 	0.93868	0.34323	0.08744	-0.54
Mof_C 	C 	0.0788	0.21319	0.94436	0.035
Mof_H 	H 	0.1186	0.2138	0.9409	0.038
Mof_C 	C 	0.0536	0.23519	0.96641	-0.108
Mof_H 	H 	0.0768	0.2507	0.9774	0.072
Mof_C 	C 	0.9949	0.23491	0.97274	0.049
Mof_C 	C 	0.9619	0.21128	0.95602	-0.111
Mof_H 	H 	0.9224	0.2097	0.96	0.073
Mof_C 	C 	0.9873	0.19034	0.93365	0.039
Mof_H 	H 	0.9639	0.1753	0.922	0.038
Mof_C 	C 	0.0451	0.19021	0.92739	-0.098
Mof_C 	C 	0.8909	0.29221	0.01843	0.031
Mof_H 	H 	0.8527	0.2992	0.0169	0.036
Mof_C 	C 	0.9147	0.26993	0.99554	-0.1
Mof_H 	H 	0.8915	0.2622	0.9784	0.068
Mof_C 	C 	0.971	0.25881	0.99704	0.038
Mof_C 	C 	0.0047	0.27049	0.0232	-0.097
Mof_H 	H 	0.0426	0.263	0.0254	0.069
Mof_C 	C 	0.9823	0.29327	0.04606	0.04
Mof_H 	H 	0.0057	0.3014	0.0629	0.049
Mof_C 	C 	0.9268	0.30367	0.0439	-0.105
Mof_C 	C 	0.0714	0.16596	0.90346	0.344
Mof_C 	C 	0.9035	0.32872	0.06738	0.372
Mof_O 	O 	0.62597	0.66489	0.90196	-0.531
Mof_O 	O 	0.54151	0.64771	0.88586	-0.487
Mof_O 	O 	0.35289	0.83597	0.06901	-0.474
Mof_O 	O 	0.43868	0.84323	0.08744	-0.54
Mof_C 	C 	0.5788	0.71319	0.94436	0.036
Mof_H 	H 	0.6186	0.7138	0.9409	0.038
Mof_C 	C 	0.5536	0.73519	0.96641	-0.108
Mof_H 	H 	0.5768	0.7507	0.9774	0.072
Mof_C 	C 	0.4949	0.73491	0.97274	0.049
Mof_C 	C 	0.4619	0.71128	0.95602	-0.111
Mof_H 	H 	0.4224	0.7097	0.96	0.073
Mof_C 	C 	0.4873	0.69034	0.93365	0.04
Mof_H 	H 	0.4639	0.6753	0.922	0.038
Mof_C 	C 	0.5451	0.69021	0.92739	-0.099
Mof_C 	C 	0.3909	0.79221	0.01843	0.032
Mof_H 	H 	0.3527	0.7992	0.0169	0.036
Mof_C 	C 	0.4147	0.76993	0.99554	-0.1
Mof_H 	H 	0.3915	0.7622	0.9784	0.068
Mof_C 	C 	0.471	0.75881	0.99704	0.038
Mof_C 	C 	0.5047	0.77049	0.0232	-0.098
Mof_H 	H 	0.5426	0.763	0.0254	0.069
Mof_C 	C 	0.4823	0.79327	0.04606	0.04
Mof_H 	H 	0.5057	0.8014	0.0629	0.049
Mof_C 	C 	0.4268	0.80367	0.0439	-0.106
Mof_C 	C 	0.5714	0.66596	0.90346	0.344
Mof_C 	C 	0.4035	0.82872	0.06738	0.372
Mof_O 	O 	0.62597	0.16489	0.40196	-0.531
Mof_O 	O 	0.54151	0.14771	0.38586	-0.487
Mof_O 	O 	0.35289	0.33597	0.56901	-0.474
Mof_O 	O 	0.43868	0.34323	0.58744	-0.54
Mof_C 	C 	0.5788	0.21319	0.44436	0.036
Mof_H 	H 	0.6186	0.2138	0.4409	0.038
Mof_C 	C 	0.5536	0.23519	0.46641	-0.108
Mof_H 	H 	0.5768	0.2507	0.4774	0.072
Mof_C 	C 	0.4949	0.23491	0.47274	0.049
Mof_C 	C 	0.4619	0.21128	0.45602	-0.111
Mof_H 	H 	0.4224	0.2097	0.46	0.073
Mof_C 	C 	0.4873	0.19034	0.43365	0.04
Mof_H 	H 	0.4639	0.1753	0.422	0.038
Mof_C 	C 	0.5451	0.19021	0.42739	-0.099
Mof_C 	C 	0.3909	0.29221	0.51843	0.032
Mof_H 	H 	0.3527	0.2992	0.5169	0.036
Mof_C 	C 	0.4147	0.26993	0.49554	-0.1
Mof_H 	H 	0.3915	0.2622	0.4784	0.068
Mof_C 	C 	0.471	0.25881	0.49704	0.038
Mof_C 	C 	0.5047	0.27049	0.5232	-0.098
Mof_H 	H 	0.5426	0.263	0.5254	0.069
Mof_C 	C 	0.4823	0.29327	0.54606	0.04
Mof_H 	H 	0.5057	0.3014	0.5629	0.049
Mof_C 	C 	0.4268	0.30367	0.5439	-0.106
Mof_C 	C 	0.5714	0.16596	0.40346	0.344
Mof_C 	C 	0.4035	0.32872	0.56738	0.372
Mof_O 	O 	0.62403	0.08511	0.40196	-0.531
Mof_O 	O 	0.70849	0.10229	0.38586	-0.487
Mof_O 	O 	0.89711	0.91403	0.56901	-0.474
Mof_O 	O 	0.81132	0.90677	0.58744	-0.54
Mof_C 	C 	0.6712	0.03681	0.44436	0.036
Mof_H 	H 	0.6314	0.0362	0.4409	0.038
Mof_C 	C 	0.6964	0.01481	0.46641	-0.108
Mof_H 	H 	0.6732	0.9993	0.4774	0.072
Mof_C 	C 	0.7551	0.01509	0.47274	0.049
Mof_C 	C 	0.7881	0.03872	0.45602	-0.111
Mof_H 	H 	0.8276	0.0403	0.46	0.073
Mof_C 	C 	0.7627	0.05966	0.43365	0.04
Mof_H 	H 	0.7861	0.0747	0.422	0.038
Mof_C 	C 	0.7049	0.05979	0.42739	-0.099
Mof_C 	C 	0.8591	0.95779	0.51843	0.032
Mof_H 	H 	0.8973	0.9508	0.5169	0.036
Mof_C 	C 	0.8353	0.98007	0.49554	-0.1
Mof_H 	H 	0.8585	0.9878	0.4784	0.068
Mof_C 	C 	0.779	0.99119	0.49704	0.038
Mof_C 	C 	0.7453	0.97951	0.5232	-0.098
Mof_H 	H 	0.7074	0.987	0.5254	0.069
Mof_C 	C 	0.7677	0.95673	0.54606	0.04
Mof_H 	H 	0.7443	0.9486	0.5629	0.049
Mof_C 	C 	0.8232	0.94633	0.5439	-0.106
Mof_C 	C 	0.6786	0.08404	0.40346	0.344
Mof_C 	C 	0.8465	0.92128	0.56738	0.373
Mof_O 	O 	0.62403	0.58511	0.90196	-0.531
Mof_O 	O 	0.70849	0.60229	0.88586	-0.487
Mof_O 	O 	0.89711	0.41403	0.06901	-0.474
Mof_O 	O 	0.81132	0.40677	0.08744	-0.54
Mof_C 	C 	0.6712	0.53681	0.94436	0.036
Mof_H 	H 	0.6314	0.5362	0.9409	0.038
Mof_C 	C 	0.6964	0.51481	0.96641	-0.108
Mof_H 	H 	0.6732	0.4993	0.9774	0.072
Mof_C 	C 	0.7551	0.51509	0.97274	0.049
Mof_C 	C 	0.7881	0.53872	0.95602	-0.111
Mof_H 	H 	0.8276	0.5403	0.96	0.073
Mof_C 	C 	0.7627	0.55966	0.93365	0.04
Mof_H 	H 	0.7861	0.5747	0.922	0.038
Mof_C 	C 	0.7049	0.55979	0.92739	-0.099
Mof_C 	C 	0.8591	0.45779	0.01843	0.032
Mof_H 	H 	0.8973	0.4508	0.0169	0.036
Mof_C 	C 	0.8353	0.48007	0.99554	-0.1
Mof_H 	H 	0.8585	0.4878	0.9784	0.068
Mof_C 	C 	0.779	0.49119	0.99704	0.038
Mof_C 	C 	0.7453	0.47951	0.0232	-0.098
Mof_H 	H 	0.7074	0.487	0.0254	0.069
Mof_C 	C 	0.7677	0.45673	0.04606	0.04
Mof_H 	H 	0.7443	0.4486	0.0629	0.049
Mof_C 	C 	0.8232	0.44633	0.0439	-0.106
Mof_C 	C 	0.6786	0.58404	0.90346	0.344
Mof_C 	C 	0.8465	0.42128	0.06738	0.372
Mof_O 	O 	0.12403	0.08511	0.90196	-0.531
Mof_O 	O 	0.20849	0.10229	0.88586	-0.487
Mof_O 	O 	0.39711	0.91403	0.06901	-0.474
Mof_O 	O 	0.31132	0.90677	0.08744	-0.54
Mof_C 	C 	0.1712	0.03681	0.94436	0.036
Mof_H 	H 	0.1314	0.0362	0.9409	0.038
Mof_C 	C 	0.1964	0.01481	0.96641	-0.108
Mof_H 	H 	0.1732	0.9993	0.9774	0.072
Mof_C 	C 	0.2551	0.01509	0.97274	0.049
Mof_C 	C 	0.2881	0.03872	0.95602	-0.111
Mof_H 	H 	0.3276	0.0403	0.96	0.073
Mof_C 	C 	0.2627	0.05966	0.93365	0.04
Mof_H 	H 	0.2861	0.0747	0.922	0.038
Mof_C 	C 	0.2049	0.05979	0.92739	-0.099
Mof_C 	C 	0.3591	0.95779	0.01843	0.032
Mof_H 	H 	0.3973	0.9508	0.0169	0.036
Mof_C 	C 	0.3353	0.98007	0.99554	-0.1
Mof_H 	H 	0.3585	0.9878	0.9784	0.068
Mof_C 	C 	0.279	0.99119	0.99704	0.038
Mof_C 	C 	0.2453	0.97951	0.0232	-0.098
Mof_H 	H 	0.2074	0.987	0.0254	0.069
Mof_C 	C 	0.2677	0.95673	0.04606	0.04
Mof_H 	H 	0.2443	0.9486	0.0629	0.049
Mof_C 	C 	0.3232	0.94633	0.0439	-0.106
Mof_C 	C 	0.1786	0.08404	0.90346	0.344
Mof_C 	C 	0.3465	0.92128	0.06738	0.372
Mof_O 	O 	0.12403	0.58511	0.40196	-0.531
Mof_O 	O 	0.20849	0.60229	0.38586	-0.487
Mof_O 	O 	0.39711	0.41403	0.56901	-0.474
Mof_O 	O 	0.31132	0.40677	0.58744	-0.54
Mof_C 	C 	0.1712	0.53681	0.44436	0.036
Mof_H 	H 	0.1314	0.5362	0.4409	0.038
Mof_C 	C 	0.1964	0.51481	0.46641	-0.108
Mof_H 	H 	0.1732	0.4993	0.4774	0.072
Mof_C 	C 	0.2551	0.51509	0.47274	0.049
Mof_C 	C 	0.2881	0.53872	0.45602	-0.111
Mof_H 	H 	0.3276	0.5403	0.46	0.073
Mof_C 	C 	0.2627	0.55966	0.43365	0.04
Mof_H 	H 	0.2861	0.5747	0.422	0.038
Mof_C 	C 	0.2049	0.55979	0.42739	-0.099
Mof_C 	C 	0.3591	0.45779	0.51843	0.032
Mof_H 	H 	0.3973	0.4508	0.5169	0.036
Mof_C 	C 	0.3353	0.48007	0.49554	-0.1
Mof_H 	H 	0.3585	0.4878	0.4784	0.068
Mof_C 	C 	0.279	0.49119	0.49704	0.038
Mof_C 	C 	0.2453	0.47951	0.5232	-0.098
Mof_H 	H 	0.2074	0.487	0.5254	0.069
Mof_C 	C 	0.2677	0.45673	0.54606	0.04
Mof_H 	H 	0.2443	0.4486	0.5629	0.049
Mof_C 	C 	0.3232	0.44633	0.5439	-0.106
Mof_C 	C 	0.1786	0.58404	0.40346	0.344
Mof_C 	C 	0.3465	0.42128	0.56738	0.372
Mof_O 	O 	0.37597	0.33511	0.65196	-0.531
Mof_O 	O 	0.29151	0.35229	0.63586	-0.487
Mof_O 	O 	0.10289	0.16403	0.81901	-0.474
Mof_O 	O 	0.18868	0.15677	0.83744	-0.54
Mof_C 	C 	0.3288	0.28681	0.69436	0.036
Mof_H 	H 	0.3686	0.2862	0.6909	0.038
Mof_C 	C 	0.3036	0.26481	0.71641	-0.108
Mof_H 	H 	0.3268	0.2493	0.7274	0.072
Mof_C 	C 	0.2449	0.26509	0.72274	0.049
Mof_C 	C 	0.2119	0.28872	0.70602	-0.111
Mof_H 	H 	0.1724	0.2903	0.71	0.073
Mof_C 	C 	0.2373	0.30966	0.68365	0.04
Mof_H 	H 	0.2139	0.3247	0.672	0.038
Mof_C 	C 	0.2951	0.30979	0.67739	-0.099
Mof_C 	C 	0.1409	0.20779	0.76843	0.032
Mof_H 	H 	0.1027	0.2008	0.7669	0.036
Mof_C 	C 	0.1647	0.23007	0.74554	-0.1
Mof_H 	H 	0.1415	0.2378	0.7284	0.068
Mof_C 	C 	0.221	0.24119	0.74704	0.038
Mof_C 	C 	0.2547	0.22951	0.7732	-0.098
Mof_H 	H 	0.2926	0.237	0.7754	0.069
Mof_C 	C 	0.2323	0.20673	0.79606	0.04
Mof_H 	H 	0.2557	0.1986	0.8129	0.049
Mof_C 	C 	0.1768	0.19633	0.7939	-0.106
Mof_C 	C 	0.3214	0.33404	0.65346	0.344
Mof_C 	C 	0.1535	0.17128	0.81738	0.372
Mof_O 	O 	0.37597	0.83511	0.15196	-0.531
Mof_O 	O 	0.29151	0.85229	0.13586	-0.487
Mof_O 	O 	0.10289	0.66403	0.31901	-0.474
Mof_O 	O 	0.18868	0.65677	0.33744	-0.54
Mof_C 	C 	0.3288	0.78681	0.19436	0.036
Mof_H 	H 	0.3686	0.7862	0.1909	0.038
Mof_C 	C 	0.3036	0.76481	0.21641	-0.108
Mof_H 	H 	0.3268	0.7493	0.2274	0.072
Mof_C 	C 	0.2449	0.76509	0.22274	0.049
Mof_C 	C 	0.2119	0.78872	0.20602	-0.111
Mof_H 	H 	0.1724	0.7903	0.21	0.073
Mof_C 	C 	0.2373	0.80966	0.18365	0.04
Mof_H 	H 	0.2139	0.8247	0.172	0.038
Mof_C 	C 	0.2951	0.80979	0.17739	-0.099
Mof_C 	C 	0.1409	0.70779	0.26843	0.032
Mof_H 	H 	0.1027	0.7008	0.2669	0.036
Mof_C 	C 	0.1647	0.73007	0.24554	-0.1
Mof_H 	H 	0.1415	0.7378	0.2284	0.068
Mof_C 	C 	0.221	0.74119	0.24704	0.038
Mof_C 	C 	0.2547	0.72951	0.2732	-0.098
Mof_H 	H 	0.2926	0.737	0.2754	0.069
Mof_C 	C 	0.2323	0.70673	0.29606	0.04
Mof_H 	H 	0.2557	0.6986	0.3129	0.049
Mof_C 	C 	0.1768	0.69633	0.2939	-0.106
Mof_C 	C 	0.3214	0.83404	0.15346	0.344
Mof_C 	C 	0.1535	0.67128	0.31738	0.372
Mof_O 	O 	0.87597	0.33511	0.15196	-0.531
Mof_O 	O 	0.79151	0.35229	0.13586	-0.487
Mof_O 	O 	0.60289	0.16403	0.31901	-0.474
Mof_O 	O 	0.68868	0.15677	0.33744	-0.54
Mof_C 	C 	0.8288	0.28681	0.19436	0.036
Mof_H 	H 	0.8686	0.2862	0.1909	0.038
Mof_C 	C 	0.8036	0.26481	0.21641	-0.108
Mof_H 	H 	0.8268	0.2493	0.2274	0.072
Mof_C 	C 	0.7449	0.26509	0.22274	0.049
Mof_C 	C 	0.7119	0.28872	0.20602	-0.111
Mof_H 	H 	0.6724	0.2903	0.21	0.073
Mof_C 	C 	0.7373	0.30966	0.18365	0.04
Mof_H 	H 	0.7139	0.3247	0.172	0.038
Mof_C 	C 	0.7951	0.30979	0.17739	-0.099
Mof_C 	C 	0.6409	0.20779	0.26843	0.032
Mof_H 	H 	0.6027	0.2008	0.2669	0.036
Mof_C 	C 	0.6647	0.23007	0.24554	-0.1
Mof_H 	H 	0.6415	0.2378	0.2284	0.068
Mof_C 	C 	0.721	0.24119	0.24704	0.038
Mof_C 	C 	0.7547	0.22951	0.2732	-0.098
Mof_H 	H 	0.7926	0.237	0.2754	0.069
Mof_C 	C 	0.7323	0.20673	0.29606	0.04
Mof_H 	H 	0.7557	0.1986	0.3129	0.049
Mof_C 	C 	0.6768	0.19633	0.2939	-0.106
Mof_C 	C 	0.8214	0.33404	0.15346	0.344
Mof_C 	C 	0.6535	0.17128	0.31738	0.372
Mof_O 	O 	0.87597	0.83511	0.65196	-0.531
Mof_O 	O 	0.79151	0.85229	0.63586	-0.487
Mof_O 	O 	0.60289	0.66403	0.81901	-0.474
Mof_O 	O 	0.68868	0.65677	0.83744	-0.54
Mof_C 	C 	0.8288	0.78681	0.69436	0.036
Mof_H 	H 	0.8686	0.7862	0.6909	0.038
Mof_C 	C 	0.8036	0.76481	0.71641	-0.108
Mof_H 	H 	0.8268	0.7493	0.7274	0.072
Mof_C 	C 	0.7449	0.76509	0.72274	0.049
Mof_C 	C 	0.7119	0.78872	0.70602	-0.111
Mof_H 	H 	0.6724	0.7903	0.71	0.073
Mof_C 	C 	0.7373	0.80966	0.68365	0.04
Mof_H 	H 	0.7139	0.8247	0.672	0.038
Mof_C 	C 	0.7951	0.80979	0.67739	-0.099
Mof_C 	C 	0.6409	0.70779	0.76843	0.032
Mof_H 	H 	0.6027	0.7008	0.7669	0.036
Mof_C 	C 	0.6647	0.73007	0.74554	-0.1
Mof_H 	H 	0.6415	0.7378	0.7284	0.068
Mof_C 	C 	0.721	0.74119	0.74704	0.038
Mof_C 	C 	0.7547	0.72951	0.7732	-0.098
Mof_H 	H 	0.7926	0.737	0.7754	0.069
Mof_C 	C 	0.7323	0.70673	0.79606	0.04
Mof_H 	H 	0.7557	0.6986	0.8129	0.049
Mof_C 	C 	0.6768	0.69633	0.7939	-0.106
Mof_C 	C 	0.8214	0.83404	0.65346	0.344
Mof_C 	C 	0.6535	0.67128	0.81738	0.372
Mof_O 	O 	0.87403	0.91489	0.65196	-0.53
Mof_O 	O 	0.95849	0.89771	0.63586	-0.487
Mof_O 	O 	0.14711	0.08597	0.81901	-0.474
Mof_O 	O 	0.06132	0.09323	0.83744	-0.54
Mof_C 	C 	0.9212	0.96319	0.69436	0.034
Mof_H 	H 	0.8814	0.9638	0.6909	0.039
Mof_C 	C 	0.9464	0.98519	0.71641	-0.106
Mof_H 	H 	0.9232	0.0007	0.7274	0.071
Mof_C 	C 	0.0051	0.98491	0.72274	0.047
Mof_C 	C 	0.0381	0.96128	0.70602	-0.109
Mof_H 	H 	0.0776	0.9597	0.71	0.072
Mof_C 	C 	0.0127	0.94034	0.68365	0.038
Mof_H 	H 	0.0361	0.9253	0.672	0.038
Mof_C 	C 	0.9549	0.94021	0.67739	-0.097
Mof_C 	C 	0.1091	0.04221	0.76843	0.033
Mof_H 	H 	0.1473	0.0492	0.7669	0.036
Mof_C 	C 	0.0853	0.01993	0.74554	-0.101
Mof_H 	H 	0.1085	0.0122	0.7284	0.069
Mof_C 	C 	0.029	0.00881	0.74704	0.04
Mof_C 	C 	0.9953	0.02049	0.7732	-0.1
Mof_H 	H 	0.9574	0.013	0.7754	0.07
Mof_C 	C 	0.0177	0.04327	0.79606	0.042
Mof_H 	H 	0.9943	0.0514	0.8129	0.048
Mof_C 	C 	0.0732	0.05367	0.7939	-0.107
Mof_C 	C 	0.9286	0.91596	0.65346	0.344
Mof_C 	C 	0.0965	0.07872	0.81738	0.373
Mof_O 	O 	0.87403	0.41489	0.15196	-0.531
Mof_O 	O 	0.95849	0.39771	0.13586	-0.487
Mof_O 	O 	0.14711	0.58597	0.31901	-0.474
Mof_O 	O 	0.06132	0.59323	0.33744	-0.54
Mof_C 	C 	0.9212	0.46319	0.19436	0.036
Mof_H 	H 	0.8814	0.4638	0.1909	0.038
Mof_C 	C 	0.9464	0.48519	0.21641	-0.108
Mof_H 	H 	0.9232	0.5007	0.2274	0.072
Mof_C 	C 	0.0051	0.48491	0.22274	0.049
Mof_C 	C 	0.0381	0.46128	0.20602	-0.111
Mof_H 	H 	0.0776	0.4597	0.21	0.073
Mof_C 	C 	0.0127	0.44034	0.18365	0.04
Mof_H 	H 	0.0361	0.4253	0.172	0.038
Mof_C 	C 	0.9549	0.44021	0.17739	-0.099
Mof_C 	C 	0.1091	0.54221	0.26843	0.032
Mof_H 	H 	0.1473	0.5492	0.2669	0.036
Mof_C 	C 	0.0853	0.51993	0.24554	-0.1
Mof_H 	H 	0.1085	0.5122	0.2284	0.068
Mof_C 	C 	0.029	0.50881	0.24704	0.038
Mof_C 	C 	0.9953	0.52049	0.2732	-0.098
Mof_H 	H 	0.9574	0.513	0.2754	0.069
Mof_C 	C 	0.0177	0.54327	0.29606	0.04
Mof_H 	H 	0.9943	0.5514	0.3129	0.049
Mof_C 	C 	0.0732	0.55367	0.2939	-0.106
Mof_C 	C 	0.9286	0.41596	0.15346	0.344
Mof_C 	C 	0.0965	0.57872	0.31738	0.373
Mof_O 	O 	0.37403	0.91489	0.15196	-0.531
Mof_O 	O 	0.45849	0.89771	0.13586	-0.487
Mof_O 	O 	0.64711	0.08597	0.31901	-0.474
Mof_O 	O 	0.56132	0.09323	0.33744	-0.54
Mof_C 	C 	0.4212	0.96319	0.19436	0.036
Mof_H 	H 	0.3814	0.9638	0.1909	0.038
Mof_C 	C 	0.4464	0.98519	0.21641	-0.108
Mof_H 	H 	0.4232	0.0007	0.2274	0.072
Mof_C 	C 	0.5051	0.98491	0.22274	0.049
Mof_C 	C 	0.5381	0.96128	0.20602	-0.111
Mof_H 	H 	0.5776	0.9597	0.21	0.073
Mof_C 	C 	0.5127	0.94034	0.18365	0.04
Mof_H 	H 	0.5361	0.9253	0.172	0.038
Mof_C 	C 	0.4549	0.94021	0.17739	-0.099
Mof_C 	C 	0.6091	0.04221	0.26843	0.032
Mof_H 	H 	0.6473	0.0492	0.2669	0.036
Mof_C 	C 	0.5853	0.01993	0.24554	-0.1
Mof_H 	H 	0.6085	0.0122	0.2284	0.068
Mof_C 	C 	0.529	0.00881	0.24704	0.038
Mof_C 	C 	0.4953	0.02049	0.2732	-0.098
Mof_H 	H 	0.4574	0.013	0.2754	0.069
Mof_C 	C 	0.5177	0.04327	0.29606	0.04
Mof_H 	H 	0.4943	0.0514	0.3129	0.049
Mof_C 	C 	0.5732	0.05367	0.2939	-0.106
Mof_C 	C 	0.4286	0.91596	0.15346	0.344
Mof_C 	C 	0.5965	0.07872	0.31738	0.372
Mof_O 	O 	0.37403	0.41489	0.65196	-0.531
Mof_O 	O 	0.45849	0.39771	0.63586	-0.487
Mof_O 	O 	0.64711	0.58597	0.81901	-0.474
Mof_O 	O 	0.56132	0.59323	0.83744	-0.54
Mof_C 	C 	0.4212	0.46319	0.69436	0.036
Mof_H 	H 	0.3814	0.4638	0.6909	0.038
Mof_C 	C 	0.4464	0.48519	0.71641	-0.108
Mof_H 	H 	0.4232	0.5007	0.7274	0.072
Mof_C 	C 	0.5051	0.48491	0.72274	0.049
Mof_C 	C 	0.5381	0.46128	0.70602	-0.111
Mof_H 	H 	0.5776	0.4597	0.71	0.073
Mof_C 	C 	0.5127	0.44034	0.68365	0.04
Mof_H 	H 	0.5361	0.4253	0.672	0.038
Mof_C 	C 	0.4549	0.44021	0.67739	-0.099
Mof_C 	C 	0.6091	0.54221	0.76843	0.032
Mof_H 	H 	0.6473	0.5492	0.7669	0.036
Mof_C 	C 	0.5853	0.51993	0.74554	-0.1
Mof_H 	H 	0.6085	0.5122	0.7284	0.068
Mof_C 	C 	0.529	0.50881	0.74704	0.038
Mof_C 	C 	0.4953	0.52049	0.7732	-0.098
Mof_H 	H 	0.4574	0.513	0.7754	0.069
Mof_C 	C 	0.5177	0.54327	0.79606	0.04
Mof_H 	H 	0.4943	0.5514	0.8129	0.049
Mof_C 	C 	0.5732	0.55367	0.7939	-0.106
Mof_C 	C 	0.4286	0.41596	0.65346	0.344
Mof_C 	C 	0.5965	0.57872	0.81738	0.372
Mof_In	In	0.125	0.625	0.36273	2.522
Mof_In	In	0.125	0.125	0.86273	2.522
Mof_In	In	0.625	0.125	0.36273	2.522
Mof_In	In	0.625	0.625	0.86273	2.522
Mof_In	In	0.375	0.375	0.61273	2.522
Mof_In	In	0.375	0.875	0.11273	2.522
Mof_In	In	0.875	0.875	0.61273	2.522
Mof_In	In	0.875	0.375	0.11273	2.522
_end
