data_functionalizedCrystal
_audit_creation_method	'EQeq! by Chris Wilmer'
_symmetry_space_group_name_H-M	'P1'
_symmetry_Int_Tables_number	1
_symmetry_cell_setting	triclinic
loop_
_symmetry_equiv_pos_as_xyz
  x,y,z
_cell_length_a	7.5273
_cell_length_b	9.652
_cell_length_c	22.106
_cell_angle_alpha	90
_cell_angle_beta	90
_cell_angle_gamma	110.759
loop_
_atom_site_label
_atom_site_type_symbol
_atom_site_fract_x
_atom_site_fract_y
_atom_site_fract_z
_atom_site_charge
Mof_Mn	Mn	0.63094	0.65031	0.75367	0.877
Mof_Mn	Mn	0.86906	0.34969	0.25367	0.877
Mof_Mn	Mn	0.36906	0.34969	0.24633	0.876
Mof_Mn	Mn	0.13094	0.65031	0.74633	0.876
Mof_H 	H 	0.1035	0.6224	0.6073	0.044
Mof_H 	H 	0.5566	0.4284	0.5603	0.039
Mof_H 	H 	0.6429	0.374	0.4665	0.069
Mof_H 	H 	0.7731	0.9273	0.9053	0.06
Mof_H 	H 	0.2807	0.8798	0.9072	0.04
Mof_H 	H 	0.6675	0.033	0.9959	0.06
Mof_H 	H 	0.3965	0.3776	0.1073	0.044
Mof_H 	H 	0.9434	0.5716	0.0603	0.039
Mof_H 	H 	0.8571	0.626	0.9665	0.069
Mof_H 	H 	0.7269	0.0727	0.4053	0.059
Mof_H 	H 	0.2193	0.1202	0.4072	0.039
Mof_H 	H 	0.8325	0.967	0.4959	0.063
Mof_H 	H 	0.8965	0.3776	0.3927	0.044
Mof_H 	H 	0.4434	0.5716	0.4397	0.039
Mof_H 	H 	0.3571	0.626	0.5335	0.069
Mof_H 	H 	0.2269	0.0727	0.0947	0.06
Mof_H 	H 	0.7193	0.1202	0.0928	0.04
Mof_H 	H 	0.3325	0.967	0.0041	0.06
Mof_H 	H 	0.6035	0.6224	0.8927	0.044
Mof_H 	H 	0.0566	0.4284	0.9397	0.039
Mof_H 	H 	0.1429	0.374	0.0335	0.069
Mof_H 	H 	0.2731	0.9273	0.5947	0.059
Mof_H 	H 	0.7807	0.8798	0.5928	0.039
Mof_H 	H 	0.1675	0.033	0.5041	0.063
Mof_C 	C 	0.7607	0.56231	0.65478	0.336
Mof_C 	C 	0.8245	0.53013	0.59373	-0.09
Mof_C 	C 	0.0121	0.57143	0.5791	-0.036
Mof_C 	C 	0.6846	0.4554	0.55052	0.014
Mof_C 	C 	0.7364	0.4228	0.49454	-0.092
Mof_C 	C 	0.0703	0.53797	0.52137	0.025
Mof_C 	C 	0.9823	0.83135	0.83371	0.373
Mof_C 	C 	0.021	0.8974	0.89631	-0.083
Mof_C 	C 	0.8859	0.93738	0.92524	-0.041
Mof_C 	C 	0.9147	0.99381	0.98498	0.025
Mof_C 	C 	0.1898	0.9084	0.92666	0.01
Mof_C 	C 	0.7793	0.0391	0.0155	-0.085
Mof_C 	C 	0.7393	0.43769	0.15478	0.336
Mof_C 	C 	0.6755	0.46987	0.09373	-0.089
Mof_C 	C 	0.4879	0.42857	0.0791	-0.037
Mof_C 	C 	0.8154	0.5446	0.05052	0.014
Mof_C 	C 	0.7636	0.5772	0.99454	-0.092
Mof_C 	C 	0.4297	0.46203	0.02137	0.025
Mof_C 	C 	0.5177	0.16865	0.33371	0.377
Mof_C 	C 	0.479	0.1026	0.39631	-0.088
Mof_C 	C 	0.6141	0.06262	0.42524	-0.038
Mof_C 	C 	0.5853	0.00619	0.48498	0.027
Mof_C 	C 	0.3102	0.0916	0.42666	0.014
Mof_C 	C 	0.7207	0.9609	0.5155	-0.091
Mof_C 	C 	0.2393	0.43769	0.34522	0.336
Mof_C 	C 	0.1755	0.46987	0.40627	-0.09
Mof_C 	C 	0.9879	0.42857	0.4209	-0.036
Mof_C 	C 	0.3154	0.5446	0.44948	0.014
Mof_C 	C 	0.2636	0.5772	0.50546	-0.092
Mof_C 	C 	0.9297	0.46203	0.47863	0.025
Mof_C 	C 	0.0177	0.16865	0.16629	0.373
Mof_C 	C 	0.979	0.1026	0.10369	-0.083
Mof_C 	C 	0.1141	0.06262	0.07476	-0.041
Mof_C 	C 	0.0853	0.00619	0.01502	0.025
Mof_C 	C 	0.8102	0.0916	0.07334	0.01
Mof_C 	C 	0.2207	0.9609	0.9845	-0.085
Mof_C 	C 	0.2607	0.56231	0.84522	0.336
Mof_C 	C 	0.3245	0.53013	0.90627	-0.089
Mof_C 	C 	0.5121	0.57143	0.9209	-0.037
Mof_C 	C 	0.1846	0.4554	0.94948	0.014
Mof_C 	C 	0.2364	0.4228	0.00546	-0.092
Mof_C 	C 	0.5703	0.53797	0.97863	0.025
Mof_C 	C 	0.4823	0.83135	0.66629	0.377
Mof_C 	C 	0.521	0.8974	0.60369	-0.088
Mof_C 	C 	0.3859	0.93738	0.57476	-0.038
Mof_C 	C 	0.4147	0.99381	0.51502	0.027
Mof_C 	C 	0.6898	0.9084	0.57334	0.014
Mof_C 	C 	0.2793	0.0391	0.4845	-0.091
Mof_O 	O 	0.8832	0.63428	0.69412	-0.427
Mof_O 	O 	0.58752	0.52099	0.66596	-0.36
Mof_O 	O 	0.81471	0.79299	0.81536	-0.391
Mof_O 	O 	0.12023	0.82073	0.80495	-0.367
Mof_O 	O 	0.6168	0.36572	0.19412	-0.427
Mof_O 	O 	0.91248	0.47901	0.16596	-0.36
Mof_O 	O 	0.68529	0.20701	0.31536	-0.392
Mof_O 	O 	0.37977	0.17927	0.30495	-0.368
Mof_O 	O 	0.1168	0.36572	0.30588	-0.427
Mof_O 	O 	0.41248	0.47901	0.33404	-0.36
Mof_O 	O 	0.18529	0.20701	0.18464	-0.391
Mof_O 	O 	0.87977	0.17927	0.19505	-0.367
Mof_O 	O 	0.3832	0.63428	0.80588	-0.427
Mof_O 	O 	0.08752	0.52099	0.83404	-0.36
Mof_O 	O 	0.31471	0.79299	0.68464	-0.392
Mof_O 	O 	0.62023	0.82073	0.69505	-0.368
_end
