data_functionalizedCrystal
_audit_creation_method	'EQeq! by Chris Wilmer'
_symmetry_space_group_name_H-M	'P1'
_symmetry_Int_Tables_number	1
_symmetry_cell_setting	triclinic
loop_
_symmetry_equiv_pos_as_xyz
  x,y,z
_cell_length_a	9.446
_cell_length_b	12.0055
_cell_length_c	16.685
_cell_angle_alpha	96.2751
_cell_angle_beta	90
_cell_angle_gamma	113.166
loop_
_atom_site_label
_atom_site_type_symbol
_atom_site_fract_x
_atom_site_fract_y
_atom_site_fract_z
_atom_site_charge
Mof_Y 	Y 	0.30306	0.009	0.43404	1.657
Mof_Y 	Y 	0.70594	0.009	0.93404	1.666
Mof_Y 	Y 	0.69694	0.991	0.56596	1.656
Mof_Y 	Y 	0.29406	0.991	0.06596	1.665
Mof_Ag	Ag	0.71713	0.68214	0.41882	0.682
Mof_Ag	Ag	0.03499	0.31786	0.08118	0.679
Mof_Ag	Ag	0.28287	0.31786	0.58118	0.682
Mof_Ag	Ag	0.96501	0.68214	0.91882	0.679
Mof_H 	H 	0.1081	0.198	0.7268	0.016
Mof_H 	H 	0.8666	0.904	0.1693	0.057
Mof_H 	H 	0.7508	0.6934	0.053	-0.007
Mof_H 	H 	0.1334	0.096	0.8307	0.057
Mof_H 	H 	0.5783	0.1924	0.7805	0.068
Mof_H 	H 	0.6141	0.1924	0.2805	0.07
Mof_H 	H 	0.1305	0.6324	0.3834	-0.01
Mof_H 	H 	0.2492	0.3066	0.947	-0.007
Mof_H 	H 	0.2432	0.7028	0.8177	-0.005
Mof_H 	H 	0.9626	0.096	0.3307	0.063
Mof_H 	H 	0.4217	0.8076	0.2195	0.068
Mof_H 	H 	0.989	0.4234	0.3678	0.098
Mof_H 	H 	0.0899	0.198	0.2268	0.01
Mof_H 	H 	0.4981	0.3676	0.1166	-0.01
Mof_H 	H 	0.831	0.4152	0.9586	-0.034
Mof_H 	H 	0.5842	0.4152	0.4586	-0.034
Mof_H 	H 	0.011	0.5766	0.6322	0.098
Mof_H 	H 	0.7568	0.2972	0.1823	-0.005
Mof_H 	H 	0.5656	0.5766	0.1322	0.096
Mof_H 	H 	0.8695	0.3676	0.6166	-0.01
Mof_H 	H 	0.5404	0.2972	0.6823	-0.004
Mof_H 	H 	0.5019	0.6324	0.8834	-0.01
Mof_H 	H 	0.4596	0.7028	0.3177	-0.004
Mof_H 	H 	0.9101	0.802	0.7732	0.01
Mof_H 	H 	0.0574	0.3066	0.447	-0.009
Mof_H 	H 	0.4344	0.4234	0.8678	0.096
Mof_H 	H 	0.0374	0.904	0.6693	0.063
Mof_H 	H 	0.3859	0.8076	0.7195	0.07
Mof_H 	H 	0.9426	0.6934	0.553	-0.009
Mof_H 	H 	0.169	0.5848	0.0414	-0.034
Mof_H 	H 	0.8919	0.802	0.2732	0.016
Mof_H 	H 	0.4158	0.5848	0.5414	-0.034
Mof_C 	C 	0.7753	0.447	0.9932	0.119
Mof_C 	C 	0.6106	0.2346	0.524	0.488
Mof_C 	C 	0.519	0.8084	0.2294	-0.063
Mof_C 	C 	0.624	0.2346	0.024	0.49
Mof_C 	C 	0.0833	0.8662	0.7001	-0.058
Mof_C 	C 	0.0743	0.459	0.4038	-0.205
Mof_C 	C 	0.0335	0.0688	0.5107	0.239
Mof_C 	C 	0.2032	0.7466	0.7888	0.057
Mof_C 	C 	0.7829	0.8662	0.2001	-0.051
Mof_C 	C 	0.7968	0.2534	0.2112	0.057
Mof_C 	C 	0.6153	0.541	0.0962	-0.201
Mof_C 	C 	0.9665	0.9312	0.4893	0.239
Mof_C 	C 	0.6208	0.9478	0.1211	0.43
Mof_C 	C 	0.359	0.1284	0.8155	-0.069
Mof_C 	C 	0.9647	0.9312	0.9893	0.242
Mof_C 	C 	0.5434	0.7466	0.2888	0.054
Mof_C 	C 	0.5779	0.4178	0.0879	0.128
Mof_C 	C 	0.3792	0.0522	0.8789	0.43
Mof_C 	C 	0.1601	0.5822	0.4121	0.131
Mof_C 	C 	0.1184	0.3898	0.4506	0.121
Mof_C 	C 	0.3407	0.6324	0.9633	-0.227
Mof_C 	C 	0.2894	0.8084	0.7294	-0.066
Mof_C 	C 	0.8399	0.4178	0.5879	0.131
Mof_C 	C 	0.327	0.9478	0.6211	0.428
Mof_C 	C 	0.3847	0.459	0.9038	-0.201
Mof_C 	C 	0.2036	0.1962	0.7379	0.038
Mof_C 	C 	0.7083	0.3676	0.5367	-0.229
Mof_C 	C 	0.7106	0.1916	0.2706	-0.066
Mof_C 	C 	0.9257	0.541	0.5962	-0.205
Mof_C 	C 	0.6717	0.447	0.4932	0.121
Mof_C 	C 	0.6593	0.3676	0.0367	-0.227
Mof_C 	C 	0.2917	0.6324	0.4633	-0.229
Mof_C 	C 	0.3283	0.553	0.5068	0.121
Mof_C 	C 	0.8816	0.6102	0.5494	0.121
Mof_C 	C 	0.2171	0.1338	0.7999	-0.051
Mof_C 	C 	0.2917	0.0696	0.2548	0.24
Mof_C 	C 	0.7779	0.0696	0.7548	0.244
Mof_C 	C 	0.7286	0.6102	0.0494	0.119
Mof_C 	C 	0.376	0.7654	0.976	0.49
Mof_C 	C 	0.2221	0.9304	0.2452	0.244
Mof_C 	C 	0.2247	0.553	0.0068	0.119
Mof_C 	C 	0.7083	0.9304	0.7452	0.24
Mof_C 	C 	0.9926	0.1962	0.2379	0.051
Mof_C 	C 	0.2306	0.8716	0.6845	-0.063
Mof_C 	C 	0.3894	0.7654	0.476	0.488
Mof_C 	C 	0.4221	0.5822	0.9121	0.128
Mof_C 	C 	0.9167	0.1338	0.2999	-0.058
Mof_C 	C 	0.673	0.0522	0.3789	0.428
Mof_C 	C 	0.0074	0.8038	0.7621	0.051
Mof_C 	C 	0.4566	0.2534	0.7112	0.054
Mof_C 	C 	0.2714	0.3898	0.9506	0.119
Mof_C 	C 	0.7964	0.8038	0.2621	0.038
Mof_C 	C 	0.641	0.8716	0.1845	-0.069
Mof_C 	C 	0.0353	0.0688	0.0107	0.242
Mof_C 	C 	0.7694	0.1284	0.3155	-0.063
Mof_C 	C 	0.481	0.1916	0.7706	-0.063
Mof_N 	N 	0.8087	0.5664	0.9995	-0.229
Mof_N 	N 	0.3216	0.2544	0.6928	-0.2
Mof_N 	N 	0.9328	0.2544	0.1928	-0.201
Mof_N 	N 	0.6784	0.7456	0.3072	-0.2
Mof_N 	N 	0.7577	0.5664	0.4995	-0.23
Mof_N 	N 	0.0672	0.7456	0.8072	-0.201
Mof_N 	N 	0.1913	0.4336	0.0005	-0.229
Mof_N 	N 	0.2423	0.4336	0.5005	-0.23
Mof_O 	O 	0.0347	0.8726	0.0194	-0.403
Mof_O 	O 	0.2773	0.799	0.007	-0.48
Mof_O 	O 	0.3047	0.1232	0.3258	-0.362
Mof_O 	O 	0.9644	0.1152	0.5578	-0.378
Mof_O 	O 	0.2614	0.9858	0.5734	-0.432
Mof_O 	O 	0.6712	0.8808	0.8084	-0.354
Mof_O 	O 	0.671	0.1668	0.5458	-0.477
Mof_O 	O 	0.4659	0.9632	0.6224	-0.455
Mof_O 	O 	0.8492	0.8848	0.9422	-0.384
Mof_O 	O 	0.5217	0.799	0.507	-0.478
Mof_O 	O 	0.7244	0.9858	0.0734	-0.437
Mof_O 	O 	0.1621	0.1274	0.4806	-0.405
Mof_O 	O 	0.7227	0.201	0.993	-0.48
Mof_O 	O 	0.6953	0.8768	0.6742	-0.362
Mof_O 	O 	0.2096	0.8808	0.3084	-0.354
Mof_O 	O 	0.2756	0.0142	0.9266	-0.437
Mof_O 	O 	0.7386	0.0142	0.4266	-0.432
Mof_O 	O 	0.4973	0.9632	0.1224	-0.457
Mof_O 	O 	0.5341	0.0368	0.3776	-0.455
Mof_O 	O 	0.1815	0.8768	0.1742	-0.362
Mof_O 	O 	0.3288	0.1192	0.1916	-0.354
Mof_O 	O 	0.0356	0.8848	0.4422	-0.378
Mof_O 	O 	0.329	0.8332	0.4542	-0.477
Mof_O 	O 	0.8185	0.1232	0.8258	-0.362
Mof_O 	O 	0.1508	0.1152	0.0578	-0.384
Mof_O 	O 	0.9653	0.1274	0.9806	-0.403
Mof_O 	O 	0.7904	0.1192	0.6916	-0.354
Mof_O 	O 	0.5042	0.8332	0.9542	-0.478
Mof_O 	O 	0.5027	0.0368	0.8776	-0.457
Mof_O 	O 	0.8379	0.8726	0.5194	-0.405
Mof_O 	O 	0.4958	0.1668	0.0458	-0.478
Mof_O 	O 	0.4783	0.201	0.493	-0.478
_end
