data_functionalizedCrystal
_audit_creation_method	'EQeq! by Chris Wilmer'
_symmetry_space_group_name_H-M	'P1'
_symmetry_Int_Tables_number	1
_symmetry_cell_setting	triclinic
loop_
_symmetry_equiv_pos_as_xyz
  x,y,z
_cell_length_a	18.266
_cell_length_b	18.266
_cell_length_c	18.266
_cell_angle_alpha	60
_cell_angle_beta	60
_cell_angle_gamma	60
loop_
_atom_site_label
_atom_site_type_symbol
_atom_site_fract_x
_atom_site_fract_y
_atom_site_fract_z
_atom_site_charge
Mof_Zn	Zn	0.29338	0.29338	0.29338	1.21
Mof_Zn	Zn	0.29338	0.29338	0.11986	1.21
Mof_Zn	Zn	0.29338	0.11986	0.29338	1.21
Mof_Zn	Zn	0.11986	0.29338	0.29338	1.21
Mof_Zn	Zn	0.70662	0.70662	0.70662	1.21
Mof_Zn	Zn	0.70662	0.70662	0.88014	1.21
Mof_Zn	Zn	0.88014	0.70662	0.70662	1.211
Mof_Zn	Zn	0.70662	0.88014	0.70662	1.211
Mof_H 	H 	0.1546	0.4552	0.4552	0.054
Mof_H 	H 	0.4552	0.1546	0.935	0.054
Mof_H 	H 	0.4552	0.935	0.1546	0.054
Mof_H 	H 	0.935	0.4552	0.4552	0.054
Mof_H 	H 	0.1546	0.4552	0.935	0.054
Mof_H 	H 	0.4552	0.935	0.4552	0.054
Mof_H 	H 	0.4552	0.1546	0.4552	0.054
Mof_H 	H 	0.935	0.4552	0.1546	0.054
Mof_H 	H 	0.1546	0.935	0.4552	0.054
Mof_H 	H 	0.4552	0.4552	0.1546	0.054
Mof_H 	H 	0.4552	0.4552	0.935	0.054
Mof_H 	H 	0.935	0.1546	0.4552	0.054
Mof_H 	H 	0.5448	0.8454	0.5448	0.054
Mof_H 	H 	0.8454	0.5448	0.065	0.054
Mof_H 	H 	0.065	0.5448	0.8454	0.054
Mof_H 	H 	0.5448	0.065	0.5448	0.054
Mof_H 	H 	0.5448	0.8454	0.065	0.054
Mof_H 	H 	0.065	0.5448	0.5448	0.054
Mof_H 	H 	0.8454	0.5448	0.5448	0.054
Mof_H 	H 	0.5448	0.065	0.8454	0.054
Mof_H 	H 	0.065	0.8454	0.5448	0.054
Mof_H 	H 	0.5448	0.5448	0.8454	0.054
Mof_H 	H 	0.5448	0.5448	0.065	0.054
Mof_H 	H 	0.8454	0.065	0.5448	0.054
Mof_C 	C 	0.0927	0.4731	0.4731	-0.023
Mof_C 	C 	0.4731	0.0927	0.9611	-0.024
Mof_C 	C 	0.4731	0.9611	0.0927	-0.024
Mof_C 	C 	0.9611	0.4731	0.4731	-0.023
Mof_C 	C 	0.0927	0.4731	0.9611	-0.024
Mof_C 	C 	0.4731	0.9611	0.4731	-0.023
Mof_C 	C 	0.4731	0.0927	0.4731	-0.023
Mof_C 	C 	0.9611	0.4731	0.0927	-0.024
Mof_C 	C 	0.0927	0.9611	0.4731	-0.024
Mof_C 	C 	0.4731	0.4731	0.0927	-0.023
Mof_C 	C 	0.4731	0.4731	0.9611	-0.023
Mof_C 	C 	0.9611	0.0927	0.4731	-0.024
Mof_C 	C 	0.5269	0.9073	0.5269	-0.023
Mof_C 	C 	0.9073	0.5269	0.0389	-0.024
Mof_C 	C 	0.0389	0.5269	0.9073	-0.024
Mof_C 	C 	0.5269	0.0389	0.5269	-0.023
Mof_C 	C 	0.5269	0.9073	0.0389	-0.024
Mof_C 	C 	0.0389	0.5269	0.5269	-0.023
Mof_C 	C 	0.9073	0.5269	0.5269	-0.023
Mof_C 	C 	0.5269	0.0389	0.9073	-0.024
Mof_C 	C 	0.0389	0.9073	0.5269	-0.024
Mof_C 	C 	0.5269	0.5269	0.9073	-0.023
Mof_C 	C 	0.5269	0.5269	0.0389	-0.023
Mof_C 	C 	0.9073	0.0389	0.5269	-0.024
Mof_C 	C 	0.1113	0.3887	0.3887	0.322
Mof_C 	C 	0.0538	0.4462	0.4462	-0.065
Mof_C 	C 	0.3887	0.1113	0.1113	0.321
Mof_C 	C 	0.4462	0.0538	0.0538	-0.063
Mof_C 	C 	0.1113	0.3887	0.1113	0.321
Mof_C 	C 	0.0538	0.4462	0.0538	-0.063
Mof_C 	C 	0.3887	0.1113	0.3887	0.322
Mof_C 	C 	0.4462	0.0538	0.4462	-0.065
Mof_C 	C 	0.1113	0.1113	0.3887	0.321
Mof_C 	C 	0.0538	0.0538	0.4462	-0.063
Mof_C 	C 	0.3887	0.3887	0.1113	0.322
Mof_C 	C 	0.4462	0.4462	0.0538	-0.065
Mof_C 	C 	0.6113	0.8887	0.6113	0.322
Mof_C 	C 	0.5538	0.9462	0.5538	-0.065
Mof_C 	C 	0.8887	0.6113	0.8887	0.321
Mof_C 	C 	0.9462	0.5538	0.9462	-0.063
Mof_C 	C 	0.6113	0.8887	0.8887	0.321
Mof_C 	C 	0.5538	0.9462	0.9462	-0.063
Mof_C 	C 	0.8887	0.6113	0.6113	0.322
Mof_C 	C 	0.9462	0.5538	0.5538	-0.065
Mof_C 	C 	0.8887	0.8887	0.6113	0.321
Mof_C 	C 	0.9462	0.9462	0.5538	-0.063
Mof_C 	C 	0.6113	0.6113	0.8887	0.322
Mof_C 	C 	0.5538	0.5538	0.9462	-0.065
Mof_O 	O 	0.25	0.25	0.25	-0.968
Mof_O 	O 	0.75	0.75	0.75	-0.968
Mof_O 	O 	0.19777	0.366	0.366	-0.482
Mof_O 	O 	0.366	0.19777	0.07023	-0.482
Mof_O 	O 	0.366	0.07023	0.19777	-0.482
Mof_O 	O 	0.07023	0.366	0.366	-0.482
Mof_O 	O 	0.19777	0.366	0.07023	-0.482
Mof_O 	O 	0.366	0.07023	0.366	-0.482
Mof_O 	O 	0.366	0.19777	0.366	-0.482
Mof_O 	O 	0.07023	0.366	0.19777	-0.482
Mof_O 	O 	0.19777	0.07023	0.366	-0.482
Mof_O 	O 	0.366	0.366	0.19777	-0.482
Mof_O 	O 	0.366	0.366	0.07023	-0.482
Mof_O 	O 	0.07023	0.19777	0.366	-0.482
Mof_O 	O 	0.634	0.80223	0.634	-0.482
Mof_O 	O 	0.80223	0.634	0.92977	-0.482
Mof_O 	O 	0.92977	0.634	0.80223	-0.482
Mof_O 	O 	0.634	0.92977	0.634	-0.482
Mof_O 	O 	0.634	0.80223	0.92977	-0.482
Mof_O 	O 	0.92977	0.634	0.634	-0.482
Mof_O 	O 	0.80223	0.634	0.634	-0.482
Mof_O 	O 	0.634	0.92977	0.80223	-0.482
Mof_O 	O 	0.92977	0.80223	0.634	-0.482
Mof_O 	O 	0.634	0.634	0.80223	-0.482
Mof_O 	O 	0.634	0.634	0.92977	-0.482
Mof_O 	O 	0.80223	0.92977	0.634	-0.482
_end
