# CIF file generated by openbabel 3.1.0, see https://openbabel.org
data_I
_chemical_name_common 'image0'
_cell_length_a 36.405
_cell_length_b 36.405
_cell_length_c 11.6941
_cell_angle_alpha 90
_cell_angle_beta 90
_cell_angle_gamma 120
_space_group_name_H-M_alt 'P 1'
_space_group_name_Hall 'P 1'
loop_
    _symmetry_equiv_pos_as_xyz
    x,y,z
loop_
    _atom_site_label
    _atom_site_type_symbol
    _atom_site_fract_x
    _atom_site_fract_y
    _atom_site_fract_z
    _atom_site_occupancy
    Nd1      Nd       0.37974    0.14983    0.67494    1.000
    O1       O        0.41056    0.22510    0.62780    1.000
    O2       O        0.35941    0.24258    0.63790    1.000
    O3       O        0.44794    0.40512    0.80660    1.000
    O4       O        0.51227    0.41441    0.81660    1.000
    O5       O        0.34083    0.17450    0.78850    1.000
    O6       O        0.29830    0.19050    0.87770    1.000
    C1       C        0.39655    0.25026    0.62350    1.000
    C2       C        0.42751    0.29674    0.59830    1.000
    C3       C        0.44286    0.32557    0.68850    1.000
    C4       C        0.46549    0.36912    0.66880    1.000
    C5       C        0.47670    0.39922    0.77010    1.000
    C6       C        0.47359    0.38358    0.55620    1.000
    C7       C        0.46040    0.35590    0.46150    1.000
    C8       C        0.43724    0.31199    0.48710    1.000
    C9       C        0.32760    0.18240    0.87680    1.000
    N1       N        0.46850    0.37037    0.35120    1.000
    I1       I        0.43329    0.30190    0.85625    1.000
    I2       I        0.50627    0.44923    0.52525    1.000
    I3       I        0.41719    0.26810    0.35274    1.000
    Nd2      Nd       0.04641    0.48317    0.00827    1.000
    O7       O        0.07723    0.55843    0.96113    1.000
    O8       O        0.02608    0.57591    0.97123    1.000
    O9       O        0.11461    0.73845    0.13993    1.000
    O10      O        0.17894    0.74774    0.14993    1.000
    O11      O        0.00750    0.50783    0.12183    1.000
    O12      O        0.96497    0.52383    0.21103    1.000
    C10      C        0.06322    0.58359    0.95683    1.000
    C11      C        0.09418    0.63007    0.93163    1.000
    C12      C        0.10953    0.65890    0.02183    1.000
    C13      C        0.13216    0.70245    0.00213    1.000
    C14      C        0.14337    0.73255    0.10343    1.000
    C15      C        0.14026    0.71691    0.88953    1.000
    C16      C        0.12707    0.68923    0.79483    1.000
    C17      C        0.10391    0.64532    0.82043    1.000
    C18      C        0.99427    0.51573    0.21013    1.000
    N2       N        0.13517    0.70370    0.68453    1.000
    I4       I        0.09996    0.63523    0.18958    1.000
    I5       I        0.17294    0.78256    0.85858    1.000
    I6       I        0.08386    0.60144    0.68607    1.000
    Nd3      Nd       0.71307    0.81650    0.34161    1.000
    O13      O        0.74389    0.89177    0.29447    1.000
    O14      O        0.69274    0.90925    0.30457    1.000
    O15      O        0.78127    0.07179    0.47327    1.000
    O16      O        0.84560    0.08108    0.48327    1.000
    O17      O        0.67416    0.84117    0.45517    1.000
    O18      O        0.63163    0.85717    0.54437    1.000
    C19      C        0.72988    0.91693    0.29017    1.000
    C20      C        0.76084    0.96341    0.26497    1.000
    C21      C        0.77619    0.99224    0.35517    1.000
    C22      C        0.79882    0.03579    0.33547    1.000
    C23      C        0.81003    0.06589    0.43677    1.000
    C24      C        0.80692    0.05025    0.22287    1.000
    C25      C        0.79373    0.02257    0.12817    1.000
    C26      C        0.77057    0.97866    0.15377    1.000
    C27      C        0.66093    0.84907    0.54347    1.000
    N3       N        0.80183    0.03704    0.01787    1.000
    I7       I        0.76662    0.96856    0.52292    1.000
    I8       I        0.83961    0.11589    0.19192    1.000
    I9       I        0.75052    0.93477    0.01941    1.000
    Nd4      Nd       0.85017    0.22990    0.67494    1.000
    O19      O        0.77490    0.18546    0.62780    1.000
    O20      O        0.75742    0.11683    0.63790    1.000
    O21      O        0.59488    0.04282    0.80660    1.000
    O22      O        0.58559    0.09786    0.81660    1.000
    O23      O        0.82550    0.16633    0.78850    1.000
    O24      O        0.80950    0.10780    0.87770    1.000
    C28      C        0.74974    0.14629    0.62350    1.000
    C29      C        0.70326    0.13077    0.59830    1.000
    C30      C        0.67443    0.11729    0.68850    1.000
    C31      C        0.63088    0.09637    0.66880    1.000
    C32      C        0.60078    0.07748    0.77010    1.000
    C33      C        0.61642    0.09001    0.55620    1.000
    C34      C        0.64410    0.10450    0.46150    1.000
    C35      C        0.68801    0.12525    0.48710    1.000
    C36      C        0.81760    0.14520    0.87680    1.000
    N4       N        0.62963    0.09813    0.35120    1.000
    I10      I        0.69810    0.13139    0.85625    1.000
    I11      I        0.55077    0.05705    0.52525    1.000
    I12      I        0.73190    0.14909    0.35274    1.000
    Nd5      Nd       0.51683    0.56324    0.00827    1.000
    O25      O        0.44157    0.51879    0.96113    1.000
    O26      O        0.42409    0.45016    0.97123    1.000
    O27      O        0.26155    0.37615    0.13993    1.000
    O28      O        0.25226    0.43119    0.14993    1.000
    O29      O        0.49217    0.49966    0.12183    1.000
    O30      O        0.47617    0.44113    0.21103    1.000
    C37      C        0.41641    0.47962    0.95683    1.000
    C38      C        0.36993    0.46410    0.93163    1.000
    C39      C        0.34110    0.45062    0.02183    1.000
    C40      C        0.29755    0.42970    0.00213    1.000
    C41      C        0.26745    0.41081    0.10343    1.000
    C42      C        0.28309    0.42334    0.88953    1.000
    C43      C        0.31077    0.43783    0.79483    1.000
    C44      C        0.35468    0.45858    0.82043    1.000
    C45      C        0.48427    0.47853    0.21013    1.000
    N5       N        0.29630    0.43146    0.68453    1.000
    I13      I        0.36477    0.46473    0.18958    1.000
    I14      I        0.21744    0.39038    0.85858    1.000
    I15      I        0.39856    0.48242    0.68607    1.000
    Nd6      Nd       0.18350    0.89657    0.34161    1.000
    O31      O        0.10823    0.85213    0.29447    1.000
    O32      O        0.09075    0.78350    0.30457    1.000
    O33      O        0.92821    0.70949    0.47327    1.000
    O34      O        0.91892    0.76453    0.48327    1.000
    O35      O        0.15883    0.83300    0.45517    1.000
    O36      O        0.14283    0.77447    0.54437    1.000
    C46      C        0.08307    0.81296    0.29017    1.000
    C47      C        0.03659    0.79744    0.26497    1.000
    C48      C        0.00776    0.78396    0.35517    1.000
    C49      C        0.96421    0.76304    0.33547    1.000
    C50      C        0.93411    0.74415    0.43677    1.000
    C51      C        0.94975    0.75668    0.22287    1.000
    C52      C        0.97743    0.77117    0.12817    1.000
    C53      C        0.02134    0.79192    0.15377    1.000
    C54      C        0.15093    0.81187    0.54347    1.000
    N6       N        0.96296    0.76480    0.01787    1.000
    I16      I        0.03144    0.79806    0.52292    1.000
    I17      I        0.88411    0.72371    0.19192    1.000
    I18      I        0.06523    0.81575    0.01941    1.000
    Nd7      Nd       0.77010    0.62026    0.67494    1.000
    O37      O        0.81454    0.58944    0.62780    1.000
    O38      O        0.88317    0.64059    0.63790    1.000
    O39      O        0.95718    0.55206    0.80660    1.000
    O40      O        0.90214    0.48773    0.81660    1.000
    O41      O        0.83367    0.65917    0.78850    1.000
    O42      O        0.89220    0.70170    0.87770    1.000
    C55      C        0.85371    0.60345    0.62350    1.000
    C56      C        0.86923    0.57249    0.59830    1.000
    C57      C        0.88271    0.55714    0.68850    1.000
    C58      C        0.90363    0.53451    0.66880    1.000
    C59      C        0.92252    0.52330    0.77010    1.000
    C60      C        0.90999    0.52641    0.55620    1.000
    C61      C        0.89550    0.53960    0.46150    1.000
    C62      C        0.87475    0.56276    0.48710    1.000
    C63      C        0.85480    0.67240    0.87680    1.000
    N7       N        0.90187    0.53150    0.35120    1.000
    I19      I        0.86861    0.56671    0.85625    1.000
    I20      I        0.94295    0.49373    0.52525    1.000
    I21      I        0.85091    0.58281    0.35274    1.000
    Nd8      Nd       0.43676    0.95359    0.00827    1.000
    O43      O        0.48121    0.92277    0.96113    1.000
    O44      O        0.54984    0.97392    0.97123    1.000
    O45      O        0.62385    0.88539    0.13993    1.000
    O46      O        0.56881    0.82106    0.14993    1.000
    O47      O        0.50034    0.99250    0.12183    1.000
    O48      O        0.55887    0.03503    0.21103    1.000
    C64      C        0.52038    0.93678    0.95683    1.000
    C65      C        0.53590    0.90582    0.93163    1.000
    C66      C        0.54938    0.89047    0.02183    1.000
    C67      C        0.57030    0.86784    0.00213    1.000
    C68      C        0.58919    0.85663    0.10343    1.000
    C69      C        0.57666    0.85974    0.88953    1.000
    C70      C        0.56217    0.87293    0.79483    1.000
    C71      C        0.54142    0.89609    0.82043    1.000
    C72      C        0.52147    0.00573    0.21013    1.000
    N8       N        0.56854    0.86483    0.68453    1.000
    I22      I        0.53527    0.90004    0.18958    1.000
    I23      I        0.60962    0.82706    0.85858    1.000
    I24      I        0.51758    0.91614    0.68607    1.000
    Nd9      Nd       0.10343    0.28693    0.34161    1.000
    O49      O        0.14787    0.25611    0.29447    1.000
    O50      O        0.21650    0.30726    0.30457    1.000
    O51      O        0.29051    0.21873    0.47327    1.000
    O52      O        0.23547    0.15440    0.48327    1.000
    O53      O        0.16700    0.32584    0.45517    1.000
    O54      O        0.22553    0.36837    0.54437    1.000
    C73      C        0.18704    0.27012    0.29017    1.000
    C74      C        0.20256    0.23916    0.26497    1.000
    C75      C        0.21604    0.22381    0.35517    1.000
    C76      C        0.23696    0.20118    0.33547    1.000
    C77      C        0.25585    0.18997    0.43677    1.000
    C78      C        0.24332    0.19308    0.22287    1.000
    C79      C        0.22883    0.20627    0.12817    1.000
    C80      C        0.20808    0.22943    0.15377    1.000
    C81      C        0.18813    0.33907    0.54347    1.000
    N9       N        0.23520    0.19817    0.01787    1.000
    I25      I        0.20194    0.23338    0.52292    1.000
    I26      I        0.27629    0.16039    0.19192    1.000
    I27      I        0.18425    0.24948    0.01941    1.000
    Nd10     Nd       0.62026    0.85017    0.32506    1.000
    O55      O        0.58944    0.77490    0.37220    1.000
    O56      O        0.64059    0.75742    0.36210    1.000
    O57      O        0.55206    0.59488    0.19340    1.000
    O58      O        0.48773    0.58559    0.18340    1.000
    O59      O        0.65917    0.82550    0.21150    1.000
    O60      O        0.70170    0.80950    0.12230    1.000
    C82      C        0.60345    0.74974    0.37650    1.000
    C83      C        0.57249    0.70326    0.40170    1.000
    C84      C        0.55714    0.67443    0.31150    1.000
    C85      C        0.53451    0.63088    0.33120    1.000
    C86      C        0.52330    0.60078    0.22990    1.000
    C87      C        0.52641    0.61642    0.44380    1.000
    C88      C        0.53960    0.64410    0.53850    1.000
    C89      C        0.56276    0.68801    0.51290    1.000
    C90      C        0.67240    0.81760    0.12320    1.000
    N10      N        0.53150    0.62963    0.64880    1.000
    I28      I        0.56671    0.69810    0.14375    1.000
    I29      I        0.49373    0.55077    0.47475    1.000
    I30      I        0.58281    0.73190    0.64726    1.000
    Nd11     Nd       0.28693    0.18350    0.65839    1.000
    O61      O        0.25611    0.10823    0.70553    1.000
    O62      O        0.30726    0.09075    0.69543    1.000
    O63      O        0.21873    0.92821    0.52673    1.000
    O64      O        0.15440    0.91892    0.51673    1.000
    O65      O        0.32584    0.15883    0.54483    1.000
    O66      O        0.36837    0.14283    0.45563    1.000
    C91      C        0.27012    0.08307    0.70983    1.000
    C92      C        0.23916    0.03659    0.73503    1.000
    C93      C        0.22381    0.00776    0.64483    1.000
    C94      C        0.20118    0.96421    0.66453    1.000
    C95      C        0.18997    0.93411    0.56323    1.000
    C96      C        0.19308    0.94975    0.77713    1.000
    C97      C        0.20627    0.97743    0.87183    1.000
    C98      C        0.22943    0.02134    0.84623    1.000
    C99      C        0.33907    0.15093    0.45653    1.000
    N11      N        0.19817    0.96296    0.98213    1.000
    I31      I        0.23338    0.03144    0.47708    1.000
    I32      I        0.16039    0.88411    0.80808    1.000
    I33      I        0.24948    0.06523    0.98059    1.000
    Nd12     Nd       0.95359    0.51683    0.99173    1.000
    O67      O        0.92277    0.44157    0.03887    1.000
    O68      O        0.97392    0.42409    0.02877    1.000
    O69      O        0.88539    0.26155    0.86007    1.000
    O70      O        0.82106    0.25226    0.85007    1.000
    O71      O        0.99250    0.49217    0.87817    1.000
    O72      O        0.03503    0.47617    0.78897    1.000
    C100     C        0.93678    0.41641    0.04317    1.000
    C101     C        0.90582    0.36993    0.06837    1.000
    C102     C        0.89047    0.34110    0.97817    1.000
    C103     C        0.86784    0.29755    0.99787    1.000
    C104     C        0.85663    0.26745    0.89657    1.000
    C105     C        0.85974    0.28309    0.11047    1.000
    C106     C        0.87293    0.31077    0.20517    1.000
    C107     C        0.89609    0.35468    0.17957    1.000
    C108     C        0.00573    0.48427    0.78987    1.000
    N12      N        0.86483    0.29630    0.31547    1.000
    I34      I        0.90004    0.36477    0.81042    1.000
    I35      I        0.82706    0.21744    0.14142    1.000
    I36      I        0.91614    0.39856    0.31393    1.000
    Nd13     Nd       0.14983    0.77010    0.32506    1.000
    O73      O        0.22510    0.81454    0.37220    1.000
    O74      O        0.24258    0.88317    0.36210    1.000
    O75      O        0.40512    0.95718    0.19340    1.000
    O76      O        0.41441    0.90214    0.18340    1.000
    O77      O        0.17450    0.83367    0.21150    1.000
    O78      O        0.19050    0.89220    0.12230    1.000
    C109     C        0.25026    0.85371    0.37650    1.000
    C110     C        0.29674    0.86923    0.40170    1.000
    C111     C        0.32557    0.88271    0.31150    1.000
    C112     C        0.36912    0.90363    0.33120    1.000
    C113     C        0.39922    0.92252    0.22990    1.000
    C114     C        0.38358    0.90999    0.44380    1.000
    C115     C        0.35590    0.89550    0.53850    1.000
    C116     C        0.31199    0.87475    0.51290    1.000
    C117     C        0.18240    0.85480    0.12320    1.000
    N13      N        0.37037    0.90187    0.64880    1.000
    I37      I        0.30190    0.86861    0.14375    1.000
    I38      I        0.44923    0.94295    0.47475    1.000
    I39      I        0.26810    0.85091    0.64726    1.000
    Nd14     Nd       0.81650    0.10343    0.65839    1.000
    O79      O        0.89177    0.14787    0.70553    1.000
    O80      O        0.90925    0.21650    0.69543    1.000
    O81      O        0.07179    0.29051    0.52673    1.000
    O82      O        0.08108    0.23547    0.51673    1.000
    O83      O        0.84117    0.16700    0.54483    1.000
    O84      O        0.85717    0.22553    0.45563    1.000
    C118     C        0.91693    0.18704    0.70983    1.000
    C119     C        0.96341    0.20256    0.73503    1.000
    C120     C        0.99224    0.21604    0.64483    1.000
    C121     C        0.03579    0.23696    0.66453    1.000
    C122     C        0.06589    0.25585    0.56323    1.000
    C123     C        0.05025    0.24332    0.77713    1.000
    C124     C        0.02257    0.22883    0.87183    1.000
    C125     C        0.97866    0.20808    0.84623    1.000
    C126     C        0.84907    0.18813    0.45653    1.000
    N14      N        0.03704    0.23520    0.98213    1.000
    I40      I        0.96856    0.20194    0.47708    1.000
    I41      I        0.11589    0.27629    0.80808    1.000
    I42      I        0.93477    0.18425    0.98059    1.000
    Nd15     Nd       0.48317    0.43676    0.99173    1.000
    O85      O        0.55843    0.48121    0.03887    1.000
    O86      O        0.57591    0.54984    0.02877    1.000
    O87      O        0.73845    0.62385    0.86007    1.000
    O88      O        0.74774    0.56881    0.85007    1.000
    O89      O        0.50783    0.50034    0.87817    1.000
    O90      O        0.52383    0.55887    0.78897    1.000
    C127     C        0.58359    0.52038    0.04317    1.000
    C128     C        0.63007    0.53590    0.06837    1.000
    C129     C        0.65890    0.54938    0.97817    1.000
    C130     C        0.70245    0.57030    0.99787    1.000
    C131     C        0.73255    0.58919    0.89657    1.000
    C132     C        0.71691    0.57666    0.11047    1.000
    C133     C        0.68923    0.56217    0.20517    1.000
    C134     C        0.64532    0.54142    0.17957    1.000
    C135     C        0.51573    0.52147    0.78987    1.000
    N15      N        0.70370    0.56854    0.31547    1.000
    I43      I        0.63523    0.53527    0.81042    1.000
    I44      I        0.78256    0.60962    0.14142    1.000
    I45      I        0.60144    0.51758    0.31393    1.000
    Nd16     Nd       0.22990    0.37974    0.32506    1.000
    O91      O        0.18546    0.41056    0.37220    1.000
    O92      O        0.11683    0.35941    0.36210    1.000
    O93      O        0.04282    0.44794    0.19340    1.000
    O94      O        0.09786    0.51227    0.18340    1.000
    O95      O        0.16633    0.34083    0.21150    1.000
    O96      O        0.10780    0.29830    0.12230    1.000
    C136     C        0.14629    0.39655    0.37650    1.000
    C137     C        0.13077    0.42751    0.40170    1.000
    C138     C        0.11729    0.44286    0.31150    1.000
    C139     C        0.09637    0.46549    0.33120    1.000
    C140     C        0.07748    0.47670    0.22990    1.000
    C141     C        0.09001    0.47359    0.44380    1.000
    C142     C        0.10450    0.46040    0.53850    1.000
    C143     C        0.12525    0.43724    0.51290    1.000
    C144     C        0.14520    0.32760    0.12320    1.000
    N16      N        0.09813    0.46850    0.64880    1.000
    I46      I        0.13139    0.43329    0.14375    1.000
    I47      I        0.05705    0.50627    0.47475    1.000
    I48      I        0.14909    0.41719    0.64726    1.000
    Nd17     Nd       0.89657    0.71307    0.65839    1.000
    O97      O        0.85213    0.74389    0.70553    1.000
    O98      O        0.78350    0.69274    0.69543    1.000
    O99      O        0.70949    0.78127    0.52673    1.000
    O100     O        0.76453    0.84560    0.51673    1.000
    O101     O        0.83300    0.67416    0.54483    1.000
    O102     O        0.77447    0.63163    0.45563    1.000
    C145     C        0.81296    0.72988    0.70983    1.000
    C146     C        0.79744    0.76084    0.73503    1.000
    C147     C        0.78396    0.77619    0.64483    1.000
    C148     C        0.76304    0.79882    0.66453    1.000
    C149     C        0.74415    0.81003    0.56323    1.000
    C150     C        0.75668    0.80692    0.77713    1.000
    C151     C        0.77117    0.79373    0.87183    1.000
    C152     C        0.79192    0.77057    0.84623    1.000
    C153     C        0.81187    0.66093    0.45653    1.000
    N17      N        0.76480    0.80183    0.98213    1.000
    I49      I        0.79806    0.76662    0.47708    1.000
    I50      I        0.72371    0.83961    0.80808    1.000
    I51      I        0.81575    0.75052    0.98059    1.000
    Nd18     Nd       0.56324    0.04641    0.99173    1.000
    O103     O        0.51879    0.07723    0.03887    1.000
    O104     O        0.45016    0.02608    0.02877    1.000
    O105     O        0.37615    0.11461    0.86007    1.000
    O106     O        0.43119    0.17894    0.85007    1.000
    O107     O        0.49966    0.00750    0.87817    1.000
    O108     O        0.44113    0.96497    0.78897    1.000
    C154     C        0.47962    0.06322    0.04317    1.000
    C155     C        0.46410    0.09418    0.06837    1.000
    C156     C        0.45062    0.10953    0.97817    1.000
    C157     C        0.42970    0.13216    0.99787    1.000
    C158     C        0.41081    0.14337    0.89657    1.000
    C159     C        0.42334    0.14026    0.11047    1.000
    C160     C        0.43783    0.12707    0.20517    1.000
    C161     C        0.45858    0.10391    0.17957    1.000
    C162     C        0.47853    0.99427    0.78987    1.000
    N18      N        0.43146    0.13517    0.31547    1.000
    I52      I        0.46473    0.09996    0.81042    1.000
    I53      I        0.39038    0.17294    0.14142    1.000
    I54      I        0.48242    0.08386    0.31393    1.000
