data_functionalizedCrystal
_audit_creation_method	'EQeq! by Chris Wilmer'
_symmetry_space_group_name_H-M	'P1'
_symmetry_Int_Tables_number	1
_symmetry_cell_setting	triclinic
loop_
_symmetry_equiv_pos_as_xyz
  x,y,z
_cell_length_a	10.1751
_cell_length_b	10.1751
_cell_length_c	23.7722
_cell_angle_alpha	90
_cell_angle_beta	90
_cell_angle_gamma	120
loop_
_atom_site_label
_atom_site_type_symbol
_atom_site_fract_x
_atom_site_fract_y
_atom_site_fract_z
_atom_site_charge
Mof_O 	O 	0.8755	0.2727	0.1894	-0.349
Mof_O 	O 	0.9317	0.5046	0.1916	-0.351
Mof_C 	C 	0.9187	0.3817	0.1037	-0.074
Mof_C 	C 	0.0652	0.4344	0.1023	0.064
Mof_C 	C 	0.1356	0.5229	0.0582	-0.011
Mof_C 	C 	0.0762	0.46	0.0017	0
Mof_C 	C 	0.8469	0.366	0.049	0.019
Mof_C 	C 	0.8603	0.3762	0.1662	0.317
Mof_O 	O 	0.7273	0.6028	0.1894	-0.35
Mof_O 	O 	0.4954	0.4271	0.1916	-0.352
Mof_C 	C 	0.6183	0.537	0.1037	-0.076
Mof_C 	C 	0.5656	0.6308	0.1023	0.064
Mof_C 	C 	0.4771	0.6127	0.0582	-0.011
Mof_C 	C 	0.54	0.6162	0.0017	0
Mof_C 	C 	0.634	0.4809	0.049	0.019
Mof_C 	C 	0.6238	0.4841	0.1662	0.317
Mof_O 	O 	0.3972	0.1245	0.1894	-0.35
Mof_O 	O 	0.5729	0.0683	0.1916	-0.352
Mof_C 	C 	0.463	0.0813	0.1037	-0.075
Mof_C 	C 	0.3692	0.9348	0.1023	0.063
Mof_C 	C 	0.3873	0.8644	0.0582	-0.011
Mof_C 	C 	0.3838	0.9238	0.0017	0
Mof_C 	C 	0.5191	0.1531	0.049	0.019
Mof_C 	C 	0.5159	0.1397	0.1662	0.317
Mof_O 	O 	0.8755	0.2727	0.3106	-0.35
Mof_O 	O 	0.9317	0.5046	0.3084	-0.352
Mof_C 	C 	0.9187	0.3817	0.3963	-0.075
Mof_C 	C 	0.0652	0.4344	0.3977	0.064
Mof_C 	C 	0.1356	0.5229	0.4418	-0.011
Mof_C 	C 	0.0762	0.46	0.4983	0
Mof_C 	C 	0.8469	0.366	0.451	0.019
Mof_C 	C 	0.8603	0.3762	0.3338	0.317
Mof_O 	O 	0.7273	0.6028	0.3106	-0.35
Mof_O 	O 	0.4954	0.4271	0.3084	-0.352
Mof_C 	C 	0.6183	0.537	0.3963	-0.076
Mof_C 	C 	0.5656	0.6308	0.3977	0.064
Mof_C 	C 	0.4771	0.6127	0.4418	-0.011
Mof_C 	C 	0.54	0.6162	0.4983	0
Mof_C 	C 	0.634	0.4809	0.451	0.019
Mof_C 	C 	0.6238	0.4841	0.3338	0.317
Mof_O 	O 	0.3972	0.1245	0.3106	-0.35
Mof_O 	O 	0.5729	0.0683	0.3084	-0.352
Mof_C 	C 	0.463	0.0813	0.3963	-0.075
Mof_C 	C 	0.3692	0.9348	0.3977	0.064
Mof_C 	C 	0.3873	0.8644	0.4418	-0.011
Mof_C 	C 	0.3838	0.9238	0.4983	0
Mof_C 	C 	0.5191	0.1531	0.451	0.019
Mof_C 	C 	0.5159	0.1397	0.3338	0.317
Mof_O 	O 	0.2727	0.8755	0.8106	-0.35
Mof_O 	O 	0.5046	0.9317	0.8084	-0.352
Mof_C 	C 	0.3817	0.9187	0.8963	-0.075
Mof_C 	C 	0.4344	0.0652	0.8977	0.063
Mof_C 	C 	0.5229	0.1356	0.9418	-0.011
Mof_C 	C 	0.46	0.0762	0.9983	0
Mof_C 	C 	0.366	0.8469	0.951	0.019
Mof_C 	C 	0.3762	0.8603	0.8338	0.317
Mof_O 	O 	0.6028	0.7273	0.8106	-0.35
Mof_O 	O 	0.4271	0.4954	0.8084	-0.352
Mof_C 	C 	0.537	0.6183	0.8963	-0.076
Mof_C 	C 	0.6308	0.5656	0.8977	0.064
Mof_C 	C 	0.6127	0.4771	0.9418	-0.011
Mof_C 	C 	0.6162	0.54	0.9983	0
Mof_C 	C 	0.4809	0.634	0.951	0.019
Mof_C 	C 	0.4841	0.6238	0.8338	0.317
Mof_O 	O 	0.1245	0.3972	0.8106	-0.35
Mof_O 	O 	0.0683	0.5729	0.8084	-0.352
Mof_C 	C 	0.0813	0.463	0.8963	-0.075
Mof_C 	C 	0.9348	0.3692	0.8977	0.063
Mof_C 	C 	0.8644	0.3873	0.9418	-0.011
Mof_C 	C 	0.9238	0.3838	0.9983	0
Mof_C 	C 	0.1531	0.5191	0.951	0.019
Mof_C 	C 	0.1397	0.5159	0.8338	0.317
Mof_O 	O 	0.2727	0.8755	0.6894	-0.35
Mof_O 	O 	0.5046	0.9317	0.6916	-0.352
Mof_C 	C 	0.3817	0.9187	0.6037	-0.075
Mof_C 	C 	0.4344	0.0652	0.6023	0.064
Mof_C 	C 	0.5229	0.1356	0.5582	-0.011
Mof_C 	C 	0.46	0.0762	0.5017	0
Mof_C 	C 	0.366	0.8469	0.549	0.019
Mof_C 	C 	0.3762	0.8603	0.6662	0.317
Mof_O 	O 	0.6028	0.7273	0.6894	-0.35
Mof_O 	O 	0.4271	0.4954	0.6916	-0.352
Mof_C 	C 	0.537	0.6183	0.6037	-0.076
Mof_C 	C 	0.6308	0.5656	0.6023	0.064
Mof_C 	C 	0.6127	0.4771	0.5582	-0.011
Mof_C 	C 	0.6162	0.54	0.5017	0
Mof_C 	C 	0.4809	0.634	0.549	0.019
Mof_C 	C 	0.4841	0.6238	0.6662	0.317
Mof_O 	O 	0.1245	0.3972	0.6894	-0.35
Mof_O 	O 	0.0683	0.5729	0.6916	-0.352
Mof_C 	C 	0.0813	0.463	0.6037	-0.075
Mof_C 	C 	0.9348	0.3692	0.6023	0.064
Mof_C 	C 	0.8644	0.3873	0.5582	-0.011
Mof_C 	C 	0.9238	0.3838	0.5017	0
Mof_C 	C 	0.1531	0.5191	0.549	0.019
Mof_C 	C 	0.1397	0.5159	0.6662	0.317
Mof_Fe	Fe	0.7271	0.1639	0.25	0.921
Mof_Fe	Fe	0.8361	0.5632	0.25	0.921
Mof_Fe	Fe	0.4368	0.2729	0.25	0.921
Mof_Fe	Fe	0.1639	0.7271	0.75	0.921
Mof_Fe	Fe	0.5632	0.8361	0.75	0.921
Mof_Fe	Fe	0.2729	0.4368	0.75	0.921
Mof_O 	O 	0.66667	0.33333	0.25	-0.433
Mof_O 	O 	0.33333	0.66667	0.75	-0.433
_end
