data_functionalizedCrystal
_audit_creation_method	'EQeq! by Chris Wilmer'
_symmetry_space_group_name_H-M	'P1'
_symmetry_Int_Tables_number	1
_symmetry_cell_setting	triclinic
loop_
_symmetry_equiv_pos_as_xyz
  x,y,z
_cell_length_a	22.535
_cell_length_b	22.535
_cell_length_c	29.635
_cell_angle_alpha	90
_cell_angle_beta	90
_cell_angle_gamma	120
loop_
_atom_site_label
_atom_site_type_symbol
_atom_site_fract_x
_atom_site_fract_y
_atom_site_fract_z
_atom_site_charge
Mof_Cu	Cu	0.25903	0.45235	0.72259	0.925
Mof_Cu	Cu	0.22002	0.06155	0.64952	0.905
Mof_C 	C 	0.3451	0.415	0.68	0.481
Mof_C 	C 	0.4049	0.4025	0.6738	-0.652
Mof_H 	H 	0.4411	0.4408	0.6575	0.237
Mof_H 	H 	0.4227	0.4006	0.7033	0.229
Mof_C 	C 	0.3853	0.3369	0.6485	0.51
Mof_H 	H 	0.3655	0.3385	0.6195	-0.09
Mof_C 	C 	0.3318	0.2738	0.6744	-0.657
Mof_H 	H 	0.3531	0.2684	0.7013	0.23
Mof_H 	H 	0.2954	0.282	0.684	0.236
Mof_C 	C 	0.3004	0.2074	0.6478	0.52
Mof_C 	C 	0.448	0.3277	0.6393	-0.623
Mof_H 	H 	0.4706	0.3298	0.6676	0.218
Mof_H 	H 	0.4325	0.283	0.626	0.234
Mof_C 	C 	0.4985	0.3824	0.6078	0.456
Mof_C 	C 	0.2922	0.5405	0.65078	0.462
Mof_C 	C 	0.3407	0.6056	0.62509	-0.605
Mof_H 	H 	0.3305	0.5986	0.5931	0.211
Mof_H 	H 	0.3875	0.6159	0.6294	0.228
Mof_C 	C 	0.1292	0.0657	0.7073	0.46
Mof_C 	C 	0.064	0.0647	0.7213	-0.599
Mof_H 	H 	0.0643	0.1049	0.7094	0.22
Mof_H 	H 	0.0623	0.0664	0.754	0.207
Mof_C 	C 	0.2052	0.3059	0.7505	0.082
Mof_H 	H 	0.2501	0.3151	0.7479	-0.001
Mof_C 	C 	0.1545	0.2403	0.7617	-0.14
Mof_H 	H 	0.1654	0.2061	0.7666	0.079
Mof_C 	C 	0.0888	0.2264	0.7654	0.046
Mof_H 	H 	0.0542	0.1824	0.7728	0.019
Mof_C 	C 	0.0733	0.2781	0.7583	-0.114
Mof_H 	H 	0.0283	0.2692	0.7601	0.07
Mof_C 	C 	0.1268	0.3437	0.7483	0.047
Mof_C 	C 	0.1176	0.404	0.743	0.065
Mof_C 	C 	0.058	0.4024	0.7519	-0.132
Mof_H 	H 	0.0197	0.3624	0.7619	0.077
Mof_C 	C 	0.0559	0.4635	0.7457	0.069
Mof_H 	H 	0.0154	0.4639	0.7509	0.005
Mof_C 	C 	0.1132	0.5217	0.7321	-0.162
Mof_H 	H 	0.1129	0.5626	0.7288	0.101
Mof_C 	C 	0.1715	0.5184	0.7234	0.09
Mof_H 	H 	0.2105	0.5576	0.7134	-0.001
Mof_C 	C 	0.3613	0.0782	0.651	0.111
Mof_H 	H 	0.3778	0.1248	0.6548	-0.009
Mof_C 	C 	0.4081	0.0544	0.649	-0.208
Mof_H 	H 	0.4548	0.0844	0.6525	0.114
Mof_C 	C 	0.3835	0.9864	0.6418	0.131
Mof_H 	H 	0.4141	0.9702	0.639	-0.01
Mof_C 	C 	0.3143	0.9412	0.6388	-0.176
Mof_H 	H 	0.2973	0.8945	0.6349	0.105
Mof_C 	C 	0.2709	0.9683	0.6417	0.087
Mof_C 	C 	0.1965	0.926	0.6359	0.04
Mof_C 	C 	0.1615	0.856	0.6293	-0.101
Mof_H 	H 	0.1848	0.8316	0.6303	0.077
Mof_C 	C 	0.0908	0.8218	0.621	0.025
Mof_H 	H 	0.0666	0.7746	0.6163	0.046
Mof_C 	C 	0.058	0.8594	0.62	-0.111
Mof_H 	H 	0.0112	0.8384	0.6143	0.083
Mof_C 	C 	0.0968	0.9302	0.6277	0.059
Mof_H 	H 	0.0746	0.9556	0.6273	0.018
Mof_N 	N 	0.1918	0.3567	0.74313	-0.214
Mof_N 	N 	0.1742	0.4611	0.72879	-0.218
Mof_N 	N 	0.2936	0.0357	0.6476	-0.238
Mof_N 	N 	0.1637	0.9624	0.6353	-0.218
Mof_O 	O 	0.3356	0.4338	0.71905	-0.421
Mof_O 	O 	0.3084	0.4075	0.6478	-0.339
Mof_O 	O 	0.2826	0.1543	0.6689	-0.462
Mof_O 	O 	0.2918	0.2081	0.6063	-0.338
Mof_O 	O 	0.5531	0.431	0.6226	-0.367
Mof_O 	O 	0.4829	0.3772	0.5657	-0.403
Mof_O 	O 	0.3121	0.53886	0.69144	-0.425
Mof_O 	O 	0.238	0.4952	0.634	-0.339
Mof_O 	O 	0.1399	0.0686	0.66488	-0.431
Mof_O 	O 	0.1676	0.062	0.73585	-0.346
Mof_Cu	Cu	0.54403	0.10754	0.5402	0.915
Mof_C 	C 	0.62403	0.20427	0.48493	0.492
Mof_C 	C 	0.67293	0.27247	0.46408	-0.672
Mof_H 	H 	0.66593	0.26887	0.43167	0.233
Mof_H 	H 	0.71933	0.28207	0.46967	0.244
Mof_C 	C 	0.50273	0.95997	0.54697	0.103
Mof_H 	H 	0.54933	0.97557	0.54927	0.009
Mof_C 	C 	0.45623	0.88887	0.54927	-0.168
Mof_H 	H 	0.47113	0.85727	0.55207	0.091
Mof_C 	C 	0.38803	0.86897	0.54727	0.098
Mof_H 	H 	0.35553	0.82297	0.55097	-0.005
Mof_C 	C 	0.36733	0.91367	0.54007	-0.167
Mof_H 	H 	0.32083	0.89887	0.53717	0.093
Mof_C 	C 	0.41573	0.98297	0.53707	0.1
Mof_C 	C 	0.40043	0.03807	0.53277	0.03
Mof_C 	C 	0.33063	0.02797	0.52977	-0.143
Mof_H 	H 	0.29303	0.98387	0.52947	0.084
Mof_C 	C 	0.32163	0.07817	0.52777	0.058
Mof_H 	H 	0.27713	0.07047	0.52567	-0
Mof_C 	C 	0.38183	0.15277	0.52857	-0.136
Mof_H 	H 	0.37623	0.19097	0.52827	0.092
Mof_C 	C 	0.44593	0.15647	0.52967	0.084
Mof_H 	H 	0.48483	0.19967	0.52847	0.004
Mof_N 	N 	0.48213	0.00557	0.54177	-0.241
Mof_N 	N 	0.45463	0.10337	0.53237	-0.22
Mof_O 	O 	0.60983	0.14957	0.46491	-0.433
Mof_O 	O 	0.59863	0.20397	0.52344	-0.418
Mof_Cu	Cu	0.54765	0.80668	0.72259	0.924
Mof_Cu	Cu	0.93845	0.15847	0.64952	0.907
Mof_C 	C 	0.585	0.9301	0.68	0.493
Mof_C 	C 	0.5975	0.0024	0.6738	-0.669
Mof_H 	H 	0.5592	0.0003	0.6575	0.237
Mof_H 	H 	0.5994	0.0221	0.7033	0.23
Mof_C 	C 	0.6631	0.0484	0.6485	0.514
Mof_H 	H 	0.6615	0.027	0.6195	-0.094
Mof_C 	C 	0.7262	0.058	0.6744	-0.658
Mof_H 	H 	0.7316	0.0847	0.7013	0.229
Mof_H 	H 	0.718	0.0134	0.684	0.232
Mof_C 	C 	0.7926	0.093	0.6478	0.519
Mof_C 	C 	0.6723	0.1203	0.6393	-0.627
Mof_H 	H 	0.6702	0.1408	0.6676	0.219
Mof_H 	H 	0.717	0.1495	0.626	0.235
Mof_C 	C 	0.6176	0.1161	0.6078	0.457
Mof_C 	C 	0.4595	0.7517	0.65078	0.463
Mof_C 	C 	0.3944	0.7351	0.62509	-0.605
Mof_H 	H 	0.4014	0.7319	0.5931	0.211
Mof_H 	H 	0.3841	0.7716	0.6294	0.228
Mof_C 	C 	0.9343	0.0635	0.7073	0.447
Mof_C 	C 	0.9353	0.9993	0.7213	-0.571
Mof_H 	H 	0.8951	0.9594	0.7094	0.215
Mof_H 	H 	0.9336	0.9959	0.754	0.206
Mof_C 	C 	0.6941	0.8993	0.7505	0.082
Mof_H 	H 	0.6849	0.935	0.7479	0.001
Mof_C 	C 	0.7597	0.9142	0.7617	-0.139
Mof_H 	H 	0.7939	0.9593	0.7666	0.082
Mof_C 	C 	0.7736	0.8624	0.7654	0.047
Mof_H 	H 	0.8176	0.8718	0.7728	0.021
Mof_C 	C 	0.7219	0.7952	0.7583	-0.114
Mof_H 	H 	0.7308	0.7591	0.7601	0.071
Mof_C 	C 	0.6563	0.7831	0.7483	0.047
Mof_C 	C 	0.596	0.7136	0.743	0.065
Mof_C 	C 	0.5976	0.6556	0.7519	-0.132
Mof_H 	H 	0.6376	0.6573	0.7619	0.078
Mof_C 	C 	0.5365	0.5924	0.7457	0.07
Mof_H 	H 	0.5361	0.5515	0.7509	0.006
Mof_C 	C 	0.4783	0.5915	0.7321	-0.162
Mof_H 	H 	0.4374	0.5503	0.7288	0.101
Mof_C 	C 	0.4816	0.6531	0.7234	0.09
Mof_H 	H 	0.4424	0.6529	0.7134	-0.001
Mof_C 	C 	0.9218	0.2831	0.651	0.09
Mof_H 	H 	0.8752	0.253	0.6548	-0.001
Mof_C 	C 	0.9456	0.3537	0.649	-0.157
Mof_H 	H 	0.9156	0.3704	0.6525	0.099
Mof_C 	C 	0.0136	0.3971	0.6418	0.077
Mof_H 	H 	0.0298	0.4439	0.639	0.006
Mof_C 	C 	0.0588	0.3731	0.6388	-0.142
Mof_H 	H 	0.1055	0.4028	0.6349	0.093
Mof_C 	C 	0.0317	0.3026	0.6417	0.06
Mof_C 	C 	0.074	0.2705	0.6359	0.048
Mof_C 	C 	0.144	0.3055	0.6293	-0.108
Mof_H 	H 	0.1684	0.3532	0.6303	0.08
Mof_C 	C 	0.1782	0.269	0.621	0.03
Mof_H 	H 	0.2254	0.292	0.6163	0.045
Mof_C 	C 	0.1406	0.1986	0.62	-0.115
Mof_H 	H 	0.1616	0.1728	0.6143	0.085
Mof_C 	C 	0.0698	0.1666	0.6277	0.06
Mof_H 	H 	0.0444	0.119	0.6273	0.012
Mof_N 	N 	0.6433	0.8351	0.74313	-0.214
Mof_N 	N 	0.5389	0.7131	0.72879	-0.218
Mof_N 	N 	0.9643	0.2579	0.6476	-0.222
Mof_N 	N 	0.0376	0.2013	0.6353	-0.224
Mof_O 	O 	0.5662	0.9018	0.71905	-0.422
Mof_O 	O 	0.5925	0.9009	0.6478	-0.34
Mof_O 	O 	0.8457	0.1283	0.6689	-0.462
Mof_O 	O 	0.7919	0.0837	0.6063	-0.34
Mof_O 	O 	0.569	0.1221	0.6226	-0.369
Mof_O 	O 	0.6228	0.1057	0.5657	-0.405
Mof_O 	O 	0.46114	0.77324	0.69144	-0.425
Mof_O 	O 	0.5048	0.7428	0.634	-0.339
Mof_O 	O 	0.9314	0.0713	0.66488	-0.427
Mof_O 	O 	0.938	0.1056	0.73585	-0.339
Mof_Cu	Cu	0.89246	0.4365	0.5402	0.916
Mof_C 	C 	0.79573	0.41977	0.48493	0.491
Mof_C 	C 	0.72753	0.40047	0.46408	-0.671
Mof_H 	H 	0.73113	0.39707	0.43167	0.233
Mof_H 	H 	0.71793	0.43727	0.46967	0.244
Mof_C 	C 	0.04003	0.54277	0.54697	0.077
Mof_H 	H 	0.02443	0.57377	0.54927	0.013
Mof_C 	C 	0.11113	0.56737	0.54927	-0.145
Mof_H 	H 	0.14273	0.61387	0.55207	0.082
Mof_C 	C 	0.13103	0.51907	0.54727	0.072
Mof_H 	H 	0.17703	0.53257	0.55097	0.004
Mof_C 	C 	0.08633	0.45367	0.54007	-0.142
Mof_H 	H 	0.10113	0.42197	0.53717	0.083
Mof_C 	C 	0.01703	0.43277	0.53707	0.069
Mof_C 	C 	0.96193	0.36237	0.53277	0.039
Mof_C 	C 	0.97203	0.30267	0.52977	-0.106
Mof_H 	H 	0.01613	0.30917	0.52947	0.062
Mof_C 	C 	0.92183	0.24347	0.52777	0.034
Mof_H 	H 	0.92953	0.20667	0.52567	0.011
Mof_C 	C 	0.84723	0.22907	0.52857	-0.125
Mof_H 	H 	0.80903	0.18527	0.52827	0.087
Mof_C 	C 	0.84353	0.28947	0.52967	0.078
Mof_H 	H 	0.80033	0.28517	0.52847	0.006
Mof_N 	N 	0.99443	0.47657	0.54177	-0.221
Mof_N 	N 	0.89663	0.35127	0.53237	-0.219
Mof_O 	O 	0.85043	0.46027	0.46491	-0.432
Mof_O 	O 	0.79603	0.39467	0.52344	-0.417
Mof_Cu	Cu	0.19332	0.74097	0.72259	0.924
Mof_Cu	Cu	0.84153	0.77998	0.64952	0.907
Mof_C 	C 	0.0699	0.6549	0.68	0.477
Mof_C 	C 	0.9976	0.5951	0.6738	-0.649
Mof_H 	H 	0.9997	0.5589	0.6575	0.236
Mof_H 	H 	0.9779	0.5773	0.7033	0.228
Mof_C 	C 	0.9516	0.6147	0.6485	0.507
Mof_H 	H 	0.973	0.6345	0.6195	-0.088
Mof_C 	C 	0.942	0.6682	0.6744	-0.657
Mof_H 	H 	0.9153	0.6469	0.7013	0.231
Mof_H 	H 	0.9866	0.7046	0.684	0.237
Mof_C 	C 	0.907	0.6996	0.6478	0.52
Mof_C 	C 	0.8797	0.552	0.6393	-0.622
Mof_H 	H 	0.8592	0.5294	0.6676	0.218
Mof_H 	H 	0.8505	0.5675	0.626	0.234
Mof_C 	C 	0.8839	0.5015	0.6078	0.456
Mof_C 	C 	0.2483	0.7078	0.65078	0.463
Mof_C 	C 	0.2649	0.6593	0.62509	-0.605
Mof_H 	H 	0.2681	0.6695	0.5931	0.211
Mof_H 	H 	0.2284	0.6125	0.6294	0.228
Mof_C 	C 	0.9365	0.8708	0.7073	0.461
Mof_C 	C 	0.0007	0.936	0.7213	-0.591
Mof_H 	H 	0.0406	0.9357	0.7094	0.221
Mof_H 	H 	0.0041	0.9377	0.754	0.21
Mof_C 	C 	0.1007	0.7948	0.7505	0.082
Mof_H 	H 	0.065	0.7499	0.7479	-0.002
Mof_C 	C 	0.0858	0.8455	0.7617	-0.139
Mof_H 	H 	0.0407	0.8346	0.7666	0.079
Mof_C 	C 	0.1376	0.9112	0.7654	0.046
Mof_H 	H 	0.1282	0.9458	0.7728	0.022
Mof_C 	C 	0.2048	0.9267	0.7583	-0.113
Mof_H 	H 	0.2409	0.9717	0.7601	0.074
Mof_C 	C 	0.2169	0.8732	0.7483	0.047
Mof_C 	C 	0.2864	0.8824	0.743	0.065
Mof_C 	C 	0.3444	0.942	0.7519	-0.132
Mof_H 	H 	0.3427	0.9803	0.7619	0.081
Mof_C 	C 	0.4076	0.9441	0.7457	0.07
Mof_H 	H 	0.4485	0.9846	0.7509	0.009
Mof_C 	C 	0.4085	0.8868	0.7321	-0.162
Mof_H 	H 	0.4497	0.8871	0.7288	0.102
Mof_C 	C 	0.3469	0.8285	0.7234	0.09
Mof_H 	H 	0.3471	0.7895	0.7134	-0.001
Mof_C 	C 	0.7169	0.6387	0.651	0.095
Mof_H 	H 	0.747	0.6222	0.6548	-0.003
Mof_C 	C 	0.6463	0.5919	0.649	-0.167
Mof_H 	H 	0.6296	0.5452	0.6525	0.102
Mof_C 	C 	0.6029	0.6165	0.6418	0.087
Mof_H 	H 	0.5561	0.5859	0.639	0.003
Mof_C 	C 	0.6269	0.6857	0.6388	-0.149
Mof_H 	H 	0.5972	0.7027	0.6349	0.095
Mof_C 	C 	0.6974	0.7291	0.6417	0.066
Mof_C 	C 	0.7295	0.8035	0.6359	0.047
Mof_C 	C 	0.6945	0.8385	0.6293	-0.106
Mof_H 	H 	0.6468	0.8152	0.6303	0.08
Mof_C 	C 	0.731	0.9092	0.621	0.029
Mof_H 	H 	0.708	0.9334	0.6163	0.048
Mof_C 	C 	0.8014	0.942	0.62	-0.113
Mof_H 	H 	0.8272	0.9888	0.6143	0.089
Mof_C 	C 	0.8334	0.9032	0.6277	0.061
Mof_H 	H 	0.881	0.9254	0.6273	0.017
Mof_N 	N 	0.1649	0.8082	0.74313	-0.214
Mof_N 	N 	0.2869	0.8258	0.72879	-0.218
Mof_N 	N 	0.7421	0.7064	0.6476	-0.225
Mof_N 	N 	0.7987	0.8363	0.6353	-0.223
Mof_O 	O 	0.0982	0.6644	0.71905	-0.421
Mof_O 	O 	0.0991	0.6916	0.6478	-0.339
Mof_O 	O 	0.8717	0.7174	0.6689	-0.461
Mof_O 	O 	0.9163	0.7082	0.6063	-0.336
Mof_O 	O 	0.8779	0.4469	0.6226	-0.366
Mof_O 	O 	0.8943	0.5171	0.5657	-0.403
Mof_O 	O 	0.22676	0.6879	0.69144	-0.425
Mof_O 	O 	0.2572	0.762	0.634	-0.339
Mof_O 	O 	0.9287	0.8601	0.66488	-0.426
Mof_O 	O 	0.8944	0.8324	0.73585	-0.341
Mof_Cu	Cu	0.5635	0.45597	0.5402	0.916
Mof_C 	C 	0.58023	0.37597	0.48493	0.491
Mof_C 	C 	0.59953	0.32707	0.46408	-0.671
Mof_H 	H 	0.60293	0.33407	0.43167	0.233
Mof_H 	H 	0.56273	0.28067	0.46967	0.244
Mof_C 	C 	0.45723	0.49727	0.54697	0.082
Mof_H 	H 	0.42623	0.45067	0.54927	0.012
Mof_C 	C 	0.43263	0.54377	0.54927	-0.15
Mof_H 	H 	0.38613	0.52887	0.55207	0.084
Mof_C 	C 	0.48093	0.61197	0.54727	0.077
Mof_H 	H 	0.46743	0.64447	0.55097	0.002
Mof_C 	C 	0.54633	0.63267	0.54007	-0.147
Mof_H 	H 	0.57803	0.67917	0.53717	0.085
Mof_C 	C 	0.56723	0.58427	0.53707	0.075
Mof_C 	C 	0.63763	0.59957	0.53277	0.037
Mof_C 	C 	0.69733	0.66937	0.52977	-0.113
Mof_H 	H 	0.69083	0.70697	0.52947	0.067
Mof_C 	C 	0.75653	0.67837	0.52777	0.038
Mof_H 	H 	0.79333	0.72287	0.52567	0.01
Mof_C 	C 	0.77093	0.61817	0.52857	-0.127
Mof_H 	H 	0.81473	0.62377	0.52827	0.089
Mof_C 	C 	0.71053	0.55407	0.52967	0.079
Mof_H 	H 	0.71483	0.51517	0.52847	0.005
Mof_N 	N 	0.52343	0.51787	0.54177	-0.225
Mof_N 	N 	0.64873	0.54537	0.53237	-0.219
Mof_O 	O 	0.53973	0.39017	0.46491	-0.432
Mof_O 	O 	0.60533	0.40137	0.52344	-0.417
Mof_C 	C 	0.33333	0.66667	0.6417	0.459
Mof_H 	H 	0.33333	0.66667	0.6748	-0.093
Mof_C 	C 	0.66667	0.33333	0.48097	0.539
Mof_H 	H 	0.66667	0.33333	0.51407	-0.082
Mof_C 	C 	-0	1.54949e-32	0.7042	0.44
Mof_H 	H 	-1.54949e-32	-1.54949e-32	0.6711	-0.085
Mof_Cu	Cu	0.2107	0.44087	0.87353	0.916
Mof_C 	C 	0.2907	0.5376	0.81826	0.492
Mof_C 	C 	0.3396	0.6058	0.79741	-0.672
Mof_H 	H 	0.3326	0.6022	0.765	0.234
Mof_H 	H 	0.386	0.6154	0.803	0.244
Mof_C 	C 	0.1694	0.2933	0.8803	0.085
Mof_H 	H 	0.216	0.3089	0.8826	0.011
Mof_C 	C 	0.1229	0.2222	0.8826	-0.156
Mof_H 	H 	0.1378	0.1906	0.8854	0.086
Mof_C 	C 	0.0547	0.2023	0.8806	0.086
Mof_H 	H 	0.0222	0.1563	0.8843	-0.002
Mof_C 	C 	0.034	0.247	0.8734	-0.159
Mof_H 	H 	0.9875	0.2322	0.8705	0.09
Mof_C 	C 	0.0824	0.3163	0.8704	0.08
Mof_C 	C 	0.0671	0.3714	0.8661	0.033
Mof_C 	C 	0.9973	0.3613	0.8631	-0.108
Mof_H 	H 	0.9597	0.3172	0.8628	0.065
Mof_C 	C 	0.9883	0.4115	0.8611	0.039
Mof_H 	H 	0.9438	0.4038	0.859	0.009
Mof_C 	C 	0.0485	0.4861	0.8619	-0.129
Mof_H 	H 	0.0429	0.5243	0.8616	0.088
Mof_C 	C 	0.1126	0.4898	0.863	0.08
Mof_H 	H 	0.1515	0.533	0.8618	0.005
Mof_N 	N 	0.1488	0.3389	0.8751	-0.226
Mof_N 	N 	0.1213	0.4367	0.8657	-0.219
Mof_O 	O 	0.2765	0.4829	0.79824	-0.432
Mof_O 	O 	0.2653	0.5373	0.85677	-0.418
Mof_Cu	Cu	0.9257	0.78568	0.05592	0.926
Mof_Cu	Cu	0.88669	0.39488	0.98285	0.901
Mof_C 	C 	0.01177	0.74833	0.01333	0.475
Mof_C 	C 	0.07157	0.73583	0.00713	-0.558
Mof_H 	H 	0.10777	0.77413	0.99083	0.197
Mof_H 	H 	0.08937	0.73393	0.03663	0.205
Mof_C 	C 	0.05197	0.67023	0.98183	0.422
Mof_H 	H 	0.03217	0.67183	0.95283	-0.067
Mof_C 	C 	0.99847	0.60713	0.00773	-0.547
Mof_H 	H 	0.01977	0.60173	0.03463	0.2
Mof_H 	H 	0.96207	0.61533	0.01733	0.209
Mof_C 	C 	0.96707	0.54073	0.98113	0.449
Mof_C 	C 	0.11467	0.66103	0.97263	-0.622
Mof_H 	H 	0.13727	0.66313	0.00093	0.234
Mof_H 	H 	0.09917	0.61633	0.95933	0.23
Mof_C 	C 	0.16517	0.71573	0.94113	0.455
Mof_C 	C 	0.95887	0.87383	0.98411	0.422
Mof_C 	C 	0.00737	0.93893	0.95842	-0.536
Mof_H 	H 	0.99717	0.93193	0.92643	0.195
Mof_H 	H 	0.05417	0.94923	0.96273	0.207
Mof_C 	C 	0.79587	0.39903	0.04063	0.496
Mof_C 	C 	0.73067	0.39803	0.05463	-0.639
Mof_H 	H 	0.73097	0.43823	0.04273	0.238
Mof_H 	H 	0.72897	0.39973	0.08733	0.221
Mof_C 	C 	0.87187	0.63923	0.08383	0.085
Mof_H 	H 	0.91677	0.64843	0.08123	0.001
Mof_C 	C 	0.82117	0.57363	0.09503	-0.139
Mof_H 	H 	0.83207	0.53943	0.09993	0.08
Mof_C 	C 	0.75547	0.55973	0.09873	0.049
Mof_H 	H 	0.72087	0.51573	0.10613	0.019
Mof_C 	C 	0.73997	0.61143	0.09163	-0.113
Mof_H 	H 	0.69497	0.60253	0.09343	0.073
Mof_C 	C 	0.79347	0.67703	0.08163	0.05
Mof_C 	C 	0.78427	0.73733	0.07633	0.067
Mof_C 	C 	0.72467	0.73573	0.08523	-0.13
Mof_H 	H 	0.68637	0.69573	0.09523	0.079
Mof_C 	C 	0.72257	0.79683	0.07903	0.071
Mof_H 	H 	0.68207	0.79723	0.08423	0.009
Mof_C 	C 	0.77987	0.85503	0.06543	-0.158
Mof_H 	H 	0.77957	0.89593	0.06213	0.103
Mof_C 	C 	0.83817	0.85173	0.05673	0.092
Mof_H 	H 	0.87717	0.89093	0.04673	0.005
Mof_C 	C 	0.02797	0.41153	0.98433	0.085
Mof_H 	H 	0.04447	0.45813	0.98813	-0.005
Mof_C 	C 	0.07477	0.38773	0.98233	-0.161
Mof_H 	H 	0.12147	0.41773	0.98583	0.097
Mof_C 	C 	0.05017	0.31973	0.97513	0.074
Mof_H 	H 	0.08077	0.30353	0.97233	0.005
Mof_C 	C 	0.98097	0.27453	0.97213	-0.141
Mof_H 	H 	0.96397	0.22783	0.96823	0.09
Mof_C 	C 	0.93757	0.30163	0.97503	0.06
Mof_C 	C 	0.86317	0.25933	0.96923	0.045
Mof_C 	C 	0.82817	0.18933	0.96263	-0.11
Mof_H 	H 	0.85147	0.16493	0.96363	0.078
Mof_C 	C 	0.75747	0.15513	0.95433	0.028
Mof_H 	H 	0.73327	0.10793	0.94963	0.042
Mof_C 	C 	0.72467	0.19273	0.95333	-0.117
Mof_H 	H 	0.67787	0.17173	0.94763	0.084
Mof_C 	C 	0.76347	0.26353	0.96103	0.058
Mof_H 	H 	0.74127	0.28893	0.96063	0.012
Mof_N 	N 	0.85847	0.69003	0.07646	-0.213
Mof_N 	N 	0.84087	0.79443	0.06212	-0.216
Mof_N 	N 	0.96027	0.36903	0.98093	-0.225
Mof_N 	N 	0.83037	0.29573	0.96863	-0.225
Mof_O 	O 	0.00227	0.76713	0.05238	-0.418
Mof_O 	O 	0.97507	0.74083	0.98113	-0.349
Mof_O 	O 	0.94927	0.48763	0.00223	-0.42
Mof_O 	O 	0.95847	0.54143	0.93963	-0.32
Mof_O 	O 	0.21977	0.76433	0.95593	-0.37
Mof_O 	O 	0.14957	0.71053	0.89903	-0.403
Mof_O 	O 	0.97877	0.87219	0.02477	-0.401
Mof_O 	O 	0.90467	0.82853	0.96733	-0.33
Mof_O 	O 	0.80657	0.40193	0.99821	-0.451
Mof_O 	O 	0.83427	0.39533	0.06918	-0.348
Mof_Cu	Cu	0.55913	0.76983	0.87353	0.916
Mof_C 	C 	0.4624	0.7531	0.81826	0.492
Mof_C 	C 	0.3942	0.7338	0.79741	-0.672
Mof_H 	H 	0.3978	0.7304	0.765	0.234
Mof_H 	H 	0.3846	0.7706	0.803	0.244
Mof_C 	C 	0.7067	0.8761	0.8803	0.083
Mof_H 	H 	0.6911	0.9071	0.8826	0.013
Mof_C 	C 	0.7778	0.9007	0.8826	-0.15
Mof_H 	H 	0.8094	0.9472	0.8854	0.088
Mof_C 	C 	0.7977	0.8524	0.8806	0.078
Mof_H 	H 	0.8437	0.8659	0.8843	0.004
Mof_C 	C 	0.753	0.787	0.8734	-0.147
Mof_H 	H 	0.7678	0.7553	0.8705	0.085
Mof_C 	C 	0.6837	0.7661	0.8704	0.076
Mof_C 	C 	0.6286	0.6957	0.8661	0.037
Mof_C 	C 	0.6387	0.636	0.8631	-0.113
Mof_H 	H 	0.6828	0.6425	0.8628	0.067
Mof_C 	C 	0.5885	0.5768	0.8611	0.038
Mof_H 	H 	0.5962	0.54	0.859	0.009
Mof_C 	C 	0.5139	0.5624	0.8619	-0.127
Mof_H 	H 	0.4757	0.5186	0.8616	0.088
Mof_C 	C 	0.5102	0.6228	0.863	0.079
Mof_H 	H 	0.467	0.6185	0.8618	0.005
Mof_N 	N 	0.6611	0.8099	0.8751	-0.224
Mof_N 	N 	0.5633	0.6846	0.8657	-0.219
Mof_O 	O 	0.5171	0.7936	0.79824	-0.432
Mof_O 	O 	0.4627	0.728	0.85677	-0.418
Mof_Cu	Cu	0.21432	0.14001	0.05592	0.925
Mof_Cu	Cu	0.60512	0.4918	0.98285	0.901
Mof_C 	C 	0.25167	0.26343	0.01333	0.48
Mof_C 	C 	0.26417	0.33573	0.00713	-0.56
Mof_H 	H 	0.22587	0.33363	0.99083	0.197
Mof_H 	H 	0.26607	0.35543	0.03663	0.206
Mof_C 	C 	0.32977	0.38173	0.98183	0.428
Mof_H 	H 	0.32817	0.36033	0.95283	-0.068
Mof_C 	C 	0.39287	0.39133	0.00773	-0.557
Mof_H 	H 	0.39827	0.41803	0.03463	0.205
Mof_H 	H 	0.38467	0.34673	0.01733	0.211
Mof_C 	C 	0.45927	0.42633	0.98113	0.451
Mof_C 	C 	0.33897	0.45363	0.97263	-0.626
Mof_H 	H 	0.33687	0.47413	0.00093	0.235
Mof_H 	H 	0.38367	0.48283	0.95933	0.232
Mof_C 	C 	0.28427	0.44943	0.94113	0.456
Mof_C 	C 	0.12617	0.08503	0.98411	0.419
Mof_C 	C 	0.06107	0.06843	0.95842	-0.54
Mof_H 	H 	0.06807	0.06523	0.92643	0.19
Mof_H 	H 	0.05077	0.10493	0.96273	0.204
Mof_C 	C 	0.60097	0.39683	0.04063	0.496
Mof_C 	C 	0.60197	0.33263	0.05463	-0.639
Mof_H 	H 	0.56177	0.29273	0.04273	0.238
Mof_H 	H 	0.60027	0.32923	0.08733	0.221
Mof_C 	C 	0.36077	0.23263	0.08383	0.086
Mof_H 	H 	0.35157	0.26833	0.08123	0
Mof_C 	C 	0.42637	0.24753	0.09503	-0.141
Mof_H 	H 	0.46057	0.29263	0.09993	0.081
Mof_C 	C 	0.44027	0.19573	0.09873	0.051
Mof_H 	H 	0.48427	0.20513	0.10613	0.018
Mof_C 	C 	0.38857	0.12853	0.09163	-0.117
Mof_H 	H 	0.39747	0.09243	0.09343	0.072
Mof_C 	C 	0.32297	0.11643	0.08163	0.055
Mof_C 	C 	0.26267	0.04693	0.07633	0.05
Mof_C 	C 	0.26427	0.98893	0.08523	-0.108
Mof_H 	H 	0.30427	0.99063	0.09523	0.075
Mof_C 	C 	0.20317	0.92573	0.07903	0.063
Mof_H 	H 	0.20277	0.88483	0.08423	0.012
Mof_C 	C 	0.14497	0.92483	0.06543	-0.157
Mof_H 	H 	0.10407	0.88363	0.06213	0.101
Mof_C 	C 	0.14827	0.98643	0.05673	0.102
Mof_H 	H 	0.10907	0.98623	0.04673	0.002
Mof_C 	C 	0.58847	0.61643	0.98433	0.091
Mof_H 	H 	0.54187	0.58633	0.98813	-0.006
Mof_C 	C 	0.61227	0.68703	0.98233	-0.168
Mof_H 	H 	0.58227	0.70373	0.98583	0.099
Mof_C 	C 	0.68027	0.73043	0.97513	0.084
Mof_H 	H 	0.69647	0.77723	0.97233	0.002
Mof_C 	C 	0.72547	0.70643	0.97213	-0.15
Mof_H 	H 	0.77217	0.73613	0.96823	0.093
Mof_C 	C 	0.69837	0.63593	0.97503	0.063
Mof_C 	C 	0.74067	0.60383	0.96923	0.043
Mof_C 	C 	0.81067	0.63883	0.96263	-0.108
Mof_H 	H 	0.83507	0.68653	0.96363	0.078
Mof_C 	C 	0.84487	0.60233	0.95433	0.027
Mof_H 	H 	0.89207	0.62533	0.94963	0.043
Mof_C 	C 	0.80727	0.53193	0.95333	-0.116
Mof_H 	H 	0.82827	0.50613	0.94763	0.084
Mof_C 	C 	0.73647	0.49993	0.96103	0.057
Mof_H 	H 	0.71107	0.45233	0.96063	0.013
Mof_N 	N 	0.30997	0.16843	0.07646	-0.214
Mof_N 	N 	0.20557	0.04643	0.06212	-0.219
Mof_N 	N 	0.63097	0.59123	0.98093	-0.228
Mof_N 	N 	0.70427	0.53463	0.96863	-0.224
Mof_O 	O 	0.23287	0.23513	0.05238	-0.417
Mof_O 	O 	0.25917	0.23423	0.98113	-0.352
Mof_O 	O 	0.51237	0.46163	0.00223	-0.421
Mof_O 	O 	0.45857	0.41703	0.93963	-0.321
Mof_O 	O 	0.23567	0.45543	0.95593	-0.37
Mof_O 	O 	0.28947	0.43903	0.89903	-0.403
Mof_O 	O 	0.12781	0.10657	0.02477	-0.403
Mof_O 	O 	0.17147	0.07613	0.96733	-0.334
Mof_O 	O 	0.59807	0.40463	0.99821	-0.451
Mof_O 	O 	0.60467	0.43893	0.06918	-0.348
Mof_Cu	Cu	0.23017	0.7893	0.87353	0.916
Mof_C 	C 	0.2469	0.7093	0.81826	0.492
Mof_C 	C 	0.2662	0.6604	0.79741	-0.672
Mof_H 	H 	0.2696	0.6674	0.765	0.234
Mof_H 	H 	0.2294	0.614	0.803	0.244
Mof_C 	C 	0.1239	0.8306	0.8803	0.07
Mof_H 	H 	0.0929	0.784	0.8826	0.016
Mof_C 	C 	0.0993	0.8771	0.8826	-0.126
Mof_H 	H 	0.0528	0.8622	0.8854	0.076
Mof_C 	C 	0.1476	0.9453	0.8806	0.04
Mof_H 	H 	0.1341	0.9778	0.8843	0.019
Mof_C 	C 	0.213	0.966	0.8734	-0.096
Mof_H 	H 	0.2447	0.0125	0.8705	0.059
Mof_C 	C 	0.2339	0.9176	0.8704	0.055
Mof_C 	C 	0.3043	0.9329	0.8661	0.056
Mof_C 	C 	0.364	0.0027	0.8631	-0.131
Mof_H 	H 	0.3575	0.0403	0.8628	0.071
Mof_C 	C 	0.4232	0.0117	0.8611	0.032
Mof_H 	H 	0.46	0.0562	0.859	0.009
Mof_C 	C 	0.4376	0.9515	0.8619	-0.117
Mof_H 	H 	0.4814	0.9571	0.8616	0.088
Mof_C 	C 	0.3772	0.8874	0.863	0.078
Mof_H 	H 	0.3815	0.8485	0.8618	0.006
Mof_N 	N 	0.1901	0.8512	0.8751	-0.218
Mof_N 	N 	0.3154	0.8787	0.8657	-0.221
Mof_O 	O 	0.2064	0.7235	0.79824	-0.433
Mof_O 	O 	0.272	0.7347	0.85677	-0.418
Mof_Cu	Cu	0.85999	0.0743	0.05592	0.924
Mof_Cu	Cu	0.5082	0.11331	0.98285	0.901
Mof_C 	C 	0.73657	0.98823	0.01333	0.501
Mof_C 	C 	0.66427	0.92843	0.00713	-0.586
Mof_H 	H 	0.66637	0.89223	0.99083	0.206
Mof_H 	H 	0.64457	0.91063	0.03663	0.214
Mof_C 	C 	0.61827	0.94803	0.98183	0.463
Mof_H 	H 	0.63967	0.96783	0.95283	-0.074
Mof_C 	C 	0.60867	0.00153	0.00773	-0.612
Mof_H 	H 	0.58197	0.98023	0.03463	0.228
Mof_H 	H 	0.65327	0.03793	0.01733	0.225
Mof_C 	C 	0.57367	0.03293	0.98113	0.466
Mof_C 	C 	0.54637	0.88533	0.97263	-0.644
Mof_H 	H 	0.52587	0.86273	0.00093	0.241
Mof_H 	H 	0.51717	0.90083	0.95933	0.24
Mof_C 	C 	0.55057	0.83483	0.94113	0.461
Mof_C 	C 	0.91497	0.04113	0.98411	0.4
Mof_C 	C 	0.93157	0.99263	0.95842	-0.489
Mof_H 	H 	0.93477	0.00283	0.92643	0.171
Mof_H 	H 	0.89507	0.94583	0.96273	0.193
Mof_C 	C 	0.60317	0.20413	0.04063	0.496
Mof_C 	C 	0.66737	0.26933	0.05463	-0.639
Mof_H 	H 	0.70727	0.26903	0.04273	0.238
Mof_H 	H 	0.67077	0.27103	0.08733	0.221
Mof_C 	C 	0.76737	0.12813	0.08383	0.085
Mof_H 	H 	0.73167	0.08323	0.08123	-0.003
Mof_C 	C 	0.75247	0.17883	0.09503	-0.14
Mof_H 	H 	0.70737	0.16793	0.09993	0.079
Mof_C 	C 	0.80427	0.24453	0.09873	0.049
Mof_H 	H 	0.79487	0.27913	0.10613	0.019
Mof_C 	C 	0.87147	0.26003	0.09163	-0.113
Mof_H 	H 	0.90757	0.30503	0.09343	0.074
Mof_C 	C 	0.88357	0.20653	0.08163	0.049
Mof_C 	C 	0.95307	0.21573	0.07633	0.071
Mof_C 	C 	0.01107	0.27533	0.08523	-0.136
Mof_H 	H 	0.00937	0.31363	0.09523	0.08
Mof_C 	C 	0.07427	0.27743	0.07903	0.073
Mof_H 	H 	0.11517	0.31793	0.08423	0.008
Mof_C 	C 	0.07517	0.22013	0.06543	-0.159
Mof_H 	H 	0.11637	0.22043	0.06213	0.102
Mof_C 	C 	0.01357	0.16183	0.05673	0.089
Mof_H 	H 	0.01377	0.12283	0.04673	0.002
Mof_C 	C 	0.38357	0.97203	0.98433	0.121
Mof_H 	H 	0.41367	0.95553	0.98813	-0.013
Mof_C 	C 	0.31297	0.92523	0.98233	-0.199
Mof_H 	H 	0.29627	0.87853	0.98583	0.111
Mof_C 	C 	0.26957	0.94983	0.97513	0.129
Mof_H 	H 	0.22277	0.91923	0.97233	-0.012
Mof_C 	C 	0.29357	0.01903	0.97213	-0.19
Mof_H 	H 	0.26387	0.03603	0.96823	0.104
Mof_C 	C 	0.36407	0.06243	0.97503	0.076
Mof_C 	C 	0.39617	0.13683	0.96923	0.038
Mof_C 	C 	0.36117	0.17183	0.96263	-0.104
Mof_H 	H 	0.31347	0.14853	0.96363	0.075
Mof_C 	C 	0.39767	0.24253	0.95433	0.024
Mof_H 	H 	0.37467	0.26673	0.94963	0.044
Mof_C 	C 	0.46807	0.27533	0.95333	-0.115
Mof_H 	H 	0.49387	0.32213	0.94763	0.083
Mof_C 	C 	0.50007	0.23653	0.96103	0.056
Mof_H 	H 	0.54767	0.25873	0.96063	0.013
Mof_N 	N 	0.83157	0.14153	0.07646	-0.213
Mof_N 	N 	0.95357	0.15913	0.06212	-0.215
Mof_N 	N 	0.40877	0.03973	0.98093	-0.24
Mof_N 	N 	0.46537	0.16963	0.96863	-0.223
Mof_O 	O 	0.76487	0.99773	0.05238	-0.416
Mof_O 	O 	0.76577	0.02493	0.98113	-0.366
Mof_O 	O 	0.53837	0.05073	0.00223	-0.429
Mof_O 	O 	0.58297	0.04153	0.93963	-0.33
Mof_O 	O 	0.54457	0.78023	0.95593	-0.372
Mof_O 	O 	0.56097	0.85043	0.89903	-0.404
Mof_O 	O 	0.89343	0.02123	0.02477	-0.401
Mof_O 	O 	0.92387	0.09533	0.96733	-0.325
Mof_O 	O 	0.59537	0.19343	0.99821	-0.452
Mof_O 	O 	0.56107	0.16573	0.06918	-0.349
Mof_C 	C 	0.33333	0.66667	0.8143	0.539
Mof_H 	H 	0.33333	0.66667	0.8474	-0.083
Mof_C 	C 	1.54949e-32	0	0.97503	0.346
Mof_H 	H 	-1.21054e-34	0	0.00813	-0.052
Mof_C 	C 	0.66667	0.33333	0.03753	0.502
Mof_H 	H 	0.66667	0.33333	0.00443	-0.089
Mof_Cu	Cu	0.87737	0.7742	0.20686	0.916
Mof_C 	C 	0.95737	0.87093	0.15159	0.484
Mof_C 	C 	0.00627	0.93913	0.13074	-0.639
Mof_H 	H 	0.99927	0.93553	0.09833	0.228
Mof_H 	H 	0.05267	0.94873	0.13633	0.237
Mof_C 	C 	0.83607	0.62663	0.21363	0.082
Mof_H 	H 	0.88267	0.64223	0.21593	0.013
Mof_C 	C 	0.78957	0.55553	0.21593	-0.15
Mof_H 	H 	0.80447	0.52393	0.21873	0.084
Mof_C 	C 	0.72137	0.53563	0.21393	0.077
Mof_H 	H 	0.68887	0.48963	0.21763	0.002
Mof_C 	C 	0.70067	0.58033	0.20673	-0.147
Mof_H 	H 	0.65417	0.56553	0.20383	0.085
Mof_C 	C 	0.74907	0.64963	0.20373	0.075
Mof_C 	C 	0.73377	0.70473	0.19943	0.037
Mof_C 	C 	0.66397	0.69463	0.19643	-0.113
Mof_H 	H 	0.62637	0.65053	0.19613	0.067
Mof_C 	C 	0.65497	0.74483	0.19443	0.039
Mof_H 	H 	0.61047	0.73713	0.19233	0.011
Mof_C 	C 	0.71517	0.81943	0.19523	-0.126
Mof_H 	H 	0.70957	0.85763	0.19493	0.091
Mof_C 	C 	0.77927	0.82313	0.19633	0.079
Mof_H 	H 	0.81817	0.86633	0.19513	0.007
Mof_N 	N 	0.81547	0.67223	0.20843	-0.225
Mof_N 	N 	0.78797	0.77003	0.19903	-0.219
Mof_O 	O 	0.94317	0.81623	0.13157	-0.43
Mof_O 	O 	0.93197	0.87063	0.1901	-0.413
Mof_Cu	Cu	0.59236	0.11902	0.38926	0.923
Mof_Cu	Cu	0.55335	0.72822	0.31619	0.907
Mof_C 	C 	0.67843	0.08167	0.34667	0.472
Mof_C 	C 	0.73823	0.06917	0.34047	-0.632
Mof_H 	H 	0.77443	0.10747	0.32417	0.23
Mof_H 	H 	0.75603	0.06727	0.36997	0.22
Mof_C 	C 	0.71863	0.00357	0.31517	0.469
Mof_H 	H 	0.69883	0.00517	0.28617	-0.082
Mof_C 	C 	0.66513	0.94047	0.34107	-0.628
Mof_H 	H 	0.68643	0.93507	0.36797	0.224
Mof_H 	H 	0.62873	0.94867	0.35067	0.23
Mof_C 	C 	0.63373	0.87407	0.31447	0.511
Mof_C 	C 	0.78133	0.99437	0.30597	-0.58
Mof_H 	H 	0.80393	0.99647	0.33427	0.21
Mof_H 	H 	0.76583	0.94967	0.29267	0.224
Mof_C 	C 	0.83183	0.04907	0.27447	0.437
Mof_C 	C 	0.62553	0.20717	0.31745	0.463
Mof_C 	C 	0.67403	0.27227	0.29176	-0.605
Mof_H 	H 	0.66383	0.26527	0.25977	0.21
Mof_H 	H 	0.72083	0.28257	0.29607	0.228
Mof_C 	C 	0.46253	0.73237	0.37397	0.467
Mof_C 	C 	0.39733	0.73137	0.38797	-0.619
Mof_H 	H 	0.39763	0.77157	0.37607	0.227
Mof_H 	H 	0.39563	0.73307	0.42067	0.216
Mof_C 	C 	0.53853	0.97257	0.41717	0.091
Mof_H 	H 	0.58343	0.98177	0.41457	-0
Mof_C 	C 	0.48783	0.90697	0.42837	-0.138
Mof_H 	H 	0.49873	0.87277	0.43327	0.079
Mof_C 	C 	0.42213	0.89307	0.43207	0.038
Mof_H 	H 	0.38753	0.84907	0.43947	0.023
Mof_C 	C 	0.40663	0.94477	0.42497	-0.093
Mof_H 	H 	0.36163	0.93587	0.42677	0.067
Mof_C 	C 	0.46013	0.01037	0.41497	0.03
Mof_C 	C 	0.45093	0.07067	0.40967	0.069
Mof_C 	C 	0.39133	0.06907	0.41857	-0.136
Mof_H 	H 	0.35303	0.02907	0.42857	0.076
Mof_C 	C 	0.38923	0.13017	0.41237	0.072
Mof_H 	H 	0.34873	0.13057	0.41757	0.004
Mof_C 	C 	0.44653	0.18837	0.39877	-0.164
Mof_H 	H 	0.44623	0.22927	0.39547	0.101
Mof_C 	C 	0.50483	0.18507	0.39007	0.09
Mof_H 	H 	0.54383	0.22427	0.38007	-0.001
Mof_C 	C 	0.69463	0.74487	0.31767	0.095
Mof_H 	H 	0.71113	0.79147	0.32147	-0.002
Mof_C 	C 	0.74143	0.72107	0.31567	-0.167
Mof_H 	H 	0.78813	0.75107	0.31917	0.103
Mof_C 	C 	0.71683	0.65307	0.30847	0.087
Mof_H 	H 	0.74743	0.63687	0.30567	0.003
Mof_C 	C 	0.64763	0.60787	0.30547	-0.149
Mof_H 	H 	0.63063	0.56117	0.30157	0.095
Mof_C 	C 	0.60423	0.63497	0.30837	0.066
Mof_C 	C 	0.52983	0.59267	0.30257	0.046
Mof_C 	C 	0.49483	0.52267	0.29597	-0.107
Mof_H 	H 	0.51813	0.49827	0.29697	0.079
Mof_C 	C 	0.42413	0.48847	0.28767	0.029
Mof_H 	H 	0.39993	0.44127	0.28297	0.045
Mof_C 	C 	0.39133	0.52607	0.28667	-0.114
Mof_H 	H 	0.34453	0.50507	0.28097	0.085
Mof_C 	C 	0.43013	0.59687	0.29437	0.06
Mof_H 	H 	0.40793	0.62227	0.29397	0.015
Mof_N 	N 	0.52513	0.02337	0.4098	-0.218
Mof_N 	N 	0.50753	0.12777	0.39546	-0.219
Mof_N 	N 	0.62693	0.70237	0.31427	-0.225
Mof_N 	N 	0.49703	0.62907	0.30197	-0.223
Mof_O 	O 	0.66893	0.10047	0.38572	-0.421
Mof_O 	O 	0.64173	0.07417	0.31447	-0.34
Mof_O 	O 	0.61593	0.82097	0.33557	-0.458
Mof_O 	O 	0.62513	0.87477	0.27297	-0.332
Mof_O 	O 	0.88643	0.09767	0.28927	-0.363
Mof_O 	O 	0.81623	0.04387	0.23237	-0.401
Mof_O 	O 	0.64543	0.20553	0.35811	-0.425
Mof_O 	O 	0.57133	0.16187	0.30067	-0.339
Mof_O 	O 	0.47323	0.73527	0.33155	-0.429
Mof_O 	O 	0.50093	0.72867	0.40252	-0.344
Mof_Cu	Cu	0.2258	0.10316	0.20686	0.915
Mof_C 	C 	0.12907	0.08643	0.15159	0.481
Mof_C 	C 	0.06087	0.06713	0.13074	-0.642
Mof_H 	H 	0.06447	0.06373	0.09833	0.222
Mof_H 	H 	0.05127	0.10393	0.13633	0.234
Mof_C 	C 	0.37337	0.20943	0.21363	0.083
Mof_H 	H 	0.35777	0.24043	0.21593	0.012
Mof_C 	C 	0.44447	0.23403	0.21593	-0.151
Mof_H 	H 	0.47607	0.28053	0.21873	0.085
Mof_C 	C 	0.46437	0.18573	0.21393	0.08
Mof_H 	H 	0.51037	0.19923	0.21763	0.001
Mof_C 	C 	0.41967	0.12033	0.20673	-0.151
Mof_H 	H 	0.43447	0.08863	0.20383	0.084
Mof_C 	C 	0.35037	0.09943	0.20373	0.079
Mof_C 	C 	0.29527	0.02903	0.19943	0.022
Mof_C 	C 	0.30537	0.96933	0.19643	-0.092
Mof_H 	H 	0.34947	0.97583	0.19613	0.063
Mof_C 	C 	0.25517	0.91013	0.19443	0.029
Mof_H 	H 	0.26287	0.87333	0.19233	0.014
Mof_C 	C 	0.18057	0.89573	0.19523	-0.126
Mof_H 	H 	0.14237	0.85193	0.19493	0.089
Mof_C 	C 	0.17687	0.95613	0.19633	0.09
Mof_H 	H 	0.13367	0.95183	0.19513	0.005
Mof_N 	N 	0.32777	0.14323	0.20843	-0.225
Mof_N 	N 	0.22997	0.01793	0.19903	-0.224
Mof_O 	O 	0.18377	0.12693	0.13157	-0.43
Mof_O 	O 	0.12937	0.06133	0.1901	-0.418
Mof_Cu	Cu	0.88098	0.47335	0.38926	0.924
Mof_Cu	Cu	0.27178	0.82514	0.31619	0.907
Mof_C 	C 	0.91833	0.59677	0.34667	0.482
Mof_C 	C 	0.93083	0.66907	0.34047	-0.658
Mof_H 	H 	0.89253	0.66697	0.32417	0.238
Mof_H 	H 	0.93273	0.68877	0.36997	0.231
Mof_C 	C 	0.99643	0.71507	0.31517	0.518
Mof_H 	H 	0.99483	0.69367	0.28617	-0.091
Mof_C 	C 	0.05953	0.72467	0.34107	-0.664
Mof_H 	H 	0.06493	0.75137	0.36797	0.232
Mof_H 	H 	0.05133	0.68007	0.35067	0.237
Mof_C 	C 	0.12593	0.75967	0.31447	0.522
Mof_C 	C 	0.00563	0.78697	0.30597	-0.634
Mof_H 	H 	0.00353	0.80747	0.33427	0.222
Mof_H 	H 	0.05033	0.81617	0.29267	0.238
Mof_C 	C 	0.95093	0.78277	0.27447	0.461
Mof_C 	C 	0.79283	0.41837	0.31745	0.462
Mof_C 	C 	0.72773	0.40177	0.29176	-0.605
Mof_H 	H 	0.73473	0.39857	0.25977	0.211
Mof_H 	H 	0.71743	0.43827	0.29607	0.228
Mof_C 	C 	0.26763	0.73017	0.37397	0.467
Mof_C 	C 	0.26863	0.66597	0.38797	-0.619
Mof_H 	H 	0.22843	0.62607	0.37607	0.227
Mof_H 	H 	0.26693	0.66257	0.42067	0.216
Mof_C 	C 	0.02743	0.56597	0.41717	0.079
Mof_H 	H 	0.01823	0.60167	0.41457	-0.001
Mof_C 	C 	0.09303	0.58087	0.42837	-0.14
Mof_H 	H 	0.12723	0.62597	0.43327	0.079
Mof_C 	C 	0.10693	0.52907	0.43207	0.048
Mof_H 	H 	0.15093	0.53847	0.43947	0.019
Mof_C 	C 	0.05523	0.46187	0.42497	-0.118
Mof_H 	H 	0.06413	0.42577	0.42677	0.072
Mof_C 	C 	0.98963	0.44977	0.41497	0.051
Mof_C 	C 	0.92933	0.38027	0.40967	0.064
Mof_C 	C 	0.93093	0.32227	0.41857	-0.132
Mof_H 	H 	0.97093	0.32397	0.42857	0.078
Mof_C 	C 	0.86983	0.25907	0.41237	0.069
Mof_H 	H 	0.86943	0.21817	0.41757	0.006
Mof_C 	C 	0.81163	0.25817	0.39877	-0.162
Mof_H 	H 	0.77073	0.21697	0.39547	0.101
Mof_C 	C 	0.81493	0.31977	0.39007	0.09
Mof_H 	H 	0.77573	0.31957	0.38007	-0.001
Mof_C 	C 	0.25513	0.94977	0.31767	0.128
Mof_H 	H 	0.20853	0.91967	0.32147	-0.012
Mof_C 	C 	0.27893	0.02037	0.31567	-0.213
Mof_H 	H 	0.24893	0.03707	0.31917	0.115
Mof_C 	C 	0.34693	0.06377	0.30847	0.126
Mof_H 	H 	0.36313	0.11057	0.30567	-0.011
Mof_C 	C 	0.39213	0.03977	0.30547	-0.194
Mof_H 	H 	0.43883	0.06947	0.30157	0.11
Mof_C 	C 	0.36503	0.96927	0.30837	0.098
Mof_C 	C 	0.40733	0.93717	0.30257	0.026
Mof_C 	C 	0.47733	0.97217	0.29597	-0.064
Mof_H 	H 	0.50173	0.01987	0.29697	0.057
Mof_C 	C 	0.51153	0.93567	0.28767	0.003
Mof_H 	H 	0.55873	0.95867	0.28297	0.058
Mof_C 	C 	0.47393	0.86527	0.28667	-0.096
Mof_H 	H 	0.49493	0.83947	0.28097	0.079
Mof_C 	C 	0.40313	0.83327	0.29437	0.051
Mof_H 	H 	0.37773	0.78567	0.29397	0.018
Mof_N 	N 	0.97663	0.50177	0.4098	-0.213
Mof_N 	N 	0.87223	0.37977	0.39546	-0.218
Mof_N 	N 	0.29763	0.92457	0.31427	-0.235
Mof_N 	N 	0.37093	0.86797	0.30197	-0.217
Mof_O 	O 	0.89953	0.56847	0.38572	-0.421
Mof_O 	O 	0.92583	0.56757	0.31447	-0.339
Mof_O 	O 	0.17903	0.79497	0.33557	-0.461
Mof_O 	O 	0.12523	0.75037	0.27297	-0.338
Mof_O 	O 	0.90233	0.78877	0.28927	-0.367
Mof_O 	O 	0.95613	0.77237	0.23237	-0.403
Mof_O 	O 	0.79447	0.43991	0.35811	-0.425
Mof_O 	O 	0.83813	0.40947	0.30067	-0.338
Mof_O 	O 	0.26473	0.73797	0.33155	-0.429
Mof_O 	O 	0.27133	0.77227	0.40252	-0.344
Mof_Cu	Cu	0.89684	0.12263	0.20686	0.915
Mof_C 	C 	0.91357	0.04263	0.15159	0.461
Mof_C 	C 	0.93287	0.99373	0.13074	-0.592
Mof_H 	H 	0.93627	0.00073	0.09833	0.204
Mof_H 	H 	0.89607	0.94733	0.13633	0.223
Mof_C 	C 	0.79057	0.16393	0.21363	0.082
Mof_H 	H 	0.75957	0.11733	0.21593	0.011
Mof_C 	C 	0.76597	0.21043	0.21593	-0.15
Mof_H 	H 	0.71947	0.19553	0.21873	0.084
Mof_C 	C 	0.81427	0.27863	0.21393	0.077
Mof_H 	H 	0.80077	0.31113	0.21763	0.002
Mof_C 	C 	0.87967	0.29933	0.20673	-0.146
Mof_H 	H 	0.91137	0.34583	0.20383	0.085
Mof_C 	C 	0.90057	0.25093	0.20373	0.074
Mof_C 	C 	0.97097	0.26623	0.19943	0.041
Mof_C 	C 	0.03067	0.33603	0.19643	-0.118
Mof_H 	H 	0.02417	0.37363	0.19613	0.068
Mof_C 	C 	0.08987	0.34503	0.19443	0.041
Mof_H 	H 	0.12667	0.38953	0.19233	0.01
Mof_C 	C 	0.10427	0.28483	0.19523	-0.127
Mof_H 	H 	0.14807	0.29043	0.19493	0.089
Mof_C 	C 	0.04387	0.22073	0.19633	0.076
Mof_H 	H 	0.04817	0.18183	0.19513	0.005
Mof_N 	N 	0.85677	0.18453	0.20843	-0.225
Mof_N 	N 	0.98207	0.21203	0.19903	-0.218
Mof_O 	O 	0.87307	0.05683	0.13157	-0.427
Mof_O 	O 	0.93867	0.06803	0.1901	-0.411
Mof_Cu	Cu	0.52665	0.40764	0.38926	0.924
Mof_Cu	Cu	0.17486	0.44665	0.31619	0.907
Mof_C 	C 	0.40323	0.32157	0.34667	0.48
Mof_C 	C 	0.33093	0.26177	0.34047	-0.652
Mof_H 	H 	0.33303	0.22557	0.32417	0.236
Mof_H 	H 	0.31123	0.24397	0.36997	0.228
Mof_C 	C 	0.28493	0.28137	0.31517	0.508
Mof_H 	H 	0.30633	0.30117	0.28617	-0.089
Mof_C 	C 	0.27533	0.33487	0.34107	-0.656
Mof_H 	H 	0.24863	0.31357	0.36797	0.23
Mof_H 	H 	0.31993	0.37127	0.35067	0.236
Mof_C 	C 	0.24033	0.36627	0.31447	0.519
Mof_C 	C 	0.21303	0.21867	0.30597	-0.622
Mof_H 	H 	0.19253	0.19607	0.33427	0.217
Mof_H 	H 	0.18383	0.23417	0.29267	0.234
Mof_C 	C 	0.21723	0.16817	0.27447	0.456
Mof_C 	C 	0.58163	0.37447	0.31745	0.462
Mof_C 	C 	0.59823	0.32597	0.29176	-0.605
Mof_H 	H 	0.60143	0.33617	0.25977	0.21
Mof_H 	H 	0.56173	0.27917	0.29607	0.228
Mof_C 	C 	0.26983	0.53747	0.37397	0.467
Mof_C 	C 	0.33403	0.60267	0.38797	-0.619
Mof_H 	H 	0.37393	0.60237	0.37607	0.227
Mof_H 	H 	0.33743	0.60437	0.42067	0.216
Mof_C 	C 	0.43403	0.46147	0.41717	0.082
Mof_H 	H 	0.39833	0.41657	0.41457	-0.001
Mof_C 	C 	0.41913	0.51217	0.42837	-0.14
Mof_H 	H 	0.37403	0.50127	0.43327	0.079
Mof_C 	C 	0.47093	0.57787	0.43207	0.046
Mof_H 	H 	0.46153	0.61247	0.43947	0.02
Mof_C 	C 	0.53813	0.59337	0.42497	-0.114
Mof_H 	H 	0.57423	0.63837	0.42677	0.071
Mof_C 	C 	0.55023	0.53987	0.41497	0.047
Mof_C 	C 	0.61973	0.54907	0.40967	0.065
Mof_C 	C 	0.67773	0.60867	0.41857	-0.132
Mof_H 	H 	0.67603	0.64697	0.42857	0.078
Mof_C 	C 	0.74093	0.61077	0.41237	0.069
Mof_H 	H 	0.78183	0.65127	0.41757	0.006
Mof_C 	C 	0.74183	0.55347	0.39877	-0.162
Mof_H 	H 	0.78303	0.55377	0.39547	0.101
Mof_C 	C 	0.68023	0.49517	0.39007	0.09
Mof_H 	H 	0.68043	0.45617	0.38007	-0.001
Mof_C 	C 	0.05023	0.30537	0.31767	0.086
Mof_H 	H 	0.08033	0.28887	0.32147	-0
Mof_C 	C 	0.97963	0.25857	0.31567	-0.155
Mof_H 	H 	0.96293	0.21187	0.31917	0.098
Mof_C 	C 	0.93623	0.28317	0.30847	0.077
Mof_H 	H 	0.88943	0.25257	0.30567	0.007
Mof_C 	C 	0.96023	0.35237	0.30547	-0.138
Mof_H 	H 	0.93053	0.36937	0.30157	0.092
Mof_C 	C 	0.03073	0.39577	0.30837	0.058
Mof_C 	C 	0.06283	0.47017	0.30257	0.052
Mof_C 	C 	0.02783	0.50517	0.29597	-0.117
Mof_H 	H 	0.98013	0.48187	0.29697	0.085
Mof_C 	C 	0.06433	0.57587	0.28767	0.035
Mof_H 	H 	0.04133	0.60007	0.28297	0.042
Mof_C 	C 	0.13473	0.60867	0.28667	-0.118
Mof_H 	H 	0.16053	0.65547	0.28097	0.087
Mof_C 	C 	0.16673	0.56987	0.29437	0.062
Mof_H 	H 	0.21433	0.59207	0.29397	0.014
Mof_N 	N 	0.49823	0.47487	0.4098	-0.214
Mof_N 	N 	0.62023	0.49247	0.39546	-0.218
Mof_N 	N 	0.07543	0.37307	0.31427	-0.222
Mof_N 	N 	0.13203	0.50297	0.30197	-0.224
Mof_O 	O 	0.43153	0.33107	0.38572	-0.421
Mof_O 	O 	0.43243	0.35827	0.31447	-0.339
Mof_O 	O 	0.20503	0.38407	0.33557	-0.461
Mof_O 	O 	0.24963	0.37487	0.27297	-0.337
Mof_O 	O 	0.21123	0.11357	0.28927	-0.369
Mof_O 	O 	0.22763	0.18377	0.23237	-0.403
Mof_O 	O 	0.56009	0.35457	0.35811	-0.425
Mof_O 	O 	0.59053	0.42867	0.30067	-0.339
Mof_O 	O 	0.26203	0.52677	0.33155	-0.429
Mof_O 	O 	0.22773	0.49907	0.40252	-0.344
Mof_C 	C 	-0	-3.87373e-33	0.14763	0.483
Mof_H 	H 	-3.87373e-33	0	0.18073	-0.071
Mof_C 	C 	0.66667	0.33333	0.30837	0.459
Mof_H 	H 	0.66667	0.33333	0.34147	-0.093
Mof_C 	C 	0.33333	0.66667	0.37087	0.483
Mof_H 	H 	0.33333	0.66667	0.33777	-0.092
_end
