# CIF file generated by openbabel 3.1.0, see https://openbabel.org
data_I
_chemical_name_common 'ZEKRIS_clean'
_cell_length_a 9.666
_cell_length_b 11.692
_cell_length_c 12.366
_cell_angle_alpha 72.75
_cell_angle_beta 67.912
_cell_angle_gamma 76.869
_space_group_name_H-M_alt 'P 1'
_space_group_name_Hall 'P 1'
loop_
    _symmetry_equiv_pos_as_xyz
    x,y,z
loop_
    _atom_site_label
    _atom_site_type_symbol
    _atom_site_fract_x
    _atom_site_fract_y
    _atom_site_fract_z
    _atom_site_occupancy
    Li1      Li       0.54690    0.38330    0.05330    1.000
    Li2      Li       0.53490    0.07260    0.38750    1.000
    Li3      Li       0.23400    0.10850    0.51650    1.000
    Li4      Li       0.55490    0.30740    0.30520    1.000
    Li5      Li       0.45310    0.61670    0.94670    1.000
    Li6      Li       0.46510    0.92740    0.61250    1.000
    Li7      Li       0.76600    0.89150    0.48350    1.000
    Li8      Li       0.44510    0.69260    0.69480    1.000
    H1       H        0.09720    0.10190    0.33810    1.000
    H2       H        0.84950    0.33060    0.14630    1.000
    H3       H        0.25160    0.40350    0.11190    1.000
    H4       H        0.58180    0.61070    0.34860    1.000
    H5       H        0.54430    0.77390    0.02550    1.000
    H6       H        0.53820    0.97000    0.24400    1.000
    H7       H        0.90280    0.89810    0.66190    1.000
    H8       H        0.15050    0.66940    0.85370    1.000
    H9       H        0.74840    0.59650    0.88810    1.000
    H10      H        0.41820    0.38930    0.65140    1.000
    H11      H        0.45570    0.22610    0.97450    1.000
    H12      H        0.46180    0.03000    0.75600    1.000
    C1       C        0.33713    0.21815    0.26309    1.000
    C2       C        0.82672    0.12736    0.31992    1.000
    C3       C        0.19788    0.24737    0.22866    1.000
    C4       C        0.08465    0.17360    0.28242    1.000
    C5       C        0.95246    0.20569    0.25392    1.000
    C6       C        0.93632    0.30952    0.16739    1.000
    C7       C        0.05073    0.38182    0.11236    1.000
    C8       C        0.17816    0.35186    0.14598    1.000
    C9       C        0.55552    0.79923    0.43610    1.000
    C10      C        0.57182    0.55145    0.16284    1.000
    C11      C        0.55816    0.79175    0.31572    1.000
    C12      C        0.56993    0.68129    0.29151    1.000
    C13      C        0.56434    0.67393    0.18314    1.000
    C14      C        0.54770    0.77797    0.09842    1.000
    C15      C        0.53580    0.88894    0.12208    1.000
    C16      C        0.54330    0.89516    0.22972    1.000
    C17      C        0.66287    0.78185    0.73691    1.000
    C18      C        0.17328    0.87264    0.68008    1.000
    C19      C        0.80212    0.75263    0.77134    1.000
    C20      C        0.91535    0.82640    0.71758    1.000
    C21      C        0.04754    0.79431    0.74608    1.000
    C22      C        0.06368    0.69048    0.83261    1.000
    C23      C        0.94927    0.61818    0.88764    1.000
    C24      C        0.82184    0.64814    0.85402    1.000
    C25      C        0.44448    0.20077    0.56390    1.000
    C26      C        0.42818    0.44855    0.83716    1.000
    C27      C        0.44184    0.20825    0.68428    1.000
    C28      C        0.43007    0.31871    0.70849    1.000
    C29      C        0.43566    0.32607    0.81686    1.000
    C30      C        0.45230    0.22203    0.90158    1.000
    C31      C        0.46420    0.11106    0.87792    1.000
    C32      C        0.45670    0.10484    0.77028    1.000
    N1       N        0.04882    0.49168    0.02276    1.000
    N2       N        0.51215    0.00262    0.04429    1.000
    N3       N        0.95118    0.50832    0.97724    1.000
    N4       N        0.48785    0.99738    0.95571    1.000
    O1       O        0.34833    0.12695    0.34518    1.000
    O2       O        0.43627    0.28701    0.20927    1.000
    O3       O        0.70339    0.16465    0.30184    1.000
    O4       O        0.85278    0.03127    0.38932    1.000
    O5       O        0.57219    0.90086    0.44458    1.000
    O6       O        0.54196    0.54604    0.07408    1.000
    O7       O        0.60464    0.46319    0.23713    1.000
    O8       O        0.53674    0.70917    0.51970    1.000
    O9       O        0.65167    0.87305    0.65482    1.000
    O10      O        0.56373    0.71299    0.79073    1.000
    O11      O        0.29661    0.83535    0.69816    1.000
    O12      O        0.14722    0.96873    0.61068    1.000
    O13      O        0.42781    0.09914    0.55542    1.000
    O14      O        0.45804    0.45396    0.92592    1.000
    O15      O        0.39536    0.53681    0.76287    1.000
    O16      O        0.46326    0.29083    0.48030    1.000
