# CIF file generated by openbabel 3.1.0, see https://openbabel.org
data_I
_chemical_name_common 'image0'
_cell_length_a 29.72
_cell_length_b 37.891
_cell_length_c 37.65
_cell_angle_alpha 90
_cell_angle_beta 90
_cell_angle_gamma 90
_space_group_name_H-M_alt 'P 1'
_space_group_name_Hall 'P 1'
loop_
    _symmetry_equiv_pos_as_xyz
    x,y,z
loop_
    _atom_site_label
    _atom_site_type_symbol
    _atom_site_fract_x
    _atom_site_fract_y
    _atom_site_fract_z
    _atom_site_occupancy
    Zn1      Zn       0.53681    0.66911    0.78633    1.000
    Zn2      Zn       0.60698    0.61645    0.84238    1.000
    Zn3      Zn       0.67757    0.56404    0.89820    1.000
    O1       O        0.39180    0.39360    0.28860    1.000
    O2       O        0.53590    0.61710    0.84510    1.000
    O3       O        0.11590    0.82980    0.15780    1.000
    O4       O        0.38710    0.37420    0.39740    1.000
    O5       O        0.82470    0.11240    0.66140    1.000
    O6       O        0.50120    0.66570    0.82881    1.000
    O7       O        0.36720    0.41820    0.43260    1.000
    O8       O        0.60020    0.56250    0.85170    1.000
    O9       O        0.66000    0.52880    0.86210    1.000
    O10      O        0.44960    0.37200    0.25768    1.000
    O11      O        0.08870    0.80110    0.20460    1.000
    O12      O        0.78270    0.10370    0.61500    1.000
    C1       C        0.50740    0.64120    0.85120    1.000
    C2       C        0.47780    0.64000    0.88256    1.000
    C3       C        0.44960    0.66800    0.89092    1.000
    H1       H        0.44870    0.68780    0.87630    1.000
    C4       C        0.42280    0.66660    0.92110    1.000
    H2       H        0.40400    0.68540    0.92670    1.000
    C5       C        0.42420    0.63700    0.94301    1.000
    C6       C        0.45240    0.60900    0.93460    1.000
    H3       H        0.45340    0.58920    0.94930    1.000
    C7       C        0.47920    0.61040    0.90440    1.000
    H4       H        0.49810    0.59160    0.89880    1.000
    N1       N        0.39810    0.63470    0.97338    1.000
    C8       C        0.40210    0.61720    0.00440    1.000
    H5       H        0.42340    0.60000    0.00960    1.000
    C9       C        0.36980    0.62900    0.02650    1.000
    N2       N        0.34590    0.65390    0.00920    1.000
    N3       N        0.36330    0.65730    0.97640    1.000
    C10      C        0.35580    0.61770    0.06061    1.000
    C11      C        0.37180    0.58640    0.07520    1.000
    H6       H        0.39140    0.57220    0.06230    1.000
    C12      C        0.35860    0.57640    0.10920    1.000
    C13      C        0.32940    0.59770    0.12851    1.000
    H7       H        0.32060    0.59100    0.15120    1.000
    C14      C        0.31330    0.62890    0.11390    1.000
    C15      C        0.32650    0.63890    0.07990    1.000
    H8       H        0.31580    0.65980    0.07010    1.000
    C16      C        0.37400    0.54090    0.12400    1.000
    N4       N        0.40280    0.52100    0.10470    1.000
    N5       N        0.41630    0.49360    0.12510    1.000
    N6       N        0.39580    0.49660    0.15710    1.000
    C17      C        0.36960    0.52580    0.15640    1.000
    H9       H        0.35180    0.53400    0.17490    1.000
    C18      C        0.40000    0.47120    0.18214    1.000
    C19      C        0.43760    0.44930    0.18188    1.000
    H10      H        0.45940    0.45200    0.16440    1.000
    C20      C        0.44250    0.42350    0.20780    1.000
    H11      H        0.46770    0.40890    0.20760    1.000
    C21      C        0.41000    0.41950    0.23400    1.000
    C22      C        0.37240    0.44140    0.23420    1.000
    H12      H        0.35060    0.43870    0.25180    1.000
    C23      C        0.36740    0.46720    0.20830    1.000
    H13      H        0.34230    0.48180    0.20850    1.000
    C24      C        0.41720    0.39430    0.26290    1.000
    C25      C        0.28260    0.65100    0.13500    1.000
    C26      C        0.26040    0.68220    0.12810    1.000
    H14      H        0.26310    0.69570    0.10760    1.000
    N7       N        0.23340    0.68970    0.15690    1.000
    N8       N        0.23890    0.66320    0.18140    1.000
    N9       N        0.26930    0.63930    0.16800    1.000
    C27      C        0.20540    0.71750    0.16150    1.000
    C28      C        0.18080    0.71850    0.19290    1.000
    H15      H        0.18380    0.70050    0.20950    1.000
    C29      C        0.15170    0.74650    0.19950    1.000
    H16      H        0.13530    0.74720    0.22050    1.000
    C30      C        0.14720    0.77340    0.17470    1.000
    C31      C        0.17170    0.77240    0.14330    1.000
    H17      H        0.16870    0.79040    0.12670    1.000
    C32      C        0.20080    0.74440    0.13670    1.000
    H18      H        0.21730    0.74370    0.11570    1.000
    C33      C        0.11440    0.80290    0.17850    1.000
    C34      C        0.62320    0.53530    0.84620    1.000
    C35      C        0.61060    0.50990    0.81810    1.000
    C36      C        0.64150    0.48480    0.80680    1.000
    H19      H        0.66930    0.48290    0.81800    1.000
    C37      C        0.63090    0.46250    0.77860    1.000
    H20      H        0.65160    0.44570    0.77110    1.000
    C38      C        0.58940    0.46530    0.76180    1.000
    C39      C        0.55850    0.49050    0.77320    1.000
    H21      H        0.53080    0.49240    0.76190    1.000
    C40      C        0.56910    0.51270    0.80130    1.000
    H22      H        0.54840    0.52950    0.80890    1.000
    N10      N        0.57930    0.44080    0.73510    1.000
    C41      C        0.59560    0.41060    0.72400    1.000
    H23      H        0.61920    0.39820    0.73420    1.000
    C42      C        0.57270    0.40100    0.69590    1.000
    N11      N        0.54220    0.42520    0.68960    1.000
    N12      N        0.54620    0.44990    0.71390    1.000
    C43      C        0.57670    0.36930    0.67460    1.000
    C44      C        0.60340    0.34130    0.68560    1.000
    H24      H        0.61810    0.34230    0.70740    1.000
    C45      C        0.60830    0.31170    0.66420    1.000
    C46      C        0.58630    0.31010    0.63160    1.000
    H25      H        0.58960    0.29030    0.61720    1.000
    C47      C        0.55960    0.33810    0.62050    1.000
    C48      C        0.55470    0.36770    0.64200    1.000
    H26      H        0.53680    0.38640    0.63460    1.000
    N13      N        0.65810    0.28020    0.70650    1.000
    N14      N        0.68560    0.25140    0.70720    1.000
    N15      N        0.68450    0.23610    0.67450    1.000
    C49      C        0.65650    0.25540    0.65350    1.000
    H27      H        0.64970    0.25080    0.62990    1.000
    C50      C        0.64020    0.28270    0.67330    1.000
    C51      C        0.70470    0.20350    0.66800    1.000
    C52      C        0.70210    0.18560    0.63590    1.000
    H28      H        0.68040    0.19200    0.61920    1.000
    C53      C        0.73170    0.15820    0.62860    1.000
    H29      H        0.73000    0.14620    0.60710    1.000
    C54      C        0.76410    0.14860    0.65350    1.000
    C55      C        0.76670    0.16660    0.68570    1.000
    H30      H        0.78840    0.16020    0.70230    1.000
    C56      C        0.73710    0.19400    0.69290    1.000
    H31      H        0.73880    0.20600    0.71440    1.000
    C57      C        0.78850    0.11590    0.64530    1.000
    C58      C        0.53710    0.33540    0.58420    1.000
    C59      C        0.51260    0.35770    0.56750    1.000
    H32      H        0.50470    0.38010    0.57540    1.000
    N16      N        0.50080    0.34360    0.53800    1.000
    N17      N        0.51790    0.31260    0.53650    1.000
    N18      N        0.54050    0.30760    0.56510    1.000
    C60      C        0.47310    0.35480    0.50940    1.000
    C61      C        0.46690    0.33370    0.47960    1.000
    H33      H        0.48120    0.31190    0.47810    1.000
    C62      C        0.43950    0.34510    0.45200    1.000
    H34      H        0.43530    0.33100    0.43210    1.000
    C63      C        0.41820    0.37770    0.45420    1.000
    C64      C        0.42440    0.39890    0.48400    1.000
    H35      H        0.41020    0.42070    0.48550    1.000
    C65      C        0.45190    0.38740    0.51160    1.000
    H36      H        0.45600    0.40150    0.53150    1.000
    C66      C        0.39170    0.39120    0.42490    1.000
    Zn4      Zn       0.03681    0.16911    0.78633    1.000
    Zn5      Zn       0.10698    0.11645    0.84238    1.000
    Zn6      Zn       0.17757    0.06404    0.89820    1.000
    O13      O        0.89180    0.89360    0.28860    1.000
    O14      O        0.03590    0.11710    0.84510    1.000
    O15      O        0.61590    0.32980    0.15780    1.000
    O16      O        0.88710    0.87420    0.39740    1.000
    O17      O        0.32470    0.61240    0.66140    1.000
    O18      O        0.00120    0.16570    0.82881    1.000
    O19      O        0.86720    0.91820    0.43260    1.000
    O20      O        0.10020    0.06250    0.85170    1.000
    O21      O        0.16000    0.02880    0.86210    1.000
    O22      O        0.94960    0.87200    0.25768    1.000
    O23      O        0.58870    0.30110    0.20460    1.000
    O24      O        0.28270    0.60370    0.61500    1.000
    C67      C        0.00740    0.14120    0.85120    1.000
    C68      C        0.97780    0.14000    0.88256    1.000
    C69      C        0.94960    0.16800    0.89092    1.000
    H37      H        0.94870    0.18780    0.87630    1.000
    C70      C        0.92280    0.16660    0.92110    1.000
    H38      H        0.90400    0.18540    0.92670    1.000
    C71      C        0.92420    0.13700    0.94301    1.000
    C72      C        0.95240    0.10900    0.93460    1.000
    H39      H        0.95340    0.08920    0.94930    1.000
    C73      C        0.97920    0.11040    0.90440    1.000
    H40      H        0.99810    0.09160    0.89880    1.000
    N19      N        0.89810    0.13470    0.97338    1.000
    C74      C        0.90210    0.11720    0.00440    1.000
    H41      H        0.92340    0.10000    0.00960    1.000
    C75      C        0.86980    0.12900    0.02650    1.000
    N20      N        0.84590    0.15390    0.00920    1.000
    N21      N        0.86330    0.15730    0.97640    1.000
    C76      C        0.85580    0.11770    0.06061    1.000
    C77      C        0.87180    0.08640    0.07520    1.000
    H42      H        0.89140    0.07220    0.06230    1.000
    C78      C        0.85860    0.07640    0.10920    1.000
    C79      C        0.82940    0.09770    0.12851    1.000
    H43      H        0.82060    0.09100    0.15120    1.000
    C80      C        0.81330    0.12890    0.11390    1.000
    C81      C        0.82650    0.13890    0.07990    1.000
    H44      H        0.81580    0.15980    0.07010    1.000
    C82      C        0.87400    0.04090    0.12400    1.000
    N22      N        0.90280    0.02100    0.10470    1.000
    N23      N        0.91630    0.99360    0.12510    1.000
    N24      N        0.89580    0.99660    0.15710    1.000
    C83      C        0.86960    0.02580    0.15640    1.000
    H45      H        0.85180    0.03400    0.17490    1.000
    C84      C        0.90000    0.97120    0.18214    1.000
    C85      C        0.93760    0.94930    0.18188    1.000
    H46      H        0.95940    0.95200    0.16440    1.000
    C86      C        0.94250    0.92350    0.20780    1.000
    H47      H        0.96770    0.90890    0.20760    1.000
    C87      C        0.91000    0.91950    0.23400    1.000
    C88      C        0.87240    0.94140    0.23420    1.000
    H48      H        0.85060    0.93870    0.25180    1.000
    C89      C        0.86740    0.96720    0.20830    1.000
    H49      H        0.84230    0.98180    0.20850    1.000
    C90      C        0.91720    0.89430    0.26290    1.000
    C91      C        0.78260    0.15100    0.13500    1.000
    C92      C        0.76040    0.18220    0.12810    1.000
    H50      H        0.76310    0.19570    0.10760    1.000
    N25      N        0.73340    0.18970    0.15690    1.000
    N26      N        0.73890    0.16320    0.18140    1.000
    N27      N        0.76930    0.13930    0.16800    1.000
    C93      C        0.70540    0.21750    0.16150    1.000
    C94      C        0.68080    0.21850    0.19290    1.000
    H51      H        0.68380    0.20050    0.20950    1.000
    C95      C        0.65170    0.24650    0.19950    1.000
    H52      H        0.63530    0.24720    0.22050    1.000
    C96      C        0.64720    0.27340    0.17470    1.000
    C97      C        0.67170    0.27240    0.14330    1.000
    H53      H        0.66870    0.29040    0.12670    1.000
    C98      C        0.70080    0.24440    0.13670    1.000
    H54      H        0.71730    0.24370    0.11570    1.000
    C99      C        0.61440    0.30290    0.17850    1.000
    C100     C        0.12320    0.03530    0.84620    1.000
    C101     C        0.11060    0.00990    0.81810    1.000
    C102     C        0.14150    0.98480    0.80680    1.000
    H55      H        0.16930    0.98290    0.81800    1.000
    C103     C        0.13090    0.96250    0.77860    1.000
    H56      H        0.15160    0.94570    0.77110    1.000
    C104     C        0.08940    0.96530    0.76180    1.000
    C105     C        0.05850    0.99050    0.77320    1.000
    H57      H        0.03080    0.99240    0.76190    1.000
    C106     C        0.06910    0.01270    0.80130    1.000
    H58      H        0.04840    0.02950    0.80890    1.000
    N28      N        0.07930    0.94080    0.73510    1.000
    C107     C        0.09560    0.91060    0.72400    1.000
    H59      H        0.11920    0.89820    0.73420    1.000
    C108     C        0.07270    0.90100    0.69590    1.000
    N29      N        0.04220    0.92520    0.68960    1.000
    N30      N        0.04620    0.94990    0.71390    1.000
    C109     C        0.07670    0.86930    0.67460    1.000
    C110     C        0.10340    0.84130    0.68560    1.000
    H60      H        0.11810    0.84230    0.70740    1.000
    C111     C        0.10830    0.81170    0.66420    1.000
    C112     C        0.08630    0.81010    0.63160    1.000
    H61      H        0.08960    0.79030    0.61720    1.000
    C113     C        0.05960    0.83810    0.62050    1.000
    C114     C        0.05470    0.86770    0.64200    1.000
    H62      H        0.03680    0.88640    0.63460    1.000
    N31      N        0.15810    0.78020    0.70650    1.000
    N32      N        0.18560    0.75140    0.70720    1.000
    N33      N        0.18450    0.73610    0.67450    1.000
    C115     C        0.15650    0.75540    0.65350    1.000
    H63      H        0.14970    0.75080    0.62990    1.000
    C116     C        0.14020    0.78270    0.67330    1.000
    C117     C        0.20470    0.70350    0.66800    1.000
    C118     C        0.20210    0.68560    0.63590    1.000
    H64      H        0.18040    0.69200    0.61920    1.000
    C119     C        0.23170    0.65820    0.62860    1.000
    H65      H        0.23000    0.64620    0.60710    1.000
    C120     C        0.26410    0.64860    0.65350    1.000
    C121     C        0.26670    0.66660    0.68570    1.000
    H66      H        0.28840    0.66020    0.70230    1.000
    C122     C        0.23710    0.69400    0.69290    1.000
    H67      H        0.23880    0.70600    0.71440    1.000
    C123     C        0.28850    0.61590    0.64530    1.000
    C124     C        0.03710    0.83540    0.58420    1.000
    C125     C        0.01260    0.85770    0.56750    1.000
    H68      H        0.00470    0.88010    0.57540    1.000
    N34      N        0.00080    0.84360    0.53800    1.000
    N35      N        0.01790    0.81260    0.53650    1.000
    N36      N        0.04050    0.80760    0.56510    1.000
    C126     C        0.97310    0.85480    0.50940    1.000
    C127     C        0.96690    0.83370    0.47960    1.000
    H69      H        0.98120    0.81190    0.47810    1.000
    C128     C        0.93950    0.84510    0.45200    1.000
    H70      H        0.93530    0.83100    0.43210    1.000
    C129     C        0.91820    0.87770    0.45420    1.000
    C130     C        0.92440    0.89890    0.48400    1.000
    H71      H        0.91020    0.92070    0.48550    1.000
    C131     C        0.95190    0.88740    0.51160    1.000
    H72      H        0.95600    0.90150    0.53150    1.000
    C132     C        0.89170    0.89120    0.42490    1.000
    Zn7      Zn       0.46319    0.33089    0.28633    1.000
    Zn8      Zn       0.39302    0.38355    0.34238    1.000
    Zn9      Zn       0.32243    0.43596    0.39820    1.000
    O25      O        0.60820    0.60640    0.78860    1.000
    O26      O        0.46410    0.38290    0.34510    1.000
    O27      O        0.88410    0.17020    0.65780    1.000
    O28      O        0.61290    0.62580    0.89740    1.000
    O29      O        0.17530    0.88760    0.16140    1.000
    O30      O        0.49880    0.33430    0.32881    1.000
    O31      O        0.63280    0.58180    0.93260    1.000
    O32      O        0.39980    0.43750    0.35170    1.000
    O33      O        0.34000    0.47120    0.36210    1.000
    O34      O        0.55040    0.62800    0.75768    1.000
    O35      O        0.91130    0.19890    0.70460    1.000
    O36      O        0.21730    0.89630    0.11500    1.000
    C133     C        0.49260    0.35880    0.35120    1.000
    C134     C        0.52220    0.36000    0.38256    1.000
    C135     C        0.55040    0.33200    0.39092    1.000
    H73      H        0.55130    0.31220    0.37630    1.000
    C136     C        0.57720    0.33340    0.42110    1.000
    H74      H        0.59600    0.31460    0.42670    1.000
    C137     C        0.57580    0.36300    0.44301    1.000
    C138     C        0.54760    0.39100    0.43460    1.000
    H75      H        0.54660    0.41080    0.44930    1.000
    C139     C        0.52080    0.38960    0.40440    1.000
    H76      H        0.50190    0.40840    0.39880    1.000
    N37      N        0.60190    0.36530    0.47338    1.000
    C140     C        0.59790    0.38280    0.50440    1.000
    H77      H        0.57660    0.40000    0.50960    1.000
    C141     C        0.63020    0.37100    0.52650    1.000
    N38      N        0.65410    0.34610    0.50920    1.000
    N39      N        0.63670    0.34270    0.47640    1.000
    C142     C        0.64420    0.38230    0.56061    1.000
    C143     C        0.62820    0.41360    0.57520    1.000
    H78      H        0.60860    0.42780    0.56230    1.000
    C144     C        0.64140    0.42360    0.60920    1.000
    C145     C        0.67060    0.40230    0.62851    1.000
    H79      H        0.67940    0.40900    0.65120    1.000
    C146     C        0.68670    0.37110    0.61390    1.000
    C147     C        0.67350    0.36110    0.57990    1.000
    H80      H        0.68420    0.34020    0.57010    1.000
    C148     C        0.62600    0.45910    0.62400    1.000
    N40      N        0.59720    0.47900    0.60470    1.000
    N41      N        0.58370    0.50640    0.62510    1.000
    N42      N        0.60420    0.50340    0.65710    1.000
    C149     C        0.63040    0.47420    0.65640    1.000
    H81      H        0.64820    0.46600    0.67490    1.000
    C150     C        0.60000    0.52880    0.68214    1.000
    C151     C        0.56240    0.55070    0.68188    1.000
    H82      H        0.54060    0.54800    0.66440    1.000
    C152     C        0.55750    0.57650    0.70780    1.000
    H83      H        0.53230    0.59110    0.70760    1.000
    C153     C        0.59000    0.58050    0.73400    1.000
    C154     C        0.62760    0.55860    0.73420    1.000
    H84      H        0.64940    0.56130    0.75180    1.000
    C155     C        0.63260    0.53280    0.70830    1.000
    H85      H        0.65770    0.51820    0.70850    1.000
    C156     C        0.58280    0.60570    0.76290    1.000
    C157     C        0.71740    0.34900    0.63500    1.000
    C158     C        0.73960    0.31780    0.62810    1.000
    H86      H        0.73690    0.30430    0.60760    1.000
    N43      N        0.76660    0.31030    0.65690    1.000
    N44      N        0.76110    0.33680    0.68140    1.000
    N45      N        0.73070    0.36070    0.66800    1.000
    C159     C        0.79460    0.28250    0.66150    1.000
    C160     C        0.81920    0.28150    0.69290    1.000
    H87      H        0.81620    0.29950    0.70950    1.000
    C161     C        0.84830    0.25350    0.69950    1.000
    H88      H        0.86470    0.25280    0.72050    1.000
    C162     C        0.85280    0.22660    0.67470    1.000
    C163     C        0.82830    0.22760    0.64330    1.000
    H89      H        0.83130    0.20960    0.62670    1.000
    C164     C        0.79920    0.25560    0.63670    1.000
    H90      H        0.78270    0.25630    0.61570    1.000
    C165     C        0.88560    0.19710    0.67850    1.000
    C166     C        0.37680    0.46470    0.34620    1.000
    C167     C        0.38940    0.49010    0.31810    1.000
    C168     C        0.35850    0.51520    0.30680    1.000
    H91      H        0.33070    0.51710    0.31800    1.000
    C169     C        0.36910    0.53750    0.27860    1.000
    H92      H        0.34840    0.55430    0.27110    1.000
    C170     C        0.41060    0.53470    0.26180    1.000
    C171     C        0.44150    0.50950    0.27320    1.000
    H93      H        0.46920    0.50760    0.26190    1.000
    C172     C        0.43090    0.48730    0.30130    1.000
    H94      H        0.45160    0.47050    0.30890    1.000
    N46      N        0.42070    0.55920    0.23510    1.000
    C173     C        0.40440    0.58940    0.22400    1.000
    H95      H        0.38080    0.60180    0.23420    1.000
    C174     C        0.42730    0.59900    0.19590    1.000
    N47      N        0.45780    0.57480    0.18960    1.000
    N48      N        0.45380    0.55010    0.21390    1.000
    C175     C        0.42330    0.63070    0.17460    1.000
    C176     C        0.39660    0.65870    0.18560    1.000
    H96      H        0.38190    0.65770    0.20740    1.000
    C177     C        0.39170    0.68830    0.16420    1.000
    C178     C        0.41370    0.68990    0.13160    1.000
    H97      H        0.41040    0.70970    0.11720    1.000
    C179     C        0.44040    0.66190    0.12050    1.000
    C180     C        0.44530    0.63230    0.14200    1.000
    H98      H        0.46320    0.61360    0.13460    1.000
    N49      N        0.34190    0.71980    0.20650    1.000
    N50      N        0.31440    0.74860    0.20720    1.000
    N51      N        0.31550    0.76390    0.17450    1.000
    C181     C        0.34350    0.74460    0.15350    1.000
    H99      H        0.35030    0.74920    0.12990    1.000
    C182     C        0.35980    0.71730    0.17330    1.000
    C183     C        0.29530    0.79650    0.16800    1.000
    C184     C        0.29790    0.81440    0.13590    1.000
    H100     H        0.31960    0.80800    0.11920    1.000
    C185     C        0.26830    0.84180    0.12860    1.000
    H101     H        0.27000    0.85380    0.10710    1.000
    C186     C        0.23590    0.85140    0.15350    1.000
    C187     C        0.23330    0.83340    0.18570    1.000
    H102     H        0.21160    0.83980    0.20230    1.000
    C188     C        0.26290    0.80600    0.19290    1.000
    H103     H        0.26120    0.79400    0.21440    1.000
    C189     C        0.21150    0.88410    0.14530    1.000
    C190     C        0.46290    0.66460    0.08420    1.000
    C191     C        0.48740    0.64230    0.06750    1.000
    H104     H        0.49530    0.61990    0.07540    1.000
    N52      N        0.49920    0.65640    0.03800    1.000
    N53      N        0.48210    0.68740    0.03650    1.000
    N54      N        0.45950    0.69240    0.06510    1.000
    C192     C        0.52690    0.64520    0.00940    1.000
    C193     C        0.53310    0.66630    0.97960    1.000
    H105     H        0.51880    0.68810    0.97810    1.000
    C194     C        0.56050    0.65490    0.95200    1.000
    H106     H        0.56470    0.66900    0.93210    1.000
    C195     C        0.58180    0.62230    0.95420    1.000
    C196     C        0.57560    0.60110    0.98400    1.000
    H107     H        0.58980    0.57930    0.98550    1.000
    C197     C        0.54810    0.61260    0.01160    1.000
    H108     H        0.54400    0.59850    0.03150    1.000
    C198     C        0.60830    0.60880    0.92490    1.000
    Zn10     Zn       0.96319    0.83089    0.28633    1.000
    Zn11     Zn       0.89302    0.88355    0.34238    1.000
    Zn12     Zn       0.82243    0.93596    0.39820    1.000
    O37      O        0.10820    0.10640    0.78860    1.000
    O38      O        0.96410    0.88290    0.34510    1.000
    O39      O        0.38410    0.67020    0.65780    1.000
    O40      O        0.11290    0.12580    0.89740    1.000
    O41      O        0.67530    0.38760    0.16140    1.000
    O42      O        0.99880    0.83430    0.32881    1.000
    O43      O        0.13280    0.08180    0.93260    1.000
    O44      O        0.89980    0.93750    0.35170    1.000
    O45      O        0.84000    0.97120    0.36210    1.000
    O46      O        0.05040    0.12800    0.75768    1.000
    O47      O        0.41130    0.69890    0.70460    1.000
    O48      O        0.71730    0.39630    0.11500    1.000
    C199     C        0.99260    0.85880    0.35120    1.000
    C200     C        0.02220    0.86000    0.38256    1.000
    C201     C        0.05040    0.83200    0.39092    1.000
    H109     H        0.05130    0.81220    0.37630    1.000
    C202     C        0.07720    0.83340    0.42110    1.000
    H110     H        0.09600    0.81460    0.42670    1.000
    C203     C        0.07580    0.86300    0.44301    1.000
    C204     C        0.04760    0.89100    0.43460    1.000
    H111     H        0.04660    0.91080    0.44930    1.000
    C205     C        0.02080    0.88960    0.40440    1.000
    H112     H        0.00190    0.90840    0.39880    1.000
    N55      N        0.10190    0.86530    0.47338    1.000
    C206     C        0.09790    0.88280    0.50440    1.000
    H113     H        0.07660    0.90000    0.50960    1.000
    C207     C        0.13020    0.87100    0.52650    1.000
    N56      N        0.15410    0.84610    0.50920    1.000
    N57      N        0.13670    0.84270    0.47640    1.000
    C208     C        0.14420    0.88230    0.56061    1.000
    C209     C        0.12820    0.91360    0.57520    1.000
    H114     H        0.10860    0.92780    0.56230    1.000
    C210     C        0.14140    0.92360    0.60920    1.000
    C211     C        0.17060    0.90230    0.62851    1.000
    H115     H        0.17940    0.90900    0.65120    1.000
    C212     C        0.18670    0.87110    0.61390    1.000
    C213     C        0.17350    0.86110    0.57990    1.000
    H116     H        0.18420    0.84020    0.57010    1.000
    C214     C        0.12600    0.95910    0.62400    1.000
    N58      N        0.09720    0.97900    0.60470    1.000
    N59      N        0.08370    0.00640    0.62510    1.000
    N60      N        0.10420    0.00340    0.65710    1.000
    C215     C        0.13040    0.97420    0.65640    1.000
    H117     H        0.14820    0.96600    0.67490    1.000
    C216     C        0.10000    0.02880    0.68214    1.000
    C217     C        0.06240    0.05070    0.68188    1.000
    H118     H        0.04060    0.04800    0.66440    1.000
    C218     C        0.05750    0.07650    0.70780    1.000
    H119     H        0.03230    0.09110    0.70760    1.000
    C219     C        0.09000    0.08050    0.73400    1.000
    C220     C        0.12760    0.05860    0.73420    1.000
    H120     H        0.14940    0.06130    0.75180    1.000
    C221     C        0.13260    0.03280    0.70830    1.000
    H121     H        0.15770    0.01820    0.70850    1.000
    C222     C        0.08280    0.10570    0.76290    1.000
    C223     C        0.21740    0.84900    0.63500    1.000
    C224     C        0.23960    0.81780    0.62810    1.000
    H122     H        0.23690    0.80430    0.60760    1.000
    N61      N        0.26660    0.81030    0.65690    1.000
    N62      N        0.26110    0.83680    0.68140    1.000
    N63      N        0.23070    0.86070    0.66800    1.000
    C225     C        0.29460    0.78250    0.66150    1.000
    C226     C        0.31920    0.78150    0.69290    1.000
    H123     H        0.31620    0.79950    0.70950    1.000
    C227     C        0.34830    0.75350    0.69950    1.000
    H124     H        0.36470    0.75280    0.72050    1.000
    C228     C        0.35280    0.72660    0.67470    1.000
    C229     C        0.32830    0.72760    0.64330    1.000
    H125     H        0.33130    0.70960    0.62670    1.000
    C230     C        0.29920    0.75560    0.63670    1.000
    H126     H        0.28270    0.75630    0.61570    1.000
    C231     C        0.38560    0.69710    0.67850    1.000
    C232     C        0.87680    0.96470    0.34620    1.000
    C233     C        0.88940    0.99010    0.31810    1.000
    C234     C        0.85850    0.01520    0.30680    1.000
    H127     H        0.83070    0.01710    0.31800    1.000
    C235     C        0.86910    0.03750    0.27860    1.000
    H128     H        0.84840    0.05430    0.27110    1.000
    C236     C        0.91060    0.03470    0.26180    1.000
    C237     C        0.94150    0.00950    0.27320    1.000
    H129     H        0.96920    0.00760    0.26190    1.000
    C238     C        0.93090    0.98730    0.30130    1.000
    H130     H        0.95160    0.97050    0.30890    1.000
    N64      N        0.92070    0.05920    0.23510    1.000
    C239     C        0.90440    0.08940    0.22400    1.000
    H131     H        0.88080    0.10180    0.23420    1.000
    C240     C        0.92730    0.09900    0.19590    1.000
    N65      N        0.95780    0.07480    0.18960    1.000
    N66      N        0.95380    0.05010    0.21390    1.000
    C241     C        0.92330    0.13070    0.17460    1.000
    C242     C        0.89660    0.15870    0.18560    1.000
    H132     H        0.88190    0.15770    0.20740    1.000
    C243     C        0.89170    0.18830    0.16420    1.000
    C244     C        0.91370    0.18990    0.13160    1.000
    H133     H        0.91040    0.20970    0.11720    1.000
    C245     C        0.94040    0.16190    0.12050    1.000
    C246     C        0.94530    0.13230    0.14200    1.000
    H134     H        0.96320    0.11360    0.13460    1.000
    N67      N        0.84190    0.21980    0.20650    1.000
    N68      N        0.81440    0.24860    0.20720    1.000
    N69      N        0.81550    0.26390    0.17450    1.000
    C247     C        0.84350    0.24460    0.15350    1.000
    H135     H        0.85030    0.24920    0.12990    1.000
    C248     C        0.85980    0.21730    0.17330    1.000
    C249     C        0.79530    0.29650    0.16800    1.000
    C250     C        0.79790    0.31440    0.13590    1.000
    H136     H        0.81960    0.30800    0.11920    1.000
    C251     C        0.76830    0.34180    0.12860    1.000
    H137     H        0.77000    0.35380    0.10710    1.000
    C252     C        0.73590    0.35140    0.15350    1.000
    C253     C        0.73330    0.33340    0.18570    1.000
    H138     H        0.71160    0.33980    0.20230    1.000
    C254     C        0.76290    0.30600    0.19290    1.000
    H139     H        0.76120    0.29400    0.21440    1.000
    C255     C        0.71150    0.38410    0.14530    1.000
    C256     C        0.96290    0.16460    0.08420    1.000
    C257     C        0.98740    0.14230    0.06750    1.000
    H140     H        0.99530    0.11990    0.07540    1.000
    N70      N        0.99920    0.15640    0.03800    1.000
    N71      N        0.98210    0.18740    0.03650    1.000
    N72      N        0.95950    0.19240    0.06510    1.000
    C258     C        0.02690    0.14520    0.00940    1.000
    C259     C        0.03310    0.16630    0.97960    1.000
    H141     H        0.01880    0.18810    0.97810    1.000
    C260     C        0.06050    0.15490    0.95200    1.000
    H142     H        0.06470    0.16900    0.93210    1.000
    C261     C        0.08180    0.12230    0.95420    1.000
    C262     C        0.07560    0.10110    0.98400    1.000
    H143     H        0.08980    0.07930    0.98550    1.000
    C263     C        0.04810    0.11260    0.01160    1.000
    H144     H        0.04400    0.09850    0.03150    1.000
    C264     C        0.10830    0.10880    0.92490    1.000
    Zn13     Zn       0.46319    0.66911    0.71367    1.000
    Zn14     Zn       0.39302    0.61645    0.65762    1.000
    Zn15     Zn       0.32243    0.56404    0.60180    1.000
    O49      O        0.60820    0.39360    0.21140    1.000
    O50      O        0.46410    0.61710    0.65490    1.000
    O51      O        0.88410    0.82980    0.34220    1.000
    O52      O        0.61290    0.37420    0.10260    1.000
    O53      O        0.17530    0.11240    0.83860    1.000
    O54      O        0.49880    0.66570    0.67119    1.000
    O55      O        0.63280    0.41820    0.06740    1.000
    O56      O        0.39980    0.56250    0.64830    1.000
    O57      O        0.34000    0.52880    0.63790    1.000
    O58      O        0.55040    0.37200    0.24232    1.000
    O59      O        0.91130    0.80110    0.29540    1.000
    O60      O        0.21730    0.10370    0.88500    1.000
    C265     C        0.49260    0.64120    0.64880    1.000
    C266     C        0.52220    0.64000    0.61744    1.000
    C267     C        0.55040    0.66800    0.60908    1.000
    H145     H        0.55130    0.68780    0.62370    1.000
    C268     C        0.57720    0.66660    0.57890    1.000
    H146     H        0.59600    0.68540    0.57330    1.000
    C269     C        0.57580    0.63700    0.55699    1.000
    C270     C        0.54760    0.60900    0.56540    1.000
    H147     H        0.54660    0.58920    0.55070    1.000
    C271     C        0.52080    0.61040    0.59560    1.000
    H148     H        0.50190    0.59160    0.60120    1.000
    N73      N        0.60190    0.63470    0.52662    1.000
    C272     C        0.59790    0.61720    0.49560    1.000
    H149     H        0.57660    0.60000    0.49040    1.000
    C273     C        0.63020    0.62900    0.47350    1.000
    N74      N        0.65410    0.65390    0.49080    1.000
    N75      N        0.63670    0.65730    0.52360    1.000
    C274     C        0.64420    0.61770    0.43939    1.000
    C275     C        0.62820    0.58640    0.42480    1.000
    H150     H        0.60860    0.57220    0.43770    1.000
    C276     C        0.64140    0.57640    0.39080    1.000
    C277     C        0.67060    0.59770    0.37149    1.000
    H151     H        0.67940    0.59100    0.34880    1.000
    C278     C        0.68670    0.62890    0.38610    1.000
    C279     C        0.67350    0.63890    0.42010    1.000
    H152     H        0.68420    0.65980    0.42990    1.000
    C280     C        0.62600    0.54090    0.37600    1.000
    N76      N        0.59720    0.52100    0.39530    1.000
    N77      N        0.58370    0.49360    0.37490    1.000
    N78      N        0.60420    0.49660    0.34290    1.000
    C281     C        0.63040    0.52580    0.34360    1.000
    H153     H        0.64820    0.53400    0.32510    1.000
    C282     C        0.60000    0.47120    0.31786    1.000
    C283     C        0.56240    0.44930    0.31812    1.000
    H154     H        0.54060    0.45200    0.33560    1.000
    C284     C        0.55750    0.42350    0.29220    1.000
    H155     H        0.53230    0.40890    0.29240    1.000
    C285     C        0.59000    0.41950    0.26600    1.000
    C286     C        0.62760    0.44140    0.26580    1.000
    H156     H        0.64940    0.43870    0.24820    1.000
    C287     C        0.63260    0.46720    0.29170    1.000
    H157     H        0.65770    0.48180    0.29150    1.000
    C288     C        0.58280    0.39430    0.23710    1.000
    C289     C        0.71740    0.65100    0.36500    1.000
    C290     C        0.73960    0.68220    0.37190    1.000
    H158     H        0.73690    0.69570    0.39240    1.000
    N79      N        0.76660    0.68970    0.34310    1.000
    N80      N        0.76110    0.66320    0.31860    1.000
    N81      N        0.73070    0.63930    0.33200    1.000
    C291     C        0.79460    0.71750    0.33850    1.000
    C292     C        0.81920    0.71850    0.30710    1.000
    H159     H        0.81620    0.70050    0.29050    1.000
    C293     C        0.84830    0.74650    0.30050    1.000
    H160     H        0.86470    0.74720    0.27950    1.000
    C294     C        0.85280    0.77340    0.32530    1.000
    C295     C        0.82830    0.77240    0.35670    1.000
    H161     H        0.83130    0.79040    0.37330    1.000
    C296     C        0.79920    0.74440    0.36330    1.000
    H162     H        0.78270    0.74370    0.38430    1.000
    C297     C        0.88560    0.80290    0.32150    1.000
    C298     C        0.37680    0.53530    0.65380    1.000
    C299     C        0.38940    0.50990    0.68190    1.000
    C300     C        0.35850    0.48480    0.69320    1.000
    H163     H        0.33070    0.48290    0.68200    1.000
    C301     C        0.36910    0.46250    0.72140    1.000
    H164     H        0.34840    0.44570    0.72890    1.000
    C302     C        0.41060    0.46530    0.73820    1.000
    C303     C        0.44150    0.49050    0.72680    1.000
    H165     H        0.46920    0.49240    0.73810    1.000
    C304     C        0.43090    0.51270    0.69870    1.000
    H166     H        0.45160    0.52950    0.69110    1.000
    N82      N        0.42070    0.44080    0.76490    1.000
    C305     C        0.40440    0.41060    0.77600    1.000
    H167     H        0.38080    0.39820    0.76580    1.000
    C306     C        0.42730    0.40100    0.80410    1.000
    N83      N        0.45780    0.42520    0.81040    1.000
    N84      N        0.45380    0.44990    0.78610    1.000
    C307     C        0.42330    0.36930    0.82540    1.000
    C308     C        0.39660    0.34130    0.81440    1.000
    H168     H        0.38190    0.34230    0.79260    1.000
    C309     C        0.39170    0.31170    0.83580    1.000
    C310     C        0.41370    0.31010    0.86840    1.000
    H169     H        0.41040    0.29030    0.88280    1.000
    C311     C        0.44040    0.33810    0.87950    1.000
    C312     C        0.44530    0.36770    0.85800    1.000
    H170     H        0.46320    0.38640    0.86540    1.000
    N85      N        0.34190    0.28020    0.79350    1.000
    N86      N        0.31440    0.25140    0.79280    1.000
    N87      N        0.31550    0.23610    0.82550    1.000
    C313     C        0.34350    0.25540    0.84650    1.000
    H171     H        0.35030    0.25080    0.87010    1.000
    C314     C        0.35980    0.28270    0.82670    1.000
    C315     C        0.29530    0.20350    0.83200    1.000
    C316     C        0.29790    0.18560    0.86410    1.000
    H172     H        0.31960    0.19200    0.88080    1.000
    C317     C        0.26830    0.15820    0.87140    1.000
    H173     H        0.27000    0.14620    0.89290    1.000
    C318     C        0.23590    0.14860    0.84650    1.000
    C319     C        0.23330    0.16660    0.81430    1.000
    H174     H        0.21160    0.16020    0.79770    1.000
    C320     C        0.26290    0.19400    0.80710    1.000
    H175     H        0.26120    0.20600    0.78560    1.000
    C321     C        0.21150    0.11590    0.85470    1.000
    C322     C        0.46290    0.33540    0.91580    1.000
    C323     C        0.48740    0.35770    0.93250    1.000
    H176     H        0.49530    0.38010    0.92460    1.000
    N88      N        0.49920    0.34360    0.96200    1.000
    N89      N        0.48210    0.31260    0.96350    1.000
    N90      N        0.45950    0.30760    0.93490    1.000
    C324     C        0.52690    0.35480    0.99060    1.000
    C325     C        0.53310    0.33370    0.02040    1.000
    H177     H        0.51880    0.31190    0.02190    1.000
    C326     C        0.56050    0.34510    0.04800    1.000
    H178     H        0.56470    0.33100    0.06790    1.000
    C327     C        0.58180    0.37770    0.04580    1.000
    C328     C        0.57560    0.39890    0.01600    1.000
    H179     H        0.58980    0.42070    0.01450    1.000
    C329     C        0.54810    0.38740    0.98840    1.000
    H180     H        0.54400    0.40150    0.96850    1.000
    C330     C        0.60830    0.39120    0.07510    1.000
    Zn16     Zn       0.96319    0.16911    0.71367    1.000
    Zn17     Zn       0.89302    0.11645    0.65762    1.000
    Zn18     Zn       0.82243    0.06404    0.60180    1.000
    O61      O        0.10820    0.89360    0.21140    1.000
    O62      O        0.96410    0.11710    0.65490    1.000
    O63      O        0.38410    0.32980    0.34220    1.000
    O64      O        0.11290    0.87420    0.10260    1.000
    O65      O        0.67530    0.61240    0.83860    1.000
    O66      O        0.99880    0.16570    0.67119    1.000
    O67      O        0.13280    0.91820    0.06740    1.000
    O68      O        0.89980    0.06250    0.64830    1.000
    O69      O        0.84000    0.02880    0.63790    1.000
    O70      O        0.05040    0.87200    0.24232    1.000
    O71      O        0.41130    0.30110    0.29540    1.000
    O72      O        0.71730    0.60370    0.88500    1.000
    C331     C        0.99260    0.14120    0.64880    1.000
    C332     C        0.02220    0.14000    0.61744    1.000
    C333     C        0.05040    0.16800    0.60908    1.000
    H181     H        0.05130    0.18780    0.62370    1.000
    C334     C        0.07720    0.16660    0.57890    1.000
    H182     H        0.09600    0.18540    0.57330    1.000
    C335     C        0.07580    0.13700    0.55699    1.000
    C336     C        0.04760    0.10900    0.56540    1.000
    H183     H        0.04660    0.08920    0.55070    1.000
    C337     C        0.02080    0.11040    0.59560    1.000
    H184     H        0.00190    0.09160    0.60120    1.000
    N91      N        0.10190    0.13470    0.52662    1.000
    C338     C        0.09790    0.11720    0.49560    1.000
    H185     H        0.07660    0.10000    0.49040    1.000
    C339     C        0.13020    0.12900    0.47350    1.000
    N92      N        0.15410    0.15390    0.49080    1.000
    N93      N        0.13670    0.15730    0.52360    1.000
    C340     C        0.14420    0.11770    0.43939    1.000
    C341     C        0.12820    0.08640    0.42480    1.000
    H186     H        0.10860    0.07220    0.43770    1.000
    C342     C        0.14140    0.07640    0.39080    1.000
    C343     C        0.17060    0.09770    0.37149    1.000
    H187     H        0.17940    0.09100    0.34880    1.000
    C344     C        0.18670    0.12890    0.38610    1.000
    C345     C        0.17350    0.13890    0.42010    1.000
    H188     H        0.18420    0.15980    0.42990    1.000
    C346     C        0.12600    0.04090    0.37600    1.000
    N94      N        0.09720    0.02100    0.39530    1.000
    N95      N        0.08370    0.99360    0.37490    1.000
    N96      N        0.10420    0.99660    0.34290    1.000
    C347     C        0.13040    0.02580    0.34360    1.000
    H189     H        0.14820    0.03400    0.32510    1.000
    C348     C        0.10000    0.97120    0.31786    1.000
    C349     C        0.06240    0.94930    0.31812    1.000
    H190     H        0.04060    0.95200    0.33560    1.000
    C350     C        0.05750    0.92350    0.29220    1.000
    H191     H        0.03230    0.90890    0.29240    1.000
    C351     C        0.09000    0.91950    0.26600    1.000
    C352     C        0.12760    0.94140    0.26580    1.000
    H192     H        0.14940    0.93870    0.24820    1.000
    C353     C        0.13260    0.96720    0.29170    1.000
    H193     H        0.15770    0.98180    0.29150    1.000
    C354     C        0.08280    0.89430    0.23710    1.000
    C355     C        0.21740    0.15100    0.36500    1.000
    C356     C        0.23960    0.18220    0.37190    1.000
    H194     H        0.23690    0.19570    0.39240    1.000
    N97      N        0.26660    0.18970    0.34310    1.000
    N98      N        0.26110    0.16320    0.31860    1.000
    N99      N        0.23070    0.13930    0.33200    1.000
    C357     C        0.29460    0.21750    0.33850    1.000
    C358     C        0.31920    0.21850    0.30710    1.000
    H195     H        0.31620    0.20050    0.29050    1.000
    C359     C        0.34830    0.24650    0.30050    1.000
    H196     H        0.36470    0.24720    0.27950    1.000
    C360     C        0.35280    0.27340    0.32530    1.000
    C361     C        0.32830    0.27240    0.35670    1.000
    H197     H        0.33130    0.29040    0.37330    1.000
    C362     C        0.29920    0.24440    0.36330    1.000
    H198     H        0.28270    0.24370    0.38430    1.000
    C363     C        0.38560    0.30290    0.32150    1.000
    C364     C        0.87680    0.03530    0.65380    1.000
    C365     C        0.88940    0.00990    0.68190    1.000
    C366     C        0.85850    0.98480    0.69320    1.000
    H199     H        0.83070    0.98290    0.68200    1.000
    C367     C        0.86910    0.96250    0.72140    1.000
    H200     H        0.84840    0.94570    0.72890    1.000
    C368     C        0.91060    0.96530    0.73820    1.000
    C369     C        0.94150    0.99050    0.72680    1.000
    H201     H        0.96920    0.99240    0.73810    1.000
    C370     C        0.93090    0.01270    0.69870    1.000
    H202     H        0.95160    0.02950    0.69110    1.000
    N100     N        0.92070    0.94080    0.76490    1.000
    C371     C        0.90440    0.91060    0.77600    1.000
    H203     H        0.88080    0.89820    0.76580    1.000
    C372     C        0.92730    0.90100    0.80410    1.000
    N101     N        0.95780    0.92520    0.81040    1.000
    N102     N        0.95380    0.94990    0.78610    1.000
    C373     C        0.92330    0.86930    0.82540    1.000
    C374     C        0.89660    0.84130    0.81440    1.000
    H204     H        0.88190    0.84230    0.79260    1.000
    C375     C        0.89170    0.81170    0.83580    1.000
    C376     C        0.91370    0.81010    0.86840    1.000
    H205     H        0.91040    0.79030    0.88280    1.000
    C377     C        0.94040    0.83810    0.87950    1.000
    C378     C        0.94530    0.86770    0.85800    1.000
    H206     H        0.96320    0.88640    0.86540    1.000
    N103     N        0.84190    0.78020    0.79350    1.000
    N104     N        0.81440    0.75140    0.79280    1.000
    N105     N        0.81550    0.73610    0.82550    1.000
    C379     C        0.84350    0.75540    0.84650    1.000
    H207     H        0.85030    0.75080    0.87010    1.000
    C380     C        0.85980    0.78270    0.82670    1.000
    C381     C        0.79530    0.70350    0.83200    1.000
    C382     C        0.79790    0.68560    0.86410    1.000
    H208     H        0.81960    0.69200    0.88080    1.000
    C383     C        0.76830    0.65820    0.87140    1.000
    H209     H        0.77000    0.64620    0.89290    1.000
    C384     C        0.73590    0.64860    0.84650    1.000
    C385     C        0.73330    0.66660    0.81430    1.000
    H210     H        0.71160    0.66020    0.79770    1.000
    C386     C        0.76290    0.69400    0.80710    1.000
    H211     H        0.76120    0.70600    0.78560    1.000
    C387     C        0.71150    0.61590    0.85470    1.000
    C388     C        0.96290    0.83540    0.91580    1.000
    C389     C        0.98740    0.85770    0.93250    1.000
    H212     H        0.99530    0.88010    0.92460    1.000
    N106     N        0.99920    0.84360    0.96200    1.000
    N107     N        0.98210    0.81260    0.96350    1.000
    N108     N        0.95950    0.80760    0.93490    1.000
    C390     C        0.02690    0.85480    0.99060    1.000
    C391     C        0.03310    0.83370    0.02040    1.000
    H213     H        0.01880    0.81190    0.02190    1.000
    C392     C        0.06050    0.84510    0.04800    1.000
    H214     H        0.06470    0.83100    0.06790    1.000
    C393     C        0.08180    0.87770    0.04580    1.000
    C394     C        0.07560    0.89890    0.01600    1.000
    H215     H        0.08980    0.92070    0.01450    1.000
    C395     C        0.04810    0.88740    0.98840    1.000
    H216     H        0.04400    0.90150    0.96850    1.000
    C396     C        0.10830    0.89120    0.07510    1.000
    Zn19     Zn       0.53681    0.33089    0.21367    1.000
    Zn20     Zn       0.60698    0.38355    0.15762    1.000
    Zn21     Zn       0.67757    0.43596    0.10180    1.000
    O73      O        0.39180    0.60640    0.71140    1.000
    O74      O        0.53590    0.38290    0.15490    1.000
    O75      O        0.11590    0.17020    0.84220    1.000
    O76      O        0.38710    0.62580    0.60260    1.000
    O77      O        0.82470    0.88760    0.33860    1.000
    O78      O        0.50120    0.33430    0.17119    1.000
    O79      O        0.36720    0.58180    0.56740    1.000
    O80      O        0.60020    0.43750    0.14830    1.000
    O81      O        0.66000    0.47120    0.13790    1.000
    O82      O        0.44960    0.62800    0.74232    1.000
    O83      O        0.08870    0.19890    0.79540    1.000
    O84      O        0.78270    0.89630    0.38500    1.000
    C397     C        0.50740    0.35880    0.14880    1.000
    C398     C        0.47780    0.36000    0.11744    1.000
    C399     C        0.44960    0.33200    0.10908    1.000
    H217     H        0.44870    0.31220    0.12370    1.000
    C400     C        0.42280    0.33340    0.07890    1.000
    H218     H        0.40400    0.31460    0.07330    1.000
    C401     C        0.42420    0.36300    0.05699    1.000
    C402     C        0.45240    0.39100    0.06540    1.000
    H219     H        0.45340    0.41080    0.05070    1.000
    C403     C        0.47920    0.38960    0.09560    1.000
    H220     H        0.49810    0.40840    0.10120    1.000
    N109     N        0.39810    0.36530    0.02662    1.000
    C404     C        0.40210    0.38280    0.99560    1.000
    H221     H        0.42340    0.40000    0.99040    1.000
    C405     C        0.36980    0.37100    0.97350    1.000
    N110     N        0.34590    0.34610    0.99080    1.000
    N111     N        0.36330    0.34270    0.02360    1.000
    C406     C        0.35580    0.38230    0.93939    1.000
    C407     C        0.37180    0.41360    0.92480    1.000
    H222     H        0.39140    0.42780    0.93770    1.000
    C408     C        0.35860    0.42360    0.89080    1.000
    C409     C        0.32940    0.40230    0.87149    1.000
    H223     H        0.32060    0.40900    0.84880    1.000
    C410     C        0.31330    0.37110    0.88610    1.000
    C411     C        0.32650    0.36110    0.92010    1.000
    H224     H        0.31580    0.34020    0.92990    1.000
    C412     C        0.37400    0.45910    0.87600    1.000
    N112     N        0.40280    0.47900    0.89530    1.000
    N113     N        0.41630    0.50640    0.87490    1.000
    N114     N        0.39580    0.50340    0.84290    1.000
    C413     C        0.36960    0.47420    0.84360    1.000
    H225     H        0.35180    0.46600    0.82510    1.000
    C414     C        0.40000    0.52880    0.81786    1.000
    C415     C        0.43760    0.55070    0.81812    1.000
    H226     H        0.45940    0.54800    0.83560    1.000
    C416     C        0.44250    0.57650    0.79220    1.000
    H227     H        0.46770    0.59110    0.79240    1.000
    C417     C        0.41000    0.58050    0.76600    1.000
    C418     C        0.37240    0.55860    0.76580    1.000
    H228     H        0.35060    0.56130    0.74820    1.000
    C419     C        0.36740    0.53280    0.79170    1.000
    H229     H        0.34230    0.51820    0.79150    1.000
    C420     C        0.41720    0.60570    0.73710    1.000
    C421     C        0.28260    0.34900    0.86500    1.000
    C422     C        0.26040    0.31780    0.87190    1.000
    H230     H        0.26310    0.30430    0.89240    1.000
    N115     N        0.23340    0.31030    0.84310    1.000
    N116     N        0.23890    0.33680    0.81860    1.000
    N117     N        0.26930    0.36070    0.83200    1.000
    C423     C        0.20540    0.28250    0.83850    1.000
    C424     C        0.18080    0.28150    0.80710    1.000
    H231     H        0.18380    0.29950    0.79050    1.000
    C425     C        0.15170    0.25350    0.80050    1.000
    H232     H        0.13530    0.25280    0.77950    1.000
    C426     C        0.14720    0.22660    0.82530    1.000
    C427     C        0.17170    0.22760    0.85670    1.000
    H233     H        0.16870    0.20960    0.87330    1.000
    C428     C        0.20080    0.25560    0.86330    1.000
    H234     H        0.21730    0.25630    0.88430    1.000
    C429     C        0.11440    0.19710    0.82150    1.000
    C430     C        0.62320    0.46470    0.15380    1.000
    C431     C        0.61060    0.49010    0.18190    1.000
    C432     C        0.64150    0.51520    0.19320    1.000
    H235     H        0.66930    0.51710    0.18200    1.000
    C433     C        0.63090    0.53750    0.22140    1.000
    H236     H        0.65160    0.55430    0.22890    1.000
    C434     C        0.58940    0.53470    0.23820    1.000
    C435     C        0.55850    0.50950    0.22680    1.000
    H237     H        0.53080    0.50760    0.23810    1.000
    C436     C        0.56910    0.48730    0.19870    1.000
    H238     H        0.54840    0.47050    0.19110    1.000
    N118     N        0.57930    0.55920    0.26490    1.000
    C437     C        0.59560    0.58940    0.27600    1.000
    H239     H        0.61920    0.60180    0.26580    1.000
    C438     C        0.57270    0.59900    0.30410    1.000
    N119     N        0.54220    0.57480    0.31040    1.000
    N120     N        0.54620    0.55010    0.28610    1.000
    C439     C        0.57670    0.63070    0.32540    1.000
    C440     C        0.60340    0.65870    0.31440    1.000
    H240     H        0.61810    0.65770    0.29260    1.000
    C441     C        0.60830    0.68830    0.33580    1.000
    C442     C        0.58630    0.68990    0.36840    1.000
    H241     H        0.58960    0.70970    0.38280    1.000
    C443     C        0.55960    0.66190    0.37950    1.000
    C444     C        0.55470    0.63230    0.35800    1.000
    H242     H        0.53680    0.61360    0.36540    1.000
    N121     N        0.65810    0.71980    0.29350    1.000
    N122     N        0.68560    0.74860    0.29280    1.000
    N123     N        0.68450    0.76390    0.32550    1.000
    C445     C        0.65650    0.74460    0.34650    1.000
    H243     H        0.64970    0.74920    0.37010    1.000
    C446     C        0.64020    0.71730    0.32670    1.000
    C447     C        0.70470    0.79650    0.33200    1.000
    C448     C        0.70210    0.81440    0.36410    1.000
    H244     H        0.68040    0.80800    0.38080    1.000
    C449     C        0.73170    0.84180    0.37140    1.000
    H245     H        0.73000    0.85380    0.39290    1.000
    C450     C        0.76410    0.85140    0.34650    1.000
    C451     C        0.76670    0.83340    0.31430    1.000
    H246     H        0.78840    0.83980    0.29770    1.000
    C452     C        0.73710    0.80600    0.30710    1.000
    H247     H        0.73880    0.79400    0.28560    1.000
    C453     C        0.78850    0.88410    0.35470    1.000
    C454     C        0.53710    0.66460    0.41580    1.000
    C455     C        0.51260    0.64230    0.43250    1.000
    H248     H        0.50470    0.61990    0.42460    1.000
    N124     N        0.50080    0.65640    0.46200    1.000
    N125     N        0.51790    0.68740    0.46350    1.000
    N126     N        0.54050    0.69240    0.43490    1.000
    C456     C        0.47310    0.64520    0.49060    1.000
    C457     C        0.46690    0.66630    0.52040    1.000
    H249     H        0.48120    0.68810    0.52190    1.000
    C458     C        0.43950    0.65490    0.54800    1.000
    H250     H        0.43530    0.66900    0.56790    1.000
    C459     C        0.41820    0.62230    0.54580    1.000
    C460     C        0.42440    0.60110    0.51600    1.000
    H251     H        0.41020    0.57930    0.51450    1.000
    C461     C        0.45190    0.61260    0.48840    1.000
    H252     H        0.45600    0.59850    0.46850    1.000
    C462     C        0.39170    0.60880    0.57510    1.000
    Zn22     Zn       0.03681    0.83089    0.21367    1.000
    Zn23     Zn       0.10698    0.88355    0.15762    1.000
    Zn24     Zn       0.17757    0.93596    0.10180    1.000
    O85      O        0.89180    0.10640    0.71140    1.000
    O86      O        0.03590    0.88290    0.15490    1.000
    O87      O        0.61590    0.67020    0.84220    1.000
    O88      O        0.88710    0.12580    0.60260    1.000
    O89      O        0.32470    0.38760    0.33860    1.000
    O90      O        0.00120    0.83430    0.17119    1.000
    O91      O        0.86720    0.08180    0.56740    1.000
    O92      O        0.10020    0.93750    0.14830    1.000
    O93      O        0.16000    0.97120    0.13790    1.000
    O94      O        0.94960    0.12800    0.74232    1.000
    O95      O        0.58870    0.69890    0.79540    1.000
    O96      O        0.28270    0.39630    0.38500    1.000
    C463     C        0.00740    0.85880    0.14880    1.000
    C464     C        0.97780    0.86000    0.11744    1.000
    C465     C        0.94960    0.83200    0.10908    1.000
    H253     H        0.94870    0.81220    0.12370    1.000
    C466     C        0.92280    0.83340    0.07890    1.000
    H254     H        0.90400    0.81460    0.07330    1.000
    C467     C        0.92420    0.86300    0.05699    1.000
    C468     C        0.95240    0.89100    0.06540    1.000
    H255     H        0.95340    0.91080    0.05070    1.000
    C469     C        0.97920    0.88960    0.09560    1.000
    H256     H        0.99810    0.90840    0.10120    1.000
    N127     N        0.89810    0.86530    0.02662    1.000
    C470     C        0.90210    0.88280    0.99560    1.000
    H257     H        0.92340    0.90000    0.99040    1.000
    C471     C        0.86980    0.87100    0.97350    1.000
    N128     N        0.84590    0.84610    0.99080    1.000
    N129     N        0.86330    0.84270    0.02360    1.000
    C472     C        0.85580    0.88230    0.93939    1.000
    C473     C        0.87180    0.91360    0.92480    1.000
    H258     H        0.89140    0.92780    0.93770    1.000
    C474     C        0.85860    0.92360    0.89080    1.000
    C475     C        0.82940    0.90230    0.87149    1.000
    H259     H        0.82060    0.90900    0.84880    1.000
    C476     C        0.81330    0.87110    0.88610    1.000
    C477     C        0.82650    0.86110    0.92010    1.000
    H260     H        0.81580    0.84020    0.92990    1.000
    C478     C        0.87400    0.95910    0.87600    1.000
    N130     N        0.90280    0.97900    0.89530    1.000
    N131     N        0.91630    0.00640    0.87490    1.000
    N132     N        0.89580    0.00340    0.84290    1.000
    C479     C        0.86960    0.97420    0.84360    1.000
    H261     H        0.85180    0.96600    0.82510    1.000
    C480     C        0.90000    0.02880    0.81786    1.000
    C481     C        0.93760    0.05070    0.81812    1.000
    H262     H        0.95940    0.04800    0.83560    1.000
    C482     C        0.94250    0.07650    0.79220    1.000
    H263     H        0.96770    0.09110    0.79240    1.000
    C483     C        0.91000    0.08050    0.76600    1.000
    C484     C        0.87240    0.05860    0.76580    1.000
    H264     H        0.85060    0.06130    0.74820    1.000
    C485     C        0.86740    0.03280    0.79170    1.000
    H265     H        0.84230    0.01820    0.79150    1.000
    C486     C        0.91720    0.10570    0.73710    1.000
    C487     C        0.78260    0.84900    0.86500    1.000
    C488     C        0.76040    0.81780    0.87190    1.000
    H266     H        0.76310    0.80430    0.89240    1.000
    N133     N        0.73340    0.81030    0.84310    1.000
    N134     N        0.73890    0.83680    0.81860    1.000
    N135     N        0.76930    0.86070    0.83200    1.000
    C489     C        0.70540    0.78250    0.83850    1.000
    C490     C        0.68080    0.78150    0.80710    1.000
    H267     H        0.68380    0.79950    0.79050    1.000
    C491     C        0.65170    0.75350    0.80050    1.000
    H268     H        0.63530    0.75280    0.77950    1.000
    C492     C        0.64720    0.72660    0.82530    1.000
    C493     C        0.67170    0.72760    0.85670    1.000
    H269     H        0.66870    0.70960    0.87330    1.000
    C494     C        0.70080    0.75560    0.86330    1.000
    H270     H        0.71730    0.75630    0.88430    1.000
    C495     C        0.61440    0.69710    0.82150    1.000
    C496     C        0.12320    0.96470    0.15380    1.000
    C497     C        0.11060    0.99010    0.18190    1.000
    C498     C        0.14150    0.01520    0.19320    1.000
    H271     H        0.16930    0.01710    0.18200    1.000
    C499     C        0.13090    0.03750    0.22140    1.000
    H272     H        0.15160    0.05430    0.22890    1.000
    C500     C        0.08940    0.03470    0.23820    1.000
    C501     C        0.05850    0.00950    0.22680    1.000
    H273     H        0.03080    0.00760    0.23810    1.000
    C502     C        0.06910    0.98730    0.19870    1.000
    H274     H        0.04840    0.97050    0.19110    1.000
    N136     N        0.07930    0.05920    0.26490    1.000
    C503     C        0.09560    0.08940    0.27600    1.000
    H275     H        0.11920    0.10180    0.26580    1.000
    C504     C        0.07270    0.09900    0.30410    1.000
    N137     N        0.04220    0.07480    0.31040    1.000
    N138     N        0.04620    0.05010    0.28610    1.000
    C505     C        0.07670    0.13070    0.32540    1.000
    C506     C        0.10340    0.15870    0.31440    1.000
    H276     H        0.11810    0.15770    0.29260    1.000
    C507     C        0.10830    0.18830    0.33580    1.000
    C508     C        0.08630    0.18990    0.36840    1.000
    H277     H        0.08960    0.20970    0.38280    1.000
    C509     C        0.05960    0.16190    0.37950    1.000
    C510     C        0.05470    0.13230    0.35800    1.000
    H278     H        0.03680    0.11360    0.36540    1.000
    N139     N        0.15810    0.21980    0.29350    1.000
    N140     N        0.18560    0.24860    0.29280    1.000
    N141     N        0.18450    0.26390    0.32550    1.000
    C511     C        0.15650    0.24460    0.34650    1.000
    H279     H        0.14970    0.24920    0.37010    1.000
    C512     C        0.14020    0.21730    0.32670    1.000
    C513     C        0.20470    0.29650    0.33200    1.000
    C514     C        0.20210    0.31440    0.36410    1.000
    H280     H        0.18040    0.30800    0.38080    1.000
    C515     C        0.23170    0.34180    0.37140    1.000
    H281     H        0.23000    0.35380    0.39290    1.000
    C516     C        0.26410    0.35140    0.34650    1.000
    C517     C        0.26670    0.33340    0.31430    1.000
    H282     H        0.28840    0.33980    0.29770    1.000
    C518     C        0.23710    0.30600    0.30710    1.000
    H283     H        0.23880    0.29400    0.28560    1.000
    C519     C        0.28850    0.38410    0.35470    1.000
    C520     C        0.03710    0.16460    0.41580    1.000
    C521     C        0.01260    0.14230    0.43250    1.000
    H284     H        0.00470    0.11990    0.42460    1.000
    N142     N        0.00080    0.15640    0.46200    1.000
    N143     N        0.01790    0.18740    0.46350    1.000
    N144     N        0.04050    0.19240    0.43490    1.000
    C522     C        0.97310    0.14520    0.49060    1.000
    C523     C        0.96690    0.16630    0.52040    1.000
    H285     H        0.98120    0.18810    0.52190    1.000
    C524     C        0.93950    0.15490    0.54800    1.000
    H286     H        0.93530    0.16900    0.56790    1.000
    C525     C        0.91820    0.12230    0.54580    1.000
    C526     C        0.92440    0.10110    0.51600    1.000
    H287     H        0.91020    0.07930    0.51450    1.000
    C527     C        0.95190    0.11260    0.48840    1.000
    H288     H        0.95600    0.09850    0.46850    1.000
    C528     C        0.89170    0.10880    0.57510    1.000
    O97      O        0.50000    0.69760    0.75000    1.000
    O98      O        0.00000    0.19760    0.75000    1.000
    O99      O        0.50000    0.30240    0.25000    1.000
    O100     O        0.00000    0.80240    0.25000    1.000
