# CIF file generated by openbabel 3.1.0, see https://openbabel.org
data_I
_chemical_name_common 'image0'
_cell_length_a 15.903
_cell_length_b 15.903
_cell_length_c 21.396
_cell_angle_alpha 90
_cell_angle_beta 90
_cell_angle_gamma 90
_space_group_name_H-M_alt 'P 1'
_space_group_name_Hall 'P 1'
loop_
    _symmetry_equiv_pos_as_xyz
    x,y,z
loop_
    _atom_site_label
    _atom_site_type_symbol
    _atom_site_fract_x
    _atom_site_fract_y
    _atom_site_fract_z
    _atom_site_occupancy
    C1       C        0.15530    0.79940    0.82760    1.000
    H1       H        0.13710    0.76860    0.79320    1.000
    C2       C        0.21580    0.76550    0.86520    1.000
    H2       H        0.23700    0.71250    0.85600    1.000
    C3       C        0.24630    0.80890    0.91710    1.000
    C4       C        0.20250    0.88460    0.93070    1.000
    H3       H        0.21490    0.91450    0.96690    1.000
    C5       C        0.14220    0.91350    0.89050    1.000
    H4       H        0.11460    0.96320    0.90090    1.000
    C6       C        0.31750    0.77920    0.95420    1.000
    C7       C        0.33560    0.80940    0.01430    1.000
    H5       H        0.30110    0.85020    0.03210    1.000
    C8       C        0.40350    0.77970    0.04710    1.000
    H6       H        0.41350    0.79940    0.08730    1.000
    C9       C        0.45770    0.72050    0.02090    1.000
    H7       H        0.50510    0.70260    0.04260    1.000
    C10      C        0.43980    0.68870    0.96200    1.000
    C11      C        0.37040    0.71790    0.92970    1.000
    H8       H        0.35890    0.69590    0.89030    1.000
    C12      C        0.49470    0.62620    0.93160    1.000
    C13      C        0.59180    0.57630    0.86800    1.000
    C14      C        0.66080    0.56830    0.82390    1.000
    C15      C        0.66330    0.49670    0.78740    1.000
    H9       H        0.62060    0.45690    0.79000    1.000
    C16      C        0.73050    0.48470    0.74680    1.000
    H10      H        0.73320    0.43590    0.72290    1.000
    C17      C        0.79270    0.54400    0.74160    1.000
    H11      H        0.83600    0.53620    0.71290    1.000
    C18      C        0.79150    0.61560    0.77890    1.000
    C19      C        0.72520    0.62720    0.81960    1.000
    H12      H        0.72350    0.67510    0.84460    1.000
    C20      C        0.85860    0.68160    0.77300    1.000
    C21      C        0.87290    0.74080    0.81940    1.000
    H13      H        0.84360    0.73760    0.85690    1.000
    C22      C        0.93070    0.80450    0.81010    1.000
    H14      H        0.93810    0.84390    0.84170    1.000
    C23      C        0.96430    0.75520    0.71440    1.000
    H15      H        0.99540    0.75950    0.67770    1.000
    C24      C        0.90780    0.68870    0.71990    1.000
    H16      H        0.90310    0.64920    0.68810    1.000
    N1       N        0.12060    0.87570    0.83820    1.000
    N2       N        0.49260    0.54440    0.93400    1.000
    N3       N        0.55330    0.51240    0.89490    1.000
    N4       N        0.55590    0.64920    0.89040    1.000
    N5       N        0.57570    0.73130    0.86990    1.000
    H17      H        0.52830    0.75880    0.86150    1.000
    H18      H        0.60360    0.75800    0.90000    1.000
    N6       N        0.97630    0.81240    0.75810    1.000
    C25      C        0.84470    0.20060    0.32760    1.000
    H19      H        0.86290    0.23140    0.29320    1.000
    C26      C        0.78420    0.23450    0.36520    1.000
    H20      H        0.76300    0.28750    0.35600    1.000
    C27      C        0.75370    0.19110    0.41710    1.000
    C28      C        0.79750    0.11540    0.43070    1.000
    H21      H        0.78510    0.08550    0.46690    1.000
    C29      C        0.85780    0.08650    0.39050    1.000
    H22      H        0.88540    0.03680    0.40090    1.000
    C30      C        0.68250    0.22080    0.45420    1.000
    C31      C        0.66440    0.19060    0.51430    1.000
    H23      H        0.69890    0.14980    0.53210    1.000
    C32      C        0.59650    0.22030    0.54710    1.000
    H24      H        0.58650    0.20060    0.58730    1.000
    C33      C        0.54230    0.27950    0.52090    1.000
    H25      H        0.49490    0.29740    0.54260    1.000
    C34      C        0.56020    0.31130    0.46200    1.000
    C35      C        0.62960    0.28210    0.42970    1.000
    H26      H        0.64110    0.30410    0.39030    1.000
    C36      C        0.50530    0.37380    0.43160    1.000
    C37      C        0.40820    0.42370    0.36800    1.000
    C38      C        0.33920    0.43170    0.32390    1.000
    C39      C        0.33670    0.50330    0.28740    1.000
    H27      H        0.37940    0.54310    0.29000    1.000
    C40      C        0.26950    0.51530    0.24680    1.000
    H28      H        0.26680    0.56410    0.22290    1.000
    C41      C        0.20730    0.45600    0.24160    1.000
    H29      H        0.16400    0.46380    0.21290    1.000
    C42      C        0.20850    0.38440    0.27890    1.000
    C43      C        0.27480    0.37280    0.31960    1.000
    H30      H        0.27650    0.32490    0.34460    1.000
    C44      C        0.14140    0.31840    0.27300    1.000
    C45      C        0.12710    0.25920    0.31940    1.000
    H31      H        0.15640    0.26240    0.35690    1.000
    C46      C        0.06930    0.19550    0.31010    1.000
    H32      H        0.06190    0.15610    0.34170    1.000
    C47      C        0.03570    0.24480    0.21440    1.000
    H33      H        0.00460    0.24050    0.17770    1.000
    C48      C        0.09220    0.31130    0.21990    1.000
    H34      H        0.09690    0.35080    0.18810    1.000
    N7       N        0.87940    0.12430    0.33820    1.000
    N8       N        0.50740    0.45560    0.43400    1.000
    N9       N        0.44670    0.48760    0.39490    1.000
    N10      N        0.44410    0.35080    0.39040    1.000
    N11      N        0.42430    0.26870    0.36990    1.000
    H35      H        0.47170    0.24120    0.36150    1.000
    H36      H        0.39640    0.24200    0.40000    1.000
    N12      N        0.02370    0.18760    0.25810    1.000
    C49      C        0.70060    0.65530    0.57760    1.000
    H37      H        0.73140    0.63710    0.54320    1.000
    C50      C        0.73450    0.71580    0.61520    1.000
    H38      H        0.78750    0.73700    0.60600    1.000
    C51      C        0.69110    0.74630    0.66710    1.000
    C52      C        0.61540    0.70250    0.68070    1.000
    H39      H        0.58550    0.71490    0.71690    1.000
    C53      C        0.58650    0.64220    0.64050    1.000
    H40      H        0.53680    0.61460    0.65090    1.000
    C54      C        0.72080    0.81750    0.70420    1.000
    C55      C        0.69060    0.83560    0.76430    1.000
    H41      H        0.64980    0.80110    0.78210    1.000
    C56      C        0.72030    0.90350    0.79710    1.000
    H42      H        0.70060    0.91350    0.83730    1.000
    C57      C        0.77950    0.95770    0.77090    1.000
    H43      H        0.79740    0.00510    0.79260    1.000
    C58      C        0.81130    0.93980    0.71200    1.000
    C59      C        0.78210    0.87040    0.67970    1.000
    H44      H        0.80410    0.85890    0.64030    1.000
    C60      C        0.87380    0.99470    0.68160    1.000
    C61      C        0.92370    0.09180    0.61800    1.000
    C62      C        0.93170    0.16080    0.57390    1.000
    C63      C        0.00330    0.16330    0.53740    1.000
    H45      H        0.04310    0.12060    0.54000    1.000
    C64      C        0.01530    0.23050    0.49680    1.000
    H46      H        0.06410    0.23320    0.47290    1.000
    C65      C        0.95600    0.29270    0.49160    1.000
    H47      H        0.96380    0.33600    0.46290    1.000
    C66      C        0.88440    0.29150    0.52890    1.000
    C67      C        0.87280    0.22520    0.56960    1.000
    H48      H        0.82490    0.22350    0.59460    1.000
    C68      C        0.81840    0.35860    0.52300    1.000
    C69      C        0.75920    0.37290    0.56940    1.000
    H49      H        0.76240    0.34360    0.60690    1.000
    C70      C        0.69550    0.43070    0.56010    1.000
    H50      H        0.65610    0.43810    0.59170    1.000
    C71      C        0.74480    0.46430    0.46440    1.000
    H51      H        0.74050    0.49540    0.42770    1.000
    C72      C        0.81130    0.40780    0.46990    1.000
    H52      H        0.85080    0.40310    0.43810    1.000
    N13      N        0.62430    0.62060    0.58820    1.000
    N14      N        0.95560    0.99260    0.68400    1.000
    N15      N        0.98760    0.05330    0.64490    1.000
    N16      N        0.85080    0.05590    0.64040    1.000
    N17      N        0.76870    0.07570    0.61990    1.000
    H53      H        0.74120    0.02830    0.61150    1.000
    H54      H        0.74200    0.10360    0.65000    1.000
    N18      N        0.68760    0.47630    0.50810    1.000
    C73      C        0.29940    0.34470    0.07760    1.000
    H55      H        0.26860    0.36290    0.04320    1.000
    C74      C        0.26550    0.28420    0.11520    1.000
    H56      H        0.21250    0.26300    0.10600    1.000
    C75      C        0.30890    0.25370    0.16710    1.000
    C76      C        0.38460    0.29750    0.18070    1.000
    H57      H        0.41450    0.28510    0.21690    1.000
    C77      C        0.41350    0.35780    0.14050    1.000
    H58      H        0.46320    0.38540    0.15090    1.000
    C78      C        0.27920    0.18250    0.20420    1.000
    C79      C        0.30940    0.16440    0.26430    1.000
    H59      H        0.35020    0.19890    0.28210    1.000
    C80      C        0.27970    0.09650    0.29710    1.000
    H60      H        0.29940    0.08650    0.33730    1.000
    C81      C        0.22050    0.04230    0.27090    1.000
    H61      H        0.20260    0.99490    0.29260    1.000
    C82      C        0.18870    0.06020    0.21200    1.000
    C83      C        0.21790    0.12960    0.17970    1.000
    H62      H        0.19590    0.14110    0.14030    1.000
    C84      C        0.12620    0.00530    0.18160    1.000
    C85      C        0.07630    0.90820    0.11800    1.000
    C86      C        0.06830    0.83920    0.07390    1.000
    C87      C        0.99670    0.83670    0.03740    1.000
    H63      H        0.95690    0.87940    0.04000    1.000
    C88      C        0.98470    0.76950    0.99680    1.000
    H64      H        0.93590    0.76680    0.97290    1.000
    C89      C        0.04400    0.70730    0.99160    1.000
    H65      H        0.03620    0.66400    0.96290    1.000
    C90      C        0.11560    0.70850    0.02890    1.000
    C91      C        0.12720    0.77480    0.06960    1.000
    H66      H        0.17510    0.77650    0.09460    1.000
    C92      C        0.18160    0.64140    0.02300    1.000
    C93      C        0.24080    0.62710    0.06940    1.000
    H67      H        0.23760    0.65640    0.10690    1.000
    C94      C        0.30450    0.56930    0.06010    1.000
    H68      H        0.34390    0.56190    0.09170    1.000
    C95      C        0.25520    0.53570    0.96440    1.000
    H69      H        0.25950    0.50460    0.92770    1.000
    C96      C        0.18870    0.59220    0.96990    1.000
    H70      H        0.14920    0.59690    0.93810    1.000
    N19      N        0.37570    0.37940    0.08820    1.000
    N20      N        0.04440    0.00740    0.18400    1.000
    N21      N        0.01240    0.94670    0.14490    1.000
    N22      N        0.14920    0.94410    0.14040    1.000
    N23      N        0.23130    0.92430    0.11990    1.000
    H71      H        0.25880    0.97170    0.11150    1.000
    H72      H        0.25800    0.89640    0.15000    1.000
    N24      N        0.31240    0.52370    0.00810    1.000
    C97      C        0.34470    0.29940    0.92240    1.000
    H73      H        0.36290    0.26860    0.95680    1.000
    C98      C        0.28420    0.26550    0.88480    1.000
    H74      H        0.26300    0.21250    0.89400    1.000
    C99      C        0.25370    0.30890    0.83290    1.000
    C100     C        0.29750    0.38460    0.81930    1.000
    H75      H        0.28510    0.41450    0.78310    1.000
    C101     C        0.35780    0.41350    0.85950    1.000
    H76      H        0.38540    0.46320    0.84910    1.000
    C102     C        0.18250    0.27920    0.79580    1.000
    C103     C        0.16440    0.30940    0.73570    1.000
    H77      H        0.19890    0.35020    0.71790    1.000
    C104     C        0.09650    0.27970    0.70290    1.000
    H78      H        0.08650    0.29940    0.66270    1.000
    C105     C        0.04230    0.22050    0.72910    1.000
    H79      H        0.99490    0.20260    0.70740    1.000
    C106     C        0.06020    0.18870    0.78800    1.000
    C107     C        0.12960    0.21790    0.82030    1.000
    H80      H        0.14110    0.19590    0.85970    1.000
    C108     C        0.00530    0.12620    0.81840    1.000
    C109     C        0.90820    0.07630    0.88200    1.000
    C110     C        0.83920    0.06830    0.92610    1.000
    C111     C        0.83670    0.99670    0.96260    1.000
    H81      H        0.87940    0.95690    0.96000    1.000
    C112     C        0.76950    0.98470    0.00320    1.000
    H82      H        0.76680    0.93590    0.02710    1.000
    C113     C        0.70730    0.04400    0.00840    1.000
    H83      H        0.66400    0.03620    0.03710    1.000
    C114     C        0.70850    0.11560    0.97110    1.000
    C115     C        0.77480    0.12720    0.93040    1.000
    H84      H        0.77650    0.17510    0.90540    1.000
    C116     C        0.64140    0.18160    0.97700    1.000
    C117     C        0.62710    0.24080    0.93060    1.000
    H85      H        0.65640    0.23760    0.89310    1.000
    C118     C        0.56930    0.30450    0.93990    1.000
    H86      H        0.56190    0.34390    0.90830    1.000
    C119     C        0.53570    0.25520    0.03560    1.000
    H87      H        0.50460    0.25950    0.07230    1.000
    C120     C        0.59220    0.18870    0.03010    1.000
    H88      H        0.59690    0.14920    0.06190    1.000
    N25      N        0.37940    0.37570    0.91180    1.000
    N26      N        0.00740    0.04440    0.81600    1.000
    N27      N        0.94670    0.01240    0.85510    1.000
    N28      N        0.94410    0.14920    0.85960    1.000
    N29      N        0.92430    0.23130    0.88010    1.000
    H89      H        0.97170    0.25880    0.88850    1.000
    H90      H        0.89640    0.25800    0.85000    1.000
    N30      N        0.52370    0.31240    0.99190    1.000
    C121     C        0.65530    0.70060    0.42240    1.000
    H91      H        0.63710    0.73140    0.45680    1.000
    C122     C        0.71580    0.73450    0.38480    1.000
    H92      H        0.73700    0.78750    0.39400    1.000
    C123     C        0.74630    0.69110    0.33290    1.000
    C124     C        0.70250    0.61540    0.31930    1.000
    H93      H        0.71490    0.58550    0.28310    1.000
    C125     C        0.64220    0.58650    0.35950    1.000
    H94      H        0.61460    0.53680    0.34910    1.000
    C126     C        0.81750    0.72080    0.29580    1.000
    C127     C        0.83560    0.69060    0.23570    1.000
    H95      H        0.80110    0.64980    0.21790    1.000
    C128     C        0.90350    0.72030    0.20290    1.000
    H96      H        0.91350    0.70060    0.16270    1.000
    C129     C        0.95770    0.77950    0.22910    1.000
    H97      H        0.00510    0.79740    0.20740    1.000
    C130     C        0.93980    0.81130    0.28800    1.000
    C131     C        0.87040    0.78210    0.32030    1.000
    H98      H        0.85890    0.80410    0.35970    1.000
    C132     C        0.99470    0.87380    0.31840    1.000
    C133     C        0.09180    0.92370    0.38200    1.000
    C134     C        0.16080    0.93170    0.42610    1.000
    C135     C        0.16330    0.00330    0.46260    1.000
    H99      H        0.12060    0.04310    0.46000    1.000
    C136     C        0.23050    0.01530    0.50320    1.000
    H100     H        0.23320    0.06410    0.52710    1.000
    C137     C        0.29270    0.95600    0.50840    1.000
    H101     H        0.33600    0.96380    0.53710    1.000
    C138     C        0.29150    0.88440    0.47110    1.000
    C139     C        0.22520    0.87280    0.43040    1.000
    H102     H        0.22350    0.82490    0.40540    1.000
    C140     C        0.35860    0.81840    0.47700    1.000
    C141     C        0.37290    0.75920    0.43060    1.000
    H103     H        0.34360    0.76240    0.39310    1.000
    C142     C        0.43070    0.69550    0.43990    1.000
    H104     H        0.43810    0.65610    0.40830    1.000
    C143     C        0.46430    0.74480    0.53560    1.000
    H105     H        0.49540    0.74050    0.57230    1.000
    C144     C        0.40780    0.81130    0.53010    1.000
    H106     H        0.40310    0.85080    0.56190    1.000
    N31      N        0.62060    0.62430    0.41180    1.000
    N32      N        0.99260    0.95560    0.31600    1.000
    N33      N        0.05330    0.98760    0.35510    1.000
    N34      N        0.05590    0.85080    0.35960    1.000
    N35      N        0.07570    0.76870    0.38010    1.000
    H107     H        0.02830    0.74120    0.38850    1.000
    H108     H        0.10360    0.74200    0.35000    1.000
    N36      N        0.47630    0.68760    0.49190    1.000
    C145     C        0.79940    0.15530    0.17240    1.000
    H109     H        0.76860    0.13710    0.20680    1.000
    C146     C        0.76550    0.21580    0.13480    1.000
    H110     H        0.71250    0.23700    0.14400    1.000
    C147     C        0.80890    0.24630    0.08290    1.000
    C148     C        0.88460    0.20250    0.06930    1.000
    H111     H        0.91450    0.21490    0.03310    1.000
    C149     C        0.91350    0.14220    0.10950    1.000
    H112     H        0.96320    0.11460    0.09910    1.000
    C150     C        0.77920    0.31750    0.04580    1.000
    C151     C        0.80940    0.33560    0.98570    1.000
    H113     H        0.85020    0.30110    0.96790    1.000
    C152     C        0.77970    0.40350    0.95290    1.000
    H114     H        0.79940    0.41350    0.91270    1.000
    C153     C        0.72050    0.45770    0.97910    1.000
    H115     H        0.70260    0.50510    0.95740    1.000
    C154     C        0.68870    0.43980    0.03800    1.000
    C155     C        0.71790    0.37040    0.07030    1.000
    H116     H        0.69590    0.35890    0.10970    1.000
    C156     C        0.62620    0.49470    0.06840    1.000
    C157     C        0.57630    0.59180    0.13200    1.000
    C158     C        0.56830    0.66080    0.17610    1.000
    C159     C        0.49670    0.66330    0.21260    1.000
    H117     H        0.45690    0.62060    0.21000    1.000
    C160     C        0.48470    0.73050    0.25320    1.000
    H118     H        0.43590    0.73320    0.27710    1.000
    C161     C        0.54400    0.79270    0.25840    1.000
    H119     H        0.53620    0.83600    0.28710    1.000
    C162     C        0.61560    0.79150    0.22110    1.000
    C163     C        0.62720    0.72520    0.18040    1.000
    H120     H        0.67510    0.72350    0.15540    1.000
    C164     C        0.68160    0.85860    0.22700    1.000
    C165     C        0.74080    0.87290    0.18060    1.000
    H121     H        0.73760    0.84360    0.14310    1.000
    C166     C        0.80450    0.93070    0.18990    1.000
    H122     H        0.84390    0.93810    0.15830    1.000
    C167     C        0.75520    0.96430    0.28560    1.000
    H123     H        0.75950    0.99540    0.32230    1.000
    C168     C        0.68870    0.90780    0.28010    1.000
    H124     H        0.64920    0.90310    0.31190    1.000
    N37      N        0.87570    0.12060    0.16180    1.000
    N38      N        0.54440    0.49260    0.06600    1.000
    N39      N        0.51240    0.55330    0.10510    1.000
    N40      N        0.64920    0.55590    0.10960    1.000
    N41      N        0.73130    0.57570    0.13010    1.000
    H125     H        0.75880    0.52830    0.13850    1.000
    H126     H        0.75800    0.60360    0.10000    1.000
    N42      N        0.81240    0.97630    0.24190    1.000
    C169     C        0.20060    0.84470    0.67240    1.000
    H127     H        0.23140    0.86290    0.70680    1.000
    C170     C        0.23450    0.78420    0.63480    1.000
    H128     H        0.28750    0.76300    0.64400    1.000
    C171     C        0.19110    0.75370    0.58290    1.000
    C172     C        0.11540    0.79750    0.56930    1.000
    H129     H        0.08550    0.78510    0.53310    1.000
    C173     C        0.08650    0.85780    0.60950    1.000
    H130     H        0.03680    0.88540    0.59910    1.000
    C174     C        0.22080    0.68250    0.54580    1.000
    C175     C        0.19060    0.66440    0.48570    1.000
    H131     H        0.14980    0.69890    0.46790    1.000
    C176     C        0.22030    0.59650    0.45290    1.000
    H132     H        0.20060    0.58650    0.41270    1.000
    C177     C        0.27950    0.54230    0.47910    1.000
    H133     H        0.29740    0.49490    0.45740    1.000
    C178     C        0.31130    0.56020    0.53800    1.000
    C179     C        0.28210    0.62960    0.57030    1.000
    H134     H        0.30410    0.64110    0.60970    1.000
    C180     C        0.37380    0.50530    0.56840    1.000
    C181     C        0.42370    0.40820    0.63200    1.000
    C182     C        0.43170    0.33920    0.67610    1.000
    C183     C        0.50330    0.33670    0.71260    1.000
    H135     H        0.54310    0.37940    0.71000    1.000
    C184     C        0.51530    0.26950    0.75320    1.000
    H136     H        0.56410    0.26680    0.77710    1.000
    C185     C        0.45600    0.20730    0.75840    1.000
    H137     H        0.46380    0.16400    0.78710    1.000
    C186     C        0.38440    0.20850    0.72110    1.000
    C187     C        0.37280    0.27480    0.68040    1.000
    H138     H        0.32490    0.27650    0.65540    1.000
    C188     C        0.31840    0.14140    0.72700    1.000
    C189     C        0.25920    0.12710    0.68060    1.000
    H139     H        0.26240    0.15640    0.64310    1.000
    C190     C        0.19550    0.06930    0.68990    1.000
    H140     H        0.15610    0.06190    0.65830    1.000
    C191     C        0.24480    0.03570    0.78560    1.000
    H141     H        0.24050    0.00460    0.82230    1.000
    C192     C        0.31130    0.09220    0.78010    1.000
    H142     H        0.35080    0.09690    0.81190    1.000
    N43      N        0.12430    0.87940    0.66180    1.000
    N44      N        0.45560    0.50740    0.56600    1.000
    N45      N        0.48760    0.44670    0.60510    1.000
    N46      N        0.35080    0.44410    0.60960    1.000
    N47      N        0.26870    0.42430    0.63010    1.000
    H143     H        0.24120    0.47170    0.63850    1.000
    H144     H        0.24200    0.39640    0.60000    1.000
    N48      N        0.18760    0.02370    0.74190    1.000
    Cd1      Cd       0.05948    0.94052    0.75000    1.000
    Cd2      Cd       0.94052    0.05948    0.25000    1.000
    Cd3      Cd       0.55948    0.55948    0.50000    1.000
    Cd4      Cd       0.44052    0.44052    0.00000    1.000
