# CIF file generated by openbabel 3.1.0, see https://openbabel.org
data_I
_chemical_name_common 'image0'
_cell_length_a 32.9509
_cell_length_b 6.699
_cell_length_c 16.5555
_cell_angle_alpha 90
_cell_angle_beta 90
_cell_angle_gamma 90
_space_group_name_H-M_alt 'P 1'
_space_group_name_Hall 'P 1'
loop_
    _symmetry_equiv_pos_as_xyz
    x,y,z
loop_
    _atom_site_label
    _atom_site_type_symbol
    _atom_site_fract_x
    _atom_site_fract_y
    _atom_site_fract_z
    _atom_site_occupancy
    O1       O        0.79064    0.18810    0.91350    1.000
    C1       C        0.88308    0.17530    0.75100    1.000
    C2       C        0.85132    0.17070    0.80770    1.000
    O2       O        0.29064    0.68810    0.91350    1.000
    C3       C        0.38308    0.67530    0.75100    1.000
    C4       C        0.35132    0.67070    0.80770    1.000
    O3       O        0.20936    0.81190    0.91350    1.000
    C5       C        0.11692    0.82470    0.75100    1.000
    C6       C        0.14868    0.82930    0.80770    1.000
    O4       O        0.70936    0.31190    0.91350    1.000
    C7       C        0.61692    0.32470    0.75100    1.000
    C8       C        0.64868    0.32930    0.80770    1.000
    O5       O        0.20936    0.18810    0.08650    1.000
    C9       C        0.11692    0.17530    0.24900    1.000
    C10      C        0.14868    0.17070    0.19230    1.000
    O6       O        0.70936    0.68810    0.08650    1.000
    C11      C        0.61692    0.67530    0.24900    1.000
    C12      C        0.64868    0.67070    0.19230    1.000
    O7       O        0.79064    0.81190    0.08650    1.000
    C13      C        0.88308    0.82470    0.24900    1.000
    C14      C        0.85132    0.82930    0.19230    1.000
    O8       O        0.29064    0.31190    0.08650    1.000
    C15      C        0.38308    0.32470    0.24900    1.000
    C16      C        0.35132    0.32930    0.19230    1.000
    O9       O        0.20936    0.81190    0.08650    1.000
    C17      C        0.11692    0.82470    0.24900    1.000
    C18      C        0.14868    0.82930    0.19230    1.000
    O10      O        0.70936    0.31190    0.08650    1.000
    C19      C        0.61692    0.32470    0.24900    1.000
    C20      C        0.64868    0.32930    0.19230    1.000
    O11      O        0.79064    0.18810    0.08650    1.000
    C21      C        0.88308    0.17530    0.24900    1.000
    C22      C        0.85132    0.17070    0.19230    1.000
    O12      O        0.29064    0.68810    0.08650    1.000
    C23      C        0.38308    0.67530    0.24900    1.000
    C24      C        0.35132    0.67070    0.19230    1.000
    O13      O        0.79064    0.81190    0.91350    1.000
    C25      C        0.88308    0.82470    0.75100    1.000
    C26      C        0.85132    0.82930    0.80770    1.000
    O14      O        0.29064    0.31190    0.91350    1.000
    C27      C        0.38308    0.32470    0.75100    1.000
    C28      C        0.35132    0.32930    0.80770    1.000
    O15      O        0.20936    0.18810    0.91350    1.000
    C29      C        0.11692    0.17530    0.75100    1.000
    C30      C        0.14868    0.17070    0.80770    1.000
    O16      O        0.70936    0.68810    0.91350    1.000
    C31      C        0.61692    0.67530    0.75100    1.000
    C32      C        0.64868    0.67070    0.80770    1.000
    C33      C        0.96847    0.00000    0.66980    1.000
    C34      C        0.97954    0.00000    0.75330    1.000
    C35      C        0.91475    0.00000    0.56700    1.000
    C36      C        0.87680    0.00000    0.53980    1.000
    C37      C        0.92947    0.00000    0.64470    1.000
    C38      C        0.90040    0.00000    0.71550    1.000
    C39      C        0.83349    0.00000    0.84110    1.000
    C40      C        0.79910    0.00000    0.90690    1.000
    C41      C        0.46847    0.50000    0.66980    1.000
    C42      C        0.47954    0.50000    0.75330    1.000
    C43      C        0.41475    0.50000    0.56700    1.000
    C44      C        0.37680    0.50000    0.53980    1.000
    C45      C        0.42947    0.50000    0.64470    1.000
    C46      C        0.40040    0.50000    0.71550    1.000
    C47      C        0.33349    0.50000    0.84110    1.000
    C48      C        0.29910    0.50000    0.90690    1.000
    C49      C        0.03153    0.00000    0.66980    1.000
    C50      C        0.02046    0.00000    0.75330    1.000
    C51      C        0.08525    0.00000    0.56700    1.000
    C52      C        0.12320    0.00000    0.53980    1.000
    C53      C        0.07053    0.00000    0.64470    1.000
    C54      C        0.09960    0.00000    0.71550    1.000
    C55      C        0.16651    0.00000    0.84110    1.000
    C56      C        0.20090    0.00000    0.90690    1.000
    C57      C        0.53153    0.50000    0.66980    1.000
    C58      C        0.52046    0.50000    0.75330    1.000
    C59      C        0.58525    0.50000    0.56700    1.000
    C60      C        0.62320    0.50000    0.53980    1.000
    C61      C        0.57053    0.50000    0.64470    1.000
    C62      C        0.59960    0.50000    0.71550    1.000
    C63      C        0.66651    0.50000    0.84110    1.000
    C64      C        0.70090    0.50000    0.90690    1.000
    C65      C        0.03153    0.00000    0.33020    1.000
    C66      C        0.02046    0.00000    0.24670    1.000
    C67      C        0.08525    0.00000    0.43300    1.000
    C68      C        0.12320    0.00000    0.46020    1.000
    C69      C        0.07053    0.00000    0.35530    1.000
    C70      C        0.09960    0.00000    0.28450    1.000
    C71      C        0.16651    0.00000    0.15890    1.000
    C72      C        0.20090    0.00000    0.09310    1.000
    C73      C        0.53153    0.50000    0.33020    1.000
    C74      C        0.52046    0.50000    0.24670    1.000
    C75      C        0.58525    0.50000    0.43300    1.000
    C76      C        0.62320    0.50000    0.46020    1.000
    C77      C        0.57053    0.50000    0.35530    1.000
    C78      C        0.59960    0.50000    0.28450    1.000
    C79      C        0.66651    0.50000    0.15890    1.000
    C80      C        0.70090    0.50000    0.09310    1.000
    C81      C        0.96847    0.00000    0.33020    1.000
    C82      C        0.97954    0.00000    0.24670    1.000
    C83      C        0.91475    0.00000    0.43300    1.000
    C84      C        0.87680    0.00000    0.46020    1.000
    C85      C        0.92947    0.00000    0.35530    1.000
    C86      C        0.90040    0.00000    0.28450    1.000
    C87      C        0.83349    0.00000    0.15890    1.000
    C88      C        0.79910    0.00000    0.09310    1.000
    C89      C        0.46847    0.50000    0.33020    1.000
    C90      C        0.47954    0.50000    0.24670    1.000
    C91      C        0.41475    0.50000    0.43300    1.000
    C92      C        0.37680    0.50000    0.46020    1.000
    C93      C        0.42947    0.50000    0.35530    1.000
    C94      C        0.40040    0.50000    0.28450    1.000
    C95      C        0.33349    0.50000    0.15890    1.000
    C96      C        0.29910    0.50000    0.09310    1.000
    N1       N        0.00000    0.00000    0.61720    1.000
    N2       N        0.50000    0.50000    0.61720    1.000
    N3       N        0.00000    0.00000    0.38280    1.000
    N4       N        0.50000    0.50000    0.38280    1.000
    N5       N        0.93850    0.00000    0.50000    1.000
    N6       N        0.43850    0.50000    0.50000    1.000
    N7       N        0.06150    0.00000    0.50000    1.000
    N8       N        0.56150    0.50000    0.50000    1.000
    Ga1      Ga       0.75000    0.25000    0.00000    1.000
    Ga2      Ga       0.25000    0.75000    0.00000    1.000
    Ga3      Ga       0.25000    0.25000    0.00000    1.000
    Ga4      Ga       0.75000    0.75000    0.00000    1.000
    O17      O        0.72650    0.00000    0.00000    1.000
    O18      O        0.22650    0.50000    0.00000    1.000
    O19      O        0.27350    0.00000    0.00000    1.000
    O20      O        0.77350    0.50000    0.00000    1.000
