# CIF file generated by openbabel 3.1.0, see https://openbabel.org
data_I
_chemical_name_common 'image0'
_cell_length_a 14.184
_cell_length_b 11.515
_cell_length_c 15.619
_cell_angle_alpha 90
_cell_angle_beta 106.633
_cell_angle_gamma 90
_space_group_name_H-M_alt 'P 1'
_space_group_name_Hall 'P 1'
loop_
    _symmetry_equiv_pos_as_xyz
    x,y,z
loop_
    _atom_site_label
    _atom_site_type_symbol
    _atom_site_fract_x
    _atom_site_fract_y
    _atom_site_fract_z
    _atom_site_occupancy
    Nd1      Nd       0.32455    0.35717    0.33983    1.000
    O1       O        0.19515    0.23982    0.23600    1.000
    O2       O        0.14289    0.06677    0.17652    1.000
    O3       O        0.32172    0.97795    0.24562    1.000
    O4       O        0.37653    0.15073    0.30694    1.000
    O5       O        0.35674    0.22068    0.46863    1.000
    O6       O        0.30542    0.14609    0.58019    1.000
    O7       O        0.50347    0.36481    0.36326    1.000
    O8       O        0.62757    0.36599    0.30023    1.000
    C1       C        0.20745    0.13440    0.22188    1.000
    C2       C        0.31186    0.08370    0.26203    1.000
    C3       C        0.29729    0.21120    0.51424    1.000
    C4       C        0.53795    0.36480    0.29778    1.000
    Nd2      Nd       0.82455    0.85717    0.33983    1.000
    O9       O        0.69515    0.73982    0.23600    1.000
    O10      O        0.64289    0.56677    0.17652    1.000
    O11      O        0.82172    0.47795    0.24562    1.000
    O12      O        0.87653    0.65073    0.30694    1.000
    O13      O        0.85674    0.72068    0.46863    1.000
    O14      O        0.80542    0.64609    0.58019    1.000
    O15      O        0.00347    0.86481    0.36326    1.000
    O16      O        0.12757    0.86599    0.30023    1.000
    C5       C        0.70745    0.63440    0.22188    1.000
    C6       C        0.81186    0.58370    0.26203    1.000
    C7       C        0.79729    0.71120    0.51424    1.000
    C8       C        0.03795    0.86480    0.29778    1.000
    Nd3      Nd       0.67545    0.35717    0.16017    1.000
    O17      O        0.80485    0.23982    0.26400    1.000
    O18      O        0.85711    0.06677    0.32348    1.000
    O19      O        0.67828    0.97795    0.25438    1.000
    O20      O        0.62347    0.15073    0.19306    1.000
    O21      O        0.64326    0.22068    0.03137    1.000
    O22      O        0.69458    0.14609    0.91981    1.000
    O23      O        0.49653    0.36481    0.13674    1.000
    O24      O        0.37243    0.36599    0.19977    1.000
    C9       C        0.79255    0.13440    0.27812    1.000
    C10      C        0.68814    0.08370    0.23797    1.000
    C11      C        0.70271    0.21120    0.98576    1.000
    C12      C        0.46205    0.36480    0.20222    1.000
    Nd4      Nd       0.17545    0.85717    0.16017    1.000
    O25      O        0.30485    0.73982    0.26400    1.000
    O26      O        0.35711    0.56677    0.32348    1.000
    O27      O        0.17828    0.47795    0.25438    1.000
    O28      O        0.12347    0.65073    0.19306    1.000
    O29      O        0.14326    0.72068    0.03137    1.000
    O30      O        0.19458    0.64609    0.91981    1.000
    O31      O        0.99653    0.86481    0.13674    1.000
    O32      O        0.87243    0.86599    0.19977    1.000
    C13      C        0.29255    0.63440    0.27812    1.000
    C14      C        0.18814    0.58370    0.23797    1.000
    C15      C        0.20271    0.71120    0.98576    1.000
    C16      C        0.96205    0.86480    0.20222    1.000
    Nd5      Nd       0.67545    0.64283    0.66017    1.000
    O33      O        0.80485    0.76018    0.76400    1.000
    O34      O        0.85711    0.93323    0.82348    1.000
    O35      O        0.67828    0.02205    0.75438    1.000
    O36      O        0.62347    0.84927    0.69306    1.000
    O37      O        0.64326    0.77932    0.53137    1.000
    O38      O        0.69458    0.85391    0.41981    1.000
    O39      O        0.49653    0.63519    0.63674    1.000
    O40      O        0.37243    0.63401    0.69977    1.000
    C17      C        0.79255    0.86560    0.77812    1.000
    C18      C        0.68814    0.91630    0.73797    1.000
    C19      C        0.70271    0.78880    0.48576    1.000
    C20      C        0.46205    0.63520    0.70222    1.000
    Nd6      Nd       0.17545    0.14283    0.66017    1.000
    O41      O        0.30485    0.26018    0.76400    1.000
    O42      O        0.35711    0.43323    0.82348    1.000
    O43      O        0.17828    0.52205    0.75438    1.000
    O44      O        0.12347    0.34927    0.69306    1.000
    O45      O        0.14326    0.27932    0.53137    1.000
    O46      O        0.19458    0.35391    0.41981    1.000
    O47      O        0.99653    0.13519    0.63674    1.000
    O48      O        0.87243    0.13401    0.69977    1.000
    C21      C        0.29255    0.36560    0.77812    1.000
    C22      C        0.18814    0.41630    0.73797    1.000
    C23      C        0.20271    0.28880    0.48576    1.000
    C24      C        0.96205    0.13520    0.70222    1.000
    Nd7      Nd       0.32455    0.64283    0.83983    1.000
    O49      O        0.19515    0.76018    0.73600    1.000
    O50      O        0.14289    0.93323    0.67652    1.000
    O51      O        0.32172    0.02205    0.74562    1.000
    O52      O        0.37653    0.84927    0.80694    1.000
    O53      O        0.35674    0.77932    0.96863    1.000
    O54      O        0.30542    0.85391    0.08019    1.000
    O55      O        0.50347    0.63519    0.86326    1.000
    O56      O        0.62757    0.63401    0.80023    1.000
    C25      C        0.20745    0.86560    0.72188    1.000
    C26      C        0.31186    0.91630    0.76203    1.000
    C27      C        0.29729    0.78880    0.01424    1.000
    C28      C        0.53795    0.63520    0.79778    1.000
    Nd8      Nd       0.82455    0.14283    0.83983    1.000
    O57      O        0.69515    0.26018    0.73600    1.000
    O58      O        0.64289    0.43323    0.67652    1.000
    O59      O        0.82172    0.52205    0.74562    1.000
    O60      O        0.87653    0.34927    0.80694    1.000
    O61      O        0.85674    0.27932    0.96863    1.000
    O62      O        0.80542    0.35391    0.08019    1.000
    O63      O        0.00347    0.13519    0.86326    1.000
    O64      O        0.12757    0.13401    0.80023    1.000
    C29      C        0.70745    0.36560    0.72188    1.000
    C30      C        0.81186    0.41630    0.76203    1.000
    C31      C        0.79729    0.28880    0.01424    1.000
    C32      C        0.03795    0.13520    0.79778    1.000
