data_functionalizedCrystal
_audit_creation_method	'EQeq! by Chris Wilmer'
_symmetry_space_group_name_H-M	'P1'
_symmetry_Int_Tables_number	1
_symmetry_cell_setting	triclinic
loop_
_symmetry_equiv_pos_as_xyz
  x,y,z
_cell_length_a	19.012
_cell_length_b	19.012
_cell_length_c	19.012
_cell_angle_alpha	62.9587
_cell_angle_beta	62.9587
_cell_angle_gamma	62.9587
loop_
_atom_site_label
_atom_site_type_symbol
_atom_site_fract_x
_atom_site_fract_y
_atom_site_fract_z
_atom_site_charge
Mof_Tb	Tb	0.50435	0.94053	0.93305	1.999
Mof_Tb	Tb	0.93305	0.50435	0.94053	1.999
Mof_Tb	Tb	0.94053	0.93305	0.50435	1.999
Mof_Tb	Tb	0.49565	0.05947	0.06695	1.999
Mof_Tb	Tb	0.06695	0.49565	0.05947	1.999
Mof_Tb	Tb	0.05947	0.06695	0.49565	1.999
Mof_H 	H 	0.2734	0.9835	0.2626	0.012
Mof_H 	H 	0.108	0.8672	0.3424	0.025
Mof_H 	H 	0.302	0.8477	0.134	0.068
Mof_H 	H 	0.1071	0.627	0.3306	0.092
Mof_H 	H 	0.0849	0.5516	0.2761	-0.001
Mof_H 	H 	0.0578	0.749	0.0812	0.001
Mof_H 	H 	0.0675	0.8254	0.14	0.121
Mof_H 	H 	0.0601	0.8089	0.3085	0.076
Mof_H 	H 	0.1366	0.7279	0.3232	0.063
Mof_H 	H 	0.2626	0.2734	0.9835	0.012
Mof_H 	H 	0.3424	0.108	0.8672	0.025
Mof_H 	H 	0.134	0.302	0.8477	0.068
Mof_H 	H 	0.3306	0.1071	0.627	0.093
Mof_H 	H 	0.2761	0.0849	0.5516	0
Mof_H 	H 	0.0812	0.0578	0.749	0.002
Mof_H 	H 	0.14	0.0675	0.8254	0.122
Mof_H 	H 	0.3085	0.0601	0.8089	0.077
Mof_H 	H 	0.3232	0.1366	0.7279	0.064
Mof_H 	H 	0.9835	0.2626	0.2734	0.013
Mof_H 	H 	0.8672	0.3424	0.108	0.026
Mof_H 	H 	0.8477	0.134	0.302	0.069
Mof_H 	H 	0.627	0.3306	0.1071	0.093
Mof_H 	H 	0.5516	0.2761	0.0849	0
Mof_H 	H 	0.749	0.0812	0.0578	0.002
Mof_H 	H 	0.8254	0.14	0.0675	0.122
Mof_H 	H 	0.8089	0.3085	0.0601	0.077
Mof_H 	H 	0.7279	0.3232	0.1366	0.064
Mof_H 	H 	0.7266	0.0165	0.7374	0.013
Mof_H 	H 	0.892	0.1328	0.6576	0.026
Mof_H 	H 	0.698	0.1523	0.866	0.069
Mof_H 	H 	0.8929	0.373	0.6694	0.093
Mof_H 	H 	0.9151	0.4484	0.7239	0
Mof_H 	H 	0.9422	0.251	0.9188	0.002
Mof_H 	H 	0.9325	0.1746	0.86	0.122
Mof_H 	H 	0.9399	0.1911	0.6915	0.077
Mof_H 	H 	0.8634	0.2721	0.6768	0.064
Mof_H 	H 	0.7374	0.7266	0.0165	0.013
Mof_H 	H 	0.6576	0.892	0.1328	0.026
Mof_H 	H 	0.866	0.698	0.1523	0.069
Mof_H 	H 	0.6694	0.8929	0.373	0.093
Mof_H 	H 	0.7239	0.9151	0.4484	0
Mof_H 	H 	0.9188	0.9422	0.251	0.002
Mof_H 	H 	0.86	0.9325	0.1746	0.122
Mof_H 	H 	0.6915	0.9399	0.1911	0.077
Mof_H 	H 	0.6768	0.8634	0.2721	0.064
Mof_H 	H 	0.0165	0.7374	0.7266	0.013
Mof_H 	H 	0.1328	0.6576	0.892	0.026
Mof_H 	H 	0.1523	0.866	0.698	0.069
Mof_H 	H 	0.373	0.6694	0.8929	0.093
Mof_H 	H 	0.4484	0.7239	0.9151	0
Mof_H 	H 	0.251	0.9188	0.9422	0.002
Mof_H 	H 	0.1746	0.86	0.9325	0.122
Mof_H 	H 	0.1911	0.6915	0.9399	0.077
Mof_H 	H 	0.2721	0.6768	0.8634	0.064
Mof_C 	C 	0.3794	0.9398	0.1247	0.494
Mof_C 	C 	0.30144	0.91654	0.18944	-0.133
Mof_C 	C 	0.2557	0.9491	0.2565	0.072
Mof_C 	C 	0.18439	0.92949	0.31289	-0.155
Mof_C 	C 	0.1564	0.8798	0.3042	-0.018
Mof_C 	C 	0.2021	0.8487	0.2368	0.093
Mof_C 	C 	0.2733	0.8677	0.1793	-0.037
Mof_C 	C 	0.0909	0.7346	0.2377	0.181
Mof_C 	C 	0.0963	0.6524	0.28	-0.202
Mof_C 	C 	0.0856	0.606	0.2459	0.103
Mof_C 	C 	0.0765	0.6421	0.1691	-0.172
Mof_C 	C 	0.0683	0.7228	0.132	0.13
Mof_C 	C 	0.0747	0.769	0.1673	-0.225
Mof_C 	C 	0.13719	0.96539	0.38209	0.474
Mof_C 	C 	0.0712	0.5908	0.1315	0.361
Mof_C 	C 	0.1099	0.7711	0.2821	-0.133
Mof_C 	C 	0.1247	0.3794	0.9398	0.494
Mof_C 	C 	0.18944	0.30144	0.91654	-0.133
Mof_C 	C 	0.2565	0.2557	0.9491	0.072
Mof_C 	C 	0.31289	0.18439	0.92949	-0.155
Mof_C 	C 	0.3042	0.1564	0.8798	-0.018
Mof_C 	C 	0.2368	0.2021	0.8487	0.093
Mof_C 	C 	0.1793	0.2733	0.8677	-0.037
Mof_C 	C 	0.2377	0.0909	0.7346	0.181
Mof_C 	C 	0.28	0.0963	0.6524	-0.202
Mof_C 	C 	0.2459	0.0856	0.606	0.103
Mof_C 	C 	0.1691	0.0765	0.6421	-0.172
Mof_C 	C 	0.132	0.0683	0.7228	0.13
Mof_C 	C 	0.1673	0.0747	0.769	-0.225
Mof_C 	C 	0.38209	0.13719	0.96539	0.474
Mof_C 	C 	0.1315	0.0712	0.5908	0.361
Mof_C 	C 	0.2821	0.1099	0.7711	-0.133
Mof_C 	C 	0.9398	0.1247	0.3794	0.494
Mof_C 	C 	0.91654	0.18944	0.30144	-0.133
Mof_C 	C 	0.9491	0.2565	0.2557	0.072
Mof_C 	C 	0.92949	0.31289	0.18439	-0.155
Mof_C 	C 	0.8798	0.3042	0.1564	-0.018
Mof_C 	C 	0.8487	0.2368	0.2021	0.093
Mof_C 	C 	0.8677	0.1793	0.2733	-0.037
Mof_C 	C 	0.7346	0.2377	0.0909	0.181
Mof_C 	C 	0.6524	0.28	0.0963	-0.202
Mof_C 	C 	0.606	0.2459	0.0856	0.103
Mof_C 	C 	0.6421	0.1691	0.0765	-0.172
Mof_C 	C 	0.7228	0.132	0.0683	0.13
Mof_C 	C 	0.769	0.1673	0.0747	-0.225
Mof_C 	C 	0.96539	0.38209	0.13719	0.474
Mof_C 	C 	0.5908	0.1315	0.0712	0.361
Mof_C 	C 	0.7711	0.2821	0.1099	-0.133
Mof_C 	C 	0.6206	0.0602	0.8753	0.494
Mof_C 	C 	0.69856	0.08346	0.81056	-0.133
Mof_C 	C 	0.7443	0.0509	0.7435	0.072
Mof_C 	C 	0.81561	0.07051	0.68711	-0.155
Mof_C 	C 	0.8436	0.1202	0.6958	-0.018
Mof_C 	C 	0.7979	0.1513	0.7632	0.093
Mof_C 	C 	0.7267	0.1323	0.8207	-0.037
Mof_C 	C 	0.9091	0.2654	0.7623	0.181
Mof_C 	C 	0.9037	0.3476	0.72	-0.202
Mof_C 	C 	0.9144	0.394	0.7541	0.103
Mof_C 	C 	0.9235	0.3579	0.8309	-0.172
Mof_C 	C 	0.9317	0.2772	0.868	0.13
Mof_C 	C 	0.9253	0.231	0.8327	-0.225
Mof_C 	C 	0.86281	0.03461	0.61791	0.474
Mof_C 	C 	0.9288	0.4092	0.8685	0.361
Mof_C 	C 	0.8901	0.2289	0.7179	-0.133
Mof_C 	C 	0.8753	0.6206	0.0602	0.494
Mof_C 	C 	0.81056	0.69856	0.08346	-0.133
Mof_C 	C 	0.7435	0.7443	0.0509	0.072
Mof_C 	C 	0.68711	0.81561	0.07051	-0.155
Mof_C 	C 	0.6958	0.8436	0.1202	-0.018
Mof_C 	C 	0.7632	0.7979	0.1513	0.093
Mof_C 	C 	0.8207	0.7267	0.1323	-0.037
Mof_C 	C 	0.7623	0.9091	0.2654	0.181
Mof_C 	C 	0.72	0.9037	0.3476	-0.202
Mof_C 	C 	0.7541	0.9144	0.394	0.103
Mof_C 	C 	0.8309	0.9235	0.3579	-0.172
Mof_C 	C 	0.868	0.9317	0.2772	0.13
Mof_C 	C 	0.8327	0.9253	0.231	-0.225
Mof_C 	C 	0.61791	0.86281	0.03461	0.474
Mof_C 	C 	0.8685	0.9288	0.4092	0.361
Mof_C 	C 	0.7179	0.8901	0.2289	-0.133
Mof_C 	C 	0.0602	0.8753	0.6206	0.494
Mof_C 	C 	0.08346	0.81056	0.69856	-0.133
Mof_C 	C 	0.0509	0.7435	0.7443	0.072
Mof_C 	C 	0.07051	0.68711	0.81561	-0.155
Mof_C 	C 	0.1202	0.6958	0.8436	-0.018
Mof_C 	C 	0.1513	0.7632	0.7979	0.093
Mof_C 	C 	0.1323	0.8207	0.7267	-0.037
Mof_C 	C 	0.2654	0.7623	0.9091	0.181
Mof_C 	C 	0.3476	0.72	0.9037	-0.202
Mof_C 	C 	0.394	0.7541	0.9144	0.103
Mof_C 	C 	0.3579	0.8309	0.9235	-0.172
Mof_C 	C 	0.2772	0.868	0.9317	0.13
Mof_C 	C 	0.231	0.8327	0.9253	-0.225
Mof_C 	C 	0.03461	0.61791	0.86281	0.474
Mof_C 	C 	0.4092	0.8685	0.9288	0.361
Mof_C 	C 	0.2289	0.7179	0.8901	-0.133
Mof_O 	O 	0.41983	0.90543	0.07013	-0.519
Mof_O 	O 	0.39545	0.99275	0.13235	-0.561
Mof_O 	O 	0.16515	0.00735	0.39275	-0.517
Mof_O 	O 	0.06798	0.95458	0.42878	-0.598
Mof_O 	O 	0.07808	0.61858	0.05658	-0.465
Mof_O 	O 	0.06141	0.52031	0.17521	-0.463
Mof_O 	O 	0.1692	0.8171	0.2083	-0.173
Mof_O 	O 	0.07013	0.41983	0.90543	-0.519
Mof_O 	O 	0.13235	0.39545	0.99275	-0.561
Mof_O 	O 	0.39275	0.16515	0.00735	-0.517
Mof_O 	O 	0.42878	0.06798	0.95458	-0.598
Mof_O 	O 	0.05658	0.07808	0.61858	-0.465
Mof_O 	O 	0.17521	0.06141	0.52031	-0.463
Mof_O 	O 	0.2083	0.1692	0.8171	-0.173
Mof_O 	O 	0.90543	0.07013	0.41983	-0.519
Mof_O 	O 	0.99275	0.13235	0.39545	-0.561
Mof_O 	O 	0.00735	0.39275	0.16515	-0.517
Mof_O 	O 	0.95458	0.42878	0.06798	-0.598
Mof_O 	O 	0.61858	0.05658	0.07808	-0.465
Mof_O 	O 	0.52031	0.17521	0.06141	-0.463
Mof_O 	O 	0.8171	0.2083	0.1692	-0.173
Mof_O 	O 	0.58017	0.09457	0.92987	-0.519
Mof_O 	O 	0.60455	0.00725	0.86765	-0.561
Mof_O 	O 	0.83485	0.99265	0.60725	-0.517
Mof_O 	O 	0.93202	0.04542	0.57122	-0.598
Mof_O 	O 	0.92192	0.38142	0.94342	-0.465
Mof_O 	O 	0.93859	0.47969	0.82479	-0.463
Mof_O 	O 	0.8308	0.1829	0.7917	-0.173
Mof_O 	O 	0.92987	0.58017	0.09457	-0.519
Mof_O 	O 	0.86765	0.60455	0.00725	-0.561
Mof_O 	O 	0.60725	0.83485	0.99265	-0.517
Mof_O 	O 	0.57122	0.93202	0.04542	-0.598
Mof_O 	O 	0.94342	0.92192	0.38142	-0.465
Mof_O 	O 	0.82479	0.93859	0.47969	-0.463
Mof_O 	O 	0.7917	0.8308	0.1829	-0.173
Mof_O 	O 	0.09457	0.92987	0.58017	-0.519
Mof_O 	O 	0.00725	0.86765	0.60455	-0.561
Mof_O 	O 	0.99265	0.60725	0.83485	-0.517
Mof_O 	O 	0.04542	0.57122	0.93202	-0.598
Mof_O 	O 	0.38142	0.94342	0.92192	-0.465
Mof_O 	O 	0.47969	0.82479	0.93859	-0.463
Mof_O 	O 	0.1829	0.7917	0.8308	-0.173
_end
