data_functionalizedCrystal
_audit_creation_method	'EQeq! by Chris Wilmer'
_symmetry_space_group_name_H-M	'P1'
_symmetry_Int_Tables_number	1
_symmetry_cell_setting	triclinic
loop_
_symmetry_equiv_pos_as_xyz
  x,y,z
_cell_length_a	9.1091
_cell_length_b	15.2324
_cell_length_c	15.587
_cell_angle_alpha	102.771
_cell_angle_beta	95.335
_cell_angle_gamma	104.33
loop_
_atom_site_label
_atom_site_type_symbol
_atom_site_fract_x
_atom_site_fract_y
_atom_site_fract_z
_atom_site_charge
Mof_Co	Co	0.50805	0.25374	0.28367	1.165
Mof_Cr	Cr	0.17441	0.34802	0.30495	1.361
Mof_O 	O 	0.3146	0.2991	0.2915	-0.723
Mof_N 	N 	0.645	0.3952	0.2976	-0.251
Mof_C 	C 	0.5891	0.4544	0.2608	0.096
Mof_H 	H 	0.4837	0.4354	0.2357	-0.057
Mof_Cr	Cr	0.85997	0.17628	0.28251	1.371
Mof_N 	N 	0.5393	0.2697	0.4241	-0.26
Mof_C 	C 	0.6764	0.5411	0.2574	-0.2
Mof_H 	H 	0.6309	0.5798	0.2298	0.09
Mof_N 	N 	0.3717	0.1118	0.2713	-0.255
Mof_C 	C 	0.8304	0.5721	0.2941	0.118
Mof_O 	O 	0.0199	0.2707	0.3367	-0.834
Mof_N 	N 	0.4741	0.2368	0.1419	-0.26
Mof_C 	C 	0.8892	0.5116	0.3324	-0.195
Mof_H 	H 	0.9947	0.5282	0.3569	0.039
Mof_C 	C 	0.7909	0.4256	0.3344	0.074
Mof_H 	H 	0.8317	0.3867	0.3642	-0.044
Mof_C 	C 	0.9272	0.6653	0.2906	-0.114
Mof_O 	O 	0.7069	0.2136	0.2782	-0.728
Mof_C 	C 	0.9842	0.7371	0.3681	0.066
Mof_C 	C 	0.0724	0.8254	0.3622	0.066
Mof_C 	C 	0.0989	0.8393	0.2795	-0.118
Mof_C 	C 	0.0416	0.7674	0.2017	0.07
Mof_C 	C 	0.9537	0.6793	0.2068	0.071
Mof_C 	C 	0.9502	0.7222	0.4575	-0.368
Mof_H 	H 	0.8687	0.6638	0.4489	0.118
Mof_H 	H 	0.9169	0.7748	0.49	0.108
Mof_H 	H 	0.043	0.7182	0.4919	0.107
Mof_C 	C 	0.1317	0.9025	0.4475	-0.389
Mof_H 	H 	0.2199	0.9497	0.4386	0.127
Mof_H 	H 	0.163	0.8758	0.4955	0.102
Mof_H 	H 	0.0503	0.9319	0.4635	0.107
Mof_C 	C 	0.0696	0.7855	0.1108	-0.409
Mof_H 	H 	0.9728	0.7618	0.0693	0.116
Mof_H 	H 	0.1439	0.7532	0.0876	0.125
Mof_H 	H 	0.1101	0.8529	0.1175	0.126
Mof_C 	C 	0.8929	0.6006	0.1228	-0.408
Mof_H 	H 	0.8988	0.5412	0.1355	0.12
Mof_H 	H 	0.9547	0.613	0.0764	0.116
Mof_H 	H 	0.7859	0.5966	0.1023	0.13
Mof_C 	C 	0.1929	0.9328	0.2751	0.12
Mof_C 	C 	0.1422	0.012	0.2962	-0.19
Mof_H 	H 	0.042	0.0065	0.3109	0.036
Mof_C 	C 	0.234	0.099	0.2964	0.082
Mof_H 	H 	0.1971	0.1521	0.3152	-0.059
Mof_C 	C 	0.3386	0.9477	0.2503	-0.209
Mof_H 	H 	0.3806	0.8964	0.2338	0.093
Mof_C 	C 	0.4217	0.0359	0.2493	0.113
Mof_H 	H 	0.5204	0.0432	0.232	-0.065
Mof_C 	C 	0.4961	0.3357	0.4792	0.107
Mof_H 	H 	0.4701	0.3837	0.4563	-0.062
Mof_C 	C 	0.4869	0.3383	0.5676	-0.22
Mof_H 	H 	0.4564	0.3875	0.6037	0.081
Mof_C 	C 	0.5216	0.2702	0.6036	0.143
Mof_C 	C 	0.5738	0.2041	0.5472	-0.216
Mof_H 	H 	0.6066	0.1577	0.5695	0.093
Mof_C 	C 	0.5782	0.2053	0.46	0.117
Mof_H 	H 	0.6108	0.1577	0.423	-0.059
Mof_C 	C 	0.5059	0.266	0.6967	-0.119
Mof_C 	C 	0.3941	0.1919	0.7128	0.092
Mof_C 	C 	0.383	0.186	0.8006	0.045
Mof_C 	C 	0.4799	0.2545	0.8713	-0.113
Mof_C 	C 	0.5896	0.3304	0.855	0.075
Mof_C 	C 	0.6057	0.3346	0.7679	0.051
Mof_C 	C 	0.2853	0.1196	0.6369	-0.435
Mof_H 	H 	0.3136	0.0606	0.6283	0.12
Mof_H 	H 	0.2909	0.1414	0.5824	0.145
Mof_H 	H 	0.1805	0.1096	0.6505	0.136
Mof_C 	C 	0.2676	0.1046	0.8187	-0.327
Mof_H 	H 	0.1675	0.1177	0.8184	0.1
Mof_H 	H 	0.3015	0.096	0.8771	0.093
Mof_H 	H 	0.259	0.0476	0.7725	0.054
Mof_C 	C 	0.731	0.412	0.7504	-0.324
Mof_H 	H 	0.6955	0.4683	0.7546	0.054
Mof_H 	H 	0.7556	0.3916	0.6906	0.095
Mof_H 	H 	0.8228	0.426	0.7947	0.091
Mof_C 	C 	0.6865	0.4088	0.9329	-0.422
Mof_H 	H 	0.7952	0.4124	0.9321	0.123
Mof_H 	H 	0.6579	0.396	0.9889	0.137
Mof_H 	H 	0.6687	0.4684	0.9279	0.126
Mof_C 	C 	0.4739	0.2463	0.9645	0.129
Mof_C 	C 	0.3691	0.275	0.0151	-0.212
Mof_H 	H 	0.2947	0.2996	0.9894	0.073
Mof_C 	C 	0.3706	0.2687	0.101	0.115
Mof_H 	H 	0.2952	0.2877	0.133	-0.077
Mof_C 	C 	0.5758	0.2085	0.0056	-0.21
Mof_H 	H 	0.6477	0.1849	0.9738	0.072
Mof_C 	C 	0.5721	0.2053	0.0938	0.103
Mof_H 	H 	0.643	0.1794	0.121	-0.069
Mof_Co	Co	0.49195	0.74626	0.71633	1.164
Mof_Cr	Cr	0.82559	0.65198	0.69505	1.36
Mof_O 	O 	0.6854	0.7009	0.7085	-0.724
Mof_N 	N 	0.355	0.6048	0.7024	-0.252
Mof_C 	C 	0.4109	0.5456	0.7392	0.096
Mof_H 	H 	0.5163	0.5646	0.7643	-0.057
Mof_Cr	Cr	0.14003	0.82372	0.71749	1.371
Mof_N 	N 	0.4607	0.7303	0.5759	-0.26
Mof_C 	C 	0.3236	0.4589	0.7426	-0.2
Mof_H 	H 	0.3691	0.4202	0.7702	0.09
Mof_N 	N 	0.6283	0.8882	0.7287	-0.255
Mof_C 	C 	0.1696	0.4279	0.7059	0.118
Mof_O 	O 	0.9801	0.7293	0.6633	-0.834
Mof_N 	N 	0.5259	0.7632	0.8581	-0.26
Mof_C 	C 	0.1108	0.4884	0.6676	-0.195
Mof_H 	H 	0.0053	0.4718	0.6431	0.039
Mof_C 	C 	0.2091	0.5744	0.6656	0.074
Mof_H 	H 	0.1683	0.6133	0.6358	-0.044
Mof_C 	C 	0.0728	0.3347	0.7094	-0.114
Mof_O 	O 	0.2931	0.7864	0.7218	-0.728
Mof_C 	C 	0.0158	0.2629	0.6319	0.066
Mof_C 	C 	0.9276	0.1746	0.6378	0.066
Mof_C 	C 	0.9011	0.1607	0.7205	-0.118
Mof_C 	C 	0.9584	0.2326	0.7983	0.07
Mof_C 	C 	0.0463	0.3207	0.7932	0.071
Mof_C 	C 	0.0498	0.2778	0.5425	-0.368
Mof_H 	H 	0.1313	0.3362	0.5511	0.118
Mof_H 	H 	0.0831	0.2252	0.51	0.108
Mof_H 	H 	0.957	0.2818	0.5081	0.107
Mof_C 	C 	0.8683	0.0975	0.5525	-0.389
Mof_H 	H 	0.7801	0.0503	0.5614	0.127
Mof_H 	H 	0.837	0.1242	0.5045	0.102
Mof_H 	H 	0.9497	0.0681	0.5365	0.107
Mof_C 	C 	0.9304	0.2145	0.8892	-0.409
Mof_H 	H 	0.0272	0.2382	0.9307	0.116
Mof_H 	H 	0.8561	0.2468	0.9124	0.125
Mof_H 	H 	0.8899	0.1471	0.8825	0.126
Mof_C 	C 	0.1071	0.3994	0.8772	-0.408
Mof_H 	H 	0.1012	0.4588	0.8645	0.12
Mof_H 	H 	0.0453	0.387	0.9236	0.116
Mof_H 	H 	0.2141	0.4034	0.8977	0.13
Mof_C 	C 	0.8071	0.0672	0.7249	0.12
Mof_C 	C 	0.8578	0.988	0.7038	-0.19
Mof_H 	H 	0.958	0.9935	0.6891	0.036
Mof_C 	C 	0.766	0.901	0.7036	0.082
Mof_H 	H 	0.8029	0.8479	0.6848	-0.059
Mof_C 	C 	0.6614	0.0523	0.7497	-0.209
Mof_H 	H 	0.6194	0.1036	0.7662	0.093
Mof_C 	C 	0.5783	0.9641	0.7507	0.113
Mof_H 	H 	0.4796	0.9568	0.768	-0.065
Mof_C 	C 	0.5039	0.6643	0.5208	0.107
Mof_H 	H 	0.5299	0.6163	0.5437	-0.062
Mof_C 	C 	0.5131	0.6617	0.4324	-0.22
Mof_H 	H 	0.5436	0.6125	0.3963	0.081
Mof_C 	C 	0.4784	0.7298	0.3964	0.143
Mof_C 	C 	0.4262	0.7959	0.4528	-0.216
Mof_H 	H 	0.3934	0.8423	0.4305	0.093
Mof_C 	C 	0.4218	0.7947	0.54	0.117
Mof_H 	H 	0.3892	0.8423	0.577	-0.059
Mof_C 	C 	0.4941	0.734	0.3033	-0.119
Mof_C 	C 	0.6059	0.8081	0.2872	0.092
Mof_C 	C 	0.617	0.814	0.1994	0.045
Mof_C 	C 	0.5201	0.7455	0.1287	-0.113
Mof_C 	C 	0.4104	0.6696	0.145	0.075
Mof_C 	C 	0.3943	0.6654	0.2321	0.051
Mof_C 	C 	0.7147	0.8804	0.3631	-0.435
Mof_H 	H 	0.6864	0.9394	0.3717	0.12
Mof_H 	H 	0.7091	0.8586	0.4176	0.145
Mof_H 	H 	0.8195	0.8904	0.3495	0.136
Mof_C 	C 	0.7324	0.8954	0.1813	-0.327
Mof_H 	H 	0.8325	0.8823	0.1816	0.1
Mof_H 	H 	0.6985	0.904	0.1229	0.093
Mof_H 	H 	0.741	0.9524	0.2275	0.054
Mof_C 	C 	0.269	0.588	0.2496	-0.324
Mof_H 	H 	0.3045	0.5317	0.2454	0.054
Mof_H 	H 	0.2444	0.6084	0.3094	0.095
Mof_H 	H 	0.1772	0.574	0.2053	0.091
Mof_C 	C 	0.3135	0.5912	0.0671	-0.422
Mof_H 	H 	0.2048	0.5876	0.0679	0.123
Mof_H 	H 	0.3421	0.604	0.0111	0.137
Mof_H 	H 	0.3313	0.5316	0.0721	0.126
Mof_C 	C 	0.5261	0.7537	0.0355	0.129
Mof_C 	C 	0.6309	0.725	0.9849	-0.212
Mof_H 	H 	0.7053	0.7004	0.0106	0.073
Mof_C 	C 	0.6294	0.7313	0.899	0.115
Mof_H 	H 	0.7048	0.7123	0.867	-0.077
Mof_C 	C 	0.4242	0.7915	0.9944	-0.21
Mof_H 	H 	0.3523	0.8151	0.0262	0.072
Mof_C 	C 	0.4279	0.7947	0.9062	0.103
Mof_H 	H 	0.357	0.8206	0.879	-0.069
_end
