data_functionalizedCrystal
_audit_creation_method	'EQeq! by Chris Wilmer'
_symmetry_space_group_name_H-M	'P1'
_symmetry_Int_Tables_number	1
_symmetry_cell_setting	triclinic
loop_
_symmetry_equiv_pos_as_xyz
  x,y,z
_cell_length_a	30.748
_cell_length_b	7.12
_cell_length_c	15.932
_cell_angle_alpha	90
_cell_angle_beta	90
_cell_angle_gamma	90
loop_
_atom_site_label
_atom_site_type_symbol
_atom_site_fract_x
_atom_site_fract_y
_atom_site_fract_z
_atom_site_charge
Mof_O 	O 	0.20593	0.3484	0.0956	-0.772
Mof_C 	C 	0.1389	0.651	0.2094	-0.014
Mof_H 	H 	0.1378	0.7477	0.1684	-0.002
Mof_C 	C 	0.1134	0.666	0.2811	0.011
Mof_H 	H 	0.0953	0.7726	0.288	0.049
Mof_C 	C 	0.1138	0.523	0.3455	0.024
Mof_C 	C 	0.1422	0.365	0.3297	-0.058
Mof_H 	H 	0.144	0.2659	0.3694	0.047
Mof_C 	C 	0.1669	0.358	0.2568	0.032
Mof_H 	H 	0.1854	0.2523	0.248	-0.002
Mof_C 	C 	0.1425	0.343	0.2247	-0.011
Mof_H 	H 	0.1462	0.2251	0.1979	0.001
Mof_C 	C 	0.1138	0.359	0.2917	-0.035
Mof_H 	H 	0.0937	0.2604	0.3024	-0.028
Mof_C 	C 	0.1368	0.683	0.3119	-0.031
Mof_H 	H 	0.1363	0.7994	0.3412	0.005
Mof_C 	C 	0.1596	0.668	0.2369	0.048
Mof_H 	H 	0.1715	0.7783	0.2125	0.004
Mof_O 	O 	0.70593	0.8484	0.0956	-0.778
Mof_C 	C 	0.6389	0.151	0.2094	-0.015
Mof_H 	H 	0.6378	0.2477	0.1684	-0.001
Mof_C 	C 	0.6134	0.166	0.2811	0.013
Mof_H 	H 	0.5953	0.2726	0.288	0.049
Mof_C 	C 	0.6138	0.023	0.3455	0.007
Mof_C 	C 	0.6422	0.865	0.3297	-0.056
Mof_H 	H 	0.644	0.7659	0.3694	0.044
Mof_C 	C 	0.6669	0.858	0.2568	0.031
Mof_H 	H 	0.6854	0.7523	0.248	-0.002
Mof_C 	C 	0.6425	0.843	0.2247	-0.012
Mof_H 	H 	0.6462	0.7251	0.1979	0.007
Mof_C 	C 	0.6138	0.859	0.2917	-0.034
Mof_H 	H 	0.5937	0.7604	0.3024	-0.028
Mof_C 	C 	0.6368	0.183	0.3119	-0.024
Mof_H 	H 	0.6363	0.2994	0.3412	0.004
Mof_C 	C 	0.6596	0.168	0.2369	0.048
Mof_H 	H 	0.6715	0.2783	0.2125	0.005
Mof_O 	O 	0.79407	0.6516	0.0956	-0.773
Mof_C 	C 	0.8611	0.349	0.2094	-0.014
Mof_H 	H 	0.8622	0.2523	0.1684	-0
Mof_C 	C 	0.8866	0.334	0.2811	0.009
Mof_H 	H 	0.9047	0.2274	0.288	0.048
Mof_C 	C 	0.8862	0.477	0.3455	0.023
Mof_C 	C 	0.8578	0.635	0.3297	-0.059
Mof_H 	H 	0.856	0.7341	0.3694	0.047
Mof_C 	C 	0.8331	0.642	0.2568	0.033
Mof_H 	H 	0.8146	0.7477	0.248	-0.004
Mof_C 	C 	0.8575	0.657	0.2247	-0.011
Mof_H 	H 	0.8538	0.7749	0.1979	0.002
Mof_C 	C 	0.8862	0.641	0.2917	-0.035
Mof_H 	H 	0.9063	0.7396	0.3024	-0.032
Mof_C 	C 	0.8632	0.317	0.3119	-0.029
Mof_H 	H 	0.8637	0.2006	0.3412	0.008
Mof_C 	C 	0.8404	0.332	0.2369	0.049
Mof_H 	H 	0.8285	0.2217	0.2125	0.006
Mof_O 	O 	0.29407	0.1516	0.0956	-0.774
Mof_C 	C 	0.3611	0.849	0.2094	-0.013
Mof_H 	H 	0.3622	0.7523	0.1684	-0.006
Mof_C 	C 	0.3866	0.834	0.2811	0.007
Mof_H 	H 	0.4047	0.7274	0.288	0.047
Mof_C 	C 	0.3862	0.977	0.3455	0.036
Mof_C 	C 	0.3578	0.135	0.3297	-0.059
Mof_H 	H 	0.356	0.2341	0.3694	0.047
Mof_C 	C 	0.3331	0.142	0.2568	0.031
Mof_H 	H 	0.3146	0.2477	0.248	-0.002
Mof_C 	C 	0.3575	0.157	0.2247	-0.011
Mof_H 	H 	0.3538	0.2749	0.1979	0.002
Mof_C 	C 	0.3862	0.141	0.2917	-0.036
Mof_H 	H 	0.4063	0.2396	0.3024	-0.031
Mof_C 	C 	0.3632	0.817	0.3119	-0.034
Mof_H 	H 	0.3637	0.7006	0.3412	0.008
Mof_C 	C 	0.3404	0.832	0.2369	0.045
Mof_H 	H 	0.3285	0.7217	0.2125	0.003
Mof_O 	O 	0.79407	0.3484	0.9044	-0.624
Mof_C 	C 	0.8611	0.651	0.7906	0.003
Mof_H 	H 	0.8622	0.7477	0.8316	0.12
Mof_C 	C 	0.8866	0.666	0.7189	0.006
Mof_H 	H 	0.9047	0.7726	0.712	0.032
Mof_C 	C 	0.8862	0.523	0.6545	0.022
Mof_C 	C 	0.8578	0.365	0.6703	-0.06
Mof_H 	H 	0.856	0.2659	0.6306	0.045
Mof_C 	C 	0.8331	0.358	0.7432	0.027
Mof_H 	H 	0.8146	0.2523	0.752	-0.025
Mof_C 	C 	0.8575	0.343	0.7753	-0.01
Mof_H 	H 	0.8538	0.2251	0.8021	-0.103
Mof_C 	C 	0.8862	0.359	0.7083	-0.026
Mof_H 	H 	0.9063	0.2604	0.6976	0.006
Mof_C 	C 	0.8632	0.683	0.6881	-0.028
Mof_H 	H 	0.8637	0.7994	0.6588	0.011
Mof_C 	C 	0.8404	0.668	0.7631	0.053
Mof_H 	H 	0.8285	0.7783	0.7875	0.067
Mof_O 	O 	0.29407	0.8484	0.9044	-0.625
Mof_C 	C 	0.3611	0.151	0.7906	0.003
Mof_H 	H 	0.3622	0.2477	0.8316	0.121
Mof_C 	C 	0.3866	0.166	0.7189	0.007
Mof_H 	H 	0.4047	0.2726	0.712	0.032
Mof_C 	C 	0.3862	0.023	0.6545	0.009
Mof_C 	C 	0.3578	0.865	0.6703	-0.058
Mof_H 	H 	0.356	0.7659	0.6306	0.043
Mof_C 	C 	0.3331	0.858	0.7432	0.026
Mof_H 	H 	0.3146	0.7523	0.752	-0.025
Mof_C 	C 	0.3575	0.843	0.7753	-0.011
Mof_H 	H 	0.3538	0.7251	0.8021	-0.099
Mof_C 	C 	0.3862	0.859	0.7083	-0.025
Mof_H 	H 	0.4063	0.7604	0.6976	0.006
Mof_C 	C 	0.3632	0.183	0.6881	-0.023
Mof_H 	H 	0.3637	0.2994	0.6588	0.011
Mof_C 	C 	0.3404	0.168	0.7631	0.052
Mof_H 	H 	0.3285	0.2783	0.7875	0.068
Mof_O 	O 	0.20593	0.6516	0.9044	-0.623
Mof_C 	C 	0.1389	0.349	0.7906	0.004
Mof_H 	H 	0.1378	0.2523	0.8316	0.121
Mof_C 	C 	0.1134	0.334	0.7189	0.005
Mof_H 	H 	0.0953	0.2274	0.712	0.032
Mof_C 	C 	0.1138	0.477	0.6545	0.022
Mof_C 	C 	0.1422	0.635	0.6703	-0.06
Mof_H 	H 	0.144	0.7341	0.6306	0.045
Mof_C 	C 	0.1669	0.642	0.7432	0.028
Mof_H 	H 	0.1854	0.7477	0.752	-0.026
Mof_C 	C 	0.1425	0.657	0.7753	-0.01
Mof_H 	H 	0.1462	0.7749	0.8021	-0.103
Mof_C 	C 	0.1138	0.641	0.7083	-0.026
Mof_H 	H 	0.0937	0.7396	0.6976	0.002
Mof_C 	C 	0.1368	0.317	0.6881	-0.027
Mof_H 	H 	0.1363	0.2006	0.6588	0.013
Mof_C 	C 	0.1596	0.332	0.7631	0.053
Mof_H 	H 	0.1715	0.2217	0.7875	0.069
Mof_O 	O 	0.70593	0.1516	0.9044	-0.625
Mof_C 	C 	0.6389	0.849	0.7906	0.005
Mof_H 	H 	0.6378	0.7523	0.8316	0.118
Mof_C 	C 	0.6134	0.834	0.7189	0.003
Mof_H 	H 	0.5953	0.7274	0.712	0.031
Mof_C 	C 	0.6138	0.977	0.6545	0.032
Mof_C 	C 	0.6422	0.135	0.6703	-0.06
Mof_H 	H 	0.644	0.2341	0.6306	0.046
Mof_C 	C 	0.6669	0.142	0.7432	0.026
Mof_H 	H 	0.6854	0.2477	0.752	-0.025
Mof_C 	C 	0.6425	0.157	0.7753	-0.01
Mof_H 	H 	0.6462	0.2749	0.8021	-0.102
Mof_C 	C 	0.6138	0.141	0.7083	-0.026
Mof_H 	H 	0.5937	0.2396	0.6976	0.004
Mof_C 	C 	0.6368	0.817	0.6881	-0.031
Mof_H 	H 	0.6363	0.7006	0.6588	0.014
Mof_C 	C 	0.6596	0.832	0.7631	0.05
Mof_H 	H 	0.6715	0.7217	0.7875	0.067
Mof_O 	O 	0.79407	0.6516	0.9044	-0.623
Mof_C 	C 	0.8611	0.349	0.7906	0.004
Mof_H 	H 	0.8622	0.2523	0.8316	0.121
Mof_C 	C 	0.8866	0.334	0.7189	0.005
Mof_H 	H 	0.9047	0.2274	0.712	0.032
Mof_C 	C 	0.8862	0.477	0.6545	0.022
Mof_C 	C 	0.8578	0.635	0.6703	-0.06
Mof_H 	H 	0.856	0.7341	0.6306	0.045
Mof_C 	C 	0.8331	0.642	0.7432	0.028
Mof_H 	H 	0.8146	0.7477	0.752	-0.026
Mof_C 	C 	0.8575	0.657	0.7753	-0.01
Mof_H 	H 	0.8538	0.7749	0.8021	-0.103
Mof_C 	C 	0.8862	0.641	0.7083	-0.026
Mof_H 	H 	0.9063	0.7396	0.6976	0.002
Mof_C 	C 	0.8632	0.317	0.6881	-0.027
Mof_H 	H 	0.8637	0.2006	0.6588	0.013
Mof_C 	C 	0.8404	0.332	0.7631	0.053
Mof_H 	H 	0.8285	0.2217	0.7875	0.069
Mof_O 	O 	0.29407	0.1516	0.9044	-0.625
Mof_C 	C 	0.3611	0.849	0.7906	0.005
Mof_H 	H 	0.3622	0.7523	0.8316	0.118
Mof_C 	C 	0.3866	0.834	0.7189	0.003
Mof_H 	H 	0.4047	0.7274	0.712	0.031
Mof_C 	C 	0.3862	0.977	0.6545	0.032
Mof_C 	C 	0.3578	0.135	0.6703	-0.06
Mof_H 	H 	0.356	0.2341	0.6306	0.046
Mof_C 	C 	0.3331	0.142	0.7432	0.026
Mof_H 	H 	0.3146	0.2477	0.752	-0.025
Mof_C 	C 	0.3575	0.157	0.7753	-0.01
Mof_H 	H 	0.3538	0.2749	0.8021	-0.102
Mof_C 	C 	0.3862	0.141	0.7083	-0.026
Mof_H 	H 	0.4063	0.2396	0.6976	0.004
Mof_C 	C 	0.3632	0.817	0.6881	-0.031
Mof_H 	H 	0.3637	0.7006	0.6588	0.014
Mof_C 	C 	0.3404	0.832	0.7631	0.05
Mof_H 	H 	0.3285	0.7217	0.7875	0.067
Mof_O 	O 	0.20593	0.3484	0.9044	-0.624
Mof_C 	C 	0.1389	0.651	0.7906	0.003
Mof_H 	H 	0.1378	0.7477	0.8316	0.12
Mof_C 	C 	0.1134	0.666	0.7189	0.006
Mof_H 	H 	0.0953	0.7726	0.712	0.032
Mof_C 	C 	0.1138	0.523	0.6545	0.022
Mof_C 	C 	0.1422	0.365	0.6703	-0.06
Mof_H 	H 	0.144	0.2659	0.6306	0.045
Mof_C 	C 	0.1669	0.358	0.7432	0.027
Mof_H 	H 	0.1854	0.2523	0.752	-0.025
Mof_C 	C 	0.1425	0.343	0.7753	-0.01
Mof_H 	H 	0.1462	0.2251	0.8021	-0.103
Mof_C 	C 	0.1138	0.359	0.7083	-0.026
Mof_H 	H 	0.0937	0.2604	0.6976	0.006
Mof_C 	C 	0.1368	0.683	0.6881	-0.028
Mof_H 	H 	0.1363	0.7994	0.6588	0.011
Mof_C 	C 	0.1596	0.668	0.7631	0.053
Mof_H 	H 	0.1715	0.7783	0.7875	0.067
Mof_O 	O 	0.70593	0.8484	0.9044	-0.625
Mof_C 	C 	0.6389	0.151	0.7906	0.003
Mof_H 	H 	0.6378	0.2477	0.8316	0.121
Mof_C 	C 	0.6134	0.166	0.7189	0.007
Mof_H 	H 	0.5953	0.2726	0.712	0.032
Mof_C 	C 	0.6138	0.023	0.6545	0.009
Mof_C 	C 	0.6422	0.865	0.6703	-0.058
Mof_H 	H 	0.644	0.7659	0.6306	0.043
Mof_C 	C 	0.6669	0.858	0.7432	0.026
Mof_H 	H 	0.6854	0.7523	0.752	-0.025
Mof_C 	C 	0.6425	0.843	0.7753	-0.011
Mof_H 	H 	0.6462	0.7251	0.8021	-0.099
Mof_C 	C 	0.6138	0.859	0.7083	-0.025
Mof_H 	H 	0.5937	0.7604	0.6976	0.006
Mof_C 	C 	0.6368	0.183	0.6881	-0.023
Mof_H 	H 	0.6363	0.2994	0.6588	0.011
Mof_C 	C 	0.6596	0.168	0.7631	0.052
Mof_H 	H 	0.6715	0.2783	0.7875	0.068
Mof_O 	O 	0.20593	0.6516	0.0956	-0.773
Mof_C 	C 	0.1389	0.349	0.2094	-0.014
Mof_H 	H 	0.1378	0.2523	0.1684	-0
Mof_C 	C 	0.1134	0.334	0.2811	0.009
Mof_H 	H 	0.0953	0.2274	0.288	0.048
Mof_C 	C 	0.1138	0.477	0.3455	0.023
Mof_C 	C 	0.1422	0.635	0.3297	-0.059
Mof_H 	H 	0.144	0.7341	0.3694	0.047
Mof_C 	C 	0.1669	0.642	0.2568	0.033
Mof_H 	H 	0.1854	0.7477	0.248	-0.004
Mof_C 	C 	0.1425	0.657	0.2247	-0.011
Mof_H 	H 	0.1462	0.7749	0.1979	0.002
Mof_C 	C 	0.1138	0.641	0.2917	-0.035
Mof_H 	H 	0.0937	0.7396	0.3024	-0.032
Mof_C 	C 	0.1368	0.317	0.3119	-0.029
Mof_H 	H 	0.1363	0.2006	0.3412	0.008
Mof_C 	C 	0.1596	0.332	0.2369	0.049
Mof_H 	H 	0.1715	0.2217	0.2125	0.006
Mof_O 	O 	0.70593	0.1516	0.0956	-0.774
Mof_C 	C 	0.6389	0.849	0.2094	-0.013
Mof_H 	H 	0.6378	0.7523	0.1684	-0.006
Mof_C 	C 	0.6134	0.834	0.2811	0.007
Mof_H 	H 	0.5953	0.7274	0.288	0.047
Mof_C 	C 	0.6138	0.977	0.3455	0.036
Mof_C 	C 	0.6422	0.135	0.3297	-0.059
Mof_H 	H 	0.644	0.2341	0.3694	0.047
Mof_C 	C 	0.6669	0.142	0.2568	0.031
Mof_H 	H 	0.6854	0.2477	0.248	-0.002
Mof_C 	C 	0.6425	0.157	0.2247	-0.011
Mof_H 	H 	0.6462	0.2749	0.1979	0.002
Mof_C 	C 	0.6138	0.141	0.2917	-0.036
Mof_H 	H 	0.5937	0.2396	0.3024	-0.031
Mof_C 	C 	0.6368	0.817	0.3119	-0.034
Mof_H 	H 	0.6363	0.7006	0.3412	0.008
Mof_C 	C 	0.6596	0.832	0.2369	0.045
Mof_H 	H 	0.6715	0.7217	0.2125	0.003
Mof_O 	O 	0.79407	0.3484	0.0956	-0.773
Mof_C 	C 	0.8611	0.651	0.2094	-0.015
Mof_H 	H 	0.8622	0.7477	0.1684	-0.003
Mof_C 	C 	0.8866	0.666	0.2811	0.01
Mof_H 	H 	0.9047	0.7726	0.288	0.049
Mof_C 	C 	0.8862	0.523	0.3455	0.024
Mof_C 	C 	0.8578	0.365	0.3297	-0.058
Mof_H 	H 	0.856	0.2659	0.3694	0.047
Mof_C 	C 	0.8331	0.358	0.2568	0.032
Mof_H 	H 	0.8146	0.2523	0.248	-0.002
Mof_C 	C 	0.8575	0.343	0.2247	-0.011
Mof_H 	H 	0.8538	0.2251	0.1979	0.001
Mof_C 	C 	0.8862	0.359	0.2917	-0.035
Mof_H 	H 	0.9063	0.2604	0.3024	-0.028
Mof_C 	C 	0.8632	0.683	0.3119	-0.031
Mof_H 	H 	0.8637	0.7994	0.3412	0.005
Mof_C 	C 	0.8404	0.668	0.2369	0.048
Mof_H 	H 	0.8285	0.7783	0.2125	0.004
Mof_O 	O 	0.29407	0.8484	0.0956	-0.778
Mof_C 	C 	0.3611	0.151	0.2094	-0.015
Mof_H 	H 	0.3622	0.2477	0.1684	-0.001
Mof_C 	C 	0.3866	0.166	0.2811	0.013
Mof_H 	H 	0.4047	0.2726	0.288	0.049
Mof_C 	C 	0.3862	0.023	0.3455	0.007
Mof_C 	C 	0.3578	0.865	0.3297	-0.056
Mof_H 	H 	0.356	0.7659	0.3694	0.044
Mof_C 	C 	0.3331	0.858	0.2568	0.031
Mof_H 	H 	0.3146	0.7523	0.248	-0.002
Mof_C 	C 	0.3575	0.843	0.2247	-0.012
Mof_H 	H 	0.3538	0.7251	0.1979	0.007
Mof_C 	C 	0.3862	0.859	0.2917	-0.034
Mof_H 	H 	0.4063	0.7604	0.3024	-0.028
Mof_C 	C 	0.3632	0.183	0.3119	-0.024
Mof_H 	H 	0.3637	0.2994	0.3412	0.004
Mof_C 	C 	0.3404	0.168	0.2369	0.048
Mof_H 	H 	0.3285	0.2783	0.2125	0.005
Mof_In	In	0.25	0.25	-0	2.531
Mof_In	In	0.75	0.75	-0	2.514
Mof_In	In	0.75	0.25	-0	2.531
Mof_In	In	0.25	0.75	-0	2.514
Mof_O 	O 	0.2837	0.5	-0	-1.146
Mof_H 	H 	0.3156	0.5	-0	0.24
Mof_O 	O 	0.7837	0	-0	-1.142
Mof_H 	H 	0.8156	0	-0	0.243
Mof_O 	O 	0.7163	0.5	-0	-1.146
Mof_H 	H 	0.6844	0.5	-0	0.24
Mof_O 	O 	0.2163	0	-0	-1.142
Mof_H 	H 	0.1844	0	-0	0.243
Mof_C 	C 	0.1944	0.5	0.1223	0.683
Mof_C 	C 	0.0249	0.5	0.3393	-0.065
Mof_H 	H 	0.0416	0.5	0.2892	0.037
Mof_C 	C 	0.0901	0.5	0.4257	-0.021
Mof_C 	C 	0.0441	0.5	0.4213	0.016
Mof_C 	C 	0.1658	0.5	0.1963	-0.249
Mof_C 	C 	0.6944	0	0.1223	0.69
Mof_C 	C 	0.5249	7.23741e-33	0.3393	-0.064
Mof_H 	H 	0.5416	0	0.2892	0.038
Mof_C 	C 	0.5901	0	0.4257	-0.017
Mof_C 	C 	0.5441	-7.23741e-33	0.4213	0.015
Mof_C 	C 	0.6658	0	0.1963	-0.242
Mof_C 	C 	0.8056	0.5	0.1223	0.683
Mof_C 	C 	0.9751	0.5	0.3393	-0.065
Mof_H 	H 	0.9584	0.5	0.2892	0.037
Mof_C 	C 	0.9099	0.5	0.4257	-0.021
Mof_C 	C 	0.9559	0.5	0.4213	0.016
Mof_C 	C 	0.8342	0.5	0.1963	-0.249
Mof_C 	C 	0.3056	0	0.1223	0.69
Mof_C 	C 	0.4751	7.23741e-33	0.3393	-0.064
Mof_H 	H 	0.4584	0	0.2892	0.038
Mof_C 	C 	0.4099	0	0.4257	-0.017
Mof_C 	C 	0.4559	-7.23741e-33	0.4213	0.015
Mof_C 	C 	0.3342	0	0.1963	-0.242
Mof_C 	C 	0.8056	0.5	0.8777	0.66
Mof_C 	C 	0.9751	0.5	0.6607	-0.057
Mof_H 	H 	0.9584	0.5	0.7108	0.061
Mof_C 	C 	0.9099	0.5	0.5743	-0.02
Mof_C 	C 	0.9559	0.5	0.5787	0.017
Mof_C 	C 	0.8342	0.5	0.8037	-0.229
Mof_C 	C 	0.3056	-1.44748e-32	0.8777	0.662
Mof_C 	C 	0.4751	0	0.6607	-0.056
Mof_H 	H 	0.4584	0	0.7108	0.061
Mof_C 	C 	0.4099	0	0.5743	-0.017
Mof_C 	C 	0.4559	-1.44748e-32	0.5787	0.016
Mof_C 	C 	0.3342	1.44748e-32	0.8037	-0.225
Mof_C 	C 	0.1944	0.5	0.8777	0.66
Mof_C 	C 	0.0249	0.5	0.6607	-0.057
Mof_H 	H 	0.0416	0.5	0.7108	0.061
Mof_C 	C 	0.0901	0.5	0.5743	-0.02
Mof_C 	C 	0.0441	0.5	0.5787	0.017
Mof_C 	C 	0.1658	0.5	0.8037	-0.229
Mof_C 	C 	0.6944	-1.44748e-32	0.8777	0.662
Mof_C 	C 	0.5249	0	0.6607	-0.056
Mof_H 	H 	0.5416	0	0.7108	0.061
Mof_C 	C 	0.5901	0	0.5743	-0.017
Mof_C 	C 	0.5441	-1.44748e-32	0.5787	0.016
Mof_C 	C 	0.6658	1.44748e-32	0.8037	-0.225
Mof_C 	C 	0.0224	0.5	0.5	-0.012
Mof_C 	C 	0.1139	0.5	0.5	-0.06
Mof_H 	H 	0.1448	0.5	0.5	0.047
Mof_C 	C 	0.5224	0	0.5	-0.011
Mof_C 	C 	0.6139	0	0.5	-0.063
Mof_H 	H 	0.6448	0	0.5	0.049
Mof_C 	C 	0.9776	0.5	0.5	-0.012
Mof_C 	C 	0.8861	0.5	0.5	-0.06
Mof_H 	H 	0.8552	0.5	0.5	0.047
Mof_C 	C 	0.4776	0	0.5	-0.011
Mof_C 	C 	0.3861	0	0.5	-0.063
Mof_H 	H 	0.3552	0	0.5	0.049
_end
