# CIF file generated by openbabel 3.1.0, see https://openbabel.org
data_I
_chemical_name_common 'image0'
_cell_length_a 10.3008
_cell_length_b 13.3246
_cell_length_c 20.462
_cell_angle_alpha 90
_cell_angle_beta 90
_cell_angle_gamma 90
_space_group_name_H-M_alt 'P 1'
_space_group_name_Hall 'P 1'
loop_
    _symmetry_equiv_pos_as_xyz
    x,y,z
loop_
    _atom_site_label
    _atom_site_type_symbol
    _atom_site_fract_x
    _atom_site_fract_y
    _atom_site_fract_z
    _atom_site_occupancy
    Zn1      Zn       0.43529    0.88973    0.29383    1.000
    O1       O        0.45010    0.80960    0.20260    1.000
    O2       O        0.80410    0.89700    0.07260    1.000
    N1       N        0.60350    0.94540    0.25630    1.000
    O3       O        0.92390    0.01810    0.12130    1.000
    O4       O        0.58410    0.77860    0.12180    1.000
    N2       N        0.77980    0.02780    0.22280    1.000
    C1       C        0.64010    0.90510    0.20040    1.000
    N3       N        0.45020    0.76320    0.34930    1.000
    C2       C        0.49350    0.59650    0.42760    1.000
    C3       C        0.53270    0.59600    0.36410    1.000
    H1       H        0.57300    0.53940    0.34700    1.000
    C4       C        0.51600    0.50810    0.47090    1.000
    H2       H        0.56290    0.45620    0.45150    1.000
    C5       C        0.82670    0.95380    0.11830    1.000
    C6       C        0.68700    0.01870    0.26850    1.000
    H3       H        0.68230    0.05990    0.30510    1.000
    C7       C        0.55470    0.82470    0.17480    1.000
    C8       C        0.43050    0.68170    0.45040    1.000
    H4       H        0.40490    0.68470    0.49390    1.000
    C9       C        0.51280    0.67950    0.32450    1.000
    H5       H        0.54160    0.67900    0.28150    1.000
    C10      C        0.40570    0.75970    0.41080    1.000
    H6       H        0.35620    0.81290    0.42650    1.000
    C11      C        0.74900    0.95790    0.17920    1.000
    Zn2      Zn       0.06471    0.61027    0.29383    1.000
    O5       O        0.04990    0.69040    0.20260    1.000
    O6       O        0.69590    0.60300    0.07260    1.000
    N4       N        0.89650    0.55460    0.25630    1.000
    O7       O        0.57610    0.48190    0.12130    1.000
    O8       O        0.91590    0.72140    0.12180    1.000
    N5       N        0.72020    0.47220    0.22280    1.000
    C12      C        0.85990    0.59490    0.20040    1.000
    N6       N        0.04980    0.73680    0.34930    1.000
    C13      C        0.00650    0.90350    0.42760    1.000
    C14      C        0.96730    0.90400    0.36410    1.000
    H7       H        0.92700    0.96060    0.34700    1.000
    C15      C        0.98400    0.99190    0.47090    1.000
    H8       H        0.93710    0.04380    0.45150    1.000
    C16      C        0.67330    0.54620    0.11830    1.000
    C17      C        0.81300    0.48130    0.26850    1.000
    H9       H        0.81770    0.44010    0.30510    1.000
    C18      C        0.94530    0.67530    0.17480    1.000
    C19      C        0.06950    0.81830    0.45040    1.000
    H10      H        0.09510    0.81530    0.49390    1.000
    C20      C        0.98720    0.82050    0.32450    1.000
    H11      H        0.95840    0.82100    0.28150    1.000
    C21      C        0.09430    0.74030    0.41080    1.000
    H12      H        0.14380    0.68710    0.42650    1.000
    C22      C        0.75100    0.54210    0.17920    1.000
    Zn3      Zn       0.56471    0.38973    0.20617    1.000
    O9       O        0.54990    0.30960    0.29740    1.000
    O10      O        0.19590    0.39700    0.42740    1.000
    N7       N        0.39650    0.44540    0.24370    1.000
    O11      O        0.07610    0.51810    0.37870    1.000
    O12      O        0.41590    0.27860    0.37820    1.000
    N8       N        0.22020    0.52780    0.27720    1.000
    C23      C        0.35990    0.40510    0.29960    1.000
    N9       N        0.54980    0.26320    0.15070    1.000
    C24      C        0.50650    0.09650    0.07240    1.000
    C25      C        0.46730    0.09600    0.13590    1.000
    H13      H        0.42700    0.03940    0.15300    1.000
    C26      C        0.48400    0.00810    0.02910    1.000
    H14      H        0.43710    0.95620    0.04850    1.000
    C27      C        0.17330    0.45380    0.38170    1.000
    C28      C        0.31300    0.51870    0.23150    1.000
    H15      H        0.31770    0.55990    0.19490    1.000
    C29      C        0.44530    0.32470    0.32520    1.000
    C30      C        0.56950    0.18170    0.04960    1.000
    H16      H        0.59510    0.18470    0.00610    1.000
    C31      C        0.48720    0.17950    0.17550    1.000
    H17      H        0.45840    0.17900    0.21850    1.000
    C32      C        0.59430    0.25970    0.08920    1.000
    H18      H        0.64380    0.31290    0.07350    1.000
    C33      C        0.25100    0.45790    0.32080    1.000
    Zn4      Zn       0.93529    0.11027    0.20617    1.000
    O13      O        0.95010    0.19040    0.29740    1.000
    O14      O        0.30410    0.10300    0.42740    1.000
    N10      N        0.10350    0.05460    0.24370    1.000
    O15      O        0.42390    0.98190    0.37870    1.000
    O16      O        0.08410    0.22140    0.37820    1.000
    N11      N        0.27980    0.97220    0.27720    1.000
    C34      C        0.14010    0.09490    0.29960    1.000
    N12      N        0.95020    0.23680    0.15070    1.000
    C35      C        0.99350    0.40350    0.07240    1.000
    C36      C        0.03270    0.40400    0.13590    1.000
    H19      H        0.07300    0.46060    0.15300    1.000
    C37      C        0.01600    0.49190    0.02910    1.000
    H20      H        0.06290    0.54380    0.04850    1.000
    C38      C        0.32670    0.04620    0.38170    1.000
    C39      C        0.18700    0.98130    0.23150    1.000
    H21      H        0.18230    0.94010    0.19490    1.000
    C40      C        0.05470    0.17530    0.32520    1.000
    C41      C        0.93050    0.31830    0.04960    1.000
    H22      H        0.90490    0.31530    0.00610    1.000
    C42      C        0.01280    0.32050    0.17550    1.000
    H23      H        0.04160    0.32100    0.21850    1.000
    C43      C        0.90570    0.24030    0.08920    1.000
    H24      H        0.85620    0.18710    0.07350    1.000
    C44      C        0.24900    0.04210    0.32080    1.000
    Zn5      Zn       0.56471    0.11027    0.70617    1.000
    O17      O        0.54990    0.19040    0.79740    1.000
    O18      O        0.19590    0.10300    0.92740    1.000
    N13      N        0.39650    0.05460    0.74370    1.000
    O19      O        0.07610    0.98190    0.87870    1.000
    O20      O        0.41590    0.22140    0.87820    1.000
    N14      N        0.22020    0.97220    0.77720    1.000
    C45      C        0.35990    0.09490    0.79960    1.000
    N15      N        0.54980    0.23680    0.65070    1.000
    C46      C        0.50650    0.40350    0.57240    1.000
    C47      C        0.46730    0.40400    0.63590    1.000
    H25      H        0.42700    0.46060    0.65300    1.000
    C48      C        0.48400    0.49190    0.52910    1.000
    H26      H        0.43710    0.54380    0.54850    1.000
    C49      C        0.17330    0.04620    0.88170    1.000
    C50      C        0.31300    0.98130    0.73150    1.000
    H27      H        0.31770    0.94010    0.69490    1.000
    C51      C        0.44530    0.17530    0.82520    1.000
    C52      C        0.56950    0.31830    0.54960    1.000
    H28      H        0.59510    0.31530    0.50610    1.000
    C53      C        0.48720    0.32050    0.67550    1.000
    H29      H        0.45840    0.32100    0.71850    1.000
    C54      C        0.59430    0.24030    0.58920    1.000
    H30      H        0.64380    0.18710    0.57350    1.000
    C55      C        0.25100    0.04210    0.82080    1.000
    Zn6      Zn       0.93529    0.38973    0.70617    1.000
    O21      O        0.95010    0.30960    0.79740    1.000
    O22      O        0.30410    0.39700    0.92740    1.000
    N16      N        0.10350    0.44540    0.74370    1.000
    O23      O        0.42390    0.51810    0.87870    1.000
    O24      O        0.08410    0.27860    0.87820    1.000
    N17      N        0.27980    0.52780    0.77720    1.000
    C56      C        0.14010    0.40510    0.79960    1.000
    N18      N        0.95020    0.26320    0.65070    1.000
    C57      C        0.99350    0.09650    0.57240    1.000
    C58      C        0.03270    0.09600    0.63590    1.000
    H31      H        0.07300    0.03940    0.65300    1.000
    C59      C        0.01600    0.00810    0.52910    1.000
    H32      H        0.06290    0.95620    0.54850    1.000
    C60      C        0.32670    0.45380    0.88170    1.000
    C61      C        0.18700    0.51870    0.73150    1.000
    H33      H        0.18230    0.55990    0.69490    1.000
    C62      C        0.05470    0.32470    0.82520    1.000
    C63      C        0.93050    0.18170    0.54960    1.000
    H34      H        0.90490    0.18470    0.50610    1.000
    C64      C        0.01280    0.17950    0.67550    1.000
    H35      H        0.04160    0.17900    0.71850    1.000
    C65      C        0.90570    0.25970    0.58920    1.000
    H36      H        0.85620    0.31290    0.57350    1.000
    C66      C        0.24900    0.45790    0.82080    1.000
    Zn7      Zn       0.43529    0.61027    0.79383    1.000
    O25      O        0.45010    0.69040    0.70260    1.000
    O26      O        0.80410    0.60300    0.57260    1.000
    N19      N        0.60350    0.55460    0.75630    1.000
    O27      O        0.92390    0.48190    0.62130    1.000
    O28      O        0.58410    0.72140    0.62180    1.000
    N20      N        0.77980    0.47220    0.72280    1.000
    C67      C        0.64010    0.59490    0.70040    1.000
    N21      N        0.45020    0.73680    0.84930    1.000
    C68      C        0.49350    0.90350    0.92760    1.000
    C69      C        0.53270    0.90400    0.86410    1.000
    H37      H        0.57300    0.96060    0.84700    1.000
    C70      C        0.51600    0.99190    0.97090    1.000
    H38      H        0.56290    0.04380    0.95150    1.000
    C71      C        0.82670    0.54620    0.61830    1.000
    C72      C        0.68700    0.48130    0.76850    1.000
    H39      H        0.68230    0.44010    0.80510    1.000
    C73      C        0.55470    0.67530    0.67480    1.000
    C74      C        0.43050    0.81830    0.95040    1.000
    H40      H        0.40490    0.81530    0.99390    1.000
    C75      C        0.51280    0.82050    0.82450    1.000
    H41      H        0.54160    0.82100    0.78150    1.000
    C76      C        0.40570    0.74030    0.91080    1.000
    H42      H        0.35620    0.68710    0.92650    1.000
    C77      C        0.74900    0.54210    0.67920    1.000
    Zn8      Zn       0.06471    0.88973    0.79383    1.000
    O29      O        0.04990    0.80960    0.70260    1.000
    O30      O        0.69590    0.89700    0.57260    1.000
    N22      N        0.89650    0.94540    0.75630    1.000
    O31      O        0.57610    0.01810    0.62130    1.000
    O32      O        0.91590    0.77860    0.62180    1.000
    N23      N        0.72020    0.02780    0.72280    1.000
    C78      C        0.85990    0.90510    0.70040    1.000
    N24      N        0.04980    0.76320    0.84930    1.000
    C79      C        0.00650    0.59650    0.92760    1.000
    C80      C        0.96730    0.59600    0.86410    1.000
    H43      H        0.92700    0.53940    0.84700    1.000
    C81      C        0.98400    0.50810    0.97090    1.000
    H44      H        0.93710    0.45620    0.95150    1.000
    C82      C        0.67330    0.95380    0.61830    1.000
    C83      C        0.81300    0.01870    0.76850    1.000
    H45      H        0.81770    0.05990    0.80510    1.000
    C84      C        0.94530    0.82470    0.67480    1.000
    C85      C        0.06950    0.68170    0.95040    1.000
    H46      H        0.09510    0.68470    0.99390    1.000
    C86      C        0.98720    0.67950    0.82450    1.000
    H47      H        0.95840    0.67900    0.78150    1.000
    C87      C        0.09430    0.75970    0.91080    1.000
    H48      H        0.14380    0.81290    0.92650    1.000
    C88      C        0.75100    0.95790    0.67920    1.000
    Zn9      Zn       0.75000    0.75000    0.07500    1.000
    Zn10     Zn       0.25000    0.25000    0.42500    1.000
    Zn11     Zn       0.25000    0.25000    0.92500    1.000
    Zn12     Zn       0.75000    0.75000    0.57500    1.000
