# CIF file generated by openbabel 3.1.0, see https://openbabel.org
data_I
_chemical_name_common 'QAWREM_clean'
_cell_length_a 10.5255
_cell_length_b 11.3271
_cell_length_c 14.3881
_cell_angle_alpha 111.366
_cell_angle_beta 107.857
_cell_angle_gamma 91.374
_space_group_name_H-M_alt 'P 1'
_space_group_name_Hall 'P 1'
loop_
    _symmetry_equiv_pos_as_xyz
    x,y,z
loop_
    _atom_site_label
    _atom_site_type_symbol
    _atom_site_fract_x
    _atom_site_fract_y
    _atom_site_fract_z
    _atom_site_occupancy
    Eu1      Eu       0.78409    0.13255    0.89416    1.000
    Eu2      Eu       0.69361    0.98229    0.58120    1.000
    Eu3      Eu       0.21591    0.86745    0.10584    1.000
    Eu4      Eu       0.30639    0.01771    0.41880    1.000
    H1       H        0.86920    0.60690    0.98950    1.000
    H2       H        0.84260    0.46410    0.93980    1.000
    H3       H        0.25400    0.85100    0.51300    1.000
    H4       H        0.10420    0.88300    0.49900    1.000
    H5       H        0.42130    0.43830    0.08890    1.000
    H6       H        0.49320    0.35960    0.01920    1.000
    H7       H        0.63120    0.38190    0.58330    1.000
    H8       H        0.82660    0.73420    0.89420    1.000
    H9       H        0.45110    0.14630    0.85440    1.000
    H10      H        0.26700    0.18290    0.91090    1.000
    H11      H        0.02330    0.96850    0.61460    1.000
    H12      H        0.94490    0.53050    0.20820    1.000
    H13      H        0.53440    0.61620    0.24570    1.000
    H14      H        0.13080    0.39310    0.01050    1.000
    H15      H        0.15740    0.53590    0.06020    1.000
    H16      H        0.74600    0.14900    0.48700    1.000
    H17      H        0.89580    0.11700    0.50100    1.000
    H18      H        0.57870    0.56170    0.91110    1.000
    H19      H        0.50680    0.64040    0.98080    1.000
    H20      H        0.36880    0.61810    0.41670    1.000
    H21      H        0.17340    0.26580    0.10580    1.000
    H22      H        0.54890    0.85370    0.14560    1.000
    H23      H        0.73300    0.81710    0.08910    1.000
    H24      H        0.97670    0.03150    0.38540    1.000
    H25      H        0.05510    0.46950    0.79180    1.000
    H26      H        0.46560    0.38380    0.75430    1.000
    C1       C        0.74110    0.30010    0.73340    1.000
    C2       C        0.73450    0.43320    0.73840    1.000
    C3       C        0.67240    0.45290    0.64610    1.000
    C4       C        0.66920    0.57420    0.64390    1.000
    C5       C        0.73140    0.68120    0.73910    1.000
    C6       C        0.78760    0.66280    0.83130    1.000
    C7       C        0.78870    0.54140    0.83460    1.000
    C8       C        0.73820    0.81420    0.73920    1.000
    C9       C        0.47170    0.01850    0.66900    1.000
    C10      C        0.35080    0.03500    0.70210    1.000
    C11      C        0.36490    0.10980    0.80600    1.000
    C12      C        0.25520    0.13240    0.84050    1.000
    C13      C        0.12710    0.07720    0.76700    1.000
    C14      C        0.11010    0.00300    0.66290    1.000
    C15      C        0.21990    0.97870    0.62860    1.000
    C16      C        0.00470    0.09590    0.80010    1.000
    C17      C        0.72580    0.77080    0.41720    1.000
    C18      C        0.73420    0.66840    0.31840    1.000
    C19      C        0.86040    0.64610    0.30870    1.000
    C20      C        0.86220    0.54700    0.21680    1.000
    C21      C        0.74450    0.47210    0.13750    1.000
    C22      C        0.61860    0.49780    0.14840    1.000
    C23      C        0.61710    0.59690    0.23850    1.000
    C24      C        0.75650    0.36050    0.04700    1.000
    C25      C        0.25890    0.69990    0.26660    1.000
    C26      C        0.26550    0.56680    0.26160    1.000
    C27      C        0.32760    0.54710    0.35390    1.000
    C28      C        0.33080    0.42580    0.35610    1.000
    C29      C        0.26860    0.31880    0.26090    1.000
    C30      C        0.21240    0.33720    0.16870    1.000
    C31      C        0.21130    0.45860    0.16540    1.000
    C32      C        0.26180    0.18580    0.26080    1.000
    C33      C        0.52830    0.98150    0.33100    1.000
    C34      C        0.64920    0.96500    0.29790    1.000
    C35      C        0.63510    0.89020    0.19400    1.000
    C36      C        0.74480    0.86760    0.15950    1.000
    C37      C        0.87290    0.92280    0.23300    1.000
    C38      C        0.88990    0.99700    0.33710    1.000
    C39      C        0.78010    0.02130    0.37140    1.000
    C40      C        0.99530    0.90410    0.19990    1.000
    C41      C        0.27420    0.22920    0.58280    1.000
    C42      C        0.26580    0.33160    0.68160    1.000
    C43      C        0.13960    0.35390    0.69130    1.000
    C44      C        0.13780    0.45300    0.78320    1.000
    C45      C        0.25550    0.52790    0.86250    1.000
    C46      C        0.38140    0.50220    0.85160    1.000
    C47      C        0.38290    0.40310    0.76150    1.000
    C48      C        0.24350    0.63950    0.95300    1.000
    N1       N        0.84000    0.53690    0.93380    1.000
    N2       N        0.19460    0.90860    0.51850    1.000
    N3       N        0.49500    0.42210    0.07620    1.000
    N4       N        0.16000    0.46310    0.06620    1.000
    N5       N        0.80540    0.09140    0.48150    1.000
    N6       N        0.50500    0.57790    0.92380    1.000
    O1       O        0.78220    0.28490    0.81940    1.000
    O2       O        0.70680    0.21010    0.64390    1.000
    O3       O        0.69200    0.82490    0.65180    1.000
    O4       O        0.79350    0.90690    0.82840    1.000
    O5       O        0.58820    0.05590    0.73700    1.000
    O6       O        0.45810    0.96730    0.57090    1.000
    O7       O        0.88880    0.05640    0.72980    1.000
    O8       O        0.01840    0.14600    0.89740    1.000
    O9       O        0.60970    0.79130    0.42170    1.000
    O10      O        0.83040    0.83750    0.49210    1.000
    O11      O        0.87240    0.33470    0.04630    1.000
    O12      O        0.65260    0.29250    0.97350    1.000
    O13      O        0.21780    0.71510    0.18060    1.000
    O14      O        0.29320    0.78990    0.35610    1.000
    O15      O        0.30800    0.17510    0.34820    1.000
    O16      O        0.20650    0.09310    0.17160    1.000
    O17      O        0.41180    0.94410    0.26300    1.000
    O18      O        0.54190    0.03270    0.42910    1.000
    O19      O        0.11120    0.94360    0.27020    1.000
    O20      O        0.98160    0.85400    0.10260    1.000
    O21      O        0.39030    0.20870    0.57830    1.000
    O22      O        0.16960    0.16250    0.50790    1.000
    O23      O        0.12760    0.66530    0.95370    1.000
    O24      O        0.34740    0.70750    0.02650    1.000
