data_functionalizedCrystal
_audit_creation_method	'EQeq! by Chris Wilmer'
_symmetry_space_group_name_H-M	'P1'
_symmetry_Int_Tables_number	1
_symmetry_cell_setting	triclinic
loop_
_symmetry_equiv_pos_as_xyz
  x,y,z
_cell_length_a	11.4801
_cell_length_b	21.0566
_cell_length_c	14.7227
_cell_angle_alpha	90
_cell_angle_beta	110.471
_cell_angle_gamma	90
loop_
_atom_site_label
_atom_site_type_symbol
_atom_site_fract_x
_atom_site_fract_y
_atom_site_fract_z
_atom_site_charge
Mof_U 	U 	0.10649	0.4712	0.87469	0.029
Mof_U 	U 	0.39099	0.24548	0.95595	0.035
Mof_S 	S 	0.15639	0.17825	0.0557	0.449
Mof_S 	S 	0.61308	0.32739	0.67792	0.452
Mof_O 	O 	0.0742	0.4233	0.0082	-0.15
Mof_O 	O 	0.8863	0.4425	0.0182	-0.152
Mof_O 	O 	0.5939	0.2576	0.9604	-0.157
Mof_O 	O 	0.657	0.165	0.9189	-0.175
Mof_O 	O 	0.2559	0.2168	0.0437	-0.169
Mof_O 	O 	0.1227	0.1248	0.9912	-0.185
Mof_O 	O 	0.1856	0.1609	0.1569	-0.173
Mof_O 	O 	0.104	0.3602	0.8396	-0.165
Mof_O 	O 	0.1877	0.2642	0.8498	-0.162
Mof_O 	O 	0.9269	0.0734	0.7119	-0.156
Mof_O 	O 	0.7219	0.087	0.658	-0.158
Mof_O 	O 	0.5137	0.2872	0.6152	-0.166
Mof_O 	O 	0.5908	0.3419	0.7668	-0.179
Mof_O 	O 	0.6345	0.3831	0.6295	-0.176
Mof_C 	C 	0.9696	0.4054	0.0121	0.265
Mof_C 	C 	0.6763	0.2193	0.9473	0.273
Mof_C 	C 	0.9458	0.3361	0.0076	-0.021
Mof_C 	C 	0.8265	0.3117	0.9846	-0.026
Mof_H 	H 	0.7594	0.3392	0.9729	0.096
Mof_C 	C 	0.8065	0.2461	0.9787	-0.023
Mof_C 	C 	0.9064	0.2049	0.9977	-0.016
Mof_H 	H 	0.8933	0.1612	0.9924	0.085
Mof_C 	C 	0.0275	0.2296	0.0251	-0.037
Mof_C 	C 	0.0465	0.2949	0.0286	-0.016
Mof_H 	H 	0.1267	0.311	0.045	0.094
Mof_C 	C 	0.0964	0.3017	0.825	0.275
Mof_C 	C 	0.8298	0.1081	0.6964	0.265
Mof_C 	C 	0.9701	0.2719	0.7777	-0.024
Mof_C 	C 	0.9614	0.2061	0.7601	-0.026
Mof_H 	H 	0.0331	0.1815	0.7761	0.093
Mof_C 	C 	0.8471	0.1784	0.7193	-0.018
Mof_C 	C 	0.7397	0.2156	0.6941	-0.016
Mof_H 	H 	0.6622	0.1965	0.6667	0.096
Mof_C 	C 	0.7475	0.2806	0.7093	-0.037
Mof_C 	C 	0.865	0.3094	0.7514	-0.015
Mof_H 	H 	0.8715	0.353	0.7614	0.084
Mof_U 	U 	0.89351	0.9712	0.62531	0.03
Mof_U 	U 	0.60901	0.74548	0.54405	0.035
Mof_S 	S 	0.84361	0.67825	0.4443	0.451
Mof_S 	S 	0.38692	0.82739	0.82208	0.453
Mof_O 	O 	0.9258	0.9233	0.4918	-0.148
Mof_O 	O 	0.1137	0.9425	0.4818	-0.151
Mof_O 	O 	0.4061	0.7576	0.5396	-0.156
Mof_O 	O 	0.343	0.665	0.5811	-0.174
Mof_O 	O 	0.7441	0.7168	0.4563	-0.168
Mof_O 	O 	0.8773	0.6248	0.5088	-0.185
Mof_O 	O 	0.8144	0.6609	0.3431	-0.172
Mof_O 	O 	0.896	0.8602	0.6604	-0.164
Mof_O 	O 	0.8123	0.7642	0.6502	-0.163
Mof_O 	O 	0.0731	0.5734	0.7881	-0.156
Mof_O 	O 	0.2781	0.587	0.842	-0.158
Mof_O 	O 	0.4863	0.7872	0.8848	-0.166
Mof_O 	O 	0.4092	0.8419	0.7332	-0.179
Mof_O 	O 	0.3655	0.8831	0.8705	-0.177
Mof_C 	C 	0.0304	0.9054	0.4879	0.264
Mof_C 	C 	0.3237	0.7193	0.5527	0.273
Mof_C 	C 	0.0542	0.8361	0.4924	-0.022
Mof_C 	C 	0.1735	0.8117	0.5154	-0.026
Mof_H 	H 	0.2406	0.8392	0.5271	0.096
Mof_C 	C 	0.1935	0.7461	0.5213	-0.023
Mof_C 	C 	0.0936	0.7049	0.5023	-0.016
Mof_H 	H 	0.1067	0.6612	0.5076	0.085
Mof_C 	C 	0.9725	0.7296	0.4749	-0.037
Mof_C 	C 	0.9535	0.7949	0.4714	-0.015
Mof_H 	H 	0.8733	0.811	0.455	0.094
Mof_C 	C 	0.9036	0.8017	0.675	0.275
Mof_C 	C 	0.1702	0.6081	0.8036	0.265
Mof_C 	C 	0.0299	0.7719	0.7223	-0.025
Mof_C 	C 	0.0386	0.7061	0.7399	-0.024
Mof_H 	H 	0.9669	0.6815	0.7239	0.093
Mof_C 	C 	0.1529	0.6784	0.7807	-0.019
Mof_C 	C 	0.2603	0.7156	0.8059	-0.016
Mof_H 	H 	0.3378	0.6965	0.8333	0.096
Mof_C 	C 	0.2525	0.7806	0.7907	-0.038
Mof_C 	C 	0.135	0.8094	0.7486	-0.015
Mof_H 	H 	0.1285	0.853	0.7386	0.084
Mof_U 	U 	0.89351	0.5288	0.12531	0.03
Mof_U 	U 	0.60901	0.75452	0.04405	0.036
Mof_S 	S 	0.84361	0.82175	0.9443	0.45
Mof_S 	S 	0.38692	0.67261	0.32208	0.453
Mof_O 	O 	0.9258	0.5767	0.9918	-0.149
Mof_O 	O 	0.1137	0.5575	0.9818	-0.151
Mof_O 	O 	0.4061	0.7424	0.0396	-0.156
Mof_O 	O 	0.343	0.835	0.0811	-0.174
Mof_O 	O 	0.7441	0.7832	0.9563	-0.168
Mof_O 	O 	0.8773	0.8752	0.0088	-0.184
Mof_O 	O 	0.8144	0.8391	0.8431	-0.172
Mof_O 	O 	0.896	0.6398	0.1604	-0.164
Mof_O 	O 	0.8123	0.7358	0.1502	-0.162
Mof_O 	O 	0.0731	0.9266	0.2881	-0.156
Mof_O 	O 	0.2781	0.913	0.342	-0.158
Mof_O 	O 	0.4863	0.7128	0.3848	-0.166
Mof_O 	O 	0.4092	0.6581	0.2332	-0.179
Mof_O 	O 	0.3655	0.6169	0.3705	-0.176
Mof_C 	C 	0.0304	0.5946	0.9879	0.265
Mof_C 	C 	0.3237	0.7807	0.0527	0.273
Mof_C 	C 	0.0542	0.6639	0.9924	-0.021
Mof_C 	C 	0.1735	0.6883	0.0154	-0.026
Mof_H 	H 	0.2406	0.6608	0.0271	0.096
Mof_C 	C 	0.1935	0.7539	0.0213	-0.023
Mof_C 	C 	0.0936	0.7951	0.0023	-0.016
Mof_H 	H 	0.1067	0.8388	0.0076	0.085
Mof_C 	C 	0.9725	0.7704	0.9749	-0.037
Mof_C 	C 	0.9535	0.7051	0.9714	-0.016
Mof_H 	H 	0.8733	0.689	0.955	0.094
Mof_C 	C 	0.9036	0.6983	0.175	0.275
Mof_C 	C 	0.1702	0.8919	0.3036	0.265
Mof_C 	C 	0.0299	0.7281	0.2223	-0.024
Mof_C 	C 	0.0386	0.7939	0.2399	-0.026
Mof_H 	H 	0.9669	0.8185	0.2239	0.093
Mof_C 	C 	0.1529	0.8216	0.2807	-0.018
Mof_C 	C 	0.2603	0.7844	0.3059	-0.016
Mof_H 	H 	0.3378	0.8035	0.3333	0.096
Mof_C 	C 	0.2525	0.7194	0.2907	-0.037
Mof_C 	C 	0.135	0.6906	0.2486	-0.015
Mof_H 	H 	0.1285	0.647	0.2386	0.084
Mof_U 	U 	0.10649	0.0288	0.37469	0.03
Mof_U 	U 	0.39099	0.25452	0.45595	0.035
Mof_S 	S 	0.15639	0.32175	0.5557	0.451
Mof_S 	S 	0.61308	0.17261	0.17792	0.453
Mof_O 	O 	0.0742	0.0767	0.5082	-0.148
Mof_O 	O 	0.8863	0.0575	0.5182	-0.151
Mof_O 	O 	0.5939	0.2424	0.4604	-0.156
Mof_O 	O 	0.657	0.335	0.4189	-0.174
Mof_O 	O 	0.2559	0.2832	0.5437	-0.168
Mof_O 	O 	0.1227	0.3752	0.4912	-0.185
Mof_O 	O 	0.1856	0.3391	0.6569	-0.172
Mof_O 	O 	0.104	0.1398	0.3396	-0.164
Mof_O 	O 	0.1877	0.2358	0.3498	-0.163
Mof_O 	O 	0.9269	0.4266	0.2119	-0.156
Mof_O 	O 	0.7219	0.413	0.158	-0.158
Mof_O 	O 	0.5137	0.2128	0.1152	-0.166
Mof_O 	O 	0.5908	0.1581	0.2668	-0.179
Mof_O 	O 	0.6345	0.1169	0.1295	-0.177
Mof_C 	C 	0.9696	0.0946	0.5121	0.264
Mof_C 	C 	0.6763	0.2807	0.4473	0.273
Mof_C 	C 	0.9458	0.1639	0.5076	-0.022
Mof_C 	C 	0.8265	0.1883	0.4846	-0.026
Mof_H 	H 	0.7594	0.1608	0.4729	0.096
Mof_C 	C 	0.8065	0.2539	0.4787	-0.023
Mof_C 	C 	0.9064	0.2951	0.4977	-0.016
Mof_H 	H 	0.8933	0.3388	0.4924	0.085
Mof_C 	C 	0.0275	0.2704	0.5251	-0.037
Mof_C 	C 	0.0465	0.2051	0.5286	-0.015
Mof_H 	H 	0.1267	0.189	0.545	0.094
Mof_C 	C 	0.0964	0.1983	0.325	0.275
Mof_C 	C 	0.8298	0.3919	0.1964	0.265
Mof_C 	C 	0.9701	0.2281	0.2777	-0.025
Mof_C 	C 	0.9614	0.2939	0.2601	-0.024
Mof_H 	H 	0.0331	0.3185	0.2761	0.093
Mof_C 	C 	0.8471	0.3216	0.2193	-0.019
Mof_C 	C 	0.7397	0.2844	0.1941	-0.016
Mof_H 	H 	0.6622	0.3035	0.1667	0.096
Mof_C 	C 	0.7475	0.2194	0.2093	-0.038
Mof_C 	C 	0.865	0.1906	0.2514	-0.015
Mof_H 	H 	0.8715	0.147	0.2614	0.084
_end
