data_functionalizedCrystal
_audit_creation_method	'EQeq! by Chris Wilmer'
_symmetry_space_group_name_H-M	'P1'
_symmetry_Int_Tables_number	1
_symmetry_cell_setting	triclinic
loop_
_symmetry_equiv_pos_as_xyz
  x,y,z
_cell_length_a	23.1442
_cell_length_b	23.1442
_cell_length_c	7.2233
_cell_angle_alpha	90
_cell_angle_beta	90
_cell_angle_gamma	120
loop_
_atom_site_label
_atom_site_type_symbol
_atom_site_fract_x
_atom_site_fract_y
_atom_site_fract_z
_atom_site_charge
Mof_Mg	Mg	0.2847	0.1193	0.9263	1.466
Mof_Mg	Mg	0.28	0.3149	0.3367	1.468
Mof_O 	O 	0.2959	0.1845	0.1532	-0.796
Mof_O 	O 	0.3207	0.2257	0.8732	-0.676
Mof_O 	O 	0.3189	0.2873	0.1151	-0.745
Mof_O 	O 	0.266	0.2374	0.5035	-0.79
Mof_O 	O 	0.1885	0.2766	0.1732	-0.527
Mof_C 	C 	0.3046	0.2308	0.0423	0.576
Mof_Mg	Mg	0.95137	0.45263	0.25963	1.461
Mof_Mg	Mg	0.94667	0.64823	0.67003	1.473
Mof_O 	O 	0.96257	0.51783	0.48653	-0.77
Mof_O 	O 	0.98737	0.55903	0.20653	-0.705
Mof_O 	O 	0.98557	0.62063	0.44843	-0.691
Mof_O 	O 	0.93267	0.57073	0.83683	-0.739
Mof_O 	O 	0.85517	0.60993	0.50653	-0.503
Mof_C 	C 	0.97127	0.56413	0.37563	0.64
Mof_Mg	Mg	0.61803	0.78597	0.59297	1.461
Mof_Mg	Mg	0.61333	0.98157	0.00337	1.451
Mof_O 	O 	0.62923	0.85117	0.81987	-0.783
Mof_O 	O 	0.65403	0.89237	0.53987	-0.765
Mof_O 	O 	0.65223	0.95397	0.78177	-0.793
Mof_O 	O 	0.59933	0.90407	0.17017	-0.86
Mof_O 	O 	0.52183	0.94327	0.83987	-0.558
Mof_C 	C 	0.63793	0.89747	0.70897	0.651
Mof_Mg	Mg	0.8807	0.1654	0.9263	1.469
Mof_Mg	Mg	0.6851	0.9651	0.3367	1.457
Mof_O 	O 	0.8155	0.1114	0.1532	-0.778
Mof_O 	O 	0.7743	0.095	0.8732	-0.658
Mof_O 	O 	0.7127	0.0316	0.1151	-0.692
Mof_O 	O 	0.7626	0.0286	0.5035	-0.725
Mof_O 	O 	0.7234	0.9119	0.1732	-0.558
Mof_C 	C 	0.7692	0.0738	0.0423	0.587
Mof_Mg	Mg	0.54737	0.49873	0.25963	1.457
Mof_Mg	Mg	0.35177	0.29843	0.67003	1.469
Mof_O 	O 	0.48217	0.44473	0.48653	-0.807
Mof_O 	O 	0.44097	0.42833	0.20653	-0.762
Mof_O 	O 	0.37937	0.36493	0.44843	-0.746
Mof_O 	O 	0.42927	0.36193	0.83683	-0.771
Mof_O 	O 	0.39007	0.24523	0.50653	-0.504
Mof_C 	C 	0.43587	0.40713	0.37563	0.653
Mof_Mg	Mg	0.21403	0.83207	0.59297	1.46
Mof_Mg	Mg	0.01843	0.63177	0.00337	1.451
Mof_O 	O 	0.14883	0.77807	0.81987	-0.787
Mof_O 	O 	0.10763	0.76167	0.53987	-0.77
Mof_O 	O 	0.04603	0.69827	0.78177	-0.795
Mof_O 	O 	0.09593	0.69527	0.17017	-0.861
Mof_O 	O 	0.05673	0.57857	0.83987	-0.557
Mof_C 	C 	0.10253	0.74047	0.70897	0.65
Mof_Mg	Mg	0.8346	0.7153	0.9263	1.467
Mof_Mg	Mg	0.0349	0.72	0.3367	1.456
Mof_O 	O 	0.8886	0.7041	0.1532	-0.791
Mof_O 	O 	0.905	0.6793	0.8732	-0.662
Mof_O 	O 	0.9684	0.6811	0.1151	-0.694
Mof_O 	O 	0.9714	0.734	0.5035	-0.741
Mof_O 	O 	0.0881	0.8115	0.1732	-0.582
Mof_C 	C 	0.9262	0.6954	0.0423	0.581
Mof_Mg	Mg	0.50127	0.04863	0.25963	1.461
Mof_Mg	Mg	0.70157	0.05333	0.67003	1.473
Mof_O 	O 	0.55527	0.03743	0.48653	-0.77
Mof_O 	O 	0.57167	0.01263	0.20653	-0.705
Mof_O 	O 	0.63507	0.01443	0.44843	-0.691
Mof_O 	O 	0.63807	0.06733	0.83683	-0.74
Mof_O 	O 	0.75477	0.14483	0.50653	-0.503
Mof_C 	C 	0.59287	0.02873	0.37563	0.64
Mof_Mg	Mg	0.16793	0.38197	0.59297	1.461
Mof_Mg	Mg	0.36823	0.38667	0.00337	1.463
Mof_O 	O 	0.22193	0.37077	0.81987	-0.777
Mof_O 	O 	0.23833	0.34597	0.53987	-0.735
Mof_O 	O 	0.30173	0.34777	0.78177	-0.723
Mof_O 	O 	0.30473	0.40067	0.17017	-0.817
Mof_O 	O 	0.42143	0.47817	0.83987	-0.483
Mof_C 	C 	0.25953	0.36207	0.70897	0.644
Mof_Mg	Mg	0.8807	0.7153	0.4263	1.461
Mof_Mg	Mg	0.6851	0.72	0.8367	1.473
Mof_O 	O 	0.8155	0.7041	0.6532	-0.787
Mof_O 	O 	0.7743	0.6793	0.3732	-0.738
Mof_O 	O 	0.7127	0.6811	0.6151	-0.734
Mof_O 	O 	0.7626	0.734	0.0035	-0.826
Mof_O 	O 	0.7234	0.8115	0.6732	-0.495
Mof_C 	C 	0.7692	0.6954	0.5423	0.649
Mof_Mg	Mg	0.54737	0.04863	0.75963	1.465
Mof_Mg	Mg	0.35177	0.05333	0.17003	1.471
Mof_O 	O 	0.48217	0.03743	0.98653	-0.734
Mof_O 	O 	0.44097	0.01263	0.70653	-0.673
Mof_O 	O 	0.37937	0.01443	0.94843	-0.652
Mof_O 	O 	0.42927	0.06733	0.33683	-0.773
Mof_O 	O 	0.39007	0.14483	0.00653	-0.539
Mof_C 	C 	0.43587	0.02873	0.87563	0.631
Mof_Mg	Mg	0.21403	0.38197	0.09297	1.457
Mof_Mg	Mg	0.01843	0.38667	0.50337	1.457
Mof_O 	O 	0.14883	0.37077	0.31987	-0.818
Mof_O 	O 	0.10763	0.34597	0.03987	-0.801
Mof_O 	O 	0.04603	0.34777	0.28177	-0.823
Mof_O 	O 	0.09593	0.40067	0.67017	-0.826
Mof_O 	O 	0.05673	0.47817	0.33987	-0.595
Mof_C 	C 	0.10253	0.36207	0.20897	0.657
Mof_Mg	Mg	0.8346	0.1193	0.4263	1.463
Mof_Mg	Mg	0.0349	0.3149	0.8367	1.461
Mof_O 	O 	0.8886	0.1845	0.6532	-0.77
Mof_O 	O 	0.905	0.2257	0.3732	-0.718
Mof_O 	O 	0.9684	0.2873	0.6151	-0.682
Mof_O 	O 	0.9714	0.2374	0.0035	-0.759
Mof_O 	O 	0.0881	0.2766	0.6732	-0.526
Mof_C 	C 	0.9262	0.2308	0.5423	0.658
Mof_Mg	Mg	0.50127	0.45263	0.75963	1.461
Mof_Mg	Mg	0.70157	0.64823	0.17003	1.467
Mof_O 	O 	0.55527	0.51783	0.98653	-0.769
Mof_O 	O 	0.57167	0.55903	0.70653	-0.73
Mof_O 	O 	0.63507	0.62063	0.94843	-0.706
Mof_O 	O 	0.63807	0.57073	0.33683	-0.806
Mof_O 	O 	0.75477	0.60993	0.00653	-0.541
Mof_C 	C 	0.59287	0.56413	0.87563	0.644
Mof_Mg	Mg	0.16793	0.78597	0.09297	1.457
Mof_Mg	Mg	0.36823	0.98157	0.50337	1.457
Mof_O 	O 	0.22193	0.85117	0.31987	-0.823
Mof_O 	O 	0.23833	0.89237	0.03987	-0.807
Mof_O 	O 	0.30173	0.95397	0.28177	-0.826
Mof_O 	O 	0.30473	0.90407	0.67017	-0.826
Mof_O 	O 	0.42143	0.94327	0.33987	-0.595
Mof_C 	C 	0.25953	0.89747	0.20897	0.657
Mof_Mg	Mg	0.2847	0.1654	0.4263	1.461
Mof_Mg	Mg	0.28	0.9651	0.8367	1.461
Mof_O 	O 	0.2959	0.1114	0.6532	-0.783
Mof_O 	O 	0.3207	0.095	0.3732	-0.724
Mof_O 	O 	0.3189	0.0316	0.6151	-0.683
Mof_O 	O 	0.266	0.0286	0.0035	-0.775
Mof_O 	O 	0.1885	0.9119	0.6732	-0.55
Mof_C 	C 	0.3046	0.0738	0.5423	0.653
Mof_Mg	Mg	0.95137	0.49873	0.75963	1.465
Mof_Mg	Mg	0.94667	0.29843	0.17003	1.471
Mof_O 	O 	0.96257	0.44473	0.98653	-0.734
Mof_O 	O 	0.98737	0.42833	0.70653	-0.674
Mof_O 	O 	0.98557	0.36493	0.94843	-0.653
Mof_O 	O 	0.93267	0.36193	0.33683	-0.773
Mof_O 	O 	0.85517	0.24523	0.00653	-0.539
Mof_C 	C 	0.97127	0.40713	0.87563	0.631
Mof_Mg	Mg	0.61803	0.83207	0.09297	1.457
Mof_Mg	Mg	0.61333	0.63177	0.50337	1.469
Mof_O 	O 	0.62923	0.77807	0.31987	-0.811
Mof_O 	O 	0.65403	0.76167	0.03987	-0.771
Mof_O 	O 	0.65223	0.69827	0.28177	-0.753
Mof_O 	O 	0.59933	0.69527	0.67017	-0.783
Mof_O 	O 	0.52183	0.57857	0.33987	-0.52
Mof_C 	C 	0.63793	0.74047	0.20897	0.65
_end
