data_functionalizedCrystal
_audit_creation_method	'EQeq! by Chris Wilmer'
_symmetry_space_group_name_H-M	'P1'
_symmetry_Int_Tables_number	1
_symmetry_cell_setting	triclinic
loop_
_symmetry_equiv_pos_as_xyz
  x,y,z
_cell_length_a	6.4041
_cell_length_b	17.6252
_cell_length_c	7.7271
_cell_angle_alpha	90
_cell_angle_beta	95.586
_cell_angle_gamma	90
loop_
_atom_site_label
_atom_site_type_symbol
_atom_site_fract_x
_atom_site_fract_y
_atom_site_fract_z
_atom_site_charge
Mof_V 	V 	0.4884	0.4333	0.6821	1.717
Mof_V 	V 	0.0161	0.2511	0.8187	1.721
Mof_P 	P 	0.0061	0.4299	0.7553	0.443
Mof_P 	P 	0.503	0.2551	0.7435	0.432
Mof_O 	O 	0.0475	0.3604	0.874	-0.54
Mof_O 	O 	0.4638	0.3244	0.6237	-0.535
Mof_O 	O 	0.7951	0.4264	0.6488	-0.508
Mof_O 	O 	0.7122	0.258	0.8536	-0.508
Mof_O 	O 	0.1711	0.4426	0.6313	-0.487
Mof_O 	O 	0.3262	0.247	0.8635	-0.502
Mof_O 	O 	0.9759	0.7175	0.8787	-0.384
Mof_O 	O 	0.9966	0.6409	0.1017	-0.505
Mof_O 	O 	0.5319	0.9644	0.6177	-0.435
Mof_O 	O 	0.5036	0.0442	0.4045	-0.512
Mof_C 	C 	0.0085	0.5088	0.9018	-0.217
Mof_C 	C 	0.4981	0.1744	0.5995	-0.171
Mof_C 	C 	0.5139	0.0953	0.6875	-0.332
Mof_C 	C 	0.9911	0.5841	0.8095	-0.235
Mof_C 	C 	0.5129	0.0317	0.5648	0.441
Mof_C 	C 	0.9814	0.651	0.9359	0.348
Mof_H 	H 	0.8926	0.5037	0.973	0.081
Mof_H 	H 	0.1377	0.5078	0.9786	0.084
Mof_H 	H 	0.3689	0.1762	0.5229	0.073
Mof_H 	H 	0.6134	0.1794	0.5276	0.069
Mof_H 	H 	0.6421	0.0932	0.7653	0.138
Mof_H 	H 	0.3971	0.0893	0.7573	0.131
Mof_H 	H 	0.8658	0.5842	0.7282	0.103
Mof_H 	H 	0.1111	0.5906	0.7434	0.102
Mof_V 	V 	0.5116	0.9333	0.3179	1.71
Mof_V 	V 	0.9839	0.7511	0.1813	1.719
Mof_P 	P 	0.9939	0.9299	0.2447	0.421
Mof_P 	P 	0.497	0.7551	0.2565	0.433
Mof_O 	O 	0.9525	0.8604	0.126	-0.542
Mof_O 	O 	0.5362	0.8244	0.3763	-0.536
Mof_O 	O 	0.2049	0.9264	0.3512	-0.512
Mof_O 	O 	0.2878	0.758	0.1464	-0.508
Mof_O 	O 	0.8289	0.9426	0.3687	-0.496
Mof_O 	O 	0.6738	0.747	0.1365	-0.504
Mof_O 	O 	0.0241	0.2175	0.1213	-0.384
Mof_O 	O 	0.0034	0.1409	0.8983	-0.504
Mof_O 	O 	0.4681	0.4644	0.3823	-0.403
Mof_O 	O 	0.4964	0.5442	0.5955	-0.512
Mof_C 	C 	0.9915	0.0088	0.0982	-0.188
Mof_C 	C 	0.5019	0.6744	0.4005	-0.183
Mof_C 	C 	0.4861	0.5953	0.3125	-0.304
Mof_C 	C 	0.0089	0.0841	0.1905	-0.249
Mof_C 	C 	0.4871	0.5317	0.4352	0.398
Mof_C 	C 	0.0186	0.151	0.0641	0.352
Mof_H 	H 	0.1074	0.0037	0.027	0.081
Mof_H 	H 	0.8623	0.0078	0.0214	0.083
Mof_H 	H 	0.6311	0.6762	0.4771	0.076
Mof_H 	H 	0.3866	0.6794	0.4724	0.072
Mof_H 	H 	0.3579	0.5932	0.2347	0.127
Mof_H 	H 	0.6029	0.5893	0.2427	0.12
Mof_H 	H 	0.1342	0.0842	0.2718	0.111
Mof_H 	H 	0.8889	0.0906	0.2566	0.11
_end
