data_functionalizedCrystal
_audit_creation_method	'EQeq! by Chris Wilmer'
_symmetry_space_group_name_H-M	'P1'
_symmetry_Int_Tables_number	1
_symmetry_cell_setting	triclinic
loop_
_symmetry_equiv_pos_as_xyz
  x,y,z
_cell_length_a	31.4955
_cell_length_b	31.4955
_cell_length_c	31.6234
_cell_angle_alpha	119.866
_cell_angle_beta	119.866
_cell_angle_gamma	90
loop_
_atom_site_label
_atom_site_type_symbol
_atom_site_fract_x
_atom_site_fract_y
_atom_site_fract_z
_atom_site_charge
Mof_Cu	Cu	0.76962	0.73228	0.25142	0.931
Mof_Cu	Cu	0.51819	0.48086	0.74857	0.932
Mof_Cu	Cu	0.48181	0.51914	0.25143	0.931
Mof_Cu	Cu	0.45333	0.16584	1e-05	0.881
Mof_Cu	Cu	0.80968	0.47576	0.33486	0.931
Mof_Cu	Cu	0.83416	0.45333	-0	0.882
Mof_Cu	Cu	0.73228	0.48181	0.25142	0.932
Mof_Cu	Cu	0.8591	0.80968	0.33486	0.931
Mof_Cu	Cu	0.75072	0.46456	-0	0.886
Mof_Cu	Cu	0.1409	0.19032	0.66514	0.932
Mof_Cu	Cu	0.52518	0.8591	0.33486	0.932
Mof_Cu	Cu	0.47576	0.52518	0.33486	0.932
Mof_Cu	Cu	0.46456	0.24928	-0	0.885
Mof_Cu	Cu	0.53544	0.75072	-0	0.884
Mof_Cu	Cu	0.23038	0.26772	0.74858	0.933
Mof_Cu	Cu	0.51914	0.76962	0.25143	0.932
Mof_Cu	Cu	0.24928	0.53544	-0	0.886
Mof_Cu	Cu	0.16584	0.54667	-0	0.882
Mof_Cu	Cu	0.47482	0.1409	0.66514	0.932
Mof_Cu	Cu	0.52424	0.47482	0.66514	0.932
Mof_Cu	Cu	0.54667	0.83416	0.99999	0.928
Mof_Cu	Cu	0.26772	0.51819	0.74858	0.933
Mof_Cu	Cu	0.19032	0.52424	0.66514	0.932
Mof_Cu	Cu	0.48086	0.23038	0.74857	0.933
Mof_H 	H 	0.9262	0.8992	0.4108	0.246
Mof_H 	H 	0.2145	0.7463	0.7266	0.059
Mof_H 	H 	0.2745	0.8969	0.7844	0.161
Mof_H 	H 	0.6913	0.7865	0.141	0.068
Mof_H 	H 	0.9307	0.6146	0.1238	0.086
Mof_H 	H 	0.4639	0.1823	0.5508	0.101
Mof_H 	H 	0.5646	0.7707	0.856	0.091
Mof_H 	H 	0.3302	0.5196	0.1444	0.075
Mof_H 	H 	0.6248	0.3302	0.1444	0.075
Mof_H 	H 	0.4623	0.2076	0.214	0.049
Mof_H 	H 	0.4901	0.1125	0.2156	0.157
Mof_H 	H 	0.6894	0.5002	0.7496	0.094
Mof_H 	H 	0.0738	0.1008	0.5892	0.248
Mof_H 	H 	0.6916	0.9345	0.4488	0.093
Mof_H 	H 	0.7255	0.1031	0.2156	0.157
Mof_H 	H 	0.9147	0.4354	0.144	0.08
Mof_H 	H 	0.3087	0.2135	0.859	0.08
Mof_H 	H 	0.4908	0.0693	0.8762	0.101
Mof_H 	H 	0.5116	0.9262	0.4108	0.247
Mof_H 	H 	0.2058	0.4684	0.4566	0.055
Mof_H 	H 	0.3221	0.5014	0.8268	0.253
Mof_H 	H 	0.9058	0.4456	0.2706	0.097
Mof_H 	H 	0.1858	0.3752	0.8556	0.085
Mof_H 	H 	0.7492	0.0118	0.5434	0.055
Mof_H 	H 	0.0693	0.3854	0.8762	0.101
Mof_H 	H 	0.9131	0.6315	0.4492	0.1
Mof_H 	H 	0.8177	0.9131	0.4492	0.1
Mof_H 	H 	0.0599	0.445	0.1844	0.135
Mof_H 	H 	0.5161	0.6793	0.317	0.082
Mof_H 	H 	0.4804	0.1858	0.8556	0.085
Mof_H 	H 	0.9401	0.555	0.8156	0.144
Mof_H 	H 	0.7506	0.3106	0.2504	0.09
Mof_H 	H 	0.4846	0.5116	0.4108	0.247
Mof_H 	H 	0.5316	0.7492	0.5434	0.056
Mof_H 	H 	0.9398	0.7506	0.2504	0.089
Mof_H 	H 	0.6315	0.5361	0.4492	0.101
Mof_H 	H 	0.4879	0.0197	0.2734	0.058
Mof_H 	H 	0.6377	0.5161	0.317	0.082
Mof_H 	H 	0.6746	0.6779	0.1732	0.246
Mof_H 	H 	0.7463	0.5121	0.7266	0.059
Mof_H 	H 	0.8142	0.6248	0.1444	0.074
Mof_H 	H 	0.0853	0.5646	0.856	0.093
Mof_H 	H 	0.3648	0.825	0.2706	0.098
Mof_H 	H 	0.5121	0.9803	0.7266	0.06
Mof_H 	H 	0.0197	0.7855	0.2734	0.057
Mof_H 	H 	0.7924	0.2483	0.786	0.052
Mof_H 	H 	0.5092	0.9307	0.1238	0.085
Mof_H 	H 	0.2293	0.7086	0.144	0.081
Mof_H 	H 	0.5047	0.3254	0.8268	0.253
Mof_H 	H 	0.0602	0.2494	0.7496	0.095
Mof_H 	H 	0.7517	0.0064	0.214	0.048
Mof_H 	H 	0.4953	0.6746	0.1732	0.246
Mof_H 	H 	0.0869	0.3685	0.5508	0.101
Mof_H 	H 	0.7855	0.2537	0.2734	0.058
Mof_H 	H 	0.5544	0.6352	0.7294	0.101
Mof_H 	H 	0.2135	0.5503	0.859	0.08
Mof_H 	H 	0.2914	0.0853	0.856	0.093
Mof_H 	H 	0.5143	0.6916	0.4488	0.094
Mof_H 	H 	0.6455	0.3087	0.859	0.08
Mof_H 	H 	0.5099	0.8875	0.7844	0.161
Mof_H 	H 	0.6146	0.1931	0.1238	0.087
Mof_H 	H 	0.1245	0.7394	0.1844	0.134
Mof_H 	H 	0.1125	0.7255	0.2156	0.157
Mof_H 	H 	0.3854	0.8069	0.8762	0.099
Mof_H 	H 	0.2494	0.6894	0.7496	0.094
Mof_H 	H 	0.8992	0.4846	0.4108	0.246
Mof_H 	H 	0.7086	0.9147	0.144	0.079
Mof_H 	H 	0.2508	0.9882	0.4566	0.055
Mof_H 	H 	0.4456	0.3648	0.2706	0.098
Mof_H 	H 	0.3545	0.6913	0.141	0.069
Mof_H 	H 	0.3254	0.3221	0.8268	0.253
Mof_H 	H 	0.4354	0.2293	0.144	0.081
Mof_H 	H 	0.5154	0.4884	0.5892	0.247
Mof_H 	H 	0.4497	0.3545	0.141	0.069
Mof_H 	H 	0.0942	0.5544	0.7294	0.102
Mof_H 	H 	0.7394	0.0599	0.1844	0.134
Mof_H 	H 	0.7942	0.5316	0.5434	0.056
Mof_H 	H 	0.8875	0.2745	0.7844	0.161
Mof_H 	H 	0.7865	0.4497	0.141	0.068
Mof_H 	H 	0.9936	0.5377	0.786	0.053
Mof_H 	H 	0.0118	0.7942	0.5434	0.055
Mof_H 	H 	0.3685	0.4639	0.5508	0.101
Mof_H 	H 	0.6793	0.8009	0.317	0.082
Mof_H 	H 	0.1823	0.0869	0.5508	0.102
Mof_H 	H 	0.5014	0.5047	0.8268	0.253
Mof_H 	H 	0.5503	0.6455	0.859	0.08
Mof_H 	H 	0.4839	0.3207	0.683	0.084
Mof_H 	H 	0.8069	0.4908	0.8762	0.1
Mof_H 	H 	0.1991	0.3623	0.683	0.084
Mof_H 	H 	0.4884	0.0738	0.5892	0.248
Mof_H 	H 	0.5196	0.8142	0.1444	0.074
Mof_H 	H 	0.9345	0.7572	0.4488	0.093
Mof_H 	H 	0.445	0.1245	0.1844	0.134
Mof_H 	H 	0.4998	0.9398	0.2504	0.089
Mof_H 	H 	0.8009	0.6377	0.317	0.082
Mof_H 	H 	0.1008	0.5154	0.5892	0.248
Mof_H 	H 	0.9803	0.2145	0.7266	0.06
Mof_H 	H 	0.4684	0.2508	0.4566	0.055
Mof_H 	H 	0.555	0.8755	0.8156	0.144
Mof_H 	H 	0.2483	0.9936	0.786	0.053
Mof_H 	H 	0.3084	0.0655	0.5512	0.095
Mof_H 	H 	0.3207	0.1991	0.683	0.084
Mof_H 	H 	0.4986	0.4953	0.1732	0.246
Mof_H 	H 	0.3623	0.4839	0.683	0.084
Mof_H 	H 	0.3106	0.4998	0.2504	0.09
Mof_H 	H 	0.0655	0.2428	0.5512	0.095
Mof_H 	H 	0.1031	0.4901	0.2156	0.157
Mof_H 	H 	0.175	0.0942	0.7294	0.102
Mof_H 	H 	0.6352	0.175	0.7294	0.102
Mof_H 	H 	0.2537	0.4879	0.2734	0.058
Mof_H 	H 	0.5002	0.0602	0.7496	0.095
Mof_H 	H 	0.1931	0.5092	0.1238	0.087
Mof_H 	H 	0.8969	0.5099	0.7844	0.161
Mof_H 	H 	0.5377	0.7924	0.786	0.052
Mof_H 	H 	0.3752	0.6698	0.8556	0.085
Mof_H 	H 	0.9882	0.2058	0.4566	0.056
Mof_H 	H 	0.0064	0.4623	0.214	0.049
Mof_H 	H 	0.825	0.9058	0.2706	0.097
Mof_H 	H 	0.4857	0.3084	0.5512	0.094
Mof_H 	H 	0.6698	0.4804	0.8556	0.085
Mof_H 	H 	0.2076	0.7517	0.214	0.049
Mof_H 	H 	0.5361	0.8177	0.4492	0.101
Mof_H 	H 	0.2606	0.9401	0.8156	0.144
Mof_H 	H 	0.7572	0.5143	0.4488	0.094
Mof_H 	H 	0.6779	0.4986	0.1732	0.246
Mof_H 	H 	0.7707	0.2914	0.856	0.092
Mof_H 	H 	0.2428	0.4857	0.5512	0.094
Mof_H 	H 	0.8755	0.2606	0.8156	0.145
Mof_C 	C 	0.70633	0.2292	0.7888	0.128
Mof_C 	C 	0.71135	0.81968	0.15906	-0.014
Mof_C 	C 	0.93055	0.69769	0.45684	0.118
Mof_C 	C 	0.44504	0.34555	0.23642	-0.087
Mof_C 	C 	0.48168	0.30063	0.64786	-0.028
Mof_C 	C 	0.85575	0.20248	0.74088	0.128
Mof_C 	C 	0.4616	0.14425	0.25912	0.122
Mof_C 	C 	0.17875	0.47985	0.24124	0.097
Mof_C 	C 	0.13137	0.38871	0.8723	-0.02
Mof_C 	C 	0.47238	0.22402	0.6519	0.337
Mof_C 	C 	0.52762	0.77598	0.3481	0.337
Mof_C 	C 	0.64004	0.3095	0.15642	-0.019
Mof_C 	C 	0.69769	0.52629	0.45684	0.119
Mof_C 	C 	0.85174	0.20321	0.32368	0.051
Mof_C 	C 	0.48583	0.14797	0.76336	0.328
Mof_C 	C 	0.77008	0.2148	0.76302	-0.014
Mof_C 	C 	0.46855	0.21956	0.45272	-0.019
Mof_C 	C 	0.53512	0.83427	0.64276	-0.054
Mof_C 	C 	0.77452	0.16869	0.72462	0.098
Mof_C 	C 	0.80849	0.53512	0.64276	-0.054
Mof_C 	C 	0.55229	0.66062	0.84094	-0.021
Mof_C 	C 	0.12047	0.85174	0.32368	0.051
Mof_C 	C 	0.16573	0.89236	0.35724	-0.054
Mof_C 	C 	0.79679	0.52806	0.67632	0.055
Mof_C 	C 	0.09925	0.35108	0.56872	-0.092
Mof_C 	C 	0.76121	0.84152	0.21	-0.037
Mof_C 	C 	0.74339	0.36434	0.91832	0.339
Mof_C 	C 	0.83131	0.0499	0.27538	0.093
Mof_C 	C 	0.24144	0.77768	0.75428	-0.027
Mof_C 	C 	0.50307	0.94213	0.18956	0.106
Mof_C 	C 	0.22548	0.83131	0.27538	0.094
Mof_C 	C 	0.27753	0.61539	0.76336	0.328
Mof_C 	C 	0.83491	0.52902	0.72488	-0.088
Mof_C 	C 	0.75257	0.49693	0.81044	0.118
Mof_C 	C 	0.76131	0.47477	0.92068	0.342
Mof_C 	C 	0.88513	0.5384	0.74088	0.128
Mof_C 	C 	0.23879	0.15848	0.79	-0.025
Mof_C 	C 	0.92184	0.71559	0.2196	-0.089
Mof_C 	C 	0.29776	0.50401	0.2196	-0.089
Mof_C 	C 	0.37345	0.47376	0.62148	-0.023
Mof_C 	C 	0.55496	0.65445	0.76358	-0.092
Mof_C 	C 	0.78242	0.8139	0.23912	0.339
Mof_C 	C 	0.30889	0.15276	0.86536	-0.022
Mof_C 	C 	0.53145	0.78044	0.54728	-0.019
Mof_C 	C 	0.25907	0.51641	0.1277	-0.04
Mof_C 	C 	0.29338	0.08641	0.56884	-0.095
Mof_C 	C 	0.82048	0.57212	0.3481	0.337
Mof_C 	C 	0.89087	0.44504	0.23642	-0.087
Mof_C 	C 	0.29367	0.7708	0.2112	0.117
Mof_C 	C 	0.66062	0.28865	0.84094	-0.022
Mof_C 	C 	0.34555	0.79138	0.23642	-0.087
Mof_C 	C 	0.70662	0.91359	0.43116	-0.094
Mof_C 	C 	0.22232	0.48716	0.24572	-0.031
Mof_C 	C 	0.20248	0.88513	0.74088	0.128
Mof_C 	C 	0.4567	0.42522	0.23912	0.339
Mof_C 	C 	0.88997	0.19586	0.72488	-0.089
Mof_C 	C 	0.18032	0.55229	0.84094	-0.022
Mof_C 	C 	0.85879	0.54433	0.65922	0.053
Mof_C 	C 	0.67677	0.86457	0.37824	-0.02
Mof_C 	C 	0.52523	0.84063	0.07932	0.35
Mof_C 	C 	0.05757	0.76781	0.5908	0.091
Mof_C 	C 	0.27846	0.10356	0.83932	-0.097
Mof_C 	C 	0.65277	0.51832	0.35214	-0.027
Mof_C 	C 	0.81061	0.16241	0.70864	-0.078
Mof_C 	C 	0.00706	0.45178	0.23698	-0.012
Mof_C 	C 	0.1861	0.5433	0.76088	0.337
Mof_C 	C 	0.88511	0.14121	0.34078	0.049
Mof_C 	C 	0.86863	0.61129	0.1277	-0.041
Mof_C 	C 	0.51641	0.86863	0.1277	-0.041
Mof_C 	C 	0.08372	0.36608	0.85654	-0.087
Mof_C 	C 	0.80043	0.11489	0.65922	0.054
Mof_C 	C 	0.84152	0.44879	0.21	-0.036
Mof_C 	C 	0.25661	0.63566	0.08168	0.346
Mof_C 	C 	0.11487	0.4616	0.25912	0.122
Mof_C 	C 	0.0499	0.44407	0.27538	0.093
Mof_C 	C 	0.83427	0.10764	0.64276	-0.053
Mof_C 	C 	0.44407	0.22548	0.27538	0.094
Mof_C 	C 	0.10913	0.55496	0.76358	-0.093
Mof_C 	C 	0.52806	0.87953	0.67632	0.055
Mof_C 	C 	0.50401	0.92184	0.2196	-0.088
Mof_C 	C 	0.30231	0.47371	0.54316	0.119
Mof_C 	C 	0.98417	0.23316	0.45272	-0.025
Mof_C 	C 	0.13543	0.29853	0.62176	-0.019
Mof_C 	C 	0.06945	0.30231	0.54316	0.119
Mof_C 	C 	0.44353	0.2874	0.13464	-0.041
Mof_C 	C 	0.52902	0.88997	0.72488	-0.089
Mof_C 	C 	0.51417	0.85203	0.23664	0.33
Mof_C 	C 	0.28441	0.70224	0.7804	-0.094
Mof_C 	C 	0.16509	0.47098	0.27512	-0.089
Mof_C 	C 	0.76684	0.53145	0.54728	-0.019
Mof_C 	C 	0.71559	0.29776	0.2196	-0.089
Mof_C 	C 	0.17701	0.94243	0.4092	0.092
Mof_C 	C 	0.45178	0.22992	0.23698	-0.017
Mof_C 	C 	0.82125	0.52015	0.75876	0.099
Mof_C 	C 	0.91359	0.72454	0.43116	-0.094
Mof_C 	C 	0.93751	0.23861	0.75876	0.101
Mof_C 	C 	0.08247	0.5596	0.7888	0.129
Mof_C 	C 	0.77282	0.49046	0.85654	-0.087
Mof_C 	C 	0.20862	0.10913	0.76358	-0.093
Mof_C 	C 	0.72247	0.38461	0.23664	0.33
Mof_C 	C 	0.0234	0.75856	0.24572	-0.026
Mof_C 	C 	0.24085	0.06945	0.54316	0.119
Mof_C 	C 	0.48243	0.29338	0.56884	-0.095
Mof_C 	C 	0.11003	0.80414	0.27512	-0.088
Mof_C 	C 	0.51832	0.69937	0.35214	-0.027
Mof_C 	C 	0.99294	0.54822	0.76302	-0.019
Mof_C 	C 	0.9766	0.24144	0.75428	-0.033
Mof_C 	C 	0.47371	0.24085	0.54316	0.119
Mof_C 	C 	0.67098	0.48857	0.79642	-0.018
Mof_C 	C 	0.24743	0.50307	0.18956	0.107
Mof_C 	C 	0.63566	0.82507	0.08168	0.348
Mof_C 	C 	0.64892	0.53053	0.43128	-0.091
Mof_C 	C 	0.57478	0.21758	0.76088	0.337
Mof_C 	C 	0.8139	0.4567	0.23912	0.339
Mof_C 	C 	0.84561	0.72887	0.34804	0.33
Mof_C 	C 	0.16869	0.9501	0.72462	0.099
Mof_C 	C 	0.15276	0.55647	0.86536	-0.022
Mof_C 	C 	0.76781	0.53323	0.5908	0.092
Mof_C 	C 	0.90075	0.64892	0.43128	-0.091
Mof_C 	C 	0.27546	0.48243	0.56884	-0.095
Mof_C 	C 	0.69215	0.32902	0.20358	-0.029
Mof_C 	C 	0.7126	0.30889	0.86536	-0.022
Mof_C 	C 	0.54433	0.80043	0.65922	0.053
Mof_C 	C 	0.49046	0.08372	0.85654	-0.087
Mof_C 	C 	0.68649	0.24743	0.18956	0.107
Mof_C 	C 	0.82507	0.44602	0.08168	0.346
Mof_C 	C 	0.94243	0.23219	0.4092	0.092
Mof_C 	C 	0.47194	0.12047	0.32368	0.052
Mof_C 	C 	0.80414	0.16509	0.27512	-0.089
Mof_C 	C 	0.14425	0.79752	0.25912	0.122
Mof_C 	C 	0.23219	0.46677	0.4092	0.091
Mof_C 	C 	0.55647	0.7126	0.86536	-0.024
Mof_C 	C 	0.46488	0.16573	0.35724	-0.054
Mof_C 	C 	0.69937	0.83382	0.35214	-0.027
Mof_C 	C 	0.3095	0.51638	0.15642	-0.019
Mof_C 	C 	0.24803	0.14772	0.62148	-0.023
Mof_C 	C 	0.6905	0.48362	0.84358	-0.027
Mof_C 	C 	0.10356	0.56086	0.83932	-0.097
Mof_C 	C 	0.57212	0.52762	0.3481	0.337
Mof_C 	C 	0.47985	0.06249	0.24124	0.095
Mof_C 	C 	0.31351	0.75257	0.81044	0.118
Mof_C 	C 	0.19957	0.88511	0.34078	0.049
Mof_C 	C 	0.75197	0.85228	0.37852	-0.024
Mof_C 	C 	0.55593	0.77452	0.72462	0.098
Mof_C 	C 	0.08641	0.27546	0.56884	-0.095
Mof_C 	C 	0.72887	0.50243	0.34804	0.33
Mof_C 	C 	0.77768	0.51284	0.75428	-0.027
Mof_C 	C 	0.22992	0.7852	0.23698	-0.017
Mof_C 	C 	0.63392	0.22718	0.14346	-0.08
Mof_C 	C 	0.15308	0.35996	0.84358	-0.027
Mof_C 	C 	0.70147	0.51367	0.37824	-0.02
Mof_C 	C 	0.5384	0.85575	0.74088	0.128
Mof_C 	C 	0.48633	0.32323	0.62176	-0.019
Mof_C 	C 	0.51284	0.9766	0.75428	-0.033
Mof_C 	C 	0.14826	0.79679	0.67632	0.055
Mof_C 	C 	0.46947	0.21764	0.56872	-0.092
Mof_C 	C 	0.87953	0.14826	0.67632	0.055
Mof_C 	C 	0.50243	0.61917	0.34804	0.33
Mof_C 	C 	0.53053	0.78236	0.43128	-0.091
Mof_C 	C 	0.01583	0.76684	0.54728	-0.014
Mof_C 	C 	0.46677	0.17701	0.4092	0.091
Mof_C 	C 	0.15937	0.44591	0.92068	0.342
Mof_C 	C 	0.10764	0.80849	0.64276	-0.053
Mof_C 	C 	0.61539	0.48583	0.76336	0.328
Mof_C 	C 	0.79138	0.89087	0.23642	-0.087
Mof_C 	C 	0.33938	0.71135	0.15906	-0.014
Mof_C 	C 	0.55398	0.74339	0.91832	0.341
Mof_C 	C 	0.72154	0.89644	0.16068	-0.089
Mof_C 	C 	0.35108	0.46947	0.56872	-0.092
Mof_C 	C 	0.61917	0.84561	0.34804	0.33
Mof_C 	C 	0.79752	0.11487	0.25912	0.122
Mof_C 	C 	0.30785	0.67098	0.79642	-0.018
Mof_C 	C 	0.49599	0.07816	0.7804	-0.094
Mof_C 	C 	0.38871	0.74093	0.8723	-0.022
Mof_C 	C 	0.22402	0.17952	0.6519	0.337
Mof_C 	C 	0.29853	0.48633	0.62176	-0.019
Mof_C 	C 	0.83382	0.65277	0.35214	-0.027
Mof_C 	C 	0.32323	0.13543	0.62176	-0.019
Mof_C 	C 	0.44602	0.25661	0.08168	0.346
Mof_C 	C 	0.47477	0.15937	0.92068	0.342
Mof_C 	C 	0.91753	0.4404	0.2112	0.117
Mof_C 	C 	0.55121	0.63152	0.79	-0.026
Mof_C 	C 	0.07816	0.28441	0.7804	-0.094
Mof_C 	C 	0.9501	0.55593	0.72462	0.099
Mof_C 	C 	0.17493	0.55398	0.91832	0.339
Mof_C 	C 	0.42788	0.47238	0.6519	0.337
Mof_C 	C 	0.75856	0.22232	0.24572	-0.031
Mof_C 	C 	0.54822	0.77008	0.76302	-0.014
Mof_C 	C 	0.14797	0.27753	0.76336	0.328
Mof_C 	C 	0.14121	0.45567	0.34078	0.05
Mof_C 	C 	0.82299	0.05757	0.5908	0.091
Mof_C 	C 	0.21956	0.98417	0.45272	-0.025
Mof_C 	C 	0.50954	0.91628	0.14346	-0.079
Mof_C 	C 	0.70224	0.49599	0.7804	-0.094
Mof_C 	C 	0.12544	0.30785	0.79642	-0.017
Mof_C 	C 	0.49693	0.05787	0.81044	0.119
Mof_C 	C 	0.51143	0.87456	0.20358	-0.03
Mof_C 	C 	0.05787	0.31351	0.81044	0.12
Mof_C 	C 	0.48857	0.12544	0.79642	-0.017
Mof_C 	C 	0.4404	0.29367	0.2112	0.118
Mof_C 	C 	0.49757	0.38083	0.65196	0.329
Mof_C 	C 	0.21758	0.1861	0.76088	0.337
Mof_C 	C 	0.16241	0.89803	0.70864	-0.079
Mof_C 	C 	0.23861	0.82125	0.75876	0.099
Mof_C 	C 	0.65445	0.20862	0.76358	-0.093
Mof_C 	C 	0.84692	0.64004	0.15642	-0.019
Mof_C 	C 	0.42522	0.78242	0.23912	0.339
Mof_C 	C 	0.62655	0.52624	0.37852	-0.024
Mof_C 	C 	0.2292	0.08247	0.7888	0.129
Mof_C 	C 	0.7708	0.91753	0.2112	0.116
Mof_C 	C 	0.76139	0.17875	0.24124	0.096
Mof_C 	C 	0.48716	0.0234	0.24572	-0.026
Mof_C 	C 	0.36434	0.17493	0.91832	0.339
Mof_C 	C 	0.45567	0.19957	0.34078	0.05
Mof_C 	C 	0.54623	0.81061	0.70864	-0.078
Mof_C 	C 	0.26424	0.72154	0.16068	-0.09
Mof_C 	C 	0.36608	0.77282	0.85654	-0.086
Mof_C 	C 	0.84724	0.44353	0.13464	-0.041
Mof_C 	C 	0.48359	0.13137	0.8723	-0.021
Mof_C 	C 	0.34723	0.48168	0.64786	-0.028
Mof_C 	C 	0.15848	0.55121	0.79	-0.025
Mof_C 	C 	0.20321	0.47194	0.32368	0.051
Mof_C 	C 	0.51638	0.84692	0.15642	-0.019
Mof_C 	C 	0.83759	0.10197	0.29136	-0.078
Mof_C 	C 	0.44591	0.76131	0.92068	0.344
Mof_C 	C 	0.77598	0.82048	0.3481	0.337
Mof_C 	C 	0.52015	0.93751	0.75876	0.101
Mof_C 	C 	0.53323	0.82299	0.5908	0.092
Mof_C 	C 	0.48362	0.15308	0.84358	-0.027
Mof_C 	C 	0.94213	0.68649	0.18956	0.106
Mof_C 	C 	0.10197	0.45377	0.29136	-0.078
Mof_C 	C 	0.38083	0.15439	0.65196	0.329
Mof_C 	C 	0.35996	0.6905	0.84358	-0.026
Mof_C 	C 	0.89236	0.19151	0.35724	-0.054
Mof_C 	C 	0.47098	0.11003	0.27512	-0.088
Mof_C 	C 	0.55409	0.23869	0.07932	0.348
Mof_C 	C 	0.84063	0.55409	0.07932	0.348
Mof_C 	C 	0.89803	0.54623	0.70864	-0.079
Mof_C 	C 	0.23316	0.46855	0.45272	-0.019
Mof_C 	C 	0.14772	0.37345	0.62148	-0.023
Mof_C 	C 	0.19586	0.83491	0.72488	-0.088
Mof_C 	C 	0.38461	0.51417	0.23664	0.33
Mof_C 	C 	0.51757	0.70662	0.43116	-0.094
Mof_C 	C 	0.21764	0.09925	0.56872	-0.092
Mof_C 	C 	0.5596	0.70633	0.7888	0.128
Mof_C 	C 	0.27113	0.49757	0.65196	0.329
Mof_C 	C 	0.36848	0.76121	0.21	-0.036
Mof_C 	C 	0.43914	0.26424	0.16068	-0.09
Mof_C 	C 	0.16618	0.34723	0.64786	-0.028
Mof_C 	C 	0.73576	0.27846	0.83932	-0.097
Mof_C 	C 	0.32902	0.51143	0.20358	-0.029
Mof_C 	C 	0.52624	0.75197	0.37852	-0.024
Mof_C 	C 	0.18939	0.83759	0.29136	-0.078
Mof_C 	C 	0.06249	0.76139	0.24124	0.095
Mof_C 	C 	0.2148	0.99294	0.76302	-0.02
Mof_C 	C 	0.69111	0.84724	0.13464	-0.042
Mof_C 	C 	0.22718	0.50954	0.14346	-0.08
Mof_C 	C 	0.47376	0.24803	0.62148	-0.023
Mof_C 	C 	0.52629	0.75915	0.45684	0.119
Mof_C 	C 	0.28865	0.18032	0.84094	-0.022
Mof_C 	C 	0.85203	0.72247	0.23664	0.33
Mof_C 	C 	0.78044	0.01583	0.54728	-0.014
Mof_C 	C 	0.19151	0.46488	0.35724	-0.054
Mof_C 	C 	0.89644	0.43914	0.16068	-0.09
Mof_C 	C 	0.87456	0.69215	0.20358	-0.029
Mof_C 	C 	0.23869	0.52523	0.07932	0.348
Mof_C 	C 	0.75915	0.93055	0.45684	0.118
Mof_C 	C 	0.81968	0.44771	0.15906	-0.014
Mof_C 	C 	0.61129	0.25907	0.1277	-0.04
Mof_C 	C 	0.15439	0.27113	0.65196	0.329
Mof_C 	C 	0.85228	0.62655	0.37852	-0.024
Mof_C 	C 	0.44879	0.36848	0.21	-0.036
Mof_C 	C 	0.2874	0.69111	0.13464	-0.041
Mof_C 	C 	0.78236	0.90075	0.43128	-0.091
Mof_C 	C 	0.63152	0.23879	0.79	-0.025
Mof_C 	C 	0.5433	0.57478	0.76088	0.337
Mof_C 	C 	0.11489	0.85879	0.65922	0.053
Mof_C 	C 	0.56086	0.73576	0.83932	-0.096
Mof_C 	C 	0.74093	0.48359	0.8723	-0.021
Mof_C 	C 	0.45377	0.18939	0.29136	-0.078
Mof_C 	C 	0.7852	0.00706	0.23698	-0.013
Mof_C 	C 	0.17952	0.42788	0.6519	0.337
Mof_C 	C 	0.91628	0.63392	0.14346	-0.08
Mof_C 	C 	0.51367	0.67677	0.37824	-0.02
Mof_C 	C 	0.86457	0.70147	0.37824	-0.02
Mof_C 	C 	0.72454	0.51757	0.43116	-0.094
Mof_C 	C 	0.30063	0.16618	0.64786	-0.028
Mof_C 	C 	0.44771	0.33938	0.15906	-0.015
Mof_N 	N 	0.31431	0.83679	0.83102	-0.037
Mof_N 	N 	0.79876	0.96823	0.23994	-0.098
Mof_N 	N 	0.575	0.70594	0.72136	-0.041
Mof_N 	N 	0.52255	0.94924	0.8065	-0.101
Mof_N 	N 	0.2136	0.49324	0.20376	-0.087
Mof_N 	N 	0.71605	0.14274	0.1935	-0.105
Mof_N 	N 	0.99016	0.71052	0.20376	-0.091
Mof_N 	N 	0.04746	0.7214	0.57992	-0.076
Mof_N 	N 	0.00984	0.28948	0.79624	-0.083
Mof_N 	N 	0.0375	0.429	0.3025	-0.077
Mof_N 	N 	0.30846	0.4716	0.4704	-0.038
Mof_N 	N 	0.00577	0.68569	0.16898	-0.043
Mof_N 	N 	0.72829	0.20124	0.76006	-0.096
Mof_N 	N 	0.9164	0.5261	0.7804	-0.281
Mof_N 	N 	0.69154	0.5284	0.5296	-0.037
Mof_N 	N 	0.20922	0.01851	0.48902	-0.085
Mof_N 	N 	0.68569	0.16321	0.16898	-0.046
Mof_N 	N 	0.01542	0.575	0.72136	-0.039
Mof_N 	N 	0.27171	0.79876	0.23994	-0.096
Mof_N 	N 	0.98149	0.7202	0.51098	-0.092
Mof_N 	N 	0.4739	0.136	0.2196	-0.278
Mof_N 	N 	0.46754	0.14148	0.42008	-0.078
Mof_N 	N 	0.52949	0.79078	0.51098	-0.088
Mof_N 	N 	0.9625	0.571	0.6975	-0.079
Mof_N 	N 	0.28395	0.85726	0.8065	-0.1
Mof_N 	N 	0.429	0.265	0.3025	-0.079
Mof_N 	N 	0.51671	0.99423	0.83102	-0.04
Mof_N 	N 	0.05076	0.71605	0.1935	-0.105
Mof_N 	N 	0.2798	0.47051	0.48902	-0.089
Mof_N 	N 	0.47745	0.05076	0.1935	-0.105
Mof_N 	N 	0.98458	0.425	0.27864	-0.047
Mof_N 	N 	0.29406	0.85364	0.27864	-0.045
Mof_N 	N 	0.571	0.735	0.6975	-0.077
Mof_N 	N 	0.99423	0.31431	0.83102	-0.039
Mof_N 	N 	0.864	0.2543	0.7804	-0.281
Mof_N 	N 	0.49324	0.99016	0.20376	-0.091
Mof_N 	N 	0.83679	0.51671	0.83102	-0.037
Mof_N 	N 	0.7864	0.50676	0.79624	-0.087
Mof_N 	N 	0.2786	0.46754	0.42008	-0.078
Mof_N 	N 	0.70594	0.14636	0.72136	-0.041
Mof_N 	N 	0.14148	0.95254	0.42008	-0.079
Mof_N 	N 	0.55882	0.72829	0.76006	-0.096
Mof_N 	N 	0.7202	0.52949	0.51098	-0.088
Mof_N 	N 	0.7214	0.53246	0.57992	-0.077
Mof_N 	N 	0.79078	0.98149	0.51098	-0.092
Mof_N 	N 	0.83806	0.0012	0.5296	-0.035
Mof_N 	N 	0.5261	0.864	0.7804	-0.281
Mof_N 	N 	0.71052	0.2136	0.20376	-0.087
Mof_N 	N 	0.0012	0.69154	0.5296	-0.035
Mof_N 	N 	0.7457	0.0836	0.2196	-0.278
Mof_N 	N 	0.735	0.1265	0.6975	-0.076
Mof_N 	N 	0.50676	0.00984	0.79624	-0.083
Mof_N 	N 	0.8735	0.0375	0.3025	-0.078
Mof_N 	N 	0.48329	0.00577	0.16898	-0.044
Mof_N 	N 	0.85364	0.98458	0.27864	-0.047
Mof_N 	N 	0.1265	0.9625	0.6975	-0.079
Mof_N 	N 	0.47051	0.20922	0.48902	-0.089
Mof_N 	N 	0.265	0.8735	0.3025	-0.08
Mof_N 	N 	0.94924	0.28395	0.8065	-0.101
Mof_N 	N 	0.14274	0.47745	0.1935	-0.105
Mof_N 	N 	0.16321	0.48329	0.16898	-0.046
Mof_N 	N 	0.2543	0.9164	0.7804	-0.281
Mof_N 	N 	0.136	0.7457	0.2196	-0.278
Mof_N 	N 	0.01851	0.2798	0.48902	-0.085
Mof_N 	N 	0.53246	0.85852	0.57992	-0.078
Mof_N 	N 	0.9988	0.30846	0.4704	-0.041
Mof_N 	N 	0.5284	0.83806	0.5296	-0.037
Mof_N 	N 	0.4716	0.16194	0.4704	-0.038
Mof_N 	N 	0.96823	0.44118	0.23994	-0.098
Mof_N 	N 	0.44118	0.27171	0.23994	-0.096
Mof_N 	N 	0.425	0.29406	0.27864	-0.044
Mof_N 	N 	0.03177	0.55882	0.76006	-0.093
Mof_N 	N 	0.20124	0.03177	0.76006	-0.093
Mof_N 	N 	0.16194	0.9988	0.4704	-0.04
Mof_N 	N 	0.14636	0.01542	0.72136	-0.038
Mof_N 	N 	0.95254	0.2786	0.42008	-0.079
Mof_N 	N 	0.85852	0.04746	0.57992	-0.077
Mof_N 	N 	0.85726	0.52255	0.8065	-0.1
Mof_N 	N 	0.28948	0.7864	0.79624	-0.087
Mof_N 	N 	0.0836	0.4739	0.2196	-0.278
Mof_O 	O 	0.47617	0.2053	0.93848	-0.372
Mof_O 	O 	0.22998	0.53862	0.7858	-0.382
Mof_O 	O 	0.80391	0.46752	0.93882	-0.376
Mof_O 	O 	0.77002	0.46138	0.2142	-0.388
Mof_O 	O 	0.59717	0.48347	0.71642	-0.372
Mof_O 	O 	0.22935	0.50619	0.62944	-0.372
Mof_O 	O 	0.55697	0.7898	0.93758	-0.388
Mof_O 	O 	0.2102	0.61939	0.06242	-0.415
Mof_O 	O 	0.54803	0.71958	0.93808	-0.375
Mof_O 	O 	0.38061	0.14778	0.93758	-0.378
Mof_O 	O 	0.50619	0.40009	0.62944	-0.373
Mof_O 	O 	0.49381	0.59991	0.37056	-0.372
Mof_O 	O 	0.66765	0.48504	0.18426	-0.407
Mof_O 	O 	0.76705	0.40283	0.28358	-0.374
Mof_O 	O 	0.52362	0.74658	0.3004	-0.385
Mof_O 	O 	0.55035	0.17294	0.71362	-0.386
Mof_O 	O 	0.46752	0.13491	0.93882	-0.375
Mof_O 	O 	0.54963	0.53217	0.3727	-0.386
Mof_O 	O 	0.46231	0.73318	0.93848	-0.374
Mof_O 	O 	0.51661	0.69922	0.18426	-0.407
Mof_O 	O 	0.82706	0.83673	0.28638	-0.389
Mof_O 	O 	0.60995	0.7815	0.06192	-0.412
Mof_O 	O 	0.23295	0.59717	0.71642	-0.372
Mof_O 	O 	0.61939	0.85222	0.06242	-0.424
Mof_O 	O 	0.55582	0.24718	0.7858	-0.382
Mof_O 	O 	0.48347	0.11925	0.71642	-0.372
Mof_O 	O 	0.26682	0.52383	0.06152	-0.409
Mof_O 	O 	0.80006	0.70729	0.30202	-0.374
Mof_O 	O 	0.47043	0.53046	0.40182	-0.401
Mof_O 	O 	0.44618	0.47638	0.6996	-0.383
Mof_O 	O 	0.53046	0.93139	0.40182	-0.402
Mof_O 	O 	0.87136	0.47043	0.40182	-0.402
Mof_O 	O 	0.11925	0.23295	0.71642	-0.371
Mof_O 	O 	0.74658	0.77678	0.3004	-0.385
Mof_O 	O 	0.44303	0.2102	0.06242	-0.415
Mof_O 	O 	0.44965	0.82706	0.28638	-0.389
Mof_O 	O 	0.25342	0.22322	0.6996	-0.383
Mof_O 	O 	0.48339	0.30078	0.81574	-0.397
Mof_O 	O 	0.59096	0.48507	0.7846	-0.372
Mof_O 	O 	0.29271	0.49804	0.69798	-0.373
Mof_O 	O 	0.70047	0.40904	0.2154	-0.379
Mof_O 	O 	0.2053	0.46231	0.93848	-0.372
Mof_O 	O 	0.06861	0.12864	0.59818	-0.4
Mof_O 	O 	0.84053	0.54963	0.3727	-0.386
Mof_O 	O 	0.7898	0.38061	0.93758	-0.379
Mof_O 	O 	0.33235	0.51496	0.81574	-0.397
Mof_O 	O 	0.29953	0.59096	0.7846	-0.372
Mof_O 	O 	0.75282	0.77002	0.2142	-0.389
Mof_O 	O 	0.17693	0.15947	0.6273	-0.386
Mof_O 	O 	0.22322	0.44618	0.6996	-0.383
Mof_O 	O 	0.44418	0.75282	0.2142	-0.388
Mof_O 	O 	0.77065	0.49381	0.37056	-0.373
Mof_O 	O 	0.51493	0.80636	0.2154	-0.379
Mof_O 	O 	0.45932	0.44965	0.28638	-0.389
Mof_O 	O 	0.73318	0.47617	0.93848	-0.372
Mof_O 	O 	0.55382	0.52362	0.3004	-0.385
Mof_O 	O 	0.13491	0.4713	0.93882	-0.375
Mof_O 	O 	0.16327	0.54068	0.71362	-0.386
Mof_O 	O 	0.54068	0.55035	0.71362	-0.386
Mof_O 	O 	0.53862	0.55582	0.7858	-0.382
Mof_O 	O 	0.7815	0.45197	0.06192	-0.41
Mof_O 	O 	0.19994	0.29271	0.69798	-0.373
Mof_O 	O 	0.45037	0.46783	0.6273	-0.386
Mof_O 	O 	0.83673	0.45932	0.28638	-0.389
Mof_O 	O 	0.28042	0.60995	0.06192	-0.41
Mof_O 	O 	0.80636	0.70047	0.2154	-0.379
Mof_O 	O 	0.4713	0.80391	0.93882	-0.385
Mof_O 	O 	0.40009	0.12325	0.62944	-0.372
Mof_O 	O 	0.40283	0.51653	0.28358	-0.374
Mof_O 	O 	0.47638	0.25342	0.6996	-0.383
Mof_O 	O 	0.51653	0.88075	0.28358	-0.375
Mof_O 	O 	0.5287	0.19609	0.06118	-0.412
Mof_O 	O 	0.40527	0.19994	0.69798	-0.373
Mof_O 	O 	0.19609	0.53248	0.06118	-0.412
Mof_O 	O 	0.53769	0.26682	0.06152	-0.409
Mof_O 	O 	0.46954	0.06861	0.59818	-0.4
Mof_O 	O 	0.19364	0.29953	0.7846	-0.372
Mof_O 	O 	0.52383	0.7947	0.06152	-0.411
Mof_O 	O 	0.86509	0.5287	0.06118	-0.413
Mof_O 	O 	0.59991	0.87675	0.37056	-0.373
Mof_O 	O 	0.87675	0.77065	0.37056	-0.373
Mof_O 	O 	0.7947	0.53769	0.06152	-0.409
Mof_O 	O 	0.77678	0.55382	0.3004	-0.385
Mof_O 	O 	0.52957	0.46954	0.59818	-0.401
Mof_O 	O 	0.53217	0.82307	0.3727	-0.386
Mof_O 	O 	0.82307	0.84053	0.3727	-0.387
Mof_O 	O 	0.49804	0.40527	0.69798	-0.373
Mof_O 	O 	0.39005	0.2185	0.93808	-0.373
Mof_O 	O 	0.15947	0.45037	0.6273	-0.386
Mof_O 	O 	0.71958	0.39005	0.93808	-0.373
Mof_O 	O 	0.12864	0.52957	0.59818	-0.401
Mof_O 	O 	0.30078	0.33235	0.81574	-0.397
Mof_O 	O 	0.24718	0.22998	0.7858	-0.382
Mof_O 	O 	0.40904	0.51493	0.2154	-0.379
Mof_O 	O 	0.85222	0.44303	0.06242	-0.415
Mof_O 	O 	0.14778	0.55697	0.93758	-0.378
Mof_O 	O 	0.48507	0.19364	0.7846	-0.372
Mof_O 	O 	0.2185	0.54803	0.93808	-0.373
Mof_O 	O 	0.12325	0.22935	0.62944	-0.372
Mof_O 	O 	0.88075	0.76705	0.28358	-0.375
Mof_O 	O 	0.50196	0.59473	0.30202	-0.374
Mof_O 	O 	0.51496	0.48339	0.81574	-0.397
Mof_O 	O 	0.46138	0.44418	0.2142	-0.388
Mof_O 	O 	0.45197	0.28042	0.06192	-0.41
Mof_O 	O 	0.93139	0.87136	0.40182	-0.402
Mof_O 	O 	0.70729	0.50196	0.30202	-0.374
Mof_O 	O 	0.17294	0.16327	0.71362	-0.386
Mof_O 	O 	0.46783	0.17693	0.6273	-0.386
Mof_O 	O 	0.48504	0.51661	0.18426	-0.407
Mof_O 	O 	0.69922	0.66765	0.18426	-0.407
Mof_O 	O 	0.53248	0.86509	0.06118	-0.422
Mof_O 	O 	0.59473	0.80006	0.30202	-0.374
_end
