data_functionalizedCrystal
_audit_creation_method	'EQeq! by Chris Wilmer'
_symmetry_space_group_name_H-M	'P1'
_symmetry_Int_Tables_number	1
_symmetry_cell_setting	triclinic
loop_
_symmetry_equiv_pos_as_xyz
  x,y,z
_cell_length_a	9.4049
_cell_length_b	12.7739
_cell_length_c	8.5805
_cell_angle_alpha	90
_cell_angle_beta	112.796
_cell_angle_gamma	90
loop_
_atom_site_label
_atom_site_type_symbol
_atom_site_fract_x
_atom_site_fract_y
_atom_site_fract_z
_atom_site_charge
Mof_Al	Al	0.4361	0.0989	0.4084	5.75
Mof_Al	Al	0.1263	0.3823	0.1803	7.216
Mof_P 	P 	0.2159	0.9501	0.4818	1.503
Mof_P 	P 	0.2941	0.2112	0.047	1.849
Mof_F 	F 	0.4887	0.9635	0.3663	-1.86
Mof_O 	O 	0.38	0.1467	0.1941	-1.632
Mof_O 	O 	0.4058	0.2758	0.0054	-1.585
Mof_O 	O 	0.169	0.2801	0.0758	-2.214
Mof_O 	O 	0.2377	0.0329	0.3692	-1.464
Mof_O 	O 	0.3466	0.875	0.5376	-1.291
Mof_O 	O 	0.0668	0.888	0.3754	-2.075
Mof_O 	O 	0.1988	0.997	0.6379	-1.99
Mof_O 	O 	0.2035	0.1408	0.8955	-2.083
Mof_Al	Al	0.5639	0.5989	0.0916	5.741
Mof_Al	Al	0.8737	0.8823	0.3197	7.057
Mof_P 	P 	0.7841	0.4501	0.0182	1.511
Mof_P 	P 	0.7059	0.7112	0.453	1.844
Mof_F 	F 	0.5113	0.4635	0.1337	-1.856
Mof_O 	O 	0.62	0.6467	0.3059	-1.63
Mof_O 	O 	0.5942	0.7758	0.4946	-1.59
Mof_O 	O 	0.831	0.7801	0.4242	-2.183
Mof_O 	O 	0.7623	0.5329	0.1308	-1.451
Mof_O 	O 	0.6534	0.375	0.9624	-1.297
Mof_O 	O 	0.9332	0.388	0.1246	-2.117
Mof_O 	O 	0.8012	0.497	0.8621	-2.047
Mof_O 	O 	0.7965	0.6408	0.6045	-2.105
Mof_Al	Al	0.5639	0.9011	0.5916	5.749
Mof_Al	Al	0.8737	0.6177	0.8197	7.215
Mof_P 	P 	0.7841	0.0499	0.5182	1.503
Mof_P 	P 	0.7059	0.7888	0.953	1.849
Mof_F 	F 	0.5113	0.0365	0.6337	-1.86
Mof_O 	O 	0.62	0.8533	0.8059	-1.632
Mof_O 	O 	0.5942	0.7242	0.9946	-1.585
Mof_O 	O 	0.831	0.7199	0.9242	-2.214
Mof_O 	O 	0.7623	0.9671	0.6308	-1.464
Mof_O 	O 	0.6534	0.125	0.4624	-1.291
Mof_O 	O 	0.9332	0.112	0.6246	-2.075
Mof_O 	O 	0.8012	0.003	0.3621	-1.99
Mof_O 	O 	0.7965	0.8592	0.1045	-2.083
Mof_Al	Al	0.4361	0.4011	0.9084	5.741
Mof_Al	Al	0.1263	0.1177	0.6803	7.057
Mof_P 	P 	0.2159	0.5499	0.9818	1.511
Mof_P 	P 	0.2941	0.2888	0.547	1.844
Mof_F 	F 	0.4887	0.5365	0.8663	-1.856
Mof_O 	O 	0.38	0.3533	0.6941	-1.63
Mof_O 	O 	0.4058	0.2242	0.5054	-1.59
Mof_O 	O 	0.169	0.2199	0.5758	-2.183
Mof_O 	O 	0.2377	0.4671	0.8692	-1.451
Mof_O 	O 	0.3466	0.625	0.0376	-1.297
Mof_O 	O 	0.0668	0.612	0.8754	-2.117
Mof_O 	O 	0.1988	0.503	0.1379	-2.047
Mof_O 	O 	0.2035	0.3592	0.3955	-2.105
_end
