data_functionalizedCrystal
_audit_creation_method	'EQeq! by Chris Wilmer'
_symmetry_space_group_name_H-M	'P1'
_symmetry_Int_Tables_number	1
_symmetry_cell_setting	triclinic
loop_
_symmetry_equiv_pos_as_xyz
  x,y,z
_cell_length_a	26.558
_cell_length_b	26.558
_cell_length_c	4.6212
_cell_angle_alpha	90
_cell_angle_beta	90
_cell_angle_gamma	90
loop_
_atom_site_label
_atom_site_type_symbol
_atom_site_fract_x
_atom_site_fract_y
_atom_site_fract_z
_atom_site_charge
Mof_Zn	Zn	0.26891	0.21573	0.9267	1.21
Mof_O 	O 	0.2286	0.2767	0.01	-0.755
Mof_H 	H 	0.2069	0.2883	0.8927	0.248
Mof_N 	N 	0.2411	0.1484	0.98	-0.306
Mof_C 	C 	0.2556	0.1109	0.142	0.143
Mof_H 	H 	0.2807	0.1142	0.281	-0.026
Mof_N 	N 	0.2314	0.0666	0.0938	-0.163
Mof_C 	C 	0.2021	0.1246	0.8051	0.051
Mof_O 	O 	0.2675	0.8384	0.481	-0.507
Mof_C 	C 	0.1729	0.146	0.5907	-0.15
Mof_H 	H 	0.1769	0.1797	0.5411	0.069
Mof_O 	O 	0.3401	0.8682	0.434	-0.327
Mof_C 	C 	0.1375	0.1166	0.4511	0.071
Mof_C 	C 	0.1076	0.1362	0.234	-0.115
Mof_H 	H 	0.1117	0.1699	0.184	0.079
Mof_C 	C 	0.072	0.1083	0.0886	0.008
Mof_H 	H 	0.0522	0.1228	0.9452	0.017
Mof_C 	C 	0.0663	0.0582	0.1604	-0.049
Mof_H 	H 	0.0429	0.0382	0.0646	0.04
Mof_C 	C 	0.096	0.0382	0.376	-0.072
Mof_H 	H 	0.0917	0.0046	0.4258	0.054
Mof_C 	C 	0.1319	0.0661	0.5227	0.028
Mof_C 	C 	0.1614	0.0447	0.737	-0.115
Mof_H 	H 	0.1573	0.0111	0.7886	0.069
Mof_C 	C 	0.1968	0.0742	0.872	0.056
Mof_C 	C 	0.2453	0.0189	0.213	0.177
Mof_C 	C 	0.2717	0.9262	0.431	-0.187
Mof_C 	C 	0.2645	0.0142	0.49	-0.114
Mof_H 	H 	0.2686	0.043	0.6021	0.073
Mof_C 	C 	0.2779	0.9682	0.604	0.047
Mof_H 	H 	0.2907	0.9655	0.7906	0.024
Mof_C 	C 	0.2523	0.9287	0.154	0.039
Mof_H 	H 	0.248	0.8998	0.043	0.048
Mof_C 	C 	0.2395	0.9755	0.048	-0.101
Mof_H 	H 	0.2266	0.9781	0.8619	0.067
Mof_C 	C 	0.2936	0.8753	0.508	0.576
Mof_O 	O 	0.2805	0.8672	0.769	-0.292
Mof_C 	C 	0.294	0.0109	0.301	-0.106
Mof_H 	H 	0.3175	0.0367	0.2866	0.076
Mof_C 	C 	0.3087	0.964	0.413	0.044
Mof_H 	H 	0.3416	0.9582	0.4737	0.032
Mof_C 	C 	0.2213	0.9318	0.345	0.044
Mof_H 	H 	0.1975	0.9062	0.3578	0.019
Mof_C 	C 	0.2106	0.9799	0.237	-0.107
Mof_H 	H 	0.1778	0.9863	0.1764	0.067
Mof_Zn	Zn	0.76891	0.71573	0.4267	1.22
Mof_O 	O 	0.7286	0.7767	0.51	-0.792
Mof_H 	H 	0.7069	0.7883	0.3927	0.275
Mof_N 	N 	0.7411	0.6484	0.48	-0.283
Mof_C 	C 	0.7556	0.6109	0.642	0.111
Mof_H 	H 	0.7807	0.6142	0.781	-0.017
Mof_N 	N 	0.7314	0.5666	0.5938	-0.167
Mof_C 	C 	0.7021	0.6246	0.3051	0.02
Mof_O 	O 	0.7675	0.3384	0.981	-0.453
Mof_C 	C 	0.6729	0.646	0.0907	-0.081
Mof_H 	H 	0.6769	0.6797	0.0411	0.048
Mof_O 	O 	0.8401	0.3682	0.934	-0.286
Mof_C 	C 	0.6375	0.6166	0.9511	-0.024
Mof_C 	C 	0.6076	0.6362	0.734	-0.039
Mof_H 	H 	0.6117	0.6699	0.684	0.045
Mof_C 	C 	0.572	0.6083	0.5886	-0.078
Mof_H 	H 	0.5522	0.6228	0.4452	0.054
Mof_C 	C 	0.5663	0.5582	0.6604	0.026
Mof_H 	H 	0.5429	0.5382	0.5646	0.015
Mof_C 	C 	0.596	0.5382	0.876	-0.15
Mof_H 	H 	0.5917	0.5046	0.9258	0.083
Mof_C 	C 	0.6319	0.5661	0.0227	0.11
Mof_C 	C 	0.6614	0.5447	0.237	-0.176
Mof_H 	H 	0.6573	0.5111	0.2886	0.089
Mof_C 	C 	0.6968	0.5742	0.372	0.099
Mof_C 	C 	0.7453	0.5189	0.713	0.151
Mof_C 	C 	0.7717	0.4262	0.931	-0.097
Mof_C 	C 	0.7645	0.5142	0.99	-0.105
Mof_H 	H 	0.7686	0.543	0.1021	0.07
Mof_C 	C 	0.7779	0.4682	0.104	-0.014
Mof_H 	H 	0.7907	0.4655	0.2906	0.051
Mof_C 	C 	0.7523	0.4287	0.654	0.233
Mof_H 	H 	0.748	0.3998	0.543	-0.015
Mof_C 	C 	0.7395	0.4755	0.548	-0.346
Mof_H 	H 	0.7266	0.4781	0.3619	0.155
Mof_C 	C 	0.7936	0.3753	0.008	0.46
Mof_O 	O 	0.7805	0.3672	0.269	-0.279
Mof_C 	C 	0.794	0.5109	0.801	-0.063
Mof_H 	H 	0.8175	0.5367	0.7866	0.063
Mof_C 	C 	0.8087	0.464	0.913	0.017
Mof_H 	H 	0.8416	0.4582	0.9737	0.048
Mof_C 	C 	0.7213	0.4318	0.845	-0.207
Mof_H 	H 	0.6975	0.4062	0.8578	0.114
Mof_C 	C 	0.7106	0.4799	0.737	0.158
Mof_H 	H 	0.6778	0.4863	0.6764	-0.027
Mof_Zn	Zn	0.73109	0.78427	0.9267	1.21
Mof_O 	O 	0.7714	0.7233	0.01	-0.755
Mof_H 	H 	0.7931	0.7117	0.8927	0.248
Mof_N 	N 	0.7589	0.8516	0.98	-0.306
Mof_C 	C 	0.7444	0.8891	0.142	0.143
Mof_H 	H 	0.7193	0.8858	0.281	-0.026
Mof_N 	N 	0.7686	0.9334	0.0938	-0.163
Mof_C 	C 	0.7979	0.8754	0.8051	0.051
Mof_O 	O 	0.7325	0.1616	0.481	-0.507
Mof_C 	C 	0.8271	0.854	0.5907	-0.15
Mof_H 	H 	0.8231	0.8203	0.5411	0.069
Mof_O 	O 	0.6599	0.1318	0.434	-0.327
Mof_C 	C 	0.8625	0.8834	0.4511	0.071
Mof_C 	C 	0.8924	0.8638	0.234	-0.115
Mof_H 	H 	0.8883	0.8301	0.184	0.079
Mof_C 	C 	0.928	0.8917	0.0886	0.008
Mof_H 	H 	0.9478	0.8772	0.9452	0.017
Mof_C 	C 	0.9337	0.9418	0.1604	-0.049
Mof_H 	H 	0.9571	0.9618	0.0646	0.04
Mof_C 	C 	0.904	0.9618	0.376	-0.072
Mof_H 	H 	0.9083	0.9954	0.4258	0.054
Mof_C 	C 	0.8681	0.9339	0.5227	0.028
Mof_C 	C 	0.8386	0.9553	0.737	-0.115
Mof_H 	H 	0.8427	0.9889	0.7886	0.069
Mof_C 	C 	0.8032	0.9258	0.872	0.056
Mof_C 	C 	0.7547	0.9811	0.213	0.177
Mof_C 	C 	0.7283	0.0738	0.431	-0.187
Mof_C 	C 	0.7355	0.9858	0.49	-0.114
Mof_H 	H 	0.7314	0.957	0.6021	0.073
Mof_C 	C 	0.7221	0.0318	0.604	0.047
Mof_H 	H 	0.7093	0.0345	0.7906	0.024
Mof_C 	C 	0.7477	0.0713	0.154	0.039
Mof_H 	H 	0.752	0.1002	0.043	0.048
Mof_C 	C 	0.7605	0.0245	0.048	-0.101
Mof_H 	H 	0.7734	0.0219	0.8619	0.067
Mof_C 	C 	0.7064	0.1247	0.508	0.576
Mof_O 	O 	0.7195	0.1328	0.769	-0.292
Mof_C 	C 	0.706	0.9891	0.301	-0.106
Mof_H 	H 	0.6825	0.9633	0.2866	0.076
Mof_C 	C 	0.6913	0.036	0.413	0.044
Mof_H 	H 	0.6584	0.0418	0.4737	0.032
Mof_C 	C 	0.7787	0.0682	0.345	0.044
Mof_H 	H 	0.8025	0.0938	0.3578	0.019
Mof_C 	C 	0.7894	0.0201	0.237	-0.107
Mof_H 	H 	0.8222	0.0137	0.1764	0.067
Mof_Zn	Zn	0.23109	0.28427	0.4267	1.22
Mof_O 	O 	0.2714	0.2233	0.51	-0.792
Mof_H 	H 	0.2931	0.2117	0.3927	0.275
Mof_N 	N 	0.2589	0.3516	0.48	-0.283
Mof_C 	C 	0.2444	0.3891	0.642	0.111
Mof_H 	H 	0.2193	0.3858	0.781	-0.017
Mof_N 	N 	0.2686	0.4334	0.5938	-0.167
Mof_C 	C 	0.2979	0.3754	0.3051	0.02
Mof_O 	O 	0.2325	0.6616	0.981	-0.453
Mof_C 	C 	0.3271	0.354	0.0907	-0.081
Mof_H 	H 	0.3231	0.3203	0.0411	0.048
Mof_O 	O 	0.1599	0.6318	0.934	-0.286
Mof_C 	C 	0.3625	0.3834	0.9511	-0.024
Mof_C 	C 	0.3924	0.3638	0.734	-0.039
Mof_H 	H 	0.3883	0.3301	0.684	0.045
Mof_C 	C 	0.428	0.3917	0.5886	-0.078
Mof_H 	H 	0.4478	0.3772	0.4452	0.054
Mof_C 	C 	0.4337	0.4418	0.6604	0.026
Mof_H 	H 	0.4571	0.4618	0.5646	0.015
Mof_C 	C 	0.404	0.4618	0.876	-0.15
Mof_H 	H 	0.4083	0.4954	0.9258	0.083
Mof_C 	C 	0.3681	0.4339	0.0227	0.11
Mof_C 	C 	0.3386	0.4553	0.237	-0.176
Mof_H 	H 	0.3427	0.4889	0.2886	0.089
Mof_C 	C 	0.3032	0.4258	0.372	0.099
Mof_C 	C 	0.2547	0.4811	0.713	0.151
Mof_C 	C 	0.2283	0.5738	0.931	-0.097
Mof_C 	C 	0.2355	0.4858	0.99	-0.105
Mof_H 	H 	0.2314	0.457	0.1021	0.07
Mof_C 	C 	0.2221	0.5318	0.104	-0.014
Mof_H 	H 	0.2093	0.5345	0.2906	0.051
Mof_C 	C 	0.2477	0.5713	0.654	0.233
Mof_H 	H 	0.252	0.6002	0.543	-0.015
Mof_C 	C 	0.2605	0.5245	0.548	-0.346
Mof_H 	H 	0.2734	0.5219	0.3619	0.155
Mof_C 	C 	0.2064	0.6247	0.008	0.46
Mof_O 	O 	0.2195	0.6328	0.269	-0.279
Mof_C 	C 	0.206	0.4891	0.801	-0.063
Mof_H 	H 	0.1825	0.4633	0.7866	0.063
Mof_C 	C 	0.1913	0.536	0.913	0.017
Mof_H 	H 	0.1584	0.5418	0.9737	0.048
Mof_C 	C 	0.2787	0.5682	0.845	-0.207
Mof_H 	H 	0.3025	0.5938	0.8578	0.114
Mof_C 	C 	0.2894	0.5201	0.737	0.158
Mof_H 	H 	0.3222	0.5137	0.6764	-0.027
Mof_Zn	Zn	0.21573	0.73109	0.0733	1.21
Mof_O 	O 	0.2767	0.7714	0.99	-0.755
Mof_H 	H 	0.2883	0.7931	0.1073	0.248
Mof_N 	N 	0.1484	0.7589	0.02	-0.306
Mof_C 	C 	0.1109	0.7444	0.858	0.143
Mof_H 	H 	0.1142	0.7193	0.719	-0.026
Mof_N 	N 	0.0666	0.7686	0.9062	-0.163
Mof_C 	C 	0.1246	0.7979	0.1949	0.051
Mof_O 	O 	0.8384	0.7325	0.519	-0.507
Mof_C 	C 	0.146	0.8271	0.4093	-0.15
Mof_H 	H 	0.1797	0.8231	0.4589	0.069
Mof_O 	O 	0.8682	0.6599	0.566	-0.327
Mof_C 	C 	0.1166	0.8625	0.5489	0.071
Mof_C 	C 	0.1362	0.8924	0.766	-0.115
Mof_H 	H 	0.1699	0.8883	0.816	0.079
Mof_C 	C 	0.1083	0.928	0.9114	0.008
Mof_H 	H 	0.1228	0.9478	0.0548	0.017
Mof_C 	C 	0.0582	0.9337	0.8396	-0.049
Mof_H 	H 	0.0382	0.9571	0.9354	0.04
Mof_C 	C 	0.0382	0.904	0.624	-0.072
Mof_H 	H 	0.0046	0.9083	0.5742	0.054
Mof_C 	C 	0.0661	0.8681	0.4773	0.028
Mof_C 	C 	0.0447	0.8386	0.263	-0.115
Mof_H 	H 	0.0111	0.8427	0.2114	0.069
Mof_C 	C 	0.0742	0.8032	0.128	0.056
Mof_C 	C 	0.0189	0.7547	0.787	0.177
Mof_C 	C 	0.9262	0.7283	0.569	-0.187
Mof_C 	C 	0.0142	0.7355	0.51	-0.114
Mof_H 	H 	0.043	0.7314	0.3979	0.073
Mof_C 	C 	0.9682	0.7221	0.396	0.047
Mof_H 	H 	0.9655	0.7093	0.2094	0.024
Mof_C 	C 	0.9287	0.7477	0.846	0.039
Mof_H 	H 	0.8998	0.752	0.957	0.048
Mof_C 	C 	0.9755	0.7605	0.952	-0.101
Mof_H 	H 	0.9781	0.7734	0.1381	0.067
Mof_C 	C 	0.8753	0.7064	0.492	0.576
Mof_O 	O 	0.8672	0.7195	0.231	-0.292
Mof_C 	C 	0.0109	0.706	0.699	-0.106
Mof_H 	H 	0.0367	0.6825	0.7134	0.076
Mof_C 	C 	0.964	0.6913	0.587	0.044
Mof_H 	H 	0.9582	0.6584	0.5263	0.032
Mof_C 	C 	0.9318	0.7787	0.655	0.044
Mof_H 	H 	0.9062	0.8025	0.6422	0.019
Mof_C 	C 	0.9799	0.7894	0.763	-0.107
Mof_H 	H 	0.9863	0.8222	0.8236	0.067
Mof_Zn	Zn	0.71573	0.23109	0.5733	1.22
Mof_O 	O 	0.7767	0.2714	0.49	-0.792
Mof_H 	H 	0.7883	0.2931	0.6073	0.275
Mof_N 	N 	0.6484	0.2589	0.52	-0.283
Mof_C 	C 	0.6109	0.2444	0.358	0.111
Mof_H 	H 	0.6142	0.2193	0.219	-0.017
Mof_N 	N 	0.5666	0.2686	0.4062	-0.167
Mof_C 	C 	0.6246	0.2979	0.6949	0.02
Mof_O 	O 	0.3384	0.2325	0.019	-0.453
Mof_C 	C 	0.646	0.3271	0.9093	-0.081
Mof_H 	H 	0.6797	0.3231	0.9589	0.048
Mof_O 	O 	0.3682	0.1599	0.066	-0.286
Mof_C 	C 	0.6166	0.3625	0.0489	-0.024
Mof_C 	C 	0.6362	0.3924	0.266	-0.039
Mof_H 	H 	0.6699	0.3883	0.316	0.045
Mof_C 	C 	0.6083	0.428	0.4114	-0.078
Mof_H 	H 	0.6228	0.4478	0.5548	0.054
Mof_C 	C 	0.5582	0.4337	0.3396	0.026
Mof_H 	H 	0.5382	0.4571	0.4354	0.015
Mof_C 	C 	0.5382	0.404	0.124	-0.15
Mof_H 	H 	0.5046	0.4083	0.0742	0.083
Mof_C 	C 	0.5661	0.3681	0.9773	0.11
Mof_C 	C 	0.5447	0.3386	0.763	-0.176
Mof_H 	H 	0.5111	0.3427	0.7114	0.089
Mof_C 	C 	0.5742	0.3032	0.628	0.099
Mof_C 	C 	0.5189	0.2547	0.287	0.151
Mof_C 	C 	0.4262	0.2283	0.069	-0.097
Mof_C 	C 	0.5142	0.2355	0.01	-0.105
Mof_H 	H 	0.543	0.2314	0.8979	0.07
Mof_C 	C 	0.4682	0.2221	0.896	-0.014
Mof_H 	H 	0.4655	0.2093	0.7094	0.051
Mof_C 	C 	0.4287	0.2477	0.346	0.233
Mof_H 	H 	0.3998	0.252	0.457	-0.015
Mof_C 	C 	0.4755	0.2605	0.452	-0.346
Mof_H 	H 	0.4781	0.2734	0.6381	0.155
Mof_C 	C 	0.3753	0.2064	0.992	0.46
Mof_O 	O 	0.3672	0.2195	0.731	-0.279
Mof_C 	C 	0.5109	0.206	0.199	-0.063
Mof_H 	H 	0.5367	0.1825	0.2134	0.063
Mof_C 	C 	0.464	0.1913	0.087	0.017
Mof_H 	H 	0.4582	0.1584	0.0263	0.048
Mof_C 	C 	0.4318	0.2787	0.155	-0.207
Mof_H 	H 	0.4062	0.3025	0.1422	0.114
Mof_C 	C 	0.4799	0.2894	0.263	0.158
Mof_H 	H 	0.4863	0.3222	0.3236	-0.027
Mof_Zn	Zn	0.78427	0.26891	0.0733	1.21
Mof_O 	O 	0.7233	0.2286	0.99	-0.755
Mof_H 	H 	0.7117	0.2069	0.1073	0.248
Mof_N 	N 	0.8516	0.2411	0.02	-0.306
Mof_C 	C 	0.8891	0.2556	0.858	0.143
Mof_H 	H 	0.8858	0.2807	0.719	-0.026
Mof_N 	N 	0.9334	0.2314	0.9062	-0.163
Mof_C 	C 	0.8754	0.2021	0.1949	0.051
Mof_O 	O 	0.1616	0.2675	0.519	-0.507
Mof_C 	C 	0.854	0.1729	0.4093	-0.15
Mof_H 	H 	0.8203	0.1769	0.4589	0.069
Mof_O 	O 	0.1318	0.3401	0.566	-0.327
Mof_C 	C 	0.8834	0.1375	0.5489	0.071
Mof_C 	C 	0.8638	0.1076	0.766	-0.115
Mof_H 	H 	0.8301	0.1117	0.816	0.079
Mof_C 	C 	0.8917	0.072	0.9114	0.008
Mof_H 	H 	0.8772	0.0522	0.0548	0.017
Mof_C 	C 	0.9418	0.0663	0.8396	-0.049
Mof_H 	H 	0.9618	0.0429	0.9354	0.04
Mof_C 	C 	0.9618	0.096	0.624	-0.072
Mof_H 	H 	0.9954	0.0917	0.5742	0.054
Mof_C 	C 	0.9339	0.1319	0.4773	0.028
Mof_C 	C 	0.9553	0.1614	0.263	-0.115
Mof_H 	H 	0.9889	0.1573	0.2114	0.069
Mof_C 	C 	0.9258	0.1968	0.128	0.056
Mof_C 	C 	0.9811	0.2453	0.787	0.177
Mof_C 	C 	0.0738	0.2717	0.569	-0.187
Mof_C 	C 	0.9858	0.2645	0.51	-0.114
Mof_H 	H 	0.957	0.2686	0.3979	0.073
Mof_C 	C 	0.0318	0.2779	0.396	0.047
Mof_H 	H 	0.0345	0.2907	0.2094	0.024
Mof_C 	C 	0.0713	0.2523	0.846	0.039
Mof_H 	H 	0.1002	0.248	0.957	0.048
Mof_C 	C 	0.0245	0.2395	0.952	-0.101
Mof_H 	H 	0.0219	0.2266	0.1381	0.067
Mof_C 	C 	0.1247	0.2936	0.492	0.576
Mof_O 	O 	0.1328	0.2805	0.231	-0.292
Mof_C 	C 	0.9891	0.294	0.699	-0.106
Mof_H 	H 	0.9633	0.3175	0.7134	0.076
Mof_C 	C 	0.036	0.3087	0.587	0.044
Mof_H 	H 	0.0418	0.3416	0.5263	0.032
Mof_C 	C 	0.0682	0.2213	0.655	0.044
Mof_H 	H 	0.0938	0.1975	0.6422	0.019
Mof_C 	C 	0.0201	0.2106	0.763	-0.107
Mof_H 	H 	0.0137	0.1778	0.8236	0.067
Mof_Zn	Zn	0.28427	0.76891	0.5733	1.22
Mof_O 	O 	0.2233	0.7286	0.49	-0.792
Mof_H 	H 	0.2117	0.7069	0.6073	0.275
Mof_N 	N 	0.3516	0.7411	0.52	-0.283
Mof_C 	C 	0.3891	0.7556	0.358	0.111
Mof_H 	H 	0.3858	0.7807	0.219	-0.017
Mof_N 	N 	0.4334	0.7314	0.4062	-0.167
Mof_C 	C 	0.3754	0.7021	0.6949	0.02
Mof_O 	O 	0.6616	0.7675	0.019	-0.453
Mof_C 	C 	0.354	0.6729	0.9093	-0.081
Mof_H 	H 	0.3203	0.6769	0.9589	0.048
Mof_O 	O 	0.6318	0.8401	0.066	-0.286
Mof_C 	C 	0.3834	0.6375	0.0489	-0.024
Mof_C 	C 	0.3638	0.6076	0.266	-0.039
Mof_H 	H 	0.3301	0.6117	0.316	0.045
Mof_C 	C 	0.3917	0.572	0.4114	-0.078
Mof_H 	H 	0.3772	0.5522	0.5548	0.054
Mof_C 	C 	0.4418	0.5663	0.3396	0.026
Mof_H 	H 	0.4618	0.5429	0.4354	0.015
Mof_C 	C 	0.4618	0.596	0.124	-0.15
Mof_H 	H 	0.4954	0.5917	0.0742	0.083
Mof_C 	C 	0.4339	0.6319	0.9773	0.11
Mof_C 	C 	0.4553	0.6614	0.763	-0.176
Mof_H 	H 	0.4889	0.6573	0.7114	0.089
Mof_C 	C 	0.4258	0.6968	0.628	0.099
Mof_C 	C 	0.4811	0.7453	0.287	0.151
Mof_C 	C 	0.5738	0.7717	0.069	-0.097
Mof_C 	C 	0.4858	0.7645	0.01	-0.105
Mof_H 	H 	0.457	0.7686	0.8979	0.07
Mof_C 	C 	0.5318	0.7779	0.896	-0.014
Mof_H 	H 	0.5345	0.7907	0.7094	0.051
Mof_C 	C 	0.5713	0.7523	0.346	0.233
Mof_H 	H 	0.6002	0.748	0.457	-0.015
Mof_C 	C 	0.5245	0.7395	0.452	-0.346
Mof_H 	H 	0.5219	0.7266	0.6381	0.155
Mof_C 	C 	0.6247	0.7936	0.992	0.46
Mof_O 	O 	0.6328	0.7805	0.731	-0.279
Mof_C 	C 	0.4891	0.794	0.199	-0.063
Mof_H 	H 	0.4633	0.8175	0.2134	0.063
Mof_C 	C 	0.536	0.8087	0.087	0.017
Mof_H 	H 	0.5418	0.8416	0.0263	0.048
Mof_C 	C 	0.5682	0.7213	0.155	-0.207
Mof_H 	H 	0.5938	0.6975	0.1422	0.114
Mof_C 	C 	0.5201	0.7106	0.263	0.158
Mof_H 	H 	0.5137	0.6778	0.3236	-0.027
_end
