data_functionalizedCrystal
_audit_creation_method	'EQeq! by Chris Wilmer'
_symmetry_space_group_name_H-M	'P1'
_symmetry_Int_Tables_number	1
_symmetry_cell_setting	triclinic
loop_
_symmetry_equiv_pos_as_xyz
  x,y,z
_cell_length_a	10.3646
_cell_length_b	28.9318
_cell_length_c	28.9318
_cell_angle_alpha	90
_cell_angle_beta	90
_cell_angle_gamma	90
loop_
_atom_site_label
_atom_site_type_symbol
_atom_site_fract_x
_atom_site_fract_y
_atom_site_fract_z
_atom_site_charge
Mof_Cd	Cd	0.23176	0.51158	0.90549	0.509
Mof_Cd	Cd	0.23176	0.98842	0.59451	0.513
Mof_Cd	Cd	0.23176	0.59451	0.51158	0.509
Mof_Cd	Cd	0.23176	0.90549	0.98842	0.515
Mof_Cd	Cd	0.76824	0.48842	0.09451	0.517
Mof_Cd	Cd	0.76824	0.01158	0.40549	0.513
Mof_Cd	Cd	0.76824	0.40549	0.48842	0.517
Mof_Cd	Cd	0.76824	0.09451	0.01158	0.512
Mof_Cd	Cd	-0	0.5	-0	0.506
Mof_Cd	Cd	5.23305e-33	0	0.5	0.507
Mof_Cd	Cd	5.23305e-33	0.5	0.5	0.514
Mof_Cd	Cd	-0	0	-0	0.499
Mof_H 	H 	0.671	0.6437	0.0895	0.049
Mof_H 	H 	0.627	0.7212	0.0756	0.067
Mof_H 	H 	0.8968	0.7226	0.9753	0.067
Mof_H 	H 	0.9358	0.6448	0.9873	0.076
Mof_H 	H 	0.9262	0.7963	0.0081	0.073
Mof_H 	H 	0.6941	0.9074	0.9974	0.078
Mof_H 	H 	0.5417	0.7802	0.0192	0.063
Mof_H 	H 	0.671	0.8563	0.4105	0.042
Mof_H 	H 	0.627	0.7788	0.4244	0.075
Mof_H 	H 	0.8968	0.7774	0.5247	0.08
Mof_H 	H 	0.9358	0.8552	0.5127	0.056
Mof_H 	H 	0.9262	0.7037	0.4919	0.072
Mof_H 	H 	0.6941	0.5926	0.5026	0.066
Mof_H 	H 	0.5417	0.7198	0.4808	0.06
Mof_H 	H 	0.671	0.4105	0.6437	0.042
Mof_H 	H 	0.627	0.4244	0.7212	0.075
Mof_H 	H 	0.8968	0.5247	0.7226	0.08
Mof_H 	H 	0.9358	0.5127	0.6448	0.056
Mof_H 	H 	0.9262	0.4919	0.7963	0.072
Mof_H 	H 	0.6941	0.5026	0.9074	0.067
Mof_H 	H 	0.5417	0.4808	0.7802	0.06
Mof_H 	H 	0.671	0.0895	0.8563	0.049
Mof_H 	H 	0.627	0.0756	0.7788	0.067
Mof_H 	H 	0.8968	0.9753	0.7774	0.067
Mof_H 	H 	0.9358	0.9873	0.8552	0.076
Mof_H 	H 	0.9262	0.0081	0.7037	0.073
Mof_H 	H 	0.6941	0.9974	0.5926	0.077
Mof_H 	H 	0.5417	0.0192	0.7198	0.063
Mof_H 	H 	0.329	0.3563	0.9105	0.032
Mof_H 	H 	0.373	0.2788	0.9244	0.084
Mof_H 	H 	0.1032	0.2774	0.0247	0.088
Mof_H 	H 	0.0642	0.3552	0.0127	0.021
Mof_H 	H 	0.0738	0.2037	0.9919	0.06
Mof_H 	H 	0.3059	0.0926	0.0026	0.058
Mof_H 	H 	0.4583	0.2198	0.9808	0.061
Mof_H 	H 	0.329	0.1437	0.5895	0.04
Mof_H 	H 	0.373	0.2212	0.5756	0.075
Mof_H 	H 	0.1032	0.2226	0.4753	0.072
Mof_H 	H 	0.0642	0.1448	0.4873	0.044
Mof_H 	H 	0.0738	0.2963	0.5081	0.061
Mof_H 	H 	0.3059	0.4074	0.4974	0.07
Mof_H 	H 	0.4583	0.2802	0.5192	0.065
Mof_H 	H 	0.329	0.5895	0.3563	0.04
Mof_H 	H 	0.373	0.5756	0.2788	0.075
Mof_H 	H 	0.1032	0.4753	0.2774	0.072
Mof_H 	H 	0.0642	0.4873	0.3552	0.044
Mof_H 	H 	0.0738	0.5081	0.2037	0.061
Mof_H 	H 	0.3059	0.4974	0.0926	0.07
Mof_H 	H 	0.4583	0.5192	0.2198	0.064
Mof_H 	H 	0.329	0.9105	0.1437	0.032
Mof_H 	H 	0.373	0.9244	0.2212	0.084
Mof_H 	H 	0.1032	0.0247	0.2226	0.088
Mof_H 	H 	0.0642	0.0127	0.1448	0.021
Mof_H 	H 	0.0738	0.9919	0.2963	0.06
Mof_H 	H 	0.3059	0.0026	0.4074	0.059
Mof_H 	H 	0.4583	0.9808	0.2802	0.061
Mof_C 	C 	0.8389	0.5862	0.0488	0.312
Mof_C 	C 	0.8103	0.6368	0.0407	-0.06
Mof_C 	C 	0.7173	0.6598	0.0661	0.008
Mof_C 	C 	0.6911	0.7059	0.0578	-0.076
Mof_C 	C 	0.7574	0.7302	0.0237	0.029
Mof_C 	C 	0.8495	0.7066	0.9985	-0.053
Mof_C 	C 	0.8745	0.6604	0.006	-0.016
Mof_C 	C 	0.736	0.7804	0.0162	0.01
Mof_C 	C 	0.842	0.8093	0.0084	-0.032
Mof_C 	C 	0.8277	0.8561	0.0013	-0.055
Mof_C 	C 	0.7048	0.875	0.0013	-0.018
Mof_C 	C 	0.5973	0.8471	0.0071	-0.039
Mof_C 	C 	0.6149	0.7995	0.0148	-0.046
Mof_C 	C 	0.4644	0.867	0.0015	0.27
Mof_C 	C 	0.9452	0.8858	0.9929	0.352
Mof_C 	C 	0.8389	0.9138	0.4512	0.321
Mof_C 	C 	0.8103	0.8632	0.4593	-0.082
Mof_C 	C 	0.7173	0.8402	0.4339	0.03
Mof_C 	C 	0.6911	0.7941	0.4422	-0.099
Mof_C 	C 	0.7574	0.7698	0.4763	0.06
Mof_C 	C 	0.8495	0.7934	0.5015	-0.099
Mof_C 	C 	0.8745	0.8396	0.494	0.031
Mof_C 	C 	0.736	0.7196	0.4838	-0.005
Mof_C 	C 	0.842	0.6907	0.4916	-0.022
Mof_C 	C 	0.8277	0.6439	0.4987	-0.06
Mof_C 	C 	0.7048	0.625	0.4987	0.002
Mof_C 	C 	0.5973	0.6529	0.4929	-0.051
Mof_C 	C 	0.6149	0.7005	0.4852	-0.032
Mof_C 	C 	0.4644	0.633	0.4985	0.283
Mof_C 	C 	0.9452	0.6142	0.5071	0.352
Mof_C 	C 	0.8389	0.4512	0.5862	0.321
Mof_C 	C 	0.8103	0.4593	0.6368	-0.083
Mof_C 	C 	0.7173	0.4339	0.6598	0.03
Mof_C 	C 	0.6911	0.4422	0.7059	-0.099
Mof_C 	C 	0.7574	0.4763	0.7302	0.06
Mof_C 	C 	0.8495	0.5015	0.7066	-0.099
Mof_C 	C 	0.8745	0.494	0.6604	0.032
Mof_C 	C 	0.736	0.4838	0.7804	-0.004
Mof_C 	C 	0.842	0.4916	0.8093	-0.022
Mof_C 	C 	0.8277	0.4987	0.8561	-0.059
Mof_C 	C 	0.7048	0.4987	0.875	0.001
Mof_C 	C 	0.5973	0.4929	0.8471	-0.05
Mof_C 	C 	0.6149	0.4852	0.7995	-0.033
Mof_C 	C 	0.4644	0.4985	0.867	0.283
Mof_C 	C 	0.9452	0.5071	0.8858	0.351
Mof_C 	C 	0.8389	0.0488	0.9138	0.312
Mof_C 	C 	0.8103	0.0407	0.8632	-0.059
Mof_C 	C 	0.7173	0.0661	0.8402	0.008
Mof_C 	C 	0.6911	0.0578	0.7941	-0.076
Mof_C 	C 	0.7574	0.0237	0.7698	0.029
Mof_C 	C 	0.8495	0.9985	0.7934	-0.053
Mof_C 	C 	0.8745	0.006	0.8396	-0.016
Mof_C 	C 	0.736	0.0162	0.7196	0.01
Mof_C 	C 	0.842	0.0084	0.6907	-0.032
Mof_C 	C 	0.8277	0.0013	0.6439	-0.056
Mof_C 	C 	0.7048	0.0013	0.625	-0.017
Mof_C 	C 	0.5973	0.0071	0.6529	-0.04
Mof_C 	C 	0.6149	0.0148	0.7005	-0.045
Mof_C 	C 	0.4644	0.0015	0.633	0.27
Mof_C 	C 	0.9452	0.9929	0.6142	0.353
Mof_C 	C 	0.1611	0.4138	0.9512	0.332
Mof_C 	C 	0.1897	0.3632	0.9593	-0.116
Mof_C 	C 	0.2827	0.3402	0.9339	0.056
Mof_C 	C 	0.3089	0.2941	0.9422	-0.127
Mof_C 	C 	0.2426	0.2698	0.9763	0.091
Mof_C 	C 	0.1505	0.2934	0.0015	-0.156
Mof_C 	C 	0.1255	0.3396	0.994	0.085
Mof_C 	C 	0.264	0.2196	0.9838	-0.016
Mof_C 	C 	0.158	0.1907	0.9916	-0.028
Mof_C 	C 	0.1723	0.1439	0.9987	-0.043
Mof_C 	C 	0.2952	0.125	0.9987	0.006
Mof_C 	C 	0.4027	0.1529	0.9929	-0.055
Mof_C 	C 	0.3851	0.2005	0.9852	-0.026
Mof_C 	C 	0.5356	0.133	0.9985	0.292
Mof_C 	C 	0.0548	0.1142	0.0071	0.267
Mof_C 	C 	0.1611	0.0862	0.5488	0.322
Mof_C 	C 	0.1897	0.1368	0.5407	-0.09
Mof_C 	C 	0.2827	0.1598	0.5661	0.031
Mof_C 	C 	0.3089	0.2059	0.5578	-0.101
Mof_C 	C 	0.2426	0.2302	0.5237	0.056
Mof_C 	C 	0.1505	0.2066	0.4985	-0.103
Mof_C 	C 	0.1255	0.1604	0.506	0.031
Mof_C 	C 	0.264	0.2804	0.5162	-0
Mof_C 	C 	0.158	0.3093	0.5084	-0.039
Mof_C 	C 	0.1723	0.3561	0.5013	-0.041
Mof_C 	C 	0.2952	0.375	0.5013	-0.014
Mof_C 	C 	0.4027	0.3471	0.5071	-0.043
Mof_C 	C 	0.3851	0.2995	0.5148	-0.04
Mof_C 	C 	0.5356	0.367	0.5015	0.279
Mof_C 	C 	0.0548	0.3858	0.4929	0.272
Mof_C 	C 	0.1611	0.5488	0.4138	0.322
Mof_C 	C 	0.1897	0.5407	0.3632	-0.09
Mof_C 	C 	0.2827	0.5661	0.3402	0.03
Mof_C 	C 	0.3089	0.5578	0.2941	-0.101
Mof_C 	C 	0.2426	0.5237	0.2698	0.056
Mof_C 	C 	0.1505	0.4985	0.2934	-0.103
Mof_C 	C 	0.1255	0.506	0.3396	0.031
Mof_C 	C 	0.264	0.5162	0.2196	-0
Mof_C 	C 	0.158	0.5084	0.1907	-0.039
Mof_C 	C 	0.1723	0.5013	0.1439	-0.041
Mof_C 	C 	0.2952	0.5013	0.125	-0.014
Mof_C 	C 	0.4027	0.5071	0.1529	-0.044
Mof_C 	C 	0.3851	0.5148	0.2005	-0.04
Mof_C 	C 	0.5356	0.5015	0.133	0.279
Mof_C 	C 	0.0548	0.4929	0.1142	0.272
Mof_C 	C 	0.1611	0.9512	0.0862	0.332
Mof_C 	C 	0.1897	0.9593	0.1368	-0.116
Mof_C 	C 	0.2827	0.9339	0.1598	0.056
Mof_C 	C 	0.3089	0.9422	0.2059	-0.127
Mof_C 	C 	0.2426	0.9763	0.2302	0.091
Mof_C 	C 	0.1505	0.0015	0.2066	-0.156
Mof_C 	C 	0.1255	0.994	0.1604	0.085
Mof_C 	C 	0.264	0.9838	0.2804	-0.016
Mof_C 	C 	0.158	0.9916	0.3093	-0.029
Mof_C 	C 	0.1723	0.9987	0.3561	-0.043
Mof_C 	C 	0.2952	0.9987	0.375	0.006
Mof_C 	C 	0.4027	0.9929	0.3471	-0.055
Mof_C 	C 	0.3851	0.9852	0.2995	-0.027
Mof_C 	C 	0.5356	0.9985	0.367	0.292
Mof_C 	C 	0.0548	0.0071	0.3858	0.267
Mof_Cl	Cl	0.22063	0.54006	0.98917	-0.379
Mof_Cl	Cl	0.22063	0.95994	0.51083	-0.381
Mof_Cl	Cl	0.22063	0.51083	0.54006	-0.386
Mof_Cl	Cl	0.22063	0.98917	0.95994	-0.374
Mof_Cl	Cl	0.77937	0.45994	0.01083	-0.367
Mof_Cl	Cl	0.77937	0.04006	0.48917	-0.366
Mof_Cl	Cl	0.77937	0.48917	0.45994	-0.364
Mof_Cl	Cl	0.77937	0.01083	0.04006	-0.37
Mof_O 	O 	0.7767	0.5661	0.07955	-0.271
Mof_O 	O 	0.9211	0.56839	0.02217	-0.253
Mof_O 	O 	0.0519	0.8661	0.99884	-0.294
Mof_O 	O 	0.929	0.92688	0.98114	-0.259
Mof_O 	O 	0.2094	0.5906	0.8852	-0.151
Mof_O 	O 	0.368	0.8412	0.0066	-0.248
Mof_O 	O 	0.4554	0.90939	0.99095	-0.25
Mof_O 	O 	0.7767	0.9339	0.42045	-0.27
Mof_O 	O 	0.9211	0.93161	0.47783	-0.25
Mof_O 	O 	0.0519	0.6339	0.50116	-0.298
Mof_O 	O 	0.929	0.57312	0.51886	-0.264
Mof_O 	O 	0.2094	0.9094	0.6148	-0.151
Mof_O 	O 	0.368	0.6588	0.4934	-0.247
Mof_O 	O 	0.4554	0.59061	0.50905	-0.259
Mof_O 	O 	0.7767	0.42045	0.5661	-0.273
Mof_O 	O 	0.9211	0.47783	0.56839	-0.253
Mof_O 	O 	0.0519	0.50116	0.8661	-0.297
Mof_O 	O 	0.929	0.51886	0.92688	-0.262
Mof_O 	O 	0.2094	0.6148	0.5906	-0.151
Mof_O 	O 	0.368	0.4934	0.8412	-0.247
Mof_O 	O 	0.4554	0.50905	0.90939	-0.259
Mof_O 	O 	0.7767	0.07955	0.9339	-0.268
Mof_O 	O 	0.9211	0.02217	0.93161	-0.25
Mof_O 	O 	0.0519	0.99884	0.6339	-0.295
Mof_O 	O 	0.929	0.98114	0.57312	-0.262
Mof_O 	O 	0.2094	0.8852	0.9094	-0.15
Mof_O 	O 	0.368	0.0066	0.6588	-0.248
Mof_O 	O 	0.4554	0.99095	0.59061	-0.251
Mof_O 	O 	0.2233	0.4339	0.92045	-0.281
Mof_O 	O 	0.0789	0.43161	0.97783	-0.271
Mof_O 	O 	0.9481	0.1339	0.00116	-0.232
Mof_O 	O 	0.071	0.07312	0.01886	-0.266
Mof_O 	O 	0.7906	0.4094	0.1148	-0.132
Mof_O 	O 	0.632	0.1588	0.9934	-0.241
Mof_O 	O 	0.5446	0.09061	0.00905	-0.268
Mof_O 	O 	0.2233	0.0661	0.57955	-0.282
Mof_O 	O 	0.0789	0.06839	0.52217	-0.275
Mof_O 	O 	0.9481	0.3661	0.49884	-0.231
Mof_O 	O 	0.071	0.42688	0.48114	-0.265
Mof_O 	O 	0.7906	0.0906	0.3852	-0.132
Mof_O 	O 	0.632	0.3412	0.5066	-0.241
Mof_O 	O 	0.5446	0.40939	0.49095	-0.259
Mof_O 	O 	0.2233	0.57955	0.4339	-0.279
Mof_O 	O 	0.0789	0.52217	0.43161	-0.274
Mof_O 	O 	0.9481	0.49884	0.1339	-0.23
Mof_O 	O 	0.071	0.48114	0.07312	-0.266
Mof_O 	O 	0.7906	0.3852	0.4094	-0.132
Mof_O 	O 	0.632	0.5066	0.1588	-0.241
Mof_O 	O 	0.5446	0.49095	0.09061	-0.259
Mof_O 	O 	0.2233	0.92045	0.0661	-0.283
Mof_O 	O 	0.0789	0.97783	0.06839	-0.272
Mof_O 	O 	0.9481	0.00116	0.3661	-0.232
Mof_O 	O 	0.071	0.01886	0.42688	-0.265
Mof_O 	O 	0.7906	0.1148	0.0906	-0.132
Mof_O 	O 	0.632	0.9934	0.3412	-0.241
Mof_O 	O 	0.5446	0.00905	0.40939	-0.267
Mof_Cd	Cd	0.74017	0.75	0.75	0.444
Mof_H 	H 	0.6217	0.7666	0.5721	0.065
Mof_H 	H 	0.6192	0.6817	0.5853	0.072
Mof_H 	H 	0.4083	0.883	0.5387	0.04
Mof_H 	H 	0.4398	0.8328	0.6001	0.098
Mof_H 	H 	0.8037	0.8805	0.6132	0.102
Mof_H 	H 	0.767	0.9284	0.5494	0.043
Mof_H 	H 	0.6272	0.966	0.5008	0.17
Mof_H 	H 	0.5678	0.9243	0.4714	0.159
Mof_H 	H 	0.4761	0.955	0.5036	0.176
Mof_H 	H 	0.6217	0.7334	0.9279	0.067
Mof_H 	H 	0.6192	0.8183	0.9147	0.074
Mof_H 	H 	0.4083	0.617	0.9613	0.041
Mof_H 	H 	0.4398	0.6672	0.8999	0.099
Mof_H 	H 	0.8037	0.6195	0.8868	0.102
Mof_H 	H 	0.767	0.5716	0.9506	0.044
Mof_H 	H 	0.6272	0.534	0.9992	0.164
Mof_H 	H 	0.5678	0.5757	0.0286	0.147
Mof_H 	H 	0.4761	0.545	0.9964	0.169
Mof_H 	H 	0.6217	0.9279	0.7666	0.067
Mof_H 	H 	0.6192	0.9147	0.6817	0.074
Mof_H 	H 	0.4083	0.9613	0.883	0.041
Mof_H 	H 	0.4398	0.8999	0.8328	0.099
Mof_H 	H 	0.8037	0.8868	0.8805	0.102
Mof_H 	H 	0.767	0.9506	0.9284	0.044
Mof_H 	H 	0.6272	0.9992	0.966	0.167
Mof_H 	H 	0.5678	0.0286	0.9243	0.149
Mof_H 	H 	0.4761	0.9964	0.955	0.172
Mof_H 	H 	0.6217	0.5721	0.7334	0.065
Mof_H 	H 	0.6192	0.5853	0.8183	0.072
Mof_H 	H 	0.4083	0.5387	0.617	0.04
Mof_H 	H 	0.4398	0.6001	0.6672	0.098
Mof_H 	H 	0.8037	0.6132	0.6195	0.102
Mof_H 	H 	0.767	0.5494	0.5716	0.043
Mof_H 	H 	0.6272	0.5008	0.534	0.167
Mof_H 	H 	0.5678	0.4714	0.5757	0.157
Mof_H 	H 	0.4761	0.5036	0.545	0.173
Mof_C 	C 	0.6461	0.7729	0.6454	0.116
Mof_C 	C 	0.6302	0.7513	0.601	-0.073
Mof_C 	C 	0.6297	0.7049	0.6082	-0.075
Mof_C 	C 	0.648	0.6974	0.6569	0.119
Mof_C 	C 	0.6433	0.8207	0.6544	-0.113
Mof_C 	C 	0.4894	0.882	0.554	0.076
Mof_C 	C 	0.5076	0.8527	0.5905	-0.147
Mof_C 	C 	0.6256	0.852	0.6136	0.123
Mof_C 	C 	0.7221	0.8803	0.5982	-0.15
Mof_C 	C 	0.6999	0.909	0.5605	0.069
Mof_C 	C 	0.5623	0.9414	0.5006	-0.354
Mof_C 	C 	0.6461	0.7271	0.8546	0.116
Mof_C 	C 	0.6302	0.7487	0.899	-0.072
Mof_C 	C 	0.6297	0.7951	0.8918	-0.075
Mof_C 	C 	0.648	0.8026	0.8431	0.119
Mof_C 	C 	0.6433	0.6793	0.8456	-0.113
Mof_C 	C 	0.4894	0.618	0.946	0.078
Mof_C 	C 	0.5076	0.6473	0.9095	-0.148
Mof_C 	C 	0.6256	0.648	0.8864	0.124
Mof_C 	C 	0.7221	0.6197	0.9018	-0.151
Mof_C 	C 	0.6999	0.591	0.9395	0.071
Mof_C 	C 	0.5623	0.5586	0.9994	-0.33
Mof_C 	C 	0.6461	0.8546	0.7729	0.116
Mof_C 	C 	0.6302	0.899	0.7513	-0.072
Mof_C 	C 	0.6297	0.8918	0.7049	-0.075
Mof_C 	C 	0.648	0.8431	0.6974	0.119
Mof_C 	C 	0.6433	0.8456	0.8207	-0.113
Mof_C 	C 	0.4894	0.946	0.882	0.078
Mof_C 	C 	0.5076	0.9095	0.8527	-0.147
Mof_C 	C 	0.6256	0.8864	0.852	0.124
Mof_C 	C 	0.7221	0.9018	0.8803	-0.15
Mof_C 	C 	0.6999	0.9395	0.909	0.071
Mof_C 	C 	0.5623	0.9994	0.9414	-0.334
Mof_C 	C 	0.6461	0.6454	0.7271	0.116
Mof_C 	C 	0.6302	0.601	0.7487	-0.073
Mof_C 	C 	0.6297	0.6082	0.7951	-0.075
Mof_C 	C 	0.648	0.6569	0.8026	0.119
Mof_C 	C 	0.6433	0.6544	0.6793	-0.113
Mof_C 	C 	0.4894	0.554	0.618	0.076
Mof_C 	C 	0.5076	0.5905	0.6473	-0.147
Mof_C 	C 	0.6256	0.6136	0.648	0.123
Mof_C 	C 	0.7221	0.5982	0.6197	-0.15
Mof_C 	C 	0.6999	0.5605	0.591	0.069
Mof_C 	C 	0.5623	0.5006	0.5586	-0.35
Mof_N 	N 	0.6587	0.73924	0.67827	-0.157
Mof_N 	N 	0.5861	0.9094	0.5398	-0.083
Mof_N 	N 	0.6587	0.76076	0.82173	-0.157
Mof_N 	N 	0.5861	0.5906	0.9602	-0.085
Mof_N 	N 	0.6587	0.82173	0.73924	-0.157
Mof_N 	N 	0.5861	0.9602	0.9094	-0.085
Mof_N 	N 	0.6587	0.67827	0.76076	-0.157
Mof_N 	N 	0.5861	0.5398	0.5906	-0.083
Mof_Cl	Cl	0.9773	0.75	0.75	-0.308
Mof_Cd	Cd	0.25983	0.25	0.25	0.441
Mof_H 	H 	0.3783	0.2334	0.4279	0.066
Mof_H 	H 	0.3808	0.3183	0.4147	0.072
Mof_H 	H 	0.5917	0.117	0.4613	0.045
Mof_H 	H 	0.5602	0.1672	0.3999	0.104
Mof_H 	H 	0.1963	0.1195	0.3868	0.095
Mof_H 	H 	0.233	0.0716	0.4506	0.041
Mof_H 	H 	0.3728	0.034	0.4992	0.164
Mof_H 	H 	0.4322	0.0757	0.5286	0.157
Mof_H 	H 	0.5239	0.045	0.4964	0.171
Mof_H 	H 	0.3783	0.2666	0.0721	0.065
Mof_H 	H 	0.3808	0.1817	0.0853	0.071
Mof_H 	H 	0.5917	0.383	0.0387	0.044
Mof_H 	H 	0.5602	0.3328	0.1001	0.103
Mof_H 	H 	0.1963	0.3805	0.1132	0.095
Mof_H 	H 	0.233	0.4284	0.0494	0.04
Mof_H 	H 	0.3728	0.466	0.0008	0.17
Mof_H 	H 	0.4322	0.4243	0.9714	0.17
Mof_H 	H 	0.5239	0.455	0.0036	0.178
Mof_H 	H 	0.3783	0.0721	0.2334	0.065
Mof_H 	H 	0.3808	0.0853	0.3183	0.07
Mof_H 	H 	0.5917	0.0387	0.117	0.044
Mof_H 	H 	0.5602	0.1001	0.1672	0.103
Mof_H 	H 	0.1963	0.1132	0.1195	0.094
Mof_H 	H 	0.233	0.0494	0.0716	0.04
Mof_H 	H 	0.3728	0.0008	0.034	0.167
Mof_H 	H 	0.4322	0.9714	0.0757	0.168
Mof_H 	H 	0.5239	0.0036	0.045	0.175
Mof_H 	H 	0.3783	0.4279	0.2666	0.066
Mof_H 	H 	0.3808	0.4147	0.1817	0.072
Mof_H 	H 	0.5917	0.4613	0.383	0.045
Mof_H 	H 	0.5602	0.3999	0.3328	0.104
Mof_H 	H 	0.1963	0.3868	0.3805	0.095
Mof_H 	H 	0.233	0.4506	0.4284	0.041
Mof_H 	H 	0.3728	0.4992	0.466	0.167
Mof_H 	H 	0.4322	0.5286	0.4243	0.159
Mof_H 	H 	0.5239	0.4964	0.455	0.174
Mof_C 	C 	0.3539	0.2271	0.3546	0.115
Mof_C 	C 	0.3698	0.2487	0.399	-0.073
Mof_C 	C 	0.3703	0.2951	0.3918	-0.075
Mof_C 	C 	0.352	0.3026	0.3431	0.118
Mof_C 	C 	0.3567	0.1793	0.3456	-0.113
Mof_C 	C 	0.5106	0.118	0.446	0.076
Mof_C 	C 	0.4924	0.1473	0.4095	-0.146
Mof_C 	C 	0.3744	0.148	0.3864	0.122
Mof_C 	C 	0.2779	0.1197	0.4018	-0.149
Mof_C 	C 	0.3001	0.091	0.4395	0.068
Mof_C 	C 	0.4377	0.0586	0.4994	-0.348
Mof_C 	C 	0.3539	0.2729	0.1454	0.115
Mof_C 	C 	0.3698	0.2513	0.101	-0.074
Mof_C 	C 	0.3703	0.2049	0.1082	-0.075
Mof_C 	C 	0.352	0.1974	0.1569	0.118
Mof_C 	C 	0.3567	0.3207	0.1544	-0.112
Mof_C 	C 	0.5106	0.382	0.054	0.074
Mof_C 	C 	0.4924	0.3527	0.0905	-0.145
Mof_C 	C 	0.3744	0.352	0.1136	0.121
Mof_C 	C 	0.2779	0.3803	0.0982	-0.148
Mof_C 	C 	0.3001	0.409	0.0605	0.067
Mof_C 	C 	0.4377	0.4414	0.0006	-0.371
Mof_C 	C 	0.3539	0.1454	0.2271	0.115
Mof_C 	C 	0.3698	0.101	0.2487	-0.074
Mof_C 	C 	0.3703	0.1082	0.2951	-0.075
Mof_C 	C 	0.352	0.1569	0.3026	0.118
Mof_C 	C 	0.3567	0.1544	0.1793	-0.112
Mof_C 	C 	0.5106	0.054	0.118	0.074
Mof_C 	C 	0.4924	0.0905	0.1473	-0.145
Mof_C 	C 	0.3744	0.1136	0.148	0.121
Mof_C 	C 	0.2779	0.0982	0.1197	-0.149
Mof_C 	C 	0.3001	0.0605	0.091	0.066
Mof_C 	C 	0.4377	0.0006	0.0586	-0.368
Mof_C 	C 	0.3539	0.3546	0.2729	0.115
Mof_C 	C 	0.3698	0.399	0.2513	-0.073
Mof_C 	C 	0.3703	0.3918	0.2049	-0.075
Mof_C 	C 	0.352	0.3431	0.1974	0.118
Mof_C 	C 	0.3567	0.3456	0.3207	-0.113
Mof_C 	C 	0.5106	0.446	0.382	0.076
Mof_C 	C 	0.4924	0.4095	0.3527	-0.146
Mof_C 	C 	0.3744	0.3864	0.352	0.122
Mof_C 	C 	0.2779	0.4018	0.3803	-0.149
Mof_C 	C 	0.3001	0.4395	0.409	0.069
Mof_C 	C 	0.4377	0.4994	0.4414	-0.351
Mof_N 	N 	0.3413	0.26076	0.32173	-0.157
Mof_N 	N 	0.4139	0.0906	0.4602	-0.083
Mof_N 	N 	0.3413	0.23924	0.17827	-0.157
Mof_N 	N 	0.4139	0.4094	0.0398	-0.08
Mof_N 	N 	0.3413	0.17827	0.26076	-0.157
Mof_N 	N 	0.4139	0.0398	0.0906	-0.081
Mof_N 	N 	0.3413	0.32173	0.23924	-0.157
Mof_N 	N 	0.4139	0.4602	0.4094	-0.082
Mof_Cl	Cl	0.0227	0.25	0.25	-0.34
_end
