data_functionalizedCrystal
_audit_creation_method	'EQeq! by Chris Wilmer'
_symmetry_space_group_name_H-M	'P1'
_symmetry_Int_Tables_number	1
_symmetry_cell_setting	triclinic
loop_
_symmetry_equiv_pos_as_xyz
  x,y,z
_cell_length_a	26.3796
_cell_length_b	27.5675
_cell_length_c	31.996
_cell_angle_alpha	90
_cell_angle_beta	112.541
_cell_angle_gamma	90
loop_
_atom_site_label
_atom_site_type_symbol
_atom_site_fract_x
_atom_site_fract_y
_atom_site_fract_z
_atom_site_charge
Mof_Zn	Zn	0.14904	0.38988	0.63953	1.21
Mof_O 	O 	0.076	0.3673	0.60574	-0.967
Mof_O 	O 	0.167	0.4496	0.6169	-0.491
Mof_O 	O 	0.1667	0.608	0.20616	-0.488
Mof_O 	O 	0.7012	0.843	0.6365	-0.515
Mof_Zn	Zn	0.03304	0.41992	0.56894	1.212
Mof_Zn	Zn	0.04202	0.34443	0.64688	1.201
Mof_Zn	Zn	0.07832	0.31559	0.56532	1.207
Mof_C 	C 	0.1327	0.4758	0.5851	0.374
Mof_O 	O 	0.082	0.4735	0.5718	-0.505
Mof_O 	O 	0.9815	0.4497	0.5908	-0.512
Mof_O 	O 	0.9998	0.5937	0.0052	-0.508
Mof_O 	O 	0.987	0.396	0.6439	-0.499
Mof_O 	O 	0.099	0.6555	0.2099	-0.505
Mof_O 	O 	0.4908	0.7921	0.6136	-0.512
Mof_O 	O 	0.5283	0.7642	0.5667	-0.489
Mof_O 	O 	0.6507	0.7863	0.5902	-0.521
Mof_O 	O 	0.043	0.6633	0.00086	-0.504
Mof_C 	C 	0.1552	0.5135	0.5612	-0.111
Mof_C 	C 	0.9765	0.4379	0.6256	0.409
Mof_C 	C 	0.1176	0.5372	0.5238	-0.015
Mof_C 	C 	0.2107	0.525	0.5764	0.014
Mof_C 	C 	0.9527	0.474	0.6484	-0.142
Mof_C 	C 	0.1356	0.5724	0.5015	0.029
Mof_C 	C 	0.2286	0.5601	0.5541	-0.003
Mof_C 	C 	0.9503	0.4635	0.6896	0.048
Mof_C 	C 	0.9402	0.5191	0.6308	0.057
Mof_C 	C 	0.191	0.5838	0.5166	-0.028
Mof_H 	H 	0.9605	0.4322	0.7025	0.022
Mof_C 	C 	0.9327	0.4989	0.7127	-0.108
Mof_C 	C 	0.9249	0.5546	0.6536	-0.115
Mof_H 	H 	0.942	0.5263	0.6024	0.027
Mof_C 	C 	0.2137	0.6148	0.4891	0.078
Mof_H 	H 	0.9291	0.4911	0.7404	0.063
Mof_C 	C 	0.9204	0.5457	0.6948	0.046
Mof_H 	H 	0.9171	0.5862	0.6408	0.071
Mof_C 	C 	0.191	0.614	0.4421	-0.059
Mof_C 	C 	0.2598	0.643	0.5117	-0.097
Mof_C 	C 	0.9055	0.5844	0.7189	0.036
Mof_C 	C 	0.2144	0.6413	0.4176	0.051
Mof_C 	C 	0.2831	0.6704	0.4872	0.184
Mof_C 	C 	0.9281	0.5855	0.7667	-0.101
Mof_C 	C 	0.8688	0.6208	0.6964	-0.097
Mof_C 	C 	0.2604	0.6696	0.4402	-0.082
Mof_C 	C 	0.1904	0.6431	0.3681	0.025
Mof_C 	C 	0.3407	0.692	0.5151	-0.486
Mof_H 	H 	0.9527	0.5606	0.783	0.066
Mof_C 	C 	0.9144	0.6238	0.791	0.051
Mof_C 	C 	0.8537	0.6573	0.7178	0.034
Mof_H 	H 	0.8533	0.6202	0.6643	0.063
Mof_C 	C 	0.1347	0.648	0.3423	0.012
Mof_C 	C 	0.2269	0.6345	0.347	-0.096
Mof_C 	C 	0.3858	0.6869	0.5032	-0.085
Mof_C 	C 	0.3435	0.7228	0.5503	0.034
Mof_C 	C 	0.8784	0.6593	0.7663	-0.101
Mof_C 	C 	0.9395	0.6241	0.8416	0.009
Mof_C 	C 	0.8147	0.6948	0.6916	0.056
Mof_C 	C 	0.1153	0.6441	0.2954	-0.003
Mof_C 	C 	0.2076	0.6307	0.3001	0.136
Mof_C 	C 	0.4337	0.7126	0.5264	-0.028
Mof_C 	C 	0.3914	0.7485	0.5736	0.087
Mof_H 	H 	0.8699	0.6855	0.7817	0.071
Mof_C 	C 	0.9436	0.5829	0.8665	-0.079
Mof_C 	C 	0.9464	0.6695	0.862	-0.014
Mof_C 	C 	0.7721	0.6837	0.6528	-0.118
Mof_C 	C 	0.819	0.7427	0.7062	-0.116
Mof_C 	C 	0.1518	0.6355	0.2744	-0.139
Mof_C 	C 	0.4365	0.7434	0.5616	-0.027
Mof_H 	H 	0.9311	0.553	0.8513	0.056
Mof_C 	C 	0.9651	0.5839	0.9125	0.026
Mof_C 	C 	0.9598	0.6675	0.9084	0.018
Mof_H 	H 	0.7703	0.6518	0.6411	0.071
Mof_C 	C 	0.7314	0.7156	0.6293	0.058
Mof_C 	C 	0.7808	0.7766	0.6845	0.057
Mof_H 	H 	0.8497	0.7519	0.7324	0.073
Mof_C 	C 	0.1367	0.6248	0.22485	0.407
Mof_C 	C 	0.4897	0.7675	0.5822	0.385
Mof_H 	H 	0.9665	0.5551	0.9292	0.049
Mof_C 	C 	0.9854	0.6281	0.9353	-0.12
Mof_H 	H 	0.7011	0.7057	0.6031	0.024
Mof_C 	C 	0.7361	0.7631	0.6454	-0.14
Mof_H 	H 	0.7843	0.8089	0.6956	0.028
Mof_C 	C 	0.0096	0.6294	0.9853	0.403
Mof_C 	C 	0.693	0.8005	0.6216	0.416
Mof_C 	C 	0.9903	0.6684	0.911	0.035
Mof_C 	C 	0.9674	0.6652	0.864	-0.011
Mof_C 	C 	0.247	0.5782	0.4906	-0.089
Mof_C 	C 	0.2228	0.5786	0.4405	0.064
Mof_C 	C 	0.2503	0.6036	0.4195	-0.087
Mof_C 	C 	0.2983	0.6283	0.4422	0.101
Mof_C 	C 	0.3204	0.6277	0.4905	-0.221
Mof_C 	C 	0.2945	0.6009	0.5119	0.112
Mof_C 	C 	0.359	0.6674	0.5115	0.467
Mof_C 	C 	0.401	0.6721	0.4982	-0.082
Mof_C 	C 	0.446	0.7016	0.5205	0.097
Mof_C 	C 	0.4479	0.7273	0.5577	-0.037
Mof_C 	C 	0.4057	0.7263	0.572	-0.106
Mof_C 	C 	0.3614	0.6928	0.548	0.159
Mof_C 	C 	0.1676	0.6138	0.3431	-0.077
Mof_C 	C 	0.1458	0.6132	0.2981	0.103
Mof_C 	C 	0.1793	0.6105	0.2712	-0.073
Mof_C 	C 	0.2391	0.6101	0.2946	-0.039
Mof_C 	C 	0.258	0.6073	0.344	0.008
Mof_C 	C 	0.2234	0.607	0.3673	0.081
Mof_C 	C 	0.1597	0.5513	0.4966	-0.046
Mof_C 	C 	0.1308	0.5216	0.5149	0.057
Mof_C 	C 	0.2475	0.5235	0.5549	-0.036
Mof_C 	C 	0.2117	0.5082	0.5746	0.033
Mof_C 	C 	0.2167	0.5492	0.516	0.053
Mof_Zn	Zn	0.64904	0.88988	0.63953	1.211
Mof_O 	O 	0.576	0.8673	0.60574	-0.966
Mof_O 	O 	0.667	0.9496	0.6169	-0.49
Mof_O 	O 	0.6667	0.108	0.20616	-0.487
Mof_O 	O 	0.2012	0.343	0.6365	-0.514
Mof_Zn	Zn	0.53304	0.91992	0.56894	1.213
Mof_Zn	Zn	0.54202	0.84443	0.64688	1.202
Mof_Zn	Zn	0.57832	0.81559	0.56532	1.208
Mof_C 	C 	0.6327	0.9758	0.5851	0.375
Mof_O 	O 	0.582	0.9735	0.5718	-0.504
Mof_O 	O 	0.4815	0.9497	0.5908	-0.512
Mof_O 	O 	0.4998	0.0937	0.0052	-0.508
Mof_O 	O 	0.487	0.896	0.6439	-0.499
Mof_O 	O 	0.599	0.1555	0.2099	-0.505
Mof_O 	O 	0.9908	0.2921	0.6136	-0.512
Mof_O 	O 	0.0283	0.2642	0.5667	-0.489
Mof_O 	O 	0.1507	0.2863	0.5902	-0.521
Mof_O 	O 	0.543	0.1633	0.00086	-0.503
Mof_C 	C 	0.6552	0.0135	0.5612	-0.111
Mof_C 	C 	0.4765	0.9379	0.6256	0.409
Mof_C 	C 	0.6176	0.0372	0.5238	-0.015
Mof_C 	C 	0.7107	0.025	0.5764	0.014
Mof_C 	C 	0.4527	0.974	0.6484	-0.142
Mof_C 	C 	0.6356	0.0724	0.5015	0.029
Mof_C 	C 	0.7286	0.0601	0.5541	-0.002
Mof_C 	C 	0.4503	0.9635	0.6896	0.048
Mof_C 	C 	0.4402	0.0191	0.6308	0.057
Mof_C 	C 	0.691	0.0838	0.5166	-0.028
Mof_H 	H 	0.4605	0.9322	0.7025	0.022
Mof_C 	C 	0.4327	0.9989	0.7127	-0.108
Mof_C 	C 	0.4249	0.0546	0.6536	-0.115
Mof_H 	H 	0.442	0.0263	0.6024	0.027
Mof_C 	C 	0.7137	0.1148	0.4891	0.077
Mof_H 	H 	0.4291	0.9911	0.7404	0.063
Mof_C 	C 	0.4204	0.0457	0.6948	0.046
Mof_H 	H 	0.4171	0.0862	0.6408	0.071
Mof_C 	C 	0.691	0.114	0.4421	-0.059
Mof_C 	C 	0.7598	0.143	0.5117	-0.096
Mof_C 	C 	0.4055	0.0844	0.7189	0.036
Mof_C 	C 	0.7144	0.1413	0.4176	0.051
Mof_C 	C 	0.7831	0.1704	0.4872	0.184
Mof_C 	C 	0.4281	0.0855	0.7667	-0.101
Mof_C 	C 	0.3688	0.1208	0.6964	-0.097
Mof_C 	C 	0.7604	0.1696	0.4402	-0.081
Mof_C 	C 	0.6904	0.1431	0.3681	0.025
Mof_C 	C 	0.8407	0.192	0.5151	-0.486
Mof_H 	H 	0.4527	0.0606	0.783	0.066
Mof_C 	C 	0.4144	0.1238	0.791	0.051
Mof_C 	C 	0.3537	0.1573	0.7178	0.034
Mof_H 	H 	0.3533	0.1202	0.6643	0.063
Mof_C 	C 	0.6347	0.148	0.3423	0.012
Mof_C 	C 	0.7269	0.1345	0.347	-0.096
Mof_C 	C 	0.8858	0.1869	0.5032	-0.086
Mof_C 	C 	0.8435	0.2228	0.5503	0.034
Mof_C 	C 	0.3784	0.1593	0.7663	-0.101
Mof_C 	C 	0.4395	0.1241	0.8416	0.009
Mof_C 	C 	0.3147	0.1948	0.6916	0.056
Mof_C 	C 	0.6153	0.1441	0.2954	-0.003
Mof_C 	C 	0.7076	0.1307	0.3001	0.136
Mof_C 	C 	0.9337	0.2126	0.5264	-0.028
Mof_C 	C 	0.8914	0.2485	0.5736	0.087
Mof_H 	H 	0.3699	0.1855	0.7817	0.071
Mof_C 	C 	0.4436	0.0829	0.8665	-0.079
Mof_C 	C 	0.4464	0.1695	0.862	-0.013
Mof_C 	C 	0.2721	0.1837	0.6528	-0.118
Mof_C 	C 	0.319	0.2427	0.7062	-0.116
Mof_C 	C 	0.6518	0.1355	0.2744	-0.139
Mof_C 	C 	0.9365	0.2434	0.5616	-0.027
Mof_H 	H 	0.4311	0.053	0.8513	0.055
Mof_C 	C 	0.4651	0.0839	0.9125	0.026
Mof_C 	C 	0.4598	0.1675	0.9084	0.018
Mof_H 	H 	0.2703	0.1518	0.6411	0.071
Mof_C 	C 	0.2314	0.2156	0.6293	0.058
Mof_C 	C 	0.2808	0.2766	0.6845	0.057
Mof_H 	H 	0.3497	0.2519	0.7324	0.073
Mof_C 	C 	0.6367	0.1248	0.22485	0.407
Mof_C 	C 	0.9897	0.2675	0.5822	0.385
Mof_H 	H 	0.4665	0.0551	0.9292	0.049
Mof_C 	C 	0.4854	0.1281	0.9353	-0.119
Mof_H 	H 	0.2011	0.2057	0.6031	0.024
Mof_C 	C 	0.2361	0.2631	0.6454	-0.14
Mof_H 	H 	0.2843	0.3089	0.6956	0.028
Mof_C 	C 	0.5096	0.1294	0.9853	0.401
Mof_C 	C 	0.193	0.3005	0.6216	0.416
Mof_C 	C 	0.4903	0.1684	0.911	0.035
Mof_C 	C 	0.4674	0.1652	0.864	-0.011
Mof_C 	C 	0.747	0.0782	0.4906	-0.089
Mof_C 	C 	0.7228	0.0786	0.4405	0.064
Mof_C 	C 	0.7503	0.1036	0.4195	-0.087
Mof_C 	C 	0.7983	0.1283	0.4422	0.101
Mof_C 	C 	0.8204	0.1277	0.4905	-0.221
Mof_C 	C 	0.7945	0.1009	0.5119	0.112
Mof_C 	C 	0.859	0.1674	0.5115	0.466
Mof_C 	C 	0.901	0.1721	0.4982	-0.082
Mof_C 	C 	0.946	0.2016	0.5205	0.097
Mof_C 	C 	0.9479	0.2273	0.5577	-0.037
Mof_C 	C 	0.9057	0.2263	0.572	-0.107
Mof_C 	C 	0.8614	0.1928	0.548	0.159
Mof_C 	C 	0.6676	0.1138	0.3431	-0.077
Mof_C 	C 	0.6458	0.1132	0.2981	0.103
Mof_C 	C 	0.6793	0.1105	0.2712	-0.073
Mof_C 	C 	0.7391	0.1101	0.2946	-0.039
Mof_C 	C 	0.758	0.1073	0.344	0.008
Mof_C 	C 	0.7234	0.107	0.3673	0.081
Mof_C 	C 	0.6597	0.0513	0.4966	-0.046
Mof_C 	C 	0.6308	0.0216	0.5149	0.057
Mof_C 	C 	0.7475	0.0235	0.5549	-0.037
Mof_C 	C 	0.7117	0.0082	0.5746	0.033
Mof_C 	C 	0.7167	0.0492	0.516	0.053
Mof_Zn	Zn	0.14904	0.61012	0.13953	1.211
Mof_O 	O 	0.076	0.6327	0.10574	-0.966
Mof_O 	O 	0.167	0.5504	0.1169	-0.49
Mof_O 	O 	0.1667	0.392	0.70616	-0.487
Mof_O 	O 	0.7012	0.157	0.1365	-0.514
Mof_Zn	Zn	0.03304	0.58008	0.06894	1.213
Mof_Zn	Zn	0.04202	0.65557	0.14688	1.202
Mof_Zn	Zn	0.07832	0.68441	0.06532	1.208
Mof_C 	C 	0.1327	0.5242	0.0851	0.375
Mof_O 	O 	0.082	0.5265	0.0718	-0.504
Mof_O 	O 	0.9815	0.5503	0.0908	-0.512
Mof_O 	O 	0.9998	0.4063	0.5052	-0.508
Mof_O 	O 	0.987	0.604	0.1439	-0.499
Mof_O 	O 	0.099	0.3445	0.7099	-0.505
Mof_O 	O 	0.4908	0.2079	0.1136	-0.512
Mof_O 	O 	0.5283	0.2358	0.0667	-0.489
Mof_O 	O 	0.6507	0.2137	0.0902	-0.521
Mof_O 	O 	0.043	0.3367	0.50086	-0.503
Mof_C 	C 	0.1552	0.4865	0.0612	-0.111
Mof_C 	C 	0.9765	0.5621	0.1256	0.409
Mof_C 	C 	0.1176	0.4628	0.0238	-0.018
Mof_C 	C 	0.2107	0.475	0.0764	0.013
Mof_C 	C 	0.9527	0.526	0.1484	-0.142
Mof_C 	C 	0.1356	0.4276	0.0015	0.029
Mof_C 	C 	0.2286	0.4399	0.0541	-0.002
Mof_C 	C 	0.9503	0.5365	0.1896	0.048
Mof_C 	C 	0.9402	0.4809	0.1308	0.057
Mof_C 	C 	0.191	0.4162	0.0166	-0.028
Mof_H 	H 	0.9605	0.5678	0.2025	0.022
Mof_C 	C 	0.9327	0.5011	0.2127	-0.108
Mof_C 	C 	0.9249	0.4454	0.1536	-0.115
Mof_H 	H 	0.942	0.4737	0.1024	0.027
Mof_C 	C 	0.2137	0.3852	0.9891	0.078
Mof_H 	H 	0.9291	0.5089	0.2404	0.063
Mof_C 	C 	0.9204	0.4543	0.1948	0.046
Mof_H 	H 	0.9171	0.4138	0.1408	0.071
Mof_C 	C 	0.191	0.386	0.9421	-0.059
Mof_C 	C 	0.2598	0.357	0.0117	-0.097
Mof_C 	C 	0.9055	0.4156	0.2189	0.036
Mof_C 	C 	0.2144	0.3587	0.9176	0.052
Mof_C 	C 	0.2831	0.3296	0.9872	0.185
Mof_C 	C 	0.9281	0.4145	0.2667	-0.101
Mof_C 	C 	0.8688	0.3792	0.1964	-0.097
Mof_C 	C 	0.2604	0.3304	0.9402	-0.082
Mof_C 	C 	0.1904	0.3569	0.8681	0.025
Mof_C 	C 	0.3407	0.308	0.0151	-0.489
Mof_H 	H 	0.9527	0.4394	0.283	0.066
Mof_C 	C 	0.9144	0.3762	0.291	0.051
Mof_C 	C 	0.8537	0.3427	0.2178	0.034
Mof_H 	H 	0.8533	0.3798	0.1643	0.063
Mof_C 	C 	0.1347	0.352	0.8423	0.012
Mof_C 	C 	0.2269	0.3655	0.847	-0.096
Mof_C 	C 	0.3858	0.3131	0.0032	-0.086
Mof_C 	C 	0.3435	0.2772	0.0503	0.035
Mof_C 	C 	0.8784	0.3407	0.2663	-0.101
Mof_C 	C 	0.9395	0.3759	0.3416	0.009
Mof_C 	C 	0.8147	0.3052	0.1916	0.056
Mof_C 	C 	0.1153	0.3559	0.7954	-0.003
Mof_C 	C 	0.2076	0.3693	0.8001	0.136
Mof_C 	C 	0.4337	0.2874	0.0264	-0.028
Mof_C 	C 	0.3914	0.2515	0.0736	0.087
Mof_H 	H 	0.8699	0.3145	0.2817	0.071
Mof_C 	C 	0.9436	0.4171	0.3665	-0.079
Mof_C 	C 	0.9464	0.3305	0.362	-0.014
Mof_C 	C 	0.7721	0.3163	0.1528	-0.118
Mof_C 	C 	0.819	0.2573	0.2062	-0.116
Mof_C 	C 	0.1518	0.3645	0.7744	-0.139
Mof_C 	C 	0.4365	0.2566	0.0616	-0.028
Mof_H 	H 	0.9311	0.447	0.3513	0.055
Mof_C 	C 	0.9651	0.4161	0.4125	0.026
Mof_C 	C 	0.9598	0.3325	0.4084	0.018
Mof_H 	H 	0.7703	0.3482	0.1411	0.071
Mof_C 	C 	0.7314	0.2844	0.1293	0.058
Mof_C 	C 	0.7808	0.2234	0.1845	0.057
Mof_H 	H 	0.8497	0.2481	0.2324	0.073
Mof_C 	C 	0.1367	0.3752	0.72485	0.407
Mof_C 	C 	0.4897	0.2325	0.0822	0.385
Mof_H 	H 	0.9665	0.4449	0.4292	0.049
Mof_C 	C 	0.9854	0.3719	0.4353	-0.119
Mof_H 	H 	0.7011	0.2943	0.1031	0.024
Mof_C 	C 	0.7361	0.2369	0.1454	-0.14
Mof_H 	H 	0.7843	0.1911	0.1956	0.028
Mof_C 	C 	0.0096	0.3706	0.4853	0.402
Mof_C 	C 	0.693	0.1995	0.1216	0.416
Mof_C 	C 	0.9903	0.3316	0.411	0.035
Mof_C 	C 	0.9674	0.3348	0.364	-0.011
Mof_C 	C 	0.247	0.4218	0.9906	-0.089
Mof_C 	C 	0.2228	0.4214	0.9405	0.065
Mof_C 	C 	0.2503	0.3964	0.9195	-0.088
Mof_C 	C 	0.2983	0.3717	0.9422	0.102
Mof_C 	C 	0.3204	0.3723	0.9905	-0.222
Mof_C 	C 	0.2945	0.3991	0.0119	0.112
Mof_C 	C 	0.359	0.3326	0.0115	0.469
Mof_C 	C 	0.401	0.3279	0.9982	-0.082
Mof_C 	C 	0.446	0.2984	0.0205	0.097
Mof_C 	C 	0.4479	0.2727	0.0577	-0.037
Mof_C 	C 	0.4057	0.2737	0.072	-0.106
Mof_C 	C 	0.3614	0.3072	0.048	0.159
Mof_C 	C 	0.1676	0.3862	0.8431	-0.077
Mof_C 	C 	0.1458	0.3868	0.7981	0.103
Mof_C 	C 	0.1793	0.3895	0.7712	-0.073
Mof_C 	C 	0.2391	0.3899	0.7946	-0.039
Mof_C 	C 	0.258	0.3927	0.844	0.008
Mof_C 	C 	0.2234	0.393	0.8673	0.081
Mof_C 	C 	0.1597	0.4487	0.9966	-0.047
Mof_C 	C 	0.1308	0.4784	0.0149	0.06
Mof_C 	C 	0.2475	0.4765	0.0549	-0.037
Mof_C 	C 	0.2117	0.4918	0.0746	0.033
Mof_C 	C 	0.2167	0.4508	0.016	0.053
Mof_Zn	Zn	0.64904	0.11012	0.13953	1.211
Mof_O 	O 	0.576	0.1327	0.10574	-0.966
Mof_O 	O 	0.667	0.0504	0.1169	-0.49
Mof_O 	O 	0.6667	0.892	0.70616	-0.487
Mof_O 	O 	0.2012	0.657	0.1365	-0.514
Mof_Zn	Zn	0.53304	0.08008	0.06894	1.213
Mof_Zn	Zn	0.54202	0.15557	0.14688	1.202
Mof_Zn	Zn	0.57832	0.18441	0.06532	1.208
Mof_C 	C 	0.6327	0.0242	0.0851	0.375
Mof_O 	O 	0.582	0.0265	0.0718	-0.504
Mof_O 	O 	0.4815	0.0503	0.0908	-0.512
Mof_O 	O 	0.4998	0.9063	0.5052	-0.508
Mof_O 	O 	0.487	0.104	0.1439	-0.499
Mof_O 	O 	0.599	0.8445	0.7099	-0.505
Mof_O 	O 	0.9908	0.7079	0.1136	-0.512
Mof_O 	O 	0.0283	0.7358	0.0667	-0.49
Mof_O 	O 	0.1507	0.7137	0.0902	-0.521
Mof_O 	O 	0.543	0.8367	0.50086	-0.503
Mof_C 	C 	0.6552	0.9865	0.0612	-0.111
Mof_C 	C 	0.4765	0.0621	0.1256	0.409
Mof_C 	C 	0.6176	0.9628	0.0238	-0.016
Mof_C 	C 	0.7107	0.975	0.0764	0.013
Mof_C 	C 	0.4527	0.026	0.1484	-0.142
Mof_C 	C 	0.6356	0.9276	0.0015	0.029
Mof_C 	C 	0.7286	0.9399	0.0541	-0.002
Mof_C 	C 	0.4503	0.0365	0.1896	0.047
Mof_C 	C 	0.4402	0.9809	0.1308	0.056
Mof_C 	C 	0.691	0.9162	0.0166	-0.029
Mof_H 	H 	0.4605	0.0678	0.2025	0.023
Mof_C 	C 	0.4327	0.0011	0.2127	-0.108
Mof_C 	C 	0.4249	0.9454	0.1536	-0.115
Mof_H 	H 	0.442	0.9737	0.1024	0.027
Mof_C 	C 	0.7137	0.8852	0.9891	0.079
Mof_H 	H 	0.4291	0.0089	0.2404	0.062
Mof_C 	C 	0.4204	0.9543	0.1948	0.046
Mof_H 	H 	0.4171	0.9138	0.1408	0.071
Mof_C 	C 	0.691	0.886	0.9421	-0.06
Mof_C 	C 	0.7598	0.857	0.0117	-0.099
Mof_C 	C 	0.4055	0.9156	0.2189	0.036
Mof_C 	C 	0.7144	0.8587	0.9176	0.053
Mof_C 	C 	0.7831	0.8296	0.9872	0.188
Mof_C 	C 	0.4281	0.9145	0.2667	-0.101
Mof_C 	C 	0.3688	0.8792	0.1964	-0.097
Mof_C 	C 	0.7604	0.8304	0.9402	-0.084
Mof_C 	C 	0.6904	0.8569	0.8681	0.025
Mof_C 	C 	0.8407	0.808	0.0151	-0.497
Mof_H 	H 	0.4527	0.9394	0.283	0.066
Mof_C 	C 	0.4144	0.8762	0.291	0.051
Mof_C 	C 	0.3537	0.8427	0.2178	0.034
Mof_H 	H 	0.3533	0.8798	0.1643	0.063
Mof_C 	C 	0.6347	0.852	0.8423	0.012
Mof_C 	C 	0.7269	0.8655	0.847	-0.096
Mof_C 	C 	0.8858	0.8131	0.0032	-0.087
Mof_C 	C 	0.8435	0.7772	0.0503	0.037
Mof_C 	C 	0.3784	0.8407	0.2663	-0.101
Mof_C 	C 	0.4395	0.8759	0.3416	0.009
Mof_C 	C 	0.3147	0.8052	0.1916	0.056
Mof_C 	C 	0.6153	0.8559	0.7954	-0.003
Mof_C 	C 	0.7076	0.8693	0.8001	0.136
Mof_C 	C 	0.9337	0.7874	0.0264	-0.027
Mof_C 	C 	0.8914	0.7515	0.0736	0.086
Mof_H 	H 	0.3699	0.8145	0.2817	0.071
Mof_C 	C 	0.4436	0.9171	0.3665	-0.079
Mof_C 	C 	0.4464	0.8305	0.362	-0.014
Mof_C 	C 	0.2721	0.8163	0.1528	-0.118
Mof_C 	C 	0.319	0.7573	0.2062	-0.116
Mof_C 	C 	0.6518	0.8645	0.7744	-0.138
Mof_C 	C 	0.9365	0.7566	0.0616	-0.029
Mof_H 	H 	0.4311	0.947	0.3513	0.055
Mof_C 	C 	0.4651	0.9161	0.4125	0.026
Mof_C 	C 	0.4598	0.8325	0.4084	0.018
Mof_H 	H 	0.2703	0.8482	0.1411	0.071
Mof_C 	C 	0.2314	0.7844	0.1293	0.057
Mof_C 	C 	0.2808	0.7234	0.1845	0.057
Mof_H 	H 	0.3497	0.7481	0.2324	0.073
Mof_C 	C 	0.6367	0.8752	0.72485	0.407
Mof_C 	C 	0.9897	0.7325	0.0822	0.385
Mof_H 	H 	0.4665	0.9449	0.4292	0.049
Mof_C 	C 	0.4854	0.8719	0.4353	-0.119
Mof_H 	H 	0.2011	0.7943	0.1031	0.024
Mof_C 	C 	0.2361	0.7369	0.1454	-0.14
Mof_H 	H 	0.2843	0.6911	0.1956	0.028
Mof_C 	C 	0.5096	0.8706	0.4853	0.402
Mof_C 	C 	0.193	0.6995	0.1216	0.416
Mof_C 	C 	0.4903	0.8316	0.411	0.035
Mof_C 	C 	0.4674	0.8348	0.364	-0.011
Mof_C 	C 	0.747	0.9218	0.9906	-0.091
Mof_C 	C 	0.7228	0.9214	0.9405	0.066
Mof_C 	C 	0.7503	0.8964	0.9195	-0.089
Mof_C 	C 	0.7983	0.8717	0.9422	0.103
Mof_C 	C 	0.8204	0.8723	0.9905	-0.227
Mof_C 	C 	0.7945	0.8991	0.0119	0.115
Mof_C 	C 	0.859	0.8326	0.0115	0.478
Mof_C 	C 	0.901	0.8279	0.9982	-0.084
Mof_C 	C 	0.946	0.7984	0.0205	0.098
Mof_C 	C 	0.9479	0.7727	0.0577	-0.036
Mof_C 	C 	0.9057	0.7737	0.072	-0.106
Mof_C 	C 	0.8614	0.8072	0.048	0.16
Mof_C 	C 	0.6676	0.8862	0.8431	-0.077
Mof_C 	C 	0.6458	0.8868	0.7981	0.103
Mof_C 	C 	0.6793	0.8895	0.7712	-0.073
Mof_C 	C 	0.7391	0.8899	0.7946	-0.039
Mof_C 	C 	0.758	0.8927	0.844	0.007
Mof_C 	C 	0.7234	0.893	0.8673	0.081
Mof_C 	C 	0.6597	0.9487	0.9966	-0.047
Mof_C 	C 	0.6308	0.9784	0.0149	0.058
Mof_C 	C 	0.7475	0.9765	0.0549	-0.037
Mof_C 	C 	0.7117	0.9918	0.0746	0.033
Mof_C 	C 	0.7167	0.9508	0.016	0.054
Mof_Zn	Zn	0.85096	0.38988	0.86047	1.211
Mof_O 	O 	0.924	0.3673	0.89426	-0.966
Mof_O 	O 	0.833	0.4496	0.8831	-0.49
Mof_O 	O 	0.8333	0.608	0.29384	-0.487
Mof_O 	O 	0.2988	0.843	0.8635	-0.514
Mof_Zn	Zn	0.96696	0.41992	0.93106	1.213
Mof_Zn	Zn	0.95798	0.34443	0.85312	1.202
Mof_Zn	Zn	0.92168	0.31559	0.93468	1.208
Mof_C 	C 	0.8673	0.4758	0.9149	0.375
Mof_O 	O 	0.918	0.4735	0.9282	-0.504
Mof_O 	O 	0.0185	0.4497	0.9092	-0.512
Mof_O 	O 	0.0002	0.5937	0.4948	-0.508
Mof_O 	O 	0.013	0.396	0.8561	-0.499
Mof_O 	O 	0.901	0.6555	0.2901	-0.505
Mof_O 	O 	0.5092	0.7921	0.8864	-0.512
Mof_O 	O 	0.4717	0.7642	0.9333	-0.489
Mof_O 	O 	0.3493	0.7863	0.9098	-0.521
Mof_O 	O 	0.957	0.6633	0.49914	-0.503
Mof_C 	C 	0.8448	0.5135	0.9388	-0.111
Mof_C 	C 	0.0235	0.4379	0.8744	0.409
Mof_C 	C 	0.8824	0.5372	0.9762	-0.018
Mof_C 	C 	0.7893	0.525	0.9236	0.013
Mof_C 	C 	0.0473	0.474	0.8516	-0.142
Mof_C 	C 	0.8644	0.5724	0.9985	0.029
Mof_C 	C 	0.7714	0.5601	0.9459	-0.002
Mof_C 	C 	0.0497	0.4635	0.8104	0.048
Mof_C 	C 	0.0598	0.5191	0.8692	0.057
Mof_C 	C 	0.809	0.5838	0.9834	-0.028
Mof_H 	H 	0.0395	0.4322	0.7975	0.022
Mof_C 	C 	0.0673	0.4989	0.7873	-0.108
Mof_C 	C 	0.0751	0.5546	0.8464	-0.115
Mof_H 	H 	0.058	0.5263	0.8976	0.027
Mof_C 	C 	0.7863	0.6148	0.0109	0.078
Mof_H 	H 	0.0709	0.4911	0.7596	0.063
Mof_C 	C 	0.0796	0.5457	0.8052	0.046
Mof_H 	H 	0.0829	0.5862	0.8592	0.071
Mof_C 	C 	0.809	0.614	0.0579	-0.059
Mof_C 	C 	0.7402	0.643	0.9883	-0.097
Mof_C 	C 	0.0945	0.5844	0.7811	0.036
Mof_C 	C 	0.7856	0.6413	0.0824	0.052
Mof_C 	C 	0.7169	0.6704	0.0128	0.185
Mof_C 	C 	0.0719	0.5855	0.7333	-0.101
Mof_C 	C 	0.1312	0.6208	0.8036	-0.097
Mof_C 	C 	0.7396	0.6696	0.0598	-0.082
Mof_C 	C 	0.8096	0.6431	0.1319	0.025
Mof_C 	C 	0.6593	0.692	0.9849	-0.489
Mof_H 	H 	0.0473	0.5606	0.717	0.066
Mof_C 	C 	0.0856	0.6238	0.709	0.051
Mof_C 	C 	0.1463	0.6573	0.7822	0.034
Mof_H 	H 	0.1467	0.6202	0.8357	0.063
Mof_C 	C 	0.8653	0.648	0.1577	0.012
Mof_C 	C 	0.7731	0.6345	0.153	-0.096
Mof_C 	C 	0.6142	0.6869	0.9968	-0.086
Mof_C 	C 	0.6565	0.7228	0.9497	0.035
Mof_C 	C 	0.1216	0.6593	0.7337	-0.101
Mof_C 	C 	0.0605	0.6241	0.6584	0.009
Mof_C 	C 	0.1853	0.6948	0.8084	0.056
Mof_C 	C 	0.8847	0.6441	0.2046	-0.003
Mof_C 	C 	0.7924	0.6307	0.1999	0.136
Mof_C 	C 	0.5663	0.7126	0.9736	-0.028
Mof_C 	C 	0.6086	0.7485	0.9264	0.087
Mof_H 	H 	0.1301	0.6855	0.7183	0.071
Mof_C 	C 	0.0564	0.5829	0.6335	-0.079
Mof_C 	C 	0.0536	0.6695	0.638	-0.014
Mof_C 	C 	0.2279	0.6837	0.8472	-0.118
Mof_C 	C 	0.181	0.7427	0.7938	-0.116
Mof_C 	C 	0.8482	0.6355	0.2256	-0.139
Mof_C 	C 	0.5635	0.7434	0.9384	-0.028
Mof_H 	H 	0.0689	0.553	0.6487	0.055
Mof_C 	C 	0.0349	0.5839	0.5875	0.026
Mof_C 	C 	0.0402	0.6675	0.5916	0.018
Mof_H 	H 	0.2297	0.6518	0.8589	0.071
Mof_C 	C 	0.2686	0.7156	0.8707	0.058
Mof_C 	C 	0.2192	0.7766	0.8155	0.057
Mof_H 	H 	0.1503	0.7519	0.7676	0.073
Mof_C 	C 	0.8633	0.6248	0.27515	0.407
Mof_C 	C 	0.5103	0.7675	0.9178	0.385
Mof_H 	H 	0.0335	0.5551	0.5708	0.049
Mof_C 	C 	0.0146	0.6281	0.5647	-0.119
Mof_H 	H 	0.2989	0.7057	0.8969	0.024
Mof_C 	C 	0.2639	0.7631	0.8546	-0.14
Mof_H 	H 	0.2157	0.8089	0.8044	0.028
Mof_C 	C 	0.9904	0.6294	0.5147	0.402
Mof_C 	C 	0.307	0.8005	0.8784	0.416
Mof_C 	C 	0.0097	0.6684	0.589	0.035
Mof_C 	C 	0.0326	0.6652	0.636	-0.011
Mof_C 	C 	0.753	0.5782	0.0094	-0.089
Mof_C 	C 	0.7772	0.5786	0.0595	0.065
Mof_C 	C 	0.7497	0.6036	0.0805	-0.088
Mof_C 	C 	0.7017	0.6283	0.0578	0.102
Mof_C 	C 	0.6796	0.6277	0.0095	-0.222
Mof_C 	C 	0.7055	0.6009	0.9881	0.112
Mof_C 	C 	0.641	0.6674	0.9885	0.469
Mof_C 	C 	0.599	0.6721	0.0018	-0.082
Mof_C 	C 	0.554	0.7016	0.9795	0.097
Mof_C 	C 	0.5521	0.7273	0.9423	-0.037
Mof_C 	C 	0.5943	0.7263	0.928	-0.106
Mof_C 	C 	0.6386	0.6928	0.952	0.159
Mof_C 	C 	0.8324	0.6138	0.1569	-0.077
Mof_C 	C 	0.8542	0.6132	0.2019	0.103
Mof_C 	C 	0.8207	0.6105	0.2288	-0.073
Mof_C 	C 	0.7609	0.6101	0.2054	-0.039
Mof_C 	C 	0.742	0.6073	0.156	0.008
Mof_C 	C 	0.7766	0.607	0.1327	0.081
Mof_C 	C 	0.8403	0.5513	0.0034	-0.047
Mof_C 	C 	0.8692	0.5216	0.9851	0.06
Mof_C 	C 	0.7525	0.5235	0.9451	-0.037
Mof_C 	C 	0.7883	0.5082	0.9254	0.033
Mof_C 	C 	0.7833	0.5492	0.984	0.053
Mof_Zn	Zn	0.35096	0.88988	0.86047	1.211
Mof_O 	O 	0.424	0.8673	0.89426	-0.966
Mof_O 	O 	0.333	0.9496	0.8831	-0.49
Mof_O 	O 	0.3333	0.108	0.29384	-0.487
Mof_O 	O 	0.7988	0.343	0.8635	-0.514
Mof_Zn	Zn	0.46696	0.91992	0.93106	1.213
Mof_Zn	Zn	0.45798	0.84443	0.85312	1.202
Mof_Zn	Zn	0.42168	0.81559	0.93468	1.208
Mof_C 	C 	0.3673	0.9758	0.9149	0.375
Mof_O 	O 	0.418	0.9735	0.9282	-0.504
Mof_O 	O 	0.5185	0.9497	0.9092	-0.512
Mof_O 	O 	0.5002	0.0937	0.4948	-0.508
Mof_O 	O 	0.513	0.896	0.8561	-0.499
Mof_O 	O 	0.401	0.1555	0.2901	-0.505
Mof_O 	O 	0.0092	0.2921	0.8864	-0.512
Mof_O 	O 	0.9717	0.2642	0.9333	-0.49
Mof_O 	O 	0.8493	0.2863	0.9098	-0.521
Mof_O 	O 	0.457	0.1633	0.49914	-0.503
Mof_C 	C 	0.3448	0.0135	0.9388	-0.111
Mof_C 	C 	0.5235	0.9379	0.8744	0.409
Mof_C 	C 	0.3824	0.0372	0.9762	-0.016
Mof_C 	C 	0.2893	0.025	0.9236	0.013
Mof_C 	C 	0.5473	0.974	0.8516	-0.142
Mof_C 	C 	0.3644	0.0724	0.9985	0.029
Mof_C 	C 	0.2714	0.0601	0.9459	-0.002
Mof_C 	C 	0.5497	0.9635	0.8104	0.047
Mof_C 	C 	0.5598	0.0191	0.8692	0.056
Mof_C 	C 	0.309	0.0838	0.9834	-0.029
Mof_H 	H 	0.5395	0.9322	0.7975	0.023
Mof_C 	C 	0.5673	0.9989	0.7873	-0.108
Mof_C 	C 	0.5751	0.0546	0.8464	-0.115
Mof_H 	H 	0.558	0.0263	0.8976	0.027
Mof_C 	C 	0.2863	0.1148	0.0109	0.079
Mof_H 	H 	0.5709	0.9911	0.7596	0.062
Mof_C 	C 	0.5796	0.0457	0.8052	0.046
Mof_H 	H 	0.5829	0.0862	0.8592	0.071
Mof_C 	C 	0.309	0.114	0.0579	-0.06
Mof_C 	C 	0.2402	0.143	0.9883	-0.099
Mof_C 	C 	0.5945	0.0844	0.7811	0.036
Mof_C 	C 	0.2856	0.1413	0.0824	0.053
Mof_C 	C 	0.2169	0.1704	0.0128	0.188
Mof_C 	C 	0.5719	0.0855	0.7333	-0.101
Mof_C 	C 	0.6312	0.1208	0.8036	-0.097
Mof_C 	C 	0.2396	0.1696	0.0598	-0.084
Mof_C 	C 	0.3096	0.1431	0.1319	0.025
Mof_C 	C 	0.1593	0.192	0.9849	-0.497
Mof_H 	H 	0.5473	0.0606	0.717	0.066
Mof_C 	C 	0.5856	0.1238	0.709	0.051
Mof_C 	C 	0.6463	0.1573	0.7822	0.034
Mof_H 	H 	0.6467	0.1202	0.8357	0.063
Mof_C 	C 	0.3653	0.148	0.1577	0.012
Mof_C 	C 	0.2731	0.1345	0.153	-0.096
Mof_C 	C 	0.1142	0.1869	0.9968	-0.087
Mof_C 	C 	0.1565	0.2228	0.9497	0.037
Mof_C 	C 	0.6216	0.1593	0.7337	-0.101
Mof_C 	C 	0.5605	0.1241	0.6584	0.009
Mof_C 	C 	0.6853	0.1948	0.8084	0.056
Mof_C 	C 	0.3847	0.1441	0.2046	-0.003
Mof_C 	C 	0.2924	0.1307	0.1999	0.136
Mof_C 	C 	0.0663	0.2126	0.9736	-0.027
Mof_C 	C 	0.1086	0.2485	0.9264	0.086
Mof_H 	H 	0.6301	0.1855	0.7183	0.071
Mof_C 	C 	0.5564	0.0829	0.6335	-0.079
Mof_C 	C 	0.5536	0.1695	0.638	-0.014
Mof_C 	C 	0.7279	0.1837	0.8472	-0.118
Mof_C 	C 	0.681	0.2427	0.7938	-0.116
Mof_C 	C 	0.3482	0.1355	0.2256	-0.138
Mof_C 	C 	0.0635	0.2434	0.9384	-0.029
Mof_H 	H 	0.5689	0.053	0.6487	0.055
Mof_C 	C 	0.5349	0.0839	0.5875	0.026
Mof_C 	C 	0.5402	0.1675	0.5916	0.018
Mof_H 	H 	0.7297	0.1518	0.8589	0.071
Mof_C 	C 	0.7686	0.2156	0.8707	0.057
Mof_C 	C 	0.7192	0.2766	0.8155	0.057
Mof_H 	H 	0.6503	0.2519	0.7676	0.073
Mof_C 	C 	0.3633	0.1248	0.27515	0.407
Mof_C 	C 	0.0103	0.2675	0.9178	0.385
Mof_H 	H 	0.5335	0.0551	0.5708	0.049
Mof_C 	C 	0.5146	0.1281	0.5647	-0.119
Mof_H 	H 	0.7989	0.2057	0.8969	0.024
Mof_C 	C 	0.7639	0.2631	0.8546	-0.14
Mof_H 	H 	0.7157	0.3089	0.8044	0.028
Mof_C 	C 	0.4904	0.1294	0.5147	0.402
Mof_C 	C 	0.807	0.3005	0.8784	0.416
Mof_C 	C 	0.5097	0.1684	0.589	0.035
Mof_C 	C 	0.5326	0.1652	0.636	-0.011
Mof_C 	C 	0.253	0.0782	0.0094	-0.091
Mof_C 	C 	0.2772	0.0786	0.0595	0.066
Mof_C 	C 	0.2497	0.1036	0.0805	-0.089
Mof_C 	C 	0.2017	0.1283	0.0578	0.103
Mof_C 	C 	0.1796	0.1277	0.0095	-0.227
Mof_C 	C 	0.2055	0.1009	0.9881	0.115
Mof_C 	C 	0.141	0.1674	0.9885	0.478
Mof_C 	C 	0.099	0.1721	0.0018	-0.084
Mof_C 	C 	0.054	0.2016	0.9795	0.098
Mof_C 	C 	0.0521	0.2273	0.9423	-0.036
Mof_C 	C 	0.0943	0.2263	0.928	-0.106
Mof_C 	C 	0.1386	0.1928	0.952	0.16
Mof_C 	C 	0.3324	0.1138	0.1569	-0.077
Mof_C 	C 	0.3542	0.1132	0.2019	0.103
Mof_C 	C 	0.3207	0.1105	0.2288	-0.073
Mof_C 	C 	0.2609	0.1101	0.2054	-0.039
Mof_C 	C 	0.242	0.1073	0.156	0.007
Mof_C 	C 	0.2766	0.107	0.1327	0.081
Mof_C 	C 	0.3403	0.0513	0.0034	-0.047
Mof_C 	C 	0.3692	0.0216	0.9851	0.058
Mof_C 	C 	0.2525	0.0235	0.9451	-0.037
Mof_C 	C 	0.2883	0.0082	0.9254	0.033
Mof_C 	C 	0.2833	0.0492	0.984	0.054
Mof_Zn	Zn	0.85096	0.61012	0.36047	1.211
Mof_O 	O 	0.924	0.6327	0.39426	-0.966
Mof_O 	O 	0.833	0.5504	0.3831	-0.49
Mof_O 	O 	0.8333	0.392	0.79384	-0.487
Mof_O 	O 	0.2988	0.157	0.3635	-0.514
Mof_Zn	Zn	0.96696	0.58008	0.43106	1.213
Mof_Zn	Zn	0.95798	0.65557	0.35312	1.202
Mof_Zn	Zn	0.92168	0.68441	0.43468	1.208
Mof_C 	C 	0.8673	0.5242	0.4149	0.375
Mof_O 	O 	0.918	0.5265	0.4282	-0.504
Mof_O 	O 	0.0185	0.5503	0.4092	-0.512
Mof_O 	O 	0.0002	0.4063	0.9948	-0.508
Mof_O 	O 	0.013	0.604	0.3561	-0.499
Mof_O 	O 	0.901	0.3445	0.7901	-0.505
Mof_O 	O 	0.5092	0.2079	0.3864	-0.512
Mof_O 	O 	0.4717	0.2358	0.4333	-0.489
Mof_O 	O 	0.3493	0.2137	0.4098	-0.521
Mof_O 	O 	0.957	0.3367	0.99914	-0.504
Mof_C 	C 	0.8448	0.4865	0.4388	-0.111
Mof_C 	C 	0.0235	0.5621	0.3744	0.409
Mof_C 	C 	0.8824	0.4628	0.4762	-0.015
Mof_C 	C 	0.7893	0.475	0.4236	0.014
Mof_C 	C 	0.0473	0.526	0.3516	-0.142
Mof_C 	C 	0.8644	0.4276	0.4985	0.029
Mof_C 	C 	0.7714	0.4399	0.4459	-0.003
Mof_C 	C 	0.0497	0.5365	0.3104	0.048
Mof_C 	C 	0.0598	0.4809	0.3692	0.057
Mof_C 	C 	0.809	0.4162	0.4834	-0.028
Mof_H 	H 	0.0395	0.5678	0.2975	0.022
Mof_C 	C 	0.0673	0.5011	0.2873	-0.108
Mof_C 	C 	0.0751	0.4454	0.3464	-0.115
Mof_H 	H 	0.058	0.4737	0.3976	0.027
Mof_C 	C 	0.7863	0.3852	0.5109	0.078
Mof_H 	H 	0.0709	0.5089	0.2596	0.063
Mof_C 	C 	0.0796	0.4543	0.3052	0.046
Mof_H 	H 	0.0829	0.4138	0.3592	0.071
Mof_C 	C 	0.809	0.386	0.5579	-0.059
Mof_C 	C 	0.7402	0.357	0.4883	-0.097
Mof_C 	C 	0.0945	0.4156	0.2811	0.036
Mof_C 	C 	0.7856	0.3587	0.5824	0.051
Mof_C 	C 	0.7169	0.3296	0.5128	0.184
Mof_C 	C 	0.0719	0.4145	0.2333	-0.101
Mof_C 	C 	0.1312	0.3792	0.3036	-0.097
Mof_C 	C 	0.7396	0.3304	0.5598	-0.082
Mof_C 	C 	0.8096	0.3569	0.6319	0.025
Mof_C 	C 	0.6593	0.308	0.4849	-0.486
Mof_H 	H 	0.0473	0.4394	0.217	0.066
Mof_C 	C 	0.0856	0.3762	0.209	0.051
Mof_C 	C 	0.1463	0.3427	0.2822	0.034
Mof_H 	H 	0.1467	0.3798	0.3357	0.063
Mof_C 	C 	0.8653	0.352	0.6577	0.012
Mof_C 	C 	0.7731	0.3655	0.653	-0.096
Mof_C 	C 	0.6142	0.3131	0.4968	-0.085
Mof_C 	C 	0.6565	0.2772	0.4497	0.034
Mof_C 	C 	0.1216	0.3407	0.2337	-0.101
Mof_C 	C 	0.0605	0.3759	0.1584	0.009
Mof_C 	C 	0.1853	0.3052	0.3084	0.056
Mof_C 	C 	0.8847	0.3559	0.7046	-0.003
Mof_C 	C 	0.7924	0.3693	0.6999	0.136
Mof_C 	C 	0.5663	0.2874	0.4736	-0.028
Mof_C 	C 	0.6086	0.2515	0.4264	0.087
Mof_H 	H 	0.1301	0.3145	0.2183	0.071
Mof_C 	C 	0.0564	0.4171	0.1335	-0.079
Mof_C 	C 	0.0536	0.3305	0.138	-0.014
Mof_C 	C 	0.2279	0.3163	0.3472	-0.118
Mof_C 	C 	0.181	0.2573	0.2938	-0.116
Mof_C 	C 	0.8482	0.3645	0.7256	-0.139
Mof_C 	C 	0.5635	0.2566	0.4384	-0.027
Mof_H 	H 	0.0689	0.447	0.1487	0.056
Mof_C 	C 	0.0349	0.4161	0.0875	0.026
Mof_C 	C 	0.0402	0.3325	0.0916	0.018
Mof_H 	H 	0.2297	0.3482	0.3589	0.071
Mof_C 	C 	0.2686	0.2844	0.3707	0.058
Mof_C 	C 	0.2192	0.2234	0.3155	0.057
Mof_H 	H 	0.1503	0.2481	0.2676	0.073
Mof_C 	C 	0.8633	0.3752	0.77515	0.407
Mof_C 	C 	0.5103	0.2325	0.4178	0.385
Mof_H 	H 	0.0335	0.4449	0.0708	0.049
Mof_C 	C 	0.0146	0.3719	0.0647	-0.12
Mof_H 	H 	0.2989	0.2943	0.3969	0.024
Mof_C 	C 	0.2639	0.2369	0.3546	-0.14
Mof_H 	H 	0.2157	0.1911	0.3044	0.028
Mof_C 	C 	0.9904	0.3706	0.0147	0.403
Mof_C 	C 	0.307	0.1995	0.3784	0.416
Mof_C 	C 	0.0097	0.3316	0.089	0.035
Mof_C 	C 	0.0326	0.3348	0.136	-0.011
Mof_C 	C 	0.753	0.4218	0.5094	-0.089
Mof_C 	C 	0.7772	0.4214	0.5595	0.064
Mof_C 	C 	0.7497	0.3964	0.5805	-0.087
Mof_C 	C 	0.7017	0.3717	0.5578	0.101
Mof_C 	C 	0.6796	0.3723	0.5095	-0.221
Mof_C 	C 	0.7055	0.3991	0.4881	0.112
Mof_C 	C 	0.641	0.3326	0.4885	0.467
Mof_C 	C 	0.599	0.3279	0.5018	-0.082
Mof_C 	C 	0.554	0.2984	0.4795	0.097
Mof_C 	C 	0.5521	0.2727	0.4423	-0.037
Mof_C 	C 	0.5943	0.2737	0.428	-0.106
Mof_C 	C 	0.6386	0.3072	0.452	0.159
Mof_C 	C 	0.8324	0.3862	0.6569	-0.077
Mof_C 	C 	0.8542	0.3868	0.7019	0.103
Mof_C 	C 	0.8207	0.3895	0.7288	-0.073
Mof_C 	C 	0.7609	0.3899	0.7054	-0.039
Mof_C 	C 	0.742	0.3927	0.656	0.008
Mof_C 	C 	0.7766	0.393	0.6327	0.081
Mof_C 	C 	0.8403	0.4487	0.5034	-0.046
Mof_C 	C 	0.8692	0.4784	0.4851	0.057
Mof_C 	C 	0.7525	0.4765	0.4451	-0.036
Mof_C 	C 	0.7883	0.4918	0.4254	0.033
Mof_C 	C 	0.7833	0.4508	0.484	0.053
Mof_Zn	Zn	0.35096	0.11012	0.36047	1.211
Mof_O 	O 	0.424	0.1327	0.39426	-0.966
Mof_O 	O 	0.333	0.0504	0.3831	-0.49
Mof_O 	O 	0.3333	0.892	0.79384	-0.487
Mof_O 	O 	0.7988	0.657	0.3635	-0.514
Mof_Zn	Zn	0.46696	0.08008	0.43106	1.213
Mof_Zn	Zn	0.45798	0.15557	0.35312	1.202
Mof_Zn	Zn	0.42168	0.18441	0.43468	1.208
Mof_C 	C 	0.3673	0.0242	0.4149	0.375
Mof_O 	O 	0.418	0.0265	0.4282	-0.504
Mof_O 	O 	0.5185	0.0503	0.4092	-0.512
Mof_O 	O 	0.5002	0.9063	0.9948	-0.508
Mof_O 	O 	0.513	0.104	0.3561	-0.499
Mof_O 	O 	0.401	0.8445	0.7901	-0.505
Mof_O 	O 	0.0092	0.7079	0.3864	-0.512
Mof_O 	O 	0.9717	0.7358	0.4333	-0.489
Mof_O 	O 	0.8493	0.7137	0.4098	-0.521
Mof_O 	O 	0.457	0.8367	0.99914	-0.503
Mof_C 	C 	0.3448	0.9865	0.4388	-0.111
Mof_C 	C 	0.5235	0.0621	0.3744	0.409
Mof_C 	C 	0.3824	0.9628	0.4762	-0.015
Mof_C 	C 	0.2893	0.975	0.4236	0.014
Mof_C 	C 	0.5473	0.026	0.3516	-0.142
Mof_C 	C 	0.3644	0.9276	0.4985	0.029
Mof_C 	C 	0.2714	0.9399	0.4459	-0.002
Mof_C 	C 	0.5497	0.0365	0.3104	0.048
Mof_C 	C 	0.5598	0.9809	0.3692	0.057
Mof_C 	C 	0.309	0.9162	0.4834	-0.028
Mof_H 	H 	0.5395	0.0678	0.2975	0.022
Mof_C 	C 	0.5673	0.0011	0.2873	-0.108
Mof_C 	C 	0.5751	0.9454	0.3464	-0.115
Mof_H 	H 	0.558	0.9737	0.3976	0.027
Mof_C 	C 	0.2863	0.8852	0.5109	0.077
Mof_H 	H 	0.5709	0.0089	0.2596	0.063
Mof_C 	C 	0.5796	0.9543	0.3052	0.046
Mof_H 	H 	0.5829	0.9138	0.3592	0.071
Mof_C 	C 	0.309	0.886	0.5579	-0.059
Mof_C 	C 	0.2402	0.857	0.4883	-0.096
Mof_C 	C 	0.5945	0.9156	0.2811	0.036
Mof_C 	C 	0.2856	0.8587	0.5824	0.051
Mof_C 	C 	0.2169	0.8296	0.5128	0.184
Mof_C 	C 	0.5719	0.9145	0.2333	-0.101
Mof_C 	C 	0.6312	0.8792	0.3036	-0.097
Mof_C 	C 	0.2396	0.8304	0.5598	-0.081
Mof_C 	C 	0.3096	0.8569	0.6319	0.025
Mof_C 	C 	0.1593	0.808	0.4849	-0.486
Mof_H 	H 	0.5473	0.9394	0.217	0.066
Mof_C 	C 	0.5856	0.8762	0.209	0.051
Mof_C 	C 	0.6463	0.8427	0.2822	0.034
Mof_H 	H 	0.6467	0.8798	0.3357	0.063
Mof_C 	C 	0.3653	0.852	0.6577	0.012
Mof_C 	C 	0.2731	0.8655	0.653	-0.096
Mof_C 	C 	0.1142	0.8131	0.4968	-0.086
Mof_C 	C 	0.1565	0.7772	0.4497	0.034
Mof_C 	C 	0.6216	0.8407	0.2337	-0.101
Mof_C 	C 	0.5605	0.8759	0.1584	0.009
Mof_C 	C 	0.6853	0.8052	0.3084	0.056
Mof_C 	C 	0.3847	0.8559	0.7046	-0.003
Mof_C 	C 	0.2924	0.8693	0.6999	0.136
Mof_C 	C 	0.0663	0.7874	0.4736	-0.028
Mof_C 	C 	0.1086	0.7515	0.4264	0.087
Mof_H 	H 	0.6301	0.8145	0.2183	0.071
Mof_C 	C 	0.5564	0.9171	0.1335	-0.079
Mof_C 	C 	0.5536	0.8305	0.138	-0.013
Mof_C 	C 	0.7279	0.8163	0.3472	-0.118
Mof_C 	C 	0.681	0.7573	0.2938	-0.116
Mof_C 	C 	0.3482	0.8645	0.7256	-0.139
Mof_C 	C 	0.0635	0.7566	0.4384	-0.027
Mof_H 	H 	0.5689	0.947	0.1487	0.055
Mof_C 	C 	0.5349	0.9161	0.0875	0.026
Mof_C 	C 	0.5402	0.8325	0.0916	0.018
Mof_H 	H 	0.7297	0.8482	0.3589	0.071
Mof_C 	C 	0.7686	0.7844	0.3707	0.058
Mof_C 	C 	0.7192	0.7234	0.3155	0.057
Mof_H 	H 	0.6503	0.7481	0.2676	0.073
Mof_C 	C 	0.3633	0.8752	0.77515	0.407
Mof_C 	C 	0.0103	0.7325	0.4178	0.385
Mof_H 	H 	0.5335	0.9449	0.0708	0.049
Mof_C 	C 	0.5146	0.8719	0.0647	-0.119
Mof_H 	H 	0.7989	0.7943	0.3969	0.024
Mof_C 	C 	0.7639	0.7369	0.3546	-0.14
Mof_H 	H 	0.7157	0.6911	0.3044	0.028
Mof_C 	C 	0.4904	0.8706	0.0147	0.401
Mof_C 	C 	0.807	0.6995	0.3784	0.416
Mof_C 	C 	0.5097	0.8316	0.089	0.035
Mof_C 	C 	0.5326	0.8348	0.136	-0.011
Mof_C 	C 	0.253	0.9218	0.5094	-0.089
Mof_C 	C 	0.2772	0.9214	0.5595	0.064
Mof_C 	C 	0.2497	0.8964	0.5805	-0.087
Mof_C 	C 	0.2017	0.8717	0.5578	0.101
Mof_C 	C 	0.1796	0.8723	0.5095	-0.221
Mof_C 	C 	0.2055	0.8991	0.4881	0.112
Mof_C 	C 	0.141	0.8326	0.4885	0.466
Mof_C 	C 	0.099	0.8279	0.5018	-0.082
Mof_C 	C 	0.054	0.7984	0.4795	0.097
Mof_C 	C 	0.0521	0.7727	0.4423	-0.037
Mof_C 	C 	0.0943	0.7737	0.428	-0.107
Mof_C 	C 	0.1386	0.8072	0.452	0.159
Mof_C 	C 	0.3324	0.8862	0.6569	-0.077
Mof_C 	C 	0.3542	0.8868	0.7019	0.103
Mof_C 	C 	0.3207	0.8895	0.7288	-0.073
Mof_C 	C 	0.2609	0.8899	0.7054	-0.039
Mof_C 	C 	0.242	0.8927	0.656	0.008
Mof_C 	C 	0.2766	0.893	0.6327	0.081
Mof_C 	C 	0.3403	0.9487	0.5034	-0.046
Mof_C 	C 	0.3692	0.9784	0.4851	0.057
Mof_C 	C 	0.2525	0.9765	0.4451	-0.037
Mof_C 	C 	0.2883	0.9918	0.4254	0.033
Mof_C 	C 	0.2833	0.9508	0.484	0.053
_end
