# CIF file generated by openbabel 3.1.0, see https://openbabel.org
data_I
_chemical_name_common 'image0'
_cell_length_a 13.2909
_cell_length_b 13.2909
_cell_length_c 14.356
_cell_angle_alpha 90
_cell_angle_beta 90
_cell_angle_gamma 90
_space_group_name_H-M_alt 'P 1'
_space_group_name_Hall 'P 1'
loop_
    _symmetry_equiv_pos_as_xyz
    x,y,z
loop_
    _atom_site_label
    _atom_site_type_symbol
    _atom_site_fract_x
    _atom_site_fract_y
    _atom_site_fract_z
    _atom_site_occupancy
    N1       N        0.11116    0.99282    0.20313    1.000
    N2       N        0.86751    0.01515    0.29506    1.000
    C1       C        0.20793    0.98920    0.17550    1.000
    H1       H        0.22860    0.98060    0.11410    1.000
    C2       C        0.43648    0.02330    0.32953    1.000
    H2       H        0.40200    0.04020    0.38370    1.000
    C3       C        0.54170    0.02190    0.32961    1.000
    H3       H        0.57590    0.03610    0.38460    1.000
    C4       C        0.77138    0.02450    0.32160    1.000
    H4       H        0.75080    0.04490    0.38060    1.000
    N3       N        0.88884    0.00718    0.70313    1.000
    N4       N        0.13249    0.98485    0.79506    1.000
    C5       C        0.79207    0.01080    0.67550    1.000
    H5       H        0.77140    0.01940    0.61410    1.000
    C6       C        0.56352    0.97670    0.82953    1.000
    H6       H        0.59800    0.95980    0.88370    1.000
    C7       C        0.45830    0.97810    0.82961    1.000
    H7       H        0.42410    0.96390    0.88460    1.000
    C8       C        0.22862    0.97550    0.82160    1.000
    H8       H        0.24920    0.95510    0.88060    1.000
    N5       N        0.00718    0.11116    0.95313    1.000
    N6       N        0.98485    0.86751    0.04506    1.000
    C9       C        0.01080    0.20793    0.92550    1.000
    H9       H        0.01940    0.22860    0.86410    1.000
    C10      C        0.97670    0.43648    0.07953    1.000
    H10      H        0.95980    0.40200    0.13370    1.000
    C11      C        0.97810    0.54170    0.07961    1.000
    H11      H        0.96390    0.57590    0.13460    1.000
    C12      C        0.97550    0.77138    0.07160    1.000
    H12      H        0.95510    0.75080    0.13060    1.000
    N7       N        0.99282    0.88884    0.45313    1.000
    N8       N        0.01515    0.13249    0.54506    1.000
    C13      C        0.98920    0.79207    0.42550    1.000
    H13      H        0.98060    0.77140    0.36410    1.000
    C14      C        0.02330    0.56352    0.57953    1.000
    H14      H        0.04020    0.59800    0.63370    1.000
    C15      C        0.02190    0.45830    0.57961    1.000
    H15      H        0.03610    0.42410    0.63460    1.000
    C16      C        0.02450    0.22862    0.57160    1.000
    H16      H        0.04490    0.24920    0.63060    1.000
    N9       N        0.88884    0.99282    0.79687    1.000
    N10      N        0.13249    0.01515    0.70494    1.000
    C17      C        0.79207    0.98920    0.82450    1.000
    H17      H        0.77140    0.98060    0.88590    1.000
    C18      C        0.56352    0.02330    0.67047    1.000
    H18      H        0.59800    0.04020    0.61630    1.000
    C19      C        0.45830    0.02190    0.67039    1.000
    H19      H        0.42410    0.03610    0.61540    1.000
    C20      C        0.22862    0.02450    0.67840    1.000
    H20      H        0.24920    0.04490    0.61940    1.000
    N11      N        0.11116    0.00718    0.29687    1.000
    N12      N        0.86751    0.98485    0.20494    1.000
    C21      C        0.20793    0.01080    0.32450    1.000
    H21      H        0.22860    0.01940    0.38590    1.000
    C22      C        0.43648    0.97670    0.17047    1.000
    H22      H        0.40200    0.95980    0.11630    1.000
    C23      C        0.54170    0.97810    0.17039    1.000
    H23      H        0.57590    0.96390    0.11540    1.000
    C24      C        0.77138    0.97550    0.17840    1.000
    H24      H        0.75080    0.95510    0.11940    1.000
    N13      N        0.99282    0.11116    0.04687    1.000
    N14      N        0.01515    0.86751    0.95494    1.000
    C25      C        0.98920    0.20793    0.07450    1.000
    H25      H        0.98060    0.22860    0.13590    1.000
    C26      C        0.02330    0.43648    0.92047    1.000
    H26      H        0.04020    0.40200    0.86630    1.000
    C27      C        0.02190    0.54170    0.92039    1.000
    H27      H        0.03610    0.57590    0.86540    1.000
    C28      C        0.02450    0.77138    0.92840    1.000
    H28      H        0.04490    0.75080    0.86940    1.000
    N15      N        0.00718    0.88884    0.54687    1.000
    N16      N        0.98485    0.13249    0.45494    1.000
    C29      C        0.01080    0.79207    0.57450    1.000
    H29      H        0.01940    0.77140    0.63590    1.000
    C30      C        0.97670    0.56352    0.42047    1.000
    H30      H        0.95980    0.59800    0.36630    1.000
    C31      C        0.97810    0.45830    0.42039    1.000
    H31      H        0.96390    0.42410    0.36540    1.000
    C32      C        0.97550    0.22862    0.42840    1.000
    H32      H        0.95510    0.24920    0.36940    1.000
    Co1      Co       0.98912    0.98912    0.12500    1.000
    Co2      Co       0.01088    0.01088    0.62500    1.000
    Co3      Co       0.01088    0.98912    0.87500    1.000
    Co4      Co       0.98912    0.01088    0.37500    1.000
    C33      C        0.27240    0.00000    0.25000    1.000
    C34      C        0.38350    0.00000    0.25000    1.000
    C35      C        0.59610    0.00000    0.25000    1.000
    C36      C        0.70710    0.00000    0.25000    1.000
    C37      C        0.72760    0.00000    0.75000    1.000
    C38      C        0.61650    0.00000    0.75000    1.000
    C39      C        0.40390    0.00000    0.75000    1.000
    C40      C        0.29290    0.00000    0.75000    1.000
    C41      C        0.00000    0.27240    0.00000    1.000
    C42      C        0.00000    0.38350    0.00000    1.000
    C43      C        0.00000    0.59610    0.00000    1.000
    C44      C        0.00000    0.70710    0.00000    1.000
    C45      C        0.00000    0.72760    0.50000    1.000
    C46      C        0.00000    0.61650    0.50000    1.000
    C47      C        0.00000    0.40390    0.50000    1.000
    C48      C        0.00000    0.29290    0.50000    1.000
