data_functionalizedCrystal
_audit_creation_method	'EQeq! by Chris Wilmer'
_symmetry_space_group_name_H-M	'P1'
_symmetry_Int_Tables_number	1
_symmetry_cell_setting	triclinic
loop_
_symmetry_equiv_pos_as_xyz
  x,y,z
_cell_length_a	14.6242
_cell_length_b	14.6242
_cell_length_c	15.187
_cell_angle_alpha	90
_cell_angle_beta	90
_cell_angle_gamma	120
loop_
_atom_site_label
_atom_site_type_symbol
_atom_site_fract_x
_atom_site_fract_y
_atom_site_fract_z
_atom_site_charge
Mof_Dy	Dy	0.33333	0.66666	0.75	2.214
Mof_Dy	Dy	0.66667	0.33334	0.75	2.213
Mof_Dy	Dy	0.66667	0.33334	0.25	2.199
Mof_Dy	Dy	0.33333	0.66666	0.25	2.199
Mof_Cu	Cu	1.7245e-17	0.5	0.5	0.916
Mof_Cu	Cu	0.5	0	0.5	0.916
Mof_Cu	Cu	0.5	0.5	0.5	0.951
Mof_Cu	Cu	0.5	0.5	-0	0.892
Mof_Cu	Cu	0.5	0	-0	0.858
Mof_Cu	Cu	-0	0.5	-0	0.858
Mof_H 	H 	0.1623	0.7963	0.6596	0.101
Mof_H 	H 	0.0875	0.7176	0.732	0.078
Mof_H 	H 	0.634	0.8377	0.6596	0.117
Mof_H 	H 	0.6301	0.9125	0.732	0.128
Mof_H 	H 	0.2037	0.366	0.6596	0.079
Mof_H 	H 	0.2824	0.3699	0.732	0.087
Mof_H 	H 	0.8377	0.2037	0.6596	0.097
Mof_H 	H 	0.9125	0.2824	0.732	0.116
Mof_H 	H 	0.366	0.1623	0.6596	0.081
Mof_H 	H 	0.3699	0.0875	0.732	0.068
Mof_H 	H 	0.7963	0.634	0.6596	0.12
Mof_H 	H 	0.7176	0.6301	0.732	0.109
Mof_H 	H 	0.366	0.2037	0.8404	0.095
Mof_H 	H 	0.3699	0.2824	0.768	0.085
Mof_H 	H 	0.7963	0.1623	0.8404	0.116
Mof_H 	H 	0.7176	0.0875	0.768	0.077
Mof_H 	H 	0.8377	0.634	0.8404	0.133
Mof_H 	H 	0.9125	0.6301	0.768	0.127
Mof_H 	H 	0.634	0.7963	0.8404	0.135
Mof_H 	H 	0.6301	0.7176	0.768	0.108
Mof_H 	H 	0.2037	0.8377	0.8404	0.113
Mof_H 	H 	0.2824	0.9125	0.768	0.115
Mof_H 	H 	0.1623	0.366	0.8404	0.097
Mof_H 	H 	0.0875	0.3699	0.768	0.066
Mof_H 	H 	0.8377	0.2037	0.3404	0.092
Mof_H 	H 	0.9125	0.2824	0.268	0.107
Mof_H 	H 	0.366	0.1623	0.3404	0.075
Mof_H 	H 	0.3699	0.0875	0.268	0.056
Mof_H 	H 	0.7963	0.634	0.3404	0.115
Mof_H 	H 	0.7176	0.6301	0.268	0.099
Mof_H 	H 	0.1623	0.7963	0.3404	0.096
Mof_H 	H 	0.0875	0.7176	0.268	0.068
Mof_H 	H 	0.634	0.8377	0.3404	0.113
Mof_H 	H 	0.6301	0.9125	0.268	0.118
Mof_H 	H 	0.2037	0.366	0.3404	0.074
Mof_H 	H 	0.2824	0.3699	0.268	0.076
Mof_H 	H 	0.634	0.7963	0.1596	0.1
Mof_H 	H 	0.6301	0.7176	0.232	0.099
Mof_H 	H 	0.2037	0.8377	0.1596	0.077
Mof_H 	H 	0.2824	0.9125	0.232	0.107
Mof_H 	H 	0.1623	0.366	0.1596	0.059
Mof_H 	H 	0.0875	0.3699	0.232	0.056
Mof_H 	H 	0.366	0.2037	0.1596	0.058
Mof_H 	H 	0.3699	0.2824	0.232	0.076
Mof_H 	H 	0.7963	0.1623	0.1596	0.081
Mof_H 	H 	0.7176	0.0875	0.232	0.068
Mof_H 	H 	0.8377	0.634	0.1596	0.097
Mof_H 	H 	0.9125	0.6301	0.232	0.118
Mof_C 	C 	0.1306	0.645	0.6391	0.431
Mof_C 	C 	0.1494	0.7367	0.6962	-0.196
Mof_C 	C 	0.5144	0.8694	0.6391	0.442
Mof_C 	C 	0.5873	0.8506	0.6962	-0.22
Mof_C 	C 	0.355	0.4856	0.6391	0.427
Mof_C 	C 	0.2633	0.4127	0.6962	-0.184
Mof_C 	C 	0.8694	0.355	0.6391	0.434
Mof_C 	C 	0.8506	0.2633	0.6962	-0.203
Mof_C 	C 	0.4856	0.1306	0.6391	0.423
Mof_C 	C 	0.4127	0.1494	0.6962	-0.179
Mof_C 	C 	0.645	0.5144	0.6391	0.443
Mof_C 	C 	0.7367	0.5873	0.6962	-0.218
Mof_C 	C 	0.4856	0.355	0.8609	0.423
Mof_C 	C 	0.4127	0.2633	0.8038	-0.181
Mof_C 	C 	0.645	0.1306	0.8609	0.427
Mof_C 	C 	0.7367	0.1494	0.8038	-0.193
Mof_C 	C 	0.8694	0.5144	0.8609	0.439
Mof_C 	C 	0.8506	0.5873	0.8038	-0.218
Mof_C 	C 	0.5144	0.645	0.8609	0.439
Mof_C 	C 	0.5873	0.7367	0.8038	-0.215
Mof_C 	C 	0.355	0.8694	0.8609	0.432
Mof_C 	C 	0.2633	0.8506	0.8038	-0.201
Mof_C 	C 	0.1306	0.4856	0.8609	0.42
Mof_C 	C 	0.1494	0.4127	0.8038	-0.176
Mof_C 	C 	0.8694	0.355	0.3609	0.431
Mof_C 	C 	0.8506	0.2633	0.3038	-0.195
Mof_C 	C 	0.4856	0.1306	0.3609	0.419
Mof_C 	C 	0.4127	0.1494	0.3038	-0.169
Mof_C 	C 	0.645	0.5144	0.3609	0.439
Mof_C 	C 	0.7367	0.5873	0.3038	-0.209
Mof_C 	C 	0.1306	0.645	0.3609	0.427
Mof_C 	C 	0.1494	0.7367	0.3038	-0.187
Mof_C 	C 	0.5144	0.8694	0.3609	0.439
Mof_C 	C 	0.5873	0.8506	0.3038	-0.212
Mof_C 	C 	0.355	0.4856	0.3609	0.422
Mof_C 	C 	0.2633	0.4127	0.3038	-0.174
Mof_C 	C 	0.5144	0.645	0.1391	0.436
Mof_C 	C 	0.5873	0.7367	0.1962	-0.208
Mof_C 	C 	0.355	0.8694	0.1391	0.428
Mof_C 	C 	0.2633	0.8506	0.1962	-0.193
Mof_C 	C 	0.1306	0.4856	0.1391	0.415
Mof_C 	C 	0.1494	0.4127	0.1962	-0.168
Mof_C 	C 	0.4856	0.355	0.1391	0.419
Mof_C 	C 	0.4127	0.2633	0.1962	-0.173
Mof_C 	C 	0.645	0.1306	0.1391	0.424
Mof_C 	C 	0.7367	0.1494	0.1962	-0.185
Mof_C 	C 	0.8694	0.5144	0.1391	0.435
Mof_C 	C 	0.8506	0.5873	0.1962	-0.21
Mof_O 	O 	0.1955	0.6125	0.6444	-0.491
Mof_O 	O 	0.0529	0.6103	0.5894	-0.441
Mof_O 	O 	0.417	0.8045	0.6444	-0.477
Mof_O 	O 	0.5574	0.9471	0.5894	-0.378
Mof_O 	O 	0.3875	0.583	0.6444	-0.483
Mof_O 	O 	0.3897	0.4426	0.5894	-0.42
Mof_O 	O 	0.8045	0.3875	0.6444	-0.475
Mof_O 	O 	0.9471	0.3897	0.5894	-0.38
Mof_O 	O 	0.583	0.1955	0.6444	-0.489
Mof_O 	O 	0.4426	0.0529	0.5894	-0.443
Mof_O 	O 	0.6125	0.417	0.6444	-0.487
Mof_O 	O 	0.6103	0.5574	0.5894	-0.415
Mof_O 	O 	0.583	0.3875	0.8556	-0.457
Mof_O 	O 	0.4426	0.3897	0.9106	-0.362
Mof_O 	O 	0.6125	0.1955	0.8556	-0.465
Mof_O 	O 	0.6103	0.0529	0.9106	-0.383
Mof_O 	O 	0.8045	0.417	0.8556	-0.452
Mof_O 	O 	0.9471	0.5574	0.9106	-0.322
Mof_O 	O 	0.417	0.6125	0.8556	-0.461
Mof_O 	O 	0.5574	0.6103	0.9106	-0.357
Mof_O 	O 	0.3875	0.8045	0.8556	-0.45
Mof_O 	O 	0.3897	0.9471	0.9106	-0.324
Mof_O 	O 	0.1955	0.583	0.8556	-0.464
Mof_O 	O 	0.0529	0.4426	0.9106	-0.385
Mof_O 	O 	0.8045	0.3875	0.3556	-0.472
Mof_O 	O 	0.9471	0.3897	0.4106	-0.379
Mof_O 	O 	0.583	0.1955	0.3556	-0.486
Mof_O 	O 	0.4426	0.0529	0.4106	-0.442
Mof_O 	O 	0.6125	0.417	0.3556	-0.484
Mof_O 	O 	0.6103	0.5574	0.4106	-0.414
Mof_O 	O 	0.1955	0.6125	0.3556	-0.488
Mof_O 	O 	0.0529	0.6103	0.4106	-0.44
Mof_O 	O 	0.417	0.8045	0.3556	-0.474
Mof_O 	O 	0.5574	0.9471	0.4106	-0.377
Mof_O 	O 	0.3875	0.583	0.3556	-0.48
Mof_O 	O 	0.3897	0.4426	0.4106	-0.419
Mof_O 	O 	0.417	0.6125	0.1444	-0.502
Mof_O 	O 	0.5574	0.6103	0.0894	-0.447
Mof_O 	O 	0.3875	0.8045	0.1444	-0.491
Mof_O 	O 	0.3897	0.9471	0.0894	-0.411
Mof_O 	O 	0.1955	0.583	0.1444	-0.505
Mof_O 	O 	0.0529	0.4426	0.0894	-0.475
Mof_O 	O 	0.583	0.3875	0.1444	-0.499
Mof_O 	O 	0.4426	0.3897	0.0894	-0.453
Mof_O 	O 	0.6125	0.1955	0.1444	-0.507
Mof_O 	O 	0.6103	0.0529	0.0894	-0.473
Mof_O 	O 	0.8045	0.417	0.1444	-0.492
Mof_O 	O 	0.9471	0.5574	0.0894	-0.409
Mof_O 	O 	0.23615	0.76385	0.75	-0.256
Mof_O 	O 	0.5277	0.76385	0.75	-0.244
Mof_O 	O 	0.23615	0.4723	0.75	-0.268
Mof_O 	O 	0.76385	0.23615	0.75	-0.256
Mof_O 	O 	0.4723	0.23615	0.75	-0.268
Mof_O 	O 	0.76385	0.5277	0.75	-0.244
Mof_O 	O 	0.76385	0.23615	0.25	-0.263
Mof_O 	O 	0.4723	0.23615	0.25	-0.276
Mof_O 	O 	0.76385	0.5277	0.25	-0.251
Mof_O 	O 	0.23615	0.76385	0.25	-0.263
Mof_O 	O 	0.5277	0.76385	0.25	-0.251
Mof_O 	O 	0.23615	0.4723	0.25	-0.276
_end
