data_functionalizedCrystal
_audit_creation_method	'EQeq! by Chris Wilmer'
_symmetry_space_group_name_H-M	'P1'
_symmetry_Int_Tables_number	1
_symmetry_cell_setting	triclinic
loop_
_symmetry_equiv_pos_as_xyz
  x,y,z
_cell_length_a	9.057
_cell_length_b	12.606
_cell_length_c	14.623
_cell_angle_alpha	89.547
_cell_angle_beta	86.53
_cell_angle_gamma	72.512
loop_
_atom_site_label
_atom_site_type_symbol
_atom_site_fract_x
_atom_site_fract_y
_atom_site_fract_z
_atom_site_charge
Mof_Fe	Fe	0.18119	0.06253	0.23973	0.997
Mof_Al	Al	0.03642	0.80503	0.3943	3.42
Mof_Al	Al	0.0465	0.36635	0.11213	5.723
Mof_Al	Al	0.0589	0.8531	0.12075	6.388
Mof_Al	Al	0.6894	0.19076	0.25222	5.664
Mof_Al	Al	0.0626	0.37223	0.36106	4.716
Mof_Al	Al	0.6805	0.6862	0.2629	6.12
Mof_P 	P 	0.3288	0.23759	0.2186	1.13
Mof_P 	P 	0.7673	0.92576	0.2705	1.388
Mof_P 	P 	0.8618	0.61968	0.43349	1.213
Mof_P 	P 	0.7863	0.4222	0.21626	1.173
Mof_P 	P 	0.3185	0.80577	0.25652	1.258
Mof_P 	P 	0.9608	0.63374	0.10442	1.712
Mof_P 	P 	0.9623	0.13032	0.09852	1.585
Mof_P 	P 	0.9173	0.1707	0.402	0.978
Mof_O 	O 	0.2528	0.3197	0.1438	-1.374
Mof_O 	O 	0.9577	0.3891	0.2457	-1.816
Mof_O 	O 	0.7159	0.6757	0.3822	-1.613
Mof_O 	O 	0.9478	0.2825	0.4048	-1.181
Mof_O 	O 	0.0605	0.5132	0.1232	-1.477
Mof_O 	O 	0.7984	0.1507	0.1435	-1.588
Mof_O 	O 	0.2228	0.2583	0.3062	-1.317
Mof_O 	O 	0.9077	0.4954	0.4139	-1.237
Mof_O 	O 	0.071	0.0179	0.1339	-1.311
Mof_O 	O 	0.2476	0.8184	0.164	-1.709
Mof_O 	O 	0.0357	0.2178	0.126	-1.522
Mof_O 	O 	0.6878	0.5335	0.2544	-1.34
Mof_O 	O 	0.9	0.6433	0.0092	-1.618
Mof_O 	O 	0.8212	0.6446	0.5356	-1.31
Mof_O 	O 	0.82	0.4219	0.1108	-1.223
Mof_O 	O 	0.7063	0.3377	0.2468	-1.289
Mof_O 	O 	0.6687	0.0454	0.2677	-1.32
Mof_O 	O 	0.9951	0.6649	0.398	-1.135
Mof_O 	O 	0.6612	0.8514	0.266	-1.2
Mof_O 	O 	0.4866	0.251	0.2336	-1.458
Mof_O 	O 	0.9535	0.1206	0.9959	-1.914
Mof_O 	O 	0.349	0.1174	0.1875	-0.525
Mof_O 	O 	0.0646	0.7081	0.1148	-1.75
Mof_O 	O 	0.883	0.899	0.1884	-1.835
Mof_O 	O 	0.8493	0.9044	0.36	-1.139
Mof_O 	O 	0.8213	0.6699	0.1721	-1.827
Mof_O 	O 	0.7537	0.1855	0.3702	-1.369
Mof_O 	O 	0.4814	0.7241	0.2437	-1.608
Mof_O 	O 	0.9195	0.1263	0.5011	-0.464
Mof_O 	O 	0.0385	0.0857	0.3425	-0.697
Mof_O 	O 	0.2222	0.7586	0.3247	-1.191
Mof_O 	O 	0.3203	0.9188	0.2883	-0.594
Mof_Fe	Fe	0.96358	0.19497	0.6057	1.095
Mof_Fe	Fe	0.81881	0.93747	0.76027	1.013
Mof_Al	Al	0.9535	0.63365	0.88787	5.97
Mof_Al	Al	0.9411	0.1469	0.87925	6.701
Mof_Al	Al	0.3106	0.80924	0.74778	5.616
Mof_Al	Al	0.9374	0.62777	0.63894	5.2
Mof_Al	Al	0.3195	0.3138	0.7371	5.998
Mof_P 	P 	0.6712	0.76241	0.7814	1.155
Mof_P 	P 	0.2327	0.07424	0.7295	1.325
Mof_P 	P 	0.1382	0.38032	0.56651	1.122
Mof_P 	P 	0.2137	0.5778	0.78374	1.185
Mof_P 	P 	0.6815	0.19423	0.74348	1.163
Mof_P 	P 	0.0392	0.36626	0.89558	1.595
Mof_P 	P 	0.0377	0.86968	0.90148	1.454
Mof_P 	P 	0.0827	0.8293	0.598	1
Mof_O 	O 	0.7472	0.6803	0.8562	-1.42
Mof_O 	O 	0.0423	0.6109	0.7543	-1.977
Mof_O 	O 	0.2841	0.3243	0.6178	-1.552
Mof_O 	O 	0.0522	0.7175	0.5952	-1.383
Mof_O 	O 	0.9395	0.4868	0.8768	-1.44
Mof_O 	O 	0.2016	0.8493	0.8565	-1.577
Mof_O 	O 	0.7772	0.7417	0.6938	-1.403
Mof_O 	O 	0.0923	0.5046	0.5861	-1.35
Mof_O 	O 	0.929	0.9821	0.8661	-1.276
Mof_O 	O 	0.7524	0.1816	0.836	-1.729
Mof_O 	O 	0.9643	0.7822	0.874	-1.481
Mof_O 	O 	0.3122	0.4665	0.7456	-1.325
Mof_O 	O 	0.1	0.3567	0.9908	-1.588
Mof_O 	O 	0.1788	0.3554	0.4644	-1.205
Mof_O 	O 	0.18	0.5781	0.8892	-1.29
Mof_O 	O 	0.2937	0.6623	0.7532	-1.293
Mof_O 	O 	0.3313	0.9546	0.7323	-1.319
Mof_O 	O 	0.0049	0.3351	0.602	-0.711
Mof_O 	O 	0.3388	0.1486	0.734	-1.158
Mof_O 	O 	0.5134	0.749	0.7664	-1.457
Mof_O 	O 	0.0465	0.8794	0.0041	-1.865
Mof_O 	O 	0.651	0.8826	0.8125	-0.534
Mof_O 	O 	0.9354	0.2919	0.8852	-1.716
Mof_O 	O 	0.117	0.101	0.8116	-1.884
Mof_O 	O 	0.1507	0.0956	0.64	-0.658
Mof_O 	O 	0.1787	0.3301	0.8279	-1.786
Mof_O 	O 	0.2463	0.8145	0.6298	-1.377
Mof_O 	O 	0.5186	0.2759	0.7563	-1.567
Mof_O 	O 	0.0805	0.8737	0.4989	-0.982
Mof_O 	O 	0.9615	0.9143	0.6575	-0.616
Mof_O 	O 	0.7778	0.2414	0.6753	-0.648
Mof_O 	O 	0.6797	0.0812	0.7117	-0.539
_end
