# CIF file generated by openbabel 3.1.0, see https://openbabel.org
data_I
_chemical_name_common 'GAYTEH_ion_b'
_cell_length_a 24.3984
_cell_length_b 24.3984
_cell_length_c 24.3984
_cell_angle_alpha 90
_cell_angle_beta 90
_cell_angle_gamma 90
_space_group_name_H-M_alt 'P 1'
_space_group_name_Hall 'P 1'
loop_
    _symmetry_equiv_pos_as_xyz
    x,y,z
loop_
    _atom_site_label
    _atom_site_type_symbol
    _atom_site_fract_x
    _atom_site_fract_y
    _atom_site_fract_z
    _atom_site_occupancy
    Cu1      Cu       0.78169    0.10923    0.06471    1.000
    Cu2      Cu       0.00803    0.15265    0.80254    1.000
    O3       O        0.80422    0.10490    0.98774    1.000
    O4       O        0.72640    0.06270    0.97130    1.000
    O5       O        0.93839    0.13081    0.83571    1.000
    O6       O        0.73521    0.02660    0.71563    1.000
    O7       O        0.91760    0.10100    0.75290    1.000
    O8       O        0.66735    0.04946    0.77287    1.000
    O9       O        0.81379    0.04013    0.08234    1.000
    H10      H        0.82900    0.02170    0.05730    1.000
    N11      N        0.77910    0.07940    0.17890    1.000
    N12      N        0.77050    0.12110    0.14310    1.000
    C13      C        0.78490    0.08030    0.89560    1.000
    C14      C        0.77000    0.08230    0.95590    1.000
    C15      C        0.85020    0.09200    0.82260    1.000
    C16      C        0.83710    0.09530    0.87770    1.000
    H17      H        0.86300    0.10760    0.90270    1.000
    C18      C        0.74590    0.06300    0.85770    1.000
    H19      H        0.71090    0.05350    0.86940    1.000
    C20      C        0.75910    0.05990    0.80250    1.000
    C21      C        0.71740    0.04370    0.76060    1.000
    C22      C        0.81120    0.07370    0.78530    1.000
    H23      H        0.82020    0.07080    0.74830    1.000
    C24      C        0.90560    0.10880    0.80210    1.000
    C25      C        0.76100    0.16610    0.17270    1.000
    H26      H        0.75300    0.20040    0.15800    1.000
    C27      C        0.77570    0.10030    0.22990    1.000
    H28      H        0.78030    0.08020    0.26190    1.000
    C29      C        0.76450    0.15490    0.22800    1.000
    H30      H        0.76030    0.17910    0.25720    1.000
    Na31     Na       0.92440    0.07720    0.66160    1.000
    O32      O        0.84350    0.01320    0.65240    1.000
    O33      O        0.94490    0.98910    0.70200    1.000
    O34      O        0.01790    0.06270    0.67360    1.000
    Cu37     Cu       0.71831    0.89077    0.56471    1.000
    Cu38     Cu       0.49197    0.84735    0.30254    1.000
    O39      O        0.69578    0.89510    0.48774    1.000
    O40      O        0.77360    0.93730    0.47130    1.000
    O41      O        0.56161    0.86919    0.33571    1.000
    O42      O        0.76479    0.97340    0.21563    1.000
    O43      O        0.58240    0.89900    0.25290    1.000
    O44      O        0.83265    0.95054    0.27287    1.000
    O45      O        0.68621    0.95987    0.58234    1.000
    H46      H        0.67100    0.97830    0.55730    1.000
    N47      N        0.72090    0.92060    0.67890    1.000
    N48      N        0.72950    0.87890    0.64310    1.000
    C49      C        0.71510    0.91970    0.39560    1.000
    C50      C        0.73000    0.91770    0.45590    1.000
    C51      C        0.64980    0.90800    0.32260    1.000
    C52      C        0.66290    0.90470    0.37770    1.000
    H53      H        0.63700    0.89240    0.40270    1.000
    C54      C        0.75410    0.93700    0.35770    1.000
    H55      H        0.78910    0.94650    0.36940    1.000
    C56      C        0.74090    0.94010    0.30250    1.000
    C57      C        0.78260    0.95630    0.26060    1.000
    C58      C        0.68880    0.92630    0.28530    1.000
    H59      H        0.67980    0.92920    0.24830    1.000
    C60      C        0.59440    0.89120    0.30210    1.000
    C61      C        0.73900    0.83390    0.67270    1.000
    H62      H        0.74700    0.79960    0.65800    1.000
    C63      C        0.72430    0.89970    0.72990    1.000
    H64      H        0.71970    0.91980    0.76190    1.000
    C65      C        0.73550    0.84510    0.72800    1.000
    H66      H        0.73970    0.82090    0.75720    1.000
    Na67     Na       0.57560    0.92280    0.16160    1.000
    O68      O        0.65650    0.98680    0.15240    1.000
    O69      O        0.55510    0.01090    0.20200    1.000
    O70      O        0.48210    0.93730    0.17360    1.000
    Cu73     Cu       0.21831    0.60923    0.43529    1.000
    Cu74     Cu       0.99197    0.65265    0.69746    1.000
    O75      O        0.19578    0.60490    0.51226    1.000
    O76      O        0.27360    0.56270    0.52870    1.000
    O77      O        0.06161    0.63081    0.66429    1.000
    O78      O        0.26479    0.52660    0.78437    1.000
    O79      O        0.08240    0.60100    0.74710    1.000
    O80      O        0.33265    0.54946    0.72713    1.000
    O81      O        0.18621    0.54013    0.41766    1.000
    H82      H        0.17100    0.52170    0.44270    1.000
    N83      N        0.22090    0.57940    0.32110    1.000
    N84      N        0.22950    0.62110    0.35690    1.000
    C85      C        0.21510    0.58030    0.60440    1.000
    C86      C        0.23000    0.58230    0.54410    1.000
    C87      C        0.14980    0.59200    0.67740    1.000
    C88      C        0.16290    0.59530    0.62230    1.000
    H89      H        0.13700    0.60760    0.59730    1.000
    C90      C        0.25410    0.56300    0.64230    1.000
    H91      H        0.28910    0.55350    0.63060    1.000
    C92      C        0.24090    0.55990    0.69750    1.000
    C93      C        0.28260    0.54370    0.73940    1.000
    C94      C        0.18880    0.57370    0.71470    1.000
    H95      H        0.17980    0.57080    0.75170    1.000
    C96      C        0.09440    0.60880    0.69790    1.000
    C97      C        0.23900    0.66610    0.32730    1.000
    H98      H        0.24700    0.70040    0.34200    1.000
    C99      C        0.22430    0.60030    0.27010    1.000
    H100     H        0.21970    0.58020    0.23810    1.000
    C101     C        0.23550    0.65490    0.27200    1.000
    H102     H        0.23970    0.67910    0.24280    1.000
    Na103    Na       0.07560    0.57720    0.83840    1.000
    O104     O        0.15650    0.51320    0.84760    1.000
    O105     O        0.05510    0.48910    0.79800    1.000
    O106     O        0.98210    0.56270    0.82640    1.000
    Cu109    Cu       0.28169    0.39077    0.93529    1.000
    Cu110    Cu       0.50803    0.34735    0.19746    1.000
    O111     O        0.30422    0.39510    0.01226    1.000
    O112     O        0.22640    0.43730    0.02870    1.000
    O113     O        0.43839    0.36919    0.16429    1.000
    O114     O        0.23521    0.47340    0.28437    1.000
    O115     O        0.41760    0.39900    0.24710    1.000
    O116     O        0.16735    0.45054    0.22713    1.000
    O117     O        0.31379    0.45987    0.91766    1.000
    H118     H        0.32900    0.47830    0.94270    1.000
    N119     N        0.27910    0.42060    0.82110    1.000
    N120     N        0.27050    0.37890    0.85690    1.000
    C121     C        0.28490    0.41970    0.10440    1.000
    C122     C        0.27000    0.41770    0.04410    1.000
    C123     C        0.35020    0.40800    0.17740    1.000
    C124     C        0.33710    0.40470    0.12230    1.000
    H125     H        0.36300    0.39240    0.09730    1.000
    C126     C        0.24590    0.43700    0.14230    1.000
    H127     H        0.21090    0.44650    0.13060    1.000
    C128     C        0.25910    0.44010    0.19750    1.000
    C129     C        0.21740    0.45630    0.23940    1.000
    C130     C        0.31120    0.42630    0.21470    1.000
    H131     H        0.32020    0.42920    0.25170    1.000
    C132     C        0.40560    0.39120    0.19790    1.000
    C133     C        0.26100    0.33390    0.82730    1.000
    H134     H        0.25300    0.29960    0.84200    1.000
    C135     C        0.27570    0.39970    0.77010    1.000
    H136     H        0.28030    0.41980    0.73810    1.000
    C137     C        0.26450    0.34510    0.77200    1.000
    H138     H        0.26030    0.32090    0.74280    1.000
    Na139    Na       0.42440    0.42280    0.33840    1.000
    O140     O        0.34350    0.48680    0.34760    1.000
    O141     O        0.44490    0.51090    0.29800    1.000
    O142     O        0.51790    0.43730    0.32640    1.000
    Cu145    Cu       0.06471    0.78169    0.10923    1.000
    Cu146    Cu       0.80254    0.00803    0.15265    1.000
    O147     O        0.98774    0.80422    0.10490    1.000
    O148     O        0.97130    0.72640    0.06270    1.000
    O149     O        0.83571    0.93839    0.13081    1.000
    O150     O        0.71563    0.73521    0.02660    1.000
    O151     O        0.75290    0.91760    0.10100    1.000
    O152     O        0.77287    0.66735    0.04946    1.000
    O153     O        0.08234    0.81379    0.04013    1.000
    H154     H        0.05730    0.82900    0.02170    1.000
    N155     N        0.17890    0.77910    0.07940    1.000
    N156     N        0.14310    0.77050    0.12110    1.000
    C157     C        0.89560    0.78490    0.08030    1.000
    C158     C        0.95590    0.77000    0.08230    1.000
    C159     C        0.82260    0.85020    0.09200    1.000
    C160     C        0.87770    0.83710    0.09530    1.000
    H161     H        0.90270    0.86300    0.10760    1.000
    C162     C        0.85770    0.74590    0.06300    1.000
    H163     H        0.86940    0.71090    0.05350    1.000
    C164     C        0.80250    0.75910    0.05990    1.000
    C165     C        0.76060    0.71740    0.04370    1.000
    C166     C        0.78530    0.81120    0.07370    1.000
    H167     H        0.74830    0.82020    0.07080    1.000
    C168     C        0.80210    0.90560    0.10880    1.000
    C169     C        0.17270    0.76100    0.16610    1.000
    H170     H        0.15800    0.75300    0.20040    1.000
    C171     C        0.22990    0.77570    0.10030    1.000
    H172     H        0.26190    0.78030    0.08020    1.000
    C173     C        0.22800    0.76450    0.15490    1.000
    H174     H        0.25720    0.76030    0.17910    1.000
    Na175    Na       0.66160    0.92440    0.07720    1.000
    O176     O        0.65240    0.84350    0.01320    1.000
    O177     O        0.70200    0.94490    0.98910    1.000
    O178     O        0.67360    0.01790    0.06270    1.000
    Cu181    Cu       0.56471    0.71831    0.89077    1.000
    Cu182    Cu       0.30254    0.49197    0.84735    1.000
    O183     O        0.48774    0.69578    0.89510    1.000
    O184     O        0.47130    0.77360    0.93730    1.000
    O185     O        0.33571    0.56161    0.86919    1.000
    O186     O        0.21563    0.76479    0.97340    1.000
    O187     O        0.25290    0.58240    0.89900    1.000
    O188     O        0.27287    0.83265    0.95054    1.000
    O189     O        0.58234    0.68621    0.95987    1.000
    H190     H        0.55730    0.67100    0.97830    1.000
    N191     N        0.67890    0.72090    0.92060    1.000
    N192     N        0.64310    0.72950    0.87890    1.000
    C193     C        0.39560    0.71510    0.91970    1.000
    C194     C        0.45590    0.73000    0.91770    1.000
    C195     C        0.32260    0.64980    0.90800    1.000
    C196     C        0.37770    0.66290    0.90470    1.000
    H197     H        0.40270    0.63700    0.89240    1.000
    C198     C        0.35770    0.75410    0.93700    1.000
    H199     H        0.36940    0.78910    0.94650    1.000
    C200     C        0.30250    0.74090    0.94010    1.000
    C201     C        0.26060    0.78260    0.95630    1.000
    C202     C        0.28530    0.68880    0.92630    1.000
    H203     H        0.24830    0.67980    0.92920    1.000
    C204     C        0.30210    0.59440    0.89120    1.000
    C205     C        0.67270    0.73900    0.83390    1.000
    H206     H        0.65800    0.74700    0.79960    1.000
    C207     C        0.72990    0.72430    0.89970    1.000
    H208     H        0.76190    0.71970    0.91980    1.000
    C209     C        0.72800    0.73550    0.84510    1.000
    H210     H        0.75720    0.73970    0.82090    1.000
    Na211    Na       0.16160    0.57560    0.92280    1.000
    O212     O        0.15240    0.65650    0.98680    1.000
    O213     O        0.20200    0.55510    0.01090    1.000
    O214     O        0.17360    0.48210    0.93730    1.000
    Cu217    Cu       0.43529    0.21831    0.60923    1.000
    Cu218    Cu       0.69746    0.99197    0.65265    1.000
    O219     O        0.51226    0.19578    0.60490    1.000
    O220     O        0.52870    0.27360    0.56270    1.000
    O221     O        0.66429    0.06161    0.63081    1.000
    O222     O        0.78437    0.26479    0.52660    1.000
    O223     O        0.74710    0.08240    0.60100    1.000
    O224     O        0.72713    0.33265    0.54946    1.000
    O225     O        0.41766    0.18621    0.54013    1.000
    H226     H        0.44270    0.17100    0.52170    1.000
    N227     N        0.32110    0.22090    0.57940    1.000
    N228     N        0.35690    0.22950    0.62110    1.000
    C229     C        0.60440    0.21510    0.58030    1.000
    C230     C        0.54410    0.23000    0.58230    1.000
    C231     C        0.67740    0.14980    0.59200    1.000
    C232     C        0.62230    0.16290    0.59530    1.000
    H233     H        0.59730    0.13700    0.60760    1.000
    C234     C        0.64230    0.25410    0.56300    1.000
    H235     H        0.63060    0.28910    0.55350    1.000
    C236     C        0.69750    0.24090    0.55990    1.000
    C237     C        0.73940    0.28260    0.54370    1.000
    C238     C        0.71470    0.18880    0.57370    1.000
    H239     H        0.75170    0.17980    0.57080    1.000
    C240     C        0.69790    0.09440    0.60880    1.000
    C241     C        0.32730    0.23900    0.66610    1.000
    H242     H        0.34200    0.24700    0.70040    1.000
    C243     C        0.27010    0.22430    0.60030    1.000
    H244     H        0.23810    0.21970    0.58020    1.000
    C245     C        0.27200    0.23550    0.65490    1.000
    H246     H        0.24280    0.23970    0.67910    1.000
    Na247    Na       0.83840    0.07560    0.57720    1.000
    O248     O        0.84760    0.15650    0.51320    1.000
    O249     O        0.79800    0.05510    0.48910    1.000
    O250     O        0.82640    0.98210    0.56270    1.000
    Cu253    Cu       0.93529    0.28169    0.39077    1.000
    Cu254    Cu       0.19746    0.50803    0.34735    1.000
    O255     O        0.01226    0.30422    0.39510    1.000
    O256     O        0.02870    0.22640    0.43730    1.000
    O257     O        0.16429    0.43839    0.36919    1.000
    O258     O        0.28437    0.23521    0.47340    1.000
    O259     O        0.24710    0.41760    0.39900    1.000
    O260     O        0.22713    0.16735    0.45054    1.000
    O261     O        0.91766    0.31379    0.45987    1.000
    H262     H        0.94270    0.32900    0.47830    1.000
    N263     N        0.82110    0.27910    0.42060    1.000
    N264     N        0.85690    0.27050    0.37890    1.000
    C265     C        0.10440    0.28490    0.41970    1.000
    C266     C        0.04410    0.27000    0.41770    1.000
    C267     C        0.17740    0.35020    0.40800    1.000
    C268     C        0.12230    0.33710    0.40470    1.000
    H269     H        0.09730    0.36300    0.39240    1.000
    C270     C        0.14230    0.24590    0.43700    1.000
    H271     H        0.13060    0.21090    0.44650    1.000
    C272     C        0.19750    0.25910    0.44010    1.000
    C273     C        0.23940    0.21740    0.45630    1.000
    C274     C        0.21470    0.31120    0.42630    1.000
    H275     H        0.25170    0.32020    0.42920    1.000
    C276     C        0.19790    0.40560    0.39120    1.000
    C277     C        0.82730    0.26100    0.33390    1.000
    H278     H        0.84200    0.25300    0.29960    1.000
    C279     C        0.77010    0.27570    0.39970    1.000
    H280     H        0.73810    0.28030    0.41980    1.000
    C281     C        0.77200    0.26450    0.34510    1.000
    H282     H        0.74280    0.26030    0.32090    1.000
    Na283    Na       0.33840    0.42440    0.42280    1.000
    O284     O        0.34760    0.34350    0.48680    1.000
    O285     O        0.29800    0.44490    0.51090    1.000
    O286     O        0.32640    0.51790    0.43730    1.000
    Cu289    Cu       0.10923    0.06471    0.78169    1.000
    Cu290    Cu       0.15265    0.80254    0.00803    1.000
    O291     O        0.10490    0.98774    0.80422    1.000
    O292     O        0.06270    0.97130    0.72640    1.000
    O293     O        0.13081    0.83571    0.93839    1.000
    O294     O        0.02660    0.71563    0.73521    1.000
    O295     O        0.10100    0.75290    0.91760    1.000
    O296     O        0.04946    0.77287    0.66735    1.000
    O297     O        0.04013    0.08234    0.81379    1.000
    H298     H        0.02170    0.05730    0.82900    1.000
    N299     N        0.07940    0.17890    0.77910    1.000
    N300     N        0.12110    0.14310    0.77050    1.000
    C301     C        0.08030    0.89560    0.78490    1.000
    C302     C        0.08230    0.95590    0.77000    1.000
    C303     C        0.09200    0.82260    0.85020    1.000
    C304     C        0.09530    0.87770    0.83710    1.000
    H305     H        0.10760    0.90270    0.86300    1.000
    C306     C        0.06300    0.85770    0.74590    1.000
    H307     H        0.05350    0.86940    0.71090    1.000
    C308     C        0.05990    0.80250    0.75910    1.000
    C309     C        0.04370    0.76060    0.71740    1.000
    C310     C        0.07370    0.78530    0.81120    1.000
    H311     H        0.07080    0.74830    0.82020    1.000
    C312     C        0.10880    0.80210    0.90560    1.000
    C313     C        0.16610    0.17270    0.76100    1.000
    H314     H        0.20040    0.15800    0.75300    1.000
    C315     C        0.10030    0.22990    0.77570    1.000
    H316     H        0.08020    0.26190    0.78030    1.000
    C317     C        0.15490    0.22800    0.76450    1.000
    H318     H        0.17910    0.25720    0.76030    1.000
    Na319    Na       0.07720    0.66160    0.92440    1.000
    O320     O        0.01320    0.65240    0.84350    1.000
    O321     O        0.98910    0.70200    0.94490    1.000
    O322     O        0.06270    0.67360    0.01790    1.000
    Cu325    Cu       0.89077    0.56471    0.71831    1.000
    Cu326    Cu       0.84735    0.30254    0.49197    1.000
    O327     O        0.89510    0.48774    0.69578    1.000
    O328     O        0.93730    0.47130    0.77360    1.000
    O329     O        0.86919    0.33571    0.56161    1.000
    O330     O        0.97340    0.21563    0.76479    1.000
    O331     O        0.89900    0.25290    0.58240    1.000
    O332     O        0.95054    0.27287    0.83265    1.000
    O333     O        0.95987    0.58234    0.68621    1.000
    H334     H        0.97830    0.55730    0.67100    1.000
    N335     N        0.92060    0.67890    0.72090    1.000
    N336     N        0.87890    0.64310    0.72950    1.000
    C337     C        0.91970    0.39560    0.71510    1.000
    C338     C        0.91770    0.45590    0.73000    1.000
    C339     C        0.90800    0.32260    0.64980    1.000
    C340     C        0.90470    0.37770    0.66290    1.000
    H341     H        0.89240    0.40270    0.63700    1.000
    C342     C        0.93700    0.35770    0.75410    1.000
    H343     H        0.94650    0.36940    0.78910    1.000
    C344     C        0.94010    0.30250    0.74090    1.000
    C345     C        0.95630    0.26060    0.78260    1.000
    C346     C        0.92630    0.28530    0.68880    1.000
    H347     H        0.92920    0.24830    0.67980    1.000
    C348     C        0.89120    0.30210    0.59440    1.000
    C349     C        0.83390    0.67270    0.73900    1.000
    H350     H        0.79960    0.65800    0.74700    1.000
    C351     C        0.89970    0.72990    0.72430    1.000
    H352     H        0.91980    0.76190    0.71970    1.000
    C353     C        0.84510    0.72800    0.73550    1.000
    H354     H        0.82090    0.75720    0.73970    1.000
    Na355    Na       0.92280    0.16160    0.57560    1.000
    O356     O        0.98680    0.15240    0.65650    1.000
    O357     O        0.01090    0.20200    0.55510    1.000
    O358     O        0.93730    0.17360    0.48210    1.000
    Cu361    Cu       0.60923    0.43529    0.21831    1.000
    Cu362    Cu       0.65265    0.69746    0.99197    1.000
    O363     O        0.60490    0.51226    0.19578    1.000
    O364     O        0.56270    0.52870    0.27360    1.000
    O365     O        0.63081    0.66429    0.06161    1.000
    O366     O        0.52660    0.78437    0.26479    1.000
    O367     O        0.60100    0.74710    0.08240    1.000
    O368     O        0.54946    0.72713    0.33265    1.000
    O369     O        0.54013    0.41766    0.18621    1.000
    H370     H        0.52170    0.44270    0.17100    1.000
    N371     N        0.57940    0.32110    0.22090    1.000
    N372     N        0.62110    0.35690    0.22950    1.000
    C373     C        0.58030    0.60440    0.21510    1.000
    C374     C        0.58230    0.54410    0.23000    1.000
    C375     C        0.59200    0.67740    0.14980    1.000
    C376     C        0.59530    0.62230    0.16290    1.000
    H377     H        0.60760    0.59730    0.13700    1.000
    C378     C        0.56300    0.64230    0.25410    1.000
    H379     H        0.55350    0.63060    0.28910    1.000
    C380     C        0.55990    0.69750    0.24090    1.000
    C381     C        0.54370    0.73940    0.28260    1.000
    C382     C        0.57370    0.71470    0.18880    1.000
    H383     H        0.57080    0.75170    0.17980    1.000
    C384     C        0.60880    0.69790    0.09440    1.000
    C385     C        0.66610    0.32730    0.23900    1.000
    H386     H        0.70040    0.34200    0.24700    1.000
    C387     C        0.60030    0.27010    0.22430    1.000
    H388     H        0.58020    0.23810    0.21970    1.000
    C389     C        0.65490    0.27200    0.23550    1.000
    H390     H        0.67910    0.24280    0.23970    1.000
    Na391    Na       0.57720    0.83840    0.07560    1.000
    O392     O        0.51320    0.84760    0.15650    1.000
    O393     O        0.48910    0.79800    0.05510    1.000
    O394     O        0.56270    0.82640    0.98210    1.000
    Cu397    Cu       0.39077    0.93529    0.28169    1.000
    Cu398    Cu       0.34735    0.19746    0.50803    1.000
    O399     O        0.39510    0.01226    0.30422    1.000
    O400     O        0.43730    0.02870    0.22640    1.000
    O401     O        0.36919    0.16429    0.43839    1.000
    O402     O        0.47340    0.28437    0.23521    1.000
    O403     O        0.39900    0.24710    0.41760    1.000
    O404     O        0.45054    0.22713    0.16735    1.000
    O405     O        0.45987    0.91766    0.31379    1.000
    H406     H        0.47830    0.94270    0.32900    1.000
    N407     N        0.42060    0.82110    0.27910    1.000
    N408     N        0.37890    0.85690    0.27050    1.000
    C409     C        0.41970    0.10440    0.28490    1.000
    C410     C        0.41770    0.04410    0.27000    1.000
    C411     C        0.40800    0.17740    0.35020    1.000
    C412     C        0.40470    0.12230    0.33710    1.000
    H413     H        0.39240    0.09730    0.36300    1.000
    C414     C        0.43700    0.14230    0.24590    1.000
    H415     H        0.44650    0.13060    0.21090    1.000
    C416     C        0.44010    0.19750    0.25910    1.000
    C417     C        0.45630    0.23940    0.21740    1.000
    C418     C        0.42630    0.21470    0.31120    1.000
    H419     H        0.42920    0.25170    0.32020    1.000
    C420     C        0.39120    0.19790    0.40560    1.000
    C421     C        0.33390    0.82730    0.26100    1.000
    H422     H        0.29960    0.84200    0.25300    1.000
    C423     C        0.39970    0.77010    0.27570    1.000
    H424     H        0.41980    0.73810    0.28030    1.000
    C425     C        0.34510    0.77200    0.26450    1.000
    H426     H        0.32090    0.74280    0.26030    1.000
    Na427    Na       0.42280    0.33840    0.42440    1.000
    O428     O        0.48680    0.34760    0.34350    1.000
    O429     O        0.51090    0.29800    0.44490    1.000
    O430     O        0.43730    0.32640    0.51790    1.000
    Cu433    Cu       0.21831    0.89077    0.93529    1.000
    Cu434    Cu       0.99197    0.84735    0.19746    1.000
    O435     O        0.19578    0.89510    0.01226    1.000
    O436     O        0.27360    0.93730    0.02870    1.000
    O437     O        0.06161    0.86919    0.16429    1.000
    O438     O        0.26479    0.97340    0.28437    1.000
    O439     O        0.08240    0.89900    0.24710    1.000
    O440     O        0.33265    0.95054    0.22713    1.000
    O441     O        0.18621    0.95987    0.91766    1.000
    H442     H        0.17100    0.97830    0.94270    1.000
    N443     N        0.22090    0.92060    0.82110    1.000
    N444     N        0.22950    0.87890    0.85690    1.000
    C445     C        0.21510    0.91970    0.10440    1.000
    C446     C        0.23000    0.91770    0.04410    1.000
    C447     C        0.14980    0.90800    0.17740    1.000
    C448     C        0.16290    0.90470    0.12230    1.000
    H449     H        0.13700    0.89240    0.09730    1.000
    C450     C        0.25410    0.93700    0.14230    1.000
    H451     H        0.28910    0.94650    0.13060    1.000
    C452     C        0.24090    0.94010    0.19750    1.000
    C453     C        0.28260    0.95630    0.23940    1.000
    C454     C        0.18880    0.92630    0.21470    1.000
    H455     H        0.17980    0.92920    0.25170    1.000
    C456     C        0.09440    0.89120    0.19790    1.000
    C457     C        0.23900    0.83390    0.82730    1.000
    H458     H        0.24700    0.79960    0.84200    1.000
    C459     C        0.22430    0.89970    0.77010    1.000
    H460     H        0.21970    0.91980    0.73810    1.000
    C461     C        0.23550    0.84510    0.77200    1.000
    H462     H        0.23970    0.82090    0.74280    1.000
    Na463    Na       0.07560    0.92280    0.33840    1.000
    O464     O        0.15650    0.98680    0.34760    1.000
    O465     O        0.05510    0.01090    0.29800    1.000
    O466     O        0.98210    0.93730    0.32640    1.000
    Cu469    Cu       0.28169    0.10923    0.43529    1.000
    Cu470    Cu       0.50803    0.15265    0.69746    1.000
    O471     O        0.30422    0.10490    0.51226    1.000
    O472     O        0.22640    0.06270    0.52870    1.000
    O473     O        0.43839    0.13081    0.66429    1.000
    O474     O        0.23521    0.02660    0.78437    1.000
    O475     O        0.41760    0.10100    0.74710    1.000
    O476     O        0.16735    0.04946    0.72713    1.000
    O477     O        0.31379    0.04013    0.41766    1.000
    H478     H        0.32900    0.02170    0.44270    1.000
    N479     N        0.27910    0.07940    0.32110    1.000
    N480     N        0.27050    0.12110    0.35690    1.000
    C481     C        0.28490    0.08030    0.60440    1.000
    C482     C        0.27000    0.08230    0.54410    1.000
    C483     C        0.35020    0.09200    0.67740    1.000
    C484     C        0.33710    0.09530    0.62230    1.000
    H485     H        0.36300    0.10760    0.59730    1.000
    C486     C        0.24590    0.06300    0.64230    1.000
    H487     H        0.21090    0.05350    0.63060    1.000
    C488     C        0.25910    0.05990    0.69750    1.000
    C489     C        0.21740    0.04370    0.73940    1.000
    C490     C        0.31120    0.07370    0.71470    1.000
    H491     H        0.32020    0.07080    0.75170    1.000
    C492     C        0.40560    0.10880    0.69790    1.000
    C493     C        0.26100    0.16610    0.32730    1.000
    H494     H        0.25300    0.20040    0.34200    1.000
    C495     C        0.27570    0.10030    0.27010    1.000
    H496     H        0.28030    0.08020    0.23810    1.000
    C497     C        0.26450    0.15490    0.27200    1.000
    H498     H        0.26030    0.17910    0.24280    1.000
    Na499    Na       0.42440    0.07720    0.83840    1.000
    O500     O        0.34350    0.01320    0.84760    1.000
    O501     O        0.44490    0.98910    0.79800    1.000
    O502     O        0.51790    0.06270    0.82640    1.000
    Cu505    Cu       0.78169    0.39077    0.56471    1.000
    Cu506    Cu       0.00803    0.34735    0.30254    1.000
    O507     O        0.80422    0.39510    0.48774    1.000
    O508     O        0.72640    0.43730    0.47130    1.000
    O509     O        0.93839    0.36919    0.33571    1.000
    O510     O        0.73521    0.47340    0.21563    1.000
    O511     O        0.91760    0.39900    0.25290    1.000
    O512     O        0.66735    0.45054    0.27287    1.000
    O513     O        0.81379    0.45987    0.58234    1.000
    H514     H        0.82900    0.47830    0.55730    1.000
    N515     N        0.77910    0.42060    0.67890    1.000
    N516     N        0.77050    0.37890    0.64310    1.000
    C517     C        0.78490    0.41970    0.39560    1.000
    C518     C        0.77000    0.41770    0.45590    1.000
    C519     C        0.85020    0.40800    0.32260    1.000
    C520     C        0.83710    0.40470    0.37770    1.000
    H521     H        0.86300    0.39240    0.40270    1.000
    C522     C        0.74590    0.43700    0.35770    1.000
    H523     H        0.71090    0.44650    0.36940    1.000
    C524     C        0.75910    0.44010    0.30250    1.000
    C525     C        0.71740    0.45630    0.26060    1.000
    C526     C        0.81120    0.42630    0.28530    1.000
    H527     H        0.82020    0.42920    0.24830    1.000
    C528     C        0.90560    0.39120    0.30210    1.000
    C529     C        0.76100    0.33390    0.67270    1.000
    H530     H        0.75300    0.29960    0.65800    1.000
    C531     C        0.77570    0.39970    0.72990    1.000
    H532     H        0.78030    0.41980    0.76190    1.000
    C533     C        0.76450    0.34510    0.72800    1.000
    H534     H        0.76030    0.32090    0.75720    1.000
    Na535    Na       0.92440    0.42280    0.16160    1.000
    O536     O        0.84350    0.48680    0.15240    1.000
    O537     O        0.94490    0.51090    0.20200    1.000
    O538     O        0.01790    0.43730    0.17360    1.000
    Cu541    Cu       0.71831    0.60923    0.06471    1.000
    Cu542    Cu       0.49197    0.65265    0.80254    1.000
    O543     O        0.69578    0.60490    0.98774    1.000
    O544     O        0.77360    0.56270    0.97130    1.000
    O545     O        0.56161    0.63081    0.83571    1.000
    O546     O        0.76479    0.52660    0.71563    1.000
    O547     O        0.58240    0.60100    0.75290    1.000
    O548     O        0.83265    0.54946    0.77287    1.000
    O549     O        0.68621    0.54013    0.08234    1.000
    H550     H        0.67100    0.52170    0.05730    1.000
    N551     N        0.72090    0.57940    0.17890    1.000
    N552     N        0.72950    0.62110    0.14310    1.000
    C553     C        0.71510    0.58030    0.89560    1.000
    C554     C        0.73000    0.58230    0.95590    1.000
    C555     C        0.64980    0.59200    0.82260    1.000
    C556     C        0.66290    0.59530    0.87770    1.000
    H557     H        0.63700    0.60760    0.90270    1.000
    C558     C        0.75410    0.56300    0.85770    1.000
    H559     H        0.78910    0.55350    0.86940    1.000
    C560     C        0.74090    0.55990    0.80250    1.000
    C561     C        0.78260    0.54370    0.76060    1.000
    C562     C        0.68880    0.57370    0.78530    1.000
    H563     H        0.67980    0.57080    0.74830    1.000
    C564     C        0.59440    0.60880    0.80210    1.000
    C565     C        0.73900    0.66610    0.17270    1.000
    H566     H        0.74700    0.70040    0.15800    1.000
    C567     C        0.72430    0.60030    0.22990    1.000
    H568     H        0.71970    0.58020    0.26190    1.000
    C569     C        0.73550    0.65490    0.22800    1.000
    H570     H        0.73970    0.67910    0.25720    1.000
    Na571    Na       0.57560    0.57720    0.66160    1.000
    O572     O        0.65650    0.51320    0.65240    1.000
    O573     O        0.55510    0.48910    0.70200    1.000
    O574     O        0.48210    0.56270    0.67360    1.000
    Cu577    Cu       0.93529    0.21831    0.89077    1.000
    Cu578    Cu       0.19746    0.99197    0.84735    1.000
    O579     O        0.01226    0.19578    0.89510    1.000
    O580     O        0.02870    0.27360    0.93730    1.000
    O581     O        0.16429    0.06161    0.86919    1.000
    O582     O        0.28437    0.26479    0.97340    1.000
    O583     O        0.24710    0.08240    0.89900    1.000
    O584     O        0.22713    0.33265    0.95054    1.000
    O585     O        0.91766    0.18621    0.95987    1.000
    H586     H        0.94270    0.17100    0.97830    1.000
    N587     N        0.82110    0.22090    0.92060    1.000
    N588     N        0.85690    0.22950    0.87890    1.000
    C589     C        0.10440    0.21510    0.91970    1.000
    C590     C        0.04410    0.23000    0.91770    1.000
    C591     C        0.17740    0.14980    0.90800    1.000
    C592     C        0.12230    0.16290    0.90470    1.000
    H593     H        0.09730    0.13700    0.89240    1.000
    C594     C        0.14230    0.25410    0.93700    1.000
    H595     H        0.13060    0.28910    0.94650    1.000
    C596     C        0.19750    0.24090    0.94010    1.000
    C597     C        0.23940    0.28260    0.95630    1.000
    C598     C        0.21470    0.18880    0.92630    1.000
    H599     H        0.25170    0.17980    0.92920    1.000
    C600     C        0.19790    0.09440    0.89120    1.000
    C601     C        0.82730    0.23900    0.83390    1.000
    H602     H        0.84200    0.24700    0.79960    1.000
    C603     C        0.77010    0.22430    0.89970    1.000
    H604     H        0.73810    0.21970    0.91980    1.000
    C605     C        0.77200    0.23550    0.84510    1.000
    H606     H        0.74280    0.23970    0.82090    1.000
    Na607    Na       0.33840    0.07560    0.92280    1.000
    O608     O        0.34760    0.15650    0.98680    1.000
    O609     O        0.29800    0.05510    0.01090    1.000
    O610     O        0.32640    0.98210    0.93730    1.000
    Cu613    Cu       0.43529    0.28169    0.10923    1.000
    Cu614    Cu       0.69746    0.50803    0.15265    1.000
    O615     O        0.51226    0.30422    0.10490    1.000
    O616     O        0.52870    0.22640    0.06270    1.000
    O617     O        0.66429    0.43839    0.13081    1.000
    O618     O        0.78437    0.23521    0.02660    1.000
    O619     O        0.74710    0.41760    0.10100    1.000
    O620     O        0.72713    0.16735    0.04946    1.000
    O621     O        0.41766    0.31379    0.04013    1.000
    H622     H        0.44270    0.32900    0.02170    1.000
    N623     N        0.32110    0.27910    0.07940    1.000
    N624     N        0.35690    0.27050    0.12110    1.000
    C625     C        0.60440    0.28490    0.08030    1.000
    C626     C        0.54410    0.27000    0.08230    1.000
    C627     C        0.67740    0.35020    0.09200    1.000
    C628     C        0.62230    0.33710    0.09530    1.000
    H629     H        0.59730    0.36300    0.10760    1.000
    C630     C        0.64230    0.24590    0.06300    1.000
    H631     H        0.63060    0.21090    0.05350    1.000
    C632     C        0.69750    0.25910    0.05990    1.000
    C633     C        0.73940    0.21740    0.04370    1.000
    C634     C        0.71470    0.31120    0.07370    1.000
    H635     H        0.75170    0.32020    0.07080    1.000
    C636     C        0.69790    0.40560    0.10880    1.000
    C637     C        0.32730    0.26100    0.16610    1.000
    H638     H        0.34200    0.25300    0.20040    1.000
    C639     C        0.27010    0.27570    0.10030    1.000
    H640     H        0.23810    0.28030    0.08020    1.000
    C641     C        0.27200    0.26450    0.15490    1.000
    H642     H        0.24280    0.26030    0.17910    1.000
    Na643    Na       0.83840    0.42440    0.07720    1.000
    O644     O        0.84760    0.34350    0.01320    1.000
    O645     O        0.79800    0.44490    0.98910    1.000
    O646     O        0.82640    0.51790    0.06270    1.000
    Cu649    Cu       0.56471    0.78169    0.39077    1.000
    Cu650    Cu       0.30254    0.00803    0.34735    1.000
    O651     O        0.48774    0.80422    0.39510    1.000
    O652     O        0.47130    0.72640    0.43730    1.000
    O653     O        0.33571    0.93839    0.36919    1.000
    O654     O        0.21563    0.73521    0.47340    1.000
    O655     O        0.25290    0.91760    0.39900    1.000
    O656     O        0.27287    0.66735    0.45054    1.000
    O657     O        0.58234    0.81379    0.45987    1.000
    H658     H        0.55730    0.82900    0.47830    1.000
    N659     N        0.67890    0.77910    0.42060    1.000
    N660     N        0.64310    0.77050    0.37890    1.000
    C661     C        0.39560    0.78490    0.41970    1.000
    C662     C        0.45590    0.77000    0.41770    1.000
    C663     C        0.32260    0.85020    0.40800    1.000
    C664     C        0.37770    0.83710    0.40470    1.000
    H665     H        0.40270    0.86300    0.39240    1.000
    C666     C        0.35770    0.74590    0.43700    1.000
    H667     H        0.36940    0.71090    0.44650    1.000
    C668     C        0.30250    0.75910    0.44010    1.000
    C669     C        0.26060    0.71740    0.45630    1.000
    C670     C        0.28530    0.81120    0.42630    1.000
    H671     H        0.24830    0.82020    0.42920    1.000
    C672     C        0.30210    0.90560    0.39120    1.000
    C673     C        0.67270    0.76100    0.33390    1.000
    H674     H        0.65800    0.75300    0.29960    1.000
    C675     C        0.72990    0.77570    0.39970    1.000
    H676     H        0.76190    0.78030    0.41980    1.000
    C677     C        0.72800    0.76450    0.34510    1.000
    H678     H        0.75720    0.76030    0.32090    1.000
    Na679    Na       0.16160    0.92440    0.42280    1.000
    O680     O        0.15240    0.84350    0.48680    1.000
    O681     O        0.20200    0.94490    0.51090    1.000
    O682     O        0.17360    0.01790    0.43730    1.000
    Cu685    Cu       0.06471    0.71831    0.60923    1.000
    Cu686    Cu       0.80254    0.49197    0.65265    1.000
    O687     O        0.98774    0.69578    0.60490    1.000
    O688     O        0.97130    0.77360    0.56270    1.000
    O689     O        0.83571    0.56161    0.63081    1.000
    O690     O        0.71563    0.76479    0.52660    1.000
    O691     O        0.75290    0.58240    0.60100    1.000
    O692     O        0.77287    0.83265    0.54946    1.000
    O693     O        0.08234    0.68621    0.54013    1.000
    H694     H        0.05730    0.67100    0.52170    1.000
    N695     N        0.17890    0.72090    0.57940    1.000
    N696     N        0.14310    0.72950    0.62110    1.000
    C697     C        0.89560    0.71510    0.58030    1.000
    C698     C        0.95590    0.73000    0.58230    1.000
    C699     C        0.82260    0.64980    0.59200    1.000
    C700     C        0.87770    0.66290    0.59530    1.000
    H701     H        0.90270    0.63700    0.60760    1.000
    C702     C        0.85770    0.75410    0.56300    1.000
    H703     H        0.86940    0.78910    0.55350    1.000
    C704     C        0.80250    0.74090    0.55990    1.000
    C705     C        0.76060    0.78260    0.54370    1.000
    C706     C        0.78530    0.68880    0.57370    1.000
    H707     H        0.74830    0.67980    0.57080    1.000
    C708     C        0.80210    0.59440    0.60880    1.000
    C709     C        0.17270    0.73900    0.66610    1.000
    H710     H        0.15800    0.74700    0.70040    1.000
    C711     C        0.22990    0.72430    0.60030    1.000
    H712     H        0.26190    0.71970    0.58020    1.000
    C713     C        0.22800    0.73550    0.65490    1.000
    H714     H        0.25720    0.73970    0.67910    1.000
    Na715    Na       0.66160    0.57560    0.57720    1.000
    O716     O        0.65240    0.65650    0.51320    1.000
    O717     O        0.70200    0.55510    0.48910    1.000
    O718     O        0.67360    0.48210    0.56270    1.000
    Cu721    Cu       0.89077    0.93529    0.21831    1.000
    Cu722    Cu       0.84735    0.19746    0.99197    1.000
    O723     O        0.89510    0.01226    0.19578    1.000
    O724     O        0.93730    0.02870    0.27360    1.000
    O725     O        0.86919    0.16429    0.06161    1.000
    O726     O        0.97340    0.28437    0.26479    1.000
    O727     O        0.89900    0.24710    0.08240    1.000
    O728     O        0.95054    0.22713    0.33265    1.000
    O729     O        0.95987    0.91766    0.18621    1.000
    H730     H        0.97830    0.94270    0.17100    1.000
    N731     N        0.92060    0.82110    0.22090    1.000
    N732     N        0.87890    0.85690    0.22950    1.000
    C733     C        0.91970    0.10440    0.21510    1.000
    C734     C        0.91770    0.04410    0.23000    1.000
    C735     C        0.90800    0.17740    0.14980    1.000
    C736     C        0.90470    0.12230    0.16290    1.000
    H737     H        0.89240    0.09730    0.13700    1.000
    C738     C        0.93700    0.14230    0.25410    1.000
    H739     H        0.94650    0.13060    0.28910    1.000
    C740     C        0.94010    0.19750    0.24090    1.000
    C741     C        0.95630    0.23940    0.28260    1.000
    C742     C        0.92630    0.21470    0.18880    1.000
    H743     H        0.92920    0.25170    0.17980    1.000
    C744     C        0.89120    0.19790    0.09440    1.000
    C745     C        0.83390    0.82730    0.23900    1.000
    H746     H        0.79960    0.84200    0.24700    1.000
    C747     C        0.89970    0.77010    0.22430    1.000
    H748     H        0.91980    0.73810    0.21970    1.000
    C749     C        0.84510    0.77200    0.23550    1.000
    H750     H        0.82090    0.74280    0.23970    1.000
    Na751    Na       0.92280    0.33840    0.07560    1.000
    O752     O        0.98680    0.34760    0.15650    1.000
    O753     O        0.01090    0.29800    0.05510    1.000
    O754     O        0.93730    0.32640    0.98210    1.000
    Cu757    Cu       0.10923    0.43529    0.28169    1.000
    Cu758    Cu       0.15265    0.69746    0.50803    1.000
    O759     O        0.10490    0.51226    0.30422    1.000
    O760     O        0.06270    0.52870    0.22640    1.000
    O761     O        0.13081    0.66429    0.43839    1.000
    O762     O        0.02660    0.78437    0.23521    1.000
    O763     O        0.10100    0.74710    0.41760    1.000
    O764     O        0.04946    0.72713    0.16735    1.000
    O765     O        0.04013    0.41766    0.31379    1.000
    H766     H        0.02170    0.44270    0.32900    1.000
    N767     N        0.07940    0.32110    0.27910    1.000
    N768     N        0.12110    0.35690    0.27050    1.000
    C769     C        0.08030    0.60440    0.28490    1.000
    C770     C        0.08230    0.54410    0.27000    1.000
    C771     C        0.09200    0.67740    0.35020    1.000
    C772     C        0.09530    0.62230    0.33710    1.000
    H773     H        0.10760    0.59730    0.36300    1.000
    C774     C        0.06300    0.64230    0.24590    1.000
    H775     H        0.05350    0.63060    0.21090    1.000
    C776     C        0.05990    0.69750    0.25910    1.000
    C777     C        0.04370    0.73940    0.21740    1.000
    C778     C        0.07370    0.71470    0.31120    1.000
    H779     H        0.07080    0.75170    0.32020    1.000
    C780     C        0.10880    0.69790    0.40560    1.000
    C781     C        0.16610    0.32730    0.26100    1.000
    H782     H        0.20040    0.34200    0.25300    1.000
    C783     C        0.10030    0.27010    0.27570    1.000
    H784     H        0.08020    0.23810    0.28030    1.000
    C785     C        0.15490    0.27200    0.26450    1.000
    H786     H        0.17910    0.24280    0.26030    1.000
    Na787    Na       0.07720    0.83840    0.42440    1.000
    O788     O        0.01320    0.84760    0.34350    1.000
    O789     O        0.98910    0.79800    0.44490    1.000
    O790     O        0.06270    0.82640    0.51790    1.000
    Cu793    Cu       0.39077    0.56471    0.78169    1.000
    Cu794    Cu       0.34735    0.30254    0.00803    1.000
    O795     O        0.39510    0.48774    0.80422    1.000
    O796     O        0.43730    0.47130    0.72640    1.000
    O797     O        0.36919    0.33571    0.93839    1.000
    O798     O        0.47340    0.21563    0.73521    1.000
    O799     O        0.39900    0.25290    0.91760    1.000
    O800     O        0.45054    0.27287    0.66735    1.000
    O801     O        0.45987    0.58234    0.81379    1.000
    H802     H        0.47830    0.55730    0.82900    1.000
    N803     N        0.42060    0.67890    0.77910    1.000
    N804     N        0.37890    0.64310    0.77050    1.000
    C805     C        0.41970    0.39560    0.78490    1.000
    C806     C        0.41770    0.45590    0.77000    1.000
    C807     C        0.40800    0.32260    0.85020    1.000
    C808     C        0.40470    0.37770    0.83710    1.000
    H809     H        0.39240    0.40270    0.86300    1.000
    C810     C        0.43700    0.35770    0.74590    1.000
    H811     H        0.44650    0.36940    0.71090    1.000
    C812     C        0.44010    0.30250    0.75910    1.000
    C813     C        0.45630    0.26060    0.71740    1.000
    C814     C        0.42630    0.28530    0.81120    1.000
    H815     H        0.42920    0.24830    0.82020    1.000
    C816     C        0.39120    0.30210    0.90560    1.000
    C817     C        0.33390    0.67270    0.76100    1.000
    H818     H        0.29960    0.65800    0.75300    1.000
    C819     C        0.39970    0.72990    0.77570    1.000
    H820     H        0.41980    0.76190    0.78030    1.000
    C821     C        0.34510    0.72800    0.76450    1.000
    H822     H        0.32090    0.75720    0.76030    1.000
    Na823    Na       0.42280    0.16160    0.92440    1.000
    O824     O        0.48680    0.15240    0.84350    1.000
    O825     O        0.51090    0.20200    0.94490    1.000
    O826     O        0.43730    0.17360    0.01790    1.000
    Cu829    Cu       0.60923    0.06471    0.71831    1.000
    Cu830    Cu       0.65265    0.80254    0.49197    1.000
    O831     O        0.60490    0.98774    0.69578    1.000
    O832     O        0.56270    0.97130    0.77360    1.000
    O833     O        0.63081    0.83571    0.56161    1.000
    O834     O        0.52660    0.71563    0.76479    1.000
    O835     O        0.60100    0.75290    0.58240    1.000
    O836     O        0.54946    0.77287    0.83265    1.000
    O837     O        0.54013    0.08234    0.68621    1.000
    H838     H        0.52170    0.05730    0.67100    1.000
    N839     N        0.57940    0.17890    0.72090    1.000
    N840     N        0.62110    0.14310    0.72950    1.000
    C841     C        0.58030    0.89560    0.71510    1.000
    C842     C        0.58230    0.95590    0.73000    1.000
    C843     C        0.59200    0.82260    0.64980    1.000
    C844     C        0.59530    0.87770    0.66290    1.000
    H845     H        0.60760    0.90270    0.63700    1.000
    C846     C        0.56300    0.85770    0.75410    1.000
    H847     H        0.55350    0.86940    0.78910    1.000
    C848     C        0.55990    0.80250    0.74090    1.000
    C849     C        0.54370    0.76060    0.78260    1.000
    C850     C        0.57370    0.78530    0.68880    1.000
    H851     H        0.57080    0.74830    0.67980    1.000
    C852     C        0.60880    0.80210    0.59440    1.000
    C853     C        0.66610    0.17270    0.73900    1.000
    H854     H        0.70040    0.15800    0.74700    1.000
    C855     C        0.60030    0.22990    0.72430    1.000
    H856     H        0.58020    0.26190    0.71970    1.000
    C857     C        0.65490    0.22800    0.73550    1.000
    H858     H        0.67910    0.25720    0.73970    1.000
    Na859    Na       0.57720    0.66160    0.57560    1.000
    O860     O        0.51320    0.65240    0.65650    1.000
    O861     O        0.48910    0.70200    0.55510    1.000
    O862     O        0.56270    0.67360    0.48210    1.000
    O865     O        0.85710    0.14290    0.64290    1.000
    O866     O        0.93490    0.06510    0.56510    1.000
    O867     O        0.64290    0.85710    0.14290    1.000
    O868     O        0.56510    0.93490    0.06510    1.000
    O869     O        0.14290    0.64290    0.85710    1.000
    O870     O        0.06510    0.56510    0.93490    1.000
    O871     O        0.35710    0.35710    0.35710    1.000
    O872     O        0.43490    0.43490    0.43490    1.000
    O873     O        0.14290    0.85710    0.35710    1.000
    O874     O        0.06510    0.93490    0.43490    1.000
    O875     O        0.35710    0.14290    0.85710    1.000
    O876     O        0.43490    0.06510    0.93490    1.000
    O877     O        0.85710    0.35710    0.14290    1.000
    O878     O        0.93490    0.43490    0.06510    1.000
    O879     O        0.64290    0.64290    0.64290    1.000
    O880     O        0.56510    0.56510    0.56510    1.000
