data_functionalizedCrystal
_audit_creation_method	'EQeq! by Chris Wilmer'
_symmetry_space_group_name_H-M	'P1'
_symmetry_Int_Tables_number	1
_symmetry_cell_setting	triclinic
loop_
_symmetry_equiv_pos_as_xyz
  x,y,z
_cell_length_a	30.7159
_cell_length_b	30.7159
_cell_length_c	30.7159
_cell_angle_alpha	90
_cell_angle_beta	90
_cell_angle_gamma	90
loop_
_atom_site_label
_atom_site_type_symbol
_atom_site_fract_x
_atom_site_fract_y
_atom_site_fract_z
_atom_site_charge
Mof_O 	O 	0.7731	0.0935	0.0603	-0.554
Mof_O 	O 	0.7148	0.0646	0.0321	-0.498
Mof_O 	O 	0.6841	0.9004	0.1523	-0.678
Mof_C 	C 	0.7133	0.9979	0.0939	0.134
Mof_C 	C 	0.7444	0.03	0.0937	-0.194
Mof_C 	C 	0.7184	0.9601	0.1243	-0.098
Mof_C 	C 	0.7443	0.0651	0.0606	0.371
Mof_O 	O 	0.2731	0.5935	0.5603	-0.558
Mof_O 	O 	0.2148	0.5646	0.5321	-0.485
Mof_O 	O 	0.1841	0.4004	0.6523	-0.68
Mof_C 	C 	0.2133	0.4979	0.5939	0.087
Mof_C 	C 	0.2444	0.53	0.5937	-0.148
Mof_C 	C 	0.2184	0.4601	0.6243	-0.093
Mof_C 	C 	0.2443	0.5651	0.5606	0.363
Mof_O 	O 	0.7269	0.9065	0.5603	-0.553
Mof_O 	O 	0.7852	0.9354	0.5321	-0.468
Mof_O 	O 	0.8159	0.0996	0.6523	-0.681
Mof_C 	C 	0.7867	0.0021	0.5939	0.039
Mof_C 	C 	0.7556	0.97	0.5937	-0.104
Mof_C 	C 	0.7816	0.0399	0.6243	-0.086
Mof_C 	C 	0.7557	0.9349	0.5606	0.351
Mof_O 	O 	0.2269	0.4065	0.0603	-0.553
Mof_O 	O 	0.2852	0.4354	0.0321	-0.486
Mof_O 	O 	0.3159	0.5996	0.1523	-0.682
Mof_C 	C 	0.2867	0.5021	0.0939	0.082
Mof_C 	C 	0.2556	0.47	0.0937	-0.151
Mof_C 	C 	0.2816	0.5399	0.1243	-0.092
Mof_C 	C 	0.2557	0.4349	0.0606	0.36
Mof_O 	O 	0.2269	0.5935	0.4397	-0.56
Mof_O 	O 	0.2852	0.5646	0.4679	-0.485
Mof_O 	O 	0.3159	0.4004	0.3477	-0.681
Mof_C 	C 	0.2867	0.4979	0.4061	0.087
Mof_C 	C 	0.2556	0.53	0.4063	-0.149
Mof_C 	C 	0.2816	0.4601	0.3757	-0.094
Mof_C 	C 	0.2557	0.5651	0.4394	0.362
Mof_O 	O 	0.7269	0.0935	0.9397	-0.536
Mof_O 	O 	0.7852	0.0646	0.9679	-0.467
Mof_O 	O 	0.8159	0.9004	0.8477	-0.676
Mof_C 	C 	0.7867	0.9979	0.9061	0.146
Mof_C 	C 	0.7556	0.03	0.9063	-0.19
Mof_C 	C 	0.7816	0.9601	0.8757	-0.102
Mof_C 	C 	0.7557	0.0651	0.9394	0.37
Mof_O 	O 	0.2731	0.4065	0.9397	-0.531
Mof_O 	O 	0.2148	0.4354	0.9679	-0.458
Mof_O 	O 	0.1841	0.5996	0.8477	-0.68
Mof_C 	C 	0.2133	0.5021	0.9061	0.091
Mof_C 	C 	0.2444	0.47	0.9063	-0.146
Mof_C 	C 	0.2184	0.5399	0.8757	-0.096
Mof_C 	C 	0.2443	0.4349	0.9394	0.359
Mof_O 	O 	0.7731	0.9065	0.4397	-0.552
Mof_O 	O 	0.7148	0.9354	0.4679	-0.471
Mof_O 	O 	0.6841	0.0996	0.3477	-0.682
Mof_C 	C 	0.7133	0.0021	0.4061	0.037
Mof_C 	C 	0.7444	0.97	0.4063	-0.104
Mof_C 	C 	0.7184	0.0399	0.3757	-0.087
Mof_C 	C 	0.7443	0.9349	0.4394	0.351
Mof_O 	O 	0.0603	0.7731	0.0935	-0.555
Mof_O 	O 	0.0321	0.7148	0.0646	-0.499
Mof_O 	O 	0.1523	0.6841	0.9004	-0.679
Mof_C 	C 	0.0939	0.7133	0.9979	0.133
Mof_C 	C 	0.0937	0.7444	0.03	-0.195
Mof_C 	C 	0.1243	0.7184	0.9601	-0.099
Mof_C 	C 	0.0606	0.7443	0.0651	0.37
Mof_O 	O 	0.5603	0.2731	0.5935	-0.559
Mof_O 	O 	0.5321	0.2148	0.5646	-0.486
Mof_O 	O 	0.6523	0.1841	0.4004	-0.681
Mof_C 	C 	0.5939	0.2133	0.4979	0.086
Mof_C 	C 	0.5937	0.2444	0.53	-0.149
Mof_C 	C 	0.6243	0.2184	0.4601	-0.094
Mof_C 	C 	0.5606	0.2443	0.5651	0.362
Mof_O 	O 	0.5603	0.7269	0.9065	-0.554
Mof_O 	O 	0.5321	0.7852	0.9354	-0.469
Mof_O 	O 	0.6523	0.8159	0.0996	-0.681
Mof_C 	C 	0.5939	0.7867	0.0021	0.039
Mof_C 	C 	0.5937	0.7556	0.97	-0.104
Mof_C 	C 	0.6243	0.7816	0.0399	-0.086
Mof_C 	C 	0.5606	0.7557	0.9349	0.351
Mof_O 	O 	0.0603	0.2269	0.4065	-0.553
Mof_O 	O 	0.0321	0.2852	0.4354	-0.486
Mof_O 	O 	0.1523	0.3159	0.5996	-0.682
Mof_C 	C 	0.0939	0.2867	0.5021	0.082
Mof_C 	C 	0.0937	0.2556	0.47	-0.151
Mof_C 	C 	0.1243	0.2816	0.5399	-0.092
Mof_C 	C 	0.0606	0.2557	0.4349	0.36
Mof_O 	O 	0.4397	0.2269	0.5935	-0.56
Mof_O 	O 	0.4679	0.2852	0.5646	-0.485
Mof_O 	O 	0.3477	0.3159	0.4004	-0.681
Mof_C 	C 	0.4061	0.2867	0.4979	0.087
Mof_C 	C 	0.4063	0.2556	0.53	-0.149
Mof_C 	C 	0.3757	0.2816	0.4601	-0.094
Mof_C 	C 	0.4394	0.2557	0.5651	0.362
Mof_O 	O 	0.9397	0.7269	0.0935	-0.536
Mof_O 	O 	0.9679	0.7852	0.0646	-0.467
Mof_O 	O 	0.8477	0.8159	0.9004	-0.676
Mof_C 	C 	0.9061	0.7867	0.9979	0.146
Mof_C 	C 	0.9063	0.7556	0.03	-0.19
Mof_C 	C 	0.8757	0.7816	0.9601	-0.102
Mof_C 	C 	0.9394	0.7557	0.0651	0.37
Mof_O 	O 	0.9397	0.2731	0.4065	-0.531
Mof_O 	O 	0.9679	0.2148	0.4354	-0.458
Mof_O 	O 	0.8477	0.1841	0.5996	-0.68
Mof_C 	C 	0.9061	0.2133	0.5021	0.091
Mof_C 	C 	0.9063	0.2444	0.47	-0.146
Mof_C 	C 	0.8757	0.2184	0.5399	-0.096
Mof_C 	C 	0.9394	0.2443	0.4349	0.359
Mof_O 	O 	0.4397	0.7731	0.9065	-0.552
Mof_O 	O 	0.4679	0.7148	0.9354	-0.471
Mof_O 	O 	0.3477	0.6841	0.0996	-0.682
Mof_C 	C 	0.4061	0.7133	0.0021	0.037
Mof_C 	C 	0.4063	0.7444	0.97	-0.104
Mof_C 	C 	0.3757	0.7184	0.0399	-0.087
Mof_C 	C 	0.4394	0.7443	0.9349	0.351
Mof_O 	O 	0.0935	0.0603	0.7731	-0.555
Mof_O 	O 	0.0646	0.0321	0.7148	-0.499
Mof_O 	O 	0.9004	0.1523	0.6841	-0.679
Mof_C 	C 	0.9979	0.0939	0.7133	0.133
Mof_C 	C 	0.03	0.0937	0.7444	-0.195
Mof_C 	C 	0.9601	0.1243	0.7184	-0.099
Mof_C 	C 	0.0651	0.0606	0.7443	0.37
Mof_O 	O 	0.5935	0.5603	0.2731	-0.559
Mof_O 	O 	0.5646	0.5321	0.2148	-0.486
Mof_O 	O 	0.4004	0.6523	0.1841	-0.681
Mof_C 	C 	0.4979	0.5939	0.2133	0.086
Mof_C 	C 	0.53	0.5937	0.2444	-0.149
Mof_C 	C 	0.4601	0.6243	0.2184	-0.094
Mof_C 	C 	0.5651	0.5606	0.2443	0.362
Mof_O 	O 	0.9065	0.5603	0.7269	-0.554
Mof_O 	O 	0.9354	0.5321	0.7852	-0.469
Mof_O 	O 	0.0996	0.6523	0.8159	-0.681
Mof_C 	C 	0.0021	0.5939	0.7867	0.039
Mof_C 	C 	0.97	0.5937	0.7556	-0.104
Mof_C 	C 	0.0399	0.6243	0.7816	-0.086
Mof_C 	C 	0.9349	0.5606	0.7557	0.351
Mof_O 	O 	0.4065	0.0603	0.2269	-0.553
Mof_O 	O 	0.4354	0.0321	0.2852	-0.486
Mof_O 	O 	0.5996	0.1523	0.3159	-0.682
Mof_C 	C 	0.5021	0.0939	0.2867	0.082
Mof_C 	C 	0.47	0.0937	0.2556	-0.151
Mof_C 	C 	0.5399	0.1243	0.2816	-0.092
Mof_C 	C 	0.4349	0.0606	0.2557	0.36
Mof_O 	O 	0.5935	0.4397	0.2269	-0.56
Mof_O 	O 	0.5646	0.4679	0.2852	-0.485
Mof_O 	O 	0.4004	0.3477	0.3159	-0.681
Mof_C 	C 	0.4979	0.4061	0.2867	0.087
Mof_C 	C 	0.53	0.4063	0.2556	-0.149
Mof_C 	C 	0.4601	0.3757	0.2816	-0.094
Mof_C 	C 	0.5651	0.4394	0.2557	0.362
Mof_O 	O 	0.0935	0.9397	0.7269	-0.536
Mof_O 	O 	0.0646	0.9679	0.7852	-0.467
Mof_O 	O 	0.9004	0.8477	0.8159	-0.676
Mof_C 	C 	0.9979	0.9061	0.7867	0.146
Mof_C 	C 	0.03	0.9063	0.7556	-0.19
Mof_C 	C 	0.9601	0.8757	0.7816	-0.102
Mof_C 	C 	0.0651	0.9394	0.7557	0.37
Mof_O 	O 	0.4065	0.9397	0.2731	-0.531
Mof_O 	O 	0.4354	0.9679	0.2148	-0.458
Mof_O 	O 	0.5996	0.8477	0.1841	-0.68
Mof_C 	C 	0.5021	0.9061	0.2133	0.091
Mof_C 	C 	0.47	0.9063	0.2444	-0.146
Mof_C 	C 	0.5399	0.8757	0.2184	-0.096
Mof_C 	C 	0.4349	0.9394	0.2443	0.359
Mof_O 	O 	0.9065	0.4397	0.7731	-0.552
Mof_O 	O 	0.9354	0.4679	0.7148	-0.471
Mof_O 	O 	0.0996	0.3477	0.6841	-0.682
Mof_C 	C 	0.0021	0.4061	0.7133	0.037
Mof_C 	C 	0.97	0.4063	0.7444	-0.104
Mof_C 	C 	0.0399	0.3757	0.7184	-0.087
Mof_C 	C 	0.9349	0.4394	0.7443	0.351
Mof_O 	O 	0.8435	0.0231	0.1897	-0.579
Mof_O 	O 	0.8146	0.9648	0.2179	-0.471
Mof_O 	O 	0.6504	0.9341	0.0977	-0.681
Mof_C 	C 	0.7479	0.9633	0.1561	0.092
Mof_C 	C 	0.78	0.9944	0.1563	-0.124
Mof_C 	C 	0.7101	0.9684	0.1257	-0.095
Mof_C 	C 	0.8151	0.9943	0.1894	0.403
Mof_O 	O 	0.3435	0.5231	0.6897	-0.559
Mof_O 	O 	0.3146	0.4648	0.7179	-0.485
Mof_O 	O 	0.1504	0.4341	0.5977	-0.683
Mof_C 	C 	0.2479	0.4633	0.6561	0.087
Mof_C 	C 	0.28	0.4944	0.6563	-0.149
Mof_C 	C 	0.2101	0.4684	0.6257	-0.093
Mof_C 	C 	0.3151	0.4943	0.6894	0.362
Mof_O 	O 	0.6565	0.9769	0.6897	-0.503
Mof_O 	O 	0.6854	0.0352	0.7179	-0.471
Mof_O 	O 	0.8496	0.0659	0.5977	-0.682
Mof_C 	C 	0.7521	0.0367	0.6561	0.082
Mof_C 	C 	0.72	0.0056	0.6563	-0.173
Mof_C 	C 	0.7899	0.0316	0.6257	-0.095
Mof_C 	C 	0.6849	0.0057	0.6894	0.316
Mof_O 	O 	0.1565	0.4769	0.1897	-0.562
Mof_O 	O 	0.1854	0.5352	0.2179	-0.485
Mof_O 	O 	0.3496	0.5659	0.0977	-0.685
Mof_C 	C 	0.2521	0.5367	0.1561	0.085
Mof_C 	C 	0.22	0.5056	0.1563	-0.149
Mof_C 	C 	0.2899	0.5316	0.1257	-0.097
Mof_C 	C 	0.1849	0.5057	0.1894	0.361
Mof_O 	O 	0.3435	0.4769	0.8103	-0.557
Mof_O 	O 	0.3146	0.5352	0.7821	-0.484
Mof_O 	O 	0.1504	0.5659	0.9023	-0.678
Mof_C 	C 	0.2479	0.5367	0.8439	0.089
Mof_C 	C 	0.28	0.5056	0.8437	-0.148
Mof_C 	C 	0.2101	0.5316	0.8743	-0.091
Mof_C 	C 	0.3151	0.5057	0.8106	0.363
Mof_O 	O 	0.8435	0.9769	0.3103	-0.501
Mof_O 	O 	0.8146	0.0352	0.2821	-0.471
Mof_O 	O 	0.6504	0.0659	0.4023	-0.684
Mof_C 	C 	0.7479	0.0367	0.3439	0.082
Mof_C 	C 	0.78	0.0056	0.3437	-0.172
Mof_C 	C 	0.7101	0.0316	0.3743	-0.094
Mof_C 	C 	0.8151	0.0057	0.3106	0.316
Mof_O 	O 	0.1565	0.5231	0.3103	-0.561
Mof_O 	O 	0.1854	0.4648	0.2821	-0.485
Mof_O 	O 	0.3496	0.4341	0.4023	-0.681
Mof_C 	C 	0.2521	0.4633	0.3439	0.087
Mof_C 	C 	0.22	0.4944	0.3437	-0.149
Mof_C 	C 	0.2899	0.4684	0.3743	-0.094
Mof_C 	C 	0.1849	0.4943	0.3106	0.362
Mof_O 	O 	0.6565	0.0231	0.8103	-0.578
Mof_O 	O 	0.6854	0.9648	0.7821	-0.47
Mof_O 	O 	0.8496	0.9341	0.9023	-0.669
Mof_C 	C 	0.7521	0.9633	0.8439	0.096
Mof_C 	C 	0.72	0.9944	0.8437	-0.123
Mof_C 	C 	0.7899	0.9684	0.8743	-0.091
Mof_C 	C 	0.6849	0.9943	0.8106	0.404
Mof_O 	O 	0.5231	0.3103	0.1565	-0.561
Mof_O 	O 	0.4648	0.2821	0.1854	-0.485
Mof_O 	O 	0.4341	0.4023	0.3496	-0.681
Mof_C 	C 	0.4633	0.3439	0.2521	0.087
Mof_C 	C 	0.4944	0.3437	0.22	-0.149
Mof_C 	C 	0.4684	0.3743	0.2899	-0.094
Mof_C 	C 	0.4943	0.3106	0.1849	0.362
Mof_O 	O 	0.0231	0.8103	0.6565	-0.578
Mof_O 	O 	0.9648	0.7821	0.6854	-0.47
Mof_O 	O 	0.9341	0.9023	0.8496	-0.669
Mof_C 	C 	0.9633	0.8439	0.7521	0.096
Mof_C 	C 	0.9944	0.8437	0.72	-0.123
Mof_C 	C 	0.9684	0.8743	0.7899	-0.091
Mof_C 	C 	0.9943	0.8106	0.6849	0.404
Mof_O 	O 	0.4769	0.8103	0.3435	-0.557
Mof_O 	O 	0.5352	0.7821	0.3146	-0.484
Mof_O 	O 	0.5659	0.9023	0.1504	-0.678
Mof_C 	C 	0.5367	0.8439	0.2479	0.089
Mof_C 	C 	0.5056	0.8437	0.28	-0.148
Mof_C 	C 	0.5316	0.8743	0.2101	-0.091
Mof_C 	C 	0.5057	0.8106	0.3151	0.363
Mof_O 	O 	0.9769	0.3103	0.8435	-0.501
Mof_O 	O 	0.0352	0.2821	0.8146	-0.471
Mof_O 	O 	0.0659	0.4023	0.6504	-0.684
Mof_C 	C 	0.0367	0.3439	0.7479	0.082
Mof_C 	C 	0.0056	0.3437	0.78	-0.172
Mof_C 	C 	0.0316	0.3743	0.7101	-0.094
Mof_C 	C 	0.0057	0.3106	0.8151	0.316
Mof_O 	O 	0.9769	0.6897	0.6565	-0.503
Mof_O 	O 	0.0352	0.7179	0.6854	-0.471
Mof_O 	O 	0.0659	0.5977	0.8496	-0.682
Mof_C 	C 	0.0367	0.6561	0.7521	0.082
Mof_C 	C 	0.0056	0.6563	0.72	-0.173
Mof_C 	C 	0.0316	0.6257	0.7899	-0.095
Mof_C 	C 	0.0057	0.6894	0.6849	0.316
Mof_O 	O 	0.4769	0.1897	0.1565	-0.562
Mof_O 	O 	0.5352	0.2179	0.1854	-0.485
Mof_O 	O 	0.5659	0.0977	0.3496	-0.685
Mof_C 	C 	0.5367	0.1561	0.2521	0.085
Mof_C 	C 	0.5056	0.1563	0.22	-0.149
Mof_C 	C 	0.5316	0.1257	0.2899	-0.097
Mof_C 	C 	0.5057	0.1894	0.1849	0.361
Mof_O 	O 	0.0231	0.1897	0.8435	-0.579
Mof_O 	O 	0.9648	0.2179	0.8146	-0.471
Mof_O 	O 	0.9341	0.0977	0.6504	-0.681
Mof_C 	C 	0.9633	0.1561	0.7479	0.092
Mof_C 	C 	0.9944	0.1563	0.78	-0.124
Mof_C 	C 	0.9684	0.1257	0.7101	-0.095
Mof_C 	C 	0.9943	0.1894	0.8151	0.403
Mof_O 	O 	0.5231	0.6897	0.3435	-0.559
Mof_O 	O 	0.4648	0.7179	0.3146	-0.485
Mof_O 	O 	0.4341	0.5977	0.1504	-0.683
Mof_C 	C 	0.4633	0.6561	0.2479	0.087
Mof_C 	C 	0.4944	0.6563	0.28	-0.149
Mof_C 	C 	0.4684	0.6257	0.2101	-0.093
Mof_C 	C 	0.4943	0.6894	0.3151	0.362
Mof_O 	O 	0.8103	0.3435	0.4769	-0.557
Mof_O 	O 	0.7821	0.3146	0.5352	-0.484
Mof_O 	O 	0.9023	0.1504	0.5659	-0.678
Mof_C 	C 	0.8439	0.2479	0.5367	0.089
Mof_C 	C 	0.8437	0.28	0.5056	-0.148
Mof_C 	C 	0.8743	0.2101	0.5316	-0.091
Mof_C 	C 	0.8106	0.3151	0.5057	0.363
Mof_O 	O 	0.3103	0.8435	0.9769	-0.501
Mof_O 	O 	0.2821	0.8146	0.0352	-0.471
Mof_O 	O 	0.4023	0.6504	0.0659	-0.684
Mof_C 	C 	0.3439	0.7479	0.0367	0.082
Mof_C 	C 	0.3437	0.78	0.0056	-0.172
Mof_C 	C 	0.3743	0.7101	0.0316	-0.094
Mof_C 	C 	0.3106	0.8151	0.0057	0.316
Mof_O 	O 	0.3103	0.1565	0.5231	-0.561
Mof_O 	O 	0.2821	0.1854	0.4648	-0.485
Mof_O 	O 	0.4023	0.3496	0.4341	-0.681
Mof_C 	C 	0.3439	0.2521	0.4633	0.087
Mof_C 	C 	0.3437	0.22	0.4944	-0.149
Mof_C 	C 	0.3743	0.2899	0.4684	-0.094
Mof_C 	C 	0.3106	0.1849	0.4943	0.362
Mof_O 	O 	0.8103	0.6565	0.0231	-0.578
Mof_O 	O 	0.7821	0.6854	0.9648	-0.47
Mof_O 	O 	0.9023	0.8496	0.9341	-0.669
Mof_C 	C 	0.8439	0.7521	0.9633	0.096
Mof_C 	C 	0.8437	0.72	0.9944	-0.123
Mof_C 	C 	0.8743	0.7899	0.9684	-0.091
Mof_C 	C 	0.8106	0.6849	0.9943	0.404
Mof_O 	O 	0.1897	0.8435	0.0231	-0.579
Mof_O 	O 	0.2179	0.8146	0.9648	-0.471
Mof_O 	O 	0.0977	0.6504	0.9341	-0.681
Mof_C 	C 	0.1561	0.7479	0.9633	0.092
Mof_C 	C 	0.1563	0.78	0.9944	-0.124
Mof_C 	C 	0.1257	0.7101	0.9684	-0.095
Mof_C 	C 	0.1894	0.8151	0.9943	0.403
Mof_O 	O 	0.6897	0.3435	0.5231	-0.559
Mof_O 	O 	0.7179	0.3146	0.4648	-0.485
Mof_O 	O 	0.5977	0.1504	0.4341	-0.683
Mof_C 	C 	0.6561	0.2479	0.4633	0.087
Mof_C 	C 	0.6563	0.28	0.4944	-0.149
Mof_C 	C 	0.6257	0.2101	0.4684	-0.093
Mof_C 	C 	0.6894	0.3151	0.4943	0.362
Mof_O 	O 	0.6897	0.6565	0.9769	-0.503
Mof_O 	O 	0.7179	0.6854	0.0352	-0.471
Mof_O 	O 	0.5977	0.8496	0.0659	-0.682
Mof_C 	C 	0.6561	0.7521	0.0367	0.082
Mof_C 	C 	0.6563	0.72	0.0056	-0.173
Mof_C 	C 	0.6257	0.7899	0.0316	-0.095
Mof_C 	C 	0.6894	0.6849	0.0057	0.316
Mof_O 	O 	0.1897	0.1565	0.4769	-0.562
Mof_O 	O 	0.2179	0.1854	0.5352	-0.485
Mof_O 	O 	0.0977	0.3496	0.5659	-0.685
Mof_C 	C 	0.1561	0.2521	0.5367	0.085
Mof_C 	C 	0.1563	0.22	0.5056	-0.149
Mof_C 	C 	0.1257	0.2899	0.5316	-0.097
Mof_C 	C 	0.1894	0.1849	0.5057	0.361
Mof_O 	O 	0.2269	0.9065	0.9397	-0.528
Mof_O 	O 	0.2852	0.9354	0.9679	-0.443
Mof_O 	O 	0.3159	0.0996	0.8477	-0.681
Mof_C 	C 	0.2867	0.0021	0.9061	0.042
Mof_C 	C 	0.2556	0.97	0.9063	-0.102
Mof_C 	C 	0.2816	0.0399	0.8757	-0.088
Mof_C 	C 	0.2557	0.9349	0.9394	0.349
Mof_O 	O 	0.7269	0.4065	0.4397	-0.559
Mof_O 	O 	0.7852	0.4354	0.4679	-0.483
Mof_O 	O 	0.8159	0.5996	0.3477	-0.68
Mof_C 	C 	0.7867	0.5021	0.4061	0.089
Mof_C 	C 	0.7556	0.47	0.4063	-0.149
Mof_C 	C 	0.7816	0.5399	0.3757	-0.093
Mof_C 	C 	0.7557	0.4349	0.4394	0.362
Mof_O 	O 	0.2731	0.0935	0.4397	-0.564
Mof_O 	O 	0.2148	0.0646	0.4679	-0.499
Mof_O 	O 	0.1841	0.9004	0.3477	-0.679
Mof_C 	C 	0.2133	0.9979	0.4061	0.137
Mof_C 	C 	0.2444	0.03	0.4063	-0.193
Mof_C 	C 	0.2184	0.9601	0.3757	-0.102
Mof_C 	C 	0.2443	0.0651	0.4394	0.372
Mof_O 	O 	0.7731	0.5935	0.9397	-0.53
Mof_O 	O 	0.7148	0.5646	0.9679	-0.456
Mof_O 	O 	0.6841	0.4004	0.8477	-0.679
Mof_C 	C 	0.7133	0.4979	0.9061	0.093
Mof_C 	C 	0.7444	0.53	0.9063	-0.146
Mof_C 	C 	0.7184	0.4601	0.8757	-0.096
Mof_C 	C 	0.7443	0.5651	0.9394	0.359
Mof_O 	O 	0.7731	0.4065	0.5603	-0.557
Mof_O 	O 	0.7148	0.4354	0.5321	-0.485
Mof_O 	O 	0.6841	0.5996	0.6523	-0.68
Mof_C 	C 	0.7133	0.5021	0.5939	0.088
Mof_C 	C 	0.7444	0.47	0.5937	-0.149
Mof_C 	C 	0.7184	0.5399	0.6243	-0.094
Mof_C 	C 	0.7443	0.4349	0.5606	0.362
Mof_O 	O 	0.2731	0.9065	0.0603	-0.547
Mof_O 	O 	0.2148	0.9354	0.0321	-0.474
Mof_O 	O 	0.1841	0.0996	0.1523	-0.684
Mof_C 	C 	0.2133	0.0021	0.0939	0.03
Mof_C 	C 	0.2444	0.97	0.0937	-0.106
Mof_C 	C 	0.2184	0.0399	0.1243	-0.085
Mof_C 	C 	0.2443	0.9349	0.0606	0.35
Mof_O 	O 	0.7269	0.5935	0.0603	-0.552
Mof_O 	O 	0.7852	0.5646	0.0321	-0.484
Mof_O 	O 	0.8159	0.4004	0.1523	-0.681
Mof_C 	C 	0.7867	0.4979	0.0939	0.084
Mof_C 	C 	0.7556	0.53	0.0937	-0.15
Mof_C 	C 	0.7816	0.4601	0.1243	-0.091
Mof_C 	C 	0.7557	0.5651	0.0606	0.36
Mof_O 	O 	0.2269	0.0935	0.5603	-0.565
Mof_O 	O 	0.2852	0.0646	0.5321	-0.498
Mof_O 	O 	0.3159	0.9004	0.6523	-0.678
Mof_C 	C 	0.2867	0.9979	0.5939	0.139
Mof_C 	C 	0.2556	0.03	0.5937	-0.193
Mof_C 	C 	0.2816	0.9601	0.6243	-0.101
Mof_C 	C 	0.2557	0.0651	0.5606	0.372
Mof_O 	O 	0.9397	0.2269	0.9065	-0.528
Mof_O 	O 	0.9679	0.2852	0.9354	-0.443
Mof_O 	O 	0.8477	0.3159	0.0996	-0.681
Mof_C 	C 	0.9061	0.2867	0.0021	0.042
Mof_C 	C 	0.9063	0.2556	0.97	-0.102
Mof_C 	C 	0.8757	0.2816	0.0399	-0.088
Mof_C 	C 	0.9394	0.2557	0.9349	0.349
Mof_O 	O 	0.4397	0.7269	0.4065	-0.559
Mof_O 	O 	0.4679	0.7852	0.4354	-0.483
Mof_O 	O 	0.3477	0.8159	0.5996	-0.68
Mof_C 	C 	0.4061	0.7867	0.5021	0.089
Mof_C 	C 	0.4063	0.7556	0.47	-0.149
Mof_C 	C 	0.3757	0.7816	0.5399	-0.093
Mof_C 	C 	0.4394	0.7557	0.4349	0.362
Mof_O 	O 	0.4397	0.2731	0.0935	-0.564
Mof_O 	O 	0.4679	0.2148	0.0646	-0.499
Mof_O 	O 	0.3477	0.1841	0.9004	-0.679
Mof_C 	C 	0.4061	0.2133	0.9979	0.137
Mof_C 	C 	0.4063	0.2444	0.03	-0.193
Mof_C 	C 	0.3757	0.2184	0.9601	-0.102
Mof_C 	C 	0.4394	0.2443	0.0651	0.372
Mof_O 	O 	0.9397	0.7731	0.5935	-0.53
Mof_O 	O 	0.9679	0.7148	0.5646	-0.456
Mof_O 	O 	0.8477	0.6841	0.4004	-0.679
Mof_C 	C 	0.9061	0.7133	0.4979	0.093
Mof_C 	C 	0.9063	0.7444	0.53	-0.146
Mof_C 	C 	0.8757	0.7184	0.4601	-0.096
Mof_C 	C 	0.9394	0.7443	0.5651	0.359
Mof_O 	O 	0.5603	0.7731	0.4065	-0.557
Mof_O 	O 	0.5321	0.7148	0.4354	-0.485
Mof_O 	O 	0.6523	0.6841	0.5996	-0.68
Mof_C 	C 	0.5939	0.7133	0.5021	0.088
Mof_C 	C 	0.5937	0.7444	0.47	-0.149
Mof_C 	C 	0.6243	0.7184	0.5399	-0.094
Mof_C 	C 	0.5606	0.7443	0.4349	0.362
Mof_O 	O 	0.0603	0.2731	0.9065	-0.547
Mof_O 	O 	0.0321	0.2148	0.9354	-0.474
Mof_O 	O 	0.1523	0.1841	0.0996	-0.684
Mof_C 	C 	0.0939	0.2133	0.0021	0.03
Mof_C 	C 	0.0937	0.2444	0.97	-0.106
Mof_C 	C 	0.1243	0.2184	0.0399	-0.085
Mof_C 	C 	0.0606	0.2443	0.9349	0.35
Mof_O 	O 	0.0603	0.7269	0.5935	-0.552
Mof_O 	O 	0.0321	0.7852	0.5646	-0.484
Mof_O 	O 	0.1523	0.8159	0.4004	-0.681
Mof_C 	C 	0.0939	0.7867	0.4979	0.084
Mof_C 	C 	0.0937	0.7556	0.53	-0.15
Mof_C 	C 	0.1243	0.7816	0.4601	-0.091
Mof_C 	C 	0.0606	0.7557	0.5651	0.36
Mof_O 	O 	0.5603	0.2269	0.0935	-0.565
Mof_O 	O 	0.5321	0.2852	0.0646	-0.498
Mof_O 	O 	0.6523	0.3159	0.9004	-0.678
Mof_C 	C 	0.5939	0.2867	0.9979	0.139
Mof_C 	C 	0.5937	0.2556	0.03	-0.193
Mof_C 	C 	0.6243	0.2816	0.9601	-0.101
Mof_C 	C 	0.5606	0.2557	0.0651	0.372
Mof_O 	O 	0.9065	0.9397	0.2269	-0.528
Mof_O 	O 	0.9354	0.9679	0.2852	-0.443
Mof_O 	O 	0.0996	0.8477	0.3159	-0.681
Mof_C 	C 	0.0021	0.9061	0.2867	0.042
Mof_C 	C 	0.97	0.9063	0.2556	-0.102
Mof_C 	C 	0.0399	0.8757	0.2816	-0.088
Mof_C 	C 	0.9349	0.9394	0.2557	0.349
Mof_O 	O 	0.4065	0.4397	0.7269	-0.559
Mof_O 	O 	0.4354	0.4679	0.7852	-0.483
Mof_O 	O 	0.5996	0.3477	0.8159	-0.68
Mof_C 	C 	0.5021	0.4061	0.7867	0.089
Mof_C 	C 	0.47	0.4063	0.7556	-0.149
Mof_C 	C 	0.5399	0.3757	0.7816	-0.093
Mof_C 	C 	0.4349	0.4394	0.7557	0.362
Mof_O 	O 	0.0935	0.4397	0.2731	-0.564
Mof_O 	O 	0.0646	0.4679	0.2148	-0.499
Mof_O 	O 	0.9004	0.3477	0.1841	-0.679
Mof_C 	C 	0.9979	0.4061	0.2133	0.137
Mof_C 	C 	0.03	0.4063	0.2444	-0.193
Mof_C 	C 	0.9601	0.3757	0.2184	-0.102
Mof_C 	C 	0.0651	0.4394	0.2443	0.372
Mof_O 	O 	0.5935	0.9397	0.7731	-0.53
Mof_O 	O 	0.5646	0.9679	0.7148	-0.456
Mof_O 	O 	0.4004	0.8477	0.6841	-0.679
Mof_C 	C 	0.4979	0.9061	0.7133	0.093
Mof_C 	C 	0.53	0.9063	0.7444	-0.146
Mof_C 	C 	0.4601	0.8757	0.7184	-0.096
Mof_C 	C 	0.5651	0.9394	0.7443	0.359
Mof_O 	O 	0.4065	0.5603	0.7731	-0.557
Mof_O 	O 	0.4354	0.5321	0.7148	-0.485
Mof_O 	O 	0.5996	0.6523	0.6841	-0.68
Mof_C 	C 	0.5021	0.5939	0.7133	0.088
Mof_C 	C 	0.47	0.5937	0.7444	-0.149
Mof_C 	C 	0.5399	0.6243	0.7184	-0.094
Mof_C 	C 	0.4349	0.5606	0.7443	0.362
Mof_O 	O 	0.9065	0.0603	0.2731	-0.547
Mof_O 	O 	0.9354	0.0321	0.2148	-0.474
Mof_O 	O 	0.0996	0.1523	0.1841	-0.684
Mof_C 	C 	0.0021	0.0939	0.2133	0.03
Mof_C 	C 	0.97	0.0937	0.2444	-0.106
Mof_C 	C 	0.0399	0.1243	0.2184	-0.085
Mof_C 	C 	0.9349	0.0606	0.2443	0.35
Mof_O 	O 	0.5935	0.0603	0.7269	-0.552
Mof_O 	O 	0.5646	0.0321	0.7852	-0.484
Mof_O 	O 	0.4004	0.1523	0.8159	-0.681
Mof_C 	C 	0.4979	0.0939	0.7867	0.084
Mof_C 	C 	0.53	0.0937	0.7556	-0.15
Mof_C 	C 	0.4601	0.1243	0.7816	-0.091
Mof_C 	C 	0.5651	0.0606	0.7557	0.36
Mof_O 	O 	0.0935	0.5603	0.2269	-0.565
Mof_O 	O 	0.0646	0.5321	0.2852	-0.498
Mof_O 	O 	0.9004	0.6523	0.3159	-0.678
Mof_C 	C 	0.9979	0.5939	0.2867	0.139
Mof_C 	C 	0.03	0.5937	0.2556	-0.193
Mof_C 	C 	0.9601	0.6243	0.2816	-0.101
Mof_C 	C 	0.0651	0.5606	0.2557	0.372
Mof_O 	O 	0.1565	0.9769	0.8103	-0.503
Mof_O 	O 	0.1854	0.0352	0.7821	-0.471
Mof_O 	O 	0.3496	0.0659	0.9023	-0.68
Mof_C 	C 	0.2521	0.0367	0.8439	0.083
Mof_C 	C 	0.22	0.0056	0.8437	-0.172
Mof_C 	C 	0.2899	0.0316	0.8743	-0.092
Mof_C 	C 	0.1849	0.0057	0.8106	0.317
Mof_O 	O 	0.6565	0.4769	0.3103	-0.559
Mof_O 	O 	0.6854	0.5352	0.2821	-0.484
Mof_O 	O 	0.8496	0.5659	0.4023	-0.678
Mof_C 	C 	0.7521	0.5367	0.3439	0.088
Mof_C 	C 	0.72	0.5056	0.3437	-0.149
Mof_C 	C 	0.7899	0.5316	0.3743	-0.094
Mof_C 	C 	0.6849	0.5057	0.3106	0.362
Mof_O 	O 	0.3435	0.0231	0.3103	-0.58
Mof_O 	O 	0.3146	0.9648	0.2821	-0.471
Mof_O 	O 	0.1504	0.9341	0.4023	-0.678
Mof_C 	C 	0.2479	0.9633	0.3439	0.093
Mof_C 	C 	0.28	0.9944	0.3437	-0.123
Mof_C 	C 	0.2101	0.9684	0.3743	-0.093
Mof_C 	C 	0.3151	0.9943	0.3106	0.404
Mof_O 	O 	0.8435	0.5231	0.8103	-0.555
Mof_O 	O 	0.8146	0.4648	0.7821	-0.484
Mof_O 	O 	0.6504	0.4341	0.9023	-0.676
Mof_C 	C 	0.7479	0.4633	0.8439	0.09
Mof_C 	C 	0.78	0.4944	0.8437	-0.148
Mof_C 	C 	0.7101	0.4684	0.8743	-0.091
Mof_C 	C 	0.8151	0.4943	0.8106	0.363
Mof_O 	O 	0.6565	0.5231	0.1897	-0.56
Mof_O 	O 	0.6854	0.4648	0.2179	-0.485
Mof_O 	O 	0.8496	0.4341	0.0977	-0.683
Mof_C 	C 	0.7521	0.4633	0.1561	0.086
Mof_C 	C 	0.72	0.4944	0.1563	-0.149
Mof_C 	C 	0.7899	0.4684	0.1257	-0.097
Mof_C 	C 	0.6849	0.4943	0.1894	0.361
Mof_O 	O 	0.1565	0.0231	0.6897	-0.582
Mof_O 	O 	0.1854	0.9648	0.7179	-0.471
Mof_O 	O 	0.3496	0.9341	0.5977	-0.676
Mof_C 	C 	0.2521	0.9633	0.6561	0.093
Mof_C 	C 	0.22	0.9944	0.6563	-0.124
Mof_C 	C 	0.2899	0.9684	0.6257	-0.093
Mof_C 	C 	0.1849	0.9943	0.6894	0.403
Mof_O 	O 	0.8435	0.4769	0.6897	-0.557
Mof_O 	O 	0.8146	0.5352	0.7179	-0.484
Mof_O 	O 	0.6504	0.5659	0.5977	-0.681
Mof_C 	C 	0.7479	0.5367	0.6561	0.088
Mof_C 	C 	0.78	0.5056	0.6563	-0.148
Mof_C 	C 	0.7101	0.5316	0.6257	-0.094
Mof_C 	C 	0.8151	0.5057	0.6894	0.362
Mof_O 	O 	0.3435	0.9769	0.1897	-0.505
Mof_O 	O 	0.3146	0.0352	0.2179	-0.472
Mof_O 	O 	0.1504	0.0659	0.0977	-0.691
Mof_C 	C 	0.2479	0.0367	0.1561	0.079
Mof_C 	C 	0.28	0.0056	0.1563	-0.173
Mof_C 	C 	0.2101	0.0316	0.1257	-0.096
Mof_C 	C 	0.3151	0.0057	0.1894	0.315
Mof_O 	O 	0.4769	0.6897	0.8435	-0.557
Mof_O 	O 	0.5352	0.7179	0.8146	-0.484
Mof_O 	O 	0.5659	0.5977	0.6504	-0.681
Mof_C 	C 	0.5367	0.6561	0.7479	0.088
Mof_C 	C 	0.5056	0.6563	0.78	-0.148
Mof_C 	C 	0.5316	0.6257	0.7101	-0.094
Mof_C 	C 	0.5057	0.6894	0.8151	0.362
Mof_O 	O 	0.9769	0.1897	0.3435	-0.505
Mof_O 	O 	0.0352	0.2179	0.3146	-0.472
Mof_O 	O 	0.0659	0.0977	0.1504	-0.691
Mof_C 	C 	0.0367	0.1561	0.2479	0.079
Mof_C 	C 	0.0056	0.1563	0.28	-0.173
Mof_C 	C 	0.0316	0.1257	0.2101	-0.096
Mof_C 	C 	0.0057	0.1894	0.3151	0.315
Mof_O 	O 	0.5231	0.1897	0.6565	-0.56
Mof_O 	O 	0.4648	0.2179	0.6854	-0.485
Mof_O 	O 	0.4341	0.0977	0.8496	-0.683
Mof_C 	C 	0.4633	0.1561	0.7521	0.086
Mof_C 	C 	0.4944	0.1563	0.72	-0.149
Mof_C 	C 	0.4684	0.1257	0.7899	-0.097
Mof_C 	C 	0.4943	0.1894	0.6849	0.361
Mof_O 	O 	0.0231	0.6897	0.1565	-0.582
Mof_O 	O 	0.9648	0.7179	0.1854	-0.471
Mof_O 	O 	0.9341	0.5977	0.3496	-0.676
Mof_C 	C 	0.9633	0.6561	0.2521	0.093
Mof_C 	C 	0.9944	0.6563	0.22	-0.124
Mof_C 	C 	0.9684	0.6257	0.2899	-0.093
Mof_C 	C 	0.9943	0.6894	0.1849	0.403
Mof_O 	O 	0.0231	0.3103	0.3435	-0.58
Mof_O 	O 	0.9648	0.2821	0.3146	-0.471
Mof_O 	O 	0.9341	0.4023	0.1504	-0.678
Mof_C 	C 	0.9633	0.3439	0.2479	0.093
Mof_C 	C 	0.9944	0.3437	0.28	-0.123
Mof_C 	C 	0.9684	0.3743	0.2101	-0.093
Mof_C 	C 	0.9943	0.3106	0.3151	0.404
Mof_O 	O 	0.5231	0.8103	0.8435	-0.555
Mof_O 	O 	0.4648	0.7821	0.8146	-0.484
Mof_O 	O 	0.4341	0.9023	0.6504	-0.676
Mof_C 	C 	0.4633	0.8439	0.7479	0.09
Mof_C 	C 	0.4944	0.8437	0.78	-0.148
Mof_C 	C 	0.4684	0.8743	0.7101	-0.091
Mof_C 	C 	0.4943	0.8106	0.8151	0.363
Mof_O 	O 	0.9769	0.8103	0.1565	-0.503
Mof_O 	O 	0.0352	0.7821	0.1854	-0.471
Mof_O 	O 	0.0659	0.9023	0.3496	-0.68
Mof_C 	C 	0.0367	0.8439	0.2521	0.083
Mof_C 	C 	0.0056	0.8437	0.22	-0.172
Mof_C 	C 	0.0316	0.8743	0.2899	-0.092
Mof_C 	C 	0.0057	0.8106	0.1849	0.317
Mof_O 	O 	0.4769	0.3103	0.6565	-0.559
Mof_O 	O 	0.5352	0.2821	0.6854	-0.484
Mof_O 	O 	0.5659	0.4023	0.8496	-0.678
Mof_C 	C 	0.5367	0.3439	0.7521	0.088
Mof_C 	C 	0.5056	0.3437	0.72	-0.149
Mof_C 	C 	0.5316	0.3743	0.7899	-0.094
Mof_C 	C 	0.5057	0.3106	0.6849	0.362
Mof_O 	O 	0.1897	0.6565	0.5231	-0.56
Mof_O 	O 	0.2179	0.6854	0.4648	-0.485
Mof_O 	O 	0.0977	0.8496	0.4341	-0.683
Mof_C 	C 	0.1561	0.7521	0.4633	0.086
Mof_C 	C 	0.1563	0.72	0.4944	-0.149
Mof_C 	C 	0.1257	0.7899	0.4684	-0.097
Mof_C 	C 	0.1894	0.6849	0.4943	0.361
Mof_O 	O 	0.6897	0.1565	0.0231	-0.582
Mof_O 	O 	0.7179	0.1854	0.9648	-0.471
Mof_O 	O 	0.5977	0.3496	0.9341	-0.676
Mof_C 	C 	0.6561	0.2521	0.9633	0.093
Mof_C 	C 	0.6563	0.22	0.9944	-0.124
Mof_C 	C 	0.6257	0.2899	0.9684	-0.093
Mof_C 	C 	0.6894	0.1849	0.9943	0.403
Mof_O 	O 	0.6897	0.8435	0.4769	-0.557
Mof_O 	O 	0.7179	0.8146	0.5352	-0.484
Mof_O 	O 	0.5977	0.6504	0.5659	-0.681
Mof_C 	C 	0.6561	0.7479	0.5367	0.088
Mof_C 	C 	0.6563	0.78	0.5056	-0.148
Mof_C 	C 	0.6257	0.7101	0.5316	-0.094
Mof_C 	C 	0.6894	0.8151	0.5057	0.362
Mof_O 	O 	0.1897	0.3435	0.9769	-0.505
Mof_O 	O 	0.2179	0.3146	0.0352	-0.472
Mof_O 	O 	0.0977	0.1504	0.0659	-0.691
Mof_C 	C 	0.1561	0.2479	0.0367	0.079
Mof_C 	C 	0.1563	0.28	0.0056	-0.173
Mof_C 	C 	0.1257	0.2101	0.0316	-0.096
Mof_C 	C 	0.1894	0.3151	0.0057	0.315
Mof_O 	O 	0.8103	0.1565	0.9769	-0.503
Mof_O 	O 	0.7821	0.1854	0.0352	-0.471
Mof_O 	O 	0.9023	0.3496	0.0659	-0.68
Mof_C 	C 	0.8439	0.2521	0.0367	0.083
Mof_C 	C 	0.8437	0.22	0.0056	-0.172
Mof_C 	C 	0.8743	0.2899	0.0316	-0.092
Mof_C 	C 	0.8106	0.1849	0.0057	0.317
Mof_O 	O 	0.3103	0.6565	0.4769	-0.559
Mof_O 	O 	0.2821	0.6854	0.5352	-0.484
Mof_O 	O 	0.4023	0.8496	0.5659	-0.678
Mof_C 	C 	0.3439	0.7521	0.5367	0.088
Mof_C 	C 	0.3437	0.72	0.5056	-0.149
Mof_C 	C 	0.3743	0.7899	0.5316	-0.094
Mof_C 	C 	0.3106	0.6849	0.5057	0.362
Mof_O 	O 	0.3103	0.3435	0.0231	-0.58
Mof_O 	O 	0.2821	0.3146	0.9648	-0.471
Mof_O 	O 	0.4023	0.1504	0.9341	-0.678
Mof_C 	C 	0.3439	0.2479	0.9633	0.093
Mof_C 	C 	0.3437	0.28	0.9944	-0.123
Mof_C 	C 	0.3743	0.2101	0.9684	-0.093
Mof_C 	C 	0.3106	0.3151	0.9943	0.404
Mof_O 	O 	0.8103	0.8435	0.5231	-0.555
Mof_O 	O 	0.7821	0.8146	0.4648	-0.484
Mof_O 	O 	0.9023	0.6504	0.4341	-0.676
Mof_C 	C 	0.8439	0.7479	0.4633	0.09
Mof_C 	C 	0.8437	0.78	0.4944	-0.148
Mof_C 	C 	0.8743	0.7101	0.4684	-0.091
Mof_C 	C 	0.8106	0.8151	0.4943	0.363
Mof_In	In	0.75	0.125	-0	2.377
Mof_In	In	0.75	0.875	0.5	2.505
Mof_In	In	0.25	0.625	0.5	2.5
Mof_In	In	0.25	0.375	-0	2.377
Mof_In	In	-4.0241e-34	0.75	0.125	2.377
Mof_In	In	0.5	0.75	0.875	2.505
Mof_In	In	0.5	0.25	0.625	2.5
Mof_In	In	-5.56266e-33	0.25	0.375	2.377
Mof_In	In	0.125	0	0.75	2.377
Mof_In	In	0.875	0.5	0.75	2.505
Mof_In	In	0.625	0.5	0.25	2.5
Mof_In	In	0.375	0	0.25	2.377
Mof_In	In	0.875	0	0.25	2.381
Mof_In	In	0.625	0	0.75	2.379
Mof_In	In	0.375	0.5	0.75	2.502
Mof_In	In	0.125	0.5	0.25	2.497
Mof_In	In	0.5	0.25	0.125	2.497
Mof_In	In	0.5	0.75	0.375	2.502
Mof_In	In	9.31206e-33	0.75	0.625	2.379
Mof_In	In	-1.06566e-32	0.25	0.875	2.381
Mof_In	In	0.75	0.375	0.5	2.502
Mof_In	In	0.25	0.125	0.5	2.497
Mof_In	In	0.25	0.875	-0	2.381
Mof_In	In	0.75	0.625	-0	2.379
Mof_Zn	Zn	0.65169	0.84831	0.15169	0.937
Mof_Zn	Zn	0.67058	0.82942	0.17058	0.869
Mof_Zn	Zn	0.15169	0.34831	0.65169	0.937
Mof_Zn	Zn	0.17058	0.32942	0.67058	0.868
Mof_Zn	Zn	0.84831	0.15169	0.65169	0.937
Mof_Zn	Zn	0.82942	0.17058	0.67058	0.869
Mof_Zn	Zn	0.34831	0.65169	0.15169	0.937
Mof_Zn	Zn	0.32942	0.67058	0.17058	0.868
Mof_Zn	Zn	0.34831	0.34831	0.34831	0.937
Mof_Zn	Zn	0.32942	0.32942	0.32942	0.869
Mof_Zn	Zn	0.84831	0.84831	0.84831	0.938
Mof_Zn	Zn	0.82942	0.82942	0.82942	0.871
Mof_Zn	Zn	0.15169	0.65169	0.84831	0.937
Mof_Zn	Zn	0.17058	0.67058	0.82942	0.869
Mof_Zn	Zn	0.65169	0.15169	0.34831	0.937
Mof_Zn	Zn	0.67058	0.17058	0.32942	0.868
Mof_Zn	Zn	0.59831	0.90169	0.09831	0.937
Mof_Zn	Zn	0.57942	0.92058	0.07942	0.869
Mof_Zn	Zn	0.09831	0.40169	0.59831	0.936
Mof_Zn	Zn	0.07942	0.42058	0.57942	0.866
Mof_Zn	Zn	0.90169	0.09831	0.59831	0.937
Mof_Zn	Zn	0.92058	0.07942	0.57942	0.869
Mof_Zn	Zn	0.40169	0.59831	0.09831	0.936
Mof_Zn	Zn	0.42058	0.57942	0.07942	0.866
Mof_Zn	Zn	0.09831	0.59831	0.90169	0.937
Mof_Zn	Zn	0.07942	0.57942	0.92058	0.869
Mof_Zn	Zn	0.59831	0.09831	0.40169	0.936
Mof_Zn	Zn	0.57942	0.07942	0.42058	0.866
Mof_Zn	Zn	0.40169	0.40169	0.40169	0.937
Mof_Zn	Zn	0.42058	0.42058	0.42058	0.869
Mof_Zn	Zn	0.90169	0.90169	0.90169	0.939
Mof_Zn	Zn	0.92058	0.92058	0.92058	0.879
Mof_Zn	Zn	0.34831	0.15169	0.84831	0.937
Mof_Zn	Zn	0.32942	0.17058	0.82942	0.869
Mof_Zn	Zn	0.84831	0.65169	0.34831	0.937
Mof_Zn	Zn	0.82942	0.67058	0.32942	0.87
Mof_Zn	Zn	0.15169	0.84831	0.34831	0.937
Mof_Zn	Zn	0.17058	0.82942	0.32942	0.869
Mof_Zn	Zn	0.65169	0.34831	0.84831	0.937
Mof_Zn	Zn	0.67058	0.32942	0.82942	0.87
Mof_Zn	Zn	0.65169	0.65169	0.65169	0.937
Mof_Zn	Zn	0.67058	0.67058	0.67058	0.869
Mof_Zn	Zn	0.15169	0.15169	0.15169	0.936
Mof_Zn	Zn	0.17058	0.17058	0.17058	0.867
Mof_Zn	Zn	0.84831	0.34831	0.15169	0.937
Mof_Zn	Zn	0.82942	0.32942	0.17058	0.869
Mof_Zn	Zn	0.34831	0.84831	0.65169	0.937
Mof_Zn	Zn	0.32942	0.82942	0.67058	0.87
Mof_Zn	Zn	0.40169	0.09831	0.90169	0.937
Mof_Zn	Zn	0.42058	0.07942	0.92058	0.869
Mof_Zn	Zn	0.90169	0.59831	0.40169	0.938
Mof_Zn	Zn	0.92058	0.57942	0.42058	0.872
Mof_Zn	Zn	0.09831	0.90169	0.40169	0.937
Mof_Zn	Zn	0.07942	0.92058	0.42058	0.869
Mof_Zn	Zn	0.59831	0.40169	0.90169	0.938
Mof_Zn	Zn	0.57942	0.42058	0.92058	0.872
Mof_Zn	Zn	0.90169	0.40169	0.09831	0.937
Mof_Zn	Zn	0.92058	0.42058	0.07942	0.869
Mof_Zn	Zn	0.40169	0.90169	0.59831	0.938
Mof_Zn	Zn	0.42058	0.92058	0.57942	0.872
Mof_Zn	Zn	0.59831	0.59831	0.59831	0.937
Mof_Zn	Zn	0.57942	0.57942	0.57942	0.869
Mof_Zn	Zn	0.09831	0.09831	0.09831	0.934
Mof_Zn	Zn	0.07942	0.07942	0.07942	0.859
Mof_C 	C 	0.6807	0.9307	0.125	0.491
Mof_C 	C 	0.7792	0.0292	0.125	0.066
Mof_C 	C 	0.1807	0.4307	0.625	0.487
Mof_C 	C 	0.2792	0.5292	0.625	0.092
Mof_C 	C 	0.8193	0.0693	0.625	0.482
Mof_C 	C 	0.7208	0.9708	0.625	0.118
Mof_C 	C 	0.3193	0.5693	0.125	0.486
Mof_C 	C 	0.2208	0.4708	0.125	0.087
Mof_C 	C 	0.3193	0.4307	0.375	0.487
Mof_C 	C 	0.2208	0.5292	0.375	0.091
Mof_C 	C 	0.8193	0.9307	0.875	0.493
Mof_C 	C 	0.7208	0.0292	0.875	0.071
Mof_C 	C 	0.1807	0.5693	0.875	0.488
Mof_C 	C 	0.2792	0.4708	0.875	0.096
Mof_C 	C 	0.6807	0.0693	0.375	0.482
Mof_C 	C 	0.7792	0.9708	0.375	0.12
Mof_C 	C 	0.125	0.6807	0.9307	0.491
Mof_C 	C 	0.125	0.7792	0.0292	0.066
Mof_C 	C 	0.625	0.1807	0.4307	0.487
Mof_C 	C 	0.625	0.2792	0.5292	0.092
Mof_C 	C 	0.625	0.8193	0.0693	0.482
Mof_C 	C 	0.625	0.7208	0.9708	0.118
Mof_C 	C 	0.125	0.3193	0.5693	0.486
Mof_C 	C 	0.125	0.2208	0.4708	0.087
Mof_C 	C 	0.375	0.3193	0.4307	0.487
Mof_C 	C 	0.375	0.2208	0.5292	0.091
Mof_C 	C 	0.875	0.8193	0.9307	0.493
Mof_C 	C 	0.875	0.7208	0.0292	0.071
Mof_C 	C 	0.875	0.1807	0.5693	0.488
Mof_C 	C 	0.875	0.2792	0.4708	0.096
Mof_C 	C 	0.375	0.6807	0.0693	0.482
Mof_C 	C 	0.375	0.7792	0.9708	0.12
Mof_C 	C 	0.9307	0.125	0.6807	0.491
Mof_C 	C 	0.0292	0.125	0.7792	0.066
Mof_C 	C 	0.4307	0.625	0.1807	0.487
Mof_C 	C 	0.5292	0.625	0.2792	0.092
Mof_C 	C 	0.0693	0.625	0.8193	0.482
Mof_C 	C 	0.9708	0.625	0.7208	0.118
Mof_C 	C 	0.5693	0.125	0.3193	0.486
Mof_C 	C 	0.4708	0.125	0.2208	0.087
Mof_C 	C 	0.4307	0.375	0.3193	0.487
Mof_C 	C 	0.5292	0.375	0.2208	0.091
Mof_C 	C 	0.9307	0.875	0.8193	0.493
Mof_C 	C 	0.0292	0.875	0.7208	0.071
Mof_C 	C 	0.5693	0.875	0.1807	0.488
Mof_C 	C 	0.4708	0.875	0.2792	0.096
Mof_C 	C 	0.0693	0.375	0.6807	0.482
Mof_C 	C 	0.9708	0.375	0.7792	0.12
Mof_C 	C 	0.3193	0.0693	0.875	0.483
Mof_C 	C 	0.2208	0.9708	0.875	0.119
Mof_C 	C 	0.8193	0.5693	0.375	0.487
Mof_C 	C 	0.7208	0.4708	0.375	0.093
Mof_C 	C 	0.1807	0.9307	0.375	0.492
Mof_C 	C 	0.2792	0.0292	0.375	0.067
Mof_C 	C 	0.6807	0.4307	0.875	0.488
Mof_C 	C 	0.7792	0.5292	0.875	0.098
Mof_C 	C 	0.6807	0.5693	0.625	0.487
Mof_C 	C 	0.7792	0.4708	0.625	0.095
Mof_C 	C 	0.1807	0.0693	0.125	0.481
Mof_C 	C 	0.2792	0.9708	0.125	0.114
Mof_C 	C 	0.8193	0.4307	0.125	0.486
Mof_C 	C 	0.7208	0.5292	0.125	0.089
Mof_C 	C 	0.3193	0.9307	0.625	0.492
Mof_C 	C 	0.2208	0.0292	0.625	0.066
Mof_C 	C 	0.875	0.3193	0.0693	0.483
Mof_C 	C 	0.875	0.2208	0.9708	0.119
Mof_C 	C 	0.375	0.8193	0.5693	0.487
Mof_C 	C 	0.375	0.7208	0.4708	0.093
Mof_C 	C 	0.375	0.1807	0.9307	0.492
Mof_C 	C 	0.375	0.2792	0.0292	0.067
Mof_C 	C 	0.875	0.6807	0.4307	0.488
Mof_C 	C 	0.875	0.7792	0.5292	0.098
Mof_C 	C 	0.625	0.6807	0.5693	0.487
Mof_C 	C 	0.625	0.7792	0.4708	0.095
Mof_C 	C 	0.125	0.1807	0.0693	0.481
Mof_C 	C 	0.125	0.2792	0.9708	0.114
Mof_C 	C 	0.125	0.8193	0.4307	0.486
Mof_C 	C 	0.125	0.7208	0.5292	0.089
Mof_C 	C 	0.625	0.3193	0.9307	0.492
Mof_C 	C 	0.625	0.2208	0.0292	0.066
Mof_C 	C 	0.0693	0.875	0.3193	0.483
Mof_C 	C 	0.9708	0.875	0.2208	0.119
Mof_C 	C 	0.5693	0.375	0.8193	0.487
Mof_C 	C 	0.4708	0.375	0.7208	0.093
Mof_C 	C 	0.9307	0.375	0.1807	0.492
Mof_C 	C 	0.0292	0.375	0.2792	0.067
Mof_C 	C 	0.4307	0.875	0.6807	0.488
Mof_C 	C 	0.5292	0.875	0.7792	0.098
Mof_C 	C 	0.5693	0.625	0.6807	0.487
Mof_C 	C 	0.4708	0.625	0.7792	0.095
Mof_C 	C 	0.0693	0.125	0.1807	0.481
Mof_C 	C 	0.9708	0.125	0.2792	0.114
Mof_C 	C 	0.4307	0.125	0.8193	0.486
Mof_C 	C 	0.5292	0.125	0.7208	0.089
Mof_C 	C 	0.9307	0.625	0.3193	0.492
Mof_C 	C 	0.0292	0.625	0.2208	0.066
_end
