# CIF file generated by openbabel 3.1.0, see https://openbabel.org
data_I
_chemical_name_common 'LAVTIN_clean'
_cell_length_a 10.27
_cell_length_b 10.27
_cell_length_c 14.46
_cell_angle_alpha 90
_cell_angle_beta 90
_cell_angle_gamma 90
_space_group_name_H-M_alt 'P 1'
_space_group_name_Hall 'P 1'
loop_
    _symmetry_equiv_pos_as_xyz
    x,y,z
loop_
    _atom_site_label
    _atom_site_type_symbol
    _atom_site_fract_x
    _atom_site_fract_y
    _atom_site_fract_z
    _atom_site_occupancy
    Er1      Er       0.35133    0.64867    0.87500    1.000
    Er2      Er       0.64867    0.35133    0.37500    1.000
    Er3      Er       0.35133    0.35133    0.62500    1.000
    Er4      Er       0.64867    0.64867    0.12500    1.000
    H1       H        0.42490    0.05920    0.87160    1.000
    H2       H        0.57510    0.94080    0.37160    1.000
    H3       H        0.94080    0.42490    0.62160    1.000
    H4       H        0.05920    0.57510    0.12160    1.000
    H5       H        0.57510    0.05920    0.12840    1.000
    H6       H        0.42490    0.94080    0.62840    1.000
    H7       H        0.05920    0.42490    0.37840    1.000
    H8       H        0.94080    0.57510    0.87840    1.000
    H9       H        0.50000    0.39920    0.00000    1.000
    H10      H        0.50000    0.60080    0.50000    1.000
    H11      H        0.60080    0.50000    0.75000    1.000
    H12      H        0.39920    0.50000    0.25000    1.000
    C1       C        0.41220    0.31660    0.83930    1.000
    C2       C        0.45540    0.10460    0.92280    1.000
    C3       C        0.45680    0.24000    0.92270    1.000
    C4       C        0.58780    0.68340    0.33930    1.000
    C5       C        0.54460    0.89540    0.42280    1.000
    C6       C        0.54320    0.76000    0.42270    1.000
    C7       C        0.68340    0.41220    0.58930    1.000
    C8       C        0.89540    0.45540    0.67280    1.000
    C9       C        0.76000    0.45680    0.67270    1.000
    C10      C        0.31660    0.58780    0.08930    1.000
    C11      C        0.10460    0.54460    0.17280    1.000
    C12      C        0.24000    0.54320    0.17270    1.000
    C13      C        0.58780    0.31660    0.16070    1.000
    C14      C        0.54460    0.10460    0.07720    1.000
    C15      C        0.54320    0.24000    0.07730    1.000
    C16      C        0.41220    0.68340    0.66070    1.000
    C17      C        0.45540    0.89540    0.57720    1.000
    C18      C        0.45680    0.76000    0.57730    1.000
    C19      C        0.31660    0.41220    0.41070    1.000
    C20      C        0.10460    0.45540    0.32720    1.000
    C21      C        0.24000    0.45680    0.32730    1.000
    C22      C        0.68340    0.58780    0.91070    1.000
    C23      C        0.89540    0.54460    0.82720    1.000
    C24      C        0.76000    0.54320    0.82730    1.000
    C25      C        0.50000    0.88970    0.00000    1.000
    C26      C        0.50000    0.03740    0.00000    1.000
    C27      C        0.50000    0.30870    0.00000    1.000
    C28      C        0.50000    0.11030    0.50000    1.000
    C29      C        0.50000    0.96260    0.50000    1.000
    C30      C        0.50000    0.69130    0.50000    1.000
    C31      C        0.11030    0.50000    0.75000    1.000
    C32      C        0.96260    0.50000    0.75000    1.000
    C33      C        0.69130    0.50000    0.75000    1.000
    C34      C        0.88970    0.50000    0.25000    1.000
    C35      C        0.03740    0.50000    0.25000    1.000
    C36      C        0.30870    0.50000    0.25000    1.000
    O1       O        0.42770    0.83610    0.94200    1.000
    O2       O        0.38860    0.43310    0.84990    1.000
    O3       O        0.40410    0.25830    0.76330    1.000
    O4       O        0.57230    0.16390    0.44200    1.000
    O5       O        0.61140    0.56690    0.34990    1.000
    O6       O        0.59590    0.74170    0.26330    1.000
    O7       O        0.16390    0.42770    0.69200    1.000
    O8       O        0.56690    0.38860    0.59990    1.000
    O9       O        0.74170    0.40410    0.51330    1.000
    O10      O        0.83610    0.57230    0.19200    1.000
    O11      O        0.43310    0.61140    0.09990    1.000
    O12      O        0.25830    0.59590    0.01330    1.000
    O13      O        0.57230    0.83610    0.05800    1.000
    O14      O        0.61140    0.43310    0.15010    1.000
    O15      O        0.59590    0.25830    0.23670    1.000
    O16      O        0.42770    0.16390    0.55800    1.000
    O17      O        0.38860    0.56690    0.65010    1.000
    O18      O        0.40410    0.74170    0.73670    1.000
    O19      O        0.83610    0.42770    0.30800    1.000
    O20      O        0.43310    0.38860    0.40010    1.000
    O21      O        0.25830    0.40410    0.48670    1.000
    O22      O        0.16390    0.57230    0.80800    1.000
    O23      O        0.56690    0.61140    0.90010    1.000
    O24      O        0.74170    0.59590    0.98670    1.000
