data_functionalizedCrystal
_audit_creation_method	'EQeq! by Chris Wilmer'
_symmetry_space_group_name_H-M	'P1'
_symmetry_Int_Tables_number	1
_symmetry_cell_setting	triclinic
loop_
_symmetry_equiv_pos_as_xyz
  x,y,z
_cell_length_a	12.7905
_cell_length_b	25.9152
_cell_length_c	10.6329
_cell_angle_alpha	90
_cell_angle_beta	92.472
_cell_angle_gamma	90
loop_
_atom_site_label
_atom_site_type_symbol
_atom_site_fract_x
_atom_site_fract_y
_atom_site_fract_z
_atom_site_charge
Mof_Fe	Fe	0.81432	0.10255	0.18721	0.96
Mof_Na	Na	0.30866	0.29398	0.31686	2.824
Mof_Na	Na	0.34799	0.31174	0.02611	1.988
Mof_C 	C 	0.60538	0.22032	0.2523	0.018
Mof_Cl	Cl	0.64844	0.25465	0.3837	-0.302
Mof_C 	C 	0.51368	0.23698	0.1831	0.15
Mof_O 	O 	0.46183	0.27583	0.2059	-0.744
Mof_C 	C 	0.47437	0.20395	0.0688	0.199
Mof_O 	O 	0.39816	0.22084	0.00642	-0.839
Mof_C 	C 	0.52897	0.15775	0.0415	0.019
Mof_Cl	Cl	0.48633	0.12087	0.91402	-0.41
Mof_C 	C 	0.62203	0.1456	0.105	0.11
Mof_O 	O 	0.68314	0.1087	0.07655	-0.242
Mof_C 	C 	0.65885	0.17699	0.2188	0.09
Mof_O 	O 	0.74069	0.15923	0.27764	-0.247
Mof_C 	C 	0.04474	0.2067	0.0945	0.06
Mof_Cl	Cl	0.01225	0.23579	0.95197	-0.302
Mof_C 	C 	0.98178	0.16857	0.1395	0.106
Mof_O 	O 	0.89659	0.1519	0.08507	-0.231
Mof_C 	C 	0.01033	0.14233	0.2637	0.124
Mof_O 	O 	0.94417	0.10876	0.29916	-0.233
Mof_C 	C 	0.10228	0.15478	0.3286	0.036
Mof_Cl	Cl	0.13611	0.12364	0.46854	-0.378
Mof_C 	C 	0.16762	0.19508	0.2883	0.213
Mof_O 	O 	0.24837	0.20978	0.34559	-0.862
Mof_C 	C 	0.13646	0.22418	0.1645	0.132
Mof_O 	O 	0.19298	0.2601	0.1347	-0.628
Mof_C 	C 	0.2811	0.45935	0.1805	0.038
Mof_Cl	Cl	0.35072	0.46692	0.04576	-0.295
Mof_C 	C 	0.23866	0.50192	0.2371	0.119
Mof_O 	O 	0.24442	0.54828	0.1963	-0.243
Mof_C 	C 	0.18098	0.49612	0.3582	0.093
Mof_O 	O 	0.14826	0.53871	0.40415	-0.226
Mof_C 	C 	0.16701	0.44814	0.4092	0.093
Mof_Cl	Cl	0.09637	0.44203	0.5434	-0.247
Mof_C 	C 	0.20992	0.40292	0.3552	0.105
Mof_O 	O 	0.20177	0.35901	0.39732	-0.515
Mof_C 	C 	0.27217	0.40913	0.2332	0.247
Mof_O 	O 	0.30997	0.36947	0.18911	-0.786
Mof_Fe	Fe	0.18568	0.60255	0.31279	0.961
Mof_Na	Na	0.69134	0.79398	0.18314	2.828
Mof_Na	Na	0.65201	0.81174	0.47389	1.991
Mof_C 	C 	0.39462	0.72032	0.2477	0.018
Mof_Cl	Cl	0.35156	0.75465	0.1163	-0.301
Mof_C 	C 	0.48632	0.73698	0.3169	0.15
Mof_O 	O 	0.53817	0.77583	0.2941	-0.745
Mof_C 	C 	0.52563	0.70395	0.4312	0.199
Mof_O 	O 	0.60184	0.72084	0.49358	-0.838
Mof_C 	C 	0.47103	0.65775	0.4585	0.02
Mof_Cl	Cl	0.51367	0.62087	0.58598	-0.411
Mof_C 	C 	0.37797	0.6456	0.395	0.11
Mof_O 	O 	0.31686	0.6087	0.42345	-0.242
Mof_C 	C 	0.34115	0.67699	0.2812	0.09
Mof_O 	O 	0.25931	0.65923	0.22236	-0.247
Mof_C 	C 	0.95526	0.7067	0.4055	0.064
Mof_Cl	Cl	0.98775	0.73579	0.54803	-0.305
Mof_C 	C 	0.01822	0.66857	0.3605	0.102
Mof_O 	O 	0.10341	0.6519	0.41493	-0.23
Mof_C 	C 	0.98967	0.64233	0.2363	0.128
Mof_O 	O 	0.05583	0.60876	0.20084	-0.235
Mof_C 	C 	0.89772	0.65478	0.1714	0.035
Mof_Cl	Cl	0.86389	0.62364	0.03146	-0.376
Mof_C 	C 	0.83238	0.69508	0.2117	0.214
Mof_O 	O 	0.75163	0.70978	0.15441	-0.862
Mof_C 	C 	0.86354	0.72418	0.3355	0.131
Mof_O 	O 	0.80702	0.7601	0.3653	-0.627
Mof_C 	C 	0.7189	0.95935	0.3195	0.038
Mof_Cl	Cl	0.64928	0.96692	0.45424	-0.295
Mof_C 	C 	0.76134	0.00192	0.2629	0.119
Mof_O 	O 	0.75558	0.04828	0.3037	-0.243
Mof_C 	C 	0.81902	0.99612	0.1418	0.093
Mof_O 	O 	0.85174	0.03871	0.09585	-0.226
Mof_C 	C 	0.83299	0.94814	0.0908	0.094
Mof_Cl	Cl	0.90363	0.94203	0.9566	-0.249
Mof_C 	C 	0.79008	0.90292	0.1448	0.104
Mof_O 	O 	0.79823	0.85901	0.10268	-0.514
Mof_C 	C 	0.72783	0.90913	0.2668	0.248
Mof_O 	O 	0.69003	0.86947	0.31089	-0.786
Mof_Fe	Fe	0.18568	0.89745	0.81279	0.961
Mof_Na	Na	0.69134	0.70602	0.68314	2.825
Mof_Na	Na	0.65201	0.68826	0.97389	1.988
Mof_C 	C 	0.39462	0.77968	0.7477	0.018
Mof_Cl	Cl	0.35156	0.74535	0.6163	-0.302
Mof_C 	C 	0.48632	0.76302	0.8169	0.15
Mof_O 	O 	0.53817	0.72417	0.7941	-0.744
Mof_C 	C 	0.52563	0.79605	0.9312	0.199
Mof_O 	O 	0.60184	0.77916	0.99358	-0.839
Mof_C 	C 	0.47103	0.84225	0.9585	0.019
Mof_Cl	Cl	0.51367	0.87913	0.08598	-0.41
Mof_C 	C 	0.37797	0.8544	0.895	0.11
Mof_O 	O 	0.31686	0.8913	0.92345	-0.242
Mof_C 	C 	0.34115	0.82301	0.7812	0.09
Mof_O 	O 	0.25931	0.84077	0.72236	-0.247
Mof_C 	C 	0.95526	0.7933	0.9055	0.06
Mof_Cl	Cl	0.98775	0.76421	0.04803	-0.302
Mof_C 	C 	0.01822	0.83143	0.8605	0.106
Mof_O 	O 	0.10341	0.8481	0.91493	-0.231
Mof_C 	C 	0.98967	0.85767	0.7363	0.124
Mof_O 	O 	0.05583	0.89124	0.70084	-0.233
Mof_C 	C 	0.89772	0.84522	0.6714	0.036
Mof_Cl	Cl	0.86389	0.87636	0.53146	-0.378
Mof_C 	C 	0.83238	0.80492	0.7117	0.213
Mof_O 	O 	0.75163	0.79022	0.65441	-0.862
Mof_C 	C 	0.86354	0.77582	0.8355	0.132
Mof_O 	O 	0.80702	0.7399	0.8653	-0.628
Mof_C 	C 	0.7189	0.54065	0.8195	0.038
Mof_Cl	Cl	0.64928	0.53308	0.95424	-0.295
Mof_C 	C 	0.76134	0.49808	0.7629	0.119
Mof_O 	O 	0.75558	0.45172	0.8037	-0.243
Mof_C 	C 	0.81902	0.50388	0.6418	0.093
Mof_O 	O 	0.85174	0.46129	0.59585	-0.226
Mof_C 	C 	0.83299	0.55186	0.5908	0.093
Mof_Cl	Cl	0.90363	0.55797	0.4566	-0.247
Mof_C 	C 	0.79008	0.59708	0.6448	0.105
Mof_O 	O 	0.79823	0.64099	0.60268	-0.515
Mof_C 	C 	0.72783	0.59087	0.7668	0.247
Mof_O 	O 	0.69003	0.63053	0.81089	-0.786
Mof_Fe	Fe	0.81432	0.39745	0.68721	0.961
Mof_Na	Na	0.30866	0.20602	0.81686	2.828
Mof_Na	Na	0.34799	0.18826	0.52611	1.991
Mof_C 	C 	0.60538	0.27968	0.7523	0.018
Mof_Cl	Cl	0.64844	0.24535	0.8837	-0.301
Mof_C 	C 	0.51368	0.26302	0.6831	0.15
Mof_O 	O 	0.46183	0.22417	0.7059	-0.745
Mof_C 	C 	0.47437	0.29605	0.5688	0.199
Mof_O 	O 	0.39816	0.27916	0.50642	-0.838
Mof_C 	C 	0.52897	0.34225	0.5415	0.02
Mof_Cl	Cl	0.48633	0.37913	0.41402	-0.411
Mof_C 	C 	0.62203	0.3544	0.605	0.11
Mof_O 	O 	0.68314	0.3913	0.57655	-0.242
Mof_C 	C 	0.65885	0.32301	0.7188	0.09
Mof_O 	O 	0.74069	0.34077	0.77764	-0.247
Mof_C 	C 	0.04474	0.2933	0.5945	0.064
Mof_Cl	Cl	0.01225	0.26421	0.45197	-0.305
Mof_C 	C 	0.98178	0.33143	0.6395	0.102
Mof_O 	O 	0.89659	0.3481	0.58507	-0.23
Mof_C 	C 	0.01033	0.35767	0.7637	0.128
Mof_O 	O 	0.94417	0.39124	0.79916	-0.235
Mof_C 	C 	0.10228	0.34522	0.8286	0.035
Mof_Cl	Cl	0.13611	0.37636	0.96854	-0.376
Mof_C 	C 	0.16762	0.30492	0.7883	0.214
Mof_O 	O 	0.24837	0.29022	0.84559	-0.862
Mof_C 	C 	0.13646	0.27582	0.6645	0.131
Mof_O 	O 	0.19298	0.2399	0.6347	-0.627
Mof_C 	C 	0.2811	0.04065	0.6805	0.038
Mof_Cl	Cl	0.35072	0.03308	0.54576	-0.295
Mof_C 	C 	0.23866	0.99808	0.7371	0.119
Mof_O 	O 	0.24442	0.95172	0.6963	-0.243
Mof_C 	C 	0.18098	0.00388	0.8582	0.093
Mof_O 	O 	0.14826	0.96129	0.90415	-0.226
Mof_C 	C 	0.16701	0.05186	0.9092	0.094
Mof_Cl	Cl	0.09637	0.05797	0.0434	-0.249
Mof_C 	C 	0.20992	0.09708	0.8552	0.104
Mof_O 	O 	0.20177	0.14099	0.89732	-0.514
Mof_C 	C 	0.27217	0.09087	0.7332	0.248
Mof_O 	O 	0.30997	0.13053	0.68911	-0.786
_end
