data_functionalizedCrystal
_audit_creation_method	'EQeq! by Chris Wilmer'
_symmetry_space_group_name_H-M	'P1'
_symmetry_Int_Tables_number	1
_symmetry_cell_setting	triclinic
loop_
_symmetry_equiv_pos_as_xyz
  x,y,z
_cell_length_a	8.96
_cell_length_b	28.437
_cell_length_c	56.8
_cell_angle_alpha	90
_cell_angle_beta	90
_cell_angle_gamma	90
loop_
_atom_site_label
_atom_site_type_symbol
_atom_site_fract_x
_atom_site_fract_y
_atom_site_fract_z
_atom_site_charge
Mof_C 	C 	0.176	0.0316	0.181	0.051
Mof_H 	H 	0.2478	0.0561	0.1809	0.004
Mof_N 	N 	0.1173	0.0092	0.20137	-0.128
Mof_C 	C 	0.0136	0.9745	0.1939	0
Mof_H 	H 	0.9576	0.9542	0.2038	0.029
Mof_C 	C 	0.0083	0.9755	0.1689	-0.004
Mof_H 	H 	0.9482	0.956	0.1592	0.012
Mof_N 	N 	0.1087	0.0107	0.16095	-0.275
Mof_C 	C 	0.2774	0.0657	0.2534	-0.071
Mof_H 	H 	0.3098	0.096	0.2582	0.058
Mof_C 	C 	0.2244	0.0587	0.23065	-0.075
Mof_H 	H 	0.2206	0.0842	0.2199	0.058
Mof_C 	C 	0.1771	0.0143	0.22364	0.09
Mof_C 	C 	0.1827	0.9769	0.2394	-0.076
Mof_H 	H 	0.1504	0.9465	0.2346	0.056
Mof_C 	C 	0.2357	0.9839	0.2621	-0.071
Mof_H 	H 	0.2396	0.9583	0.2729	0.055
Mof_C 	C 	0.2831	0.0283	0.26911	0.08
Mof_C 	C 	0.3023	0.2324	0.3509	0.004
Mof_H 	H 	0.4048	0.2367	0.3472	0.046
Mof_C 	C 	0.2118	0.264	0.3639	0.001
Mof_H 	H 	0.243	0.2932	0.3704	0.012
Mof_N 	N 	0.0663	0.2445	0.36548	-0.259
Mof_C 	C 	0.0669	0.2008	0.3534	0.055
Mof_H 	H 	0.9843	0.1801	0.3517	0.01
Mof_N 	N 	0.2128	0.1933	0.34439	-0.135
Mof_C 	C 	0.3838	0.1371	0.33333	-0.1
Mof_H 	H 	0.4556	0.1511	0.3435	0.104
Mof_C 	C 	0.2408	0.1559	0.3319	0.122
Mof_C 	C 	0.1358	0.1355	0.3171	-0.1
Mof_H 	H 	0.0381	0.1483	0.3161	0.066
Mof_C 	C 	0.1738	0.0964	0.30365	-0.057
Mof_H 	H 	0.102	0.0825	0.2935	0.058
Mof_C 	C 	0.3168	0.0777	0.30508	0.066
Mof_C 	C 	0.4218	0.098	0.3199	-0.046
Mof_H 	H 	0.5196	0.0853	0.3209	0.062
Mof_C 	C 	0.596	0.8653	0.3539	0.137
Mof_H 	H 	0.503	0.8751	0.3601	-0.031
Mof_C 	C 	0.807	0.8311	0.3505	-0.024
Mof_H 	H 	0.893	0.8127	0.3534	0.025
Mof_C 	C 	0.793	0.8697	0.3331	0.021
Mof_H 	H 	0.8611	0.8799	0.3214	0.021
Mof_C 	C 	0.5902	0.9299	0.30177	-0.058
Mof_H 	H 	0.6481	0.9084	0.2928	0.051
Mof_C 	C 	0.52	0.9675	0.29071	-0.085
Mof_H 	H 	0.53	0.9717	0.2742	0.065
Mof_C 	C 	0.4352	0.999	0.30381	0.092
Mof_C 	C 	0.4205	0.9929	0.32798	-0.087
Mof_H 	H 	0.3626	0.0144	0.3369	0.067
Mof_C 	C 	0.4907	0.9553	0.33904	-0.068
Mof_H 	H 	0.4806	0.9511	0.3556	0.049
Mof_C 	C 	0.5755	0.9238	0.32594	0.066
Mof_N 	N 	0.2126	0.9789	0.11077	-0.27
Mof_C 	C 	0.1158	0.9415	0.1044	-0.031
Mof_H 	H 	0.015	0.9379	0.1093	0.017
Mof_C 	C 	0.1961	0.9103	0.08955	0.05
Mof_N 	N 	0.3425	0.9285	0.08667	-0.118
Mof_C 	C 	0.3527	0.9709	0.09978	0.054
Mof_H 	H 	0.4383	0.9905	0.101	0.011
Mof_C 	C 	0.0235	0.8448	0.09017	-0.022
Mof_H 	H 	0.9912	0.8543	0.1054	0.03
Mof_C 	C 	0.9592	0.8059	0.07941	-0.115
Mof_H 	H 	0.8831	0.7887	0.0873	0.072
Mof_C 	C 	0.0064	0.792	0.05716	0.104
Mof_C 	C 	0.1178	0.8171	0.04566	-0.116
Mof_H 	H 	0.15	0.8076	0.0304	0.076
Mof_C 	C 	0.182	0.8561	0.05641	-0.005
Mof_H 	H 	0.2582	0.8732	0.0486	0.04
Mof_C 	C 	0.1349	0.8699	0.07867	-0.029
Mof_C 	C 	0.7573	0.6429	0.088	0.093
Mof_C 	C 	0.6945	0.6575	0.066	-0.065
Mof_H 	H 	0.6114	0.6407	0.0599	0.054
Mof_C 	C 	0.7504	0.6956	0.053	-0.097
Mof_H 	H 	0.698	0.7071	0.0397	0.072
Mof_C 	C 	0.8767	0.7152	0.0597	0.107
Mof_C 	C 	0.9533	0.7007	0.0797	-0.08
Mof_H 	H 	0.0435	0.716	0.0839	0.078
Mof_C 	C 	0.8993	0.6633	0.0939	-0.073
Mof_H 	H 	0.9554	0.6521	0.1069	0.106
Mof_C 	C 	0.0094	0.6887	0.99065	-0.067
Mof_H 	H 	0.0425	0.6586	0.9857	0.055
Mof_C 	C 	0.9972	0.6987	0.01454	-0.083
Mof_H 	H 	0.0221	0.6753	0.0259	0.063
Mof_C 	C 	0.9487	0.7427	0.02185	0.092
Mof_C 	C 	0.9123	0.7768	0.00529	-0.082
Mof_H 	H 	0.8791	0.8069	0.0103	0.061
Mof_C 	C 	0.9244	0.7669	0.98141	-0.071
Mof_H 	H 	0.8995	0.7902	0.9701	0.055
Mof_C 	C 	0.9729	0.7228	0.97409	0.081
Mof_C 	C 	0.9156	0.7371	0.9323	0.056
Mof_H 	H 	0.8492	0.7629	0.9341	0
Mof_N 	N 	0.0002	0.7157	0.95054	-0.126
Mof_C 	C 	0.0847	0.6785	0.94047	0.004
Mof_H 	H 	0.1511	0.6583	0.9487	0.032
Mof_C 	C 	0.0523	0.6769	0.91601	-0.004
Mof_H 	H 	0.0934	0.6555	0.905	0.013
Mof_N 	N 	0.9479	0.7131	0.91096	-0.272
Mof_Cl	Cl	0.3412	0.08133	0.12813	-0.556
Mof_Cl	Cl	0.7049	0.78641	0.8746	-0.548
Mof_N 	N 	0.3525	0.0348	0.292	-0.144
Mof_N 	N 	0.6597	0.8859	0.3384	-0.157
Mof_N 	N 	0.6687	0.8269	0.3617	-0.282
Mof_N 	N 	0.9354	0.7508	0.0462	-0.158
Mof_N 	N 	0.5288	0.5582	0.11741	-0.263
Mof_C 	C 	0.6722	0.5374	0.11963	-0.003
Mof_H 	H 	0.6938	0.5082	0.127	0.01
Mof_C 	C 	0.7775	0.5678	0.1088	0.001
Mof_H 	H 	0.882	0.5625	0.1077	0.058
Mof_N 	N 	0.6992	0.6074	0.09989	-0.128
Mof_C 	C 	0.5455	0.6014	0.10521	0.059
Mof_H 	H 	0.4675	0.6227	0.1013	0.01
Mof_Zn	Zn	0.1563	0.03105	0.12988	1.204
Mof_Zn	Zn	0.8802	0.73021	0.87964	1.194
Mof_C 	C 	0.324	0.4684	0.681	0.052
Mof_H 	H 	0.2522	0.4439	0.6809	0.005
Mof_N 	N 	0.3827	0.4908	0.70137	-0.127
Mof_C 	C 	0.4864	0.5255	0.6939	0.002
Mof_H 	H 	0.5424	0.5458	0.7038	0.029
Mof_C 	C 	0.4917	0.5245	0.6689	-0.001
Mof_H 	H 	0.5518	0.544	0.6592	0.011
Mof_N 	N 	0.3913	0.4893	0.66095	-0.274
Mof_C 	C 	0.2226	0.4343	0.7534	-0.07
Mof_H 	H 	0.1902	0.404	0.7582	0.059
Mof_C 	C 	0.2756	0.4413	0.73065	-0.076
Mof_H 	H 	0.2794	0.4158	0.7199	0.059
Mof_C 	C 	0.3229	0.4857	0.72364	0.091
Mof_C 	C 	0.3173	0.5231	0.7394	-0.077
Mof_H 	H 	0.3496	0.5535	0.7346	0.056
Mof_C 	C 	0.2643	0.5161	0.7621	-0.072
Mof_H 	H 	0.2604	0.5417	0.7729	0.055
Mof_C 	C 	0.2169	0.4717	0.76911	0.08
Mof_C 	C 	0.1977	0.2676	0.8509	0.004
Mof_H 	H 	0.0952	0.2633	0.8472	0.046
Mof_C 	C 	0.2882	0.236	0.8639	0.001
Mof_H 	H 	0.257	0.2068	0.8704	0.012
Mof_N 	N 	0.4337	0.2555	0.86548	-0.259
Mof_C 	C 	0.4331	0.2992	0.8534	0.051
Mof_H 	H 	0.5157	0.3199	0.8517	0.013
Mof_N 	N 	0.2872	0.3067	0.84439	-0.134
Mof_C 	C 	0.1162	0.3629	0.83333	-0.101
Mof_H 	H 	0.0444	0.3489	0.8435	0.105
Mof_C 	C 	0.2592	0.3441	0.8319	0.122
Mof_C 	C 	0.3642	0.3645	0.8171	-0.101
Mof_H 	H 	0.4619	0.3517	0.8161	0.065
Mof_C 	C 	0.3262	0.4036	0.80365	-0.056
Mof_H 	H 	0.398	0.4175	0.7935	0.057
Mof_C 	C 	0.1832	0.4223	0.80508	0.065
Mof_C 	C 	0.0782	0.402	0.8199	-0.044
Mof_H 	H 	0.9804	0.4147	0.8209	0.061
Mof_C 	C 	0.904	0.6347	0.8539	0.137
Mof_H 	H 	0.997	0.6249	0.8601	-0.032
Mof_C 	C 	0.693	0.6689	0.8505	-0.024
Mof_H 	H 	0.607	0.6873	0.8534	0.025
Mof_C 	C 	0.707	0.6303	0.8331	0.021
Mof_H 	H 	0.6389	0.6201	0.8214	0.021
Mof_C 	C 	0.9098	0.5701	0.80177	-0.056
Mof_H 	H 	0.8519	0.5916	0.7928	0.05
Mof_C 	C 	0.98	0.5325	0.79071	-0.088
Mof_H 	H 	0.97	0.5283	0.7742	0.066
Mof_C 	C 	0.0648	0.501	0.80381	0.094
Mof_C 	C 	0.0795	0.5071	0.82798	-0.089
Mof_H 	H 	0.1374	0.4856	0.8369	0.068
Mof_C 	C 	0.0093	0.5447	0.83904	-0.064
Mof_H 	H 	0.0194	0.5489	0.8556	0.048
Mof_C 	C 	0.9245	0.5762	0.82594	0.063
Mof_N 	N 	0.2874	0.5211	0.61077	-0.27
Mof_C 	C 	0.3842	0.5585	0.6044	-0.031
Mof_H 	H 	0.485	0.5621	0.6093	0.018
Mof_C 	C 	0.3039	0.5897	0.58955	0.051
Mof_N 	N 	0.1575	0.5715	0.58667	-0.119
Mof_C 	C 	0.1473	0.5291	0.59978	0.054
Mof_H 	H 	0.0617	0.5095	0.601	0.011
Mof_C 	C 	0.4765	0.6552	0.59017	-0.016
Mof_H 	H 	0.5088	0.6457	0.6054	0.027
Mof_C 	C 	0.5408	0.6941	0.57941	-0.12
Mof_H 	H 	0.6169	0.7113	0.5873	0.074
Mof_C 	C 	0.4936	0.708	0.55716	0.107
Mof_C 	C 	0.3822	0.6829	0.54566	-0.119
Mof_H 	H 	0.35	0.6924	0.5304	0.076
Mof_C 	C 	0.318	0.6439	0.55641	-0.003
Mof_H 	H 	0.2418	0.6268	0.5486	0.039
Mof_C 	C 	0.3651	0.6301	0.57867	-0.032
Mof_C 	C 	0.7427	0.8571	0.588	0.093
Mof_C 	C 	0.8055	0.8425	0.566	-0.065
Mof_H 	H 	0.8886	0.8593	0.5599	0.054
Mof_C 	C 	0.7496	0.8044	0.553	-0.097
Mof_H 	H 	0.802	0.7929	0.5397	0.073
Mof_C 	C 	0.6233	0.7848	0.5597	0.108
Mof_C 	C 	0.5467	0.7993	0.5797	-0.081
Mof_H 	H 	0.4565	0.784	0.5839	0.079
Mof_C 	C 	0.6007	0.8367	0.5939	-0.073
Mof_H 	H 	0.5446	0.8479	0.6069	0.106
Mof_C 	C 	0.4906	0.8113	0.49065	-0.073
Mof_H 	H 	0.4575	0.8414	0.4857	0.057
Mof_C 	C 	0.5028	0.8013	0.51454	-0.078
Mof_H 	H 	0.4779	0.8247	0.5259	0.062
Mof_C 	C 	0.5513	0.7573	0.52185	0.09
Mof_C 	C 	0.5877	0.7232	0.50529	-0.079
Mof_H 	H 	0.6209	0.6931	0.5103	0.06
Mof_C 	C 	0.5756	0.7331	0.48141	-0.074
Mof_H 	H 	0.6005	0.7098	0.4701	0.056
Mof_C 	C 	0.5271	0.7772	0.47409	0.086
Mof_C 	C 	0.5844	0.7629	0.4323	0.058
Mof_H 	H 	0.6508	0.7371	0.4341	-0
Mof_N 	N 	0.4998	0.7843	0.45054	-0.128
Mof_C 	C 	0.4153	0.8215	0.44047	0.005
Mof_H 	H 	0.3489	0.8417	0.4487	0.032
Mof_C 	C 	0.4477	0.8231	0.41601	-0.007
Mof_H 	H 	0.4066	0.8445	0.405	0.013
Mof_N 	N 	0.5521	0.7869	0.41096	-0.271
Mof_Cl	Cl	0.1588	0.41867	0.62813	-0.556
Mof_Cl	Cl	0.7951	0.71359	0.3746	-0.548
Mof_N 	N 	0.1475	0.4652	0.792	-0.144
Mof_N 	N 	0.8403	0.6141	0.8384	-0.156
Mof_N 	N 	0.8313	0.6731	0.8617	-0.282
Mof_N 	N 	0.5646	0.7492	0.5462	-0.158
Mof_N 	N 	0.9712	0.9418	0.61741	-0.263
Mof_C 	C 	0.8278	0.9626	0.61963	-0.003
Mof_H 	H 	0.8062	0.9918	0.627	0.011
Mof_C 	C 	0.7225	0.9322	0.6088	0.001
Mof_H 	H 	0.618	0.9375	0.6077	0.057
Mof_N 	N 	0.8008	0.8926	0.59989	-0.128
Mof_C 	C 	0.9545	0.8986	0.60521	0.063
Mof_H 	H 	0.0325	0.8773	0.6013	0.007
Mof_Zn	Zn	0.3437	0.46895	0.62988	1.204
Mof_Zn	Zn	0.6198	0.76979	0.37964	1.195
Mof_C 	C 	0.176	0.9684	0.681	0.052
Mof_H 	H 	0.2478	0.9439	0.6809	0.005
Mof_N 	N 	0.1173	0.9908	0.70137	-0.127
Mof_C 	C 	0.0136	0.0255	0.6939	0.001
Mof_H 	H 	0.9576	0.0458	0.7038	0.03
Mof_C 	C 	0.0083	0.0245	0.6689	-0.003
Mof_H 	H 	0.9482	0.044	0.6592	0.013
Mof_N 	N 	0.1087	0.9893	0.66095	-0.274
Mof_C 	C 	0.2774	0.9343	0.7534	-0.07
Mof_H 	H 	0.3098	0.904	0.7582	0.059
Mof_C 	C 	0.2244	0.9413	0.73065	-0.075
Mof_H 	H 	0.2206	0.9158	0.7199	0.058
Mof_C 	C 	0.1771	0.9857	0.72364	0.09
Mof_C 	C 	0.1827	0.0231	0.7394	-0.076
Mof_H 	H 	0.1504	0.0535	0.7346	0.056
Mof_C 	C 	0.2357	0.0161	0.7621	-0.071
Mof_H 	H 	0.2396	0.0417	0.7729	0.055
Mof_C 	C 	0.2831	0.9717	0.76911	0.08
Mof_C 	C 	0.3023	0.7676	0.8509	0.004
Mof_H 	H 	0.4048	0.7633	0.8472	0.046
Mof_C 	C 	0.2118	0.736	0.8639	0.001
Mof_H 	H 	0.243	0.7068	0.8704	0.012
Mof_N 	N 	0.0663	0.7555	0.86548	-0.259
Mof_C 	C 	0.0669	0.7992	0.8534	0.055
Mof_H 	H 	0.9843	0.8199	0.8517	0.01
Mof_N 	N 	0.2128	0.8067	0.84439	-0.135
Mof_C 	C 	0.3838	0.8629	0.83333	-0.1
Mof_H 	H 	0.4556	0.8489	0.8435	0.104
Mof_C 	C 	0.2408	0.8441	0.8319	0.122
Mof_C 	C 	0.1358	0.8645	0.8171	-0.1
Mof_H 	H 	0.0381	0.8517	0.8161	0.066
Mof_C 	C 	0.1738	0.9036	0.80365	-0.057
Mof_H 	H 	0.102	0.9175	0.7935	0.058
Mof_C 	C 	0.3168	0.9223	0.80508	0.066
Mof_C 	C 	0.4218	0.902	0.8199	-0.046
Mof_H 	H 	0.5196	0.9147	0.8209	0.062
Mof_C 	C 	0.596	0.1347	0.8539	0.137
Mof_H 	H 	0.503	0.1249	0.8601	-0.031
Mof_C 	C 	0.807	0.1689	0.8505	-0.024
Mof_H 	H 	0.893	0.1873	0.8534	0.025
Mof_C 	C 	0.793	0.1303	0.8331	0.021
Mof_H 	H 	0.8611	0.1201	0.8214	0.021
Mof_C 	C 	0.5902	0.0701	0.80177	-0.058
Mof_H 	H 	0.6481	0.0916	0.7928	0.051
Mof_C 	C 	0.52	0.0325	0.79071	-0.085
Mof_H 	H 	0.53	0.0283	0.7742	0.065
Mof_C 	C 	0.4352	0.001	0.80381	0.092
Mof_C 	C 	0.4205	0.0071	0.82798	-0.087
Mof_H 	H 	0.3626	0.9856	0.8369	0.067
Mof_C 	C 	0.4907	0.0447	0.83904	-0.068
Mof_H 	H 	0.4806	0.0489	0.8556	0.049
Mof_C 	C 	0.5755	0.0762	0.82594	0.066
Mof_N 	N 	0.2126	0.0211	0.61077	-0.27
Mof_C 	C 	0.1158	0.0585	0.6044	-0.031
Mof_H 	H 	0.015	0.0621	0.6093	0.017
Mof_C 	C 	0.1961	0.0897	0.58955	0.05
Mof_N 	N 	0.3425	0.0715	0.58667	-0.118
Mof_C 	C 	0.3527	0.0291	0.59978	0.054
Mof_H 	H 	0.4383	0.0095	0.601	0.011
Mof_C 	C 	0.0235	0.1552	0.59017	-0.021
Mof_H 	H 	0.9912	0.1457	0.6054	0.03
Mof_C 	C 	0.9592	0.1941	0.57941	-0.115
Mof_H 	H 	0.8831	0.2113	0.5873	0.072
Mof_C 	C 	0.0064	0.208	0.55716	0.104
Mof_C 	C 	0.1178	0.1829	0.54566	-0.116
Mof_H 	H 	0.15	0.1924	0.5304	0.076
Mof_C 	C 	0.182	0.1439	0.55641	-0.005
Mof_H 	H 	0.2582	0.1268	0.5486	0.04
Mof_C 	C 	0.1349	0.1301	0.57867	-0.029
Mof_C 	C 	0.7573	0.3571	0.588	0.093
Mof_C 	C 	0.6945	0.3425	0.566	-0.065
Mof_H 	H 	0.6114	0.3593	0.5599	0.054
Mof_C 	C 	0.7504	0.3044	0.553	-0.097
Mof_H 	H 	0.698	0.2929	0.5397	0.072
Mof_C 	C 	0.8767	0.2848	0.5597	0.107
Mof_C 	C 	0.9533	0.2993	0.5797	-0.08
Mof_H 	H 	0.0435	0.284	0.5839	0.078
Mof_C 	C 	0.8993	0.3367	0.5939	-0.073
Mof_H 	H 	0.9554	0.3479	0.6069	0.106
Mof_C 	C 	0.0094	0.3113	0.49065	-0.067
Mof_H 	H 	0.0425	0.3414	0.4857	0.055
Mof_C 	C 	0.9972	0.3013	0.51454	-0.083
Mof_H 	H 	0.0221	0.3247	0.5259	0.063
Mof_C 	C 	0.9487	0.2573	0.52185	0.092
Mof_C 	C 	0.9123	0.2232	0.50529	-0.082
Mof_H 	H 	0.8791	0.1931	0.5103	0.061
Mof_C 	C 	0.9244	0.2331	0.48141	-0.071
Mof_H 	H 	0.8995	0.2098	0.4701	0.055
Mof_C 	C 	0.9729	0.2772	0.47409	0.081
Mof_C 	C 	0.9156	0.2629	0.4323	0.056
Mof_H 	H 	0.8492	0.2371	0.4341	0
Mof_N 	N 	0.0002	0.2843	0.45054	-0.126
Mof_C 	C 	0.0847	0.3215	0.44047	0.004
Mof_H 	H 	0.1511	0.3417	0.4487	0.032
Mof_C 	C 	0.0523	0.3231	0.41601	-0.004
Mof_H 	H 	0.0934	0.3445	0.405	0.013
Mof_N 	N 	0.9479	0.2869	0.41096	-0.272
Mof_Cl	Cl	0.3412	0.91867	0.62813	-0.556
Mof_Cl	Cl	0.7049	0.21359	0.3746	-0.548
Mof_N 	N 	0.3525	0.9652	0.792	-0.144
Mof_N 	N 	0.6597	0.1141	0.8384	-0.157
Mof_N 	N 	0.6687	0.1731	0.8617	-0.282
Mof_N 	N 	0.9354	0.2492	0.5462	-0.158
Mof_N 	N 	0.5288	0.4418	0.61741	-0.263
Mof_C 	C 	0.6722	0.4626	0.61963	-0.003
Mof_H 	H 	0.6938	0.4918	0.627	0.01
Mof_C 	C 	0.7775	0.4322	0.6088	0.001
Mof_H 	H 	0.882	0.4375	0.6077	0.058
Mof_N 	N 	0.6992	0.3926	0.59989	-0.128
Mof_C 	C 	0.5455	0.3986	0.60521	0.059
Mof_H 	H 	0.4675	0.3773	0.6013	0.01
Mof_Zn	Zn	0.1563	0.96895	0.62988	1.204
Mof_Zn	Zn	0.8802	0.26979	0.37964	1.194
Mof_C 	C 	0.324	0.5316	0.181	0.052
Mof_H 	H 	0.2522	0.5561	0.1809	0.005
Mof_N 	N 	0.3827	0.5092	0.20137	-0.127
Mof_C 	C 	0.4864	0.4745	0.1939	0.002
Mof_H 	H 	0.5424	0.4542	0.2038	0.029
Mof_C 	C 	0.4917	0.4755	0.1689	-0.001
Mof_H 	H 	0.5518	0.456	0.1592	0.011
Mof_N 	N 	0.3913	0.5107	0.16095	-0.274
Mof_C 	C 	0.2226	0.5657	0.2534	-0.07
Mof_H 	H 	0.1902	0.596	0.2582	0.059
Mof_C 	C 	0.2756	0.5587	0.23065	-0.076
Mof_H 	H 	0.2794	0.5842	0.2199	0.059
Mof_C 	C 	0.3229	0.5143	0.22364	0.091
Mof_C 	C 	0.3173	0.4769	0.2394	-0.077
Mof_H 	H 	0.3496	0.4465	0.2346	0.056
Mof_C 	C 	0.2643	0.4839	0.2621	-0.072
Mof_H 	H 	0.2604	0.4583	0.2729	0.055
Mof_C 	C 	0.2169	0.5283	0.26911	0.08
Mof_C 	C 	0.1977	0.7324	0.3509	0.004
Mof_H 	H 	0.0952	0.7367	0.3472	0.046
Mof_C 	C 	0.2882	0.764	0.3639	0.001
Mof_H 	H 	0.257	0.7932	0.3704	0.012
Mof_N 	N 	0.4337	0.7445	0.36548	-0.259
Mof_C 	C 	0.4331	0.7008	0.3534	0.051
Mof_H 	H 	0.5157	0.6801	0.3517	0.013
Mof_N 	N 	0.2872	0.6933	0.34439	-0.134
Mof_C 	C 	0.1162	0.6371	0.33333	-0.101
Mof_H 	H 	0.0444	0.6511	0.3435	0.105
Mof_C 	C 	0.2592	0.6559	0.3319	0.122
Mof_C 	C 	0.3642	0.6355	0.3171	-0.101
Mof_H 	H 	0.4619	0.6483	0.3161	0.065
Mof_C 	C 	0.3262	0.5964	0.30365	-0.056
Mof_H 	H 	0.398	0.5825	0.2935	0.057
Mof_C 	C 	0.1832	0.5777	0.30508	0.065
Mof_C 	C 	0.0782	0.598	0.3199	-0.044
Mof_H 	H 	0.9804	0.5853	0.3209	0.061
Mof_C 	C 	0.904	0.3653	0.3539	0.137
Mof_H 	H 	0.997	0.3751	0.3601	-0.032
Mof_C 	C 	0.693	0.3311	0.3505	-0.024
Mof_H 	H 	0.607	0.3127	0.3534	0.025
Mof_C 	C 	0.707	0.3697	0.3331	0.021
Mof_H 	H 	0.6389	0.3799	0.3214	0.021
Mof_C 	C 	0.9098	0.4299	0.30177	-0.056
Mof_H 	H 	0.8519	0.4084	0.2928	0.05
Mof_C 	C 	0.98	0.4675	0.29071	-0.088
Mof_H 	H 	0.97	0.4717	0.2742	0.066
Mof_C 	C 	0.0648	0.499	0.30381	0.094
Mof_C 	C 	0.0795	0.4929	0.32798	-0.089
Mof_H 	H 	0.1374	0.5144	0.3369	0.068
Mof_C 	C 	0.0093	0.4553	0.33904	-0.064
Mof_H 	H 	0.0194	0.4511	0.3556	0.048
Mof_C 	C 	0.9245	0.4238	0.32594	0.063
Mof_N 	N 	0.2874	0.4789	0.11077	-0.27
Mof_C 	C 	0.3842	0.4415	0.1044	-0.031
Mof_H 	H 	0.485	0.4379	0.1093	0.018
Mof_C 	C 	0.3039	0.4103	0.08955	0.051
Mof_N 	N 	0.1575	0.4285	0.08667	-0.119
Mof_C 	C 	0.1473	0.4709	0.09978	0.054
Mof_H 	H 	0.0617	0.4905	0.101	0.011
Mof_C 	C 	0.4765	0.3448	0.09017	-0.016
Mof_H 	H 	0.5088	0.3543	0.1054	0.027
Mof_C 	C 	0.5408	0.3059	0.07941	-0.12
Mof_H 	H 	0.6169	0.2887	0.0873	0.074
Mof_C 	C 	0.4936	0.292	0.05716	0.107
Mof_C 	C 	0.3822	0.3171	0.04566	-0.119
Mof_H 	H 	0.35	0.3076	0.0304	0.076
Mof_C 	C 	0.318	0.3561	0.05641	-0.003
Mof_H 	H 	0.2418	0.3732	0.0486	0.039
Mof_C 	C 	0.3651	0.3699	0.07867	-0.032
Mof_C 	C 	0.7427	0.1429	0.088	0.093
Mof_C 	C 	0.8055	0.1575	0.066	-0.065
Mof_H 	H 	0.8886	0.1407	0.0599	0.054
Mof_C 	C 	0.7496	0.1956	0.053	-0.097
Mof_H 	H 	0.802	0.2071	0.0397	0.073
Mof_C 	C 	0.6233	0.2152	0.0597	0.108
Mof_C 	C 	0.5467	0.2007	0.0797	-0.081
Mof_H 	H 	0.4565	0.216	0.0839	0.079
Mof_C 	C 	0.6007	0.1633	0.0939	-0.073
Mof_H 	H 	0.5446	0.1521	0.1069	0.106
Mof_C 	C 	0.4906	0.1887	0.99065	-0.073
Mof_H 	H 	0.4575	0.1586	0.9857	0.057
Mof_C 	C 	0.5028	0.1987	0.01454	-0.078
Mof_H 	H 	0.4779	0.1753	0.0259	0.062
Mof_C 	C 	0.5513	0.2427	0.02185	0.09
Mof_C 	C 	0.5877	0.2768	0.00529	-0.079
Mof_H 	H 	0.6209	0.3069	0.0103	0.06
Mof_C 	C 	0.5756	0.2669	0.98141	-0.074
Mof_H 	H 	0.6005	0.2902	0.9701	0.056
Mof_C 	C 	0.5271	0.2228	0.97409	0.086
Mof_C 	C 	0.5844	0.2371	0.9323	0.058
Mof_H 	H 	0.6508	0.2629	0.9341	-0
Mof_N 	N 	0.4998	0.2157	0.95054	-0.128
Mof_C 	C 	0.4153	0.1785	0.94047	0.005
Mof_H 	H 	0.3489	0.1583	0.9487	0.032
Mof_C 	C 	0.4477	0.1769	0.91601	-0.007
Mof_H 	H 	0.4066	0.1555	0.905	0.013
Mof_N 	N 	0.5521	0.2131	0.91096	-0.271
Mof_Cl	Cl	0.1588	0.58133	0.12813	-0.556
Mof_Cl	Cl	0.7951	0.28641	0.8746	-0.548
Mof_N 	N 	0.1475	0.5348	0.292	-0.144
Mof_N 	N 	0.8403	0.3859	0.3384	-0.156
Mof_N 	N 	0.8313	0.3269	0.3617	-0.282
Mof_N 	N 	0.5646	0.2508	0.0462	-0.158
Mof_N 	N 	0.9712	0.0582	0.11741	-0.263
Mof_C 	C 	0.8278	0.0374	0.11963	-0.003
Mof_H 	H 	0.8062	0.0082	0.127	0.011
Mof_C 	C 	0.7225	0.0678	0.1088	0.001
Mof_H 	H 	0.618	0.0625	0.1077	0.057
Mof_N 	N 	0.8008	0.1074	0.09989	-0.128
Mof_C 	C 	0.9545	0.1014	0.10521	0.063
Mof_H 	H 	0.0325	0.1227	0.1013	0.007
Mof_Zn	Zn	0.3437	0.53105	0.12988	1.204
Mof_Zn	Zn	0.6198	0.23021	0.87964	1.195
Mof_C 	C 	0.824	0.0316	0.319	0.052
Mof_H 	H 	0.7522	0.0561	0.3191	0.005
Mof_N 	N 	0.8827	0.0092	0.29863	-0.127
Mof_C 	C 	0.9864	0.9745	0.3061	0.001
Mof_H 	H 	0.0424	0.9542	0.2962	0.03
Mof_C 	C 	0.9917	0.9755	0.3311	-0.003
Mof_H 	H 	0.0518	0.956	0.3408	0.013
Mof_N 	N 	0.8913	0.0107	0.33905	-0.274
Mof_C 	C 	0.7226	0.0657	0.2466	-0.07
Mof_H 	H 	0.6902	0.096	0.2418	0.059
Mof_C 	C 	0.7756	0.0587	0.26935	-0.075
Mof_H 	H 	0.7794	0.0842	0.2801	0.058
Mof_C 	C 	0.8229	0.0143	0.27636	0.09
Mof_C 	C 	0.8173	0.9769	0.2606	-0.076
Mof_H 	H 	0.8496	0.9465	0.2654	0.056
Mof_C 	C 	0.7643	0.9839	0.2379	-0.071
Mof_H 	H 	0.7604	0.9583	0.2271	0.055
Mof_C 	C 	0.7169	0.0283	0.23089	0.08
Mof_C 	C 	0.6977	0.2324	0.1491	0.004
Mof_H 	H 	0.5952	0.2367	0.1528	0.046
Mof_C 	C 	0.7882	0.264	0.1361	0.001
Mof_H 	H 	0.757	0.2932	0.1296	0.012
Mof_N 	N 	0.9337	0.2445	0.13452	-0.259
Mof_C 	C 	0.9331	0.2008	0.1466	0.055
Mof_H 	H 	0.0157	0.1801	0.1483	0.01
Mof_N 	N 	0.7872	0.1933	0.15561	-0.135
Mof_C 	C 	0.6162	0.1371	0.16667	-0.1
Mof_H 	H 	0.5444	0.1511	0.1565	0.104
Mof_C 	C 	0.7592	0.1559	0.1681	0.122
Mof_C 	C 	0.8642	0.1355	0.1829	-0.1
Mof_H 	H 	0.9619	0.1483	0.1839	0.066
Mof_C 	C 	0.8262	0.0964	0.19635	-0.057
Mof_H 	H 	0.898	0.0825	0.2065	0.058
Mof_C 	C 	0.6832	0.0777	0.19492	0.066
Mof_C 	C 	0.5782	0.098	0.1801	-0.046
Mof_H 	H 	0.4804	0.0853	0.1791	0.062
Mof_C 	C 	0.404	0.8653	0.1461	0.137
Mof_H 	H 	0.497	0.8751	0.1399	-0.031
Mof_C 	C 	0.193	0.8311	0.1495	-0.024
Mof_H 	H 	0.107	0.8127	0.1466	0.025
Mof_C 	C 	0.207	0.8697	0.1669	0.021
Mof_H 	H 	0.1389	0.8799	0.1786	0.021
Mof_C 	C 	0.4098	0.9299	0.19823	-0.058
Mof_H 	H 	0.3519	0.9084	0.2072	0.051
Mof_C 	C 	0.48	0.9675	0.20929	-0.085
Mof_H 	H 	0.47	0.9717	0.2258	0.065
Mof_C 	C 	0.5648	0.999	0.19619	0.092
Mof_C 	C 	0.5795	0.9929	0.17202	-0.087
Mof_H 	H 	0.6374	0.0144	0.1631	0.067
Mof_C 	C 	0.5093	0.9553	0.16096	-0.068
Mof_H 	H 	0.5194	0.9511	0.1444	0.049
Mof_C 	C 	0.4245	0.9238	0.17406	0.066
Mof_N 	N 	0.7874	0.9789	0.38923	-0.27
Mof_C 	C 	0.8842	0.9415	0.3956	-0.031
Mof_H 	H 	0.985	0.9379	0.3907	0.017
Mof_C 	C 	0.8039	0.9103	0.41045	0.05
Mof_N 	N 	0.6575	0.9285	0.41333	-0.118
Mof_C 	C 	0.6473	0.9709	0.40022	0.054
Mof_H 	H 	0.5617	0.9905	0.399	0.011
Mof_C 	C 	0.9765	0.8448	0.40983	-0.021
Mof_H 	H 	0.0088	0.8543	0.3946	0.03
Mof_C 	C 	0.0408	0.8059	0.42059	-0.115
Mof_H 	H 	0.1169	0.7887	0.4127	0.072
Mof_C 	C 	0.9936	0.792	0.44284	0.104
Mof_C 	C 	0.8822	0.8171	0.45434	-0.116
Mof_H 	H 	0.85	0.8076	0.4696	0.076
Mof_C 	C 	0.818	0.8561	0.44359	-0.005
Mof_H 	H 	0.7418	0.8732	0.4514	0.04
Mof_C 	C 	0.8651	0.8699	0.42133	-0.029
Mof_C 	C 	0.2427	0.6429	0.412	0.093
Mof_C 	C 	0.3055	0.6575	0.434	-0.065
Mof_H 	H 	0.3886	0.6407	0.4401	0.054
Mof_C 	C 	0.2496	0.6956	0.447	-0.097
Mof_H 	H 	0.302	0.7071	0.4603	0.072
Mof_C 	C 	0.1233	0.7152	0.4403	0.107
Mof_C 	C 	0.0467	0.7007	0.4203	-0.08
Mof_H 	H 	0.9565	0.716	0.4161	0.078
Mof_C 	C 	0.1007	0.6633	0.4061	-0.073
Mof_H 	H 	0.0446	0.6521	0.3931	0.106
Mof_C 	C 	0.9906	0.6887	0.50935	-0.067
Mof_H 	H 	0.9575	0.6586	0.5143	0.055
Mof_C 	C 	0.0028	0.6987	0.48546	-0.083
Mof_H 	H 	0.9779	0.6753	0.4741	0.063
Mof_C 	C 	0.0513	0.7427	0.47815	0.092
Mof_C 	C 	0.0877	0.7768	0.49471	-0.082
Mof_H 	H 	0.1209	0.8069	0.4897	0.061
Mof_C 	C 	0.0756	0.7669	0.51859	-0.071
Mof_H 	H 	0.1005	0.7902	0.5299	0.055
Mof_C 	C 	0.0271	0.7228	0.52591	0.081
Mof_C 	C 	0.0844	0.7371	0.5677	0.056
Mof_H 	H 	0.1508	0.7629	0.5659	0
Mof_N 	N 	0.9998	0.7157	0.54946	-0.126
Mof_C 	C 	0.9153	0.6785	0.55953	0.004
Mof_H 	H 	0.8489	0.6583	0.5513	0.032
Mof_C 	C 	0.9477	0.6769	0.58399	-0.004
Mof_H 	H 	0.9066	0.6555	0.595	0.013
Mof_N 	N 	0.0521	0.7131	0.58904	-0.272
Mof_Cl	Cl	0.6588	0.08133	0.37187	-0.556
Mof_Cl	Cl	0.2951	0.78641	0.6254	-0.548
Mof_N 	N 	0.6475	0.0348	0.208	-0.144
Mof_N 	N 	0.3403	0.8859	0.1616	-0.157
Mof_N 	N 	0.3313	0.8269	0.1383	-0.282
Mof_N 	N 	0.0646	0.7508	0.4538	-0.158
Mof_N 	N 	0.4712	0.5582	0.38259	-0.263
Mof_C 	C 	0.3278	0.5374	0.38037	-0.003
Mof_H 	H 	0.3062	0.5082	0.373	0.01
Mof_C 	C 	0.2225	0.5678	0.3912	0.001
Mof_H 	H 	0.118	0.5625	0.3923	0.058
Mof_N 	N 	0.3008	0.6074	0.40011	-0.128
Mof_C 	C 	0.4545	0.6014	0.39479	0.059
Mof_H 	H 	0.5325	0.6227	0.3987	0.01
Mof_Zn	Zn	0.8437	0.03105	0.37012	1.204
Mof_Zn	Zn	0.1198	0.73021	0.62036	1.194
Mof_C 	C 	0.676	0.4684	0.819	0.052
Mof_H 	H 	0.7478	0.4439	0.8191	0.005
Mof_N 	N 	0.6173	0.4908	0.79863	-0.127
Mof_C 	C 	0.5136	0.5255	0.8061	0.002
Mof_H 	H 	0.4576	0.5458	0.7962	0.029
Mof_C 	C 	0.5083	0.5245	0.8311	-0.001
Mof_H 	H 	0.4482	0.544	0.8408	0.011
Mof_N 	N 	0.6087	0.4893	0.83905	-0.274
Mof_C 	C 	0.7774	0.4343	0.7466	-0.07
Mof_H 	H 	0.8098	0.404	0.7418	0.059
Mof_C 	C 	0.7244	0.4413	0.76935	-0.076
Mof_H 	H 	0.7206	0.4158	0.7801	0.059
Mof_C 	C 	0.6771	0.4857	0.77636	0.091
Mof_C 	C 	0.6827	0.5231	0.7606	-0.077
Mof_H 	H 	0.6504	0.5535	0.7654	0.056
Mof_C 	C 	0.7357	0.5161	0.7379	-0.072
Mof_H 	H 	0.7396	0.5417	0.7271	0.055
Mof_C 	C 	0.7831	0.4717	0.73089	0.08
Mof_C 	C 	0.8023	0.2676	0.6491	0.004
Mof_H 	H 	0.9048	0.2633	0.6528	0.046
Mof_C 	C 	0.7118	0.236	0.6361	0.001
Mof_H 	H 	0.743	0.2068	0.6296	0.012
Mof_N 	N 	0.5663	0.2555	0.63452	-0.259
Mof_C 	C 	0.5669	0.2992	0.6466	0.051
Mof_H 	H 	0.4843	0.3199	0.6483	0.013
Mof_N 	N 	0.7128	0.3067	0.65561	-0.134
Mof_C 	C 	0.8838	0.3629	0.66667	-0.101
Mof_H 	H 	0.9556	0.3489	0.6565	0.105
Mof_C 	C 	0.7408	0.3441	0.6681	0.122
Mof_C 	C 	0.6358	0.3645	0.6829	-0.101
Mof_H 	H 	0.5381	0.3517	0.6839	0.065
Mof_C 	C 	0.6738	0.4036	0.69635	-0.056
Mof_H 	H 	0.602	0.4175	0.7065	0.057
Mof_C 	C 	0.8168	0.4223	0.69492	0.065
Mof_C 	C 	0.9218	0.402	0.6801	-0.044
Mof_H 	H 	0.0196	0.4147	0.6791	0.061
Mof_C 	C 	0.096	0.6347	0.6461	0.137
Mof_H 	H 	0.003	0.6249	0.6399	-0.032
Mof_C 	C 	0.307	0.6689	0.6495	-0.024
Mof_H 	H 	0.393	0.6873	0.6466	0.025
Mof_C 	C 	0.293	0.6303	0.6669	0.021
Mof_H 	H 	0.3611	0.6201	0.6786	0.021
Mof_C 	C 	0.0902	0.5701	0.69823	-0.056
Mof_H 	H 	0.1481	0.5916	0.7072	0.05
Mof_C 	C 	0.02	0.5325	0.70929	-0.088
Mof_H 	H 	0.03	0.5283	0.7258	0.066
Mof_C 	C 	0.9352	0.501	0.69619	0.094
Mof_C 	C 	0.9205	0.5071	0.67202	-0.089
Mof_H 	H 	0.8626	0.4856	0.6631	0.068
Mof_C 	C 	0.9907	0.5447	0.66096	-0.064
Mof_H 	H 	0.9806	0.5489	0.6444	0.048
Mof_C 	C 	0.0755	0.5762	0.67406	0.063
Mof_N 	N 	0.7126	0.5211	0.88923	-0.27
Mof_C 	C 	0.6158	0.5585	0.8956	-0.031
Mof_H 	H 	0.515	0.5621	0.8907	0.018
Mof_C 	C 	0.6961	0.5897	0.91045	0.051
Mof_N 	N 	0.8425	0.5715	0.91333	-0.119
Mof_C 	C 	0.8527	0.5291	0.90022	0.054
Mof_H 	H 	0.9383	0.5095	0.899	0.011
Mof_C 	C 	0.5235	0.6552	0.90983	-0.016
Mof_H 	H 	0.4912	0.6457	0.8946	0.027
Mof_C 	C 	0.4592	0.6941	0.92059	-0.12
Mof_H 	H 	0.3831	0.7113	0.9127	0.074
Mof_C 	C 	0.5064	0.708	0.94284	0.107
Mof_C 	C 	0.6178	0.6829	0.95434	-0.119
Mof_H 	H 	0.65	0.6924	0.9696	0.076
Mof_C 	C 	0.682	0.6439	0.94359	-0.003
Mof_H 	H 	0.7582	0.6268	0.9514	0.039
Mof_C 	C 	0.6349	0.6301	0.92133	-0.032
Mof_C 	C 	0.2573	0.8571	0.912	0.093
Mof_C 	C 	0.1945	0.8425	0.934	-0.065
Mof_H 	H 	0.1114	0.8593	0.9401	0.054
Mof_C 	C 	0.2504	0.8044	0.947	-0.097
Mof_H 	H 	0.198	0.7929	0.9603	0.073
Mof_C 	C 	0.3767	0.7848	0.9403	0.108
Mof_C 	C 	0.4533	0.7993	0.9203	-0.081
Mof_H 	H 	0.5435	0.784	0.9161	0.079
Mof_C 	C 	0.3993	0.8367	0.9061	-0.073
Mof_H 	H 	0.4554	0.8479	0.8931	0.106
Mof_C 	C 	0.5094	0.8113	0.00935	-0.073
Mof_H 	H 	0.5425	0.8414	0.0143	0.057
Mof_C 	C 	0.4972	0.8013	0.98546	-0.078
Mof_H 	H 	0.5221	0.8247	0.9741	0.062
Mof_C 	C 	0.4487	0.7573	0.97815	0.09
Mof_C 	C 	0.4123	0.7232	0.99471	-0.079
Mof_H 	H 	0.3791	0.6931	0.9897	0.06
Mof_C 	C 	0.4244	0.7331	0.01859	-0.074
Mof_H 	H 	0.3995	0.7098	0.0299	0.056
Mof_C 	C 	0.4729	0.7772	0.02591	0.086
Mof_C 	C 	0.4156	0.7629	0.0677	0.058
Mof_H 	H 	0.3492	0.7371	0.0659	-0
Mof_N 	N 	0.5002	0.7843	0.04946	-0.128
Mof_C 	C 	0.5847	0.8215	0.05953	0.005
Mof_H 	H 	0.6511	0.8417	0.0513	0.032
Mof_C 	C 	0.5523	0.8231	0.08399	-0.007
Mof_H 	H 	0.5934	0.8445	0.095	0.013
Mof_N 	N 	0.4479	0.7869	0.08904	-0.271
Mof_Cl	Cl	0.8412	0.41867	0.87187	-0.556
Mof_Cl	Cl	0.2049	0.71359	0.1254	-0.548
Mof_N 	N 	0.8525	0.4652	0.708	-0.144
Mof_N 	N 	0.1597	0.6141	0.6616	-0.156
Mof_N 	N 	0.1687	0.6731	0.6383	-0.282
Mof_N 	N 	0.4354	0.7492	0.9538	-0.158
Mof_N 	N 	0.0288	0.9418	0.88259	-0.263
Mof_C 	C 	0.1722	0.9626	0.88037	-0.003
Mof_H 	H 	0.1938	0.9918	0.873	0.011
Mof_C 	C 	0.2775	0.9322	0.8912	0.001
Mof_H 	H 	0.382	0.9375	0.8923	0.057
Mof_N 	N 	0.1992	0.8926	0.90011	-0.128
Mof_C 	C 	0.0455	0.8986	0.89479	0.063
Mof_H 	H 	0.9675	0.8773	0.8987	0.007
Mof_Zn	Zn	0.6563	0.46895	0.87012	1.204
Mof_Zn	Zn	0.3802	0.76979	0.12036	1.195
Mof_C 	C 	0.824	0.9684	0.819	0.052
Mof_H 	H 	0.7522	0.9439	0.8191	0.005
Mof_N 	N 	0.8827	0.9908	0.79863	-0.127
Mof_C 	C 	0.9864	0.0255	0.8061	0.001
Mof_H 	H 	0.0424	0.0458	0.7962	0.03
Mof_C 	C 	0.9917	0.0245	0.8311	-0.003
Mof_H 	H 	0.0518	0.044	0.8408	0.013
Mof_N 	N 	0.8913	0.9893	0.83905	-0.274
Mof_C 	C 	0.7226	0.9343	0.7466	-0.07
Mof_H 	H 	0.6902	0.904	0.7418	0.059
Mof_C 	C 	0.7756	0.9413	0.76935	-0.075
Mof_H 	H 	0.7794	0.9158	0.7801	0.058
Mof_C 	C 	0.8229	0.9857	0.77636	0.09
Mof_C 	C 	0.8173	0.0231	0.7606	-0.076
Mof_H 	H 	0.8496	0.0535	0.7654	0.056
Mof_C 	C 	0.7643	0.0161	0.7379	-0.071
Mof_H 	H 	0.7604	0.0417	0.7271	0.055
Mof_C 	C 	0.7169	0.9717	0.73089	0.08
Mof_C 	C 	0.6977	0.7676	0.6491	0.004
Mof_H 	H 	0.5952	0.7633	0.6528	0.046
Mof_C 	C 	0.7882	0.736	0.6361	0.001
Mof_H 	H 	0.757	0.7068	0.6296	0.012
Mof_N 	N 	0.9337	0.7555	0.63452	-0.259
Mof_C 	C 	0.9331	0.7992	0.6466	0.055
Mof_H 	H 	0.0157	0.8199	0.6483	0.01
Mof_N 	N 	0.7872	0.8067	0.65561	-0.135
Mof_C 	C 	0.6162	0.8629	0.66667	-0.1
Mof_H 	H 	0.5444	0.8489	0.6565	0.104
Mof_C 	C 	0.7592	0.8441	0.6681	0.122
Mof_C 	C 	0.8642	0.8645	0.6829	-0.1
Mof_H 	H 	0.9619	0.8517	0.6839	0.066
Mof_C 	C 	0.8262	0.9036	0.69635	-0.057
Mof_H 	H 	0.898	0.9175	0.7065	0.058
Mof_C 	C 	0.6832	0.9223	0.69492	0.066
Mof_C 	C 	0.5782	0.902	0.6801	-0.046
Mof_H 	H 	0.4804	0.9147	0.6791	0.062
Mof_C 	C 	0.404	0.1347	0.6461	0.137
Mof_H 	H 	0.497	0.1249	0.6399	-0.031
Mof_C 	C 	0.193	0.1689	0.6495	-0.024
Mof_H 	H 	0.107	0.1873	0.6466	0.025
Mof_C 	C 	0.207	0.1303	0.6669	0.021
Mof_H 	H 	0.1389	0.1201	0.6786	0.021
Mof_C 	C 	0.4098	0.0701	0.69823	-0.058
Mof_H 	H 	0.3519	0.0916	0.7072	0.051
Mof_C 	C 	0.48	0.0325	0.70929	-0.085
Mof_H 	H 	0.47	0.0283	0.7258	0.065
Mof_C 	C 	0.5648	0.001	0.69619	0.092
Mof_C 	C 	0.5795	0.0071	0.67202	-0.087
Mof_H 	H 	0.6374	0.9856	0.6631	0.067
Mof_C 	C 	0.5093	0.0447	0.66096	-0.068
Mof_H 	H 	0.5194	0.0489	0.6444	0.049
Mof_C 	C 	0.4245	0.0762	0.67406	0.066
Mof_N 	N 	0.7874	0.0211	0.88923	-0.27
Mof_C 	C 	0.8842	0.0585	0.8956	-0.031
Mof_H 	H 	0.985	0.0621	0.8907	0.017
Mof_C 	C 	0.8039	0.0897	0.91045	0.05
Mof_N 	N 	0.6575	0.0715	0.91333	-0.118
Mof_C 	C 	0.6473	0.0291	0.90022	0.054
Mof_H 	H 	0.5617	0.0095	0.899	0.011
Mof_C 	C 	0.9765	0.1552	0.90983	-0.022
Mof_H 	H 	0.0088	0.1457	0.8946	0.03
Mof_C 	C 	0.0408	0.1941	0.92059	-0.115
Mof_H 	H 	0.1169	0.2113	0.9127	0.072
Mof_C 	C 	0.9936	0.208	0.94284	0.104
Mof_C 	C 	0.8822	0.1829	0.95434	-0.116
Mof_H 	H 	0.85	0.1924	0.9696	0.076
Mof_C 	C 	0.818	0.1439	0.94359	-0.005
Mof_H 	H 	0.7418	0.1268	0.9514	0.04
Mof_C 	C 	0.8651	0.1301	0.92133	-0.029
Mof_C 	C 	0.2427	0.3571	0.912	0.093
Mof_C 	C 	0.3055	0.3425	0.934	-0.065
Mof_H 	H 	0.3886	0.3593	0.9401	0.054
Mof_C 	C 	0.2496	0.3044	0.947	-0.097
Mof_H 	H 	0.302	0.2929	0.9603	0.072
Mof_C 	C 	0.1233	0.2848	0.9403	0.107
Mof_C 	C 	0.0467	0.2993	0.9203	-0.08
Mof_H 	H 	0.9565	0.284	0.9161	0.078
Mof_C 	C 	0.1007	0.3367	0.9061	-0.073
Mof_H 	H 	0.0446	0.3479	0.8931	0.106
Mof_C 	C 	0.9906	0.3113	0.00935	-0.067
Mof_H 	H 	0.9575	0.3414	0.0143	0.055
Mof_C 	C 	0.0028	0.3013	0.98546	-0.083
Mof_H 	H 	0.9779	0.3247	0.9741	0.063
Mof_C 	C 	0.0513	0.2573	0.97815	0.092
Mof_C 	C 	0.0877	0.2232	0.99471	-0.082
Mof_H 	H 	0.1209	0.1931	0.9897	0.061
Mof_C 	C 	0.0756	0.2331	0.01859	-0.071
Mof_H 	H 	0.1005	0.2098	0.0299	0.055
Mof_C 	C 	0.0271	0.2772	0.02591	0.081
Mof_C 	C 	0.0844	0.2629	0.0677	0.056
Mof_H 	H 	0.1508	0.2371	0.0659	0
Mof_N 	N 	0.9998	0.2843	0.04946	-0.126
Mof_C 	C 	0.9153	0.3215	0.05953	0.004
Mof_H 	H 	0.8489	0.3417	0.0513	0.032
Mof_C 	C 	0.9477	0.3231	0.08399	-0.004
Mof_H 	H 	0.9066	0.3445	0.095	0.013
Mof_N 	N 	0.0521	0.2869	0.08904	-0.272
Mof_Cl	Cl	0.6588	0.91867	0.87187	-0.556
Mof_Cl	Cl	0.2951	0.21359	0.1254	-0.548
Mof_N 	N 	0.6475	0.9652	0.708	-0.144
Mof_N 	N 	0.3403	0.1141	0.6616	-0.157
Mof_N 	N 	0.3313	0.1731	0.6383	-0.282
Mof_N 	N 	0.0646	0.2492	0.9538	-0.158
Mof_N 	N 	0.4712	0.4418	0.88259	-0.263
Mof_C 	C 	0.3278	0.4626	0.88037	-0.003
Mof_H 	H 	0.3062	0.4918	0.873	0.01
Mof_C 	C 	0.2225	0.4322	0.8912	0.001
Mof_H 	H 	0.118	0.4375	0.8923	0.058
Mof_N 	N 	0.3008	0.3926	0.90011	-0.128
Mof_C 	C 	0.4545	0.3986	0.89479	0.059
Mof_H 	H 	0.5325	0.3773	0.8987	0.01
Mof_Zn	Zn	0.8437	0.96895	0.87012	1.204
Mof_Zn	Zn	0.1198	0.26979	0.12036	1.194
Mof_C 	C 	0.676	0.5316	0.319	0.052
Mof_H 	H 	0.7478	0.5561	0.3191	0.005
Mof_N 	N 	0.6173	0.5092	0.29863	-0.127
Mof_C 	C 	0.5136	0.4745	0.3061	0.002
Mof_H 	H 	0.4576	0.4542	0.2962	0.029
Mof_C 	C 	0.5083	0.4755	0.3311	-0.001
Mof_H 	H 	0.4482	0.456	0.3408	0.011
Mof_N 	N 	0.6087	0.5107	0.33905	-0.274
Mof_C 	C 	0.7774	0.5657	0.2466	-0.07
Mof_H 	H 	0.8098	0.596	0.2418	0.059
Mof_C 	C 	0.7244	0.5587	0.26935	-0.076
Mof_H 	H 	0.7206	0.5842	0.2801	0.059
Mof_C 	C 	0.6771	0.5143	0.27636	0.091
Mof_C 	C 	0.6827	0.4769	0.2606	-0.077
Mof_H 	H 	0.6504	0.4465	0.2654	0.056
Mof_C 	C 	0.7357	0.4839	0.2379	-0.072
Mof_H 	H 	0.7396	0.4583	0.2271	0.055
Mof_C 	C 	0.7831	0.5283	0.23089	0.08
Mof_C 	C 	0.8023	0.7324	0.1491	0.004
Mof_H 	H 	0.9048	0.7367	0.1528	0.046
Mof_C 	C 	0.7118	0.764	0.1361	0.001
Mof_H 	H 	0.743	0.7932	0.1296	0.012
Mof_N 	N 	0.5663	0.7445	0.13452	-0.259
Mof_C 	C 	0.5669	0.7008	0.1466	0.051
Mof_H 	H 	0.4843	0.6801	0.1483	0.013
Mof_N 	N 	0.7128	0.6933	0.15561	-0.134
Mof_C 	C 	0.8838	0.6371	0.16667	-0.101
Mof_H 	H 	0.9556	0.6511	0.1565	0.105
Mof_C 	C 	0.7408	0.6559	0.1681	0.122
Mof_C 	C 	0.6358	0.6355	0.1829	-0.101
Mof_H 	H 	0.5381	0.6483	0.1839	0.065
Mof_C 	C 	0.6738	0.5964	0.19635	-0.056
Mof_H 	H 	0.602	0.5825	0.2065	0.057
Mof_C 	C 	0.8168	0.5777	0.19492	0.065
Mof_C 	C 	0.9218	0.598	0.1801	-0.044
Mof_H 	H 	0.0196	0.5853	0.1791	0.061
Mof_C 	C 	0.096	0.3653	0.1461	0.137
Mof_H 	H 	0.003	0.3751	0.1399	-0.032
Mof_C 	C 	0.307	0.3311	0.1495	-0.024
Mof_H 	H 	0.393	0.3127	0.1466	0.025
Mof_C 	C 	0.293	0.3697	0.1669	0.021
Mof_H 	H 	0.3611	0.3799	0.1786	0.021
Mof_C 	C 	0.0902	0.4299	0.19823	-0.056
Mof_H 	H 	0.1481	0.4084	0.2072	0.05
Mof_C 	C 	0.02	0.4675	0.20929	-0.088
Mof_H 	H 	0.03	0.4717	0.2258	0.066
Mof_C 	C 	0.9352	0.499	0.19619	0.094
Mof_C 	C 	0.9205	0.4929	0.17202	-0.089
Mof_H 	H 	0.8626	0.5144	0.1631	0.068
Mof_C 	C 	0.9907	0.4553	0.16096	-0.064
Mof_H 	H 	0.9806	0.4511	0.1444	0.048
Mof_C 	C 	0.0755	0.4238	0.17406	0.063
Mof_N 	N 	0.7126	0.4789	0.38923	-0.27
Mof_C 	C 	0.6158	0.4415	0.3956	-0.031
Mof_H 	H 	0.515	0.4379	0.3907	0.018
Mof_C 	C 	0.6961	0.4103	0.41045	0.051
Mof_N 	N 	0.8425	0.4285	0.41333	-0.119
Mof_C 	C 	0.8527	0.4709	0.40022	0.054
Mof_H 	H 	0.9383	0.4905	0.399	0.011
Mof_C 	C 	0.5235	0.3448	0.40983	-0.016
Mof_H 	H 	0.4912	0.3543	0.3946	0.027
Mof_C 	C 	0.4592	0.3059	0.42059	-0.12
Mof_H 	H 	0.3831	0.2887	0.4127	0.074
Mof_C 	C 	0.5064	0.292	0.44284	0.107
Mof_C 	C 	0.6178	0.3171	0.45434	-0.119
Mof_H 	H 	0.65	0.3076	0.4696	0.076
Mof_C 	C 	0.682	0.3561	0.44359	-0.003
Mof_H 	H 	0.7582	0.3732	0.4514	0.039
Mof_C 	C 	0.6349	0.3699	0.42133	-0.032
Mof_C 	C 	0.2573	0.1429	0.412	0.093
Mof_C 	C 	0.1945	0.1575	0.434	-0.065
Mof_H 	H 	0.1114	0.1407	0.4401	0.054
Mof_C 	C 	0.2504	0.1956	0.447	-0.097
Mof_H 	H 	0.198	0.2071	0.4603	0.073
Mof_C 	C 	0.3767	0.2152	0.4403	0.108
Mof_C 	C 	0.4533	0.2007	0.4203	-0.081
Mof_H 	H 	0.5435	0.216	0.4161	0.079
Mof_C 	C 	0.3993	0.1633	0.4061	-0.073
Mof_H 	H 	0.4554	0.1521	0.3931	0.106
Mof_C 	C 	0.5094	0.1887	0.50935	-0.073
Mof_H 	H 	0.5425	0.1586	0.5143	0.057
Mof_C 	C 	0.4972	0.1987	0.48546	-0.078
Mof_H 	H 	0.5221	0.1753	0.4741	0.062
Mof_C 	C 	0.4487	0.2427	0.47815	0.09
Mof_C 	C 	0.4123	0.2768	0.49471	-0.079
Mof_H 	H 	0.3791	0.3069	0.4897	0.06
Mof_C 	C 	0.4244	0.2669	0.51859	-0.074
Mof_H 	H 	0.3995	0.2902	0.5299	0.056
Mof_C 	C 	0.4729	0.2228	0.52591	0.086
Mof_C 	C 	0.4156	0.2371	0.5677	0.058
Mof_H 	H 	0.3492	0.2629	0.5659	-0
Mof_N 	N 	0.5002	0.2157	0.54946	-0.128
Mof_C 	C 	0.5847	0.1785	0.55953	0.005
Mof_H 	H 	0.6511	0.1583	0.5513	0.032
Mof_C 	C 	0.5523	0.1769	0.58399	-0.007
Mof_H 	H 	0.5934	0.1555	0.595	0.013
Mof_N 	N 	0.4479	0.2131	0.58904	-0.271
Mof_Cl	Cl	0.8412	0.58133	0.37187	-0.556
Mof_Cl	Cl	0.2049	0.28641	0.6254	-0.548
Mof_N 	N 	0.8525	0.5348	0.208	-0.144
Mof_N 	N 	0.1597	0.3859	0.1616	-0.156
Mof_N 	N 	0.1687	0.3269	0.1383	-0.282
Mof_N 	N 	0.4354	0.2508	0.4538	-0.158
Mof_N 	N 	0.0288	0.0582	0.38259	-0.263
Mof_C 	C 	0.1722	0.0374	0.38037	-0.003
Mof_H 	H 	0.1938	0.0082	0.373	0.011
Mof_C 	C 	0.2775	0.0678	0.3912	0.001
Mof_H 	H 	0.382	0.0625	0.3923	0.057
Mof_N 	N 	0.1992	0.1074	0.40011	-0.128
Mof_C 	C 	0.0455	0.1014	0.39479	0.063
Mof_H 	H 	0.9675	0.1227	0.3987	0.007
Mof_Zn	Zn	0.6563	0.53105	0.37012	1.204
Mof_Zn	Zn	0.3802	0.23021	0.62036	1.195
_end
