# CIF file generated by openbabel 3.1.0, see https://openbabel.org
data_I
_chemical_name_common 'image0'
_cell_length_a 8.3911
_cell_length_b 10.5518
_cell_length_c 17.4632
_cell_angle_alpha 98.993
_cell_angle_beta 97.112
_cell_angle_gamma 100.424
_space_group_name_H-M_alt 'P 1'
_space_group_name_Hall 'P 1'
loop_
    _symmetry_equiv_pos_as_xyz
    x,y,z
loop_
    _atom_site_label
    _atom_site_type_symbol
    _atom_site_fract_x
    _atom_site_fract_y
    _atom_site_fract_z
    _atom_site_occupancy
    Sm1      Sm       0.52136    0.13786    0.29643    1.000
    Sm2      Sm       0.03463    0.19085    0.23747    1.000
    C1       C        0.02590    0.44170    0.19563    1.000
    C2       C        0.02760    0.57140    0.17140    1.000
    C3       C        0.12260    0.68480    0.21756    1.000
    H1       H        0.18400    0.68030    0.26480    1.000
    C4       C        0.12770    0.80550    0.19442    1.000
    C5       C        0.03470    0.81130    0.12430    1.000
    H2       H        0.03540    0.89180    0.10880    1.000
    C6       C        0.94030    0.69780    0.07690    1.000
    H3       H        0.87980    0.70210    0.02940    1.000
    C7       C        0.93660    0.57860    0.10080    1.000
    H4       H        0.87280    0.50270    0.06930    1.000
    C8       C        0.24130    0.92270    0.24236    1.000
    C9       C        0.83910    0.00170    0.35876    1.000
    C10      C        0.87250    0.90610    0.41111    1.000
    C11      C        0.99800    0.83780    0.40220    1.000
    H5       H        0.06180    0.85020    0.36300    1.000
    C12      C        0.02780    0.75180    0.45120    1.000
    H6       H        0.11010    0.70470    0.44400    1.000
    C13      C        0.93730    0.73440    0.51100    1.000
    H7       H        0.95950    0.67690    0.54430    1.000
    C14      C        0.81280    0.80330    0.52119    1.000
    C15      C        0.78020    0.88710    0.47042    1.000
    H8       H        0.69490    0.93140    0.47620    1.000
    C16      C        0.71870    0.79100    0.58747    1.000
    C17      C        0.68830    0.99990    0.13666    1.000
    C18      C        0.59840    0.90590    0.06496    1.000
    C19      C        0.43440    0.84850    0.06260    1.000
    H9       H        0.38370    0.86590    0.10640    1.000
    C20      C        0.34690    0.76640    0.99610    1.000
    H10      H        0.23780    0.72760    0.99520    1.000
    C21      C        0.42040    0.74120    0.93030    1.000
    H11      H        0.35980    0.68740    0.88490    1.000
    C22      C        0.58360    0.79550    0.93178    1.000
    C23      C        0.67260    0.87900    0.99947    1.000
    H12      H        0.78220    0.91680    0.00050    1.000
    C24      C        0.66060    0.77050    0.85978    1.000
    C25      C        0.78580    0.37230    0.33780    1.000
    H13      H        0.86690    0.44820    0.35120    1.000
    O1       O        0.12480    0.43490    0.25617    1.000
    O2       O        0.92860    0.34260    0.15765    1.000
    O3       O        0.35860    0.91010    0.29022    1.000
    O4       O        0.22540    0.03740    0.23106    1.000
    O5       O        0.83760    0.04550    0.14082    1.000
    O6       O        0.60470    0.02890    0.18983    1.000
    O7       O        0.81350    0.78750    0.86806    1.000
    O8       O        0.56740    0.73250    0.79343    1.000
    O9       O        0.71000    0.04570    0.36471    1.000
    O10      O        0.93890    0.03110    0.31374    1.000
    O11      O        0.58980    0.83500    0.58519    1.000
    O12      O        0.77210    0.73940    0.64359    1.000
    O13      O        0.81690    0.27390    0.29827    1.000
    O14      O        0.65140    0.37400    0.36017    1.000
    Sm3      Sm       0.47864    0.86214    0.70357    1.000
    Sm4      Sm       0.96537    0.80915    0.76253    1.000
    C26      C        0.97410    0.55830    0.80437    1.000
    C27      C        0.97240    0.42860    0.82860    1.000
    C28      C        0.87740    0.31520    0.78244    1.000
    H14      H        0.81600    0.31970    0.73520    1.000
    C29      C        0.87230    0.19450    0.80558    1.000
    C30      C        0.96530    0.18870    0.87570    1.000
    H15      H        0.96460    0.10820    0.89120    1.000
    C31      C        0.05970    0.30220    0.92310    1.000
    H16      H        0.12020    0.29790    0.97060    1.000
    C32      C        0.06340    0.42140    0.89920    1.000
    H17      H        0.12720    0.49730    0.93070    1.000
    C33      C        0.75870    0.07730    0.75764    1.000
    C34      C        0.16090    0.99830    0.64124    1.000
    C35      C        0.12750    0.09390    0.58889    1.000
    C36      C        0.00200    0.16220    0.59780    1.000
    H18      H        0.93820    0.14980    0.63700    1.000
    C37      C        0.97220    0.24820    0.54880    1.000
    H19      H        0.88990    0.29530    0.55600    1.000
    C38      C        0.06270    0.26560    0.48900    1.000
    H20      H        0.04050    0.32310    0.45570    1.000
    C39      C        0.18720    0.19670    0.47881    1.000
    C40      C        0.21980    0.11290    0.52958    1.000
    H21      H        0.30510    0.06860    0.52380    1.000
    C41      C        0.28130    0.20900    0.41253    1.000
    C42      C        0.31170    0.00010    0.86334    1.000
    C43      C        0.40160    0.09410    0.93504    1.000
    C44      C        0.56560    0.15150    0.93740    1.000
    H22      H        0.61630    0.13410    0.89360    1.000
    C45      C        0.65310    0.23360    0.00390    1.000
    H23      H        0.76220    0.27240    0.00480    1.000
    C46      C        0.57960    0.25880    0.06970    1.000
    H24      H        0.64020    0.31260    0.11510    1.000
    C47      C        0.41640    0.20450    0.06822    1.000
    C48      C        0.32740    0.12100    0.00053    1.000
    H25      H        0.21780    0.08320    0.99950    1.000
    C49      C        0.33940    0.22950    0.14022    1.000
    C50      C        0.21420    0.62770    0.66220    1.000
    H26      H        0.13310    0.55180    0.64880    1.000
    O15      O        0.87520    0.56510    0.74383    1.000
    O16      O        0.07140    0.65740    0.84235    1.000
    O17      O        0.64140    0.08990    0.70978    1.000
    O18      O        0.77460    0.96260    0.76894    1.000
    O19      O        0.16240    0.95450    0.85918    1.000
    O20      O        0.39530    0.97110    0.81017    1.000
    O21      O        0.18650    0.21250    0.13194    1.000
    O22      O        0.43260    0.26750    0.20657    1.000
    O23      O        0.29000    0.95430    0.63529    1.000
    O24      O        0.06110    0.96890    0.68626    1.000
    O25      O        0.41020    0.16500    0.41481    1.000
    O26      O        0.22790    0.26060    0.35641    1.000
    O27      O        0.18310    0.72610    0.70173    1.000
    O28      O        0.34860    0.62600    0.63983    1.000
