data_functionalizedCrystal
_audit_creation_method	'EQeq! by Chris Wilmer'
_symmetry_space_group_name_H-M	'P1'
_symmetry_Int_Tables_number	1
_symmetry_cell_setting	triclinic
loop_
_symmetry_equiv_pos_as_xyz
  x,y,z
_cell_length_a	9.3402
_cell_length_b	13.7391
_cell_length_c	20.09
_cell_angle_alpha	86.1372
_cell_angle_beta	78.5689
_cell_angle_gamma	70.1284
loop_
_atom_site_label
_atom_site_type_symbol
_atom_site_fract_x
_atom_site_fract_y
_atom_site_fract_z
_atom_site_charge
Mof_Zn	Zn	0.65877	0.24342	0.9864	1.209
Mof_Zn	Zn	0.09781	0.24342	0.5136	1.209
Mof_Zn	Zn	0.34123	0.75658	0.0136	1.209
Mof_Zn	Zn	0.90219	0.75658	0.4864	1.209
Mof_H 	H 	0.981	0.129	0.934	-0.027
Mof_H 	H 	0.1356	0.9862	0.8719	0.142
Mof_H 	H 	0.7567	0.9108	0.869	0.14
Mof_H 	H 	0.6112	0.0608	0.9283	-0.029
Mof_H 	H 	0.9723	0.7378	0.8368	0.044
Mof_H 	H 	0.921	0.8144	0.7772	0.041
Mof_H 	H 	0.289	0.6846	0.8196	0.044
Mof_H 	H 	0.3675	0.615	0.7544	0.041
Mof_H 	H 	0.5968	0.4538	0.9371	-0.032
Mof_H 	H 	0.4444	0.5782	0.8759	0.145
Mof_H 	H 	0.2305	0.3804	0.8506	0.144
Mof_H 	H 	0.3814	0.2622	0.9132	-0.041
Mof_H 	H 	0.1245	0.3556	0.0599	0.05
Mof_H 	H 	0.8105	0.4966	0.9437	0.049
Mof_H 	H 	0.386	0.3274	0.1926	0.046
Mof_H 	H 	0.5328	0.0148	0.1909	0.049
Mof_H 	H 	0.89	0.129	0.566	-0.033
Mof_H 	H 	0.8782	0.9862	0.6281	0.15
Mof_H 	H 	0.3325	0.9108	0.631	0.144
Mof_H 	H 	0.328	0.0608	0.5717	-0.03
Mof_H 	H 	0.2899	0.7378	0.6632	0.047
Mof_H 	H 	0.2646	0.8144	0.7228	0.043
Mof_H 	H 	0.0264	0.6846	0.6804	0.045
Mof_H 	H 	0.0175	0.615	0.7456	0.042
Mof_H 	H 	0.9494	0.4538	0.5629	-0.031
Mof_H 	H 	0.9774	0.5782	0.6241	0.144
Mof_H 	H 	0.3891	0.3804	0.6494	0.144
Mof_H 	H 	0.3564	0.2622	0.5868	-0.04
Mof_H 	H 	0.5199	0.3556	0.4401	0.049
Mof_H 	H 	0.6929	0.4966	0.5563	0.048
Mof_H 	H 	0.2866	0.3274	0.3074	0.045
Mof_H 	H 	0.4524	0.0148	0.3091	0.049
Mof_H 	H 	0.019	0.871	0.066	-0.027
Mof_H 	H 	0.8644	0.0138	0.1281	0.142
Mof_H 	H 	0.2433	0.0892	0.131	0.14
Mof_H 	H 	0.3888	0.9392	0.0717	-0.029
Mof_H 	H 	0.0277	0.2622	0.1632	0.044
Mof_H 	H 	0.079	0.1856	0.2228	0.041
Mof_H 	H 	0.711	0.3154	0.1804	0.044
Mof_H 	H 	0.6325	0.385	0.2456	0.041
Mof_H 	H 	0.4032	0.5462	0.0629	-0.032
Mof_H 	H 	0.5556	0.4218	0.1241	0.145
Mof_H 	H 	0.7695	0.6196	0.1494	0.144
Mof_H 	H 	0.6186	0.7378	0.0868	-0.041
Mof_H 	H 	0.8755	0.6444	0.9401	0.05
Mof_H 	H 	0.1895	0.5034	0.0563	0.049
Mof_H 	H 	0.614	0.6726	0.8074	0.046
Mof_H 	H 	0.4672	0.9852	0.8091	0.049
Mof_H 	H 	0.11	0.871	0.434	-0.033
Mof_H 	H 	0.1218	0.0138	0.3719	0.15
Mof_H 	H 	0.6675	0.0892	0.369	0.144
Mof_H 	H 	0.672	0.9392	0.4283	-0.03
Mof_H 	H 	0.7101	0.2622	0.3368	0.047
Mof_H 	H 	0.7354	0.1856	0.2772	0.043
Mof_H 	H 	0.9736	0.3154	0.3196	0.045
Mof_H 	H 	0.9825	0.385	0.2544	0.042
Mof_H 	H 	0.0506	0.5462	0.4371	-0.031
Mof_H 	H 	0.0226	0.4218	0.3759	0.144
Mof_H 	H 	0.6109	0.6196	0.3506	0.144
Mof_H 	H 	0.6436	0.7378	0.4132	-0.04
Mof_H 	H 	0.4801	0.6444	0.5599	0.049
Mof_H 	H 	0.3071	0.5034	0.4437	0.048
Mof_H 	H 	0.7134	0.6726	0.6926	0.045
Mof_H 	H 	0.5476	0.9852	0.6909	0.049
Mof_C 	C 	0.93549	0.08542	0.91978	0.149
Mof_C 	C 	0.02916	0.99968	0.883	-0.272
Mof_C 	C 	0.96409	0.93342	0.86262	0.297
Mof_C 	C 	0.80377	0.95526	0.88084	-0.267
Mof_C 	C 	0.71811	0.04478	0.91689	0.156
Mof_C 	C 	0.00689	0.77882	0.80004	0.022
Mof_C 	C 	0.27153	0.64354	0.78661	0.016
Mof_C 	C 	0.5228	0.4382	0.91907	0.154
Mof_C 	C 	0.43116	0.51388	0.88261	-0.303
Mof_C 	C 	0.32162	0.49336	0.85673	0.304
Mof_C 	C 	0.30487	0.39626	0.86822	-0.287
Mof_C 	C 	0.39665	0.3257	0.9048	0.161
Mof_C 	C 	0.91415	0.3153	0.0041	0.349
Mof_C 	C 	0.0744	0.4132	0.03586	-0.022
Mof_C 	C 	0.95881	0.41118	0.00131	-0.065
Mof_C 	C 	0.88737	0.49786	0.9665	-0.018
Mof_C 	C 	0.53306	0.17008	0.10553	0.329
Mof_C 	C 	0.39622	0.26496	0.21553	-0.025
Mof_C 	C 	0.46923	0.17174	0.18039	-0.07
Mof_C 	C 	0.48724	0.07692	0.2147	-0.027
Mof_C 	C 	0.97909	0.08542	0.58022	0.168
Mof_C 	C 	0.97116	0.99968	0.617	-0.299
Mof_C 	C 	0.10249	0.93342	0.63738	0.315
Mof_C 	C 	0.24097	0.95526	0.61916	-0.277
Mof_C 	C 	0.23711	0.04478	0.58311	0.161
Mof_C 	C 	0.21429	0.77882	0.69996	0.017
Mof_C 	C 	0.08493	0.64354	0.71339	0.016
Mof_C 	C 	0.039	0.4382	0.58093	0.153
Mof_C 	C 	0.05496	0.51388	0.61739	-0.301
Mof_C 	C 	0.18502	0.49336	0.64327	0.303
Mof_C 	C 	0.29887	0.39626	0.63178	-0.286
Mof_C 	C 	0.27765	0.3257	0.5952	0.16
Mof_C 	C 	0.77055	0.3153	0.4959	0.348
Mof_C 	C 	0.5124	0.4132	0.46414	-0.02
Mof_C 	C 	0.63001	0.41118	0.49869	-0.067
Mof_C 	C 	0.61477	0.49786	0.5335	-0.016
Mof_C 	C 	0.29686	0.17008	0.39447	0.329
Mof_C 	C 	0.33882	0.26496	0.28447	-0.025
Mof_C 	C 	0.35903	0.17174	0.31961	-0.07
Mof_C 	C 	0.43584	0.07692	0.2853	-0.027
Mof_C 	C 	0.06451	0.91458	0.08022	0.149
Mof_C 	C 	0.97084	0.00032	0.117	-0.272
Mof_C 	C 	0.03591	0.06658	0.13738	0.297
Mof_C 	C 	0.19623	0.04474	0.11916	-0.267
Mof_C 	C 	0.28189	0.95522	0.08311	0.156
Mof_C 	C 	0.99311	0.22118	0.19996	0.022
Mof_C 	C 	0.72847	0.35646	0.21339	0.016
Mof_C 	C 	0.4772	0.5618	0.08093	0.154
Mof_C 	C 	0.56884	0.48612	0.11739	-0.303
Mof_C 	C 	0.67838	0.50664	0.14327	0.304
Mof_C 	C 	0.69513	0.60374	0.13178	-0.287
Mof_C 	C 	0.60335	0.6743	0.0952	0.161
Mof_C 	C 	0.08585	0.6847	0.9959	0.349
Mof_C 	C 	0.9256	0.5868	0.96414	-0.022
Mof_C 	C 	0.04119	0.58882	0.99869	-0.065
Mof_C 	C 	0.11263	0.50214	0.0335	-0.018
Mof_C 	C 	0.46694	0.82992	0.89447	0.329
Mof_C 	C 	0.60378	0.73504	0.78447	-0.025
Mof_C 	C 	0.53077	0.82826	0.81961	-0.07
Mof_C 	C 	0.51276	0.92308	0.7853	-0.027
Mof_C 	C 	0.02091	0.91458	0.41978	0.168
Mof_C 	C 	0.02884	0.00032	0.383	-0.299
Mof_C 	C 	0.89751	0.06658	0.36262	0.315
Mof_C 	C 	0.75903	0.04474	0.38084	-0.277
Mof_C 	C 	0.76289	0.95522	0.41689	0.161
Mof_C 	C 	0.78571	0.22118	0.30004	0.017
Mof_C 	C 	0.91507	0.35646	0.28661	0.016
Mof_C 	C 	0.961	0.5618	0.41907	0.153
Mof_C 	C 	0.94504	0.48612	0.38261	-0.301
Mof_C 	C 	0.81498	0.50664	0.35673	0.303
Mof_C 	C 	0.70113	0.60374	0.36822	-0.286
Mof_C 	C 	0.72235	0.6743	0.4048	0.16
Mof_C 	C 	0.22945	0.6847	0.5041	0.348
Mof_C 	C 	0.4876	0.5868	0.53586	-0.02
Mof_C 	C 	0.36999	0.58882	0.50131	-0.067
Mof_C 	C 	0.38523	0.50214	0.4665	-0.016
Mof_C 	C 	0.70314	0.82992	0.60553	0.329
Mof_C 	C 	0.66118	0.73504	0.71553	-0.025
Mof_C 	C 	0.64097	0.82826	0.68039	-0.07
Mof_C 	C 	0.56416	0.92308	0.7147	-0.027
Mof_C 	C 	0.14496	0.71008	0.75	0.016
Mof_C 	C 	0.85504	0.28992	0.25	0.016
Mof_N 	N 	0.78126	0.11028	0.93645	-0.301
Mof_N 	N 	0.51185	0.3425	0.93041	-0.296
Mof_N 	N 	0.10846	0.11028	0.56355	-0.306
Mof_N 	N 	0.14565	0.3425	0.56959	-0.296
Mof_N 	N 	0.21874	0.88972	0.06355	-0.301
Mof_N 	N 	0.48815	0.6575	0.06959	-0.296
Mof_N 	N 	0.89154	0.88972	0.43645	-0.306
Mof_N 	N 	0.85435	0.6575	0.43041	-0.296
Mof_O 	O 	0.06251	0.85178	0.82555	-0.244
Mof_O 	O 	0.22183	0.56194	0.81996	-0.242
Mof_O 	O 	0.79432	0.32616	0.97964	-0.464
Mof_O 	O 	0.99204	0.23412	0.02824	-0.279
Mof_O 	O 	0.55027	0.25246	0.08037	-0.466
Mof_O 	O 	0.56218	0.09144	0.07168	-0.312
Mof_O 	O 	0.08571	0.85178	0.67445	-0.248
Mof_O 	O 	0.21623	0.56194	0.68004	-0.242
Mof_O 	O 	0.87952	0.32616	0.52036	-0.462
Mof_O 	O 	0.77384	0.23412	0.47176	-0.28
Mof_O 	O 	0.19727	0.25246	0.41963	-0.467
Mof_O 	O 	0.34638	0.09144	0.42832	-0.314
Mof_O 	O 	0.93749	0.14822	0.17445	-0.244
Mof_O 	O 	0.77817	0.43806	0.18004	-0.242
Mof_O 	O 	0.20568	0.67384	0.02036	-0.464
Mof_O 	O 	0.00796	0.76588	0.97176	-0.279
Mof_O 	O 	0.44973	0.74754	0.91963	-0.466
Mof_O 	O 	0.43782	0.90856	0.92832	-0.312
Mof_O 	O 	0.91429	0.14822	0.32555	-0.248
Mof_O 	O 	0.78377	0.43806	0.31996	-0.242
Mof_O 	O 	0.12048	0.67384	0.47964	-0.462
Mof_O 	O 	0.22616	0.76588	0.52824	-0.28
Mof_O 	O 	0.80273	0.74754	0.58037	-0.467
Mof_O 	O 	0.65362	0.90856	0.57168	-0.314
_end
