data_functionalizedCrystal
_audit_creation_method	'EQeq! by Chris Wilmer'
_symmetry_space_group_name_H-M	'P1'
_symmetry_Int_Tables_number	1
_symmetry_cell_setting	triclinic
loop_
_symmetry_equiv_pos_as_xyz
  x,y,z
_cell_length_a	19.3455
_cell_length_b	19.3455
_cell_length_c	19.3455
_cell_angle_alpha	107.053
_cell_angle_beta	110.694
_cell_angle_gamma	110.694
loop_
_atom_site_label
_atom_site_type_symbol
_atom_site_fract_x
_atom_site_fract_y
_atom_site_fract_z
_atom_site_charge
Mof_Zn	Zn	0.14928	0.96192	0.44164	1.212
Mof_Zn	Zn	0.85072	0.29236	0.81264	1.212
Mof_Zn	Zn	0.47972	0.44164	0.29236	1.212
Mof_Zn	Zn	0.52028	0.81264	0.96192	1.212
Mof_Zn	Zn	0.85072	0.03808	0.55836	1.212
Mof_Zn	Zn	0.14928	0.70764	0.18736	1.212
Mof_Zn	Zn	0.52028	0.55836	0.70764	1.212
Mof_Zn	Zn	0.47972	0.18736	0.03808	1.212
Mof_Zn	Zn	0.66347	0.77894	0.88453	1.202
Mof_Zn	Zn	0.33653	0.22106	0.11547	1.202
Mof_Zn	Zn	0.10559	0.88453	0.22106	1.202
Mof_Zn	Zn	0.89441	0.11547	0.77894	1.202
Mof_H 	H 	0.6881	0.8973	0.2128	0.037
Mof_H 	H 	0.8457	0.8539	0.1366	0.034
Mof_H 	H 	0.924	0.9606	0.385	0.045
Mof_H 	H 	0.3076	0.6565	0.8577	0.061
Mof_H 	H 	0.1817	0.5347	0.7494	0.037
Mof_H 	H 	0.3119	0.5247	0.2092	0.037
Mof_H 	H 	0.1543	0.2909	0.0082	0.035
Mof_H 	H 	0.076	0.461	0.0366	0.046
Mof_H 	H 	0.6924	0.5501	0.3489	0.061
Mof_H 	H 	0.8183	0.5677	0.353	0.037
Mof_H 	H 	0.3155	0.2128	0.5247	0.037
Mof_H 	H 	0.2827	0.1366	0.2909	0.034
Mof_H 	H 	0.4244	0.385	0.461	0.045
Mof_H 	H 	0.2012	0.8577	0.5501	0.061
Mof_H 	H 	0.2147	0.7494	0.5677	0.037
Mof_H 	H 	0.6845	0.2092	0.8973	0.037
Mof_H 	H 	0.7173	0.0082	0.8539	0.035
Mof_H 	H 	0.5756	0.0366	0.9606	0.046
Mof_H 	H 	0.7988	0.3489	0.6565	0.061
Mof_H 	H 	0.7853	0.353	0.5347	0.037
Mof_H 	H 	0.3119	0.1027	0.7872	0.037
Mof_H 	H 	0.1543	0.1461	0.8634	0.034
Mof_H 	H 	0.076	0.0394	0.615	0.045
Mof_H 	H 	0.6924	0.3435	0.1423	0.061
Mof_H 	H 	0.8183	0.4653	0.2506	0.037
Mof_H 	H 	0.6881	0.4753	0.7908	0.037
Mof_H 	H 	0.8457	0.7091	0.9918	0.035
Mof_H 	H 	0.924	0.539	0.9634	0.046
Mof_H 	H 	0.3076	0.4499	0.6511	0.061
Mof_H 	H 	0.1817	0.4323	0.647	0.037
Mof_H 	H 	0.6845	0.7872	0.4753	0.037
Mof_H 	H 	0.7173	0.8634	0.7091	0.034
Mof_H 	H 	0.5756	0.615	0.539	0.045
Mof_H 	H 	0.7988	0.1423	0.4499	0.061
Mof_H 	H 	0.7853	0.2506	0.4323	0.037
Mof_H 	H 	0.3155	0.7908	0.1027	0.037
Mof_H 	H 	0.2827	0.9918	0.1461	0.035
Mof_H 	H 	0.4244	0.9634	0.0394	0.046
Mof_H 	H 	0.2012	0.6511	0.3435	0.061
Mof_H 	H 	0.2147	0.647	0.4653	0.037
Mof_C 	C 	0.7855	0.96702	0.37972	0.316
Mof_C 	C 	0.6855	0.8334	0.0689	0.383
Mof_C 	C 	0.8042	0.93505	0.31045	-0.095
Mof_C 	C 	0.7404	0.90007	0.22547	0.027
Mof_C 	C 	0.7559	0.86903	0.15933	-0.12
Mof_C 	C 	0.9002	0.90765	0.26505	-0.107
Mof_C 	C 	0.83524	0.87354	0.17962	0.041
Mof_C 	C 	0.8825	0.93806	0.32916	0.031
Mof_C 	C 	0.3848	0.6335	0.8125	0.052
Mof_C 	C 	0.9871	0.91136	0.29006	0.365
Mof_C 	C 	0.3073	0.6182	0.8151	-0.108
Mof_C 	C 	0.2334	0.5445	0.7519	-0.021
Mof_C 	C 	0.2145	0.59422	0.18152	0.317
Mof_C 	C 	0.3145	0.3834	0.1479	0.383
Mof_C 	C 	0.1958	0.50625	0.13085	-0.094
Mof_C 	C 	0.2596	0.48507	0.15967	0.026
Mof_C 	C 	0.2441	0.40343	0.11313	-0.119
Mof_C 	C 	0.0998	0.36485	0.00745	-0.103
Mof_C 	C 	0.16476	0.34438	0.0383	0.039
Mof_C 	C 	0.1175	0.44666	0.05556	0.029
Mof_C 	C 	0.6152	0.4277	0.2487	0.052
Mof_C 	C 	0.0129	0.30296	0.92426	0.362
Mof_C 	C 	0.6927	0.5078	0.3109	-0.108
Mof_C 	C 	0.7666	0.5185	0.3111	-0.021
Mof_C 	C 	0.4127	0.37972	0.59422	0.317
Mof_C 	C 	0.2355	0.0689	0.3834	0.383
Mof_C 	C 	0.3754	0.31045	0.50625	-0.095
Mof_C 	C 	0.3254	0.22547	0.48507	0.027
Mof_C 	C 	0.2903	0.15933	0.40343	-0.12
Mof_C 	C 	0.3574	0.26505	0.36485	-0.108
Mof_C 	C 	0.30608	0.17962	0.34438	0.042
Mof_C 	C 	0.3911	0.32916	0.44666	0.032
Mof_C 	C 	0.179	0.8125	0.4277	0.053
Mof_C 	C 	0.3787	0.29006	0.30296	0.37
Mof_C 	C 	0.1969	0.8151	0.5078	-0.108
Mof_C 	C 	0.2074	0.7519	0.5185	-0.021
Mof_C 	C 	0.5873	0.18152	0.96702	0.319
Mof_C 	C 	0.7645	0.1479	0.8334	0.383
Mof_C 	C 	0.6246	0.13085	0.93505	-0.095
Mof_C 	C 	0.6746	0.15967	0.90007	0.027
Mof_C 	C 	0.7097	0.11313	0.86903	-0.12
Mof_C 	C 	0.6426	0.00745	0.90765	-0.105
Mof_C 	C 	0.69392	0.0383	0.87354	0.041
Mof_C 	C 	0.6089	0.05556	0.93806	0.031
Mof_C 	C 	0.821	0.2487	0.6335	0.053
Mof_C 	C 	0.6213	0.92426	0.91136	0.369
Mof_C 	C 	0.8031	0.3109	0.6182	-0.108
Mof_C 	C 	0.7926	0.3111	0.5445	-0.021
Mof_C 	C 	0.2145	0.03298	0.62028	0.316
Mof_C 	C 	0.3145	0.1666	0.9311	0.383
Mof_C 	C 	0.1958	0.06495	0.68955	-0.095
Mof_C 	C 	0.2596	0.09993	0.77453	0.027
Mof_C 	C 	0.2441	0.13097	0.84067	-0.12
Mof_C 	C 	0.0998	0.09235	0.73495	-0.107
Mof_C 	C 	0.16476	0.12646	0.82038	0.041
Mof_C 	C 	0.1175	0.06194	0.67084	0.031
Mof_C 	C 	0.6152	0.3665	0.1875	0.052
Mof_C 	C 	0.0129	0.08864	0.70994	0.365
Mof_C 	C 	0.6927	0.3818	0.1849	-0.108
Mof_C 	C 	0.7666	0.4555	0.2481	-0.021
Mof_C 	C 	0.7855	0.40578	0.81848	0.317
Mof_C 	C 	0.6855	0.6166	0.8521	0.383
Mof_C 	C 	0.8042	0.49375	0.86915	-0.094
Mof_C 	C 	0.7404	0.51493	0.84033	0.026
Mof_C 	C 	0.7559	0.59657	0.88687	-0.119
Mof_C 	C 	0.9002	0.63515	0.99255	-0.103
Mof_C 	C 	0.83524	0.65562	0.9617	0.039
Mof_C 	C 	0.8825	0.55334	0.94444	0.029
Mof_C 	C 	0.3848	0.5723	0.7513	0.052
Mof_C 	C 	0.9871	0.69704	0.07574	0.362
Mof_C 	C 	0.3073	0.4922	0.6891	-0.108
Mof_C 	C 	0.2334	0.4815	0.6889	-0.021
Mof_C 	C 	0.5873	0.62028	0.40578	0.317
Mof_C 	C 	0.7645	0.9311	0.6166	0.383
Mof_C 	C 	0.6246	0.68955	0.49375	-0.095
Mof_C 	C 	0.6746	0.77453	0.51493	0.027
Mof_C 	C 	0.7097	0.84067	0.59657	-0.12
Mof_C 	C 	0.6426	0.73495	0.63515	-0.108
Mof_C 	C 	0.69392	0.82038	0.65562	0.042
Mof_C 	C 	0.6089	0.67084	0.55334	0.032
Mof_C 	C 	0.821	0.1875	0.5723	0.053
Mof_C 	C 	0.6213	0.70994	0.69704	0.37
Mof_C 	C 	0.8031	0.1849	0.4922	-0.108
Mof_C 	C 	0.7926	0.2481	0.4815	-0.021
Mof_C 	C 	0.4127	0.81848	0.03298	0.319
Mof_C 	C 	0.2355	0.8521	0.1666	0.383
Mof_C 	C 	0.3754	0.86915	0.06495	-0.095
Mof_C 	C 	0.3254	0.84033	0.09993	0.027
Mof_C 	C 	0.2903	0.88687	0.13097	-0.12
Mof_C 	C 	0.3574	0.99255	0.09235	-0.105
Mof_C 	C 	0.30608	0.9617	0.12646	0.041
Mof_C 	C 	0.3911	0.94444	0.06194	0.031
Mof_C 	C 	0.179	0.7513	0.3665	0.053
Mof_C 	C 	0.3787	0.07574	0.08864	0.369
Mof_C 	C 	0.1969	0.6891	0.3818	-0.108
Mof_C 	C 	0.2074	0.6889	0.4555	-0.021
Mof_N 	N 	0.4673	0.70171	0.86135	-0.236
Mof_N 	N 	0.5327	0.39405	0.23441	-0.236
Mof_N 	N 	0.15964	0.86135	0.39405	-0.236
Mof_N 	N 	0.84036	0.23441	0.70171	-0.236
Mof_N 	N 	0.5327	0.29829	0.13865	-0.236
Mof_N 	N 	0.4673	0.60595	0.76559	-0.236
Mof_N 	N 	0.84036	0.13865	0.60595	-0.236
Mof_N 	N 	0.15964	0.76559	0.29829	-0.236
Mof_N 	N 	0.5171	0.6841	0.833	-0.17
Mof_N 	N 	0.4829	0.3159	0.167	-0.17
Mof_N 	N 	0.1489	0.833	0.3159	-0.17
Mof_N 	N 	0.8511	0.167	0.6841	-0.17
Mof_O 	O 	0.0255	0.9175	0.3648	-0.455
Mof_O 	O 	0.6135	0.82615	0.05925	-0.49
Mof_O 	O 	0.70075	0.81216	0.01107	-0.473
Mof_O 	O 	0.00493	0.88889	0.23578	-0.46
Mof_O 	O 	0.85284	0.01014	0.45484	-0.448
Mof_O 	O 	0.7105	0.94965	0.36295	-0.305
Mof_O 	O 	0.9745	0.3393	0.892	-0.454
Mof_O 	O 	0.3865	0.44575	0.21265	-0.49
Mof_O 	O 	0.29925	0.31032	0.11141	-0.473
Mof_O 	O 	0.99507	0.23085	0.88396	-0.458
Mof_O 	O 	0.14716	0.602	0.1573	-0.449
Mof_O 	O 	0.2895	0.65245	0.23915	-0.305
Mof_O 	O 	0.4473	0.3648	0.3393	-0.458
Mof_O 	O 	0.2331	0.05925	0.44575	-0.491
Mof_O 	O 	0.19891	0.01107	0.31032	-0.474
Mof_O 	O 	0.34689	0.23578	0.23085	-0.463
Mof_O 	O 	0.4447	0.45484	0.602	-0.449
Mof_O 	O 	0.4133	0.36295	0.65245	-0.305
Mof_O 	O 	0.5527	0.892	0.9175	-0.458
Mof_O 	O 	0.7669	0.21265	0.82615	-0.49
Mof_O 	O 	0.80109	0.11141	0.81216	-0.473
Mof_O 	O 	0.65311	0.88396	0.88889	-0.462
Mof_O 	O 	0.5553	0.1573	0.01014	-0.45
Mof_O 	O 	0.5867	0.23915	0.94965	-0.305
Mof_O 	O 	0.9745	0.0825	0.6352	-0.455
Mof_O 	O 	0.3865	0.17385	0.94075	-0.49
Mof_O 	O 	0.29925	0.18784	0.98893	-0.473
Mof_O 	O 	0.99507	0.11111	0.76422	-0.46
Mof_O 	O 	0.14716	0.98986	0.54516	-0.448
Mof_O 	O 	0.2895	0.05035	0.63705	-0.305
Mof_O 	O 	0.0255	0.6607	0.108	-0.454
Mof_O 	O 	0.6135	0.55425	0.78735	-0.49
Mof_O 	O 	0.70075	0.68968	0.88859	-0.473
Mof_O 	O 	0.00493	0.76915	0.11604	-0.458
Mof_O 	O 	0.85284	0.398	0.8427	-0.449
Mof_O 	O 	0.7105	0.34755	0.76085	-0.305
Mof_O 	O 	0.5527	0.6352	0.6607	-0.458
Mof_O 	O 	0.7669	0.94075	0.55425	-0.491
Mof_O 	O 	0.80109	0.98893	0.68968	-0.474
Mof_O 	O 	0.65311	0.76422	0.76915	-0.463
Mof_O 	O 	0.5553	0.54516	0.398	-0.449
Mof_O 	O 	0.5867	0.63705	0.34755	-0.305
Mof_O 	O 	0.4473	0.108	0.0825	-0.458
Mof_O 	O 	0.2331	0.78735	0.17385	-0.49
Mof_O 	O 	0.19891	0.88859	0.18784	-0.473
Mof_O 	O 	0.34689	0.11604	0.11111	-0.462
Mof_O 	O 	0.4447	0.8427	0.98986	-0.45
Mof_O 	O 	0.4133	0.76085	0.05035	-0.305
Mof_H 	H 	0.5384	0.3468	0.9714	0.174
Mof_H 	H 	0.4722	0.3763	0.9689	0.159
Mof_H 	H 	0.5682	0.4425	0.0047	0.161
Mof_H 	H 	0.4071	0.2802	0.7573	0.191
Mof_H 	H 	0.3774	0.281	0.823	0.187
Mof_H 	H 	0.44	0.2478	0.8202	0.191
Mof_H 	H 	0.4616	0.433	0.8084	0.174
Mof_H 	H 	0.5278	0.4967	0.9041	0.16
Mof_H 	H 	0.4318	0.4365	0.8743	0.162
Mof_H 	H 	0.5929	0.3502	0.8731	0.192
Mof_H 	H 	0.6226	0.4456	0.9036	0.187
Mof_H 	H 	0.56	0.3802	0.8078	0.191
Mof_C 	C 	0.5218	0.3863	0.9633	-0.455
Mof_C 	C 	0.4243	0.2883	0.8134	-0.495
Mof_C 	C 	0.4782	0.4415	0.8645	-0.457
Mof_C 	C 	0.5757	0.3891	0.864	-0.495
Mof_N 	N 	0.5	0.3756	0.8756	0.092
Mof_H 	H 	0.6246	0.9714	0.433	0.174
Mof_H 	H 	0.5926	0.9689	0.4967	0.159
Mof_H 	H 	0.5622	0.0047	0.4365	0.162
Mof_H 	H 	0.4771	0.7573	0.3502	0.191
Mof_H 	H 	0.542	0.823	0.4456	0.187
Mof_H 	H 	0.5724	0.8202	0.3802	0.191
Mof_H 	H 	0.3754	0.8084	0.3468	0.174
Mof_H 	H 	0.4074	0.9041	0.3763	0.16
Mof_H 	H 	0.4378	0.8743	0.4425	0.162
Mof_H 	H 	0.5229	0.8731	0.2802	0.191
Mof_H 	H 	0.458	0.9036	0.281	0.187
Mof_H 	H 	0.4276	0.8078	0.2478	0.191
Mof_C 	C 	0.577	0.9633	0.4415	-0.456
Mof_C 	C 	0.5251	0.8134	0.3891	-0.495
Mof_C 	C 	0.423	0.8645	0.3863	-0.457
Mof_C 	C 	0.4749	0.864	0.2883	-0.495
Mof_N 	N 	0.5	0.8756	0.3756	0.092
Mof_H 	H 	0.4616	0.6532	0.0286	0.174
Mof_H 	H 	0.5278	0.6237	0.0311	0.159
Mof_H 	H 	0.4318	0.5575	0.9953	0.161
Mof_H 	H 	0.5929	0.7198	0.2427	0.191
Mof_H 	H 	0.6226	0.719	0.177	0.187
Mof_H 	H 	0.56	0.7522	0.1798	0.191
Mof_H 	H 	0.5384	0.567	0.1916	0.174
Mof_H 	H 	0.4722	0.5033	0.0959	0.16
Mof_H 	H 	0.5682	0.5635	0.1257	0.162
Mof_H 	H 	0.4071	0.6498	0.1269	0.192
Mof_H 	H 	0.3774	0.5544	0.0964	0.187
Mof_H 	H 	0.44	0.6198	0.1922	0.191
Mof_C 	C 	0.4782	0.6137	0.0367	-0.455
Mof_C 	C 	0.5757	0.7117	0.1866	-0.495
Mof_C 	C 	0.5218	0.5585	0.1355	-0.457
Mof_C 	C 	0.4243	0.6109	0.136	-0.495
Mof_N 	N 	0.5	0.6244	0.1244	0.092
Mof_H 	H 	0.3754	0.0286	0.567	0.174
Mof_H 	H 	0.4074	0.0311	0.5033	0.159
Mof_H 	H 	0.4378	0.9953	0.5635	0.162
Mof_H 	H 	0.5229	0.2427	0.6498	0.191
Mof_H 	H 	0.458	0.177	0.5544	0.187
Mof_H 	H 	0.4276	0.1798	0.6198	0.191
Mof_H 	H 	0.6246	0.1916	0.6532	0.174
Mof_H 	H 	0.5926	0.0959	0.6237	0.16
Mof_H 	H 	0.5622	0.1257	0.5575	0.162
Mof_H 	H 	0.4771	0.1269	0.7198	0.191
Mof_H 	H 	0.542	0.0964	0.719	0.187
Mof_H 	H 	0.5724	0.1922	0.7522	0.191
Mof_C 	C 	0.423	0.0367	0.5585	-0.456
Mof_C 	C 	0.4749	0.1866	0.6109	-0.495
Mof_C 	C 	0.577	0.1355	0.6137	-0.457
Mof_C 	C 	0.5251	0.136	0.7117	-0.495
Mof_N 	N 	0.5	0.1244	0.6244	0.092
_end
