data_functionalizedCrystal
_audit_creation_method	'EQeq! by Chris Wilmer'
_symmetry_space_group_name_H-M	'P1'
_symmetry_Int_Tables_number	1
_symmetry_cell_setting	triclinic
loop_
_symmetry_equiv_pos_as_xyz
  x,y,z
_cell_length_a	10.1792
_cell_length_b	6.7279
_cell_length_c	12.8158
_cell_angle_alpha	90
_cell_angle_beta	111.698
_cell_angle_gamma	90
loop_
_atom_site_label
_atom_site_type_symbol
_atom_site_fract_x
_atom_site_fract_y
_atom_site_fract_z
_atom_site_charge
Mof_N 	N 	0.8751	0.4142	0.74262	-0.174
Mof_N 	N 	0.9349	0.3459	0.84777	-0.135
Mof_N 	N 	0.1249	0.9142	0.25738	-0.169
Mof_N 	N 	0.0651	0.8459	0.15223	-0.209
Mof_N 	N 	0.1249	0.5858	0.25738	-0.199
Mof_N 	N 	0.0651	0.6541	0.15223	-0.231
Mof_N 	N 	0.8751	0.0858	0.74262	-0.202
Mof_N 	N 	0.9349	0.1541	0.84777	-0.147
Mof_Co	Co	0.1312	0.25	0.266	1.124
Mof_C 	C 	0.3937	0.25	0.3416	0.319
Mof_C 	C 	0.5521	0.25	0.3915	-0.115
Mof_C 	C 	0.6302	0.25	0.3228	0.045
Mof_H 	H 	0.5842	0.25	0.2452	0.007
Mof_C 	C 	0.7773	0.25	0.37	-0.113
Mof_C 	C 	0.8457	0.25	0.4864	0.022
Mof_H 	H 	0.9439	0.25	0.5181	0.059
Mof_C 	C 	0.7676	0.25	0.5554	-0.068
Mof_C 	C 	0.6207	0.25	0.508	0.019
Mof_H 	H 	0.5683	0.25	0.554	0.033
Mof_C 	C 	0.863	0.25	0.2953	0.37
Mof_C 	C 	0.8396	0.25	0.6793	0.145
Mof_O 	O 	0.3306	0.25	0.2363	-0.45
Mof_O 	O 	0.3246	0.25	0.4046	-0.418
Mof_O 	O 	0.8008	0.25	0.1924	-0.4
Mof_O 	O 	0.994	0.25	0.344	-0.409
Mof_O 	O 	0.0052	0.25	0.09537	-1.217
Mof_H 	H 	0.939	0.25	0.108	0.54
Mof_Co	Co	0.8688	0.75	0.734	1.191
Mof_C 	C 	0.6063	0.75	0.6584	0.299
Mof_C 	C 	0.4479	0.75	0.6085	-0.056
Mof_C 	C 	0.3698	0.75	0.6772	0.017
Mof_H 	H 	0.4158	0.75	0.7548	0.072
Mof_C 	C 	0.2227	0.75	0.63	-0.082
Mof_C 	C 	0.1543	0.75	0.5136	0.004
Mof_H 	H 	0.0561	0.75	0.4819	0.034
Mof_C 	C 	0.2324	0.75	0.4446	-0.045
Mof_C 	C 	0.3793	0.75	0.492	0.004
Mof_H 	H 	0.4317	0.75	0.446	0.061
Mof_C 	C 	0.137	0.75	0.7047	0.358
Mof_C 	C 	0.1604	0.75	0.3207	0.125
Mof_O 	O 	0.6694	0.75	0.7637	-0.353
Mof_O 	O 	0.6754	0.75	0.5954	-0.352
Mof_O 	O 	0.1992	0.75	0.8076	-0.313
Mof_O 	O 	0.006	0.75	0.656	-0.476
Mof_O 	O 	0.9948	0.75	0.90463	-0.677
Mof_H 	H 	0.061	0.75	0.892	0.25
Mof_Co	Co	-0	0.5	-0	0.976
Mof_Co	Co	-0	0	-0	0.936
_end
