data_functionalizedCrystal
_audit_creation_method	'EQeq! by Chris Wilmer'
_symmetry_space_group_name_H-M	'P1'
_symmetry_Int_Tables_number	1
_symmetry_cell_setting	triclinic
loop_
_symmetry_equiv_pos_as_xyz
  x,y,z
_cell_length_a	6.6293
_cell_length_b	16.7515
_cell_length_c	12.8019
_cell_angle_alpha	90
_cell_angle_beta	90
_cell_angle_gamma	90
loop_
_atom_site_label
_atom_site_type_symbol
_atom_site_fract_x
_atom_site_fract_y
_atom_site_fract_z
_atom_site_charge
Mof_O 	O 	0.16606	0.1678	0.8438	-1.449
Mof_C 	C 	0.8079	0.03456	0.9668	0.033
Mof_O 	O 	0.66606	0.6678	0.3438	-1.441
Mof_C 	C 	0.3079	0.53456	0.4668	0.068
Mof_O 	O 	0.83394	0.3322	0.8438	-1.464
Mof_C 	C 	0.1921	0.46544	0.9668	0.058
Mof_O 	O 	0.33394	0.8322	0.3438	-1.44
Mof_C 	C 	0.6921	0.96544	0.4668	0.052
Mof_O 	O 	0.83394	0.6678	0.1562	-1.464
Mof_C 	C 	0.1921	0.53456	0.0332	0.058
Mof_O 	O 	0.33394	0.1678	0.6562	-1.44
Mof_C 	C 	0.6921	0.03456	0.5332	0.052
Mof_O 	O 	0.16606	0.8322	0.1562	-1.448
Mof_C 	C 	0.8079	0.96544	0.0332	0.034
Mof_O 	O 	0.66606	0.3322	0.6562	-1.441
Mof_C 	C 	0.3079	0.46544	0.5332	0.068
Mof_O 	O 	0.83394	0.8322	0.1562	-1.464
Mof_C 	C 	0.1921	0.96544	0.0332	0.058
Mof_O 	O 	0.33394	0.3322	0.6562	-1.44
Mof_C 	C 	0.6921	0.46544	0.5332	0.052
Mof_O 	O 	0.16606	0.6678	0.1562	-1.448
Mof_C 	C 	0.8079	0.53456	0.0332	0.034
Mof_O 	O 	0.66606	0.1678	0.6562	-1.441
Mof_C 	C 	0.3079	0.03456	0.5332	0.067
Mof_O 	O 	0.16606	0.3322	0.8438	-1.448
Mof_C 	C 	0.8079	0.46544	0.9668	0.034
Mof_O 	O 	0.66606	0.8322	0.3438	-1.441
Mof_C 	C 	0.3079	0.96544	0.4668	0.067
Mof_O 	O 	0.83394	0.1678	0.8438	-1.464
Mof_C 	C 	0.1921	0.03456	0.9668	0.058
Mof_O 	O 	0.33394	0.6678	0.3438	-1.44
Mof_C 	C 	0.6921	0.53456	0.4668	0.052
Mof_Al	Al	0.25	0.25	0.75	5.978
Mof_Al	Al	0.75	0.25	0.75	5.913
Mof_Al	Al	0.75	0.75	0.25	5.913
Mof_Al	Al	0.25	0.75	0.25	5.978
Mof_O 	O 	4.95612e-33	0.25	0.6845	-2.076
Mof_O 	O 	0.5	0.75	0.1845	-2.095
Mof_O 	O 	2.44799e-32	0.75	0.3155	-2.076
Mof_O 	O 	0.5	0.25	0.8155	-2.095
Mof_C 	C 	6.84734e-33	0.0626	0.9457	-0.234
Mof_C 	C 	6.30068e-33	0.1386	0.8702	1.127
Mof_C 	C 	0.5	0.5626	0.4457	-0.263
Mof_C 	C 	0.5	0.6386	0.3702	1.092
Mof_C 	C 	-1.0909e-32	0.4374	0.9457	-0.234
Mof_C 	C 	6.30068e-33	0.3614	0.8702	1.127
Mof_C 	C 	0.5	0.9374	0.4457	-0.263
Mof_C 	C 	0.5	0.8614	0.3702	1.092
Mof_C 	C 	8.16158e-33	0.5626	0.0543	-0.234
Mof_C 	C 	-7.93838e-33	0.6386	0.1298	1.127
Mof_C 	C 	0.5	0.0626	0.5543	-0.263
Mof_C 	C 	0.5	0.1386	0.6298	1.092
Mof_C 	C 	-9.59481e-33	0.9374	0.0543	-0.234
Mof_C 	C 	9.81801e-33	0.8614	0.1298	1.127
Mof_C 	C 	0.5	0.4374	0.5543	-0.263
Mof_C 	C 	0.5	0.3614	0.6298	1.092
_end
