data_functionalizedCrystal
_audit_creation_method	'EQeq! by Chris Wilmer'
_symmetry_space_group_name_H-M	'P1'
_symmetry_Int_Tables_number	1
_symmetry_cell_setting	triclinic
loop_
_symmetry_equiv_pos_as_xyz
  x,y,z
_cell_length_a	23.7886
_cell_length_b	33.5635
_cell_length_c	20.5333
_cell_angle_alpha	90
_cell_angle_beta	92.438
_cell_angle_gamma	90
loop_
_atom_site_label
_atom_site_type_symbol
_atom_site_fract_x
_atom_site_fract_y
_atom_site_fract_z
_atom_site_charge
Mof_Fe	Fe	0.82484	0.7657	0.30873	0.876
Mof_Fe	Fe	0.91128	0.78225	0.07427	0.91
Mof_Fe	Fe	0.83264	0.66411	0.28773	0.972
Mof_Fe	Fe	0.91172	0.68008	0.04727	0.859
Mof_Fe	Fe	0.81221	0.72399	0.15001	1.019
Mof_Fe	Fe	0.92371	0.72194	0.20728	0.841
Mof_K 	K 	0.84001	0.75515	0.9116	3.204
Mof_K 	K 	0.94577	0.72116	0.40267	3.45
Mof_K 	K 	0.84162	0.08808	0.0652	2.043
Mof_K 	K 	0.8155	0.7677	0.5246	0.285
Mof_K 	K 	0.8119	0.7444	0.4945	0.771
Mof_Li	Li	0.7025	0.0418	0.0049	3.197
Mof_Li	Li	0.7863	0.9845	0.0484	2.495
Mof_O 	O 	0.7499	0.7672	0.3555	-0.529
Mof_O 	O 	0.681	0.8035	0.3939	-0.514
Mof_O 	O 	0.8598	0.7877	0.3943	-0.738
Mof_O 	O 	0.8951	0.8393	0.4498	-0.514
Mof_O 	O 	0.7085	0.9951	0.0671	-1.487
Mof_O 	O 	0.6319	0.993	0.1246	-0.469
Mof_O 	O 	0.8507	0.0037	0.1024	-1.005
Mof_O 	O 	0.8896	0.0147	0.1997	-0.422
Mof_O 	O 	0.9502	0.8095	0.9969	-0.513
Mof_O 	O 	0.962	0.8654	0.9404	-0.422
Mof_O 	O 	0.9834	0.7875	0.1295	-0.682
Mof_O 	O 	0.0395	0.8261	0.193	-0.35
Mof_O 	O 	0.811	0.6365	0.3736	-0.558
Mof_O 	O 	0.7708	0.5835	0.4167	-1.053
Mof_O 	O 	0.9153	0.6548	0.3136	-0.676
Mof_O 	O 	0.9863	0.6121	0.3269	-0.359
Mof_O 	O 	0.6558	0.4567	0.0951	-0.475
Mof_O 	O 	0.7144	0.4662	0.0156	-1.443
Mof_O 	O 	0.8129	0.4107	0.0563	-0.919
Mof_O 	O 	0.8739	0.3922	0.1336	-0.34
Mof_O 	O 	0.8835	0.6786	0.9518	-0.676
Mof_O 	O 	0.8509	0.6433	0.8659	-0.41
Mof_O 	O 	0.9865	0.659	0.0159	-0.627
Mof_O 	O 	0.0469	0.6082	0.0157	-0.426
Mof_O 	O 	0.747	0.8097	0.023	-0.521
Mof_O 	O 	0.8373	0.7905	0.031	-0.755
Mof_O 	O 	0.771	0.7606	0.0892	-0.798
Mof_O 	O 	0.7539	0.6599	0.255	-0.529
Mof_O 	O 	0.7423	0.6911	0.1581	-0.715
Mof_O 	O 	0.6811	0.6472	0.1889	-0.502
Mof_O 	O 	0.8847	0.75308	0.1434	-0.571
Mof_O 	O 	0.857	0.6926	0.2166	-0.573
Mof_O 	O 	0.7879	0.7586	0.225	-0.47
Mof_O 	O 	0.8361	0.689	0.0754	-0.441
Mof_O 	O 	0.9487	0.6835	0.1356	-0.605
Mof_O 	O 	0.9357	0.7345	0.0266	-0.719
Mof_O 	O 	0.8278	0.7114	0.3456	-0.691
Mof_O 	O 	0.9013	0.7587	0.2787	-0.597
Mof_O 	O 	0.9387	0.7712	0.52	-0.614
Mof_N 	N 	0.8031	0.8327	0.3046	-0.113
Mof_N 	N 	0.7706	0.9534	0.1571	-0.157
Mof_N 	N 	0.9101	0.8484	0.0993	-0.117
Mof_N 	N 	0.8403	0.5976	0.266	-0.112
Mof_N 	N 	0.8005	0.4865	0.1038	-0.254
Mof_N 	N 	0.894	0.6127	0.0321	-0.107
Mof_C 	C 	0.8613	0.8431	0.2046	-0.245
Mof_H 	H 	0.8921	0.8552	0.2317	0.104
Mof_H 	H 	0.8682	0.814	0.2023	0.099
Mof_C 	C 	0.8045	0.8509	0.2358	0.117
Mof_H 	H 	0.7749	0.837	0.2082	-0.028
Mof_C 	C 	0.7899	0.8953	0.2349	-0.224
Mof_H 	H 	0.7518	0.8993	0.2514	0.084
Mof_H 	H 	0.8171	0.91	0.2637	0.083
Mof_C 	C 	0.7919	0.9113	0.1657	0.072
Mof_H 	H 	0.7658	0.8942	0.1385	-0.03
Mof_C 	C 	0.8489	0.9056	0.1396	-0.177
Mof_H 	H 	0.8777	0.9188	0.1685	0.06
Mof_H 	H 	0.8504	0.9176	0.0956	-0.043
Mof_C 	C 	0.8604	0.8608	0.1363	0.105
Mof_H 	H 	0.8269	0.8489	0.1125	-0.015
Mof_C 	C 	0.7452	0.8365	0.3276	-0.256
Mof_H 	H 	0.7195	0.8424	0.2897	0.08
Mof_H 	H 	0.744	0.8594	0.3578	0.077
Mof_C 	C 	0.7237	0.8002	0.3618	0.354
Mof_C 	C 	0.8443	0.8528	0.3513	-0.289
Mof_H 	H 	0.8254	0.8753	0.3723	0.055
Mof_H 	H 	0.8757	0.8637	0.3266	0.106
Mof_C 	C 	0.868	0.8251	0.4032	0.452
Mof_C 	C 	0.7092	0.9561	0.1634	-0.529
Mof_H 	H 	0.6923	0.9293	0.1575	0.167
Mof_H 	H 	0.7012	0.9655	0.2078	0.164
Mof_C 	C 	0.683	0.9836	0.1151	0.743
Mof_C 	C 	0.8024	0.9819	0.1949	-0.423
Mof_H 	H 	0.8171	0.9686	0.2351	0.142
Mof_H 	H 	0.7763	0.0031	0.2083	0.084
Mof_C 	C 	0.8504	0.0012	0.1635	0.471
Mof_C 	C 	0.9091	0.8686	0.0363	-0.208
Mof_H 	H 	0.9246	0.8958	0.042	0.039
Mof_H 	H 	0.8697	0.871	0.0192	0.021
Mof_C 	C 	0.9425	0.8465	0.9884	0.336
Mof_C 	C 	0.9653	0.8575	0.1356	-0.284
Mof_H 	H 	0.9885	0.8743	0.1076	0.085
Mof_H 	H 	0.9575	0.873	0.1752	0.103
Mof_C 	C 	0.998	0.8212	0.1549	0.444
Mof_C 	C 	0.8719	0.6036	0.1515	-0.243
Mof_H 	H 	0.9099	0.5932	0.1633	0.103
Mof_H 	H 	0.8724	0.6328	0.1572	0.099
Mof_C 	C 	0.8282	0.5847	0.1963	0.114
Mof_H 	H 	0.7905	0.5957	0.1825	-0.016
Mof_C 	C 	0.8253	0.54	0.1877	-0.232
Mof_H 	H 	0.7965	0.5289	0.2161	0.073
Mof_H 	H 	0.862	0.5281	0.2009	0.087
Mof_C 	C 	0.8101	0.5292	0.1157	0.103
Mof_H 	H 	0.7736	0.5428	0.1043	-0.094
Mof_C 	C 	0.853	0.5466	0.071	-0.201
Mof_H 	H 	0.8425	0.5399	0.0252	-0.037
Mof_H 	H 	0.8905	0.535	0.0818	0.037
Mof_C 	C 	0.8556	0.5929	0.0792	0.103
Mof_H 	H 	0.8168	0.6034	0.0695	-0.032
Mof_C 	C 	0.7971	0.5795	0.3062	-0.322
Mof_H 	H 	0.8063	0.5511	0.3139	0.067
Mof_H 	H 	0.76	0.5808	0.2824	0.056
Mof_C 	C 	0.7935	0.6005	0.3705	0.541
Mof_C 	C 	0.8982	0.5849	0.2914	-0.276
Mof_H 	H 	0.9166	0.5695	0.2571	0.106
Mof_H 	H 	0.8942	0.5671	0.3294	0.078
Mof_C 	C 	0.9359	0.6202	0.3116	0.438
Mof_C 	C 	0.7471	0.4733	0.1274	-0.48
Mof_H 	H 	0.7324	0.4942	0.1561	0.133
Mof_H 	H 	0.7536	0.4491	0.1542	0.143
Mof_C 	C 	0.7038	0.4644	0.0754	0.575
Mof_C 	C 	0.847	0.4609	0.1321	-0.441
Mof_H 	H 	0.8449	0.4601	0.1801	0.152
Mof_H 	H 	0.8838	0.4725	0.1215	0.089
Mof_C 	C 	0.8423	0.4178	0.1043	0.47
Mof_C 	C 	0.8679	0.6092	0.9653	-0.245
Mof_H 	H 	0.8876	0.5879	0.9419	0.08
Mof_H 	H 	0.8283	0.6007	0.9689	0.05
Mof_C 	C 	0.8687	0.646	0.9258	0.417
Mof_C 	C 	0.9503	0.5935	0.0351	-0.258
Mof_H 	H 	0.9501	0.5712	0.0035	0.08
Mof_H 	H 	0.9573	0.5821	0.0792	0.093
Mof_C 	C 	0.9988	0.6219	0.0203	0.406
Mof_C 	C 	0.7845	0.7871	0.0478	0.562
Mof_C 	C 	0.7265	0.6671	0.2009	0.598
Mof_Fe	Fe	0.32484	0.2657	0.30873	0.875
Mof_Fe	Fe	0.41128	0.28225	0.07427	0.908
Mof_Fe	Fe	0.33264	0.16411	0.28773	0.971
Mof_Fe	Fe	0.41172	0.18008	0.04727	0.857
Mof_Fe	Fe	0.31221	0.22399	0.15001	1.018
Mof_Fe	Fe	0.42371	0.22194	0.20728	0.846
Mof_K 	K 	0.34001	0.25515	0.9116	3.217
Mof_K 	K 	0.44577	0.22116	0.40267	3.483
Mof_K 	K 	0.34162	0.58808	0.0652	2.053
Mof_K 	K 	0.3155	0.2677	0.5246	0.279
Mof_K 	K 	0.3119	0.2444	0.4945	0.773
Mof_Li	Li	0.2025	0.5418	0.0049	3.2
Mof_Li	Li	0.2863	0.4845	0.0484	2.483
Mof_O 	O 	0.2499	0.2672	0.3555	-0.53
Mof_O 	O 	0.181	0.3035	0.3939	-0.514
Mof_O 	O 	0.3598	0.2877	0.3943	-0.74
Mof_O 	O 	0.3951	0.3393	0.4498	-0.513
Mof_O 	O 	0.2085	0.4951	0.0671	-1.488
Mof_O 	O 	0.1319	0.493	0.1246	-0.469
Mof_O 	O 	0.3507	0.5037	0.1024	-1.002
Mof_O 	O 	0.3896	0.5147	0.1997	-0.42
Mof_O 	O 	0.4502	0.3095	0.9969	-0.51
Mof_O 	O 	0.462	0.3654	0.9404	-0.418
Mof_O 	O 	0.4834	0.2875	0.1295	-0.68
Mof_O 	O 	0.5395	0.3261	0.193	-0.359
Mof_O 	O 	0.311	0.1365	0.3736	-0.558
Mof_O 	O 	0.2708	0.0835	0.4167	-1.054
Mof_O 	O 	0.4153	0.1548	0.3136	-0.677
Mof_O 	O 	0.4863	0.1121	0.3269	-0.353
Mof_O 	O 	0.1558	0.9567	0.0951	-0.475
Mof_O 	O 	0.2144	0.9662	0.0156	-1.445
Mof_O 	O 	0.3129	0.9107	0.0563	-0.919
Mof_O 	O 	0.3739	0.8922	0.1336	-0.338
Mof_O 	O 	0.3835	0.1786	0.9518	-0.674
Mof_O 	O 	0.3509	0.1433	0.8659	-0.41
Mof_O 	O 	0.4865	0.159	0.0159	-0.626
Mof_O 	O 	0.5469	0.1082	0.0157	-0.434
Mof_O 	O 	0.247	0.3097	0.023	-0.522
Mof_O 	O 	0.3373	0.2905	0.031	-0.758
Mof_O 	O 	0.271	0.2606	0.0892	-0.798
Mof_O 	O 	0.2539	0.1599	0.255	-0.529
Mof_O 	O 	0.2423	0.1911	0.1581	-0.715
Mof_O 	O 	0.1811	0.1472	0.1889	-0.501
Mof_O 	O 	0.3847	0.25308	0.1434	-0.571
Mof_O 	O 	0.357	0.1926	0.2166	-0.573
Mof_O 	O 	0.2879	0.2586	0.225	-0.47
Mof_O 	O 	0.3361	0.189	0.0754	-0.442
Mof_O 	O 	0.4487	0.1835	0.1356	-0.601
Mof_O 	O 	0.4357	0.2345	0.0266	-0.718
Mof_O 	O 	0.3278	0.2114	0.3456	-0.693
Mof_O 	O 	0.4013	0.2587	0.2787	-0.598
Mof_O 	O 	0.4387	0.2712	0.52	-0.612
Mof_N 	N 	0.3031	0.3327	0.3046	-0.113
Mof_N 	N 	0.2706	0.4534	0.1571	-0.156
Mof_N 	N 	0.4101	0.3484	0.0993	-0.116
Mof_N 	N 	0.3403	0.0976	0.266	-0.112
Mof_N 	N 	0.3005	0.9865	0.1038	-0.253
Mof_N 	N 	0.394	0.1127	0.0321	-0.108
Mof_C 	C 	0.3613	0.3431	0.2046	-0.245
Mof_H 	H 	0.3921	0.3552	0.2317	0.104
Mof_H 	H 	0.3682	0.314	0.2023	0.099
Mof_C 	C 	0.3045	0.3509	0.2358	0.117
Mof_H 	H 	0.2749	0.337	0.2082	-0.028
Mof_C 	C 	0.2899	0.3953	0.2349	-0.225
Mof_H 	H 	0.2518	0.3993	0.2514	0.084
Mof_H 	H 	0.3171	0.41	0.2637	0.083
Mof_C 	C 	0.2919	0.4113	0.1657	0.072
Mof_H 	H 	0.2658	0.3942	0.1385	-0.03
Mof_C 	C 	0.3489	0.4056	0.1396	-0.178
Mof_H 	H 	0.3777	0.4188	0.1685	0.06
Mof_H 	H 	0.3504	0.4176	0.0956	-0.043
Mof_C 	C 	0.3604	0.3608	0.1363	0.105
Mof_H 	H 	0.3269	0.3489	0.1125	-0.015
Mof_C 	C 	0.2452	0.3365	0.3276	-0.256
Mof_H 	H 	0.2195	0.3424	0.2897	0.08
Mof_H 	H 	0.244	0.3594	0.3578	0.077
Mof_C 	C 	0.2237	0.3002	0.3618	0.354
Mof_C 	C 	0.3443	0.3528	0.3513	-0.29
Mof_H 	H 	0.3254	0.3753	0.3723	0.055
Mof_H 	H 	0.3757	0.3637	0.3266	0.106
Mof_C 	C 	0.368	0.3251	0.4032	0.453
Mof_C 	C 	0.2092	0.4561	0.1634	-0.529
Mof_H 	H 	0.1923	0.4293	0.1575	0.167
Mof_H 	H 	0.2012	0.4655	0.2078	0.164
Mof_C 	C 	0.183	0.4836	0.1151	0.742
Mof_C 	C 	0.3024	0.4819	0.1949	-0.426
Mof_H 	H 	0.3171	0.4686	0.2351	0.143
Mof_H 	H 	0.2763	0.5031	0.2083	0.085
Mof_C 	C 	0.3504	0.5012	0.1635	0.472
Mof_C 	C 	0.4091	0.3686	0.0363	-0.213
Mof_H 	H 	0.4246	0.3958	0.042	0.041
Mof_H 	H 	0.3697	0.371	0.0192	0.022
Mof_C 	C 	0.4425	0.3465	0.9884	0.34
Mof_C 	C 	0.4653	0.3575	0.1356	-0.291
Mof_H 	H 	0.4885	0.3743	0.1076	0.089
Mof_H 	H 	0.4575	0.373	0.1752	0.107
Mof_C 	C 	0.498	0.3212	0.1549	0.457
Mof_C 	C 	0.3719	0.1036	0.1515	-0.244
Mof_H 	H 	0.4099	0.0932	0.1633	0.104
Mof_H 	H 	0.3724	0.1328	0.1572	0.099
Mof_C 	C 	0.3282	0.0847	0.1963	0.114
Mof_H 	H 	0.2905	0.0957	0.1825	-0.016
Mof_C 	C 	0.3253	0.04	0.1877	-0.232
Mof_H 	H 	0.2965	0.0289	0.2161	0.072
Mof_H 	H 	0.362	0.0281	0.2009	0.087
Mof_C 	C 	0.3101	0.0292	0.1157	0.102
Mof_H 	H 	0.2736	0.0428	0.1043	-0.095
Mof_C 	C 	0.353	0.0466	0.071	-0.201
Mof_H 	H 	0.3425	0.0399	0.0252	-0.039
Mof_H 	H 	0.3905	0.035	0.0818	0.037
Mof_C 	C 	0.3556	0.0929	0.0792	0.103
Mof_H 	H 	0.3168	0.1034	0.0695	-0.033
Mof_C 	C 	0.2971	0.0795	0.3062	-0.322
Mof_H 	H 	0.3063	0.0511	0.3139	0.067
Mof_H 	H 	0.26	0.0808	0.2824	0.056
Mof_C 	C 	0.2935	0.1005	0.3705	0.541
Mof_C 	C 	0.3982	0.0849	0.2914	-0.276
Mof_H 	H 	0.4166	0.0695	0.2571	0.107
Mof_H 	H 	0.3942	0.0671	0.3294	0.078
Mof_C 	C 	0.4359	0.1202	0.3116	0.438
Mof_C 	C 	0.2471	0.9733	0.1274	-0.481
Mof_H 	H 	0.2324	0.9942	0.1561	0.133
Mof_H 	H 	0.2536	0.9491	0.1542	0.143
Mof_C 	C 	0.2038	0.9644	0.0754	0.576
Mof_C 	C 	0.347	0.9609	0.1321	-0.442
Mof_H 	H 	0.3449	0.9601	0.1801	0.153
Mof_H 	H 	0.3838	0.9725	0.1215	0.09
Mof_C 	C 	0.3423	0.9178	0.1043	0.47
Mof_C 	C 	0.3679	0.1092	0.9653	-0.242
Mof_H 	H 	0.3876	0.0879	0.9419	0.081
Mof_H 	H 	0.3283	0.1007	0.9689	0.05
Mof_C 	C 	0.3687	0.146	0.9258	0.417
Mof_C 	C 	0.4503	0.0935	0.0351	-0.263
Mof_H 	H 	0.4501	0.0712	0.0035	0.082
Mof_H 	H 	0.4573	0.0821	0.0792	0.096
Mof_C 	C 	0.4988	0.1219	0.0203	0.418
Mof_C 	C 	0.2845	0.2871	0.0478	0.562
Mof_C 	C 	0.2265	0.1671	0.2009	0.598
Mof_Fe	Fe	0.17516	0.7657	0.19127	0.874
Mof_Fe	Fe	0.08872	0.78225	0.42573	0.91
Mof_Fe	Fe	0.16736	0.66411	0.21227	0.971
Mof_Fe	Fe	0.08828	0.68008	0.45273	0.859
Mof_Fe	Fe	0.18779	0.72399	0.34999	1.018
Mof_Fe	Fe	0.07629	0.72194	0.29272	0.848
Mof_K 	K 	0.15999	0.75515	0.5884	3.217
Mof_K 	K 	0.05423	0.72116	0.09733	3.506
Mof_K 	K 	0.15838	0.08808	0.4348	2.061
Mof_K 	K 	0.1845	0.7677	0.9754	0.268
Mof_K 	K 	0.1881	0.7444	0.0055	0.784
Mof_Li	Li	0.2975	0.0418	0.4951	3.2
Mof_Li	Li	0.2137	0.9845	0.4516	2.484
Mof_O 	O 	0.2501	0.7672	0.1445	-0.531
Mof_O 	O 	0.319	0.8035	0.1061	-0.515
Mof_O 	O 	0.1402	0.7877	0.1057	-0.742
Mof_O 	O 	0.1049	0.8393	0.0502	-0.511
Mof_O 	O 	0.2915	0.9951	0.4329	-1.488
Mof_O 	O 	0.3681	0.993	0.3754	-0.47
Mof_O 	O 	0.1493	0.0037	0.3976	-1.002
Mof_O 	O 	0.1104	0.0147	0.3003	-0.418
Mof_O 	O 	0.0498	0.8095	0.5031	-0.508
Mof_O 	O 	0.038	0.8654	0.5596	-0.415
Mof_O 	O 	0.0166	0.7875	0.3705	-0.677
Mof_O 	O 	0.9605	0.8261	0.307	-0.368
Mof_O 	O 	0.189	0.6365	0.1264	-0.559
Mof_O 	O 	0.2292	0.5835	0.0833	-1.054
Mof_O 	O 	0.0847	0.6548	0.1864	-0.677
Mof_O 	O 	0.0137	0.6121	0.1731	-0.348
Mof_O 	O 	0.3442	0.4567	0.4049	-0.475
Mof_O 	O 	0.2856	0.4662	0.4844	-1.443
Mof_O 	O 	0.1871	0.4107	0.4437	-0.92
Mof_O 	O 	0.1261	0.3922	0.3664	-0.337
Mof_O 	O 	0.1165	0.6786	0.5482	-0.675
Mof_O 	O 	0.1491	0.6433	0.6341	-0.409
Mof_O 	O 	0.0135	0.659	0.4841	-0.624
Mof_O 	O 	0.9531	0.6082	0.4843	-0.444
Mof_O 	O 	0.253	0.8097	0.477	-0.522
Mof_O 	O 	0.1627	0.7905	0.469	-0.758
Mof_O 	O 	0.229	0.7606	0.4108	-0.798
Mof_O 	O 	0.2461	0.6599	0.245	-0.529
Mof_O 	O 	0.2577	0.6911	0.3419	-0.715
Mof_O 	O 	0.3189	0.6472	0.3111	-0.502
Mof_O 	O 	0.1153	0.75308	0.3566	-0.571
Mof_O 	O 	0.143	0.6926	0.2834	-0.574
Mof_O 	O 	0.2121	0.7586	0.275	-0.47
Mof_O 	O 	0.1639	0.689	0.4246	-0.442
Mof_O 	O 	0.0513	0.6835	0.3644	-0.597
Mof_O 	O 	0.0643	0.7345	0.4734	-0.714
Mof_O 	O 	0.1722	0.7114	0.1544	-0.695
Mof_O 	O 	0.0987	0.7587	0.2213	-0.599
Mof_O 	O 	0.0613	0.7712	0.98	-0.608
Mof_N 	N 	0.1969	0.8327	0.1954	-0.113
Mof_N 	N 	0.2294	0.9534	0.3429	-0.157
Mof_N 	N 	0.0899	0.8484	0.4007	-0.115
Mof_N 	N 	0.1597	0.5976	0.234	-0.112
Mof_N 	N 	0.1995	0.4865	0.3962	-0.254
Mof_N 	N 	0.106	0.6127	0.4679	-0.106
Mof_C 	C 	0.1387	0.8431	0.2954	-0.245
Mof_H 	H 	0.1079	0.8552	0.2683	0.105
Mof_H 	H 	0.1318	0.814	0.2977	0.099
Mof_C 	C 	0.1955	0.8509	0.2642	0.117
Mof_H 	H 	0.2251	0.837	0.2918	-0.028
Mof_C 	C 	0.2101	0.8953	0.2651	-0.225
Mof_H 	H 	0.2482	0.8993	0.2486	0.084
Mof_H 	H 	0.1829	0.91	0.2363	0.084
Mof_C 	C 	0.2081	0.9113	0.3343	0.073
Mof_H 	H 	0.2342	0.8942	0.3615	-0.03
Mof_C 	C 	0.1511	0.9056	0.3604	-0.178
Mof_H 	H 	0.1223	0.9188	0.3315	0.061
Mof_H 	H 	0.1496	0.9176	0.4044	-0.042
Mof_C 	C 	0.1396	0.8608	0.3637	0.105
Mof_H 	H 	0.1731	0.8489	0.3875	-0.015
Mof_C 	C 	0.2548	0.8365	0.1724	-0.256
Mof_H 	H 	0.2805	0.8424	0.2103	0.08
Mof_H 	H 	0.256	0.8594	0.1422	0.077
Mof_C 	C 	0.2763	0.8002	0.1382	0.354
Mof_C 	C 	0.1557	0.8528	0.1487	-0.29
Mof_H 	H 	0.1746	0.8753	0.1277	0.056
Mof_H 	H 	0.1243	0.8637	0.1734	0.107
Mof_C 	C 	0.132	0.8251	0.0968	0.454
Mof_C 	C 	0.2908	0.9561	0.3366	-0.529
Mof_H 	H 	0.3077	0.9293	0.3425	0.167
Mof_H 	H 	0.2988	0.9655	0.2922	0.164
Mof_C 	C 	0.317	0.9836	0.3849	0.742
Mof_C 	C 	0.1976	0.9819	0.3051	-0.423
Mof_H 	H 	0.1829	0.9686	0.2649	0.143
Mof_H 	H 	0.2237	0.0031	0.2917	0.084
Mof_C 	C 	0.1496	0.0012	0.3365	0.471
Mof_C 	C 	0.0909	0.8686	0.4637	-0.211
Mof_H 	H 	0.0754	0.8958	0.458	0.041
Mof_H 	H 	0.1303	0.871	0.4808	0.021
Mof_C 	C 	0.0575	0.8465	0.5116	0.337
Mof_C 	C 	0.0347	0.8575	0.3644	-0.297
Mof_H 	H 	0.0115	0.8743	0.3924	0.094
Mof_H 	H 	0.0425	0.873	0.3248	0.11
Mof_C 	C 	0.002	0.8212	0.3451	0.469
Mof_C 	C 	0.1281	0.6036	0.3485	-0.245
Mof_H 	H 	0.0901	0.5932	0.3367	0.106
Mof_H 	H 	0.1276	0.6328	0.3428	0.1
Mof_C 	C 	0.1718	0.5847	0.3037	0.115
Mof_H 	H 	0.2095	0.5957	0.3175	-0.017
Mof_C 	C 	0.1747	0.54	0.3123	-0.233
Mof_H 	H 	0.2035	0.5289	0.2839	0.073
Mof_H 	H 	0.138	0.5281	0.2991	0.088
Mof_C 	C 	0.1899	0.5292	0.3843	0.104
Mof_H 	H 	0.2264	0.5428	0.3957	-0.095
Mof_C 	C 	0.147	0.5466	0.429	-0.202
Mof_H 	H 	0.1575	0.5399	0.4748	-0.037
Mof_H 	H 	0.1095	0.535	0.4182	0.038
Mof_C 	C 	0.1444	0.5929	0.4208	0.104
Mof_H 	H 	0.1832	0.6034	0.4305	-0.032
Mof_C 	C 	0.2029	0.5795	0.1938	-0.323
Mof_H 	H 	0.1937	0.5511	0.1861	0.067
Mof_H 	H 	0.24	0.5808	0.2176	0.056
Mof_C 	C 	0.2065	0.6005	0.1295	0.541
Mof_C 	C 	0.1018	0.5849	0.2086	-0.276
Mof_H 	H 	0.0834	0.5695	0.2429	0.108
Mof_H 	H 	0.1058	0.5671	0.1706	0.079
Mof_C 	C 	0.0641	0.6202	0.1884	0.439
Mof_C 	C 	0.2529	0.4733	0.3726	-0.481
Mof_H 	H 	0.2676	0.4942	0.3439	0.133
Mof_H 	H 	0.2464	0.4491	0.3458	0.143
Mof_C 	C 	0.2962	0.4644	0.4246	0.575
Mof_C 	C 	0.153	0.4609	0.3679	-0.442
Mof_H 	H 	0.1551	0.4601	0.3199	0.153
Mof_H 	H 	0.1162	0.4725	0.3785	0.091
Mof_C 	C 	0.1577	0.4178	0.3957	0.47
Mof_C 	C 	0.1321	0.6092	0.5347	-0.245
Mof_H 	H 	0.1124	0.5879	0.5581	0.081
Mof_H 	H 	0.1717	0.6007	0.5311	0.05
Mof_C 	C 	0.1313	0.646	0.5742	0.418
Mof_C 	C 	0.0497	0.5935	0.4649	-0.27
Mof_H 	H 	0.0499	0.5712	0.4965	0.085
Mof_H 	H 	0.0427	0.5821	0.4208	0.1
Mof_C 	C 	0.0012	0.6219	0.4797	0.431
Mof_C 	C 	0.2155	0.7871	0.4522	0.562
Mof_C 	C 	0.2735	0.6671	0.2991	0.598
Mof_Fe	Fe	0.67516	0.2657	0.19127	0.875
Mof_Fe	Fe	0.58872	0.28225	0.42573	0.909
Mof_Fe	Fe	0.66736	0.16411	0.21227	0.971
Mof_Fe	Fe	0.58828	0.18008	0.45273	0.857
Mof_Fe	Fe	0.68779	0.22399	0.34999	1.018
Mof_Fe	Fe	0.57629	0.22194	0.29272	0.846
Mof_K 	K 	0.65999	0.25515	0.5884	3.212
Mof_K 	K 	0.55423	0.22116	0.09733	3.483
Mof_K 	K 	0.65838	0.58808	0.4348	2.053
Mof_K 	K 	0.6845	0.2677	0.9754	0.273
Mof_K 	K 	0.6881	0.2444	0.0055	0.779
Mof_Li	Li	0.7975	0.5418	0.4951	3.199
Mof_Li	Li	0.7137	0.4845	0.4516	2.485
Mof_O 	O 	0.7501	0.2672	0.1445	-0.531
Mof_O 	O 	0.819	0.3035	0.1061	-0.515
Mof_O 	O 	0.6402	0.2877	0.1057	-0.74
Mof_O 	O 	0.6049	0.3393	0.0502	-0.513
Mof_O 	O 	0.7915	0.4951	0.4329	-1.488
Mof_O 	O 	0.8681	0.493	0.3754	-0.472
Mof_O 	O 	0.6493	0.5037	0.3976	-1.003
Mof_O 	O 	0.6104	0.5147	0.3003	-0.42
Mof_O 	O 	0.5498	0.3095	0.5031	-0.51
Mof_O 	O 	0.538	0.3654	0.5596	-0.418
Mof_O 	O 	0.5166	0.2875	0.3705	-0.68
Mof_O 	O 	0.4605	0.3261	0.307	-0.359
Mof_O 	O 	0.689	0.1365	0.1264	-0.558
Mof_O 	O 	0.7292	0.0835	0.0833	-1.052
Mof_O 	O 	0.5847	0.1548	0.1864	-0.677
Mof_O 	O 	0.5137	0.1121	0.1731	-0.353
Mof_O 	O 	0.8442	0.9567	0.4049	-0.477
Mof_O 	O 	0.7856	0.9662	0.4844	-1.443
Mof_O 	O 	0.6871	0.9107	0.4437	-0.92
Mof_O 	O 	0.6261	0.8922	0.3664	-0.338
Mof_O 	O 	0.6165	0.1786	0.5482	-0.675
Mof_O 	O 	0.6491	0.1433	0.6341	-0.41
Mof_O 	O 	0.5135	0.159	0.4841	-0.626
Mof_O 	O 	0.4531	0.1082	0.4843	-0.434
Mof_O 	O 	0.753	0.3097	0.477	-0.522
Mof_O 	O 	0.6627	0.2905	0.469	-0.757
Mof_O 	O 	0.729	0.2606	0.4108	-0.798
Mof_O 	O 	0.7461	0.1599	0.245	-0.529
Mof_O 	O 	0.7577	0.1911	0.3419	-0.715
Mof_O 	O 	0.8189	0.1472	0.3111	-0.502
Mof_O 	O 	0.6153	0.25308	0.3566	-0.571
Mof_O 	O 	0.643	0.1926	0.2834	-0.573
Mof_O 	O 	0.7121	0.2586	0.275	-0.47
Mof_O 	O 	0.6639	0.189	0.4246	-0.442
Mof_O 	O 	0.5513	0.1835	0.3644	-0.601
Mof_O 	O 	0.5643	0.2345	0.4734	-0.717
Mof_O 	O 	0.6722	0.2114	0.1544	-0.694
Mof_O 	O 	0.5987	0.2587	0.2213	-0.598
Mof_O 	O 	0.5613	0.2712	0.98	-0.611
Mof_N 	N 	0.6969	0.3327	0.1954	-0.113
Mof_N 	N 	0.7294	0.4534	0.3429	-0.156
Mof_N 	N 	0.5899	0.3484	0.4007	-0.116
Mof_N 	N 	0.6597	0.0976	0.234	-0.112
Mof_N 	N 	0.6995	0.9865	0.3962	-0.254
Mof_N 	N 	0.606	0.1127	0.4679	-0.107
Mof_C 	C 	0.6387	0.3431	0.2954	-0.245
Mof_H 	H 	0.6079	0.3552	0.2683	0.104
Mof_H 	H 	0.6318	0.314	0.2977	0.099
Mof_C 	C 	0.6955	0.3509	0.2642	0.117
Mof_H 	H 	0.7251	0.337	0.2918	-0.028
Mof_C 	C 	0.7101	0.3953	0.2651	-0.225
Mof_H 	H 	0.7482	0.3993	0.2486	0.084
Mof_H 	H 	0.6829	0.41	0.2363	0.083
Mof_C 	C 	0.7081	0.4113	0.3343	0.072
Mof_H 	H 	0.7342	0.3942	0.3615	-0.03
Mof_C 	C 	0.6511	0.4056	0.3604	-0.177
Mof_H 	H 	0.6223	0.4188	0.3315	0.06
Mof_H 	H 	0.6496	0.4176	0.4044	-0.043
Mof_C 	C 	0.6396	0.3608	0.3637	0.105
Mof_H 	H 	0.6731	0.3489	0.3875	-0.015
Mof_C 	C 	0.7548	0.3365	0.1724	-0.256
Mof_H 	H 	0.7805	0.3424	0.2103	0.079
Mof_H 	H 	0.756	0.3594	0.1422	0.077
Mof_C 	C 	0.7763	0.3002	0.1382	0.354
Mof_C 	C 	0.6557	0.3528	0.1487	-0.29
Mof_H 	H 	0.6746	0.3753	0.1277	0.056
Mof_H 	H 	0.6243	0.3637	0.1734	0.106
Mof_C 	C 	0.632	0.3251	0.0968	0.453
Mof_C 	C 	0.7908	0.4561	0.3366	-0.529
Mof_H 	H 	0.8077	0.4293	0.3425	0.167
Mof_H 	H 	0.7988	0.4655	0.2922	0.164
Mof_C 	C 	0.817	0.4836	0.3849	0.743
Mof_C 	C 	0.6976	0.4819	0.3051	-0.426
Mof_H 	H 	0.6829	0.4686	0.2649	0.143
Mof_H 	H 	0.7237	0.5031	0.2917	0.085
Mof_C 	C 	0.6496	0.5012	0.3365	0.472
Mof_C 	C 	0.5909	0.3686	0.4637	-0.211
Mof_H 	H 	0.5754	0.3958	0.458	0.04
Mof_H 	H 	0.6303	0.371	0.4808	0.021
Mof_C 	C 	0.5575	0.3465	0.5116	0.338
Mof_C 	C 	0.5347	0.3575	0.3644	-0.291
Mof_H 	H 	0.5115	0.3743	0.3924	0.089
Mof_H 	H 	0.5425	0.373	0.3248	0.107
Mof_C 	C 	0.502	0.3212	0.3451	0.457
Mof_C 	C 	0.6281	0.1036	0.3485	-0.244
Mof_H 	H 	0.5901	0.0932	0.3367	0.104
Mof_H 	H 	0.6276	0.1328	0.3428	0.099
Mof_C 	C 	0.6718	0.0847	0.3037	0.114
Mof_H 	H 	0.7095	0.0957	0.3175	-0.016
Mof_C 	C 	0.6747	0.04	0.3123	-0.232
Mof_H 	H 	0.7035	0.0289	0.2839	0.073
Mof_H 	H 	0.638	0.0281	0.2991	0.087
Mof_C 	C 	0.6899	0.0292	0.3843	0.103
Mof_H 	H 	0.7264	0.0428	0.3957	-0.095
Mof_C 	C 	0.647	0.0466	0.429	-0.201
Mof_H 	H 	0.6575	0.0399	0.4748	-0.038
Mof_H 	H 	0.6095	0.035	0.4182	0.037
Mof_C 	C 	0.6444	0.0929	0.4208	0.103
Mof_H 	H 	0.6832	0.1034	0.4305	-0.032
Mof_C 	C 	0.7029	0.0795	0.1938	-0.322
Mof_H 	H 	0.6937	0.0511	0.1861	0.067
Mof_H 	H 	0.74	0.0808	0.2176	0.056
Mof_C 	C 	0.7065	0.1005	0.1295	0.541
Mof_C 	C 	0.6018	0.0849	0.2086	-0.276
Mof_H 	H 	0.5834	0.0695	0.2429	0.107
Mof_H 	H 	0.6058	0.0671	0.1706	0.078
Mof_C 	C 	0.5641	0.1202	0.1884	0.438
Mof_C 	C 	0.7529	0.9733	0.3726	-0.481
Mof_H 	H 	0.7676	0.9942	0.3439	0.133
Mof_H 	H 	0.7464	0.9491	0.3458	0.143
Mof_C 	C 	0.7962	0.9644	0.4246	0.576
Mof_C 	C 	0.653	0.9609	0.3679	-0.442
Mof_H 	H 	0.6551	0.9601	0.3199	0.153
Mof_H 	H 	0.6162	0.9725	0.3785	0.09
Mof_C 	C 	0.6577	0.9178	0.3957	0.47
Mof_C 	C 	0.6321	0.1092	0.5347	-0.244
Mof_H 	H 	0.6124	0.0879	0.5581	0.081
Mof_H 	H 	0.6717	0.1007	0.5311	0.05
Mof_C 	C 	0.6313	0.146	0.5742	0.418
Mof_C 	C 	0.5497	0.0935	0.4649	-0.263
Mof_H 	H 	0.5499	0.0712	0.4965	0.082
Mof_H 	H 	0.5427	0.0821	0.4208	0.096
Mof_C 	C 	0.5012	0.1219	0.4797	0.418
Mof_C 	C 	0.7155	0.2871	0.4522	0.562
Mof_C 	C 	0.7735	0.1671	0.2991	0.598
Mof_Fe	Fe	0.17516	0.2343	0.69127	0.874
Mof_Fe	Fe	0.08872	0.21775	0.92573	0.912
Mof_Fe	Fe	0.16736	0.33589	0.71227	0.971
Mof_Fe	Fe	0.08828	0.31992	0.95273	0.861
Mof_Fe	Fe	0.18779	0.27601	0.84999	1.018
Mof_Fe	Fe	0.07629	0.27806	0.79272	0.848
Mof_K 	K 	0.15999	0.24485	0.0884	3.211
Mof_K 	K 	0.05423	0.27884	0.59733	3.514
Mof_K 	K 	0.15838	0.91192	0.9348	2.064
Mof_K 	K 	0.1845	0.2323	0.4754	0.271
Mof_K 	K 	0.1881	0.2556	0.5055	0.776
Mof_Li	Li	0.2975	0.9582	0.9951	3.198
Mof_Li	Li	0.2137	0.0155	0.9516	2.496
Mof_O 	O 	0.2501	0.2328	0.6445	-0.531
Mof_O 	O 	0.319	0.1965	0.6061	-0.515
Mof_O 	O 	0.1402	0.2123	0.6057	-0.741
Mof_O 	O 	0.1049	0.1607	0.5502	-0.511
Mof_O 	O 	0.2915	0.0049	0.9329	-1.488
Mof_O 	O 	0.3681	0.007	0.8754	-0.469
Mof_O 	O 	0.1493	0.9963	0.8976	-1.005
Mof_O 	O 	0.1104	0.9853	0.8003	-0.418
Mof_O 	O 	0.0498	0.1905	0.0031	-0.509
Mof_O 	O 	0.038	0.1346	0.0596	-0.415
Mof_O 	O 	0.0166	0.2125	0.8705	-0.677
Mof_O 	O 	0.9605	0.1739	0.807	-0.37
Mof_O 	O 	0.189	0.3635	0.6264	-0.559
Mof_O 	O 	0.2292	0.4165	0.5833	-1.054
Mof_O 	O 	0.0847	0.3452	0.6864	-0.678
Mof_O 	O 	0.0137	0.3879	0.6731	-0.347
Mof_O 	O 	0.3442	0.5433	0.9049	-0.475
Mof_O 	O 	0.2856	0.5338	0.9844	-1.441
Mof_O 	O 	0.1871	0.5893	0.9437	-0.919
Mof_O 	O 	0.1261	0.6078	0.8664	-0.337
Mof_O 	O 	0.1165	0.3214	0.0482	-0.676
Mof_O 	O 	0.1491	0.3567	0.1341	-0.409
Mof_O 	O 	0.0135	0.341	0.9841	-0.623
Mof_O 	O 	0.9531	0.3918	0.9843	-0.446
Mof_O 	O 	0.253	0.1903	0.977	-0.521
Mof_O 	O 	0.1627	0.2095	0.969	-0.756
Mof_O 	O 	0.229	0.2394	0.9108	-0.798
Mof_O 	O 	0.2461	0.3401	0.745	-0.529
Mof_O 	O 	0.2577	0.3089	0.8419	-0.715
Mof_O 	O 	0.3189	0.3528	0.8111	-0.502
Mof_O 	O 	0.1153	0.24692	0.8566	-0.572
Mof_O 	O 	0.143	0.3074	0.7834	-0.574
Mof_O 	O 	0.2121	0.2414	0.775	-0.47
Mof_O 	O 	0.1639	0.311	0.9246	-0.441
Mof_O 	O 	0.0513	0.3165	0.8644	-0.596
Mof_O 	O 	0.0643	0.2655	0.9734	-0.712
Mof_O 	O 	0.1722	0.2886	0.6544	-0.695
Mof_O 	O 	0.0987	0.2413	0.7213	-0.599
Mof_O 	O 	0.0613	0.2288	0.48	-0.61
Mof_N 	N 	0.1969	0.1673	0.6954	-0.113
Mof_N 	N 	0.2294	0.0466	0.8429	-0.157
Mof_N 	N 	0.0899	0.1516	0.9007	-0.115
Mof_N 	N 	0.1597	0.4024	0.734	-0.112
Mof_N 	N 	0.1995	0.5135	0.8962	-0.254
Mof_N 	N 	0.106	0.3873	0.9679	-0.105
Mof_C 	C 	0.1387	0.1569	0.7954	-0.245
Mof_H 	H 	0.1079	0.1448	0.7683	0.105
Mof_H 	H 	0.1318	0.186	0.7977	0.099
Mof_C 	C 	0.1955	0.1491	0.7642	0.117
Mof_H 	H 	0.2251	0.163	0.7918	-0.028
Mof_C 	C 	0.2101	0.1047	0.7651	-0.225
Mof_H 	H 	0.2482	0.1007	0.7486	0.084
Mof_H 	H 	0.1829	0.09	0.7363	0.084
Mof_C 	C 	0.2081	0.0887	0.8343	0.073
Mof_H 	H 	0.2342	0.1058	0.8615	-0.03
Mof_C 	C 	0.1511	0.0944	0.8604	-0.178
Mof_H 	H 	0.1223	0.0812	0.8315	0.061
Mof_H 	H 	0.1496	0.0824	0.9044	-0.042
Mof_C 	C 	0.1396	0.1392	0.8637	0.105
Mof_H 	H 	0.1731	0.1511	0.8875	-0.015
Mof_C 	C 	0.2548	0.1635	0.6724	-0.256
Mof_H 	H 	0.2805	0.1576	0.7103	0.08
Mof_H 	H 	0.256	0.1406	0.6422	0.077
Mof_C 	C 	0.2763	0.1998	0.6382	0.354
Mof_C 	C 	0.1557	0.1472	0.6487	-0.29
Mof_H 	H 	0.1746	0.1247	0.6277	0.056
Mof_H 	H 	0.1243	0.1363	0.6734	0.107
Mof_C 	C 	0.132	0.1749	0.5968	0.454
Mof_C 	C 	0.2908	0.0439	0.8366	-0.529
Mof_H 	H 	0.3077	0.0707	0.8425	0.167
Mof_H 	H 	0.2988	0.0345	0.7922	0.164
Mof_C 	C 	0.317	0.0164	0.8849	0.743
Mof_C 	C 	0.1976	0.0181	0.8051	-0.423
Mof_H 	H 	0.1829	0.0314	0.7649	0.143
Mof_H 	H 	0.2237	0.9969	0.7917	0.083
Mof_C 	C 	0.1496	0.9988	0.8365	0.47
Mof_C 	C 	0.0909	0.1314	0.9637	-0.207
Mof_H 	H 	0.0754	0.1042	0.958	0.041
Mof_H 	H 	0.1303	0.129	0.9808	0.021
Mof_C 	C 	0.0575	0.1535	0.0116	0.335
Mof_C 	C 	0.0347	0.1425	0.8644	-0.299
Mof_H 	H 	0.0115	0.1257	0.8924	0.095
Mof_H 	H 	0.0425	0.127	0.8248	0.111
Mof_C 	C 	0.002	0.1788	0.8451	0.472
Mof_C 	C 	0.1281	0.3964	0.8485	-0.245
Mof_H 	H 	0.0901	0.4068	0.8367	0.106
Mof_H 	H 	0.1276	0.3672	0.8428	0.1
Mof_C 	C 	0.1718	0.4153	0.8037	0.115
Mof_H 	H 	0.2095	0.4043	0.8175	-0.017
Mof_C 	C 	0.1747	0.46	0.8123	-0.234
Mof_H 	H 	0.2035	0.4711	0.7839	0.073
Mof_H 	H 	0.138	0.4719	0.7991	0.089
Mof_C 	C 	0.1899	0.4708	0.8843	0.104
Mof_H 	H 	0.2264	0.4572	0.8957	-0.095
Mof_C 	C 	0.147	0.4534	0.929	-0.203
Mof_H 	H 	0.1575	0.4601	0.9748	-0.036
Mof_H 	H 	0.1095	0.465	0.9182	0.039
Mof_C 	C 	0.1444	0.4071	0.9208	0.104
Mof_H 	H 	0.1832	0.3966	0.9305	-0.032
Mof_C 	C 	0.2029	0.4205	0.6938	-0.323
Mof_H 	H 	0.1937	0.4489	0.6861	0.067
Mof_H 	H 	0.24	0.4192	0.7176	0.056
Mof_C 	C 	0.2065	0.3995	0.6295	0.542
Mof_C 	C 	0.1018	0.4151	0.7086	-0.276
Mof_H 	H 	0.0834	0.4305	0.7429	0.108
Mof_H 	H 	0.1058	0.4329	0.6706	0.079
Mof_C 	C 	0.0641	0.3798	0.6884	0.439
Mof_C 	C 	0.2529	0.5267	0.8726	-0.48
Mof_H 	H 	0.2676	0.5058	0.8439	0.133
Mof_H 	H 	0.2464	0.5509	0.8458	0.143
Mof_C 	C 	0.2962	0.5356	0.9246	0.575
Mof_C 	C 	0.153	0.5391	0.8679	-0.442
Mof_H 	H 	0.1551	0.5399	0.8199	0.153
Mof_H 	H 	0.1162	0.5275	0.8785	0.091
Mof_C 	C 	0.1577	0.5822	0.8957	0.47
Mof_C 	C 	0.1321	0.3908	0.0347	-0.247
Mof_H 	H 	0.1124	0.4121	0.0581	0.081
Mof_H 	H 	0.1717	0.3993	0.0311	0.05
Mof_C 	C 	0.1313	0.354	0.0742	0.418
Mof_C 	C 	0.0497	0.4065	0.9649	-0.271
Mof_H 	H 	0.0499	0.4288	0.9965	0.087
Mof_H 	H 	0.0427	0.4179	0.9208	0.101
Mof_C 	C 	0.0012	0.3781	0.9797	0.435
Mof_C 	C 	0.2155	0.2129	0.9522	0.562
Mof_C 	C 	0.2735	0.3329	0.7991	0.598
Mof_Fe	Fe	0.67516	0.7343	0.69127	0.875
Mof_Fe	Fe	0.58872	0.71775	0.92573	0.909
Mof_Fe	Fe	0.66736	0.83589	0.71227	0.971
Mof_Fe	Fe	0.58828	0.81992	0.95273	0.857
Mof_Fe	Fe	0.68779	0.77601	0.84999	1.018
Mof_Fe	Fe	0.57629	0.77806	0.79272	0.846
Mof_K 	K 	0.65999	0.74485	0.0884	3.216
Mof_K 	K 	0.55423	0.77884	0.59733	3.484
Mof_K 	K 	0.65838	0.41192	0.9348	2.056
Mof_K 	K 	0.6845	0.7323	0.4754	0.275
Mof_K 	K 	0.6881	0.7556	0.5055	0.774
Mof_Li	Li	0.7975	0.4582	0.9951	3.201
Mof_Li	Li	0.7137	0.5155	0.9516	2.485
Mof_O 	O 	0.7501	0.7328	0.6445	-0.531
Mof_O 	O 	0.819	0.6965	0.6061	-0.515
Mof_O 	O 	0.6402	0.7123	0.6057	-0.74
Mof_O 	O 	0.6049	0.6607	0.5502	-0.513
Mof_O 	O 	0.7915	0.5049	0.9329	-1.488
Mof_O 	O 	0.8681	0.507	0.8754	-0.472
Mof_O 	O 	0.6493	0.4963	0.8976	-1.003
Mof_O 	O 	0.6104	0.4853	0.8003	-0.42
Mof_O 	O 	0.5498	0.6905	0.0031	-0.51
Mof_O 	O 	0.538	0.6346	0.0596	-0.418
Mof_O 	O 	0.5166	0.7125	0.8705	-0.68
Mof_O 	O 	0.4605	0.6739	0.807	-0.359
Mof_O 	O 	0.689	0.8635	0.6264	-0.558
Mof_O 	O 	0.7292	0.9165	0.5833	-1.053
Mof_O 	O 	0.5847	0.8452	0.6864	-0.677
Mof_O 	O 	0.5137	0.8879	0.6731	-0.353
Mof_O 	O 	0.8442	0.0433	0.9049	-0.477
Mof_O 	O 	0.7856	0.0338	0.9844	-1.442
Mof_O 	O 	0.6871	0.0893	0.9437	-0.918
Mof_O 	O 	0.6261	0.1078	0.8664	-0.338
Mof_O 	O 	0.6165	0.8214	0.0482	-0.675
Mof_O 	O 	0.6491	0.8567	0.1341	-0.41
Mof_O 	O 	0.5135	0.841	0.9841	-0.626
Mof_O 	O 	0.4531	0.8918	0.9843	-0.434
Mof_O 	O 	0.753	0.6903	0.977	-0.522
Mof_O 	O 	0.6627	0.7095	0.969	-0.757
Mof_O 	O 	0.729	0.7394	0.9108	-0.798
Mof_O 	O 	0.7461	0.8401	0.745	-0.529
Mof_O 	O 	0.7577	0.8089	0.8419	-0.715
Mof_O 	O 	0.8189	0.8528	0.8111	-0.503
Mof_O 	O 	0.6153	0.74692	0.8566	-0.571
Mof_O 	O 	0.643	0.8074	0.7834	-0.573
Mof_O 	O 	0.7121	0.7414	0.775	-0.47
Mof_O 	O 	0.6639	0.811	0.9246	-0.442
Mof_O 	O 	0.5513	0.8165	0.8644	-0.601
Mof_O 	O 	0.5643	0.7655	0.9734	-0.718
Mof_O 	O 	0.6722	0.7886	0.6544	-0.693
Mof_O 	O 	0.5987	0.7413	0.7213	-0.598
Mof_O 	O 	0.5613	0.7288	0.48	-0.612
Mof_N 	N 	0.6969	0.6673	0.6954	-0.113
Mof_N 	N 	0.7294	0.5466	0.8429	-0.156
Mof_N 	N 	0.5899	0.6516	0.9007	-0.116
Mof_N 	N 	0.6597	0.9024	0.734	-0.112
Mof_N 	N 	0.6995	0.0135	0.8962	-0.253
Mof_N 	N 	0.606	0.8873	0.9679	-0.108
Mof_C 	C 	0.6387	0.6569	0.7954	-0.245
Mof_H 	H 	0.6079	0.6448	0.7683	0.104
Mof_H 	H 	0.6318	0.686	0.7977	0.099
Mof_C 	C 	0.6955	0.6491	0.7642	0.117
Mof_H 	H 	0.7251	0.663	0.7918	-0.028
Mof_C 	C 	0.7101	0.6047	0.7651	-0.225
Mof_H 	H 	0.7482	0.6007	0.7486	0.084
Mof_H 	H 	0.6829	0.59	0.7363	0.083
Mof_C 	C 	0.7081	0.5887	0.8343	0.072
Mof_H 	H 	0.7342	0.6058	0.8615	-0.03
Mof_C 	C 	0.6511	0.5944	0.8604	-0.178
Mof_H 	H 	0.6223	0.5812	0.8315	0.06
Mof_H 	H 	0.6496	0.5824	0.9044	-0.043
Mof_C 	C 	0.6396	0.6392	0.8637	0.105
Mof_H 	H 	0.6731	0.6511	0.8875	-0.015
Mof_C 	C 	0.7548	0.6635	0.6724	-0.256
Mof_H 	H 	0.7805	0.6576	0.7103	0.079
Mof_H 	H 	0.756	0.6406	0.6422	0.077
Mof_C 	C 	0.7763	0.6998	0.6382	0.354
Mof_C 	C 	0.6557	0.6472	0.6487	-0.29
Mof_H 	H 	0.6746	0.6247	0.6277	0.055
Mof_H 	H 	0.6243	0.6363	0.6734	0.106
Mof_C 	C 	0.632	0.6749	0.5968	0.453
Mof_C 	C 	0.7908	0.5439	0.8366	-0.529
Mof_H 	H 	0.8077	0.5707	0.8425	0.167
Mof_H 	H 	0.7988	0.5345	0.7922	0.164
Mof_C 	C 	0.817	0.5164	0.8849	0.743
Mof_C 	C 	0.6976	0.5181	0.8051	-0.426
Mof_H 	H 	0.6829	0.5314	0.7649	0.143
Mof_H 	H 	0.7237	0.4969	0.7917	0.085
Mof_C 	C 	0.6496	0.4988	0.8365	0.472
Mof_C 	C 	0.5909	0.6314	0.9637	-0.212
Mof_H 	H 	0.5754	0.6042	0.958	0.041
Mof_H 	H 	0.6303	0.629	0.9808	0.022
Mof_C 	C 	0.5575	0.6535	0.0116	0.339
Mof_C 	C 	0.5347	0.6425	0.8644	-0.291
Mof_H 	H 	0.5115	0.6257	0.8924	0.089
Mof_H 	H 	0.5425	0.627	0.8248	0.107
Mof_C 	C 	0.502	0.6788	0.8451	0.457
Mof_C 	C 	0.6281	0.8964	0.8485	-0.244
Mof_H 	H 	0.5901	0.9068	0.8367	0.104
Mof_H 	H 	0.6276	0.8672	0.8428	0.099
Mof_C 	C 	0.6718	0.9153	0.8037	0.114
Mof_H 	H 	0.7095	0.9043	0.8175	-0.017
Mof_C 	C 	0.6747	0.96	0.8123	-0.232
Mof_H 	H 	0.7035	0.9711	0.7839	0.072
Mof_H 	H 	0.638	0.9719	0.7991	0.087
Mof_C 	C 	0.6899	0.9708	0.8843	0.102
Mof_H 	H 	0.7264	0.9572	0.8957	-0.095
Mof_C 	C 	0.647	0.9534	0.929	-0.201
Mof_H 	H 	0.6575	0.9601	0.9748	-0.038
Mof_H 	H 	0.6095	0.965	0.9182	0.037
Mof_C 	C 	0.6444	0.9071	0.9208	0.103
Mof_H 	H 	0.6832	0.8966	0.9305	-0.033
Mof_C 	C 	0.7029	0.9205	0.6938	-0.322
Mof_H 	H 	0.6937	0.9489	0.6861	0.067
Mof_H 	H 	0.74	0.9192	0.7176	0.056
Mof_C 	C 	0.7065	0.8995	0.6295	0.541
Mof_C 	C 	0.6018	0.9151	0.7086	-0.276
Mof_H 	H 	0.5834	0.9305	0.7429	0.107
Mof_H 	H 	0.6058	0.9329	0.6706	0.078
Mof_C 	C 	0.5641	0.8798	0.6884	0.438
Mof_C 	C 	0.7529	0.0267	0.8726	-0.481
Mof_H 	H 	0.7676	0.0058	0.8439	0.133
Mof_H 	H 	0.7464	0.0509	0.8458	0.143
Mof_C 	C 	0.7962	0.0356	0.9246	0.576
Mof_C 	C 	0.653	0.0391	0.8679	-0.442
Mof_H 	H 	0.6551	0.0399	0.8199	0.153
Mof_H 	H 	0.6162	0.0275	0.8785	0.09
Mof_C 	C 	0.6577	0.0822	0.8957	0.47
Mof_C 	C 	0.6321	0.8908	0.0347	-0.242
Mof_H 	H 	0.6124	0.9121	0.0581	0.081
Mof_H 	H 	0.6717	0.8993	0.0311	0.05
Mof_C 	C 	0.6313	0.854	0.0742	0.417
Mof_C 	C 	0.5497	0.9065	0.9649	-0.263
Mof_H 	H 	0.5499	0.9288	0.9965	0.082
Mof_H 	H 	0.5427	0.9179	0.9208	0.096
Mof_C 	C 	0.5012	0.8781	0.9797	0.418
Mof_C 	C 	0.7155	0.7129	0.9522	0.562
Mof_C 	C 	0.7735	0.8329	0.7991	0.598
Mof_Fe	Fe	0.82484	0.2343	0.80873	0.875
Mof_Fe	Fe	0.91128	0.21775	0.57427	0.908
Mof_Fe	Fe	0.83264	0.33589	0.78773	0.971
Mof_Fe	Fe	0.91172	0.31992	0.54727	0.856
Mof_Fe	Fe	0.81221	0.27601	0.65001	1.018
Mof_Fe	Fe	0.92371	0.27806	0.70728	0.839
Mof_K 	K 	0.84001	0.24485	0.4116	3.207
Mof_K 	K 	0.94577	0.27884	0.90267	3.444
Mof_K 	K 	0.84162	0.91192	0.5652	2.041
Mof_K 	K 	0.8155	0.2323	0.0246	0.289
Mof_K 	K 	0.8119	0.2556	0.9945	0.769
Mof_Li	Li	0.7025	0.9582	0.5049	3.202
Mof_Li	Li	0.7863	0.0155	0.5484	2.484
Mof_O 	O 	0.7499	0.2328	0.8555	-0.53
Mof_O 	O 	0.681	0.1965	0.8939	-0.515
Mof_O 	O 	0.8598	0.2123	0.8943	-0.738
Mof_O 	O 	0.8951	0.1607	0.9498	-0.515
Mof_O 	O 	0.7085	0.0049	0.5671	-1.488
Mof_O 	O 	0.6319	0.007	0.6246	-0.47
Mof_O 	O 	0.8507	0.9963	0.6024	-1.003
Mof_O 	O 	0.8896	0.9853	0.6997	-0.422
Mof_O 	O 	0.9502	0.1905	0.4969	-0.513
Mof_O 	O 	0.962	0.1346	0.4404	-0.422
Mof_O 	O 	0.9834	0.2125	0.6295	-0.682
Mof_O 	O 	0.0395	0.1739	0.693	-0.347
Mof_O 	O 	0.811	0.3635	0.8736	-0.558
Mof_O 	O 	0.7708	0.4165	0.9167	-1.054
Mof_O 	O 	0.9153	0.3452	0.8136	-0.676
Mof_O 	O 	0.9863	0.3879	0.8269	-0.36
Mof_O 	O 	0.6558	0.5433	0.5951	-0.475
Mof_O 	O 	0.7144	0.5338	0.5156	-1.443
Mof_O 	O 	0.8129	0.5893	0.5563	-0.919
Mof_O 	O 	0.8739	0.6078	0.6336	-0.34
Mof_O 	O 	0.8835	0.3214	0.4518	-0.675
Mof_O 	O 	0.8509	0.3567	0.3659	-0.41
Mof_O 	O 	0.9865	0.341	0.5159	-0.628
Mof_O 	O 	0.0469	0.3918	0.5157	-0.424
Mof_O 	O 	0.747	0.1903	0.523	-0.522
Mof_O 	O 	0.8373	0.2095	0.531	-0.756
Mof_O 	O 	0.771	0.2394	0.5892	-0.798
Mof_O 	O 	0.7539	0.3401	0.755	-0.529
Mof_O 	O 	0.7423	0.3089	0.6581	-0.715
Mof_O 	O 	0.6811	0.3528	0.6889	-0.502
Mof_O 	O 	0.8847	0.24692	0.6434	-0.571
Mof_O 	O 	0.857	0.3074	0.7166	-0.573
Mof_O 	O 	0.7879	0.2414	0.725	-0.47
Mof_O 	O 	0.8361	0.311	0.5754	-0.441
Mof_O 	O 	0.9487	0.3165	0.6356	-0.606
Mof_O 	O 	0.9357	0.2655	0.5266	-0.721
Mof_O 	O 	0.8278	0.2886	0.8456	-0.691
Mof_O 	O 	0.9013	0.2413	0.7787	-0.597
Mof_O 	O 	0.9387	0.2288	0.02	-0.613
Mof_N 	N 	0.8031	0.1673	0.8046	-0.113
Mof_N 	N 	0.7706	0.0466	0.6571	-0.156
Mof_N 	N 	0.9101	0.1516	0.5993	-0.117
Mof_N 	N 	0.8403	0.4024	0.766	-0.112
Mof_N 	N 	0.8005	0.5135	0.6038	-0.254
Mof_N 	N 	0.894	0.3873	0.5321	-0.108
Mof_C 	C 	0.8613	0.1569	0.7046	-0.245
Mof_H 	H 	0.8921	0.1448	0.7317	0.104
Mof_H 	H 	0.8682	0.186	0.7023	0.099
Mof_C 	C 	0.8045	0.1491	0.7358	0.117
Mof_H 	H 	0.7749	0.163	0.7082	-0.028
Mof_C 	C 	0.7899	0.1047	0.7349	-0.224
Mof_H 	H 	0.7518	0.1007	0.7514	0.084
Mof_H 	H 	0.8171	0.09	0.7637	0.083
Mof_C 	C 	0.7919	0.0887	0.6657	0.072
Mof_H 	H 	0.7658	0.1058	0.6385	-0.03
Mof_C 	C 	0.8489	0.0944	0.6396	-0.177
Mof_H 	H 	0.8777	0.0812	0.6685	0.059
Mof_H 	H 	0.8504	0.0824	0.5956	-0.043
Mof_C 	C 	0.8604	0.1392	0.6363	0.105
Mof_H 	H 	0.8269	0.1511	0.6125	-0.015
Mof_C 	C 	0.7452	0.1635	0.8276	-0.256
Mof_H 	H 	0.7195	0.1576	0.7897	0.08
Mof_H 	H 	0.744	0.1406	0.8578	0.077
Mof_C 	C 	0.7237	0.1998	0.8618	0.354
Mof_C 	C 	0.8443	0.1472	0.8513	-0.289
Mof_H 	H 	0.8254	0.1247	0.8723	0.055
Mof_H 	H 	0.8757	0.1363	0.8266	0.105
Mof_C 	C 	0.868	0.1749	0.9032	0.452
Mof_C 	C 	0.7092	0.0439	0.6634	-0.529
Mof_H 	H 	0.6923	0.0707	0.6575	0.167
Mof_H 	H 	0.7012	0.0345	0.7078	0.164
Mof_C 	C 	0.683	0.0164	0.6151	0.743
Mof_C 	C 	0.8024	0.0181	0.6949	-0.424
Mof_H 	H 	0.8171	0.0314	0.7351	0.142
Mof_H 	H 	0.7763	0.9969	0.7083	0.084
Mof_C 	C 	0.8504	0.9988	0.6635	0.471
Mof_C 	C 	0.9091	0.1314	0.5363	-0.211
Mof_H 	H 	0.9246	0.1042	0.542	0.039
Mof_H 	H 	0.8697	0.129	0.5192	0.021
Mof_C 	C 	0.9425	0.1535	0.4884	0.338
Mof_C 	C 	0.9653	0.1425	0.6356	-0.283
Mof_H 	H 	0.9885	0.1257	0.6076	0.084
Mof_H 	H 	0.9575	0.127	0.6752	0.103
Mof_C 	C 	0.998	0.1788	0.6549	0.442
Mof_C 	C 	0.8719	0.3964	0.6515	-0.243
Mof_H 	H 	0.9099	0.4068	0.6633	0.102
Mof_H 	H 	0.8724	0.3672	0.6572	0.098
Mof_C 	C 	0.8282	0.4153	0.6963	0.114
Mof_H 	H 	0.7905	0.4043	0.6825	-0.016
Mof_C 	C 	0.8253	0.46	0.6877	-0.232
Mof_H 	H 	0.7965	0.4711	0.7161	0.073
Mof_H 	H 	0.862	0.4719	0.7009	0.087
Mof_C 	C 	0.8101	0.4708	0.6157	0.103
Mof_H 	H 	0.7736	0.4572	0.6043	-0.095
Mof_C 	C 	0.853	0.4534	0.571	-0.2
Mof_H 	H 	0.8425	0.4601	0.5252	-0.038
Mof_H 	H 	0.8905	0.465	0.5818	0.036
Mof_C 	C 	0.8556	0.4071	0.5792	0.103
Mof_H 	H 	0.8168	0.3966	0.5695	-0.032
Mof_C 	C 	0.7971	0.4205	0.8062	-0.322
Mof_H 	H 	0.8063	0.4489	0.8139	0.067
Mof_H 	H 	0.76	0.4192	0.7824	0.056
Mof_C 	C 	0.7935	0.3995	0.8705	0.541
Mof_C 	C 	0.8982	0.4151	0.7914	-0.276
Mof_H 	H 	0.9166	0.4305	0.7571	0.105
Mof_H 	H 	0.8942	0.4329	0.8294	0.077
Mof_C 	C 	0.9359	0.3798	0.8116	0.438
Mof_C 	C 	0.7471	0.5267	0.6274	-0.48
Mof_H 	H 	0.7324	0.5058	0.6561	0.133
Mof_H 	H 	0.7536	0.5509	0.6542	0.143
Mof_C 	C 	0.7038	0.5356	0.5754	0.575
Mof_C 	C 	0.847	0.5391	0.6321	-0.441
Mof_H 	H 	0.8449	0.5399	0.6801	0.152
Mof_H 	H 	0.8838	0.5275	0.6215	0.088
Mof_C 	C 	0.8423	0.5822	0.6043	0.469
Mof_C 	C 	0.8679	0.3908	0.4653	-0.244
Mof_H 	H 	0.8876	0.4121	0.4419	0.08
Mof_H 	H 	0.8283	0.3993	0.4689	0.05
Mof_C 	C 	0.8687	0.354	0.4258	0.417
Mof_C 	C 	0.9503	0.4065	0.5351	-0.256
Mof_H 	H 	0.9501	0.4288	0.5035	0.078
Mof_H 	H 	0.9573	0.4179	0.5792	0.092
Mof_C 	C 	0.9988	0.3781	0.5203	0.402
Mof_C 	C 	0.7845	0.2129	0.5478	0.562
Mof_C 	C 	0.7265	0.3329	0.7009	0.598
Mof_Fe	Fe	0.32484	0.7343	0.80873	0.875
Mof_Fe	Fe	0.41128	0.71775	0.57427	0.909
Mof_Fe	Fe	0.33264	0.83589	0.78773	0.971
Mof_Fe	Fe	0.41172	0.81992	0.54727	0.857
Mof_Fe	Fe	0.31221	0.77601	0.65001	1.018
Mof_Fe	Fe	0.42371	0.77806	0.70728	0.846
Mof_K 	K 	0.34001	0.74485	0.4116	3.212
Mof_K 	K 	0.44577	0.77884	0.90267	3.485
Mof_K 	K 	0.34162	0.41192	0.5652	2.052
Mof_K 	K 	0.3155	0.7323	0.0246	0.285
Mof_K 	K 	0.3119	0.7556	0.9945	0.768
Mof_Li	Li	0.2025	0.4582	0.5049	3.203
Mof_Li	Li	0.2863	0.5155	0.5484	2.484
Mof_O 	O 	0.2499	0.7328	0.8555	-0.53
Mof_O 	O 	0.181	0.6965	0.8939	-0.514
Mof_O 	O 	0.3598	0.7123	0.8943	-0.74
Mof_O 	O 	0.3951	0.6607	0.9498	-0.513
Mof_O 	O 	0.2085	0.5049	0.5671	-1.488
Mof_O 	O 	0.1319	0.507	0.6246	-0.469
Mof_O 	O 	0.3507	0.4963	0.6024	-1.003
Mof_O 	O 	0.3896	0.4853	0.6997	-0.42
Mof_O 	O 	0.4502	0.6905	0.4969	-0.51
Mof_O 	O 	0.462	0.6346	0.4404	-0.418
Mof_O 	O 	0.4834	0.7125	0.6295	-0.68
Mof_O 	O 	0.5395	0.6739	0.693	-0.359
Mof_O 	O 	0.311	0.8635	0.8736	-0.558
Mof_O 	O 	0.2708	0.9165	0.9167	-1.054
Mof_O 	O 	0.4153	0.8452	0.8136	-0.677
Mof_O 	O 	0.4863	0.8879	0.8269	-0.353
Mof_O 	O 	0.1558	0.0433	0.5951	-0.474
Mof_O 	O 	0.2144	0.0338	0.5156	-1.444
Mof_O 	O 	0.3129	0.0893	0.5563	-0.919
Mof_O 	O 	0.3739	0.1078	0.6336	-0.338
Mof_O 	O 	0.3835	0.8214	0.4518	-0.675
Mof_O 	O 	0.3509	0.8567	0.3659	-0.41
Mof_O 	O 	0.4865	0.841	0.5159	-0.626
Mof_O 	O 	0.5469	0.8918	0.5157	-0.434
Mof_O 	O 	0.247	0.6903	0.523	-0.522
Mof_O 	O 	0.3373	0.7095	0.531	-0.757
Mof_O 	O 	0.271	0.7394	0.5892	-0.799
Mof_O 	O 	0.2539	0.8401	0.755	-0.529
Mof_O 	O 	0.2423	0.8089	0.6581	-0.715
Mof_O 	O 	0.1811	0.8528	0.6889	-0.501
Mof_O 	O 	0.3847	0.74692	0.6434	-0.571
Mof_O 	O 	0.357	0.8074	0.7166	-0.573
Mof_O 	O 	0.2879	0.7414	0.725	-0.47
Mof_O 	O 	0.3361	0.811	0.5754	-0.442
Mof_O 	O 	0.4487	0.8165	0.6356	-0.601
Mof_O 	O 	0.4357	0.7655	0.5266	-0.718
Mof_O 	O 	0.3278	0.7886	0.8456	-0.693
Mof_O 	O 	0.4013	0.7413	0.7787	-0.598
Mof_O 	O 	0.4387	0.7288	0.02	-0.612
Mof_N 	N 	0.3031	0.6673	0.8046	-0.113
Mof_N 	N 	0.2706	0.5466	0.6571	-0.156
Mof_N 	N 	0.4101	0.6516	0.5993	-0.116
Mof_N 	N 	0.3403	0.9024	0.766	-0.112
Mof_N 	N 	0.3005	0.0135	0.6038	-0.254
Mof_N 	N 	0.394	0.8873	0.5321	-0.107
Mof_C 	C 	0.3613	0.6569	0.7046	-0.245
Mof_H 	H 	0.3921	0.6448	0.7317	0.104
Mof_H 	H 	0.3682	0.686	0.7023	0.099
Mof_C 	C 	0.3045	0.6491	0.7358	0.117
Mof_H 	H 	0.2749	0.663	0.7082	-0.028
Mof_C 	C 	0.2899	0.6047	0.7349	-0.225
Mof_H 	H 	0.2518	0.6007	0.7514	0.084
Mof_H 	H 	0.3171	0.59	0.7637	0.083
Mof_C 	C 	0.2919	0.5887	0.6657	0.072
Mof_H 	H 	0.2658	0.6058	0.6385	-0.03
Mof_C 	C 	0.3489	0.5944	0.6396	-0.178
Mof_H 	H 	0.3777	0.5812	0.6685	0.06
Mof_H 	H 	0.3504	0.5824	0.5956	-0.043
Mof_C 	C 	0.3604	0.6392	0.6363	0.105
Mof_H 	H 	0.3269	0.6511	0.6125	-0.015
Mof_C 	C 	0.2452	0.6635	0.8276	-0.256
Mof_H 	H 	0.2195	0.6576	0.7897	0.08
Mof_H 	H 	0.244	0.6406	0.8578	0.077
Mof_C 	C 	0.2237	0.6998	0.8618	0.354
Mof_C 	C 	0.3443	0.6472	0.8513	-0.29
Mof_H 	H 	0.3254	0.6247	0.8723	0.056
Mof_H 	H 	0.3757	0.6363	0.8266	0.106
Mof_C 	C 	0.368	0.6749	0.9032	0.453
Mof_C 	C 	0.2092	0.5439	0.6634	-0.529
Mof_H 	H 	0.1923	0.5707	0.6575	0.167
Mof_H 	H 	0.2012	0.5345	0.7078	0.164
Mof_C 	C 	0.183	0.5164	0.6151	0.742
Mof_C 	C 	0.3024	0.5181	0.6949	-0.426
Mof_H 	H 	0.3171	0.5314	0.7351	0.143
Mof_H 	H 	0.2763	0.4969	0.7083	0.085
Mof_C 	C 	0.3504	0.4988	0.6635	0.472
Mof_C 	C 	0.4091	0.6314	0.5363	-0.211
Mof_H 	H 	0.4246	0.6042	0.542	0.04
Mof_H 	H 	0.3697	0.629	0.5192	0.021
Mof_C 	C 	0.4425	0.6535	0.4884	0.338
Mof_C 	C 	0.4653	0.6425	0.6356	-0.291
Mof_H 	H 	0.4885	0.6257	0.6076	0.089
Mof_H 	H 	0.4575	0.627	0.6752	0.107
Mof_C 	C 	0.498	0.6788	0.6549	0.457
Mof_C 	C 	0.3719	0.8964	0.6515	-0.244
Mof_H 	H 	0.4099	0.9068	0.6633	0.104
Mof_H 	H 	0.3724	0.8672	0.6572	0.099
Mof_C 	C 	0.3282	0.9153	0.6963	0.114
Mof_H 	H 	0.2905	0.9043	0.6825	-0.016
Mof_C 	C 	0.3253	0.96	0.6877	-0.232
Mof_H 	H 	0.2965	0.9711	0.7161	0.073
Mof_H 	H 	0.362	0.9719	0.7009	0.087
Mof_C 	C 	0.3101	0.9708	0.6157	0.103
Mof_H 	H 	0.2736	0.9572	0.6043	-0.095
Mof_C 	C 	0.353	0.9534	0.571	-0.201
Mof_H 	H 	0.3425	0.9601	0.5252	-0.038
Mof_H 	H 	0.3905	0.965	0.5818	0.037
Mof_C 	C 	0.3556	0.9071	0.5792	0.103
Mof_H 	H 	0.3168	0.8966	0.5695	-0.032
Mof_C 	C 	0.2971	0.9205	0.8062	-0.322
Mof_H 	H 	0.3063	0.9489	0.8139	0.066
Mof_H 	H 	0.26	0.9192	0.7824	0.056
Mof_C 	C 	0.2935	0.8995	0.8705	0.541
Mof_C 	C 	0.3982	0.9151	0.7914	-0.276
Mof_H 	H 	0.4166	0.9305	0.7571	0.107
Mof_H 	H 	0.3942	0.9329	0.8294	0.078
Mof_C 	C 	0.4359	0.8798	0.8116	0.438
Mof_C 	C 	0.2471	0.0267	0.6274	-0.48
Mof_H 	H 	0.2324	0.0058	0.6561	0.133
Mof_H 	H 	0.2536	0.0509	0.6542	0.143
Mof_C 	C 	0.2038	0.0356	0.5754	0.575
Mof_C 	C 	0.347	0.0391	0.6321	-0.442
Mof_H 	H 	0.3449	0.0399	0.6801	0.153
Mof_H 	H 	0.3838	0.0275	0.6215	0.09
Mof_C 	C 	0.3423	0.0822	0.6043	0.47
Mof_C 	C 	0.3679	0.8908	0.4653	-0.244
Mof_H 	H 	0.3876	0.9121	0.4419	0.081
Mof_H 	H 	0.3283	0.8993	0.4689	0.05
Mof_C 	C 	0.3687	0.854	0.4258	0.418
Mof_C 	C 	0.4503	0.9065	0.5351	-0.263
Mof_H 	H 	0.4501	0.9288	0.5035	0.082
Mof_H 	H 	0.4573	0.9179	0.5792	0.096
Mof_C 	C 	0.4988	0.8781	0.5203	0.418
Mof_C 	C 	0.2845	0.7129	0.5478	0.562
Mof_C 	C 	0.2265	0.8329	0.7009	0.598
Mof_O 	O 	8.43497e-34	0.7132	0.25	-0.59
Mof_O 	O 	0.5	0.2132	0.25	-0.597
Mof_O 	O 	2.53049e-33	0.2868	0.75	-0.589
Mof_O 	O 	0.5	0.7868	0.75	-0.597
_end
