# CIF file generated by openbabel 3.1.0, see https://openbabel.org
data_I
_chemical_name_common 'image0'
_cell_length_a 13.395
_cell_length_b 13.5119
_cell_length_c 17.62
_cell_angle_alpha 90
_cell_angle_beta 90
_cell_angle_gamma 90
_space_group_name_H-M_alt 'P 1'
_space_group_name_Hall 'P 1'
loop_
    _symmetry_equiv_pos_as_xyz
    x,y,z
loop_
    _atom_site_label
    _atom_site_type_symbol
    _atom_site_fract_x
    _atom_site_fract_y
    _atom_site_fract_z
    _atom_site_occupancy
    Co1      Co       0.23366    0.48936    0.42449    1.000
    O1       O        0.12640    0.55930    0.58900    1.000
    C1       C        0.06840    0.55750    0.53030    1.000
    Co2      Co       0.26945    0.50904    0.58330    1.000
    O2       O        0.09820    0.53100    0.46720    1.000
    C2       C        0.80450    0.82010    0.51800    1.000
    O3       O        0.77480    0.86460    0.57560    1.000
    C3       C        0.91930    0.52310    0.60790    1.000
    H1       H        0.92110    0.45390    0.59540    1.000
    H2       H        0.85160    0.54280    0.61740    1.000
    H3       H        0.95880    0.53470    0.65250    1.000
    O4       O        0.81190    0.85330    0.45130    1.000
    C4       C        0.96160    0.58350    0.54160    1.000
    C5       C        0.90060    0.56270    0.47190    1.000
    H4       H        0.86790    0.49890    0.47670    1.000
    H5       H        0.94350    0.56090    0.42760    1.000
    C6       C        0.82230    0.64440    0.46300    1.000
    H6       H        0.83270    0.68040    0.41600    1.000
    H7       H        0.75560    0.61660    0.46270    1.000
    C7       C        0.83640    0.71200    0.53070    1.000
    H8       H        0.79530    0.68570    0.57200    1.000
    C8       C        0.94770    0.69960    0.55490    1.000
    C9       C        0.96810    0.73670    0.63650    1.000
    H9       H        0.03880    0.74120    0.64460    1.000
    H10      H        0.93970    0.69120    0.67230    1.000
    H11      H        0.93840    0.80080    0.64320    1.000
    C10      C        0.01850    0.75590    0.50520    1.000
    H12      H        0.08510    0.74950    0.52470    1.000
    H13      H        0.99980    0.82450    0.50440    1.000
    H14      H        0.01590    0.72980    0.45450    1.000
    O5       O        0.70380    0.15280    0.54450    1.000
    O6       O        0.71740    0.13270    0.42080    1.000
    O7       O        0.40450    0.45970    0.54660    1.000
    O8       O        0.37930    0.45250    0.42160    1.000
    C11      C        0.69810    0.18600    0.47810    1.000
    C12      C        0.43170    0.44800    0.47800    1.000
    C13      C        0.73780    0.33380    0.40280    1.000
    H15      H        0.80560    0.33680    0.42020    1.000
    H16      H        0.71550    0.39910    0.38960    1.000
    H17      H        0.73390    0.29170    0.35900    1.000
    C14      C        0.67150    0.29210    0.46580    1.000
    C15      C        0.68430    0.35560    0.53870    1.000
    H18      H        0.66830    0.31660    0.58330    1.000
    H19      H        0.75270    0.37850    0.54310    1.000
    C16      C        0.61530    0.44090    0.53220    1.000
    H20      H        0.65250    0.50120    0.52260    1.000
    H21      H        0.57780    0.44920    0.57890    1.000
    C17      C        0.54310    0.41870    0.46480    1.000
    H22      H        0.56730    0.45500    0.42030    1.000
    C18      C        0.55760    0.30620    0.44930    1.000
    C19      C        0.53100    0.28310    0.36950    1.000
    H23      H        0.46570    0.30870    0.35860    1.000
    H24      H        0.53120    0.21270    0.36230    1.000
    H25      H        0.57880    0.31300    0.33600    1.000
    C20      C        0.49470    0.24290    0.50260    1.000
    H26      H        0.42520    0.25690    0.49440    1.000
    H27      H        0.51190    0.25770    0.55420    1.000
    H28      H        0.50730    0.17410    0.49260    1.000
    O9       O        0.31340    0.52260    0.69270    1.000
    O10      O        0.30950    0.52500    0.81630    1.000
    C21      C        0.26900    0.50360    0.75500    1.000
    C22      C        0.16960    0.45510    0.75340    1.000
    H29      H        0.17110    0.39660    0.78420    1.000
    H30      H        0.15320    0.43750    0.70210    1.000
    H31      H        0.12020    0.49990    0.77270    1.000
    Co3      Co       0.26634    0.51064    0.92449    1.000
    O11      O        0.37360    0.44070    0.08900    1.000
    C23      C        0.43160    0.44250    0.03030    1.000
    Co4      Co       0.23055    0.49096    0.08330    1.000
    O12      O        0.40180    0.46900    0.96720    1.000
    C24      C        0.69550    0.17990    0.01800    1.000
    O13      O        0.72520    0.13540    0.07560    1.000
    C25      C        0.58070    0.47690    0.10790    1.000
    H32      H        0.57890    0.54610    0.09540    1.000
    H33      H        0.64840    0.45720    0.11740    1.000
    H34      H        0.54120    0.46530    0.15250    1.000
    O14      O        0.68810    0.14670    0.95130    1.000
    C26      C        0.53840    0.41650    0.04160    1.000
    C27      C        0.59940    0.43730    0.97190    1.000
    H35      H        0.63210    0.50110    0.97670    1.000
    H36      H        0.55650    0.43910    0.92760    1.000
    C28      C        0.67770    0.35560    0.96300    1.000
    H37      H        0.66730    0.31960    0.91600    1.000
    H38      H        0.74440    0.38340    0.96270    1.000
    C29      C        0.66360    0.28800    0.03070    1.000
    H39      H        0.70470    0.31430    0.07200    1.000
    C30      C        0.55230    0.30040    0.05490    1.000
    C31      C        0.53190    0.26330    0.13650    1.000
    H40      H        0.46120    0.25880    0.14460    1.000
    H41      H        0.56030    0.30880    0.17230    1.000
    H42      H        0.56160    0.19920    0.14320    1.000
    C32      C        0.48150    0.24410    0.00520    1.000
    H43      H        0.41490    0.25050    0.02470    1.000
    H44      H        0.50020    0.17550    0.00440    1.000
    H45      H        0.48410    0.27020    0.95450    1.000
    O15      O        0.79620    0.84720    0.04450    1.000
    O16      O        0.78260    0.86730    0.92080    1.000
    O17      O        0.09550    0.54030    0.04660    1.000
    O18      O        0.12070    0.54750    0.92160    1.000
    C33      C        0.80190    0.81400    0.97810    1.000
    C34      C        0.06830    0.55200    0.97800    1.000
    C35      C        0.76220    0.66620    0.90280    1.000
    H46      H        0.69440    0.66320    0.92020    1.000
    H47      H        0.78450    0.60090    0.88960    1.000
    H48      H        0.76610    0.70830    0.85900    1.000
    C36      C        0.82850    0.70790    0.96580    1.000
    C37      C        0.81570    0.64440    0.03870    1.000
    H49      H        0.83170    0.68340    0.08330    1.000
    H50      H        0.74730    0.62150    0.04310    1.000
    C38      C        0.88470    0.55910    0.03220    1.000
    H51      H        0.84750    0.49880    0.02260    1.000
    H52      H        0.92220    0.55080    0.07890    1.000
    C39      C        0.95690    0.58130    0.96480    1.000
    H53      H        0.93270    0.54500    0.92030    1.000
    C40      C        0.94240    0.69380    0.94930    1.000
    C41      C        0.96900    0.71690    0.86950    1.000
    H54      H        0.03430    0.69130    0.85860    1.000
    H55      H        0.96880    0.78730    0.86230    1.000
    H56      H        0.92120    0.68700    0.83600    1.000
    C42      C        0.00530    0.75710    0.00260    1.000
    H57      H        0.07480    0.74310    0.99440    1.000
    H58      H        0.98810    0.74230    0.05420    1.000
    H59      H        0.99270    0.82590    0.99260    1.000
    O19      O        0.18660    0.47740    0.19270    1.000
    O20      O        0.19050    0.47500    0.31630    1.000
    C43      C        0.23100    0.49640    0.25500    1.000
    C44      C        0.33040    0.54490    0.25340    1.000
    H60      H        0.32890    0.60340    0.28420    1.000
    H61      H        0.34680    0.56250    0.20210    1.000
    H62      H        0.37980    0.50010    0.27270    1.000
    Co5      Co       0.76634    0.98936    0.07551    1.000
    O21      O        0.87360    0.05930    0.91100    1.000
    C45      C        0.93160    0.05750    0.96970    1.000
    Co6      Co       0.73055    0.00904    0.91670    1.000
    O22      O        0.90180    0.03100    0.03280    1.000
    C46      C        0.19550    0.32010    0.98200    1.000
    O23      O        0.22520    0.36460    0.92440    1.000
    C47      C        0.08070    0.02310    0.89210    1.000
    H63      H        0.07890    0.95390    0.90460    1.000
    H64      H        0.14840    0.04280    0.88260    1.000
    H65      H        0.04120    0.03470    0.84750    1.000
    O24      O        0.18810    0.35330    0.04870    1.000
    C48      C        0.03840    0.08350    0.95840    1.000
    C49      C        0.09940    0.06270    0.02810    1.000
    H66      H        0.13210    0.99890    0.02330    1.000
    H67      H        0.05650    0.06090    0.07240    1.000
    C50      C        0.17770    0.14440    0.03700    1.000
    H68      H        0.16730    0.18040    0.08400    1.000
    H69      H        0.24440    0.11660    0.03730    1.000
    C51      C        0.16360    0.21200    0.96930    1.000
    H70      H        0.20470    0.18570    0.92800    1.000
    C52      C        0.05230    0.19960    0.94510    1.000
    C53      C        0.03190    0.23670    0.86350    1.000
    H71      H        0.96120    0.24120    0.85540    1.000
    H72      H        0.06030    0.19120    0.82770    1.000
    H73      H        0.06160    0.30080    0.85680    1.000
    C54      C        0.98150    0.25590    0.99480    1.000
    H74      H        0.91490    0.24950    0.97530    1.000
    H75      H        0.00020    0.32450    0.99560    1.000
    H76      H        0.98410    0.22980    0.04550    1.000
    O25      O        0.29620    0.65280    0.95550    1.000
    O26      O        0.28260    0.63270    0.07920    1.000
    O27      O        0.59550    0.95970    0.95340    1.000
    O28      O        0.62070    0.95250    0.07840    1.000
    C55      C        0.30190    0.68600    0.02190    1.000
    C56      C        0.56830    0.94800    0.02200    1.000
    C57      C        0.26220    0.83380    0.09720    1.000
    H77      H        0.19440    0.83680    0.07980    1.000
    H78      H        0.28450    0.89910    0.11040    1.000
    H79      H        0.26610    0.79170    0.14100    1.000
    C58      C        0.32850    0.79210    0.03420    1.000
    C59      C        0.31570    0.85560    0.96130    1.000
    H80      H        0.33170    0.81660    0.91670    1.000
    H81      H        0.24730    0.87850    0.95690    1.000
    C60      C        0.38470    0.94090    0.96780    1.000
    H82      H        0.34750    0.00120    0.97740    1.000
    H83      H        0.42220    0.94920    0.92110    1.000
    C61      C        0.45690    0.91870    0.03520    1.000
    H84      H        0.43270    0.95500    0.07970    1.000
    C62      C        0.44240    0.80620    0.05070    1.000
    C63      C        0.46900    0.78310    0.13050    1.000
    H85      H        0.53430    0.80870    0.14140    1.000
    H86      H        0.46880    0.71270    0.13770    1.000
    H87      H        0.42120    0.81300    0.16400    1.000
    C64      C        0.50530    0.74290    0.99740    1.000
    H88      H        0.57480    0.75690    0.00560    1.000
    H89      H        0.48810    0.75770    0.94580    1.000
    H90      H        0.49270    0.67410    0.00740    1.000
    O29      O        0.68660    0.02260    0.80730    1.000
    O30      O        0.69050    0.02500    0.68370    1.000
    C65      C        0.73100    0.00360    0.74500    1.000
    C66      C        0.83040    0.95510    0.74660    1.000
    H91      H        0.82890    0.89660    0.71580    1.000
    H92      H        0.84680    0.93750    0.79790    1.000
    H93      H        0.87980    0.99990    0.72730    1.000
    Co7      Co       0.73366    0.01064    0.57551    1.000
    O31      O        0.62640    0.94070    0.41100    1.000
    C67      C        0.56840    0.94250    0.46970    1.000
    Co8      Co       0.76945    0.99096    0.41670    1.000
    O32      O        0.59820    0.96900    0.53280    1.000
    C68      C        0.30450    0.67990    0.48200    1.000
    O33      O        0.27480    0.63540    0.42440    1.000
    C69      C        0.41930    0.97690    0.39210    1.000
    H94      H        0.42110    0.04610    0.40460    1.000
    H95      H        0.35160    0.95720    0.38260    1.000
    H96      H        0.45880    0.96530    0.34750    1.000
    O34      O        0.31190    0.64670    0.54870    1.000
    C70      C        0.46160    0.91650    0.45840    1.000
    C71      C        0.40060    0.93730    0.52810    1.000
    H97      H        0.36790    0.00110    0.52330    1.000
    H98      H        0.44350    0.93910    0.57240    1.000
    C72      C        0.32230    0.85560    0.53700    1.000
    H99      H        0.33270    0.81960    0.58400    1.000
    H100     H        0.25560    0.88340    0.53730    1.000
    C73      C        0.33640    0.78800    0.46930    1.000
    H101     H        0.29530    0.81430    0.42800    1.000
    C74      C        0.44770    0.80040    0.44510    1.000
    C75      C        0.46810    0.76330    0.36350    1.000
    H102     H        0.53880    0.75880    0.35540    1.000
    H103     H        0.43970    0.80880    0.32770    1.000
    H104     H        0.43840    0.69920    0.35680    1.000
    C76      C        0.51850    0.74410    0.49480    1.000
    H105     H        0.58510    0.75050    0.47530    1.000
    H106     H        0.49980    0.67550    0.49560    1.000
    H107     H        0.51590    0.77020    0.54550    1.000
    O35      O        0.20380    0.34720    0.45550    1.000
    O36      O        0.21740    0.36730    0.57920    1.000
    O37      O        0.90450    0.04030    0.45340    1.000
    O38      O        0.87930    0.04750    0.57840    1.000
    C77      C        0.19810    0.31400    0.52190    1.000
    C78      C        0.93170    0.05200    0.52200    1.000
    C79      C        0.23780    0.16620    0.59720    1.000
    H108     H        0.30560    0.16320    0.57980    1.000
    H109     H        0.21550    0.10090    0.61040    1.000
    H110     H        0.23390    0.20830    0.64100    1.000
    C80      C        0.17150    0.20790    0.53420    1.000
    C81      C        0.18430    0.14440    0.46130    1.000
    H111     H        0.16830    0.18340    0.41670    1.000
    H112     H        0.25270    0.12150    0.45690    1.000
    C82      C        0.11530    0.05910    0.46780    1.000
    H113     H        0.15250    0.99880    0.47740    1.000
    H114     H        0.07780    0.05080    0.42110    1.000
    C83      C        0.04310    0.08130    0.53520    1.000
    H115     H        0.06730    0.04500    0.57970    1.000
    C84      C        0.05760    0.19380    0.55070    1.000
    C85      C        0.03100    0.21690    0.63050    1.000
    H116     H        0.96570    0.19130    0.64140    1.000
    H117     H        0.03120    0.28730    0.63770    1.000
    H118     H        0.07880    0.18700    0.66400    1.000
    C86      C        0.99470    0.25710    0.49740    1.000
    H119     H        0.92520    0.24310    0.50560    1.000
    H120     H        0.01190    0.24230    0.44580    1.000
    H121     H        0.00730    0.32590    0.50740    1.000
    O39      O        0.81340    0.97740    0.30730    1.000
    O40      O        0.80950    0.97500    0.18370    1.000
    C87      C        0.76900    0.99640    0.24500    1.000
    C88      C        0.66960    0.04490    0.24660    1.000
    H122     H        0.67110    0.10340    0.21580    1.000
    H123     H        0.65320    0.06250    0.29790    1.000
    H124     H        0.62020    0.00010    0.22730    1.000
