# CIF file generated by openbabel 3.1.0, see https://openbabel.org
data_I
_chemical_name_common 'image0'
_cell_length_a 27.7471
_cell_length_b 27.7471
_cell_length_c 3.6323
_cell_angle_alpha 90
_cell_angle_beta 90
_cell_angle_gamma 90
_space_group_name_H-M_alt 'P 1'
_space_group_name_Hall 'P 1'
loop_
    _symmetry_equiv_pos_as_xyz
    x,y,z
loop_
    _atom_site_label
    _atom_site_type_symbol
    _atom_site_fract_x
    _atom_site_fract_y
    _atom_site_fract_z
    _atom_site_occupancy
    Zn1      Zn       0.28404    0.21392    0.85730    1.000
    N1       N        0.25930    0.14540    0.78900    1.000
    C1       C        0.27990    0.10850    0.94600    1.000
    H1       H        0.30990    0.11040    0.05860    1.000
    N2       N        0.25370    0.06720    0.93100    1.000
    C2       C        0.21530    0.12900    0.65670    1.000
    O1       O        0.27450    0.85880    0.60400    1.000
    C3       C        0.17900    0.15280    0.46900    1.000
    H2       H        0.18200    0.18530    0.41180    1.000
    O2       O        0.34040    0.86190    0.27700    1.000
    C4       C        0.13820    0.12740    0.36910    1.000
    C5       C        0.10080    0.14890    0.17800    1.000
    H3       H        0.10340    0.18130    0.11790    1.000
    C6       C        0.05980    0.12410    0.07400    1.000
    H4       H        0.03520    0.13940    0.94480    1.000
    C7       C        0.05650    0.07580    0.16800    1.000
    H5       H        0.02930    0.05820    0.10400    1.000
    C8       C        0.09370    0.05370    0.35700    1.000
    H6       H        0.09110    0.02120    0.41590    1.000
    C9       C        0.13500    0.07880    0.46180    1.000
    C10      C        0.17110    0.05520    0.64900    1.000
    H7       H        0.16810    0.02270    0.70730    1.000
    C11      C        0.21180    0.08050    0.74800    1.000
    C12      C        0.24490    0.94540    0.31000    1.000
    H8       H        0.22110    0.92460    0.39440    1.000
    C13      C        0.29290    0.93100    0.31300    1.000
    C14      C        0.32850    0.96210    0.18600    1.000
    H9       H        0.36060    0.95250    0.18820    1.000
    C15      C        0.31610    0.00760    0.05700    1.000
    H10      H        0.33990    0.02850    0.97240    1.000
    C16      C        0.26810    0.02200    0.05400    1.000
    C17      C        0.23250    0.99090    0.18000    1.000
    H11      H        0.20040    0.00050    0.17860    1.000
    C18      C        0.30300    0.88040    0.44900    1.000
    O3       O        0.28530    0.24690    0.36800    1.000
    H12      H        0.30830    0.23470    0.24400    1.000
    O4       O        0.34320    0.87300    0.63200    1.000
    Zn2      Zn       0.71596    0.78608    0.85730    1.000
    N3       N        0.74070    0.85460    0.78900    1.000
    C19      C        0.72010    0.89150    0.94600    1.000
    H13      H        0.69010    0.88960    0.05860    1.000
    N4       N        0.74630    0.93280    0.93100    1.000
    C20      C        0.78470    0.87100    0.65670    1.000
    O5       O        0.72550    0.14120    0.60400    1.000
    C21      C        0.82100    0.84720    0.46900    1.000
    H14      H        0.81800    0.81470    0.41180    1.000
    O6       O        0.65960    0.13810    0.27700    1.000
    C22      C        0.86180    0.87260    0.36910    1.000
    C23      C        0.89920    0.85110    0.17800    1.000
    H15      H        0.89660    0.81870    0.11790    1.000
    C24      C        0.94020    0.87590    0.07400    1.000
    H16      H        0.96480    0.86060    0.94480    1.000
    C25      C        0.94350    0.92420    0.16800    1.000
    H17      H        0.97070    0.94180    0.10400    1.000
    C26      C        0.90630    0.94630    0.35700    1.000
    H18      H        0.90890    0.97880    0.41590    1.000
    C27      C        0.86500    0.92120    0.46180    1.000
    C28      C        0.82890    0.94480    0.64900    1.000
    H19      H        0.83190    0.97730    0.70730    1.000
    C29      C        0.78820    0.91950    0.74800    1.000
    C30      C        0.75510    0.05460    0.31000    1.000
    H20      H        0.77890    0.07540    0.39440    1.000
    C31      C        0.70710    0.06900    0.31300    1.000
    C32      C        0.67150    0.03790    0.18600    1.000
    H21      H        0.63940    0.04750    0.18820    1.000
    C33      C        0.68390    0.99240    0.05700    1.000
    H22      H        0.66010    0.97150    0.97240    1.000
    C34      C        0.73190    0.97800    0.05400    1.000
    C35      C        0.76750    0.00910    0.18000    1.000
    H23      H        0.79960    0.99950    0.17860    1.000
    C36      C        0.69700    0.11960    0.44900    1.000
    O7       O        0.71470    0.75310    0.36800    1.000
    H24      H        0.69170    0.76530    0.24400    1.000
    O8       O        0.65680    0.12700    0.63200    1.000
    Zn3      Zn       0.71392    0.21596    0.64270    1.000
    N5       N        0.64540    0.24070    0.71100    1.000
    C37      C        0.60850    0.22010    0.55400    1.000
    H25      H        0.61040    0.19010    0.44140    1.000
    N6       N        0.56720    0.24630    0.56900    1.000
    C38      C        0.62900    0.28470    0.84330    1.000
    O9       O        0.35880    0.22550    0.89600    1.000
    C39      C        0.65280    0.32100    0.03100    1.000
    H26      H        0.68530    0.31800    0.08820    1.000
    O10      O        0.36190    0.15960    0.22300    1.000
    C40      C        0.62740    0.36180    0.13090    1.000
    C41      C        0.64890    0.39920    0.32200    1.000
    H27      H        0.68130    0.39660    0.38210    1.000
    C42      C        0.62410    0.44020    0.42600    1.000
    H28      H        0.63940    0.46480    0.55520    1.000
    C43      C        0.57580    0.44350    0.33200    1.000
    H29      H        0.55820    0.47070    0.39600    1.000
    C44      C        0.55370    0.40630    0.14300    1.000
    H30      H        0.52120    0.40890    0.08410    1.000
    C45      C        0.57880    0.36500    0.03820    1.000
    C46      C        0.55520    0.32890    0.85100    1.000
    H31      H        0.52270    0.33190    0.79270    1.000
    C47      C        0.58050    0.28820    0.75200    1.000
    C48      C        0.44540    0.25510    0.19000    1.000
    H32      H        0.42460    0.27890    0.10560    1.000
    C49      C        0.43100    0.20710    0.18700    1.000
    C50      C        0.46210    0.17150    0.31400    1.000
    H33      H        0.45250    0.13940    0.31180    1.000
    C51      C        0.50760    0.18390    0.44300    1.000
    H34      H        0.52850    0.16010    0.52760    1.000
    C52      C        0.52200    0.23190    0.44600    1.000
    C53      C        0.49090    0.26750    0.32000    1.000
    H35      H        0.50050    0.29960    0.32140    1.000
    C54      C        0.38040    0.19700    0.05100    1.000
    O11      O        0.74690    0.21470    0.13200    1.000
    H36      H        0.73470    0.19170    0.25600    1.000
    O12      O        0.37300    0.15680    0.86800    1.000
    Zn4      Zn       0.28608    0.78404    0.64270    1.000
    N7       N        0.35460    0.75930    0.71100    1.000
    C55      C        0.39150    0.77990    0.55400    1.000
    H37      H        0.38960    0.80990    0.44140    1.000
    N8       N        0.43280    0.75370    0.56900    1.000
    C56      C        0.37100    0.71530    0.84330    1.000
    O13      O        0.64120    0.77450    0.89600    1.000
    C57      C        0.34720    0.67900    0.03100    1.000
    H38      H        0.31470    0.68200    0.08820    1.000
    O14      O        0.63810    0.84040    0.22300    1.000
    C58      C        0.37260    0.63820    0.13090    1.000
    C59      C        0.35110    0.60080    0.32200    1.000
    H39      H        0.31870    0.60340    0.38210    1.000
    C60      C        0.37590    0.55980    0.42600    1.000
    H40      H        0.36060    0.53520    0.55520    1.000
    C61      C        0.42420    0.55650    0.33200    1.000
    H41      H        0.44180    0.52930    0.39600    1.000
    C62      C        0.44630    0.59370    0.14300    1.000
    H42      H        0.47880    0.59110    0.08410    1.000
    C63      C        0.42120    0.63500    0.03820    1.000
    C64      C        0.44480    0.67110    0.85100    1.000
    H43      H        0.47730    0.66810    0.79270    1.000
    C65      C        0.41950    0.71180    0.75200    1.000
    C66      C        0.55460    0.74490    0.19000    1.000
    H44      H        0.57540    0.72110    0.10560    1.000
    C67      C        0.56900    0.79290    0.18700    1.000
    C68      C        0.53790    0.82850    0.31400    1.000
    H45      H        0.54750    0.86060    0.31180    1.000
    C69      C        0.49240    0.81610    0.44300    1.000
    H46      H        0.47150    0.83990    0.52760    1.000
    C70      C        0.47800    0.76810    0.44600    1.000
    C71      C        0.50910    0.73250    0.32000    1.000
    H47      H        0.49950    0.70040    0.32140    1.000
    C72      C        0.61960    0.80300    0.05100    1.000
    O15      O        0.25310    0.78530    0.13200    1.000
    H48      H        0.26530    0.80830    0.25600    1.000
    O16      O        0.62700    0.84320    0.86800    1.000
    Zn5      Zn       0.78404    0.71392    0.35730    1.000
    N9       N        0.75930    0.64540    0.28900    1.000
    C73      C        0.77990    0.60850    0.44600    1.000
    H49      H        0.80990    0.61040    0.55860    1.000
    N10      N        0.75370    0.56720    0.43100    1.000
    C74      C        0.71530    0.62900    0.15670    1.000
    O17      O        0.77450    0.35880    0.10400    1.000
    C75      C        0.67900    0.65280    0.96900    1.000
    H50      H        0.68200    0.68530    0.91180    1.000
    O18      O        0.84040    0.36190    0.77700    1.000
    C76      C        0.63820    0.62740    0.86910    1.000
    C77      C        0.60080    0.64890    0.67800    1.000
    H51      H        0.60340    0.68130    0.61790    1.000
    C78      C        0.55980    0.62410    0.57400    1.000
    H52      H        0.53520    0.63940    0.44480    1.000
    C79      C        0.55650    0.57580    0.66800    1.000
    H53      H        0.52930    0.55820    0.60400    1.000
    C80      C        0.59370    0.55370    0.85700    1.000
    H54      H        0.59110    0.52120    0.91590    1.000
    C81      C        0.63500    0.57880    0.96180    1.000
    C82      C        0.67110    0.55520    0.14900    1.000
    H55      H        0.66810    0.52270    0.20730    1.000
    C83      C        0.71180    0.58050    0.24800    1.000
    C84      C        0.74490    0.44540    0.81000    1.000
    H56      H        0.72110    0.42460    0.89440    1.000
    C85      C        0.79290    0.43100    0.81300    1.000
    C86      C        0.82850    0.46210    0.68600    1.000
    H57      H        0.86060    0.45250    0.68820    1.000
    C87      C        0.81610    0.50760    0.55700    1.000
    H58      H        0.83990    0.52850    0.47240    1.000
    C88      C        0.76810    0.52200    0.55400    1.000
    C89      C        0.73250    0.49090    0.68000    1.000
    H59      H        0.70040    0.50050    0.67860    1.000
    C90      C        0.80300    0.38040    0.94900    1.000
    O19      O        0.78530    0.74690    0.86800    1.000
    H60      H        0.80830    0.73470    0.74400    1.000
    O20      O        0.84320    0.37300    0.13200    1.000
    Zn6      Zn       0.21596    0.28608    0.35730    1.000
    N11      N        0.24070    0.35460    0.28900    1.000
    C91      C        0.22010    0.39150    0.44600    1.000
    H61      H        0.19010    0.38960    0.55860    1.000
    N12      N        0.24630    0.43280    0.43100    1.000
    C92      C        0.28470    0.37100    0.15670    1.000
    O21      O        0.22550    0.64120    0.10400    1.000
    C93      C        0.32100    0.34720    0.96900    1.000
    H62      H        0.31800    0.31470    0.91180    1.000
    O22      O        0.15960    0.63810    0.77700    1.000
    C94      C        0.36180    0.37260    0.86910    1.000
    C95      C        0.39920    0.35110    0.67800    1.000
    H63      H        0.39660    0.31870    0.61790    1.000
    C96      C        0.44020    0.37590    0.57400    1.000
    H64      H        0.46480    0.36060    0.44480    1.000
    C97      C        0.44350    0.42420    0.66800    1.000
    H65      H        0.47070    0.44180    0.60400    1.000
    C98      C        0.40630    0.44630    0.85700    1.000
    H66      H        0.40890    0.47880    0.91590    1.000
    C99      C        0.36500    0.42120    0.96180    1.000
    C100     C        0.32890    0.44480    0.14900    1.000
    H67      H        0.33190    0.47730    0.20730    1.000
    C101     C        0.28820    0.41950    0.24800    1.000
    C102     C        0.25510    0.55460    0.81000    1.000
    H68      H        0.27890    0.57540    0.89440    1.000
    C103     C        0.20710    0.56900    0.81300    1.000
    C104     C        0.17150    0.53790    0.68600    1.000
    H69      H        0.13940    0.54750    0.68820    1.000
    C105     C        0.18390    0.49240    0.55700    1.000
    H70      H        0.16010    0.47150    0.47240    1.000
    C106     C        0.23190    0.47800    0.55400    1.000
    C107     C        0.26750    0.50910    0.68000    1.000
    H71      H        0.29960    0.49950    0.67860    1.000
    C108     C        0.19700    0.61960    0.94900    1.000
    O23      O        0.21470    0.25310    0.86800    1.000
    H72      H        0.19170    0.26530    0.74400    1.000
    O24      O        0.15680    0.62700    0.13200    1.000
    Zn7      Zn       0.21392    0.71596    0.14270    1.000
    N13      N        0.14540    0.74070    0.21100    1.000
    C109     C        0.10850    0.72010    0.05400    1.000
    H73      H        0.11040    0.69010    0.94140    1.000
    N14      N        0.06720    0.74630    0.06900    1.000
    C110     C        0.12900    0.78470    0.34330    1.000
    O25      O        0.85880    0.72550    0.39600    1.000
    C111     C        0.15280    0.82100    0.53100    1.000
    H74      H        0.18530    0.81800    0.58820    1.000
    O26      O        0.86190    0.65960    0.72300    1.000
    C112     C        0.12740    0.86180    0.63090    1.000
    C113     C        0.14890    0.89920    0.82200    1.000
    H75      H        0.18130    0.89660    0.88210    1.000
    C114     C        0.12410    0.94020    0.92600    1.000
    H76      H        0.13940    0.96480    0.05520    1.000
    C115     C        0.07580    0.94350    0.83200    1.000
    H77      H        0.05820    0.97070    0.89600    1.000
    C116     C        0.05370    0.90630    0.64300    1.000
    H78      H        0.02120    0.90890    0.58410    1.000
    C117     C        0.07880    0.86500    0.53820    1.000
    C118     C        0.05520    0.82890    0.35100    1.000
    H79      H        0.02270    0.83190    0.29270    1.000
    C119     C        0.08050    0.78820    0.25200    1.000
    C120     C        0.94540    0.75510    0.69000    1.000
    H80      H        0.92460    0.77890    0.60560    1.000
    C121     C        0.93100    0.70710    0.68700    1.000
    C122     C        0.96210    0.67150    0.81400    1.000
    H81      H        0.95250    0.63940    0.81180    1.000
    C123     C        0.00760    0.68390    0.94300    1.000
    H82      H        0.02850    0.66010    0.02760    1.000
    C124     C        0.02200    0.73190    0.94600    1.000
    C125     C        0.99090    0.76750    0.82000    1.000
    H83      H        0.00050    0.79960    0.82140    1.000
    C126     C        0.88040    0.69700    0.55100    1.000
    O27      O        0.24690    0.71470    0.63200    1.000
    H84      H        0.23470    0.69170    0.75600    1.000
    O28      O        0.87300    0.65680    0.36800    1.000
    Zn8      Zn       0.78608    0.28404    0.14270    1.000
    N15      N        0.85460    0.25930    0.21100    1.000
    C127     C        0.89150    0.27990    0.05400    1.000
    H85      H        0.88960    0.30990    0.94140    1.000
    N16      N        0.93280    0.25370    0.06900    1.000
    C128     C        0.87100    0.21530    0.34330    1.000
    O29      O        0.14120    0.27450    0.39600    1.000
    C129     C        0.84720    0.17900    0.53100    1.000
    H86      H        0.81470    0.18200    0.58820    1.000
    O30      O        0.13810    0.34040    0.72300    1.000
    C130     C        0.87260    0.13820    0.63090    1.000
    C131     C        0.85110    0.10080    0.82200    1.000
    H87      H        0.81870    0.10340    0.88210    1.000
    C132     C        0.87590    0.05980    0.92600    1.000
    H88      H        0.86060    0.03520    0.05520    1.000
    C133     C        0.92420    0.05650    0.83200    1.000
    H89      H        0.94180    0.02930    0.89600    1.000
    C134     C        0.94630    0.09370    0.64300    1.000
    H90      H        0.97880    0.09110    0.58410    1.000
    C135     C        0.92120    0.13500    0.53820    1.000
    C136     C        0.94480    0.17110    0.35100    1.000
    H91      H        0.97730    0.16810    0.29270    1.000
    C137     C        0.91950    0.21180    0.25200    1.000
    C138     C        0.05460    0.24490    0.69000    1.000
    H92      H        0.07540    0.22110    0.60560    1.000
    C139     C        0.06900    0.29290    0.68700    1.000
    C140     C        0.03790    0.32850    0.81400    1.000
    H93      H        0.04750    0.36060    0.81180    1.000
    C141     C        0.99240    0.31610    0.94300    1.000
    H94      H        0.97150    0.33990    0.02760    1.000
    C142     C        0.97800    0.26810    0.94600    1.000
    C143     C        0.00910    0.23250    0.82000    1.000
    H95      H        0.99950    0.20040    0.82140    1.000
    C144     C        0.11960    0.30300    0.55100    1.000
    O31      O        0.75310    0.28530    0.63200    1.000
    H96      H        0.76530    0.30830    0.75600    1.000
    O32      O        0.12700    0.34320    0.36800    1.000
