# CIF file generated by openbabel 3.1.0, see https://openbabel.org
data_I
_chemical_name_common 'image0'
_cell_length_a 13.302
_cell_length_b 13.352
_cell_length_c 19.894
_cell_angle_alpha 95.63
_cell_angle_beta 104.8
_cell_angle_gamma 117.75
_space_group_name_H-M_alt 'P 1'
_space_group_name_Hall 'P 1'
loop_
    _symmetry_equiv_pos_as_xyz
    x,y,z
loop_
    _atom_site_label
    _atom_site_type_symbol
    _atom_site_fract_x
    _atom_site_fract_y
    _atom_site_fract_z
    _atom_site_occupancy
    Gd1      Gd       0.66186    0.94605    0.59540    1.000
    Gd2      Gd       0.81987    0.03774    0.90470    1.000
    Cu1      Cu       0.77260    0.00226    0.24741    1.000
    Cu2      Cu       0.74359    0.48346    0.75072    1.000
    Cl1      Cl       0.93926    0.59707    0.74292    1.000
    P1       P        0.86940    0.07330    0.49879    1.000
    P2       P        0.63815    0.19729    0.54283    1.000
    Cl2      Cl       0.64510    0.80416    0.24565    1.000
    P3       P        0.87873    0.80311    0.94609    1.000
    P4       P        0.46318    0.08922    0.25632    1.000
    P5       P        0.05787    0.88314    0.24193    1.000
    P6       P        0.61770    0.87050    0.99508    1.000
    P7       P        0.61040    0.65315    0.57958    1.000
    P8       P        0.89420    0.34176    0.93390    1.000
    O1       O        0.00830    0.86690    0.99580    1.000
    O2       O        0.51420    0.17070    0.50050    1.000
    O3       O        0.15900    0.95140    0.31280    1.000
    O4       O        0.66130    0.77910    0.61330    1.000
    O5       O        0.43160    0.06070    0.32156    1.000
    O6       O        0.83830    0.87510    0.90570    1.000
    O7       O        0.08360    0.91960    0.17640    1.000
    O8       O        0.82340    0.21030    0.90840    1.000
    O9       O        0.71080    0.97480    0.97890    1.000
    O10      O        0.54326    0.22420    0.26940    1.000
    O11      O        0.60130    0.75390    0.96370    1.000
    O12      O        0.64480    0.10100    0.57420    1.000
    O13      O        0.77850    0.98140    0.52400    1.000
    O14      O        0.01270    0.74900    0.23010    1.000
    O15      O        0.36150    0.04349    0.18660    1.000
    O16      O        0.71940    0.23430    0.49490    1.000
    O17      O        0.64980    0.64430    0.51250    1.000
    O18      O        0.99370    0.08410    0.52500    1.000
    O19      O        0.79220    0.74060    0.98800    1.000
    O20      O        0.47540    0.57460    0.55880    1.000
    O21      O        0.86370    0.39130    0.99260    1.000
    O22      O        0.49780    0.86780    0.97200    1.000
    N1       N        0.64240    0.54500    0.69410    1.000
    O23      O        0.88680    0.19400    0.51850    1.000
    N2       N        0.63920    0.33440    0.66140    1.000
    N3       N        0.74470    0.57810    0.84410    1.000
    N4       N        0.75540    0.37230    0.81160    1.000
    O24      O        0.03210    0.38580    0.95860    1.000
    C1       C        0.67480    0.37180    0.85130    1.000
    H1       H        0.59350    0.33930    0.81770    1.000
    H2       H        0.67200    0.32290    0.88460    1.000
    N5       N        0.68080    0.09510    0.24860    1.000
    C2       C        0.87780    0.40890    0.85860    1.000
    H3       H        0.92020    0.49290    0.87820    1.000
    H4       H        0.91930    0.39400    0.82880    1.000
    C3       C        0.55690    0.02410    0.24670    1.000
    H5       H        0.51290    0.96490    0.20130    1.000
    H6       H        0.55960    0.98330    0.28420    1.000
    C4       C        0.52350    0.43370    0.66480    1.000
    H7       H        0.46280    0.44760    0.63580    1.000
    H8       H        0.49850    0.40490    0.70410    1.000
    N6       N        0.92900    0.00210    0.24540    1.000
    C5       C        0.92690    0.89090    0.24620    1.000
    H9       H        0.91320    0.87020    0.28970    1.000
    H10      H        0.85740    0.83100    0.20600    1.000
    C6       C        0.80800    0.01530    0.40120    1.000
    H11      H        0.80930    0.94340    0.39110    1.000
    H12      H        0.72370    0.99390    0.38550    1.000
    C7       C        0.86310    0.68860    0.87840    1.000
    H13      H        0.92210    0.66760    0.90040    1.000
    H14      H        0.88610    0.72320    0.84020    1.000
    C8       C        0.53390    0.34280    0.61910    1.000
    H15      H        0.54530    0.36520    0.57560    1.000
    H16      H        0.46020    0.26730    0.60560    1.000
    C9       C        0.71110    0.32830    0.61690    1.000
    H17      H        0.73550    0.39590    0.59700    1.000
    H18      H        0.78420    0.33510    0.64840    1.000
    C10      C        0.59940    0.23590    0.69580    1.000
    H19      H        0.53270    0.22820    0.71060    1.000
    H20      H        0.57110    0.16370    0.66140    1.000
    C11      C        0.70150    0.25540    0.76040    1.000
    H21      H        0.76340    0.25180    0.74480    1.000
    H22      H        0.67150    0.19390    0.78480    1.000
    N7       N        0.74410    0.00500    0.14200    1.000
    C12      C        0.64110    0.59470    0.81610    1.000
    H23      H        0.64650    0.65450    0.85110    1.000
    H24      H        0.56640    0.52240    0.80800    1.000
    N8       N        0.86480    0.08810    0.35470    1.000
    C13      C        0.72080    0.49600    0.89270    1.000
    H25      H        0.66120    0.49630    0.91220    1.000
    H26      H        0.79480    0.52280    0.93260    1.000
    C14      C        0.63990    0.63120    0.74550    1.000
    H27      H        0.56770    0.63520    0.72530    1.000
    H28      H        0.70980    0.70820    0.75440    1.000
    C15      C        0.68940    0.59690    0.63810    1.000
    H29      H        0.69260    0.53780    0.60770    1.000
    H30      H        0.77210    0.66050    0.66230    1.000
    C16      C        0.66280    0.88760    0.09200    1.000
    H31      H        0.58930    0.85200    0.10370    1.000
    H32      H        0.70080    0.84160    0.10290    1.000
    C17      C        0.02080    0.10050    0.29840    1.000
    H33      H        0.02900    0.17010    0.28350    1.000
    H34      H        0.09670    0.10220    0.30630    1.000
    C18      C        0.69100    0.14500    0.18770    1.000
    H35      H        0.76680    0.21900    0.20370    1.000
    H36      H        0.62650    0.16200    0.17290    1.000
    C19      C        0.99450    0.09910    0.36210    1.000
    H37      H        0.05780    0.17040    0.39820    1.000
    H38      H        0.99560    0.03390    0.37920    1.000
    C20      C        0.92820    0.02200    0.16480    1.000
    H39      H        0.89590    0.94700    0.13190    1.000
    H40      H        0.01090    0.07180    0.16700    1.000
    C21      C        0.86210    0.07120    0.13810    1.000
    H41      H        0.85650    0.07170    0.08860    1.000
    H42      H        0.90110    0.15140    0.16590    1.000
    C22      C        0.75890    0.18650    0.32460    1.000
    C23      C        0.68700    0.07940    0.12850    1.000
    H43      H        0.72590    0.13200    0.10110    1.000
    H44      H        0.60260    0.02810    0.09850    1.000
    C24      C        0.86270    0.19350    0.35760    1.000
    H45      H        0.88990    0.23310    0.40780    1.000
    H46      H        0.92150    0.24310    0.33750    1.000
    Gd3      Gd       0.33814    0.05395    0.40460    1.000
    Gd4      Gd       0.18013    0.96226    0.09530    1.000
    Cu3      Cu       0.22740    0.99774    0.75259    1.000
    Cu4      Cu       0.25641    0.51654    0.24928    1.000
    Cl3      Cl       0.06074    0.40293    0.25708    1.000
    P9       P        0.13060    0.92670    0.50121    1.000
    P10      P        0.36185    0.80271    0.45717    1.000
    Cl4      Cl       0.35490    0.19584    0.75435    1.000
    P11      P        0.12127    0.19689    0.05391    1.000
    P12      P        0.53682    0.91078    0.74368    1.000
    P13      P        0.94213    0.11686    0.75807    1.000
    P14      P        0.38230    0.12950    0.00492    1.000
    P15      P        0.38960    0.34685    0.42042    1.000
    P16      P        0.10580    0.65824    0.06610    1.000
    O25      O        0.99170    0.13310    0.00420    1.000
    O26      O        0.48580    0.82930    0.49950    1.000
    O27      O        0.84100    0.04860    0.68720    1.000
    O28      O        0.33870    0.22090    0.38670    1.000
    O29      O        0.56840    0.93930    0.67844    1.000
    O30      O        0.16170    0.12490    0.09430    1.000
    O31      O        0.91640    0.08040    0.82360    1.000
    O32      O        0.17660    0.78970    0.09160    1.000
    O33      O        0.28920    0.02520    0.02110    1.000
    O34      O        0.45674    0.77580    0.73060    1.000
    O35      O        0.39870    0.24610    0.03630    1.000
    O36      O        0.35520    0.89900    0.42580    1.000
    O37      O        0.22150    0.01860    0.47600    1.000
    O38      O        0.98730    0.25100    0.76990    1.000
    O39      O        0.63850    0.95651    0.81340    1.000
    O40      O        0.28060    0.76570    0.50510    1.000
    O41      O        0.35020    0.35570    0.48750    1.000
    O42      O        0.00630    0.91590    0.47500    1.000
    O43      O        0.20780    0.25940    0.01200    1.000
    O44      O        0.52460    0.42540    0.44120    1.000
    O45      O        0.13630    0.60870    0.00740    1.000
    O46      O        0.50220    0.13220    0.02800    1.000
    N9       N        0.35760    0.45500    0.30590    1.000
    O47      O        0.11320    0.80600    0.48150    1.000
    N10      N        0.36080    0.66560    0.33860    1.000
    N11      N        0.25530    0.42190    0.15590    1.000
    N12      N        0.24460    0.62770    0.18840    1.000
    O48      O        0.96790    0.61420    0.04140    1.000
    C25      C        0.32520    0.62820    0.14870    1.000
    H47      H        0.40650    0.66070    0.18230    1.000
    H48      H        0.32800    0.67710    0.11540    1.000
    N13      N        0.31920    0.90490    0.75140    1.000
    C26      C        0.12220    0.59110    0.14140    1.000
    H49      H        0.07980    0.50710    0.12180    1.000
    H50      H        0.08070    0.60600    0.17120    1.000
    C27      C        0.44310    0.97590    0.75330    1.000
    H51      H        0.48710    0.03510    0.79870    1.000
    H52      H        0.44040    0.01670    0.71580    1.000
    C28      C        0.47650    0.56630    0.33520    1.000
    H53      H        0.53720    0.55240    0.36420    1.000
    H54      H        0.50150    0.59510    0.29590    1.000
    N14      N        0.07100    0.99790    0.75460    1.000
    C29      C        0.07310    0.10910    0.75380    1.000
    H55      H        0.08680    0.12980    0.71030    1.000
    H56      H        0.14260    0.16900    0.79400    1.000
    C30      C        0.19200    0.98470    0.59880    1.000
    H57      H        0.19070    0.05660    0.60890    1.000
    H58      H        0.27630    0.00610    0.61450    1.000
    C31      C        0.13690    0.31140    0.12160    1.000
    H59      H        0.07790    0.33240    0.09960    1.000
    H60      H        0.11390    0.27680    0.15980    1.000
    C32      C        0.46610    0.65720    0.38090    1.000
    H61      H        0.45470    0.63480    0.42440    1.000
    H62      H        0.53980    0.73270    0.39440    1.000
    C33      C        0.28890    0.67170    0.38310    1.000
    H63      H        0.26450    0.60410    0.40300    1.000
    H64      H        0.21580    0.66490    0.35160    1.000
    C34      C        0.40060    0.76410    0.30420    1.000
    H65      H        0.46730    0.77180    0.28940    1.000
    H66      H        0.42890    0.83630    0.33860    1.000
    C35      C        0.29850    0.74460    0.23960    1.000
    H67      H        0.23660    0.74820    0.25520    1.000
    H68      H        0.32850    0.80610    0.21520    1.000
    N15      N        0.25590    0.99500    0.85800    1.000
    C36      C        0.35890    0.40530    0.18390    1.000
    H69      H        0.35350    0.34550    0.14890    1.000
    H70      H        0.43360    0.47760    0.19200    1.000
    N16      N        0.13520    0.91190    0.64530    1.000
    C37      C        0.27920    0.50400    0.10730    1.000
    H71      H        0.33880    0.50370    0.08780    1.000
    H72      H        0.20520    0.47720    0.06740    1.000
    C38      C        0.36010    0.36880    0.25450    1.000
    H73      H        0.43230    0.36480    0.27470    1.000
    H74      H        0.29020    0.29180    0.24560    1.000
    C39      C        0.31060    0.40310    0.36190    1.000
    H75      H        0.30740    0.46220    0.39230    1.000
    H76      H        0.22790    0.33950    0.33770    1.000
    C40      C        0.33720    0.11240    0.90800    1.000
    H77      H        0.41070    0.14800    0.89630    1.000
    H78      H        0.29920    0.15840    0.89710    1.000
    C41      C        0.97920    0.89950    0.70160    1.000
    H79      H        0.97100    0.82990    0.71650    1.000
    H80      H        0.90330    0.89780    0.69370    1.000
    C42      C        0.30900    0.85500    0.81230    1.000
    H81      H        0.23320    0.78100    0.79630    1.000
    H82      H        0.37350    0.83800    0.82710    1.000
    C43      C        0.00550    0.90090    0.63790    1.000
    H83      H        0.94220    0.82960    0.60180    1.000
    H84      H        0.00440    0.96610    0.62080    1.000
    C44      C        0.07180    0.97800    0.83520    1.000
    H85      H        0.10410    0.05300    0.86810    1.000
    H86      H        0.98910    0.92820    0.83300    1.000
    C45      C        0.13790    0.92880    0.86190    1.000
    H87      H        0.14350    0.92830    0.91140    1.000
    H88      H        0.09890    0.84860    0.83410    1.000
    C46      C        0.24110    0.81350    0.67540    1.000
    C47      C        0.31300    0.92060    0.87150    1.000
    H89      H        0.27410    0.86800    0.89890    1.000
    H90      H        0.39740    0.97190    0.90150    1.000
    C48      C        0.13730    0.80650    0.64240    1.000
    H91      H        0.11010    0.76690    0.59220    1.000
    H92      H        0.07850    0.75690    0.66250    1.000
