data_functionalizedCrystal
_audit_creation_method	'EQeq! by Chris Wilmer'
_symmetry_space_group_name_H-M	'P1'
_symmetry_Int_Tables_number	1
_symmetry_cell_setting	triclinic
loop_
_symmetry_equiv_pos_as_xyz
  x,y,z
_cell_length_a	22.3051
_cell_length_b	22.3051
_cell_length_c	22.3051
_cell_angle_alpha	90
_cell_angle_beta	90
_cell_angle_gamma	90
loop_
_atom_site_label
_atom_site_type_symbol
_atom_site_fract_x
_atom_site_fract_y
_atom_site_fract_z
_atom_site_charge
Mof_Mg	Mg	0.17677	0.24063	0.69084	1.47
Mof_C 	C 	0.33257	0.216	0.4567	-0.097
Mof_C 	C 	0.29916	0.21589	0.51022	0.044
Mof_H 	H 	0.2577	0.2198	0.5084	0.034
Mof_C 	C 	0.3265	0.21016	0.56518	-0.103
Mof_C 	C 	0.38891	0.2072	0.56662	-0.041
Mof_H 	H 	0.4085	0.2028	0.6032	0.065
Mof_C 	C 	0.42166	0.2107	0.51519	0.073
Mof_C 	C 	0.39375	0.2123	0.46057	-0.041
Mof_H 	H 	0.4166	0.2109	0.4257	0.069
Mof_C 	C 	0.2925	0.20881	0.62296	0.422
Mof_C 	C 	0.30308	0.22155	0.39515	0.432
Mof_O 	O 	0.25019	0.23938	0.39344	-0.503
Mof_O 	O 	0.33595	0.2075	0.35191	-0.495
Mof_O 	O 	0.32253	0.19417	0.6692	-0.506
Mof_O 	O 	0.2383	0.22319	0.62159	-0.5
Mof_N 	N 	0.48647	0.2065	0.52248	-0.083
Mof_Mg	Mg	0.82323	0.75937	0.69084	1.469
Mof_C 	C 	0.66743	0.784	0.4567	-0.098
Mof_C 	C 	0.70084	0.78411	0.51022	0.043
Mof_H 	H 	0.7423	0.7802	0.5084	0.033
Mof_C 	C 	0.6735	0.78984	0.56518	-0.104
Mof_C 	C 	0.61109	0.7928	0.56662	-0.042
Mof_H 	H 	0.5915	0.7972	0.6032	0.064
Mof_C 	C 	0.57834	0.7893	0.51519	0.072
Mof_C 	C 	0.60625	0.7877	0.46057	-0.041
Mof_H 	H 	0.5834	0.7891	0.4257	0.069
Mof_C 	C 	0.7075	0.79119	0.62296	0.422
Mof_C 	C 	0.69692	0.77845	0.39515	0.432
Mof_O 	O 	0.74981	0.76062	0.39344	-0.503
Mof_O 	O 	0.66405	0.7925	0.35191	-0.495
Mof_O 	O 	0.67747	0.80583	0.6692	-0.506
Mof_O 	O 	0.7617	0.77681	0.62159	-0.5
Mof_N 	N 	0.51353	0.7935	0.52248	-0.083
Mof_Mg	Mg	0.82323	0.24063	0.30916	1.469
Mof_C 	C 	0.66743	0.216	0.5433	-0.098
Mof_C 	C 	0.70084	0.21589	0.48978	0.043
Mof_H 	H 	0.7423	0.2198	0.4916	0.033
Mof_C 	C 	0.6735	0.21016	0.43482	-0.104
Mof_C 	C 	0.61109	0.2072	0.43338	-0.042
Mof_H 	H 	0.5915	0.2028	0.3968	0.064
Mof_C 	C 	0.57834	0.2107	0.48481	0.072
Mof_C 	C 	0.60625	0.2123	0.53943	-0.041
Mof_H 	H 	0.5834	0.2109	0.5743	0.069
Mof_C 	C 	0.7075	0.20881	0.37704	0.422
Mof_C 	C 	0.69692	0.22155	0.60485	0.432
Mof_O 	O 	0.74981	0.23938	0.60656	-0.503
Mof_O 	O 	0.66405	0.2075	0.64809	-0.495
Mof_O 	O 	0.67747	0.19417	0.3308	-0.506
Mof_O 	O 	0.7617	0.22319	0.37841	-0.5
Mof_N 	N 	0.51353	0.2065	0.47752	-0.083
Mof_Mg	Mg	0.17677	0.75937	0.30916	1.469
Mof_C 	C 	0.33257	0.784	0.5433	-0.098
Mof_C 	C 	0.29916	0.78411	0.48978	0.043
Mof_H 	H 	0.2577	0.7802	0.4916	0.033
Mof_C 	C 	0.3265	0.78984	0.43482	-0.104
Mof_C 	C 	0.38891	0.7928	0.43338	-0.042
Mof_H 	H 	0.4085	0.7972	0.3968	0.064
Mof_C 	C 	0.42166	0.7893	0.48481	0.072
Mof_C 	C 	0.39375	0.7877	0.53943	-0.041
Mof_H 	H 	0.4166	0.7891	0.5743	0.069
Mof_C 	C 	0.2925	0.79119	0.37704	0.422
Mof_C 	C 	0.30308	0.77845	0.60485	0.432
Mof_O 	O 	0.25019	0.76062	0.60656	-0.503
Mof_O 	O 	0.33595	0.7925	0.64809	-0.495
Mof_O 	O 	0.32253	0.80583	0.3308	-0.506
Mof_O 	O 	0.2383	0.77681	0.37841	-0.5
Mof_N 	N 	0.48647	0.7935	0.47752	-0.083
Mof_Mg	Mg	0.69084	0.17677	0.24063	1.469
Mof_C 	C 	0.4567	0.33257	0.216	-0.098
Mof_C 	C 	0.51022	0.29916	0.21589	0.043
Mof_H 	H 	0.5084	0.2577	0.2198	0.033
Mof_C 	C 	0.56518	0.3265	0.21016	-0.104
Mof_C 	C 	0.56662	0.38891	0.2072	-0.042
Mof_H 	H 	0.6032	0.4085	0.2028	0.064
Mof_C 	C 	0.51519	0.42166	0.2107	0.072
Mof_C 	C 	0.46057	0.39375	0.2123	-0.041
Mof_H 	H 	0.4257	0.4166	0.2109	0.069
Mof_C 	C 	0.62296	0.2925	0.20881	0.422
Mof_C 	C 	0.39515	0.30308	0.22155	0.432
Mof_O 	O 	0.39344	0.25019	0.23938	-0.503
Mof_O 	O 	0.35191	0.33595	0.2075	-0.495
Mof_O 	O 	0.6692	0.32253	0.19417	-0.506
Mof_O 	O 	0.62159	0.2383	0.22319	-0.5
Mof_N 	N 	0.52248	0.48647	0.2065	-0.083
Mof_Mg	Mg	0.69084	0.82323	0.75937	1.469
Mof_C 	C 	0.4567	0.66743	0.784	-0.098
Mof_C 	C 	0.51022	0.70084	0.78411	0.043
Mof_H 	H 	0.5084	0.7423	0.7802	0.033
Mof_C 	C 	0.56518	0.6735	0.78984	-0.104
Mof_C 	C 	0.56662	0.61109	0.7928	-0.042
Mof_H 	H 	0.6032	0.5915	0.7972	0.064
Mof_C 	C 	0.51519	0.57834	0.7893	0.072
Mof_C 	C 	0.46057	0.60625	0.7877	-0.041
Mof_H 	H 	0.4257	0.5834	0.7891	0.069
Mof_C 	C 	0.62296	0.7075	0.79119	0.422
Mof_C 	C 	0.39515	0.69692	0.77845	0.432
Mof_O 	O 	0.39344	0.74981	0.76062	-0.503
Mof_O 	O 	0.35191	0.66405	0.7925	-0.495
Mof_O 	O 	0.6692	0.67747	0.80583	-0.506
Mof_O 	O 	0.62159	0.7617	0.77681	-0.5
Mof_N 	N 	0.52248	0.51353	0.7935	-0.083
Mof_Mg	Mg	0.30916	0.82323	0.24063	1.469
Mof_C 	C 	0.5433	0.66743	0.216	-0.098
Mof_C 	C 	0.48978	0.70084	0.21589	0.043
Mof_H 	H 	0.4916	0.7423	0.2198	0.033
Mof_C 	C 	0.43482	0.6735	0.21016	-0.104
Mof_C 	C 	0.43338	0.61109	0.2072	-0.042
Mof_H 	H 	0.3968	0.5915	0.2028	0.064
Mof_C 	C 	0.48481	0.57834	0.2107	0.072
Mof_C 	C 	0.53943	0.60625	0.2123	-0.041
Mof_H 	H 	0.5743	0.5834	0.2109	0.069
Mof_C 	C 	0.37704	0.7075	0.20881	0.422
Mof_C 	C 	0.60485	0.69692	0.22155	0.432
Mof_O 	O 	0.60656	0.74981	0.23938	-0.503
Mof_O 	O 	0.64809	0.66405	0.2075	-0.495
Mof_O 	O 	0.3308	0.67747	0.19417	-0.506
Mof_O 	O 	0.37841	0.7617	0.22319	-0.5
Mof_N 	N 	0.47752	0.51353	0.2065	-0.083
Mof_Mg	Mg	0.30916	0.17677	0.75937	1.469
Mof_C 	C 	0.5433	0.33257	0.784	-0.098
Mof_C 	C 	0.48978	0.29916	0.78411	0.043
Mof_H 	H 	0.4916	0.2577	0.7802	0.033
Mof_C 	C 	0.43482	0.3265	0.78984	-0.104
Mof_C 	C 	0.43338	0.38891	0.7928	-0.042
Mof_H 	H 	0.3968	0.4085	0.7972	0.064
Mof_C 	C 	0.48481	0.42166	0.7893	0.072
Mof_C 	C 	0.53943	0.39375	0.7877	-0.041
Mof_H 	H 	0.5743	0.4166	0.7891	0.069
Mof_C 	C 	0.37704	0.2925	0.79119	0.422
Mof_C 	C 	0.60485	0.30308	0.77845	0.432
Mof_O 	O 	0.60656	0.25019	0.76062	-0.503
Mof_O 	O 	0.64809	0.33595	0.7925	-0.495
Mof_O 	O 	0.3308	0.32253	0.80583	-0.506
Mof_O 	O 	0.37841	0.2383	0.77681	-0.5
Mof_N 	N 	0.47752	0.48647	0.7935	-0.083
Mof_Mg	Mg	0.24063	0.69084	0.17677	1.469
Mof_C 	C 	0.216	0.4567	0.33257	-0.098
Mof_C 	C 	0.21589	0.51022	0.29916	0.043
Mof_H 	H 	0.2198	0.5084	0.2577	0.033
Mof_C 	C 	0.21016	0.56518	0.3265	-0.104
Mof_C 	C 	0.2072	0.56662	0.38891	-0.042
Mof_H 	H 	0.2028	0.6032	0.4085	0.064
Mof_C 	C 	0.2107	0.51519	0.42166	0.072
Mof_C 	C 	0.2123	0.46057	0.39375	-0.041
Mof_H 	H 	0.2109	0.4257	0.4166	0.069
Mof_C 	C 	0.20881	0.62296	0.2925	0.422
Mof_C 	C 	0.22155	0.39515	0.30308	0.432
Mof_O 	O 	0.23938	0.39344	0.25019	-0.503
Mof_O 	O 	0.2075	0.35191	0.33595	-0.495
Mof_O 	O 	0.19417	0.6692	0.32253	-0.506
Mof_O 	O 	0.22319	0.62159	0.2383	-0.5
Mof_N 	N 	0.2065	0.52248	0.48647	-0.083
Mof_Mg	Mg	0.75937	0.69084	0.82323	1.469
Mof_C 	C 	0.784	0.4567	0.66743	-0.098
Mof_C 	C 	0.78411	0.51022	0.70084	0.043
Mof_H 	H 	0.7802	0.5084	0.7423	0.033
Mof_C 	C 	0.78984	0.56518	0.6735	-0.104
Mof_C 	C 	0.7928	0.56662	0.61109	-0.042
Mof_H 	H 	0.7972	0.6032	0.5915	0.064
Mof_C 	C 	0.7893	0.51519	0.57834	0.072
Mof_C 	C 	0.7877	0.46057	0.60625	-0.041
Mof_H 	H 	0.7891	0.4257	0.5834	0.069
Mof_C 	C 	0.79119	0.62296	0.7075	0.422
Mof_C 	C 	0.77845	0.39515	0.69692	0.432
Mof_O 	O 	0.76062	0.39344	0.74981	-0.503
Mof_O 	O 	0.7925	0.35191	0.66405	-0.495
Mof_O 	O 	0.80583	0.6692	0.67747	-0.506
Mof_O 	O 	0.77681	0.62159	0.7617	-0.5
Mof_N 	N 	0.7935	0.52248	0.51353	-0.083
Mof_Mg	Mg	0.24063	0.30916	0.82323	1.469
Mof_C 	C 	0.216	0.5433	0.66743	-0.098
Mof_C 	C 	0.21589	0.48978	0.70084	0.043
Mof_H 	H 	0.2198	0.4916	0.7423	0.033
Mof_C 	C 	0.21016	0.43482	0.6735	-0.104
Mof_C 	C 	0.2072	0.43338	0.61109	-0.042
Mof_H 	H 	0.2028	0.3968	0.5915	0.064
Mof_C 	C 	0.2107	0.48481	0.57834	0.072
Mof_C 	C 	0.2123	0.53943	0.60625	-0.041
Mof_H 	H 	0.2109	0.5743	0.5834	0.069
Mof_C 	C 	0.20881	0.37704	0.7075	0.422
Mof_C 	C 	0.22155	0.60485	0.69692	0.432
Mof_O 	O 	0.23938	0.60656	0.74981	-0.503
Mof_O 	O 	0.2075	0.64809	0.66405	-0.495
Mof_O 	O 	0.19417	0.3308	0.67747	-0.506
Mof_O 	O 	0.22319	0.37841	0.7617	-0.5
Mof_N 	N 	0.2065	0.47752	0.51353	-0.083
Mof_Mg	Mg	0.75937	0.30916	0.17677	1.469
Mof_C 	C 	0.784	0.5433	0.33257	-0.098
Mof_C 	C 	0.78411	0.48978	0.29916	0.043
Mof_H 	H 	0.7802	0.4916	0.2577	0.033
Mof_C 	C 	0.78984	0.43482	0.3265	-0.104
Mof_C 	C 	0.7928	0.43338	0.38891	-0.042
Mof_H 	H 	0.7972	0.3968	0.4085	0.064
Mof_C 	C 	0.7893	0.48481	0.42166	0.072
Mof_C 	C 	0.7877	0.53943	0.39375	-0.041
Mof_H 	H 	0.7891	0.5743	0.4166	0.069
Mof_C 	C 	0.79119	0.37704	0.2925	0.422
Mof_C 	C 	0.77845	0.60485	0.30308	0.432
Mof_O 	O 	0.76062	0.60656	0.25019	-0.503
Mof_O 	O 	0.7925	0.64809	0.33595	-0.495
Mof_O 	O 	0.80583	0.3308	0.32253	-0.506
Mof_O 	O 	0.77681	0.37841	0.2383	-0.5
Mof_N 	N 	0.7935	0.47752	0.48647	-0.083
Mof_Mg	Mg	0.74063	0.67677	0.19084	1.469
Mof_C 	C 	0.716	0.83257	0.9567	-0.098
Mof_C 	C 	0.71589	0.79916	0.01022	0.043
Mof_H 	H 	0.7198	0.7577	0.0084	0.033
Mof_C 	C 	0.71016	0.8265	0.06518	-0.104
Mof_C 	C 	0.7072	0.88891	0.06662	-0.042
Mof_H 	H 	0.7028	0.9085	0.1032	0.064
Mof_C 	C 	0.7107	0.92166	0.01519	0.072
Mof_C 	C 	0.7123	0.89375	0.96057	-0.041
Mof_H 	H 	0.7109	0.9166	0.9257	0.069
Mof_C 	C 	0.70881	0.7925	0.12296	0.422
Mof_C 	C 	0.72155	0.80308	0.89515	0.432
Mof_O 	O 	0.73938	0.75019	0.89344	-0.503
Mof_O 	O 	0.7075	0.83595	0.85191	-0.495
Mof_O 	O 	0.69417	0.82253	0.1692	-0.506
Mof_O 	O 	0.72319	0.7383	0.12159	-0.5
Mof_N 	N 	0.7065	0.98647	0.02248	-0.083
Mof_Mg	Mg	0.25937	0.32323	0.19084	1.469
Mof_C 	C 	0.284	0.16743	0.9567	-0.098
Mof_C 	C 	0.28411	0.20084	0.01022	0.043
Mof_H 	H 	0.2802	0.2423	0.0084	0.033
Mof_C 	C 	0.28984	0.1735	0.06518	-0.104
Mof_C 	C 	0.2928	0.11109	0.06662	-0.042
Mof_H 	H 	0.2972	0.0915	0.1032	0.064
Mof_C 	C 	0.2893	0.07834	0.01519	0.072
Mof_C 	C 	0.2877	0.10625	0.96057	-0.041
Mof_H 	H 	0.2891	0.0834	0.9257	0.069
Mof_C 	C 	0.29119	0.2075	0.12296	0.422
Mof_C 	C 	0.27845	0.19692	0.89515	0.432
Mof_O 	O 	0.26062	0.24981	0.89344	-0.503
Mof_O 	O 	0.2925	0.16405	0.85191	-0.495
Mof_O 	O 	0.30583	0.17747	0.1692	-0.506
Mof_O 	O 	0.27681	0.2617	0.12159	-0.5
Mof_N 	N 	0.2935	0.01353	0.02248	-0.083
Mof_Mg	Mg	0.74063	0.32323	0.80916	1.469
Mof_C 	C 	0.716	0.16743	0.0433	-0.098
Mof_C 	C 	0.71589	0.20084	0.98978	0.043
Mof_H 	H 	0.7198	0.2423	0.9916	0.033
Mof_C 	C 	0.71016	0.1735	0.93482	-0.104
Mof_C 	C 	0.7072	0.11109	0.93338	-0.042
Mof_H 	H 	0.7028	0.0915	0.8968	0.064
Mof_C 	C 	0.7107	0.07834	0.98481	0.072
Mof_C 	C 	0.7123	0.10625	0.03943	-0.041
Mof_H 	H 	0.7109	0.0834	0.0743	0.069
Mof_C 	C 	0.70881	0.2075	0.87704	0.422
Mof_C 	C 	0.72155	0.19692	0.10485	0.432
Mof_O 	O 	0.73938	0.24981	0.10656	-0.503
Mof_O 	O 	0.7075	0.16405	0.14809	-0.495
Mof_O 	O 	0.69417	0.17747	0.8308	-0.506
Mof_O 	O 	0.72319	0.2617	0.87841	-0.5
Mof_N 	N 	0.7065	0.01353	0.97752	-0.083
Mof_Mg	Mg	0.25937	0.67677	0.80916	1.469
Mof_C 	C 	0.284	0.83257	0.0433	-0.098
Mof_C 	C 	0.28411	0.79916	0.98978	0.043
Mof_H 	H 	0.2802	0.7577	0.9916	0.033
Mof_C 	C 	0.28984	0.8265	0.93482	-0.104
Mof_C 	C 	0.2928	0.88891	0.93338	-0.042
Mof_H 	H 	0.2972	0.9085	0.8968	0.064
Mof_C 	C 	0.2893	0.92166	0.98481	0.072
Mof_C 	C 	0.2877	0.89375	0.03943	-0.041
Mof_H 	H 	0.2891	0.9166	0.0743	0.069
Mof_C 	C 	0.29119	0.7925	0.87704	0.422
Mof_C 	C 	0.27845	0.80308	0.10485	0.432
Mof_O 	O 	0.26062	0.75019	0.10656	-0.503
Mof_O 	O 	0.2925	0.83595	0.14809	-0.495
Mof_O 	O 	0.30583	0.82253	0.8308	-0.506
Mof_O 	O 	0.27681	0.7383	0.87841	-0.5
Mof_N 	N 	0.2935	0.98647	0.97752	-0.083
Mof_Mg	Mg	0.67677	0.19084	0.74063	1.469
Mof_C 	C 	0.83257	0.9567	0.716	-0.098
Mof_C 	C 	0.79916	0.01022	0.71589	0.043
Mof_H 	H 	0.7577	0.0084	0.7198	0.033
Mof_C 	C 	0.8265	0.06518	0.71016	-0.104
Mof_C 	C 	0.88891	0.06662	0.7072	-0.042
Mof_H 	H 	0.9085	0.1032	0.7028	0.064
Mof_C 	C 	0.92166	0.01519	0.7107	0.072
Mof_C 	C 	0.89375	0.96057	0.7123	-0.041
Mof_H 	H 	0.9166	0.9257	0.7109	0.069
Mof_C 	C 	0.7925	0.12296	0.70881	0.422
Mof_C 	C 	0.80308	0.89515	0.72155	0.432
Mof_O 	O 	0.75019	0.89344	0.73938	-0.503
Mof_O 	O 	0.83595	0.85191	0.7075	-0.495
Mof_O 	O 	0.82253	0.1692	0.69417	-0.506
Mof_O 	O 	0.7383	0.12159	0.72319	-0.5
Mof_N 	N 	0.98647	0.02248	0.7065	-0.083
Mof_Mg	Mg	0.32323	0.19084	0.25937	1.469
Mof_C 	C 	0.16743	0.9567	0.284	-0.098
Mof_C 	C 	0.20084	0.01022	0.28411	0.043
Mof_H 	H 	0.2423	0.0084	0.2802	0.033
Mof_C 	C 	0.1735	0.06518	0.28984	-0.104
Mof_C 	C 	0.11109	0.06662	0.2928	-0.042
Mof_H 	H 	0.0915	0.1032	0.2972	0.064
Mof_C 	C 	0.07834	0.01519	0.2893	0.072
Mof_C 	C 	0.10625	0.96057	0.2877	-0.041
Mof_H 	H 	0.0834	0.9257	0.2891	0.069
Mof_C 	C 	0.2075	0.12296	0.29119	0.422
Mof_C 	C 	0.19692	0.89515	0.27845	0.432
Mof_O 	O 	0.24981	0.89344	0.26062	-0.503
Mof_O 	O 	0.16405	0.85191	0.2925	-0.495
Mof_O 	O 	0.17747	0.1692	0.30583	-0.506
Mof_O 	O 	0.2617	0.12159	0.27681	-0.5
Mof_N 	N 	0.01353	0.02248	0.2935	-0.083
Mof_Mg	Mg	0.32323	0.80916	0.74063	1.469
Mof_C 	C 	0.16743	0.0433	0.716	-0.098
Mof_C 	C 	0.20084	0.98978	0.71589	0.043
Mof_H 	H 	0.2423	0.9916	0.7198	0.033
Mof_C 	C 	0.1735	0.93482	0.71016	-0.104
Mof_C 	C 	0.11109	0.93338	0.7072	-0.042
Mof_H 	H 	0.0915	0.8968	0.7028	0.064
Mof_C 	C 	0.07834	0.98481	0.7107	0.072
Mof_C 	C 	0.10625	0.03943	0.7123	-0.041
Mof_H 	H 	0.0834	0.0743	0.7109	0.069
Mof_C 	C 	0.2075	0.87704	0.70881	0.422
Mof_C 	C 	0.19692	0.10485	0.72155	0.432
Mof_O 	O 	0.24981	0.10656	0.73938	-0.503
Mof_O 	O 	0.16405	0.14809	0.7075	-0.495
Mof_O 	O 	0.17747	0.8308	0.69417	-0.506
Mof_O 	O 	0.2617	0.87841	0.72319	-0.5
Mof_N 	N 	0.01353	0.97752	0.7065	-0.083
Mof_Mg	Mg	0.67677	0.80916	0.25937	1.469
Mof_C 	C 	0.83257	0.0433	0.284	-0.098
Mof_C 	C 	0.79916	0.98978	0.28411	0.043
Mof_H 	H 	0.7577	0.9916	0.2802	0.033
Mof_C 	C 	0.8265	0.93482	0.28984	-0.104
Mof_C 	C 	0.88891	0.93338	0.2928	-0.042
Mof_H 	H 	0.9085	0.8968	0.2972	0.064
Mof_C 	C 	0.92166	0.98481	0.2893	0.072
Mof_C 	C 	0.89375	0.03943	0.2877	-0.041
Mof_H 	H 	0.9166	0.0743	0.2891	0.069
Mof_C 	C 	0.7925	0.87704	0.29119	0.422
Mof_C 	C 	0.80308	0.10485	0.27845	0.432
Mof_O 	O 	0.75019	0.10656	0.26062	-0.503
Mof_O 	O 	0.83595	0.14809	0.2925	-0.495
Mof_O 	O 	0.82253	0.8308	0.30583	-0.506
Mof_O 	O 	0.7383	0.87841	0.27681	-0.5
Mof_N 	N 	0.98647	0.97752	0.2935	-0.083
Mof_Mg	Mg	0.19084	0.74063	0.67677	1.469
Mof_C 	C 	0.9567	0.716	0.83257	-0.098
Mof_C 	C 	0.01022	0.71589	0.79916	0.043
Mof_H 	H 	0.0084	0.7198	0.7577	0.033
Mof_C 	C 	0.06518	0.71016	0.8265	-0.104
Mof_C 	C 	0.06662	0.7072	0.88891	-0.042
Mof_H 	H 	0.1032	0.7028	0.9085	0.064
Mof_C 	C 	0.01519	0.7107	0.92166	0.072
Mof_C 	C 	0.96057	0.7123	0.89375	-0.041
Mof_H 	H 	0.9257	0.7109	0.9166	0.069
Mof_C 	C 	0.12296	0.70881	0.7925	0.422
Mof_C 	C 	0.89515	0.72155	0.80308	0.432
Mof_O 	O 	0.89344	0.73938	0.75019	-0.503
Mof_O 	O 	0.85191	0.7075	0.83595	-0.495
Mof_O 	O 	0.1692	0.69417	0.82253	-0.506
Mof_O 	O 	0.12159	0.72319	0.7383	-0.5
Mof_N 	N 	0.02248	0.7065	0.98647	-0.083
Mof_Mg	Mg	0.19084	0.25937	0.32323	1.469
Mof_C 	C 	0.9567	0.284	0.16743	-0.098
Mof_C 	C 	0.01022	0.28411	0.20084	0.043
Mof_H 	H 	0.0084	0.2802	0.2423	0.033
Mof_C 	C 	0.06518	0.28984	0.1735	-0.104
Mof_C 	C 	0.06662	0.2928	0.11109	-0.042
Mof_H 	H 	0.1032	0.2972	0.0915	0.064
Mof_C 	C 	0.01519	0.2893	0.07834	0.072
Mof_C 	C 	0.96057	0.2877	0.10625	-0.041
Mof_H 	H 	0.9257	0.2891	0.0834	0.069
Mof_C 	C 	0.12296	0.29119	0.2075	0.422
Mof_C 	C 	0.89515	0.27845	0.19692	0.432
Mof_O 	O 	0.89344	0.26062	0.24981	-0.503
Mof_O 	O 	0.85191	0.2925	0.16405	-0.495
Mof_O 	O 	0.1692	0.30583	0.17747	-0.506
Mof_O 	O 	0.12159	0.27681	0.2617	-0.5
Mof_N 	N 	0.02248	0.2935	0.01353	-0.083
Mof_Mg	Mg	0.80916	0.74063	0.32323	1.469
Mof_C 	C 	0.0433	0.716	0.16743	-0.098
Mof_C 	C 	0.98978	0.71589	0.20084	0.043
Mof_H 	H 	0.9916	0.7198	0.2423	0.033
Mof_C 	C 	0.93482	0.71016	0.1735	-0.104
Mof_C 	C 	0.93338	0.7072	0.11109	-0.042
Mof_H 	H 	0.8968	0.7028	0.0915	0.064
Mof_C 	C 	0.98481	0.7107	0.07834	0.072
Mof_C 	C 	0.03943	0.7123	0.10625	-0.041
Mof_H 	H 	0.0743	0.7109	0.0834	0.069
Mof_C 	C 	0.87704	0.70881	0.2075	0.422
Mof_C 	C 	0.10485	0.72155	0.19692	0.432
Mof_O 	O 	0.10656	0.73938	0.24981	-0.503
Mof_O 	O 	0.14809	0.7075	0.16405	-0.495
Mof_O 	O 	0.8308	0.69417	0.17747	-0.506
Mof_O 	O 	0.87841	0.72319	0.2617	-0.5
Mof_N 	N 	0.97752	0.7065	0.01353	-0.083
Mof_Mg	Mg	0.80916	0.25937	0.67677	1.469
Mof_C 	C 	0.0433	0.284	0.83257	-0.098
Mof_C 	C 	0.98978	0.28411	0.79916	0.043
Mof_H 	H 	0.9916	0.2802	0.7577	0.033
Mof_C 	C 	0.93482	0.28984	0.8265	-0.104
Mof_C 	C 	0.93338	0.2928	0.88891	-0.042
Mof_H 	H 	0.8968	0.2972	0.9085	0.064
Mof_C 	C 	0.98481	0.2893	0.92166	0.072
Mof_C 	C 	0.03943	0.2877	0.89375	-0.041
Mof_H 	H 	0.0743	0.2891	0.9166	0.069
Mof_C 	C 	0.87704	0.29119	0.7925	0.422
Mof_C 	C 	0.10485	0.27845	0.80308	0.432
Mof_O 	O 	0.10656	0.26062	0.75019	-0.503
Mof_O 	O 	0.14809	0.2925	0.83595	-0.495
Mof_O 	O 	0.8308	0.30583	0.82253	-0.506
Mof_O 	O 	0.87841	0.27681	0.7383	-0.5
Mof_N 	N 	0.97752	0.2935	0.98647	-0.083
Mof_O 	O 	0.23806	0.23806	0.76194	-0.697
Mof_O 	O 	0.76194	0.76194	0.76194	-0.697
Mof_O 	O 	0.76194	0.23806	0.23806	-0.697
Mof_O 	O 	0.23806	0.76194	0.23806	-0.697
Mof_O 	O 	0.73806	0.73806	0.26194	-0.697
Mof_O 	O 	0.26194	0.26194	0.26194	-0.697
Mof_O 	O 	0.73806	0.26194	0.73806	-0.697
Mof_O 	O 	0.26194	0.73806	0.73806	-0.697
_end
