# CIF file generated by openbabel 3.1.0, see https://openbabel.org
data_I
_chemical_name_common 'image0'
_cell_length_a 15.0401
_cell_length_b 12.5366
_cell_length_c 16.532
_cell_angle_alpha 90
_cell_angle_beta 90
_cell_angle_gamma 90
_space_group_name_H-M_alt 'P 1'
_space_group_name_Hall 'P 1'
loop_
    _symmetry_equiv_pos_as_xyz
    x,y,z
loop_
    _atom_site_label
    _atom_site_type_symbol
    _atom_site_fract_x
    _atom_site_fract_y
    _atom_site_fract_z
    _atom_site_occupancy
    Mn1      Mn       0.60380    0.48718    0.58350    1.000
    O1       O        0.59280    0.35540    0.67340    1.000
    O2       O        0.66800    0.49330    0.70970    1.000
    O3       O        0.52870    0.38080    0.50790    1.000
    O4       O        0.49990    0.58920    0.62165    1.000
    O5       O        0.69980    0.63540    0.55690    1.000
    O6       O        0.70690    0.48880    0.49060    1.000
    C1       C        0.63330    0.40530    0.72460    1.000
    C2       C        0.63950    0.36340    0.80980    1.000
    C3       C        0.59150    0.27290    0.83260    1.000
    C4       C        0.69340    0.41250    0.86710    1.000
    C5       C        0.59630    0.23230    0.91060    1.000
    C6       C        0.70180    0.36980    0.94440    1.000
    C7       C        0.53880    0.13980    0.93380    1.000
    C8       C        0.65230    0.28070    0.96550    1.000
    C9       C        0.76880    0.42040    0.00190    1.000
    Mn2      Mn       0.89620    0.51282    0.08350    1.000
    O7       O        0.90720    0.64460    0.17340    1.000
    O8       O        0.83200    0.50670    0.20970    1.000
    O9       O        0.97130    0.61920    0.00790    1.000
    O10      O        0.00010    0.41080    0.12165    1.000
    O11      O        0.80020    0.36460    0.05690    1.000
    O12      O        0.79310    0.51120    0.99060    1.000
    C10      C        0.86670    0.59470    0.22460    1.000
    C11      C        0.86050    0.63660    0.30980    1.000
    C12      C        0.90850    0.72710    0.33260    1.000
    C13      C        0.80660    0.58750    0.36710    1.000
    C14      C        0.90370    0.76770    0.41060    1.000
    C15      C        0.79820    0.63020    0.44440    1.000
    C16      C        0.96120    0.86020    0.43380    1.000
    C17      C        0.84770    0.71930    0.46550    1.000
    C18      C        0.73120    0.57960    0.50190    1.000
    Mn3      Mn       0.39620    0.98718    0.91650    1.000
    O13      O        0.40720    0.85540    0.82660    1.000
    O14      O        0.33200    0.99330    0.79030    1.000
    O15      O        0.47130    0.88080    0.99210    1.000
    O16      O        0.50010    0.08920    0.87835    1.000
    O17      O        0.30020    0.13540    0.94310    1.000
    O18      O        0.29310    0.98880    0.00940    1.000
    C19      C        0.36670    0.90530    0.77540    1.000
    C20      C        0.36050    0.86340    0.69020    1.000
    C21      C        0.40850    0.77290    0.66740    1.000
    C22      C        0.30660    0.91250    0.63290    1.000
    C23      C        0.40370    0.73230    0.58940    1.000
    C24      C        0.29820    0.86980    0.55560    1.000
    C25      C        0.46120    0.63980    0.56620    1.000
    C26      C        0.34770    0.78070    0.53450    1.000
    C27      C        0.23120    0.92040    0.49810    1.000
    Mn4      Mn       0.10380    0.01282    0.41650    1.000
    O19      O        0.09280    0.14460    0.32660    1.000
    O20      O        0.16800    0.00670    0.29030    1.000
    O21      O        0.02870    0.11920    0.49210    1.000
    O22      O        0.99990    0.91080    0.37835    1.000
    O23      O        0.19980    0.86460    0.44310    1.000
    O24      O        0.20690    0.01120    0.50940    1.000
    C28      C        0.13330    0.09470    0.27540    1.000
    C29      C        0.13950    0.13660    0.19020    1.000
    C30      C        0.09150    0.22710    0.16740    1.000
    C31      C        0.19340    0.08750    0.13290    1.000
    C32      C        0.09630    0.26770    0.08940    1.000
    C33      C        0.20180    0.13020    0.05560    1.000
    C34      C        0.03880    0.36020    0.06620    1.000
    C35      C        0.15230    0.21930    0.03450    1.000
    C36      C        0.26880    0.07960    0.99810    1.000
    Mn5      Mn       0.39620    0.51282    0.41650    1.000
    O25      O        0.40720    0.64460    0.32660    1.000
    O26      O        0.33200    0.50670    0.29030    1.000
    O27      O        0.47130    0.61920    0.49210    1.000
    O28      O        0.50010    0.41080    0.37835    1.000
    O29      O        0.30020    0.36460    0.44310    1.000
    O30      O        0.29310    0.51120    0.50940    1.000
    C37      C        0.36670    0.59470    0.27540    1.000
    C38      C        0.36050    0.63660    0.19020    1.000
    C39      C        0.40850    0.72710    0.16740    1.000
    C40      C        0.30660    0.58750    0.13290    1.000
    C41      C        0.40370    0.76770    0.08940    1.000
    C42      C        0.29820    0.63020    0.05560    1.000
    C43      C        0.46120    0.86020    0.06620    1.000
    C44      C        0.34770    0.71930    0.03450    1.000
    C45      C        0.23120    0.57960    0.99810    1.000
    Mn6      Mn       0.10380    0.48718    0.91650    1.000
    O31      O        0.09280    0.35540    0.82660    1.000
    O32      O        0.16800    0.49330    0.79030    1.000
    O33      O        0.02870    0.38080    0.99210    1.000
    O34      O        0.99990    0.58920    0.87835    1.000
    O35      O        0.19980    0.63540    0.94310    1.000
    O36      O        0.20690    0.48880    0.00940    1.000
    C46      C        0.13330    0.40530    0.77540    1.000
    C47      C        0.13950    0.36340    0.69020    1.000
    C48      C        0.09150    0.27290    0.66740    1.000
    C49      C        0.19340    0.41250    0.63290    1.000
    C50      C        0.09630    0.23230    0.58940    1.000
    C51      C        0.20180    0.36980    0.55560    1.000
    C52      C        0.03880    0.13980    0.56620    1.000
    C53      C        0.15230    0.28070    0.53450    1.000
    C54      C        0.26880    0.42040    0.49810    1.000
    Mn7      Mn       0.60380    0.01282    0.08350    1.000
    O37      O        0.59280    0.14460    0.17340    1.000
    O38      O        0.66800    0.00670    0.20970    1.000
    O39      O        0.52870    0.11920    0.00790    1.000
    O40      O        0.49990    0.91080    0.12165    1.000
    O41      O        0.69980    0.86460    0.05690    1.000
    O42      O        0.70690    0.01120    0.99060    1.000
    C55      C        0.63330    0.09470    0.22460    1.000
    C56      C        0.63950    0.13660    0.30980    1.000
    C57      C        0.59150    0.22710    0.33260    1.000
    C58      C        0.69340    0.08750    0.36710    1.000
    C59      C        0.59630    0.26770    0.41060    1.000
    C60      C        0.70180    0.13020    0.44440    1.000
    C61      C        0.53880    0.36020    0.43380    1.000
    C62      C        0.65230    0.21930    0.46550    1.000
    C63      C        0.76880    0.07960    0.50190    1.000
    Mn8      Mn       0.89620    0.98718    0.58350    1.000
    O43      O        0.90720    0.85540    0.67340    1.000
    O44      O        0.83200    0.99330    0.70970    1.000
    O45      O        0.97130    0.88080    0.50790    1.000
    O46      O        0.00010    0.08920    0.62165    1.000
    O47      O        0.80020    0.13540    0.55690    1.000
    O48      O        0.79310    0.98880    0.49060    1.000
    C64      C        0.86670    0.90530    0.72460    1.000
    C65      C        0.86050    0.86340    0.80980    1.000
    C66      C        0.90850    0.77290    0.83260    1.000
    C67      C        0.80660    0.91250    0.86710    1.000
    C68      C        0.90370    0.73230    0.91060    1.000
    C69      C        0.79820    0.86980    0.94440    1.000
    C70      C        0.96120    0.63980    0.93380    1.000
    C71      C        0.84770    0.78070    0.96550    1.000
    C72      C        0.73120    0.92040    0.00190    1.000
