data_functionalizedCrystal
_audit_creation_method	'EQeq! by Chris Wilmer'
_symmetry_space_group_name_H-M	'P1'
_symmetry_Int_Tables_number	1
_symmetry_cell_setting	triclinic
loop_
_symmetry_equiv_pos_as_xyz
  x,y,z
_cell_length_a	19.608
_cell_length_b	21.133
_cell_length_c	21.571
_cell_angle_alpha	117.428
_cell_angle_beta	100.548
_cell_angle_gamma	99.067
loop_
_atom_site_label
_atom_site_type_symbol
_atom_site_fract_x
_atom_site_fract_y
_atom_site_fract_z
_atom_site_charge
Mof_Zn	Zn	0.59857	0.13165	0.09704	1.221
Mof_O 	O 	0.7158	0.1042	0.0136	-0.51
Mof_O 	O 	0.6229	0.2343	0.1341	-0.522
Mof_O 	O 	0.5956	0.08	0.994	-0.486
Mof_C 	C 	0.4662	0.169	0.1364	0.122
Mof_H 	H 	0.5006	0.2024	0.1826	-0.009
Mof_C 	C 	0.6513	0.0684	0.9715	0.394
Mof_O 	O 	0.7448	0.2855	0.1748	-0.467
Mof_O 	O 	0.6228	0.0734	0.1408	-0.454
Mof_N 	N 	0.0251	0.1592	0.073	-0.234
Mof_C 	C 	0.56	0.9456	0.7696	-0.131
Mof_H 	H 	0.5123	0.9256	0.7374	0.083
Mof_C 	C 	0.6182	0.9747	0.3125	0.058
Mof_C 	C 	0.6229	0.9347	0.7444	0.093
Mof_C 	C 	0.6965	0.0077	0.8625	0.099
Mof_H 	H 	0.744	0.029	0.8953	0.018
Mof_N 	N 	0.5941	0.7881	0.4373	-0.164
Mof_C 	C 	0.6303	0.0922	0.3187	0.036
Mof_H 	H 	0.6358	0.1439	0.3471	0.03
Mof_C 	C 	0.611	0.8945	0.6636	-0.044
Mof_C 	C 	0.6101	0.9213	0.3414	-0.038
Mof_C 	C 	0.6093	0.9399	0.2326	-0.104
Mof_H 	H 	0.6005	0.8877	0.2036	0.065
Mof_C 	C 	0.6514	0.5054	0.3038	0.081
Mof_C 	C 	0.6679	0.3635	0.2191	-0.119
Mof_O 	O 	0.6143	0.1683	0.239	-0.32
Mof_C 	C 	0.6769	0.6369	0.3373	0.002
Mof_H 	H 	0.7105	0.6278	0.3098	0.032
Mof_C 	C 	0.718	0.4986	0.3004	-0.119
Mof_H 	H 	0.7568	0.5424	0.3227	0.073
Mof_C 	C 	0.3996	0.1704	0.1298	-0.199
Mof_H 	H 	0.3876	0.2073	0.169	0.097
Mof_C 	C 	0.6428	0.0228	0.8929	-0.175
Mof_C 	C 	0.6371	0.9078	0.4474	-0.134
Mof_H 	H 	0.6605	0.9283	0.4978	0.081
Mof_C 	C 	0.5755	0.8457	0.2983	0.007
Mof_H 	H 	0.5538	0.8235	0.2473	0.026
Mof_C 	C 	0.6575	0.8514	0.6351	0.008
Mof_H 	H 	0.6935	0.8474	0.6681	0.026
Mof_C 	C 	0.642	0.5817	0.344	-0.044
Mof_C 	C 	0.5978	0.8195	0.5126	0.105
Mof_C 	C 	0.6111	0.7179	0.4059	0.109
Mof_N 	N 	0.4904	0.1231	0.0817	-0.259
Mof_C 	C 	0.6243	0.0614	0.245	-0.112
Mof_C 	C 	0.5737	0.6581	0.4088	-0.123
Mof_H 	H 	0.536	0.6639	0.4313	0.076
Mof_C 	C 	0.5739	0.8029	0.3332	-0.143
Mof_H 	H 	0.5541	0.7506	0.3041	0.082
Mof_C 	C 	0.6216	0.1062	0.2096	0.322
Mof_C 	C 	0.5768	0.9919	0.8521	0.072
Mof_H 	H 	0.5385	0.998	0.8737	0.02
Mof_C 	C 	0.4382	0.0743	0.0175	0.092
Mof_H 	H 	0.4514	0.0396	0.9778	-0.01
Mof_C 	C 	0.6912	0.9653	0.7901	-0.164
Mof_H 	H 	0.7323	0.9579	0.7732	0.09
Mof_C 	C 	0.6409	0.9531	0.4158	0.004
Mof_H 	H 	0.6644	0.0048	0.4452	0.026
Mof_C 	C 	0.6139	0.9836	0.2007	0.03
Mof_H 	H 	0.6102	0.9622	0.1502	0.035
Mof_C 	C 	0.5989	0.8329	0.4048	0.135
Mof_C 	C 	0.3653	0.074	0.0086	-0.184
Mof_H 	H 	0.3305	0.0425	0.9622	0.102
Mof_C 	C 	0.5543	0.8959	0.6112	0
Mof_H 	H 	0.5208	0.9228	0.6283	0.032
Mof_C 	C 	0.6778	0.2883	0.175	0.365
Mof_C 	C 	0.5471	0.8598	0.5374	-0.114
Mof_H 	H 	0.5095	0.8617	0.504	0.073
Mof_C 	C 	0.6286	0.0503	0.3517	-0.118
Mof_H 	H 	0.6347	0.0738	0.4028	0.067
Mof_C 	C 	0.7328	0.4279	0.2645	0.033
Mof_H 	H 	0.7805	0.4228	0.2695	0.037
Mof_C 	C 	0.6032	0.3717	0.2267	0.054
Mof_H 	H 	0.5629	0.3291	0.2038	0.024
Mof_C 	C 	0.2609	0.1024	0.0522	-0.132
Mof_H 	H 	0.2246	0.0573	0.0184	0.084
Mof_C 	C 	0.589	0.5918	0.3806	0.006
Mof_H 	H 	0.5642	0.5528	0.3857	0.027
Mof_C 	C 	0.666	0.7076	0.3691	-0.121
Mof_H 	H 	0.6936	0.7469	0.3664	0.075
Mof_C 	C 	0.3454	0.1186	0.0661	0.148
Mof_C 	C 	0.5939	0.4432	0.2684	-0.127
Mof_H 	H 	0.5472	0.4479	0.2719	0.073
Mof_C 	C 	0.6539	0.8161	0.5647	-0.118
Mof_H 	H 	0.6874	0.7889	0.5485	0.072
Mof_C 	C 	0.034	0.0948	0.0558	0.086
Mof_H 	H 	0.9934	0.055	0.0422	-0.008
Mof_C 	C 	0.1032	0.0813	0.0564	-0.128
Mof_H 	H 	0.1095	0.0343	0.0467	0.084
Mof_C 	C 	0.0807	0.2248	0.0931	0.025
Mof_H 	H 	0.0706	0.2709	0.1053	0.029
Mof_C 	C 	0.1619	0.1394	0.0717	0.052
Mof_C 	C 	0.2543	0.157	0.0918	-0.004
Mof_H 	H 	0.2904	0.2016	0.1273	0.028
Mof_C 	C 	0.1516	0.2165	0.0937	-0.089
Mof_H 	H 	0.191	0.2573	0.1072	0.062
Mof_Zn	Zn	0.76627	0.20753	0.09345	1.211
Mof_Zn	Zn	0.9208	0.17003	0.05586	1.222
Mof_O 	O 	0.81	0.1677	0.156	-0.444
Mof_O 	O 	0.8857	0.1084	0.0961	-0.464
Mof_N 	N 	0.8559	0.8175	0.3857	-0.173
Mof_O 	O 	0.8826	0.092	0.9532	-0.435
Mof_C 	C 	0.8435	0.9856	0.2379	0.11
Mof_O 	O 	0.8572	0.2449	0.0799	-0.565
Mof_C 	C 	0.8428	0.1151	0.1353	0.367
Mof_C 	C 	0.8058	0.0362	0.2562	-0.156
Mof_H 	H 	0.7821	0.044	0.2928	0.087
Mof_C 	C 	0.9045	0.38	0.1746	-0.086
Mof_C 	C 	0.8899	0.9957	0.6922	0.062
Mof_O 	O 	0.9736	0.2908	0.1537	-0.35
Mof_C 	C 	0.8437	0.0702	0.17	-0.144
Mof_C 	C 	0.8535	0.8566	0.3471	0.139
Mof_C 	C 	0.8482	0.9403	0.2771	-0.063
Mof_C 	C 	0.862	0.7453	0.3518	0.125
Mof_C 	C 	0.8869	0.5213	0.2428	0.062
Mof_C 	C 	0.8776	0.6001	0.2832	-0.036
Mof_C 	C 	0.8225	0.8293	0.4947	-0.119
Mof_H 	H 	0.7897	0.781	0.468	0.073
Mof_C 	C 	0.9042	0.8633	0.3127	-0.146
Mof_H 	H 	0.9421	0.8403	0.3135	0.08
Mof_C 	C 	0.8637	0.8597	0.4609	0.112
Mof_C 	C 	0.8974	0.7167	0.392	-0.127
Mof_H 	H 	0.9179	0.7478	0.4433	0.078
Mof_C 	C 	0.8023	0.0758	0.2213	0.072
Mof_H 	H 	0.7721	0.1081	0.2306	0.023
Mof_C 	C 	0.9007	0.9042	0.2759	0.02
Mof_H 	H 	0.9348	0.9066	0.2503	0.024
Mof_O 	O 	0.9425	0.1921	0.9576	-0.326
Mof_C 	C 	0.9145	0.9784	0.5772	-0.005
Mof_H 	H 	0.9445	0.028	0.6035	0.031
Mof_C 	C 	0.8465	0.3977	0.1395	0.022
Mof_H 	H 	0.8147	0.3619	0.0925	0.011
Mof_C 	C 	0.9028	0.6456	0.3593	0.003
Mof_H 	H 	0.9239	0.627	0.3884	0.028
Mof_C 	C 	0.7988	0.932	0.3138	0.034
Mof_H 	H 	0.7623	0.957	0.3163	0.02
Mof_C 	C 	0.836	0.7003	0.2775	-0.129
Mof_H 	H 	0.8135	0.7197	0.2498	0.077
Mof_C 	C 	0.9415	0.5047	0.2778	-0.104
Mof_H 	H 	0.9722	0.5421	0.3248	0.066
Mof_C 	C 	0.8788	0.9491	0.614	-0.035
Mof_C 	C 	0.8388	0.4675	0.176	-0.107
Mof_H 	H 	0.7995	0.4795	0.155	0.065
Mof_C 	C 	0.8795	0.9749	0.187	-0.154
Mof_H 	H 	0.9031	0.9367	0.1731	0.086
Mof_C 	C 	0.8407	0.6269	0.2397	-0.002
Mof_H 	H 	0.8207	0.5965	0.1883	0.029
Mof_C 	C 	0.9077	0.0725	0.7277	-0.107
Mof_H 	H 	0.9156	0.0968	0.7009	0.065
Mof_C 	C 	0.953	0.4344	0.2462	0.021
Mof_H 	H 	0.9906	0.423	0.2703	0.037
Mof_C 	C 	0.8001	0.8905	0.3458	-0.156
Mof_H 	H 	0.7635	0.8848	0.3677	0.089
Mof_C 	C 	0.9054	0.9342	0.5018	-0.116
Mof_H 	H 	0.9282	0.9554	0.4779	0.073
Mof_C 	C 	0.874	0.9605	0.7314	-0.107
Mof_H 	H 	0.8562	0.908	0.7063	0.065
Mof_C 	C 	0.8341	0.8761	0.5698	-0.001
Mof_H 	H 	0.809	0.8561	0.5933	0.028
Mof_C 	C 	0.8822	0.0183	0.1555	0.077
Mof_H 	H 	0.9109	0.0126	0.1233	0.019
Mof_C 	C 	0.884	0.0015	0.8079	0.023
Mof_H 	H 	0.8798	0.977	0.8351	0.033
Mof_C 	C 	0.9142	0.1157	0.8033	0.026
Mof_H 	H 	0.928	0.1683	0.8266	0.035
Mof_C 	C 	0.9005	0.0815	0.8433	-0.098
Mof_C 	C 	0.9144	0.3024	0.1355	0.266
Mof_C 	C 	0.9076	0.123	0.9207	0.302
Mof_Zn	Zn	0.40143	0.86835	0.90296	1.22
Mof_O 	O 	0.2842	0.8958	0.9864	-0.511
Mof_O 	O 	0.3771	0.7657	0.8659	-0.523
Mof_O 	O 	0.4044	0.92	0.006	-0.487
Mof_C 	C 	0.5338	0.831	0.8636	0.121
Mof_H 	H 	0.4994	0.7976	0.8174	-0.01
Mof_C 	C 	0.3487	0.9316	0.0285	0.393
Mof_O 	O 	0.2552	0.7145	0.8252	-0.468
Mof_O 	O 	0.3772	0.9266	0.8592	-0.454
Mof_N 	N 	0.9749	0.8408	0.927	-0.234
Mof_C 	C 	0.44	0.0544	0.2304	-0.131
Mof_H 	H 	0.4877	0.0744	0.2626	0.083
Mof_C 	C 	0.3818	0.0253	0.6875	0.058
Mof_C 	C 	0.3771	0.0653	0.2556	0.093
Mof_C 	C 	0.3035	0.9923	0.1375	0.099
Mof_H 	H 	0.256	0.971	0.1047	0.018
Mof_N 	N 	0.4059	0.2119	0.5627	-0.164
Mof_C 	C 	0.3697	0.9078	0.6813	0.036
Mof_H 	H 	0.3642	0.8561	0.6529	0.03
Mof_C 	C 	0.389	0.1055	0.3364	-0.044
Mof_C 	C 	0.3899	0.0787	0.6586	-0.038
Mof_C 	C 	0.3907	0.0601	0.7674	-0.104
Mof_H 	H 	0.3995	0.1123	0.7964	0.065
Mof_C 	C 	0.3486	0.4946	0.6962	0.081
Mof_C 	C 	0.3321	0.6365	0.7809	-0.119
Mof_O 	O 	0.3857	0.8317	0.761	-0.32
Mof_C 	C 	0.3231	0.3631	0.6627	0.002
Mof_H 	H 	0.2895	0.3722	0.6902	0.032
Mof_C 	C 	0.282	0.5014	0.6996	-0.119
Mof_H 	H 	0.2432	0.4576	0.6773	0.073
Mof_C 	C 	0.6004	0.8296	0.8702	-0.199
Mof_H 	H 	0.6124	0.7927	0.831	0.097
Mof_C 	C 	0.3572	0.9772	0.1071	-0.175
Mof_C 	C 	0.3629	0.0922	0.5526	-0.134
Mof_H 	H 	0.3395	0.0717	0.5022	0.081
Mof_C 	C 	0.4245	0.1543	0.7017	0.007
Mof_H 	H 	0.4462	0.1765	0.7527	0.026
Mof_C 	C 	0.3425	0.1486	0.3649	0.008
Mof_H 	H 	0.3065	0.1526	0.3319	0.026
Mof_C 	C 	0.358	0.4183	0.656	-0.044
Mof_C 	C 	0.4022	0.1805	0.4874	0.105
Mof_C 	C 	0.3889	0.2821	0.5941	0.109
Mof_N 	N 	0.5096	0.8769	0.9183	-0.259
Mof_C 	C 	0.3757	0.9386	0.755	-0.112
Mof_C 	C 	0.4263	0.3419	0.5912	-0.123
Mof_H 	H 	0.464	0.3361	0.5687	0.076
Mof_C 	C 	0.4261	0.1971	0.6668	-0.143
Mof_H 	H 	0.4459	0.2494	0.6959	0.082
Mof_C 	C 	0.3784	0.8938	0.7904	0.322
Mof_C 	C 	0.4232	0.0081	0.1479	0.072
Mof_H 	H 	0.4615	0.002	0.1263	0.02
Mof_C 	C 	0.5618	0.9257	0.9825	0.092
Mof_H 	H 	0.5486	0.9604	0.0222	-0.01
Mof_C 	C 	0.3088	0.0347	0.2099	-0.164
Mof_H 	H 	0.2677	0.0421	0.2268	0.09
Mof_C 	C 	0.3591	0.0469	0.5842	0.004
Mof_H 	H 	0.3356	0.9952	0.5548	0.026
Mof_C 	C 	0.3861	0.0164	0.7993	0.03
Mof_H 	H 	0.3898	0.0378	0.8498	0.035
Mof_C 	C 	0.4011	0.1671	0.5952	0.135
Mof_C 	C 	0.6347	0.926	0.9914	-0.184
Mof_H 	H 	0.6695	0.9575	0.0378	0.102
Mof_C 	C 	0.4457	0.1041	0.3888	0
Mof_H 	H 	0.4792	0.0772	0.3717	0.032
Mof_C 	C 	0.3222	0.7117	0.825	0.365
Mof_C 	C 	0.4529	0.1402	0.4626	-0.114
Mof_H 	H 	0.4905	0.1383	0.496	0.073
Mof_C 	C 	0.3714	0.9497	0.6483	-0.118
Mof_H 	H 	0.3653	0.9262	0.5972	0.067
Mof_C 	C 	0.2672	0.5721	0.7355	0.033
Mof_H 	H 	0.2195	0.5772	0.7305	0.037
Mof_C 	C 	0.3968	0.6283	0.7733	0.054
Mof_H 	H 	0.4371	0.6709	0.7962	0.024
Mof_C 	C 	0.7391	0.8976	0.9478	-0.132
Mof_H 	H 	0.7754	0.9427	0.9816	0.084
Mof_C 	C 	0.411	0.4082	0.6194	0.006
Mof_H 	H 	0.4358	0.4472	0.6143	0.027
Mof_C 	C 	0.334	0.2924	0.6309	-0.121
Mof_H 	H 	0.3064	0.2531	0.6336	0.075
Mof_C 	C 	0.6546	0.8814	0.9339	0.148
Mof_C 	C 	0.4061	0.5568	0.7316	-0.127
Mof_H 	H 	0.4528	0.5521	0.7281	0.073
Mof_C 	C 	0.3461	0.1839	0.4353	-0.118
Mof_H 	H 	0.3126	0.2111	0.4515	0.072
Mof_C 	C 	0.966	0.9052	0.9442	0.086
Mof_H 	H 	0.0066	0.945	0.9578	-0.008
Mof_C 	C 	0.8968	0.9187	0.9436	-0.128
Mof_H 	H 	0.8905	0.9657	0.9533	0.084
Mof_C 	C 	0.9193	0.7752	0.9069	0.025
Mof_H 	H 	0.9294	0.7291	0.8947	0.029
Mof_C 	C 	0.8381	0.8606	0.9283	0.052
Mof_C 	C 	0.7457	0.843	0.9082	-0.004
Mof_H 	H 	0.7096	0.7984	0.8727	0.028
Mof_C 	C 	0.8484	0.7835	0.9063	-0.089
Mof_H 	H 	0.809	0.7427	0.8928	0.062
Mof_Zn	Zn	0.23373	0.79247	0.90655	1.211
Mof_Zn	Zn	0.0792	0.82997	0.94414	1.222
Mof_O 	O 	0.19	0.8323	0.844	-0.444
Mof_O 	O 	0.1143	0.8916	0.9039	-0.464
Mof_N 	N 	0.1441	0.1825	0.6143	-0.173
Mof_O 	O 	0.1174	0.908	0.0468	-0.435
Mof_C 	C 	0.1565	0.0144	0.7621	0.11
Mof_O 	O 	0.1428	0.7551	0.9201	-0.565
Mof_C 	C 	0.1572	0.8849	0.8647	0.367
Mof_C 	C 	0.1942	0.9638	0.7438	-0.156
Mof_H 	H 	0.2179	0.956	0.7072	0.087
Mof_C 	C 	0.0955	0.62	0.8254	-0.086
Mof_C 	C 	0.1101	0.0043	0.3078	0.062
Mof_O 	O 	0.0264	0.7092	0.8463	-0.35
Mof_C 	C 	0.1563	0.9298	0.83	-0.144
Mof_C 	C 	0.1465	0.1434	0.6529	0.139
Mof_C 	C 	0.1518	0.0597	0.7229	-0.063
Mof_C 	C 	0.138	0.2547	0.6482	0.125
Mof_C 	C 	0.1131	0.4787	0.7572	0.062
Mof_C 	C 	0.1224	0.3999	0.7168	-0.036
Mof_C 	C 	0.1775	0.1707	0.5053	-0.119
Mof_H 	H 	0.2103	0.219	0.532	0.073
Mof_C 	C 	0.0958	0.1367	0.6873	-0.146
Mof_H 	H 	0.0579	0.1597	0.6865	0.08
Mof_C 	C 	0.1363	0.1403	0.5391	0.112
Mof_C 	C 	0.1026	0.2833	0.608	-0.127
Mof_H 	H 	0.0821	0.2522	0.5567	0.078
Mof_C 	C 	0.1977	0.9242	0.7787	0.072
Mof_H 	H 	0.2279	0.8919	0.7694	0.023
Mof_C 	C 	0.0993	0.0958	0.7241	0.02
Mof_H 	H 	0.0652	0.0934	0.7497	0.024
Mof_O 	O 	0.0575	0.8079	0.0424	-0.326
Mof_C 	C 	0.0855	0.0216	0.4228	-0.005
Mof_H 	H 	0.0555	0.972	0.3965	0.031
Mof_C 	C 	0.1535	0.6023	0.8605	0.022
Mof_H 	H 	0.1853	0.6381	0.9075	0.011
Mof_C 	C 	0.0972	0.3544	0.6407	0.003
Mof_H 	H 	0.0761	0.373	0.6116	0.028
Mof_C 	C 	0.2012	0.068	0.6862	0.034
Mof_H 	H 	0.2377	0.043	0.6837	0.02
Mof_C 	C 	0.164	0.2997	0.7225	-0.129
Mof_H 	H 	0.1865	0.2803	0.7502	0.077
Mof_C 	C 	0.0585	0.4953	0.7222	-0.104
Mof_H 	H 	0.0278	0.4579	0.6752	0.066
Mof_C 	C 	0.1212	0.0509	0.386	-0.035
Mof_C 	C 	0.1612	0.5325	0.824	-0.107
Mof_H 	H 	0.2005	0.5205	0.845	0.065
Mof_C 	C 	0.1205	0.0251	0.813	-0.154
Mof_H 	H 	0.0969	0.0633	0.8269	0.086
Mof_C 	C 	0.1593	0.3731	0.7603	-0.002
Mof_H 	H 	0.1793	0.4035	0.8117	0.029
Mof_C 	C 	0.0923	0.9275	0.2723	-0.107
Mof_H 	H 	0.0844	0.9032	0.2991	0.065
Mof_C 	C 	0.047	0.5656	0.7538	0.021
Mof_H 	H 	0.0094	0.577	0.7297	0.037
Mof_C 	C 	0.1999	0.1095	0.6542	-0.156
Mof_H 	H 	0.2365	0.1152	0.6323	0.089
Mof_C 	C 	0.0946	0.0658	0.4982	-0.116
Mof_H 	H 	0.0718	0.0446	0.5221	0.073
Mof_C 	C 	0.126	0.0395	0.2686	-0.107
Mof_H 	H 	0.1438	0.092	0.2937	0.065
Mof_C 	C 	0.1659	0.1239	0.4302	-0.001
Mof_H 	H 	0.191	0.1439	0.4067	0.028
Mof_C 	C 	0.1178	0.9817	0.8445	0.077
Mof_H 	H 	0.0891	0.9874	0.8767	0.019
Mof_C 	C 	0.116	0.9985	0.1921	0.023
Mof_H 	H 	0.1202	0.023	0.1649	0.033
Mof_C 	C 	0.0858	0.8843	0.1967	0.026
Mof_H 	H 	0.072	0.8317	0.1734	0.035
Mof_C 	C 	0.0995	0.9185	0.1567	-0.098
Mof_C 	C 	0.0856	0.6976	0.8645	0.266
Mof_C 	C 	0.0924	0.877	0.0793	0.302
_end
