# CIF file generated by openbabel 3.1.0, see https://openbabel.org
data_I
_chemical_name_common 'ic502725y_si_003_clean'
_cell_length_a 9.1948
_cell_length_b 10.727
_cell_length_c 10.727
_cell_angle_alpha 114.583
_cell_angle_beta 102.927
_cell_angle_gamma 102.927
_space_group_name_H-M_alt 'P 1'
_space_group_name_Hall 'P 1'
loop_
    _symmetry_equiv_pos_as_xyz
    x,y,z
loop_
    _atom_site_label
    _atom_site_type_symbol
    _atom_site_fract_x
    _atom_site_fract_y
    _atom_site_fract_z
    _atom_site_occupancy
    Th1      Th       0.25000    0.48131    0.51869    1.000
    Th2      Th       0.75000    0.51869    0.48131    1.000
    H1       H        0.52180    0.20330    0.04890    1.000
    H2       H        0.25270    0.02350    0.48210    1.000
    H3       H        0.78660    0.46320    0.81040    1.000
    H4       H        0.07060    0.16630    0.01970    1.000
    H5       H        0.02180    0.04890    0.20330    1.000
    H6       H        0.75270    0.48210    0.02350    1.000
    H7       H        0.97820    0.95110    0.79670    1.000
    H8       H        0.92940    0.83370    0.98030    1.000
    H9       H        0.71340    0.18960    0.53680    1.000
    H10      H        0.57060    0.01970    0.16630    1.000
    H11      H        0.47820    0.79670    0.95110    1.000
    H12      H        0.24730    0.51790    0.97650    1.000
    H13      H        0.74730    0.97650    0.51790    1.000
    H14      H        0.21340    0.53680    0.18960    1.000
    H15      H        0.28660    0.81040    0.46320    1.000
    H16      H        0.42940    0.98030    0.83370    1.000
    C1       C        0.86480    0.21590    0.32370    1.000
    C2       C        0.35730    0.01640    0.87220    1.000
    C3       C        0.14270    0.12780    0.98360    1.000
    C4       C        0.13520    0.78410    0.67630    1.000
    C5       C        0.14810    0.51100    0.98600    1.000
    C6       C        0.85730    0.87220    0.01640    1.000
    C7       C        0.87250    0.47830    0.88690    1.000
    C8       C        0.69480    0.80020    0.93800    1.000
    C9       C        0.37250    0.88690    0.47830    1.000
    C10      C        0.02090    0.48990    0.87250    1.000
    C11      C        0.08710    0.99760    0.85100    1.000
    C12      C        0.30520    0.19980    0.06200    1.000
    C13      C        0.35190    0.01400    0.48900    1.000
    C14      C        0.91290    0.00240    0.14900    1.000
    C15      C        0.97910    0.51010    0.12750    1.000
    C16      C        0.58710    0.85100    0.99760    1.000
    C17      C        0.04420    0.48060    0.73560    1.000
    C18      C        0.36480    0.32370    0.21590    1.000
    C19      C        0.12750    0.52170    0.11310    1.000
    C20      C        0.85190    0.48900    0.01400    1.000
    C21      C        0.95580    0.51940    0.26440    1.000
    C22      C        0.62750    0.11310    0.52170    1.000
    C23      C        0.45580    0.26440    0.51940    1.000
    C24      C        0.64270    0.98360    0.12780    1.000
    C25      C        0.64810    0.98600    0.51100    1.000
    C26      C        0.52090    0.87250    0.48990    1.000
    C27      C        0.19480    0.93800    0.80020    1.000
    C28      C        0.63520    0.67630    0.78410    1.000
    C29      C        0.41290    0.14900    0.00240    1.000
    C30      C        0.54420    0.73560    0.48060    1.000
    C31      C        0.47910    0.12750    0.51010    1.000
    C32      C        0.80520    0.06200    0.19980    1.000
    O1       O        0.32720    0.28057    0.52603    1.000
    O2       O        0.51100    0.40288    0.27232    1.000
    O3       O        0.01100    0.27232    0.40288    1.000
    O4       O        0.06630    0.51763    0.35697    1.000
    O5       O        0.48900    0.59712    0.72768    1.000
    O6       O        0.82720    0.52603    0.28057    1.000
    O7       O        0.26690    0.33833    0.28067    1.000
    O8       O        0.73310    0.66167    0.71933    1.000
    O9       O        0.17280    0.47397    0.71943    1.000
    O10      O        0.98900    0.72768    0.59712    1.000
    O11      O        0.23310    0.71933    0.66167    1.000
    O12      O        0.93370    0.48237    0.64303    1.000
    O13      O        0.43370    0.64303    0.48237    1.000
    O14      O        0.56630    0.35697    0.51763    1.000
    O15      O        0.67280    0.71943    0.47397    1.000
    O16      O        0.76690    0.28067    0.33833    1.000
