data_functionalizedCrystal
_audit_creation_method	'EQeq! by Chris Wilmer'
_symmetry_space_group_name_H-M	'P1'
_symmetry_Int_Tables_number	1
_symmetry_cell_setting	triclinic
loop_
_symmetry_equiv_pos_as_xyz
  x,y,z
_cell_length_a	14.0652
_cell_length_b	5.8601
_cell_length_c	21.268
_cell_angle_alpha	90
_cell_angle_beta	95.213
_cell_angle_gamma	90
loop_
_atom_site_label
_atom_site_type_symbol
_atom_site_fract_x
_atom_site_fract_y
_atom_site_fract_z
_atom_site_charge
Mof_Ba	Ba	0.12166	0.23277	0.75397	1.842
Mof_S 	S 	0.58164	0.9661	0.8783	0.313
Mof_O 	O 	0.977	0.5116	0.779	-0.476
Mof_O 	O 	0.7063	0.9371	0.1903	-0.61
Mof_O 	O 	0.5103	0.8041	0.8537	-0.356
Mof_O 	O 	0.0242	0.8766	0.787	-0.52
Mof_O 	O 	0.6906	0.5649	0.1715	-0.55
Mof_O 	O 	0.5665	0.206	0.8699	-0.26
Mof_C 	C 	0.964	0.7181	0.7896	0.442
Mof_C 	C 	0.8671	0.7812	0.8101	-0.168
Mof_C 	C 	0.8514	0.9966	0.8338	0.049
Mof_H 	H 	0.9006	0.1031	0.8361	-0.008
Mof_C 	C 	0.7647	0.0571	0.854	-0.096
Mof_H 	H 	0.7546	0.201	0.8706	0.063
Mof_C 	C 	0.7936	0.6261	0.8048	0.054
Mof_H 	H 	0.8039	0.4821	0.7884	0.021
Mof_C 	C 	0.7069	0.6784	0.823	-0.097
Mof_H 	H 	0.6573	0.573	0.8185	0.069
Mof_C 	C 	0.6927	0.8934	0.8486	-0.007
Mof_C 	C 	0.6828	0.7659	0.1549	0.411
Mof_C 	C 	0.6522	0.8219	0.086	-0.177
Mof_C 	C 	0.6647	0.0391	0.0624	0.063
Mof_H 	H 	0.689	0.1547	0.0892	-0.02
Mof_C 	C 	0.6413	0.084	-0	-0.091
Mof_H 	H 	0.6504	0.2294	0.984	0.058
Mof_C 	C 	0.604	0.9111	0.9602	-0
Mof_C 	C 	0.59	0.6936	0.9826	-0.119
Mof_H 	H 	0.5655	0.5783	0.9558	0.083
Mof_C 	C 	0.614	0.6525	0.0467	0.072
Mof_H 	H 	0.604	0.5083	0.0631	0.006
Mof_Ba	Ba	0.37834	0.73277	0.74603	1.848
Mof_S 	S 	0.91836	0.4661	0.6217	0.307
Mof_O 	O 	0.523	0.0116	0.721	-0.476
Mof_O 	O 	0.7937	0.4371	0.3097	-0.61
Mof_O 	O 	0.9897	0.3041	0.6463	-0.352
Mof_O 	O 	0.4758	0.3766	0.713	-0.522
Mof_O 	O 	0.8094	0.0649	0.3285	-0.551
Mof_O 	O 	0.9335	0.706	0.6301	-0.261
Mof_C 	C 	0.536	0.2181	0.7104	0.451
Mof_C 	C 	0.6329	0.2812	0.6899	-0.188
Mof_C 	C 	0.6486	0.4966	0.6662	0.08
Mof_H 	H 	0.5994	0.6031	0.6639	-0.021
Mof_C 	C 	0.7353	0.5571	0.646	-0.125
Mof_H 	H 	0.7454	0.701	0.6294	0.073
Mof_C 	C 	0.7064	0.1261	0.6952	0.08
Mof_H 	H 	0.6961	0.9821	0.7116	0.01
Mof_C 	C 	0.7931	0.1784	0.677	-0.119
Mof_H 	H 	0.8427	0.073	0.6815	0.077
Mof_C 	C 	0.8073	0.3934	0.6514	0.012
Mof_C 	C 	0.8172	0.2659	0.3451	0.413
Mof_C 	C 	0.8478	0.3219	0.414	-0.184
Mof_C 	C 	0.8353	0.5391	0.4376	0.08
Mof_H 	H 	0.811	0.6547	0.4108	-0.027
Mof_C 	C 	0.8587	0.584	0.5	-0.124
Mof_H 	H 	0.8496	0.7294	0.516	0.073
Mof_C 	C 	0.896	0.4111	0.5398	0.017
Mof_C 	C 	0.91	0.1936	0.5174	-0.118
Mof_H 	H 	0.9345	0.0783	0.5442	0.085
Mof_C 	C 	0.886	0.1525	0.4533	0.07
Mof_H 	H 	0.896	0.0083	0.4369	0.006
Mof_Ba	Ba	0.87834	0.76723	0.24603	1.846
Mof_S 	S 	0.41836	0.0339	0.1217	0.317
Mof_O 	O 	0.023	0.4884	0.221	-0.475
Mof_O 	O 	0.2937	0.0629	0.8097	-0.608
Mof_O 	O 	0.4897	0.1959	0.1463	-0.356
Mof_O 	O 	0.9758	0.1234	0.213	-0.519
Mof_O 	O 	0.3094	0.4351	0.8285	-0.549
Mof_O 	O 	0.4335	0.794	0.1301	-0.26
Mof_C 	C 	0.036	0.2819	0.2104	0.441
Mof_C 	C 	0.1329	0.2188	0.1899	-0.166
Mof_C 	C 	0.1486	0.0034	0.1662	0.046
Mof_H 	H 	0.0994	0.8969	0.1639	-0.006
Mof_C 	C 	0.2353	0.9429	0.146	-0.092
Mof_H 	H 	0.2454	0.799	0.1294	0.063
Mof_C 	C 	0.2064	0.3739	0.1952	0.052
Mof_H 	H 	0.1961	0.5179	0.2116	0.022
Mof_C 	C 	0.2931	0.3216	0.177	-0.095
Mof_H 	H 	0.3427	0.427	0.1815	0.068
Mof_C 	C 	0.3073	0.1066	0.1514	-0.009
Mof_C 	C 	0.3172	0.2341	0.8451	0.405
Mof_C 	C 	0.3478	0.1781	0.914	-0.163
Mof_C 	C 	0.3353	0.9609	0.9376	0.045
Mof_H 	H 	0.311	0.8453	0.9108	-0.016
Mof_C 	C 	0.3587	0.916	-0	-0.087
Mof_H 	H 	0.3496	0.7706	0.016	0.063
Mof_C 	C 	0.396	0.0889	0.0398	-0.005
Mof_C 	C 	0.41	0.3064	0.0174	-0.086
Mof_H 	H 	0.4345	0.4217	0.0442	0.074
Mof_C 	C 	0.386	0.3475	0.9533	0.038
Mof_H 	H 	0.396	0.4917	0.9369	0.015
Mof_Ba	Ba	0.62166	0.26723	0.25397	1.848
Mof_S 	S 	0.08164	0.5339	0.3783	0.307
Mof_O 	O 	0.477	0.9884	0.279	-0.476
Mof_O 	O 	0.2063	0.5629	0.6903	-0.61
Mof_O 	O 	0.0103	0.6959	0.3537	-0.353
Mof_O 	O 	0.5242	0.6234	0.287	-0.523
Mof_O 	O 	0.1906	0.9351	0.6715	-0.55
Mof_O 	O 	0.0665	0.294	0.3699	-0.261
Mof_C 	C 	0.464	0.7819	0.2896	0.451
Mof_C 	C 	0.3671	0.7188	0.3101	-0.188
Mof_C 	C 	0.3514	0.5034	0.3338	0.081
Mof_H 	H 	0.4006	0.3969	0.3361	-0.021
Mof_C 	C 	0.2647	0.4429	0.354	-0.126
Mof_H 	H 	0.2546	0.299	0.3706	0.073
Mof_C 	C 	0.2936	0.8739	0.3048	0.081
Mof_H 	H 	0.3039	0.0179	0.2884	0.01
Mof_C 	C 	0.2069	0.8216	0.323	-0.12
Mof_H 	H 	0.1573	0.927	0.3185	0.077
Mof_C 	C 	0.1927	0.6066	0.3486	0.012
Mof_C 	C 	0.1828	0.7341	0.6549	0.413
Mof_C 	C 	0.1522	0.6781	0.586	-0.184
Mof_C 	C 	0.1647	0.4609	0.5624	0.079
Mof_H 	H 	0.189	0.3453	0.5892	-0.027
Mof_C 	C 	0.1413	0.416	0.5	-0.124
Mof_H 	H 	0.1504	0.2706	0.484	0.073
Mof_C 	C 	0.104	0.5889	0.4602	0.017
Mof_C 	C 	0.09	0.8064	0.4826	-0.118
Mof_H 	H 	0.0655	0.9217	0.4558	0.085
Mof_C 	C 	0.114	0.8475	0.5467	0.07
Mof_H 	H 	0.104	0.9917	0.5631	0.006
_end
