data_functionalizedCrystal
_audit_creation_method	'EQeq! by Chris Wilmer'
_symmetry_space_group_name_H-M	'P1'
_symmetry_Int_Tables_number	1
_symmetry_cell_setting	triclinic
loop_
_symmetry_equiv_pos_as_xyz
  x,y,z
_cell_length_a	31.1162
_cell_length_b	31.1162
_cell_length_c	31.1162
_cell_angle_alpha	109.471
_cell_angle_beta	109.471
_cell_angle_gamma	109.471
loop_
_atom_site_label
_atom_site_type_symbol
_atom_site_fract_x
_atom_site_fract_y
_atom_site_fract_z
_atom_site_charge
Mof_Zn	Zn	0.89039	0.75	0.64039	1.247
Mof_Zn	Zn	0.60961	0.25	0.85961	1.249
Mof_Zn	Zn	0.14039	0.89039	0.25	1.247
Mof_Zn	Zn	0.35961	0.60961	0.75	1.249
Mof_Zn	Zn	0.25	0.35961	0.10961	1.246
Mof_Zn	Zn	0.75	0.14039	0.39039	1.248
Mof_Zn	Zn	0.75	0.60961	0.85961	1.248
Mof_Zn	Zn	0.25	0.89039	0.64039	1.246
Mof_Zn	Zn	0.60961	0.35961	0.25	1.248
Mof_Zn	Zn	0.89039	0.14039	0.75	1.246
Mof_Zn	Zn	0.14039	0.25	0.39039	1.248
Mof_Zn	Zn	0.35961	0.75	0.10961	1.246
Mof_Zn	Zn	0.75	0.50064	0.49936	1.244
Mof_Zn	Zn	0.50128	0.25064	0.00064	1.234
Mof_Zn	Zn	0.99872	0.99936	0.74936	1.227
Mof_Zn	Zn	0.75	0.24936	0.75064	1.243
Mof_Zn	Zn	0.24936	0.99872	0.49936	1.235
Mof_Zn	Zn	0.25064	0.75	0.74936	1.243
Mof_Zn	Zn	0.99936	0.75	0.00064	1.225
Mof_Zn	Zn	0.50064	0.50128	0.75064	1.244
Mof_Zn	Zn	0.25064	0.50064	0.00128	1.234
Mof_Zn	Zn	0.50064	0.99936	0.25	1.235
Mof_Zn	Zn	0.24936	0.25064	0.25	1.243
Mof_Zn	Zn	0.99936	0.24936	0.49872	1.235
Mof_H 	H 	0.6179	0.6153	0.5874	0.152
Mof_H 	H 	0.9215	0.7205	0.8076	0.093
Mof_H 	H 	0.0057	0.9312	0.8803	0.154
Mof_H 	H 	0.0045	0.8556	0.9419	0.153
Mof_H 	H 	0.5996	0.5224	0.4764	0.095
Mof_H 	H 	0.697	0.6679	0.5961	0.103
Mof_H 	H 	0.9632	0.8563	0.8073	0.117
Mof_H 	H 	0.749	0.5952	0.5144	0.067
Mof_H 	H 	0.5279	0.0305	0.9126	0.163
Mof_H 	H 	0.4129	0.1139	0.6924	0.091
Mof_H 	H 	0.5509	0.1254	0.6197	0.151
Mof_H 	H 	0.4137	0.0626	0.5581	0.112
Mof_H 	H 	0.546	0.1232	0.0236	0.103
Mof_H 	H 	0.5718	0.1009	0.9039	0.111
Mof_H 	H 	0.549	0.1559	0.6927	0.123
Mof_H 	H 	0.5808	0.2346	0.9856	0.062
Mof_H 	H 	0.9721	0.8847	0.5026	0.144
Mof_H 	H 	0.0871	0.7795	0.701	0.122
Mof_H 	H 	0.9491	0.5688	0.5745	0.154
Mof_H 	H 	0.0863	0.6444	0.6489	0.135
Mof_H 	H 	0.954	0.9776	0.5772	0.085
Mof_H 	H 	0.9282	0.8321	0.5291	0.101
Mof_H 	H 	0.951	0.6437	0.6069	0.172
Mof_H 	H 	0.9192	0.9048	0.6538	0.069
Mof_H 	H 	0.8821	0.4695	0.9974	0.155
Mof_H 	H 	0.5785	0.3861	0.799	0.089
Mof_H 	H 	0.4943	0.3746	0.9255	0.155
Mof_H 	H 	0.4955	0.4374	0.8511	0.108
Mof_H 	H 	0.9004	0.3768	0.9228	0.098
Mof_H 	H 	0.803	0.3991	0.9709	0.107
Mof_H 	H 	0.5368	0.3441	0.8931	0.123
Mof_H 	H 	0.751	0.2654	0.8462	0.069
Mof_H 	H 	0.0026	0.9721	0.3847	0.149
Mof_H 	H 	0.201	0.0871	0.2795	0.12
Mof_H 	H 	0.0745	0.9491	0.0688	0.152
Mof_H 	H 	0.1489	0.0863	0.1444	0.133
Mof_H 	H 	0.0772	0.954	0.4776	0.093
Mof_H 	H 	0.0291	0.9282	0.3321	0.103
Mof_H 	H 	0.1069	0.951	0.1437	0.169
Mof_H 	H 	0.1538	0.9192	0.4048	0.067
Mof_H 	H 	0.4974	0.8821	0.9695	0.159
Mof_H 	H 	0.299	0.5785	0.8861	0.091
Mof_H 	H 	0.4255	0.4943	0.8746	0.151
Mof_H 	H 	0.3511	0.4955	0.9374	0.113
Mof_H 	H 	0.4228	0.9004	0.8768	0.093
Mof_H 	H 	0.4709	0.803	0.8991	0.106
Mof_H 	H 	0.3931	0.5368	0.8441	0.123
Mof_H 	H 	0.3462	0.751	0.7654	0.068
Mof_H 	H 	0.0874	0.6179	0.1153	0.154
Mof_H 	H 	0.3076	0.9215	0.2205	0.091
Mof_H 	H 	0.3803	0.0057	0.4312	0.159
Mof_H 	H 	0.4419	0.0045	0.3556	0.147
Mof_H 	H 	0.9764	0.5996	0.0224	0.098
Mof_H 	H 	0.0961	0.697	0.1679	0.109
Mof_H 	H 	0.3073	0.9632	0.3563	0.117
Mof_H 	H 	0.0144	0.749	0.0952	0.065
Mof_H 	H 	0.4126	0.5279	0.5305	0.152
Mof_H 	H 	0.1924	0.4129	0.6139	0.091
Mof_H 	H 	0.1197	0.5509	0.6254	0.15
Mof_H 	H 	0.0581	0.4137	0.5626	0.114
Mof_H 	H 	0.5236	0.546	0.6232	0.095
Mof_H 	H 	0.4039	0.5718	0.6009	0.104
Mof_H 	H 	0.1927	0.549	0.6559	0.123
Mof_H 	H 	0.4856	0.5808	0.7346	0.068
Mof_H 	H 	0.0305	0.4126	0.0279	0.153
Mof_H 	H 	0.1139	0.1924	0.9129	0.127
Mof_H 	H 	0.1254	0.1197	0.0509	0.155
Mof_H 	H 	0.0626	0.0581	0.9137	0.148
Mof_H 	H 	0.1232	0.5236	0.046	0.089
Mof_H 	H 	0.1009	0.4039	0.0718	0.103
Mof_H 	H 	0.1559	0.1927	0.049	0.177
Mof_H 	H 	0.2346	0.4856	0.0808	0.066
Mof_H 	H 	0.6153	0.0874	0.1179	0.152
Mof_H 	H 	0.7205	0.3076	0.4215	0.088
Mof_H 	H 	0.9312	0.3803	0.5057	0.144
Mof_H 	H 	0.8556	0.4419	0.5045	0.106
Mof_H 	H 	0.5224	0.9764	0.0996	0.098
Mof_H 	H 	0.6679	0.0961	0.197	0.104
Mof_H 	H 	0.8563	0.3073	0.4632	0.12
Mof_H 	H 	0.5952	0.0144	0.249	0.061
Mof_H 	H 	0.4695	0.4974	0.3821	0.152
Mof_H 	H 	0.3861	0.299	0.0785	0.093
Mof_H 	H 	0.3746	0.4255	0.9943	0.16
Mof_H 	H 	0.4374	0.3511	0.9955	0.152
Mof_H 	H 	0.3768	0.4228	0.4004	0.095
Mof_H 	H 	0.3991	0.4709	0.303	0.103
Mof_H 	H 	0.3441	0.3931	0.0368	0.117
Mof_H 	H 	0.2654	0.3462	0.251	0.068
Mof_H 	H 	0.8847	0.0026	0.4721	0.156
Mof_H 	H 	0.7795	0.201	0.5871	0.088
Mof_H 	H 	0.5688	0.0745	0.4491	0.154
Mof_H 	H 	0.6444	0.1489	0.5863	0.107
Mof_H 	H 	0.9776	0.0772	0.454	0.096
Mof_H 	H 	0.8321	0.0291	0.4282	0.109
Mof_H 	H 	0.6437	0.1069	0.451	0.123
Mof_H 	H 	0.9048	0.1538	0.4192	0.072
Mof_H 	H 	0.8847	0.8821	0.9126	0.152
Mof_H 	H 	0.7795	0.5785	0.6924	0.088
Mof_H 	H 	0.5688	0.4943	0.6197	0.15
Mof_H 	H 	0.6444	0.4955	0.5581	0.107
Mof_H 	H 	0.9776	0.9004	0.0236	0.096
Mof_H 	H 	0.8321	0.803	0.9039	0.108
Mof_H 	H 	0.6437	0.5368	0.6927	0.122
Mof_H 	H 	0.9048	0.751	0.9856	0.064
Mof_H 	H 	0.4695	0.9721	0.5874	0.145
Mof_H 	H 	0.3861	0.0871	0.8076	0.123
Mof_H 	H 	0.3746	0.9491	0.8803	0.154
Mof_H 	H 	0.4374	0.0863	0.9419	0.142
Mof_H 	H 	0.3768	0.954	0.4764	0.088
Mof_H 	H 	0.3991	0.9282	0.5961	0.1
Mof_H 	H 	0.3441	0.951	0.8073	0.172
Mof_H 	H 	0.2654	0.9192	0.5144	0.066
Mof_H 	H 	0.6153	0.5279	0.9974	0.156
Mof_H 	H 	0.7205	0.4129	0.799	0.089
Mof_H 	H 	0.9312	0.5509	0.9255	0.149
Mof_H 	H 	0.8556	0.4137	0.8511	0.106
Mof_H 	H 	0.5224	0.546	0.9228	0.1
Mof_H 	H 	0.6679	0.5718	0.9709	0.107
Mof_H 	H 	0.8563	0.549	0.8931	0.122
Mof_H 	H 	0.5952	0.5808	0.8462	0.069
Mof_H 	H 	0.0305	0.6179	0.5026	0.16
Mof_H 	H 	0.1139	0.9215	0.701	0.094
Mof_H 	H 	0.1254	0.0057	0.5745	0.159
Mof_H 	H 	0.0626	0.0045	0.6489	0.151
Mof_H 	H 	0.1232	0.5996	0.5772	0.096
Mof_H 	H 	0.1009	0.697	0.5291	0.107
Mof_H 	H 	0.1559	0.9632	0.6069	0.119
Mof_H 	H 	0.2346	0.749	0.6538	0.068
Mof_H 	H 	0.5279	0.4974	0.1153	0.151
Mof_H 	H 	0.4129	0.299	0.2205	0.088
Mof_H 	H 	0.5509	0.4255	0.4312	0.15
Mof_H 	H 	0.4137	0.3511	0.3556	0.107
Mof_H 	H 	0.546	0.4228	0.0224	0.091
Mof_H 	H 	0.5718	0.4709	0.1679	0.105
Mof_H 	H 	0.549	0.3931	0.3563	0.122
Mof_H 	H 	0.5808	0.3462	0.0952	0.071
Mof_H 	H 	0.6179	0.0026	0.5305	0.156
Mof_H 	H 	0.9215	0.201	0.6139	0.092
Mof_H 	H 	0.0057	0.0745	0.6254	0.163
Mof_H 	H 	0.0045	0.1489	0.5626	0.147
Mof_H 	H 	0.5996	0.0772	0.6232	0.1
Mof_H 	H 	0.697	0.0291	0.6009	0.108
Mof_H 	H 	0.9632	0.1069	0.6559	0.119
Mof_H 	H 	0.749	0.1538	0.7346	0.069
Mof_H 	H 	0.8821	0.4126	0.3847	0.15
Mof_H 	H 	0.5785	0.1924	0.2795	0.09
Mof_H 	H 	0.4943	0.1197	0.0688	0.144
Mof_H 	H 	0.4955	0.0581	0.1444	0.112
Mof_H 	H 	0.9004	0.5236	0.4776	0.092
Mof_H 	H 	0.803	0.4039	0.3321	0.101
Mof_H 	H 	0.5368	0.1927	0.1437	0.121
Mof_H 	H 	0.751	0.4856	0.4048	0.067
Mof_H 	H 	0.9721	0.0874	0.9695	0.157
Mof_H 	H 	0.0871	0.3076	0.8861	0.123
Mof_H 	H 	0.9491	0.3803	0.8746	0.155
Mof_H 	H 	0.0863	0.4419	0.9374	0.14
Mof_H 	H 	0.954	0.9764	0.8768	0.096
Mof_H 	H 	0.9282	0.0961	0.8991	0.107
Mof_H 	H 	0.951	0.3073	0.8441	0.172
Mof_H 	H 	0.9192	0.0144	0.7654	0.061
Mof_H 	H 	0.0874	0.4695	0.4721	0.154
Mof_H 	H 	0.3076	0.3861	0.5871	0.089
Mof_H 	H 	0.3803	0.3746	0.4491	0.15
Mof_H 	H 	0.4419	0.4374	0.5863	0.107
Mof_H 	H 	0.9764	0.3768	0.454	0.101
Mof_H 	H 	0.0961	0.3991	0.4282	0.107
Mof_H 	H 	0.3073	0.3441	0.451	0.122
Mof_H 	H 	0.0144	0.2654	0.4192	0.062
Mof_H 	H 	0.4126	0.8847	0.3821	0.152
Mof_H 	H 	0.1924	0.7795	0.0785	0.093
Mof_H 	H 	0.1197	0.5688	0.9943	0.16
Mof_H 	H 	0.0581	0.6444	0.9955	0.157
Mof_H 	H 	0.5236	0.9776	0.4004	0.091
Mof_H 	H 	0.4039	0.8321	0.303	0.105
Mof_H 	H 	0.1927	0.6437	0.0368	0.118
Mof_H 	H 	0.4856	0.9048	0.251	0.07
Mof_H 	H 	0.0026	0.0305	0.1179	0.162
Mof_H 	H 	0.201	0.1139	0.4215	0.091
Mof_H 	H 	0.0745	0.1254	0.5057	0.155
Mof_H 	H 	0.1489	0.0626	0.5045	0.113
Mof_H 	H 	0.0772	0.1232	0.0996	0.098
Mof_H 	H 	0.0291	0.1009	0.197	0.109
Mof_H 	H 	0.1069	0.1559	0.4632	0.124
Mof_H 	H 	0.1538	0.2346	0.249	0.069
Mof_H 	H 	0.4974	0.6153	0.0279	0.144
Mof_H 	H 	0.299	0.7205	0.9129	0.125
Mof_H 	H 	0.4255	0.9312	0.0509	0.148
Mof_H 	H 	0.3511	0.8556	0.9137	0.136
Mof_H 	H 	0.4228	0.5224	0.046	0.087
Mof_H 	H 	0.4709	0.6679	0.0718	0.098
Mof_H 	H 	0.3931	0.8563	0.049	0.175
Mof_H 	H 	0.3462	0.5952	0.0808	0.065
Mof_C 	C 	0.98769	0.86635	0.87892	0.177
Mof_C 	C 	0.93801	0.757	0.82529	-0.07
Mof_C 	C 	0.91447	0.75699	0.73794	0.311
Mof_C 	C 	0.55192	0.56596	0.52674	0.209
Mof_C 	C 	0.98731	0.83793	0.90532	-0.192
Mof_C 	C 	0.63294	0.55217	0.49739	-0.119
Mof_C 	C 	0.6411	0.59377	0.53927	0.168
Mof_C 	C 	0.96107	0.7829	0.87699	0.03
Mof_C 	C 	0.69068	0.63816	0.56862	-0.134
Mof_C 	C 	0.96308	0.8379	0.82554	-0.15
Mof_C 	C 	0.67008	0.55169	0.48483	-0.027
Mof_C 	C 	0.72145	0.59635	0.51932	-0.051
Mof_C 	C 	0.73149	0.63999	0.55858	0.005
Mof_C 	C 	0.04179	0.95936	0.95283	0.202
Mof_C 	C 	0.78319	0.68688	0.59219	0.284
Mof_C 	C 	0.93764	0.78305	0.79613	0.014
Mof_C 	C 	0.66009	0.50392	0.43943	0.306
Mof_C 	C 	0.96076	0.75276	0.9078	0.321
Mof_C 	C 	0.48743	0.10877	0.62108	0.183
Mof_C 	C 	0.43171	0.11272	0.67471	-0.055
Mof_C 	C 	0.51905	0.17653	0.76206	0.314
Mof_C 	C 	0.53922	0.02518	0.97326	0.262
Mof_C 	C 	0.43261	0.08199	0.59468	-0.135
Mof_C 	C 	0.55478	0.13555	0.00261	-0.165
Mof_C 	C 	0.5545	0.10183	0.96073	0.212
Mof_C 	C 	0.40591	0.08408	0.62301	0.011
Mof_C 	C 	0.56954	0.12206	0.93138	-0.145
Mof_C 	C 	0.51236	0.13754	0.67446	-0.145
Mof_C 	C 	0.56686	0.18525	0.01517	-0.048
Mof_C 	C 	0.57703	0.20213	0.98068	-0.017
Mof_C 	C 	0.58141	0.17291	0.94142	0.004
Mof_C 	C 	0.50653	0.08896	0.54717	0.218
Mof_C 	C 	0.59469	0.191	0.90781	0.286
Mof_C 	C 	0.48692	0.14151	0.70387	0.012
Mof_C 	C 	0.56449	0.22066	0.06057	0.306
Mof_C 	C 	0.34496	0.05296	0.5922	0.331
Mof_C 	C 	0.01257	0.63365	0.62134	0.297
Mof_C 	C 	0.06829	0.743	0.68101	-0.145
Mof_C 	C 	0.98095	0.74301	0.65748	0.213
Mof_C 	C 	0.96078	0.93404	0.48596	0.198
Mof_C 	C 	0.06739	0.66207	0.64938	-0.211
Mof_C 	C 	0.94522	0.94783	0.58077	-0.134
Mof_C 	C 	0.9455	0.90623	0.54733	0.166
Mof_C 	C 	0.09409	0.7171	0.67817	0.075
Mof_C 	C 	0.93046	0.86184	0.55252	-0.139
Mof_C 	C 	0.98764	0.6621	0.62518	-0.306
Mof_C 	C 	0.93314	0.94831	0.61839	-0.014
Mof_C 	C 	0.92297	0.90365	0.6251	-0.066
Mof_C 	C 	0.91859	0.86001	0.5915	0.008
Mof_C 	C 	0.99347	0.54064	0.58243	0.191
Mof_C 	C 	0.90531	0.81312	0.59631	0.28
Mof_C 	C 	0.01308	0.71695	0.65459	0.147
Mof_C 	C 	0.93551	0.99608	0.65617	0.236
Mof_C 	C 	0.15504	0.74724	0.708	0.309
Mof_C 	C 	0.51231	0.39123	0.87866	0.182
Mof_C 	C 	0.56199	0.38728	0.81899	-0.054
Mof_C 	C 	0.58553	0.32347	0.84252	0.314
Mof_C 	C 	0.94808	0.47482	0.01404	0.177
Mof_C 	C 	0.51269	0.41801	0.85062	-0.135
Mof_C 	C 	0.86706	0.36445	0.91923	-0.119
Mof_C 	C 	0.8589	0.39817	0.95267	0.172
Mof_C 	C 	0.53893	0.41592	0.82183	0.006
Mof_C 	C 	0.80932	0.37794	0.94748	-0.135
Mof_C 	C 	0.53692	0.36246	0.87482	-0.145
Mof_C 	C 	0.82992	0.31475	0.88161	-0.025
Mof_C 	C 	0.77855	0.29787	0.8749	-0.052
Mof_C 	C 	0.76851	0.32709	0.9085	0.009
Mof_C 	C 	0.45821	0.41104	0.91757	0.219
Mof_C 	C 	0.71681	0.309	0.90369	0.283
Mof_C 	C 	0.56236	0.35849	0.84541	0.01
Mof_C 	C 	0.83991	0.27934	0.84383	0.305
Mof_C 	C 	0.53924	0.44704	0.792	0.332
Mof_C 	C 	0.12134	0.01257	0.13365	0.29
Mof_C 	C 	0.18101	0.06829	0.243	-0.14
Mof_C 	C 	0.15748	0.98095	0.24301	0.218
Mof_C 	C 	0.98596	0.96078	0.43404	0.177
Mof_C 	C 	0.14938	0.06739	0.16207	-0.207
Mof_C 	C 	0.08077	0.94522	0.44783	-0.118
Mof_C 	C 	0.04733	0.9455	0.40623	0.166
Mof_C 	C 	0.17817	0.09409	0.2171	0.07
Mof_C 	C 	0.05252	0.93046	0.36184	-0.134
Mof_C 	C 	0.12518	0.98764	0.1621	-0.297
Mof_C 	C 	0.11839	0.93314	0.44831	-0.029
Mof_C 	C 	0.1251	0.92297	0.40365	-0.052
Mof_C 	C 	0.0915	0.91859	0.36001	0.004
Mof_C 	C 	0.08243	0.99347	0.04064	0.172
Mof_C 	C 	0.09631	0.90531	0.31312	0.282
Mof_C 	C 	0.15459	0.01308	0.21695	0.14
Mof_C 	C 	0.15617	0.93551	0.49608	0.303
Mof_C 	C 	0.208	0.15504	0.24724	0.311
Mof_C 	C 	0.37866	0.51231	0.89123	0.184
Mof_C 	C 	0.31899	0.56199	0.88728	-0.055
Mof_C 	C 	0.34252	0.58553	0.82347	0.314
Mof_C 	C 	0.51404	0.94808	0.97482	0.232
Mof_C 	C 	0.35062	0.51269	0.91801	-0.135
Mof_C 	C 	0.41923	0.86706	0.86445	-0.122
Mof_C 	C 	0.45267	0.8589	0.89817	0.171
Mof_C 	C 	0.32183	0.53893	0.91592	0.013
Mof_C 	C 	0.44748	0.80932	0.87794	-0.136
Mof_C 	C 	0.37482	0.53692	0.86246	-0.145
Mof_C 	C 	0.38161	0.82992	0.81475	-0.027
Mof_C 	C 	0.3749	0.77855	0.79787	-0.053
Mof_C 	C 	0.4085	0.76851	0.82709	0.007
Mof_C 	C 	0.41757	0.45821	0.91104	0.219
Mof_C 	C 	0.40369	0.71681	0.809	0.283
Mof_C 	C 	0.34541	0.56236	0.85849	0.013
Mof_C 	C 	0.34383	0.83991	0.77934	0.305
Mof_C 	C 	0.292	0.53924	0.94704	0.331
Mof_C 	C 	0.37892	0.98769	0.36635	0.176
Mof_C 	C 	0.32529	0.93801	0.257	-0.067
Mof_C 	C 	0.23794	0.91447	0.25699	0.311
Mof_C 	C 	0.02674	0.55192	0.06596	0.231
Mof_C 	C 	0.40532	0.98731	0.33793	-0.189
Mof_C 	C 	0.99739	0.63294	0.05217	-0.176
Mof_C 	C 	0.03927	0.6411	0.09377	0.21
Mof_C 	C 	0.37699	0.96107	0.2829	0.025
Mof_C 	C 	0.06862	0.69068	0.13816	-0.149
Mof_C 	C 	0.32554	0.96308	0.3379	-0.148
Mof_C 	C 	0.98483	0.67008	0.05169	-0.027
Mof_C 	C 	0.01932	0.72145	0.09635	-0.034
Mof_C 	C 	0.05858	0.73149	0.13999	0.01
Mof_C 	C 	0.45283	0.04179	0.45936	0.22
Mof_C 	C 	0.09219	0.78319	0.18688	0.283
Mof_C 	C 	0.29613	0.93764	0.28305	0.013
Mof_C 	C 	0.93943	0.66009	0.00392	0.231
Mof_C 	C 	0.4078	0.96076	0.25276	0.324
Mof_C 	C 	0.12108	0.48743	0.60877	0.182
Mof_C 	C 	0.17471	0.43171	0.61272	-0.056
Mof_C 	C 	0.26206	0.51905	0.67653	0.313
Mof_C 	C 	0.47326	0.53922	0.52518	0.209
Mof_C 	C 	0.09468	0.43261	0.58199	-0.138
Mof_C 	C 	0.50261	0.55478	0.63555	-0.12
Mof_C 	C 	0.46073	0.5545	0.60183	0.169
Mof_C 	C 	0.12301	0.40591	0.58408	0.011
Mof_C 	C 	0.43138	0.56954	0.62206	-0.135
Mof_C 	C 	0.17446	0.51236	0.63754	-0.146
Mof_C 	C 	0.51517	0.56686	0.68525	-0.026
Mof_C 	C 	0.48068	0.57703	0.70213	-0.052
Mof_C 	C 	0.44142	0.58141	0.67291	0.006
Mof_C 	C 	0.04717	0.50653	0.58896	0.218
Mof_C 	C 	0.40781	0.59469	0.691	0.283
Mof_C 	C 	0.20387	0.48692	0.64151	0.012
Mof_C 	C 	0.56057	0.56449	0.72066	0.306
Mof_C 	C 	0.0922	0.34496	0.55296	0.329
Mof_C 	C 	0.10877	0.12108	0.98743	0.313
Mof_C 	C 	0.11272	0.17471	0.93171	-0.156
Mof_C 	C 	0.17653	0.26206	0.01905	0.205
Mof_C 	C 	0.02518	0.47326	0.03922	0.228
Mof_C 	C 	0.08199	0.09468	0.93261	-0.221
Mof_C 	C 	0.13555	0.50261	0.05478	-0.121
Mof_C 	C 	0.10183	0.46073	0.0545	0.166
Mof_C 	C 	0.08408	0.12301	0.90591	0.09
Mof_C 	C 	0.12206	0.43138	0.06954	-0.136
Mof_C 	C 	0.13754	0.17446	0.01236	-0.32
Mof_C 	C 	0.18525	0.51517	0.06686	-0.031
Mof_C 	C 	0.20213	0.48068	0.07703	-0.053
Mof_C 	C 	0.17291	0.44142	0.08141	0.004
Mof_C 	C 	0.08896	0.04717	0.00653	0.198
Mof_C 	C 	0.191	0.40781	0.09469	0.282
Mof_C 	C 	0.14151	0.20387	0.98692	0.162
Mof_C 	C 	0.22066	0.56057	0.06449	0.303
Mof_C 	C 	0.05296	0.0922	0.84496	0.304
Mof_C 	C 	0.86635	0.37892	0.48769	0.175
Mof_C 	C 	0.757	0.32529	0.43801	-0.052
Mof_C 	C 	0.75699	0.23794	0.41447	0.314
Mof_C 	C 	0.56596	0.02674	0.05192	0.23
Mof_C 	C 	0.83793	0.40532	0.48731	-0.132
Mof_C 	C 	0.55217	0.99739	0.13294	-0.154
Mof_C 	C 	0.59377	0.03927	0.1411	0.199
Mof_C 	C 	0.7829	0.37699	0.46107	0.004
Mof_C 	C 	0.63816	0.06862	0.19068	-0.139
Mof_C 	C 	0.8379	0.32554	0.46308	-0.142
Mof_C 	C 	0.55169	0.98483	0.17008	-0.051
Mof_C 	C 	0.59635	0.01932	0.22145	-0.016
Mof_C 	C 	0.63999	0.05858	0.23149	-0.001
Mof_C 	C 	0.95936	0.45283	0.54179	0.19
Mof_C 	C 	0.68688	0.09219	0.28319	0.287
Mof_C 	C 	0.78305	0.29613	0.43764	0.007
Mof_C 	C 	0.50392	0.93943	0.16009	0.308
Mof_C 	C 	0.75276	0.4078	0.46076	0.332
Mof_C 	C 	0.39123	0.37866	0.01231	0.177
Mof_C 	C 	0.38728	0.31899	0.06199	-0.069
Mof_C 	C 	0.32347	0.34252	0.08553	0.311
Mof_C 	C 	0.47482	0.51404	0.44808	0.209
Mof_C 	C 	0.41801	0.35062	0.01269	-0.196
Mof_C 	C 	0.36445	0.41923	0.36706	-0.12
Mof_C 	C 	0.39817	0.45267	0.3589	0.169
Mof_C 	C 	0.41592	0.32183	0.03893	0.028
Mof_C 	C 	0.37794	0.44748	0.30932	-0.134
Mof_C 	C 	0.36246	0.37482	0.03692	-0.149
Mof_C 	C 	0.31475	0.38161	0.32992	-0.026
Mof_C 	C 	0.29787	0.3749	0.27855	-0.052
Mof_C 	C 	0.32709	0.4085	0.26851	0.006
Mof_C 	C 	0.41104	0.41757	0.95821	0.222
Mof_C 	C 	0.309	0.40369	0.21681	0.284
Mof_C 	C 	0.35849	0.34541	0.06236	0.014
Mof_C 	C 	0.27934	0.34383	0.33991	0.306
Mof_C 	C 	0.44704	0.292	0.03924	0.323
Mof_C 	C 	0.63365	0.12134	0.51257	0.181
Mof_C 	C 	0.743	0.18101	0.56829	-0.053
Mof_C 	C 	0.74301	0.15748	0.48095	0.314
Mof_C 	C 	0.93404	0.98596	0.46078	0.179
Mof_C 	C 	0.66207	0.14938	0.56739	-0.134
Mof_C 	C 	0.94783	0.08077	0.44522	-0.137
Mof_C 	C 	0.90623	0.04733	0.4455	0.178
Mof_C 	C 	0.7171	0.17817	0.59409	0.005
Mof_C 	C 	0.86184	0.05252	0.43046	-0.143
Mof_C 	C 	0.6621	0.12518	0.48764	-0.144
Mof_C 	C 	0.94831	0.11839	0.43314	-0.005
Mof_C 	C 	0.90365	0.1251	0.42297	-0.068
Mof_C 	C 	0.86001	0.0915	0.41859	0.017
Mof_C 	C 	0.54064	0.08243	0.49347	0.218
Mof_C 	C 	0.81312	0.09631	0.40531	0.279
Mof_C 	C 	0.71695	0.15459	0.51308	0.009
Mof_C 	C 	0.99608	0.15617	0.43551	0.237
Mof_C 	C 	0.74724	0.208	0.65504	0.332
Mof_C 	C 	0.63365	0.51231	0.62108	0.178
Mof_C 	C 	0.743	0.56199	0.67471	-0.052
Mof_C 	C 	0.74301	0.58553	0.76206	0.314
Mof_C 	C 	0.93404	0.94808	0.97326	0.229
Mof_C 	C 	0.66207	0.51269	0.59468	-0.134
Mof_C 	C 	0.94783	0.86706	0.00261	-0.176
Mof_C 	C 	0.90623	0.8589	0.96073	0.209
Mof_C 	C 	0.7171	0.53893	0.62301	0.005
Mof_C 	C 	0.86184	0.80932	0.93138	-0.147
Mof_C 	C 	0.6621	0.53692	0.67446	-0.143
Mof_C 	C 	0.94831	0.82992	0.01517	-0.033
Mof_C 	C 	0.90365	0.77855	0.98068	-0.029
Mof_C 	C 	0.86001	0.76851	0.94142	0.007
Mof_C 	C 	0.54064	0.45821	0.54717	0.214
Mof_C 	C 	0.81312	0.71681	0.90781	0.284
Mof_C 	C 	0.71695	0.56236	0.70387	0.008
Mof_C 	C 	0.99608	0.83991	0.06057	0.238
Mof_C 	C 	0.74724	0.53924	0.5922	0.332
Mof_C 	C 	0.39123	0.01257	0.87892	0.299
Mof_C 	C 	0.38728	0.06829	0.82529	-0.147
Mof_C 	C 	0.32347	0.98095	0.73794	0.214
Mof_C 	C 	0.47482	0.96078	0.52674	0.203
Mof_C 	C 	0.41801	0.06739	0.90532	-0.214
Mof_C 	C 	0.36445	0.94522	0.49739	-0.118
Mof_C 	C 	0.39817	0.9455	0.53927	0.162
Mof_C 	C 	0.41592	0.09409	0.87699	0.079
Mof_C 	C 	0.37794	0.93046	0.56862	-0.133
Mof_C 	C 	0.36246	0.98764	0.82554	-0.305
Mof_C 	C 	0.31475	0.93314	0.48483	-0.032
Mof_C 	C 	0.29787	0.92297	0.51932	-0.051
Mof_C 	C 	0.32709	0.91859	0.55858	0.001
Mof_C 	C 	0.41104	0.99347	0.95283	0.196
Mof_C 	C 	0.309	0.90531	0.59219	0.283
Mof_C 	C 	0.35849	0.01308	0.79613	0.147
Mof_C 	C 	0.27934	0.93551	0.43943	0.304
Mof_C 	C 	0.44704	0.15504	0.9078	0.306
Mof_C 	C 	0.86635	0.48743	0.87866	0.178
Mof_C 	C 	0.757	0.43171	0.81899	-0.052
Mof_C 	C 	0.75699	0.51905	0.84252	0.314
Mof_C 	C 	0.56596	0.53922	0.01404	0.18
Mof_C 	C 	0.83793	0.43261	0.85062	-0.133
Mof_C 	C 	0.55217	0.55478	0.91923	-0.12
Mof_C 	C 	0.59377	0.5545	0.95267	0.174
Mof_C 	C 	0.7829	0.40591	0.82183	0.005
Mof_C 	C 	0.63816	0.56954	0.94748	-0.135
Mof_C 	C 	0.8379	0.51236	0.87482	-0.143
Mof_C 	C 	0.55169	0.56686	0.88161	-0.024
Mof_C 	C 	0.59635	0.57703	0.8749	-0.053
Mof_C 	C 	0.63999	0.58141	0.9085	0.009
Mof_C 	C 	0.95936	0.50653	0.91757	0.195
Mof_C 	C 	0.68688	0.59469	0.90369	0.282
Mof_C 	C 	0.78305	0.48692	0.84541	0.009
Mof_C 	C 	0.50392	0.56449	0.84383	0.305
Mof_C 	C 	0.75276	0.34496	0.792	0.332
Mof_C 	C 	0.10877	0.98769	0.62134	0.181
Mof_C 	C 	0.11272	0.93801	0.68101	-0.069
Mof_C 	C 	0.17653	0.91447	0.65748	0.311
Mof_C 	C 	0.02518	0.55192	0.48596	0.234
Mof_C 	C 	0.08199	0.98731	0.64938	-0.189
Mof_C 	C 	0.13555	0.63294	0.58077	-0.123
Mof_C 	C 	0.10183	0.6411	0.54733	0.174
Mof_C 	C 	0.08408	0.96107	0.67817	0.031
Mof_C 	C 	0.12206	0.69068	0.55252	-0.137
Mof_C 	C 	0.13754	0.96308	0.62518	-0.15
Mof_C 	C 	0.18525	0.67008	0.61839	-0.024
Mof_C 	C 	0.20213	0.72145	0.6251	-0.054
Mof_C 	C 	0.17291	0.73149	0.5915	0.009
Mof_C 	C 	0.08896	0.04179	0.58243	0.225
Mof_C 	C 	0.191	0.78319	0.59631	0.283
Mof_C 	C 	0.14151	0.93764	0.65459	0.016
Mof_C 	C 	0.22066	0.66009	0.65617	0.305
Mof_C 	C 	0.05296	0.96076	0.708	0.323
Mof_C 	C 	0.48743	0.37866	0.36635	0.178
Mof_C 	C 	0.43171	0.31899	0.257	-0.052
Mof_C 	C 	0.51905	0.34252	0.25699	0.314
Mof_C 	C 	0.53922	0.51404	0.06596	0.204
Mof_C 	C 	0.43261	0.35062	0.33793	-0.134
Mof_C 	C 	0.55478	0.41923	0.05217	-0.138
Mof_C 	C 	0.5545	0.45267	0.09377	0.173
Mof_C 	C 	0.40591	0.32183	0.2829	0.005
Mof_C 	C 	0.56954	0.44748	0.13816	-0.142
Mof_C 	C 	0.51236	0.37482	0.3379	-0.143
Mof_C 	C 	0.56686	0.38161	0.05169	-0.006
Mof_C 	C 	0.57703	0.3749	0.09635	-0.069
Mof_C 	C 	0.58141	0.4085	0.13999	0.014
Mof_C 	C 	0.50653	0.41757	0.45936	0.214
Mof_C 	C 	0.59469	0.40369	0.18688	0.28
Mof_C 	C 	0.48692	0.34541	0.28305	0.009
Mof_C 	C 	0.56449	0.34383	0.00392	0.23
Mof_C 	C 	0.34496	0.292	0.25276	0.332
Mof_C 	C 	0.98769	0.12134	0.60877	0.179
Mof_C 	C 	0.93801	0.18101	0.61272	-0.068
Mof_C 	C 	0.91447	0.15748	0.67653	0.311
Mof_C 	C 	0.55192	0.98596	0.52518	0.184
Mof_C 	C 	0.98731	0.14938	0.58199	-0.19
Mof_C 	C 	0.63294	0.08077	0.63555	-0.121
Mof_C 	C 	0.6411	0.04733	0.60183	0.174
Mof_C 	C 	0.96107	0.17817	0.58408	0.026
Mof_C 	C 	0.69068	0.05252	0.62206	-0.136
Mof_C 	C 	0.96308	0.12518	0.63754	-0.15
Mof_C 	C 	0.67008	0.11839	0.68525	-0.023
Mof_C 	C 	0.72145	0.1251	0.70213	-0.053
Mof_C 	C 	0.73149	0.0915	0.67291	0.01
Mof_C 	C 	0.04179	0.08243	0.58896	0.225
Mof_C 	C 	0.78319	0.09631	0.691	0.283
Mof_C 	C 	0.93764	0.15459	0.64151	0.014
Mof_C 	C 	0.66009	0.15617	0.72066	0.305
Mof_C 	C 	0.96076	0.208	0.55296	0.324
Mof_C 	C 	0.51231	0.12108	0.13365	0.178
Mof_C 	C 	0.56199	0.17471	0.243	-0.055
Mof_C 	C 	0.58553	0.26206	0.24301	0.314
Mof_C 	C 	0.94808	0.47326	0.43404	0.204
Mof_C 	C 	0.51269	0.09468	0.16207	-0.136
Mof_C 	C 	0.86706	0.50261	0.44783	-0.118
Mof_C 	C 	0.8589	0.46073	0.40623	0.165
Mof_C 	C 	0.53893	0.12301	0.2171	0.009
Mof_C 	C 	0.80932	0.43138	0.36184	-0.133
Mof_C 	C 	0.53692	0.17446	0.1621	-0.144
Mof_C 	C 	0.82992	0.51517	0.44831	-0.03
Mof_C 	C 	0.77855	0.48068	0.40365	-0.05
Mof_C 	C 	0.76851	0.44142	0.36001	0.003
Mof_C 	C 	0.45821	0.04717	0.04064	0.192
Mof_C 	C 	0.71681	0.40781	0.31312	0.284
Mof_C 	C 	0.56236	0.20387	0.21695	0.01
Mof_C 	C 	0.83991	0.56057	0.49608	0.306
Mof_C 	C 	0.53924	0.0922	0.24724	0.329
Mof_C 	C 	0.01257	0.37892	0.89123	0.299
Mof_C 	C 	0.06829	0.32529	0.88728	-0.145
Mof_C 	C 	0.98095	0.23794	0.82347	0.216
Mof_C 	C 	0.96078	0.02674	0.97482	0.256
Mof_C 	C 	0.06739	0.40532	0.91801	-0.211
Mof_C 	C 	0.94522	0.99739	0.86445	-0.158
Mof_C 	C 	0.9455	0.03927	0.89817	0.202
Mof_C 	C 	0.09409	0.37699	0.91592	0.079
Mof_C 	C 	0.93046	0.06862	0.87794	-0.143
Mof_C 	C 	0.98764	0.32554	0.86246	-0.303
Mof_C 	C 	0.93314	0.98483	0.81475	-0.051
Mof_C 	C 	0.92297	0.01932	0.79787	-0.02
Mof_C 	C 	0.91859	0.05858	0.82709	-0
Mof_C 	C 	0.99347	0.45283	0.91104	0.196
Mof_C 	C 	0.90531	0.09219	0.809	0.285
Mof_C 	C 	0.01308	0.29613	0.85849	0.147
Mof_C 	C 	0.93551	0.93943	0.77934	0.304
Mof_C 	C 	0.15504	0.4078	0.94704	0.309
Mof_C 	C 	0.37892	0.39123	0.51257	0.178
Mof_C 	C 	0.32529	0.38728	0.56829	-0.053
Mof_C 	C 	0.23794	0.32347	0.48095	0.314
Mof_C 	C 	0.02674	0.47482	0.46078	0.236
Mof_C 	C 	0.40532	0.41801	0.56739	-0.134
Mof_C 	C 	0.99739	0.36445	0.44522	-0.158
Mof_C 	C 	0.03927	0.39817	0.4455	0.204
Mof_C 	C 	0.37699	0.41592	0.59409	0.006
Mof_C 	C 	0.06862	0.37794	0.43046	-0.142
Mof_C 	C 	0.32554	0.36246	0.48764	-0.144
Mof_C 	C 	0.98483	0.31475	0.43314	-0.047
Mof_C 	C 	0.01932	0.29787	0.42297	-0.018
Mof_C 	C 	0.05858	0.32709	0.41859	0.002
Mof_C 	C 	0.45283	0.41104	0.49347	0.214
Mof_C 	C 	0.09219	0.309	0.40531	0.286
Mof_C 	C 	0.29613	0.35849	0.51308	0.009
Mof_C 	C 	0.93943	0.27934	0.43551	0.307
Mof_C 	C 	0.4078	0.44704	0.65504	0.332
Mof_C 	C 	0.12108	0.63365	0.01231	0.18
Mof_C 	C 	0.17471	0.743	0.06199	-0.071
Mof_C 	C 	0.26206	0.74301	0.08553	0.311
Mof_C 	C 	0.47326	0.93404	0.44808	0.205
Mof_C 	C 	0.09468	0.66207	0.01269	-0.198
Mof_C 	C 	0.50261	0.94783	0.36706	-0.136
Mof_C 	C 	0.46073	0.90623	0.3589	0.174
Mof_C 	C 	0.12301	0.7171	0.03893	0.032
Mof_C 	C 	0.43138	0.86184	0.30932	-0.141
Mof_C 	C 	0.17446	0.6621	0.03692	-0.151
Mof_C 	C 	0.51517	0.94831	0.32992	-0.007
Mof_C 	C 	0.48068	0.90365	0.27855	-0.067
Mof_C 	C 	0.44142	0.86001	0.26851	0.013
Mof_C 	C 	0.04717	0.54064	0.95821	0.225
Mof_C 	C 	0.40781	0.81312	0.21681	0.28
Mof_C 	C 	0.20387	0.71695	0.06236	0.015
Mof_C 	C 	0.56057	0.99608	0.33991	0.237
Mof_C 	C 	0.0922	0.74724	0.03924	0.32
Mof_C 	C 	0.12134	0.10877	0.48769	0.186
Mof_C 	C 	0.18101	0.11272	0.43801	-0.055
Mof_C 	C 	0.15748	0.17653	0.41447	0.314
Mof_C 	C 	0.98596	0.02518	0.05192	0.204
Mof_C 	C 	0.14938	0.08199	0.48731	-0.136
Mof_C 	C 	0.08077	0.13555	0.13294	-0.122
Mof_C 	C 	0.04733	0.10183	0.1411	0.176
Mof_C 	C 	0.17817	0.08408	0.46107	0.012
Mof_C 	C 	0.05252	0.12206	0.19068	-0.137
Mof_C 	C 	0.12518	0.13754	0.46308	-0.146
Mof_C 	C 	0.11839	0.18525	0.17008	-0.024
Mof_C 	C 	0.1251	0.20213	0.22145	-0.054
Mof_C 	C 	0.0915	0.17291	0.23149	0.011
Mof_C 	C 	0.08243	0.08896	0.54179	0.223
Mof_C 	C 	0.09631	0.191	0.28319	0.282
Mof_C 	C 	0.15459	0.14151	0.43764	0.013
Mof_C 	C 	0.15617	0.22066	0.16009	0.305
Mof_C 	C 	0.208	0.05296	0.46076	0.331
Mof_C 	C 	0.37866	0.86635	0.98743	0.303
Mof_C 	C 	0.31899	0.757	0.93171	-0.152
Mof_C 	C 	0.34252	0.75699	0.01905	0.205
Mof_C 	C 	0.51404	0.56596	0.03922	0.201
Mof_C 	C 	0.35062	0.83793	0.93261	-0.216
Mof_C 	C 	0.41923	0.55217	0.05478	-0.117
Mof_C 	C 	0.45267	0.59377	0.0545	0.159
Mof_C 	C 	0.32183	0.7829	0.90591	0.079
Mof_C 	C 	0.44748	0.63816	0.06954	-0.132
Mof_C 	C 	0.37482	0.8379	0.01236	-0.317
Mof_C 	C 	0.38161	0.55169	0.06686	-0.034
Mof_C 	C 	0.3749	0.59635	0.07703	-0.051
Mof_C 	C 	0.4085	0.63999	0.08141	-0.001
Mof_C 	C 	0.41757	0.95936	0.00653	0.166
Mof_C 	C 	0.40369	0.68688	0.09469	0.283
Mof_C 	C 	0.34541	0.78305	0.98692	0.157
Mof_C 	C 	0.34383	0.50392	0.06449	0.304
Mof_C 	C 	0.292	0.75276	0.84496	0.308
Mof_N 	N 	0.60477	0.59384	0.55455	-0.25
Mof_N 	N 	0.05857	0.00807	0.9576	-0.147
Mof_N 	N 	0.52599	0.56666	0.55455	-0.17
Mof_N 	N 	0.01146	0.92023	0.90249	-0.239
Mof_N 	N 	0.53929	0.05022	0.94545	-0.264
Mof_N 	N 	0.55047	0.10097	0.5424	-0.179
Mof_N 	N 	0.51211	0.97144	0.94545	-0.192
Mof_N 	N 	0.51774	0.10897	0.59751	-0.251
Mof_N 	N 	0.96071	0.90616	0.51093	-0.25
Mof_N 	N 	0.94953	0.49193	0.5505	-0.174
Mof_N 	N 	0.98789	0.93334	0.45933	-0.173
Mof_N 	N 	0.98226	0.57977	0.59123	-0.283
Mof_N 	N 	0.89523	0.44978	0.98907	-0.234
Mof_N 	N 	0.44143	0.39903	0.9495	-0.175
Mof_N 	N 	0.97401	0.52856	0.04067	-0.189
Mof_N 	N 	0.48854	0.39103	0.90877	-0.252
Mof_N 	N 	0.01093	0.96071	0.40616	-0.235
Mof_N 	N 	0.0505	0.94953	0.99193	-0.153
Mof_N 	N 	0.95933	0.98789	0.43334	-0.175
Mof_N 	N 	0.09123	0.98226	0.07977	-0.277
Mof_N 	N 	0.48907	0.89523	0.94978	-0.255
Mof_N 	N 	0.4495	0.44143	0.89903	-0.178
Mof_N 	N 	0.54067	0.97401	0.02856	-0.205
Mof_N 	N 	0.40877	0.48854	0.89103	-0.251
Mof_N 	N 	0.05455	0.60477	0.09384	-0.26
Mof_N 	N 	0.4576	0.05857	0.50807	-0.176
Mof_N 	N 	0.05455	0.52599	0.06666	-0.176
Mof_N 	N 	0.40249	0.01146	0.42023	-0.243
Mof_N 	N 	0.44545	0.53929	0.55022	-0.25
Mof_N 	N 	0.0424	0.55047	0.60097	-0.166
Mof_N 	N 	0.44545	0.51211	0.47144	-0.17
Mof_N 	N 	0.09751	0.51774	0.60897	-0.252
Mof_N 	N 	0.05022	0.44545	0.03929	-0.254
Mof_N 	N 	0.10097	0.0424	0.05047	-0.162
Mof_N 	N 	0.97144	0.44545	0.01211	-0.19
Mof_N 	N 	0.10897	0.09751	0.01774	-0.285
Mof_N 	N 	0.59384	0.05455	0.10477	-0.257
Mof_N 	N 	0.00807	0.4576	0.55857	-0.161
Mof_N 	N 	0.56666	0.05455	0.02599	-0.194
Mof_N 	N 	0.92023	0.40249	0.51146	-0.247
Mof_N 	N 	0.44978	0.48907	0.39523	-0.25
Mof_N 	N 	0.39903	0.4495	0.94143	-0.176
Mof_N 	N 	0.52856	0.54067	0.47401	-0.17
Mof_N 	N 	0.39103	0.40877	0.98854	-0.242
Mof_N 	N 	0.90616	0.01093	0.46071	-0.238
Mof_N 	N 	0.49193	0.0505	0.44953	-0.176
Mof_N 	N 	0.93334	0.95933	0.48789	-0.171
Mof_N 	N 	0.57977	0.09123	0.48226	-0.252
Mof_N 	N 	0.90616	0.89523	0.94545	-0.26
Mof_N 	N 	0.49193	0.44143	0.5424	-0.179
Mof_N 	N 	0.93334	0.97401	0.94545	-0.193
Mof_N 	N 	0.57977	0.48854	0.59751	-0.251
Mof_N 	N 	0.44978	0.96071	0.55455	-0.249
Mof_N 	N 	0.39903	0.94953	0.9576	-0.161
Mof_N 	N 	0.52856	0.98789	0.55455	-0.173
Mof_N 	N 	0.39103	0.98226	0.90249	-0.283
Mof_N 	N 	0.59384	0.53929	0.98907	-0.235
Mof_N 	N 	0.00807	0.55047	0.9495	-0.158
Mof_N 	N 	0.56666	0.51211	0.04067	-0.172
Mof_N 	N 	0.92023	0.51774	0.90877	-0.248
Mof_N 	N 	0.05022	0.60477	0.51093	-0.255
Mof_N 	N 	0.10097	0.05857	0.5505	-0.176
Mof_N 	N 	0.97144	0.52599	0.45933	-0.187
Mof_N 	N 	0.10897	0.01146	0.59123	-0.243
Mof_N 	N 	0.53929	0.48907	0.09384	-0.252
Mof_N 	N 	0.55047	0.4495	0.50807	-0.179
Mof_N 	N 	0.51211	0.54067	0.06666	-0.17
Mof_N 	N 	0.51774	0.40877	0.42023	-0.251
Mof_N 	N 	0.60477	0.01093	0.55022	-0.236
Mof_N 	N 	0.05857	0.0505	0.60097	-0.173
Mof_N 	N 	0.52599	0.95933	0.47144	-0.171
Mof_N 	N 	0.01146	0.09123	0.60897	-0.244
Mof_N 	N 	0.89523	0.44545	0.40616	-0.249
Mof_N 	N 	0.44143	0.0424	0.99193	-0.147
Mof_N 	N 	0.97401	0.44545	0.43334	-0.187
Mof_N 	N 	0.48854	0.09751	0.07977	-0.247
Mof_N 	N 	0.96071	0.05455	0.94978	-0.263
Mof_N 	N 	0.94953	0.4576	0.89903	-0.174
Mof_N 	N 	0.98789	0.05455	0.02856	-0.197
Mof_N 	N 	0.98226	0.40249	0.89103	-0.282
Mof_N 	N 	0.05455	0.44978	0.46071	-0.258
Mof_N 	N 	0.4576	0.39903	0.44953	-0.179
Mof_N 	N 	0.05455	0.52856	0.48789	-0.175
Mof_N 	N 	0.40249	0.39103	0.48226	-0.251
Mof_N 	N 	0.44545	0.90616	0.39523	-0.252
Mof_N 	N 	0.0424	0.49193	0.94143	-0.164
Mof_N 	N 	0.44545	0.93334	0.47401	-0.17
Mof_N 	N 	0.09751	0.57977	0.98854	-0.243
Mof_N 	N 	0.01093	0.05022	0.10477	-0.241
Mof_N 	N 	0.0505	0.10097	0.55857	-0.175
Mof_N 	N 	0.95933	0.97144	0.02599	-0.206
Mof_N 	N 	0.09123	0.10897	0.51146	-0.252
Mof_N 	N 	0.48907	0.59384	0.03929	-0.248
Mof_N 	N 	0.4495	0.00807	0.05047	-0.157
Mof_N 	N 	0.54067	0.56666	0.01211	-0.174
Mof_N 	N 	0.40877	0.92023	0.01774	-0.281
Mof_O 	O 	0.693	0.49161	0.43965	-0.425
Mof_O 	O 	0.82314	0.68396	0.58976	-0.38
Mof_O 	O 	0.89368	0.70881	0.71307	-0.26
Mof_O 	O 	0.78998	0.73006	0.6213	-0.267
Mof_O 	O 	0.614	0.48435	0.39635	-0.206
Mof_O 	O 	0.91516	0.78466	0.7165	-0.398
Mof_O 	O 	0.99801	0.77881	0.95494	-0.441
Mof_O 	O 	0.92678	0.7081	0.88524	-0.272
Mof_O 	O 	0.55196	0.25335	0.06035	-0.434
Mof_O 	O 	0.5942	0.23338	0.91024	-0.377
Mof_O 	O 	0.49574	0.18061	0.78693	-0.257
Mof_O 	O 	0.60876	0.16868	0.8787	-0.262
Mof_O 	O 	0.588	0.21765	0.10365	-0.209
Mof_O 	O 	0.56816	0.19866	0.7835	-0.393
Mof_O 	O 	0.32387	0.04307	0.54506	-0.435
Mof_O 	O 	0.32286	0.04154	0.61476	-0.265
Mof_O 	O 	0.94804	0.00839	0.70139	-0.388
Mof_O 	O 	0.9058	0.81604	0.63918	-0.383
Mof_O 	O 	0.00426	0.79119	0.68487	-0.21
Mof_O 	O 	0.89124	0.76994	0.55992	-0.269
Mof_O 	O 	0.912	0.01565	0.62965	-0.176
Mof_O 	O 	0.93184	0.71534	0.6305	-0.373
Mof_O 	O 	0.17613	0.72119	0.7192	-0.44
Mof_O 	O 	0.17714	0.7919	0.71868	-0.269
Mof_O 	O 	0.807	0.24665	0.79861	-0.426
Mof_O 	O 	0.67686	0.26662	0.86082	-0.377
Mof_O 	O 	0.60632	0.31939	0.81513	-0.258
Mof_O 	O 	0.71002	0.33132	0.94008	-0.261
Mof_O 	O 	0.886	0.28235	0.87035	-0.208
Mof_O 	O 	0.58484	0.30134	0.8695	-0.393
Mof_O 	O 	0.50199	0.45693	0.7808	-0.446
Mof_O 	O 	0.57322	0.45846	0.78132	-0.275
Mof_O 	O 	0.20139	0.94804	0.50839	-0.431
Mof_O 	O 	0.13918	0.9058	0.31604	-0.382
Mof_O 	O 	0.18487	0.00426	0.29119	-0.211
Mof_O 	O 	0.05992	0.89124	0.26994	-0.266
Mof_O 	O 	0.12965	0.912	0.51565	-0.205
Mof_O 	O 	0.1305	0.93184	0.21534	-0.374
Mof_O 	O 	0.2192	0.17613	0.22119	-0.441
Mof_O 	O 	0.21868	0.17714	0.2919	-0.268
Mof_O 	O 	0.29861	0.807	0.74665	-0.426
Mof_O 	O 	0.36082	0.67686	0.76662	-0.378
Mof_O 	O 	0.31513	0.60632	0.81939	-0.257
Mof_O 	O 	0.44008	0.71002	0.83132	-0.264
Mof_O 	O 	0.37035	0.886	0.78235	-0.213
Mof_O 	O 	0.3695	0.58484	0.80134	-0.393
Mof_O 	O 	0.2808	0.50199	0.95693	-0.433
Mof_O 	O 	0.28132	0.57322	0.95846	-0.264
Mof_O 	O 	0.93965	0.693	0.99161	-0.386
Mof_O 	O 	0.08976	0.82314	0.18396	-0.379
Mof_O 	O 	0.21307	0.89368	0.20881	-0.261
Mof_O 	O 	0.1213	0.78998	0.23006	-0.264
Mof_O 	O 	0.89635	0.614	0.98435	-0.172
Mof_O 	O 	0.2165	0.91516	0.28466	-0.397
Mof_O 	O 	0.45494	0.99801	0.27881	-0.457
Mof_O 	O 	0.38524	0.92678	0.2081	-0.277
Mof_O 	O 	0.56035	0.55196	0.75335	-0.425
Mof_O 	O 	0.41024	0.5942	0.73338	-0.378
Mof_O 	O 	0.28693	0.49574	0.68061	-0.257
Mof_O 	O 	0.3787	0.60876	0.66868	-0.265
Mof_O 	O 	0.60365	0.588	0.71765	-0.206
Mof_O 	O 	0.2835	0.56816	0.69866	-0.394
Mof_O 	O 	0.04506	0.32387	0.54307	-0.432
Mof_O 	O 	0.11476	0.32286	0.54154	-0.271
Mof_O 	O 	0.25335	0.56035	0.05196	-0.432
Mof_O 	O 	0.23338	0.41024	0.0942	-0.382
Mof_O 	O 	0.18061	0.28693	0.99574	-0.205
Mof_O 	O 	0.16868	0.3787	0.10876	-0.267
Mof_O 	O 	0.21765	0.60365	0.088	-0.208
Mof_O 	O 	0.19866	0.2835	0.06816	-0.371
Mof_O 	O 	0.04307	0.04506	0.82387	-0.415
Mof_O 	O 	0.04154	0.11476	0.82286	-0.255
Mof_O 	O 	0.49161	0.93965	0.193	-0.435
Mof_O 	O 	0.68396	0.08976	0.32314	-0.378
Mof_O 	O 	0.70881	0.21307	0.39368	-0.258
Mof_O 	O 	0.73006	0.1213	0.28998	-0.267
Mof_O 	O 	0.48435	0.89635	0.114	-0.216
Mof_O 	O 	0.78466	0.2165	0.41516	-0.395
Mof_O 	O 	0.77881	0.45494	0.49801	-0.447
Mof_O 	O 	0.7081	0.38524	0.42678	-0.275
Mof_O 	O 	0.24665	0.29861	0.307	-0.425
Mof_O 	O 	0.26662	0.36082	0.17686	-0.38
Mof_O 	O 	0.31939	0.31513	0.10632	-0.26
Mof_O 	O 	0.33132	0.44008	0.21002	-0.265
Mof_O 	O 	0.28235	0.37035	0.386	-0.206
Mof_O 	O 	0.30134	0.3695	0.08484	-0.398
Mof_O 	O 	0.45693	0.2808	0.00199	-0.457
Mof_O 	O 	0.45846	0.28132	0.07322	-0.275
Mof_O 	O 	0.00839	0.20139	0.44804	-0.382
Mof_O 	O 	0.81604	0.13918	0.4058	-0.377
Mof_O 	O 	0.79119	0.18487	0.50426	-0.259
Mof_O 	O 	0.76994	0.05992	0.39124	-0.261
Mof_O 	O 	0.01565	0.12965	0.412	-0.171
Mof_O 	O 	0.71534	0.1305	0.43184	-0.393
Mof_O 	O 	0.72119	0.2192	0.67613	-0.447
Mof_O 	O 	0.7919	0.21868	0.67714	-0.276
Mof_O 	O 	0.00839	0.807	0.06035	-0.392
Mof_O 	O 	0.81604	0.67686	0.91024	-0.378
Mof_O 	O 	0.79119	0.60632	0.78693	-0.259
Mof_O 	O 	0.76994	0.71002	0.8787	-0.265
Mof_O 	O 	0.01565	0.886	0.10365	-0.182
Mof_O 	O 	0.71534	0.58484	0.7835	-0.394
Mof_O 	O 	0.72119	0.50199	0.54506	-0.447
Mof_O 	O 	0.7919	0.57322	0.61476	-0.276
Mof_O 	O 	0.24665	0.94804	0.43965	-0.431
Mof_O 	O 	0.26662	0.9058	0.58976	-0.382
Mof_O 	O 	0.31939	0.00426	0.71307	-0.21
Mof_O 	O 	0.33132	0.89124	0.6213	-0.269
Mof_O 	O 	0.28235	0.912	0.39635	-0.208
Mof_O 	O 	0.30134	0.93184	0.7165	-0.373
Mof_O 	O 	0.45693	0.17613	0.95494	-0.424
Mof_O 	O 	0.45846	0.17714	0.88524	-0.264
Mof_O 	O 	0.49161	0.55196	0.79861	-0.425
Mof_O 	O 	0.68396	0.5942	0.86082	-0.378
Mof_O 	O 	0.70881	0.49574	0.81513	-0.258
Mof_O 	O 	0.73006	0.60876	0.94008	-0.262
Mof_O 	O 	0.48435	0.588	0.87035	-0.203
Mof_O 	O 	0.78466	0.56816	0.8695	-0.394
Mof_O 	O 	0.77881	0.32387	0.7808	-0.447
Mof_O 	O 	0.7081	0.32286	0.78132	-0.275
Mof_O 	O 	0.25335	0.693	0.70139	-0.425
Mof_O 	O 	0.23338	0.82314	0.63918	-0.379
Mof_O 	O 	0.18061	0.89368	0.68487	-0.259
Mof_O 	O 	0.16868	0.78998	0.55992	-0.263
Mof_O 	O 	0.21765	0.614	0.62965	-0.206
Mof_O 	O 	0.19866	0.91516	0.6305	-0.397
Mof_O 	O 	0.04307	0.99801	0.7192	-0.444
Mof_O 	O 	0.04154	0.92678	0.71868	-0.265
Mof_O 	O 	0.55196	0.29861	0.99161	-0.377
Mof_O 	O 	0.5942	0.36082	0.18396	-0.378
Mof_O 	O 	0.49574	0.31513	0.20881	-0.259
Mof_O 	O 	0.60876	0.44008	0.23006	-0.266
Mof_O 	O 	0.588	0.37035	0.98435	-0.171
Mof_O 	O 	0.56816	0.3695	0.28466	-0.394
Mof_O 	O 	0.32387	0.2808	0.27881	-0.446
Mof_O 	O 	0.32286	0.28132	0.2081	-0.276
Mof_O 	O 	0.693	0.20139	0.75335	-0.424
Mof_O 	O 	0.82314	0.13918	0.73338	-0.378
Mof_O 	O 	0.89368	0.18487	0.68061	-0.26
Mof_O 	O 	0.78998	0.05992	0.66868	-0.26
Mof_O 	O 	0.614	0.12965	0.71765	-0.202
Mof_O 	O 	0.91516	0.1305	0.69866	-0.397
Mof_O 	O 	0.99801	0.2192	0.54307	-0.456
Mof_O 	O 	0.92678	0.21868	0.54154	-0.275
Mof_O 	O 	0.807	0.56035	0.50839	-0.427
Mof_O 	O 	0.67686	0.41024	0.31604	-0.379
Mof_O 	O 	0.60632	0.28693	0.29119	-0.258
Mof_O 	O 	0.71002	0.3787	0.26994	-0.268
Mof_O 	O 	0.886	0.60365	0.51565	-0.213
Mof_O 	O 	0.58484	0.2835	0.21534	-0.395
Mof_O 	O 	0.50199	0.04506	0.22119	-0.433
Mof_O 	O 	0.57322	0.11476	0.2919	-0.272
Mof_O 	O 	0.94804	0.93965	0.74665	-0.439
Mof_O 	O 	0.9058	0.08976	0.76662	-0.381
Mof_O 	O 	0.00426	0.21307	0.81939	-0.21
Mof_O 	O 	0.89124	0.1213	0.83132	-0.265
Mof_O 	O 	0.912	0.89635	0.78235	-0.211
Mof_O 	O 	0.93184	0.2165	0.80134	-0.373
Mof_O 	O 	0.17613	0.45494	0.95693	-0.427
Mof_O 	O 	0.17714	0.38524	0.95846	-0.257
Mof_O 	O 	0.93965	0.24665	0.44804	-0.433
Mof_O 	O 	0.08976	0.26662	0.4058	-0.377
Mof_O 	O 	0.21307	0.31939	0.50426	-0.258
Mof_O 	O 	0.1213	0.33132	0.39124	-0.264
Mof_O 	O 	0.89635	0.28235	0.412	-0.209
Mof_O 	O 	0.2165	0.30134	0.43184	-0.394
Mof_O 	O 	0.45494	0.45693	0.67613	-0.446
Mof_O 	O 	0.38524	0.45846	0.67714	-0.274
Mof_O 	O 	0.56035	0.00839	0.307	-0.382
Mof_O 	O 	0.41024	0.81604	0.17686	-0.38
Mof_O 	O 	0.28693	0.79119	0.10632	-0.261
Mof_O 	O 	0.3787	0.76994	0.21002	-0.265
Mof_O 	O 	0.60365	0.01565	0.386	-0.174
Mof_O 	O 	0.2835	0.71534	0.08484	-0.398
Mof_O 	O 	0.04506	0.72119	0.00199	-0.443
Mof_O 	O 	0.11476	0.7919	0.07322	-0.274
Mof_O 	O 	0.20139	0.25335	0.193	-0.426
Mof_O 	O 	0.13918	0.23338	0.32314	-0.377
Mof_O 	O 	0.18487	0.18061	0.39368	-0.257
Mof_O 	O 	0.05992	0.16868	0.28998	-0.26
Mof_O 	O 	0.12965	0.21765	0.114	-0.21
Mof_O 	O 	0.1305	0.19866	0.41516	-0.393
Mof_O 	O 	0.2192	0.04307	0.49801	-0.435
Mof_O 	O 	0.21868	0.04154	0.42678	-0.265
Mof_O 	O 	0.29861	0.49161	0.05196	-0.432
Mof_O 	O 	0.36082	0.68396	0.0942	-0.383
Mof_O 	O 	0.31513	0.70881	0.99574	-0.205
Mof_O 	O 	0.44008	0.73006	0.10876	-0.271
Mof_O 	O 	0.37035	0.48435	0.088	-0.209
Mof_O 	O 	0.3695	0.78466	0.06816	-0.372
Mof_O 	O 	0.2808	0.77881	0.82387	-0.44
Mof_O 	O 	0.28132	0.7081	0.82286	-0.267
_end
