data_functionalizedCrystal
_audit_creation_method	'EQeq! by Chris Wilmer'
_symmetry_space_group_name_H-M	'P1'
_symmetry_Int_Tables_number	1
_symmetry_cell_setting	triclinic
loop_
_symmetry_equiv_pos_as_xyz
  x,y,z
_cell_length_a	29.4392
_cell_length_b	29.4392
_cell_length_c	59.6168
_cell_angle_alpha	127.937
_cell_angle_beta	127.937
_cell_angle_gamma	90.4129
loop_
_atom_site_label
_atom_site_type_symbol
_atom_site_fract_x
_atom_site_fract_y
_atom_site_fract_z
_atom_site_charge
Mof_Cu	Cu	0.67998	0.46612	0.97296	0.912
Mof_Cu	Cu	0.50273	0.96669	0.97331	0.9
Mof_Cu	Cu	0.81929	0.53323	0.02657	0.899
Mof_Cu	Cu	0.00297	0.96699	0.97353	0.9
Mof_H 	H 	0.73629	0.35858	0.08896	0.035
Mof_H 	H 	0.13787	0.76304	0.40914	0.035
Mof_H 	H 	0.0791	0.7585	0.42388	0.044
Mof_H 	H 	0.07139	0.84906	0.47015	0.037
Mof_H 	H 	0.93919	0.84093	0.3725	0.038
Mof_H 	H 	0.94691	0.75038	0.32623	0.054
Mof_H 	H 	0.74429	0.26954	0.07742	0.041
Mof_H 	H 	0.65047	0.14547	0.02984	0.04
Mof_H 	H 	0.65462	0.25715	0.12569	0.039
Mof_H 	H 	0.74844	0.38123	0.17326	0.038
Mof_H 	H 	0.93282	0.55457	0.17423	0.061
Mof_H 	H 	0.91004	0.56189	0.12815	0.036
Mof_H 	H 	0.67188	0.42361	0.02686	0.036
Mof_H 	H 	0.69454	0.41611	0.07281	0.045
Mof_H 	H 	0.69393	0.7657	0.07357	0.043
Mof_H 	H 	0.66963	0.64258	0.02781	0.034
Mof_H 	H 	0.90699	0.75725	0.12656	0.034
Mof_H 	H 	0.93111	0.88033	0.17212	0.042
Mof_H 	H 	0.73451	0.85986	0.08739	0.035
Mof_H 	H 	0.75728	0.73227	0.92435	0.045
Mof_H 	H 	0.84835	0.85638	0.97081	0.037
Mof_H 	H 	0.84112	0.74507	0.87352	0.039
Mof_H 	H 	0.75024	0.62098	0.82723	0.057
Mof_H 	H 	0.76648	0.6384	0.91263	0.035
Mof_H 	H 	0.80279	0.58269	0.92551	0.043
Mof_H 	H 	0.82781	0.57658	0.97251	0.037
Mof_H 	H 	0.59006	0.43638	0.87178	0.037
Mof_H 	H 	0.56508	0.44257	0.82479	0.045
Mof_H 	H 	0.1177	0.56371	0.32616	0.041
Mof_H 	H 	0.24124	0.58867	0.37192	0.037
Mof_H 	H 	0.35456	0.82574	0.4703	0.038
Mof_H 	H 	0.23107	0.80075	0.42454	0.042
Mof_H 	H 	0.73923	0.91983	0.07504	0.044
Mof_H 	H 	0.64863	0.92701	0.0284	0.038
Mof_H 	H 	0.65732	0.06105	0.12624	0.038
Mof_H 	H 	0.7479	0.05388	0.17288	0.057
Mof_C 	C 	0.9078	0.8796	0.9524	0.373
Mof_C 	C 	0.5933	0.9973	0.0463	0.328
Mof_C 	C 	0.90549	0.53231	0.2249	-0.016
Mof_C 	C 	0.85943	0.46437	0.2015	-0.037
Mof_C 	C 	0.7992	0.40252	0.1531	-0.006
Mof_C 	C 	0.785	0.4086	0.1281	-0.027
Mof_C 	C 	0.83103	0.47651	0.1515	-0.053
Mof_C 	C 	0.89128	0.53836	0.1999	0.116
Mof_C 	C 	0.96424	0.59104	0.2732	-0.018
Mof_C 	C 	0.03234	0.6046	0.2967	-0.033
Mof_C 	C 	0.09419	0.66581	0.3451	-0.005
Mof_C 	C 	0.08789	0.71349	0.37	-0.027
Mof_C 	C 	0.01991	0.70001	0.3466	-0.052
Mof_C 	C 	0.95807	0.63881	0.2982	0.116
Mof_C 	C 	0.01352	0.74974	0.3727	0.048
Mof_C 	C 	0.04784	0.77694	0.4124	-0.069
Mof_C 	C 	0.04357	0.82703	0.438	0.017
Mof_C 	C 	0.0049	0.84982	0.4238	-0.083
Mof_C 	C 	0.97048	0.82252	0.384	0.017
Mof_C 	C 	0.97475	0.77243	0.3584	-0.061
Mof_C 	C 	0.75124	0.33194	0.1278	0.023
Mof_C 	C 	0.72422	0.26678	0.0882	-0.058
Mof_C 	C 	0.67237	0.19815	0.0619	0.011
Mof_C 	C 	0.64764	0.19476	0.0753	-0.076
Mof_C 	C 	0.67467	0.25991	0.1149	0.012
Mof_C 	C 	0.72653	0.32855	0.1412	-0.058
Mof_C 	C 	0.81493	0.48501	0.126	0.053
Mof_C 	C 	0.87448	0.52528	0.14128	-0.069
Mof_C 	C 	0.86188	0.52934	0.1158	0.03
Mof_C 	C 	0.78979	0.49317	0.0751	-0.106
Mof_C 	C 	0.73021	0.45287	0.0598	0.026
Mof_C 	C 	0.74272	0.44874	0.0852	-0.073
Mof_C 	C 	0.81383	0.82955	0.1253	0.029
Mof_C 	C 	0.74155	0.76381	0.0854	-0.066
Mof_C 	C 	0.7281	0.6957	0.0601	0.028
Mof_C 	C 	0.78708	0.6934	0.0748	-0.117
Mof_C 	C 	0.85936	0.75914	0.1147	0.029
Mof_C 	C 	0.87269	0.82717	0.1399	-0.066
Mof_C 	C 	0.80086	0.9781	0.1513	-0.048
Mof_C 	C 	0.78352	0.90836	0.12653	-0.026
Mof_C 	C 	0.82672	0.89848	0.1501	-0.008
Mof_C 	C 	0.88733	0.95841	0.1985	-0.033
Mof_C 	C 	0.90476	0.02824	0.22336	-0.024
Mof_C 	C 	0.86157	0.03813	0.1998	0.122
Mof_C 	C 	0.74891	0.67003	0.8733	0.052
Mof_C 	C 	0.77605	0.73513	0.913	-0.072
Mof_C 	C 	0.8264	0.8038	0.9387	0.025
Mof_C 	C 	0.84955	0.80731	0.9246	-0.092
Mof_C 	C 	0.82241	0.74221	0.8849	0.021
Mof_C 	C 	0.77214	0.67362	0.8593	-0.065
Mof_C 	C 	0.5955	0.4725	0.7767	-0.015
Mof_C 	C 	0.61141	0.46091	0.7996	-0.032
Mof_C 	C 	0.67231	0.51997	0.848	-0.006
Mof_C 	C 	0.71725	0.59065	0.8735	-0.026
Mof_C 	C 	0.70128	0.60224	0.8506	-0.052
Mof_C 	C 	0.64037	0.54319	0.8022	0.106
Mof_C 	C 	0.68262	0.51302	0.8727	0.027
Mof_C 	C 	0.75523	0.55001	0.9135	-0.063
Mof_C 	C 	0.76908	0.5466	0.9395	0.024
Mof_C 	C 	0.71023	0.50609	0.9246	-0.097
Mof_C 	C 	0.63763	0.46909	0.8838	0.018
Mof_C 	C 	0.62378	0.47252	0.8578	-0.061
Mof_C 	C 	0.16791	0.68095	0.373	0.024
Mof_C 	C 	0.17067	0.62227	0.3584	-0.058
Mof_C 	C 	0.23896	0.63608	0.3837	0.016
Mof_C 	C 	0.3045	0.70858	0.4236	-0.087
Mof_C 	C 	0.30164	0.76716	0.4381	0.016
Mof_C 	C 	0.23335	0.75335	0.4128	-0.058
Mof_C 	C 	0.74845	0.98655	0.1265	0.053
Mof_C 	C 	0.72094	0.95142	0.0865	-0.069
Mof_C 	C 	0.67083	0.95539	0.0607	0.017
Mof_C 	C 	0.64823	0.99449	0.0749	-0.08
Mof_C 	C 	0.67564	0.0295	0.1148	0.015
Mof_C 	C 	0.72574	0.02554	0.1406	-0.066
Mof_C 	C 	0.5921	0.1175	0.046	0.351
Mof_C 	C 	0.7705	0.4953	0.0461	0.376
Mof_C 	C 	0.772	0.6224	0.0481	0.372
Mof_C 	C 	0.7177	0.4991	0.9501	0.391
Mof_C 	C 	0.3787	0.7241	0.4523	0.341
Mof_C 	C 	0.0004	0.9054	0.4516	0.324
Mof_C 	C 	0.9174	0.146	0.2272	0.05
Mof_C 	C 	0.9091	0.2091	0.2424	-0.152
Mof_C 	C 	0.5831	0.5777	0.7738	0.066
Mof_C 	C 	0.5484	0.5712	0.7381	-0.162
Mof_C 	C 	0.91	0.6466	0.2346	0.057
Mof_C 	C 	0.9679	0.7305	0.2715	-0.155
Mof_C 	C 	0.8486	0.575	0.2645	0.069
Mof_C 	C 	0.7668	0.541	0.2247	-0.161
Mof_O 	O 	0.91961	0.93125	0.9827	-0.411
Mof_O 	O 	0.92677	0.87645	0.9383	-0.422
Mof_O 	O 	0.57672	0.97034	0.0139	-0.405
Mof_O 	O 	0.57265	0.03009	0.0611	-0.397
Mof_O 	O 	0.97113	0.92971	0.4399	-0.402
Mof_O 	O 	0.82737	0.62253	0.06	-0.398
Mof_O 	O 	0.71062	0.5651	0.0146	-0.422
Mof_O 	O 	0.71107	0.47293	0.016	-0.429
Mof_O 	O 	0.82953	0.52879	0.0614	-0.392
Mof_O 	O 	0.43637	0.78963	0.4859	-0.41
Mof_O 	O 	0.3795	0.67088	0.4407	-0.411
Mof_O 	O 	0.66954	0.47062	0.9394	-0.451
Mof_O 	O 	0.78664	0.52758	0.9834	-0.396
Mof_O 	O 	0.02799	0.92327	0.4852	-0.399
Mof_O 	O 	0.578	0.06642	0.0154	-0.423
Mof_O 	O 	0.57261	0.12383	0.0615	-0.405
Mof_O 	O 	0.8751	0.1033	0.2219	-0.203
Mof_O 	O 	0.6224	0.548	0.7764	-0.215
Mof_O 	O 	0.9377	0.6069	0.226	-0.213
Mof_O 	O 	0.8917	0.6245	0.2745	-0.224
Mof_H 	H 	0.87092	0.45951	0.22172	0.037
Mof_H 	H 	0.03742	0.56605	0.27656	0.042
Mof_H 	H 	0.9223	0.95046	0.21758	0.037
Mof_H 	H 	0.57504	0.40379	0.77899	0.049
Mof_H 	H 	0.97757	0.17093	0.25503	0.023
Mof_H 	H 	0.89368	0.11088	0.19353	0.022
Mof_H 	H 	0.89487	0.21808	0.25809	0.071
Mof_H 	H 	0.86355	0.19223	0.21112	0.062
Mof_H 	H 	0.96295	0.26212	0.26887	0.056
Mof_H 	H 	0.5377	0.54709	0.76384	0.017
Mof_H 	H 	0.62339	0.63792	0.80933	0.021
Mof_H 	H 	0.53427	0.61026	0.74514	0.055
Mof_H 	H 	0.49638	0.51252	0.70199	0.062
Mof_H 	H 	0.58919	0.58607	0.74108	0.067
Mof_H 	H 	0.85764	0.62183	0.20116	0.023
Mof_H 	H 	0.89684	0.64082	0.24752	0.04
Mof_H 	H 	0.9704	0.73733	0.25534	0.064
Mof_H 	H 	0.02421	0.75222	0.30174	0.068
Mof_H 	H 	0.9509	0.76252	0.28406	0.056
Mof_H 	H 	0.85438	0.52971	0.25309	0.014
Mof_H 	H 	0.86675	0.60561	0.29597	0.019
Mof_H 	H 	0.72905	0.48694	0.20629	0.055
Mof_H 	H 	0.75526	0.53067	0.19931	0.069
Mof_H 	H 	0.75652	0.58063	0.23952	0.062
Mof_Cu	Cu	0.53388	0.32002	0.52704	0.913
Mof_Cu	Cu	0.03331	0.49727	0.52669	0.901
Mof_Cu	Cu	0.46677	0.18071	0.47343	0.9
Mof_Cu	Cu	0.03301	0.99703	0.52647	0.902
Mof_H 	H 	0.64142	0.26371	0.41104	0.035
Mof_H 	H 	0.23696	0.86213	0.09086	0.035
Mof_H 	H 	0.2415	0.9209	0.07612	0.044
Mof_H 	H 	0.15094	0.92861	0.02985	0.038
Mof_H 	H 	0.15907	0.06081	0.1275	0.038
Mof_H 	H 	0.24962	0.05309	0.17377	0.054
Mof_H 	H 	0.73046	0.25571	0.42258	0.041
Mof_H 	H 	0.85453	0.34953	0.47016	0.04
Mof_H 	H 	0.74285	0.34538	0.37431	0.039
Mof_H 	H 	0.61877	0.25156	0.32674	0.038
Mof_H 	H 	0.44543	0.06718	0.32577	0.061
Mof_H 	H 	0.43811	0.08996	0.37185	0.037
Mof_H 	H 	0.57639	0.32812	0.47314	0.036
Mof_H 	H 	0.58389	0.30546	0.42719	0.045
Mof_H 	H 	0.2343	0.30607	0.42643	0.043
Mof_H 	H 	0.35742	0.33037	0.47219	0.034
Mof_H 	H 	0.24275	0.09301	0.37344	0.034
Mof_H 	H 	0.11967	0.06889	0.32788	0.042
Mof_H 	H 	0.14014	0.26549	0.41261	0.035
Mof_H 	H 	0.26773	0.24272	0.57565	0.045
Mof_H 	H 	0.14362	0.15165	0.52919	0.037
Mof_H 	H 	0.25493	0.15888	0.62648	0.039
Mof_H 	H 	0.37902	0.24976	0.67277	0.057
Mof_H 	H 	0.3616	0.23352	0.58737	0.035
Mof_H 	H 	0.41731	0.19721	0.57449	0.043
Mof_H 	H 	0.42342	0.17219	0.52749	0.037
Mof_H 	H 	0.56362	0.40994	0.62822	0.037
Mof_H 	H 	0.55743	0.43492	0.67521	0.045
Mof_H 	H 	0.43629	0.8823	0.17384	0.041
Mof_H 	H 	0.41133	0.75876	0.12808	0.037
Mof_H 	H 	0.17426	0.64544	0.0297	0.038
Mof_H 	H 	0.19925	0.76893	0.07546	0.042
Mof_H 	H 	0.08017	0.26077	0.42496	0.044
Mof_H 	H 	0.07299	0.35137	0.4716	0.038
Mof_H 	H 	0.93895	0.34268	0.37376	0.038
Mof_H 	H 	0.94612	0.2521	0.32712	0.057
Mof_C 	C 	0.1204	0.0922	0.5476	0.373
Mof_C 	C 	0.0027	0.4067	0.4537	0.327
Mof_C 	C 	0.46769	0.09451	0.2751	-0.016
Mof_C 	C 	0.53563	0.14057	0.2985	-0.037
Mof_C 	C 	0.59748	0.2008	0.3469	-0.006
Mof_C 	C 	0.5914	0.215	0.3719	-0.027
Mof_C 	C 	0.52349	0.16897	0.3485	-0.053
Mof_C 	C 	0.46164	0.10872	0.3001	0.116
Mof_C 	C 	0.40896	0.03576	0.2268	-0.018
Mof_C 	C 	0.3954	0.96766	0.2033	-0.033
Mof_C 	C 	0.33419	0.90581	0.1549	-0.005
Mof_C 	C 	0.28651	0.91211	0.13	-0.027
Mof_C 	C 	0.29999	0.98009	0.1534	-0.052
Mof_C 	C 	0.36119	0.04193	0.2018	0.116
Mof_C 	C 	0.25026	0.98648	0.1273	0.048
Mof_C 	C 	0.22306	0.95216	0.0876	-0.069
Mof_C 	C 	0.17297	0.95643	0.062	0.017
Mof_C 	C 	0.15018	0.9951	0.0762	-0.083
Mof_C 	C 	0.17748	0.02952	0.116	0.016
Mof_C 	C 	0.22757	0.02525	0.1416	-0.061
Mof_C 	C 	0.66806	0.24876	0.3722	0.023
Mof_C 	C 	0.73322	0.27578	0.4118	-0.058
Mof_C 	C 	0.80185	0.32763	0.4381	0.011
Mof_C 	C 	0.80524	0.35236	0.4247	-0.076
Mof_C 	C 	0.74009	0.32533	0.3851	0.012
Mof_C 	C 	0.67145	0.27347	0.3588	-0.058
Mof_C 	C 	0.51499	0.18507	0.374	0.053
Mof_C 	C 	0.47472	0.12552	0.35872	-0.069
Mof_C 	C 	0.47066	0.13812	0.3842	0.03
Mof_C 	C 	0.50683	0.21021	0.4249	-0.106
Mof_C 	C 	0.54713	0.26979	0.4402	0.026
Mof_C 	C 	0.55126	0.25728	0.4148	-0.073
Mof_C 	C 	0.17045	0.18617	0.3747	0.029
Mof_C 	C 	0.23619	0.25845	0.4146	-0.066
Mof_C 	C 	0.3043	0.2719	0.4399	0.028
Mof_C 	C 	0.3066	0.21292	0.4252	-0.117
Mof_C 	C 	0.24086	0.14064	0.3853	0.029
Mof_C 	C 	0.17283	0.12731	0.3601	-0.066
Mof_C 	C 	0.0219	0.19914	0.3487	-0.048
Mof_C 	C 	0.09164	0.21648	0.37347	-0.026
Mof_C 	C 	0.10152	0.17328	0.3499	-0.008
Mof_C 	C 	0.04159	0.11267	0.3015	-0.033
Mof_C 	C 	0.97176	0.09524	0.27664	-0.024
Mof_C 	C 	0.96187	0.13843	0.3002	0.122
Mof_C 	C 	0.32997	0.25109	0.6267	0.052
Mof_C 	C 	0.26487	0.22395	0.587	-0.072
Mof_C 	C 	0.1962	0.1736	0.5613	0.025
Mof_C 	C 	0.19269	0.15045	0.5754	-0.092
Mof_C 	C 	0.25779	0.17759	0.6151	0.021
Mof_C 	C 	0.32638	0.22786	0.6407	-0.065
Mof_C 	C 	0.5275	0.4045	0.7233	-0.015
Mof_C 	C 	0.53909	0.38859	0.7004	-0.032
Mof_C 	C 	0.48003	0.32769	0.652	-0.006
Mof_C 	C 	0.40935	0.28275	0.6265	-0.026
Mof_C 	C 	0.39776	0.29872	0.6494	-0.052
Mof_C 	C 	0.45681	0.35963	0.6978	0.106
Mof_C 	C 	0.48698	0.31738	0.6273	0.027
Mof_C 	C 	0.44999	0.24477	0.5865	-0.063
Mof_C 	C 	0.4534	0.23092	0.5605	0.024
Mof_C 	C 	0.49391	0.28977	0.5754	-0.097
Mof_C 	C 	0.53091	0.36237	0.6162	0.018
Mof_C 	C 	0.52748	0.37622	0.6422	-0.061
Mof_C 	C 	0.31905	0.83209	0.127	0.024
Mof_C 	C 	0.37773	0.82933	0.1416	-0.058
Mof_C 	C 	0.36392	0.76104	0.1163	0.016
Mof_C 	C 	0.29142	0.6955	0.0764	-0.087
Mof_C 	C 	0.23284	0.69836	0.0619	0.016
Mof_C 	C 	0.24665	0.76665	0.0872	-0.058
Mof_C 	C 	0.01345	0.25155	0.3735	0.052
Mof_C 	C 	0.04858	0.27906	0.4135	-0.069
Mof_C 	C 	0.04461	0.32917	0.4393	0.017
Mof_C 	C 	0.00551	0.35177	0.4251	-0.081
Mof_C 	C 	0.9705	0.32436	0.3852	0.015
Mof_C 	C 	0.97446	0.27426	0.3594	-0.065
Mof_C 	C 	0.8825	0.4079	0.454	0.351
Mof_C 	C 	0.5047	0.2295	0.4539	0.376
Mof_C 	C 	0.3776	0.228	0.4519	0.372
Mof_C 	C 	0.5009	0.2823	0.5499	0.391
Mof_C 	C 	0.2759	0.6213	0.0477	0.341
Mof_C 	C 	0.0946	0.9996	0.0484	0.325
Mof_C 	C 	0.854	0.0826	0.2728	0.05
Mof_C 	C 	0.7909	0.0909	0.2576	-0.152
Mof_C 	C 	0.4223	0.4169	0.7262	0.066
Mof_C 	C 	0.4288	0.4516	0.7619	-0.162
Mof_C 	C 	0.3534	0.09	0.2654	0.057
Mof_C 	C 	0.2695	0.0321	0.2285	-0.155
Mof_C 	C 	0.425	0.1514	0.2355	0.069
Mof_C 	C 	0.459	0.2332	0.2753	-0.161
Mof_O 	O 	0.06875	0.08039	0.5173	-0.411
Mof_O 	O 	0.12355	0.07323	0.5617	-0.422
Mof_O 	O 	0.02966	0.42328	0.4861	-0.405
Mof_O 	O 	0.96991	0.42735	0.4389	-0.397
Mof_O 	O 	0.07029	0.02887	0.0601	-0.403
Mof_O 	O 	0.37747	0.17263	0.44	-0.397
Mof_O 	O 	0.4349	0.28938	0.4854	-0.422
Mof_O 	O 	0.52707	0.28893	0.484	-0.429
Mof_O 	O 	0.47121	0.17047	0.4386	-0.392
Mof_O 	O 	0.21037	0.56363	0.0141	-0.41
Mof_O 	O 	0.32912	0.6205	0.0593	-0.411
Mof_O 	O 	0.52938	0.33046	0.5606	-0.451
Mof_O 	O 	0.47242	0.21336	0.5166	-0.396
Mof_O 	O 	0.07673	0.97201	0.0148	-0.398
Mof_O 	O 	0.93358	0.422	0.4846	-0.423
Mof_O 	O 	0.87617	0.42739	0.4385	-0.405
Mof_O 	O 	0.8967	0.1249	0.2781	-0.203
Mof_O 	O 	0.452	0.3776	0.7236	-0.215
Mof_O 	O 	0.3931	0.0623	0.274	-0.213
Mof_O 	O 	0.3755	0.1083	0.2255	-0.224
Mof_H 	H 	0.54049	0.12908	0.27828	0.037
Mof_H 	H 	0.43395	0.96258	0.22344	0.042
Mof_H 	H 	0.04954	0.0777	0.28242	0.037
Mof_H 	H 	0.59621	0.42496	0.72101	0.049
Mof_H 	H 	0.82907	0.02243	0.24497	0.023
Mof_H 	H 	0.88912	0.10632	0.30647	0.022
Mof_H 	H 	0.78192	0.10513	0.24191	0.071
Mof_H 	H 	0.80777	0.13645	0.28888	0.062
Mof_H 	H 	0.73788	0.03705	0.23113	0.056
Mof_H 	H 	0.45291	0.4623	0.73616	0.017
Mof_H 	H 	0.36208	0.37661	0.69067	0.021
Mof_H 	H 	0.38974	0.46573	0.75486	0.055
Mof_H 	H 	0.48748	0.50362	0.79801	0.062
Mof_H 	H 	0.41393	0.41081	0.75892	0.067
Mof_H 	H 	0.37817	0.14236	0.29884	0.023
Mof_H 	H 	0.35918	0.10316	0.25248	0.04
Mof_H 	H 	0.26267	0.0296	0.24466	0.064
Mof_H 	H 	0.24778	0.97579	0.19826	0.068
Mof_H 	H 	0.23748	0.0491	0.21594	0.056
Mof_H 	H 	0.47029	0.14562	0.24691	0.014
Mof_H 	H 	0.39439	0.13325	0.20403	0.019
Mof_H 	H 	0.51306	0.27095	0.29371	0.055
Mof_H 	H 	0.46933	0.24474	0.30069	0.069
Mof_H 	H 	0.41937	0.24348	0.26048	0.062
Mof_Cu	Cu	0.32002	0.53388	0.02704	0.913
Mof_Cu	Cu	0.49727	0.03331	0.02669	0.901
Mof_Cu	Cu	0.18071	0.46677	0.97343	0.9
Mof_Cu	Cu	0.99703	0.03301	0.02647	0.901
Mof_H 	H 	0.26371	0.64142	0.91104	0.035
Mof_H 	H 	0.86213	0.23696	0.59086	0.035
Mof_H 	H 	0.9209	0.2415	0.57612	0.044
Mof_H 	H 	0.92861	0.15094	0.52985	0.037
Mof_H 	H 	0.06081	0.15907	0.6275	0.038
Mof_H 	H 	0.05309	0.24962	0.67377	0.054
Mof_H 	H 	0.25571	0.73046	0.92258	0.041
Mof_H 	H 	0.34953	0.85453	0.97016	0.04
Mof_H 	H 	0.34538	0.74285	0.87431	0.039
Mof_H 	H 	0.25156	0.61877	0.82674	0.038
Mof_H 	H 	0.06718	0.44543	0.82577	0.061
Mof_H 	H 	0.08996	0.43811	0.87185	0.036
Mof_H 	H 	0.32812	0.57639	0.97314	0.036
Mof_H 	H 	0.30546	0.58389	0.92719	0.045
Mof_H 	H 	0.30607	0.2343	0.92643	0.043
Mof_H 	H 	0.33037	0.35742	0.97219	0.034
Mof_H 	H 	0.09301	0.24275	0.87344	0.034
Mof_H 	H 	0.06889	0.11967	0.82788	0.042
Mof_H 	H 	0.26549	0.14014	0.91261	0.035
Mof_H 	H 	0.24272	0.26773	0.07565	0.045
Mof_H 	H 	0.15165	0.14362	0.02919	0.037
Mof_H 	H 	0.15888	0.25493	0.12648	0.039
Mof_H 	H 	0.24976	0.37902	0.17277	0.057
Mof_H 	H 	0.23352	0.3616	0.08737	0.035
Mof_H 	H 	0.19721	0.41731	0.07449	0.043
Mof_H 	H 	0.17219	0.42342	0.02749	0.037
Mof_H 	H 	0.40994	0.56362	0.12822	0.037
Mof_H 	H 	0.43492	0.55743	0.17521	0.045
Mof_H 	H 	0.8823	0.43629	0.67384	0.041
Mof_H 	H 	0.75876	0.41133	0.62808	0.037
Mof_H 	H 	0.64544	0.17426	0.5297	0.038
Mof_H 	H 	0.76893	0.19925	0.57546	0.042
Mof_H 	H 	0.26077	0.08017	0.92496	0.044
Mof_H 	H 	0.35137	0.07299	0.9716	0.038
Mof_H 	H 	0.34268	0.93895	0.87376	0.038
Mof_H 	H 	0.2521	0.94612	0.82712	0.057
Mof_C 	C 	0.0922	0.1204	0.0476	0.373
Mof_C 	C 	0.4067	0.0027	0.9537	0.328
Mof_C 	C 	0.09451	0.46769	0.7751	-0.016
Mof_C 	C 	0.14057	0.53563	0.7985	-0.037
Mof_C 	C 	0.2008	0.59748	0.8469	-0.006
Mof_C 	C 	0.215	0.5914	0.8719	-0.027
Mof_C 	C 	0.16897	0.52349	0.8485	-0.053
Mof_C 	C 	0.10872	0.46164	0.8001	0.116
Mof_C 	C 	0.03576	0.40896	0.7268	-0.018
Mof_C 	C 	0.96766	0.3954	0.7033	-0.033
Mof_C 	C 	0.90581	0.33419	0.6549	-0.005
Mof_C 	C 	0.91211	0.28651	0.63	-0.027
Mof_C 	C 	0.98009	0.29999	0.6534	-0.052
Mof_C 	C 	0.04193	0.36119	0.7018	0.116
Mof_C 	C 	0.98648	0.25026	0.6273	0.048
Mof_C 	C 	0.95216	0.22306	0.5876	-0.069
Mof_C 	C 	0.95643	0.17297	0.562	0.017
Mof_C 	C 	0.9951	0.15018	0.5762	-0.083
Mof_C 	C 	0.02952	0.17748	0.616	0.017
Mof_C 	C 	0.02525	0.22757	0.6416	-0.061
Mof_C 	C 	0.24876	0.66806	0.8722	0.023
Mof_C 	C 	0.27578	0.73322	0.9118	-0.058
Mof_C 	C 	0.32763	0.80185	0.9381	0.011
Mof_C 	C 	0.35236	0.80524	0.9247	-0.076
Mof_C 	C 	0.32533	0.74009	0.8851	0.012
Mof_C 	C 	0.27347	0.67145	0.8588	-0.058
Mof_C 	C 	0.18507	0.51499	0.874	0.053
Mof_C 	C 	0.12552	0.47472	0.85872	-0.069
Mof_C 	C 	0.13812	0.47066	0.8842	0.03
Mof_C 	C 	0.21021	0.50683	0.9249	-0.106
Mof_C 	C 	0.26979	0.54713	0.9402	0.026
Mof_C 	C 	0.25728	0.55126	0.9148	-0.073
Mof_C 	C 	0.18617	0.17045	0.8747	0.029
Mof_C 	C 	0.25845	0.23619	0.9146	-0.066
Mof_C 	C 	0.2719	0.3043	0.9399	0.028
Mof_C 	C 	0.21292	0.3066	0.9252	-0.117
Mof_C 	C 	0.14064	0.24086	0.8853	0.029
Mof_C 	C 	0.12731	0.17283	0.8601	-0.066
Mof_C 	C 	0.19914	0.0219	0.8487	-0.048
Mof_C 	C 	0.21648	0.09164	0.87347	-0.026
Mof_C 	C 	0.17328	0.10152	0.8499	-0.008
Mof_C 	C 	0.11267	0.04159	0.8015	-0.033
Mof_C 	C 	0.09524	0.97176	0.77664	-0.024
Mof_C 	C 	0.13843	0.96187	0.8002	0.122
Mof_C 	C 	0.25109	0.32997	0.1267	0.052
Mof_C 	C 	0.22395	0.26487	0.087	-0.072
Mof_C 	C 	0.1736	0.1962	0.0613	0.025
Mof_C 	C 	0.15045	0.19269	0.0754	-0.092
Mof_C 	C 	0.17759	0.25779	0.1151	0.021
Mof_C 	C 	0.22786	0.32638	0.1407	-0.065
Mof_C 	C 	0.4045	0.5275	0.2233	-0.015
Mof_C 	C 	0.38859	0.53909	0.2004	-0.032
Mof_C 	C 	0.32769	0.48003	0.152	-0.006
Mof_C 	C 	0.28275	0.40935	0.1265	-0.026
Mof_C 	C 	0.29872	0.39776	0.1494	-0.052
Mof_C 	C 	0.35963	0.45681	0.1978	0.106
Mof_C 	C 	0.31738	0.48698	0.1273	0.027
Mof_C 	C 	0.24477	0.44999	0.0865	-0.063
Mof_C 	C 	0.23092	0.4534	0.0605	0.024
Mof_C 	C 	0.28977	0.49391	0.0754	-0.097
Mof_C 	C 	0.36237	0.53091	0.1162	0.018
Mof_C 	C 	0.37622	0.52748	0.1422	-0.061
Mof_C 	C 	0.83209	0.31905	0.627	0.024
Mof_C 	C 	0.82933	0.37773	0.6416	-0.058
Mof_C 	C 	0.76104	0.36392	0.6163	0.016
Mof_C 	C 	0.6955	0.29142	0.5764	-0.087
Mof_C 	C 	0.69836	0.23284	0.5619	0.016
Mof_C 	C 	0.76665	0.24665	0.5872	-0.058
Mof_C 	C 	0.25155	0.01345	0.8735	0.053
Mof_C 	C 	0.27906	0.04858	0.9135	-0.069
Mof_C 	C 	0.32917	0.04461	0.9393	0.017
Mof_C 	C 	0.35177	0.00551	0.9251	-0.08
Mof_C 	C 	0.32436	0.9705	0.8852	0.015
Mof_C 	C 	0.27426	0.97446	0.8594	-0.066
Mof_C 	C 	0.4079	0.8825	0.954	0.351
Mof_C 	C 	0.2295	0.5047	0.9539	0.376
Mof_C 	C 	0.228	0.3776	0.9519	0.372
Mof_C 	C 	0.2823	0.5009	0.0499	0.391
Mof_C 	C 	0.6213	0.2759	0.5477	0.341
Mof_C 	C 	0.9996	0.0946	0.5484	0.324
Mof_C 	C 	0.0826	0.854	0.7728	0.05
Mof_C 	C 	0.0909	0.7909	0.7576	-0.152
Mof_C 	C 	0.4169	0.4223	0.2262	0.066
Mof_C 	C 	0.4516	0.4288	0.2619	-0.162
Mof_C 	C 	0.09	0.3534	0.7654	0.057
Mof_C 	C 	0.0321	0.2695	0.7285	-0.155
Mof_C 	C 	0.1514	0.425	0.7355	0.069
Mof_C 	C 	0.2332	0.459	0.7753	-0.161
Mof_O 	O 	0.08039	0.06875	0.0173	-0.411
Mof_O 	O 	0.07323	0.12355	0.0617	-0.422
Mof_O 	O 	0.42328	0.02966	0.9861	-0.405
Mof_O 	O 	0.42735	0.96991	0.9389	-0.397
Mof_O 	O 	0.02887	0.07029	0.5601	-0.402
Mof_O 	O 	0.17263	0.37747	0.94	-0.398
Mof_O 	O 	0.28938	0.4349	0.9854	-0.422
Mof_O 	O 	0.28893	0.52707	0.984	-0.429
Mof_O 	O 	0.17047	0.47121	0.9386	-0.392
Mof_O 	O 	0.56363	0.21037	0.5141	-0.41
Mof_O 	O 	0.6205	0.32912	0.5593	-0.411
Mof_O 	O 	0.33046	0.52938	0.0606	-0.451
Mof_O 	O 	0.21336	0.47242	0.0166	-0.396
Mof_O 	O 	0.97201	0.07673	0.5148	-0.399
Mof_O 	O 	0.422	0.93358	0.9846	-0.423
Mof_O 	O 	0.42739	0.87617	0.9385	-0.405
Mof_O 	O 	0.1249	0.8967	0.7781	-0.203
Mof_O 	O 	0.3776	0.452	0.2236	-0.215
Mof_O 	O 	0.0623	0.3931	0.774	-0.213
Mof_O 	O 	0.1083	0.3755	0.7255	-0.224
Mof_H 	H 	0.12908	0.54049	0.77828	0.037
Mof_H 	H 	0.96258	0.43395	0.72344	0.042
Mof_H 	H 	0.0777	0.04954	0.78242	0.037
Mof_H 	H 	0.42496	0.59621	0.22101	0.049
Mof_H 	H 	0.02243	0.82907	0.74497	0.023
Mof_H 	H 	0.10632	0.88912	0.80647	0.022
Mof_H 	H 	0.10513	0.78192	0.74191	0.071
Mof_H 	H 	0.13645	0.80777	0.78888	0.062
Mof_H 	H 	0.03705	0.73788	0.73113	0.056
Mof_H 	H 	0.4623	0.45291	0.23616	0.017
Mof_H 	H 	0.37661	0.36208	0.19067	0.021
Mof_H 	H 	0.46573	0.38974	0.25486	0.055
Mof_H 	H 	0.50362	0.48748	0.29801	0.062
Mof_H 	H 	0.41081	0.41393	0.25892	0.067
Mof_H 	H 	0.14236	0.37817	0.79884	0.023
Mof_H 	H 	0.10316	0.35918	0.75248	0.04
Mof_H 	H 	0.0296	0.26267	0.74466	0.064
Mof_H 	H 	0.97579	0.24778	0.69826	0.068
Mof_H 	H 	0.0491	0.23748	0.71594	0.056
Mof_H 	H 	0.14562	0.47029	0.74691	0.014
Mof_H 	H 	0.13325	0.39439	0.70403	0.019
Mof_H 	H 	0.27095	0.51306	0.79371	0.055
Mof_H 	H 	0.24474	0.46933	0.80069	0.069
Mof_H 	H 	0.24348	0.41937	0.76048	0.062
Mof_Cu	Cu	0.46612	0.67998	0.47296	0.913
Mof_Cu	Cu	0.96669	0.50273	0.47331	0.901
Mof_Cu	Cu	0.53323	0.81929	0.52657	0.9
Mof_Cu	Cu	0.96699	0.00297	0.47353	0.902
Mof_H 	H 	0.35858	0.73629	0.58896	0.035
Mof_H 	H 	0.76304	0.13787	0.90914	0.035
Mof_H 	H 	0.7585	0.0791	0.92388	0.044
Mof_H 	H 	0.84906	0.07139	0.97015	0.038
Mof_H 	H 	0.84093	0.93919	0.8725	0.038
Mof_H 	H 	0.75038	0.94691	0.82623	0.054
Mof_H 	H 	0.26954	0.74429	0.57742	0.041
Mof_H 	H 	0.14547	0.65047	0.52984	0.04
Mof_H 	H 	0.25715	0.65462	0.62569	0.039
Mof_H 	H 	0.38123	0.74844	0.67326	0.038
Mof_H 	H 	0.55457	0.93282	0.67423	0.061
Mof_H 	H 	0.56189	0.91004	0.62815	0.037
Mof_H 	H 	0.42361	0.67188	0.52686	0.036
Mof_H 	H 	0.41611	0.69454	0.57281	0.045
Mof_H 	H 	0.7657	0.69393	0.57357	0.043
Mof_H 	H 	0.64258	0.66963	0.52781	0.034
Mof_H 	H 	0.75725	0.90699	0.62656	0.034
Mof_H 	H 	0.88033	0.93111	0.67212	0.042
Mof_H 	H 	0.85986	0.73451	0.58739	0.035
Mof_H 	H 	0.73227	0.75728	0.42435	0.045
Mof_H 	H 	0.85638	0.84835	0.47081	0.037
Mof_H 	H 	0.74507	0.84112	0.37352	0.039
Mof_H 	H 	0.62098	0.75024	0.32723	0.057
Mof_H 	H 	0.6384	0.76648	0.41263	0.035
Mof_H 	H 	0.58269	0.80279	0.42551	0.043
Mof_H 	H 	0.57658	0.82781	0.47251	0.037
Mof_H 	H 	0.43638	0.59006	0.37178	0.037
Mof_H 	H 	0.44257	0.56508	0.32479	0.045
Mof_H 	H 	0.56371	0.1177	0.82616	0.041
Mof_H 	H 	0.58867	0.24124	0.87192	0.037
Mof_H 	H 	0.82574	0.35456	0.9703	0.038
Mof_H 	H 	0.80075	0.23107	0.92454	0.042
Mof_H 	H 	0.91983	0.73923	0.57504	0.044
Mof_H 	H 	0.92701	0.64863	0.5284	0.038
Mof_H 	H 	0.06105	0.65732	0.62624	0.038
Mof_H 	H 	0.05388	0.7479	0.67288	0.057
Mof_C 	C 	0.8796	0.9078	0.4524	0.373
Mof_C 	C 	0.9973	0.5933	0.5463	0.327
Mof_C 	C 	0.53231	0.90549	0.7249	-0.016
Mof_C 	C 	0.46437	0.85943	0.7015	-0.037
Mof_C 	C 	0.40252	0.7992	0.6531	-0.006
Mof_C 	C 	0.4086	0.785	0.6281	-0.027
Mof_C 	C 	0.47651	0.83103	0.6515	-0.053
Mof_C 	C 	0.53836	0.89128	0.6999	0.116
Mof_C 	C 	0.59104	0.96424	0.7732	-0.018
Mof_C 	C 	0.6046	0.03234	0.7967	-0.033
Mof_C 	C 	0.66581	0.09419	0.8451	-0.005
Mof_C 	C 	0.71349	0.08789	0.87	-0.027
Mof_C 	C 	0.70001	0.01991	0.8466	-0.052
Mof_C 	C 	0.63881	0.95807	0.7982	0.116
Mof_C 	C 	0.74974	0.01352	0.8727	0.048
Mof_C 	C 	0.77694	0.04784	0.9124	-0.069
Mof_C 	C 	0.82703	0.04357	0.938	0.017
Mof_C 	C 	0.84982	0.0049	0.9238	-0.083
Mof_C 	C 	0.82252	0.97048	0.884	0.016
Mof_C 	C 	0.77243	0.97475	0.8584	-0.061
Mof_C 	C 	0.33194	0.75124	0.6278	0.023
Mof_C 	C 	0.26678	0.72422	0.5882	-0.058
Mof_C 	C 	0.19815	0.67237	0.5619	0.011
Mof_C 	C 	0.19476	0.64764	0.5753	-0.076
Mof_C 	C 	0.25991	0.67467	0.6149	0.012
Mof_C 	C 	0.32855	0.72653	0.6412	-0.058
Mof_C 	C 	0.48501	0.81493	0.626	0.053
Mof_C 	C 	0.52528	0.87448	0.64128	-0.069
Mof_C 	C 	0.52934	0.86188	0.6158	0.03
Mof_C 	C 	0.49317	0.78979	0.5751	-0.106
Mof_C 	C 	0.45287	0.73021	0.5598	0.026
Mof_C 	C 	0.44874	0.74272	0.5852	-0.073
Mof_C 	C 	0.82955	0.81383	0.6253	0.029
Mof_C 	C 	0.76381	0.74155	0.5854	-0.066
Mof_C 	C 	0.6957	0.7281	0.5601	0.028
Mof_C 	C 	0.6934	0.78708	0.5748	-0.117
Mof_C 	C 	0.75914	0.85936	0.6147	0.029
Mof_C 	C 	0.82717	0.87269	0.6399	-0.066
Mof_C 	C 	0.9781	0.80086	0.6513	-0.048
Mof_C 	C 	0.90836	0.78352	0.62653	-0.026
Mof_C 	C 	0.89848	0.82672	0.6501	-0.008
Mof_C 	C 	0.95841	0.88733	0.6985	-0.033
Mof_C 	C 	0.02824	0.90476	0.72336	-0.024
Mof_C 	C 	0.03813	0.86157	0.6998	0.122
Mof_C 	C 	0.67003	0.74891	0.3733	0.052
Mof_C 	C 	0.73513	0.77605	0.413	-0.072
Mof_C 	C 	0.8038	0.8264	0.4387	0.025
Mof_C 	C 	0.80731	0.84955	0.4246	-0.092
Mof_C 	C 	0.74221	0.82241	0.3849	0.021
Mof_C 	C 	0.67362	0.77214	0.3593	-0.065
Mof_C 	C 	0.4725	0.5955	0.2767	-0.015
Mof_C 	C 	0.46091	0.61141	0.2996	-0.032
Mof_C 	C 	0.51997	0.67231	0.348	-0.006
Mof_C 	C 	0.59065	0.71725	0.3735	-0.026
Mof_C 	C 	0.60224	0.70128	0.3506	-0.052
Mof_C 	C 	0.54319	0.64037	0.3022	0.106
Mof_C 	C 	0.51302	0.68262	0.3727	0.027
Mof_C 	C 	0.55001	0.75523	0.4135	-0.063
Mof_C 	C 	0.5466	0.76908	0.4395	0.024
Mof_C 	C 	0.50609	0.71023	0.4246	-0.097
Mof_C 	C 	0.46909	0.63763	0.3838	0.018
Mof_C 	C 	0.47252	0.62378	0.3578	-0.061
Mof_C 	C 	0.68095	0.16791	0.873	0.024
Mof_C 	C 	0.62227	0.17067	0.8584	-0.058
Mof_C 	C 	0.63608	0.23896	0.8837	0.016
Mof_C 	C 	0.70858	0.3045	0.9236	-0.087
Mof_C 	C 	0.76716	0.30164	0.9381	0.016
Mof_C 	C 	0.75335	0.23335	0.9128	-0.058
Mof_C 	C 	0.98655	0.74845	0.6265	0.052
Mof_C 	C 	0.95142	0.72094	0.5865	-0.069
Mof_C 	C 	0.95539	0.67083	0.5607	0.017
Mof_C 	C 	0.99449	0.64823	0.5749	-0.081
Mof_C 	C 	0.0295	0.67564	0.6148	0.015
Mof_C 	C 	0.02554	0.72574	0.6406	-0.065
Mof_C 	C 	0.1175	0.5921	0.546	0.351
Mof_C 	C 	0.4953	0.7705	0.5461	0.376
Mof_C 	C 	0.6224	0.772	0.5481	0.372
Mof_C 	C 	0.4991	0.7177	0.4501	0.391
Mof_C 	C 	0.7241	0.3787	0.9523	0.341
Mof_C 	C 	0.9054	0.0004	0.9516	0.325
Mof_C 	C 	0.146	0.9174	0.7272	0.05
Mof_C 	C 	0.2091	0.9091	0.7424	-0.152
Mof_C 	C 	0.5777	0.5831	0.2738	0.066
Mof_C 	C 	0.5712	0.5484	0.2381	-0.162
Mof_C 	C 	0.6466	0.91	0.7346	0.057
Mof_C 	C 	0.7305	0.9679	0.7715	-0.155
Mof_C 	C 	0.575	0.8486	0.7645	0.069
Mof_C 	C 	0.541	0.7668	0.7247	-0.161
Mof_O 	O 	0.93125	0.91961	0.4827	-0.411
Mof_O 	O 	0.87645	0.92677	0.4383	-0.422
Mof_O 	O 	0.97034	0.57672	0.5139	-0.405
Mof_O 	O 	0.03009	0.57265	0.5611	-0.397
Mof_O 	O 	0.92971	0.97113	0.9399	-0.403
Mof_O 	O 	0.62253	0.82737	0.56	-0.397
Mof_O 	O 	0.5651	0.71062	0.5146	-0.422
Mof_O 	O 	0.47293	0.71107	0.516	-0.429
Mof_O 	O 	0.52879	0.82953	0.5614	-0.392
Mof_O 	O 	0.78963	0.43637	0.9859	-0.41
Mof_O 	O 	0.67088	0.3795	0.9407	-0.411
Mof_O 	O 	0.47062	0.66954	0.4394	-0.451
Mof_O 	O 	0.52758	0.78664	0.4834	-0.396
Mof_O 	O 	0.92327	0.02799	0.9852	-0.398
Mof_O 	O 	0.06642	0.578	0.5154	-0.423
Mof_O 	O 	0.12383	0.57261	0.5615	-0.405
Mof_O 	O 	0.1033	0.8751	0.7219	-0.203
Mof_O 	O 	0.548	0.6224	0.2764	-0.215
Mof_O 	O 	0.6069	0.9377	0.726	-0.213
Mof_O 	O 	0.6245	0.8917	0.7745	-0.224
Mof_H 	H 	0.45951	0.87092	0.72172	0.037
Mof_H 	H 	0.56605	0.03742	0.77656	0.042
Mof_H 	H 	0.95046	0.9223	0.71758	0.037
Mof_H 	H 	0.40379	0.57504	0.27899	0.049
Mof_H 	H 	0.17093	0.97757	0.75503	0.023
Mof_H 	H 	0.11088	0.89368	0.69353	0.022
Mof_H 	H 	0.21808	0.89487	0.75809	0.071
Mof_H 	H 	0.19223	0.86355	0.71112	0.062
Mof_H 	H 	0.26212	0.96295	0.76887	0.056
Mof_H 	H 	0.54709	0.5377	0.26384	0.017
Mof_H 	H 	0.63792	0.62339	0.30933	0.021
Mof_H 	H 	0.61026	0.53427	0.24514	0.055
Mof_H 	H 	0.51252	0.49638	0.20199	0.062
Mof_H 	H 	0.58607	0.58919	0.24108	0.067
Mof_H 	H 	0.62183	0.85764	0.70116	0.023
Mof_H 	H 	0.64082	0.89684	0.74752	0.04
Mof_H 	H 	0.73733	0.9704	0.75534	0.064
Mof_H 	H 	0.75222	0.02421	0.80174	0.068
Mof_H 	H 	0.76252	0.9509	0.78406	0.056
Mof_H 	H 	0.52971	0.85438	0.75309	0.014
Mof_H 	H 	0.60561	0.86675	0.79597	0.019
Mof_H 	H 	0.48694	0.72905	0.70629	0.055
Mof_H 	H 	0.53067	0.75526	0.69931	0.069
Mof_H 	H 	0.58063	0.75652	0.73952	0.062
_end
