data_functionalizedCrystal
_audit_creation_method	'EQeq! by Chris Wilmer'
_symmetry_space_group_name_H-M	'P1'
_symmetry_Int_Tables_number	1
_symmetry_cell_setting	triclinic
loop_
_symmetry_equiv_pos_as_xyz
  x,y,z
_cell_length_a	9.6661
_cell_length_b	11.737
_cell_length_c	12.315
_cell_angle_alpha	90
_cell_angle_beta	99.24
_cell_angle_gamma	90
loop_
_atom_site_label
_atom_site_type_symbol
_atom_site_fract_x
_atom_site_fract_y
_atom_site_fract_z
_atom_site_charge
Mof_Eu	Eu	0.78615	0.01558	0.66907	2.327
Mof_Eu	Eu	0.71385	0.51558	0.83093	2.341
Mof_Eu	Eu	0.21385	0.98442	0.33093	2.327
Mof_Eu	Eu	0.28615	0.48442	0.16907	2.341
Mof_C 	C 	0.699	0.79	0.7946	0.271
Mof_C 	C 	0.8002	0.7461	0.7172	0.295
Mof_C 	C 	0.0629	0.0004	0.5471	0.295
Mof_C 	C 	0.505	0.9346	0.5001	0.284
Mof_C 	C 	0.801	0.29	0.7054	0.27
Mof_C 	C 	0.6998	0.2461	0.7828	0.294
Mof_C 	C 	0.4371	0.5004	0.9529	0.288
Mof_C 	C 	0.995	0.4346	0.9999	0.279
Mof_C 	C 	0.301	0.21	0.2054	0.27
Mof_C 	C 	0.1998	0.2539	0.2828	0.294
Mof_C 	C 	0.9371	0.9996	0.4529	0.295
Mof_C 	C 	0.495	0.0654	0.4999	0.284
Mof_C 	C 	0.199	0.71	0.2946	0.27
Mof_C 	C 	0.3002	0.7539	0.2172	0.294
Mof_C 	C 	0.5629	0.4996	0.0471	0.288
Mof_C 	C 	0.005	0.5654	0.0001	0.279
Mof_O 	O 	0.6841	0.8951	0.8	-0.426
Mof_O 	O 	0.6403	0.7155	0.8442	-0.426
Mof_O 	O 	0.8655	0.8197	0.6722	-0.444
Mof_O 	O 	0.8077	0.641	0.7056	-0.455
Mof_O 	O 	0.0341	0.014	0.6428	-0.429
Mof_O 	O 	0.1817	0.9874	0.5223	-0.442
Mof_O 	O 	0.6016	0.8909	0.5671	-0.416
Mof_O 	O 	0.416	0.882	0.4338	-0.427
Mof_O 	O 	0.8159	0.3951	0.7	-0.431
Mof_O 	O 	0.8597	0.2155	0.6558	-0.428
Mof_O 	O 	0.6345	0.3197	0.8278	-0.447
Mof_O 	O 	0.6923	0.141	0.7944	-0.456
Mof_O 	O 	0.4659	0.514	0.8572	-0.433
Mof_O 	O 	0.3183	0.4874	0.9777	-0.437
Mof_O 	O 	0.8984	0.3909	0.9329	-0.42
Mof_O 	O 	0.084	0.382	0.0662	-0.426
Mof_O 	O 	0.3159	0.1049	0.2	-0.426
Mof_O 	O 	0.3597	0.2845	0.1558	-0.426
Mof_O 	O 	0.1345	0.1803	0.3278	-0.444
Mof_O 	O 	0.1923	0.359	0.2944	-0.455
Mof_O 	O 	0.9659	0.986	0.3572	-0.429
Mof_O 	O 	0.8183	0.0126	0.4777	-0.442
Mof_O 	O 	0.3984	0.1091	0.4329	-0.416
Mof_O 	O 	0.584	0.118	0.5662	-0.427
Mof_O 	O 	0.1841	0.6049	0.3	-0.431
Mof_O 	O 	0.1403	0.7845	0.3442	-0.428
Mof_O 	O 	0.3655	0.6803	0.1722	-0.447
Mof_O 	O 	0.3077	0.859	0.2056	-0.456
Mof_O 	O 	0.5341	0.486	0.1428	-0.433
Mof_O 	O 	0.6817	0.5126	0.0223	-0.437
Mof_O 	O 	0.1016	0.6091	0.0671	-0.42
Mof_O 	O 	0.916	0.618	0.9338	-0.426
_end
