# CIF file generated by openbabel 3.1.0, see https://openbabel.org
data_I
_chemical_name_common 'image0'
_cell_length_a 18.668
_cell_length_b 18.668
_cell_length_c 34.825
_cell_angle_alpha 90
_cell_angle_beta 90
_cell_angle_gamma 90
_space_group_name_H-M_alt 'P 1'
_space_group_name_Hall 'P 1'
loop_
    _symmetry_equiv_pos_as_xyz
    x,y,z
loop_
    _atom_site_label
    _atom_site_type_symbol
    _atom_site_fract_x
    _atom_site_fract_y
    _atom_site_fract_z
    _atom_site_occupancy
    C1       C        0.02330    0.43190    0.03360    1.000
    C2       C        0.04750    0.36370    0.03360    1.000
    H1       H        0.01500    0.45530    0.05670    1.000
    C3       C        0.06090    0.32490    0.07210    1.000
    O1       O        0.10600    0.27400    0.07150    1.000
    N1       N        0.00800    0.32900    0.09710    1.000
    H2       H        0.97300    0.35700    0.09100    1.000
    C4       C        0.01350    0.31330    0.14120    1.000
    C5       C        0.95000    0.30750    0.16050    1.000
    C6       C        0.94920    0.28280    0.19740    1.000
    C7       C        0.01180    0.26390    0.21510    1.000
    C8       C        0.07530    0.26980    0.19580    1.000
    C9       C        0.07610    0.29450    0.15880    1.000
    H3       H        0.90740    0.32030    0.14850    1.000
    H4       H        0.01120    0.24710    0.24020    1.000
    H5       H        0.11930    0.29840    0.14570    1.000
    C10      C        0.88340    0.27670    0.21740    1.000
    O2       O        0.82280    0.29500    0.20410    1.000
    O3       O        0.87650    0.25200    0.25120    1.000
    C11      C        0.14010    0.25020    0.21410    1.000
    O4       O        0.20220    0.26700    0.20240    1.000
    O5       O        0.14500    0.21300    0.24450    1.000
    Cu1      Cu       0.73790    0.29680    0.22230    1.000
    C12      C        0.97670    0.56810    0.03360    1.000
    C13      C        0.95250    0.63630    0.03360    1.000
    H6       H        0.98500    0.54470    0.05670    1.000
    C14      C        0.93910    0.67510    0.07210    1.000
    O6       O        0.89400    0.72600    0.07150    1.000
    N2       N        0.99200    0.67100    0.09710    1.000
    H7       H        0.02700    0.64300    0.09100    1.000
    C15      C        0.98650    0.68670    0.14120    1.000
    C16      C        0.05000    0.69250    0.16050    1.000
    C17      C        0.05080    0.71720    0.19740    1.000
    C18      C        0.98820    0.73610    0.21510    1.000
    C19      C        0.92470    0.73020    0.19580    1.000
    C20      C        0.92390    0.70550    0.15880    1.000
    H8       H        0.09260    0.67970    0.14850    1.000
    H9       H        0.98880    0.75290    0.24020    1.000
    H10      H        0.88070    0.70160    0.14570    1.000
    C21      C        0.11660    0.72330    0.21740    1.000
    O7       O        0.17720    0.70500    0.20410    1.000
    O8       O        0.12350    0.74800    0.25120    1.000
    C22      C        0.85990    0.74980    0.21410    1.000
    O9       O        0.79780    0.73300    0.20240    1.000
    O10      O        0.85500    0.78700    0.24450    1.000
    Cu2      Cu       0.26210    0.70320    0.22230    1.000
    C23      C        0.56810    0.02330    0.03360    1.000
    C24      C        0.63630    0.04750    0.03360    1.000
    H11      H        0.54470    0.01500    0.05670    1.000
    C25      C        0.67510    0.06090    0.07210    1.000
    O11      O        0.72600    0.10600    0.07150    1.000
    N3       N        0.67100    0.00800    0.09710    1.000
    H12      H        0.64300    0.97300    0.09100    1.000
    C26      C        0.68670    0.01350    0.14120    1.000
    C27      C        0.69250    0.95000    0.16050    1.000
    C28      C        0.71720    0.94920    0.19740    1.000
    C29      C        0.73610    0.01180    0.21510    1.000
    C30      C        0.73020    0.07530    0.19580    1.000
    C31      C        0.70550    0.07610    0.15880    1.000
    H13      H        0.67970    0.90740    0.14850    1.000
    H14      H        0.75290    0.01120    0.24020    1.000
    H15      H        0.70160    0.11930    0.14570    1.000
    C32      C        0.72330    0.88340    0.21740    1.000
    O12      O        0.70500    0.82280    0.20410    1.000
    O13      O        0.74800    0.87650    0.25120    1.000
    C33      C        0.74980    0.14010    0.21410    1.000
    O14      O        0.73300    0.20220    0.20240    1.000
    O15      O        0.78700    0.14500    0.24450    1.000
    Cu3      Cu       0.70320    0.73790    0.22230    1.000
    C34      C        0.43190    0.97670    0.03360    1.000
    C35      C        0.36370    0.95250    0.03360    1.000
    H16      H        0.45530    0.98500    0.05670    1.000
    C36      C        0.32490    0.93910    0.07210    1.000
    O16      O        0.27400    0.89400    0.07150    1.000
    N4       N        0.32900    0.99200    0.09710    1.000
    H17      H        0.35700    0.02700    0.09100    1.000
    C37      C        0.31330    0.98650    0.14120    1.000
    C38      C        0.30750    0.05000    0.16050    1.000
    C39      C        0.28280    0.05080    0.19740    1.000
    C40      C        0.26390    0.98820    0.21510    1.000
    C41      C        0.26980    0.92470    0.19580    1.000
    C42      C        0.29450    0.92390    0.15880    1.000
    H18      H        0.32030    0.09260    0.14850    1.000
    H19      H        0.24710    0.98880    0.24020    1.000
    H20      H        0.29840    0.88070    0.14570    1.000
    C43      C        0.27670    0.11660    0.21740    1.000
    O17      O        0.29500    0.17720    0.20410    1.000
    O18      O        0.25200    0.12350    0.25120    1.000
    C44      C        0.25020    0.85990    0.21410    1.000
    O19      O        0.26700    0.79780    0.20240    1.000
    O20      O        0.21300    0.85500    0.24450    1.000
    Cu4      Cu       0.29680    0.26210    0.22230    1.000
    C45      C        0.47670    0.93190    0.46640    1.000
    C46      C        0.45250    0.86370    0.46640    1.000
    H21      H        0.48500    0.95530    0.44330    1.000
    C47      C        0.43910    0.82490    0.42790    1.000
    O21      O        0.39400    0.77400    0.42850    1.000
    N5       N        0.49200    0.82900    0.40290    1.000
    H22      H        0.52700    0.85700    0.40900    1.000
    C48      C        0.48650    0.81330    0.35880    1.000
    C49      C        0.55000    0.80750    0.33950    1.000
    C50      C        0.55080    0.78280    0.30260    1.000
    C51      C        0.48820    0.76390    0.28490    1.000
    C52      C        0.42470    0.76980    0.30420    1.000
    C53      C        0.42390    0.79450    0.34120    1.000
    H23      H        0.59260    0.82030    0.35150    1.000
    H24      H        0.48880    0.74710    0.25980    1.000
    H25      H        0.38070    0.79840    0.35430    1.000
    C54      C        0.61660    0.77670    0.28260    1.000
    O22      O        0.67720    0.79500    0.29590    1.000
    O23      O        0.62350    0.75200    0.24880    1.000
    C55      C        0.35990    0.75020    0.28590    1.000
    O24      O        0.29780    0.76700    0.29760    1.000
    O25      O        0.35500    0.71300    0.25550    1.000
    Cu5      Cu       0.76210    0.79680    0.27770    1.000
    C56      C        0.52330    0.06810    0.46640    1.000
    C57      C        0.54750    0.13630    0.46640    1.000
    H26      H        0.51500    0.04470    0.44330    1.000
    C58      C        0.56090    0.17510    0.42790    1.000
    O26      O        0.60600    0.22600    0.42850    1.000
    N6       N        0.50800    0.17100    0.40290    1.000
    H27      H        0.47300    0.14300    0.40900    1.000
    C59      C        0.51350    0.18670    0.35880    1.000
    C60      C        0.45000    0.19250    0.33950    1.000
    C61      C        0.44920    0.21720    0.30260    1.000
    C62      C        0.51180    0.23610    0.28490    1.000
    C63      C        0.57530    0.23020    0.30420    1.000
    C64      C        0.57610    0.20550    0.34120    1.000
    H28      H        0.40740    0.17970    0.35150    1.000
    H29      H        0.51120    0.25290    0.25980    1.000
    H30      H        0.61930    0.20160    0.35430    1.000
    C65      C        0.38340    0.22330    0.28260    1.000
    O27      O        0.32280    0.20500    0.29590    1.000
    O28      O        0.37650    0.24800    0.24880    1.000
    C66      C        0.64010    0.24980    0.28590    1.000
    O29      O        0.70220    0.23300    0.29760    1.000
    O30      O        0.64500    0.28700    0.25550    1.000
    Cu6      Cu       0.23790    0.20320    0.27770    1.000
    C67      C        0.93190    0.52330    0.46640    1.000
    C68      C        0.86370    0.54750    0.46640    1.000
    H31      H        0.95530    0.51500    0.44330    1.000
    C69      C        0.82490    0.56090    0.42790    1.000
    O31      O        0.77400    0.60600    0.42850    1.000
    N7       N        0.82900    0.50800    0.40290    1.000
    H32      H        0.85700    0.47300    0.40900    1.000
    C70      C        0.81330    0.51350    0.35880    1.000
    C71      C        0.80750    0.45000    0.33950    1.000
    C72      C        0.78280    0.44920    0.30260    1.000
    C73      C        0.76390    0.51180    0.28490    1.000
    C74      C        0.76980    0.57530    0.30420    1.000
    C75      C        0.79450    0.57610    0.34120    1.000
    H33      H        0.82030    0.40740    0.35150    1.000
    H34      H        0.74710    0.51120    0.25980    1.000
    H35      H        0.79840    0.61930    0.35430    1.000
    C76      C        0.77670    0.38340    0.28260    1.000
    O32      O        0.79500    0.32280    0.29590    1.000
    O33      O        0.75200    0.37650    0.24880    1.000
    C77      C        0.75020    0.64010    0.28590    1.000
    O34      O        0.76700    0.70220    0.29760    1.000
    O35      O        0.71300    0.64500    0.25550    1.000
    Cu7      Cu       0.79680    0.23790    0.27770    1.000
    C78      C        0.06810    0.47670    0.46640    1.000
    C79      C        0.13630    0.45250    0.46640    1.000
    H36      H        0.04470    0.48500    0.44330    1.000
    C80      C        0.17510    0.43910    0.42790    1.000
    O36      O        0.22600    0.39400    0.42850    1.000
    N8       N        0.17100    0.49200    0.40290    1.000
    H37      H        0.14300    0.52700    0.40900    1.000
    C81      C        0.18670    0.48650    0.35880    1.000
    C82      C        0.19250    0.55000    0.33950    1.000
    C83      C        0.21720    0.55080    0.30260    1.000
    C84      C        0.23610    0.48820    0.28490    1.000
    C85      C        0.23020    0.42470    0.30420    1.000
    C86      C        0.20550    0.42390    0.34120    1.000
    H38      H        0.17970    0.59260    0.35150    1.000
    H39      H        0.25290    0.48880    0.25980    1.000
    H40      H        0.20160    0.38070    0.35430    1.000
    C87      C        0.22330    0.61660    0.28260    1.000
    O37      O        0.20500    0.67720    0.29590    1.000
    O38      O        0.24800    0.62350    0.24880    1.000
    C88      C        0.24980    0.35990    0.28590    1.000
    O39      O        0.23300    0.29780    0.29760    1.000
    O40      O        0.28700    0.35500    0.25550    1.000
    Cu8      Cu       0.20320    0.76210    0.27770    1.000
    C89      C        0.97670    0.56810    0.96640    1.000
    C90      C        0.95250    0.63630    0.96640    1.000
    H41      H        0.98500    0.54470    0.94330    1.000
    C91      C        0.93910    0.67510    0.92790    1.000
    O41      O        0.89400    0.72600    0.92850    1.000
    N9       N        0.99200    0.67100    0.90290    1.000
    H42      H        0.02700    0.64300    0.90900    1.000
    C92      C        0.98650    0.68670    0.85880    1.000
    C93      C        0.05000    0.69250    0.83950    1.000
    C94      C        0.05080    0.71720    0.80260    1.000
    C95      C        0.98820    0.73610    0.78490    1.000
    C96      C        0.92470    0.73020    0.80420    1.000
    C97      C        0.92390    0.70550    0.84120    1.000
    H43      H        0.09260    0.67970    0.85150    1.000
    H44      H        0.98880    0.75290    0.75980    1.000
    H45      H        0.88070    0.70160    0.85430    1.000
    C98      C        0.11660    0.72330    0.78260    1.000
    O42      O        0.17720    0.70500    0.79590    1.000
    O43      O        0.12350    0.74800    0.74880    1.000
    C99      C        0.85990    0.74980    0.78590    1.000
    O44      O        0.79780    0.73300    0.79760    1.000
    O45      O        0.85500    0.78700    0.75550    1.000
    Cu9      Cu       0.26210    0.70320    0.77770    1.000
    C100     C        0.02330    0.43190    0.96640    1.000
    C101     C        0.04750    0.36370    0.96640    1.000
    H46      H        0.01500    0.45530    0.94330    1.000
    C102     C        0.06090    0.32490    0.92790    1.000
    O46      O        0.10600    0.27400    0.92850    1.000
    N10      N        0.00800    0.32900    0.90290    1.000
    H47      H        0.97300    0.35700    0.90900    1.000
    C103     C        0.01350    0.31330    0.85880    1.000
    C104     C        0.95000    0.30750    0.83950    1.000
    C105     C        0.94920    0.28280    0.80260    1.000
    C106     C        0.01180    0.26390    0.78490    1.000
    C107     C        0.07530    0.26980    0.80420    1.000
    C108     C        0.07610    0.29450    0.84120    1.000
    H48      H        0.90740    0.32030    0.85150    1.000
    H49      H        0.01120    0.24710    0.75980    1.000
    H50      H        0.11930    0.29840    0.85430    1.000
    C109     C        0.88340    0.27670    0.78260    1.000
    O47      O        0.82280    0.29500    0.79590    1.000
    O48      O        0.87650    0.25200    0.74880    1.000
    C110     C        0.14010    0.25020    0.78590    1.000
    O49      O        0.20220    0.26700    0.79760    1.000
    O50      O        0.14500    0.21300    0.75550    1.000
    Cu10     Cu       0.73790    0.29680    0.77770    1.000
    C111     C        0.43190    0.97670    0.96640    1.000
    C112     C        0.36370    0.95250    0.96640    1.000
    H51      H        0.45530    0.98500    0.94330    1.000
    C113     C        0.32490    0.93910    0.92790    1.000
    O51      O        0.27400    0.89400    0.92850    1.000
    N11      N        0.32900    0.99200    0.90290    1.000
    H52      H        0.35700    0.02700    0.90900    1.000
    C114     C        0.31330    0.98650    0.85880    1.000
    C115     C        0.30750    0.05000    0.83950    1.000
    C116     C        0.28280    0.05080    0.80260    1.000
    C117     C        0.26390    0.98820    0.78490    1.000
    C118     C        0.26980    0.92470    0.80420    1.000
    C119     C        0.29450    0.92390    0.84120    1.000
    H53      H        0.32030    0.09260    0.85150    1.000
    H54      H        0.24710    0.98880    0.75980    1.000
    H55      H        0.29840    0.88070    0.85430    1.000
    C120     C        0.27670    0.11660    0.78260    1.000
    O52      O        0.29500    0.17720    0.79590    1.000
    O53      O        0.25200    0.12350    0.74880    1.000
    C121     C        0.25020    0.85990    0.78590    1.000
    O54      O        0.26700    0.79780    0.79760    1.000
    O55      O        0.21300    0.85500    0.75550    1.000
    Cu11     Cu       0.29680    0.26210    0.77770    1.000
    C122     C        0.56810    0.02330    0.96640    1.000
    C123     C        0.63630    0.04750    0.96640    1.000
    H56      H        0.54470    0.01500    0.94330    1.000
    C124     C        0.67510    0.06090    0.92790    1.000
    O56      O        0.72600    0.10600    0.92850    1.000
    N12      N        0.67100    0.00800    0.90290    1.000
    H57      H        0.64300    0.97300    0.90900    1.000
    C125     C        0.68670    0.01350    0.85880    1.000
    C126     C        0.69250    0.95000    0.83950    1.000
    C127     C        0.71720    0.94920    0.80260    1.000
    C128     C        0.73610    0.01180    0.78490    1.000
    C129     C        0.73020    0.07530    0.80420    1.000
    C130     C        0.70550    0.07610    0.84120    1.000
    H58      H        0.67970    0.90740    0.85150    1.000
    H59      H        0.75290    0.01120    0.75980    1.000
    H60      H        0.70160    0.11930    0.85430    1.000
    C131     C        0.72330    0.88340    0.78260    1.000
    O57      O        0.70500    0.82280    0.79590    1.000
    O58      O        0.74800    0.87650    0.74880    1.000
    C132     C        0.74980    0.14010    0.78590    1.000
    O59      O        0.73300    0.20220    0.79760    1.000
    O60      O        0.78700    0.14500    0.75550    1.000
    Cu12     Cu       0.70320    0.73790    0.77770    1.000
    C133     C        0.52330    0.06810    0.53360    1.000
    C134     C        0.54750    0.13630    0.53360    1.000
    H61      H        0.51500    0.04470    0.55670    1.000
    C135     C        0.56090    0.17510    0.57210    1.000
    O61      O        0.60600    0.22600    0.57150    1.000
    N13      N        0.50800    0.17100    0.59710    1.000
    H62      H        0.47300    0.14300    0.59100    1.000
    C136     C        0.51350    0.18670    0.64120    1.000
    C137     C        0.45000    0.19250    0.66050    1.000
    C138     C        0.44920    0.21720    0.69740    1.000
    C139     C        0.51180    0.23610    0.71510    1.000
    C140     C        0.57530    0.23020    0.69580    1.000
    C141     C        0.57610    0.20550    0.65880    1.000
    H63      H        0.40740    0.17970    0.64850    1.000
    H64      H        0.51120    0.25290    0.74020    1.000
    H65      H        0.61930    0.20160    0.64570    1.000
    C142     C        0.38340    0.22330    0.71740    1.000
    O62      O        0.32280    0.20500    0.70410    1.000
    O63      O        0.37650    0.24800    0.75120    1.000
    C143     C        0.64010    0.24980    0.71410    1.000
    O64      O        0.70220    0.23300    0.70240    1.000
    O65      O        0.64500    0.28700    0.74450    1.000
    Cu13     Cu       0.23790    0.20320    0.72230    1.000
    C144     C        0.47670    0.93190    0.53360    1.000
    C145     C        0.45250    0.86370    0.53360    1.000
    H66      H        0.48500    0.95530    0.55670    1.000
    C146     C        0.43910    0.82490    0.57210    1.000
    O66      O        0.39400    0.77400    0.57150    1.000
    N14      N        0.49200    0.82900    0.59710    1.000
    H67      H        0.52700    0.85700    0.59100    1.000
    C147     C        0.48650    0.81330    0.64120    1.000
    C148     C        0.55000    0.80750    0.66050    1.000
    C149     C        0.55080    0.78280    0.69740    1.000
    C150     C        0.48820    0.76390    0.71510    1.000
    C151     C        0.42470    0.76980    0.69580    1.000
    C152     C        0.42390    0.79450    0.65880    1.000
    H68      H        0.59260    0.82030    0.64850    1.000
    H69      H        0.48880    0.74710    0.74020    1.000
    H70      H        0.38070    0.79840    0.64570    1.000
    C153     C        0.61660    0.77670    0.71740    1.000
    O67      O        0.67720    0.79500    0.70410    1.000
    O68      O        0.62350    0.75200    0.75120    1.000
    C154     C        0.35990    0.75020    0.71410    1.000
    O69      O        0.29780    0.76700    0.70240    1.000
    O70      O        0.35500    0.71300    0.74450    1.000
    Cu14     Cu       0.76210    0.79680    0.72230    1.000
    C155     C        0.06810    0.47670    0.53360    1.000
    C156     C        0.13630    0.45250    0.53360    1.000
    H71      H        0.04470    0.48500    0.55670    1.000
    C157     C        0.17510    0.43910    0.57210    1.000
    O71      O        0.22600    0.39400    0.57150    1.000
    N15      N        0.17100    0.49200    0.59710    1.000
    H72      H        0.14300    0.52700    0.59100    1.000
    C158     C        0.18670    0.48650    0.64120    1.000
    C159     C        0.19250    0.55000    0.66050    1.000
    C160     C        0.21720    0.55080    0.69740    1.000
    C161     C        0.23610    0.48820    0.71510    1.000
    C162     C        0.23020    0.42470    0.69580    1.000
    C163     C        0.20550    0.42390    0.65880    1.000
    H73      H        0.17970    0.59260    0.64850    1.000
    H74      H        0.25290    0.48880    0.74020    1.000
    H75      H        0.20160    0.38070    0.64570    1.000
    C164     C        0.22330    0.61660    0.71740    1.000
    O72      O        0.20500    0.67720    0.70410    1.000
    O73      O        0.24800    0.62350    0.75120    1.000
    C165     C        0.24980    0.35990    0.71410    1.000
    O74      O        0.23300    0.29780    0.70240    1.000
    O75      O        0.28700    0.35500    0.74450    1.000
    Cu15     Cu       0.20320    0.76210    0.72230    1.000
    C166     C        0.93190    0.52330    0.53360    1.000
    C167     C        0.86370    0.54750    0.53360    1.000
    H76      H        0.95530    0.51500    0.55670    1.000
    C168     C        0.82490    0.56090    0.57210    1.000
    O76      O        0.77400    0.60600    0.57150    1.000
    N16      N        0.82900    0.50800    0.59710    1.000
    H77      H        0.85700    0.47300    0.59100    1.000
    C169     C        0.81330    0.51350    0.64120    1.000
    C170     C        0.80750    0.45000    0.66050    1.000
    C171     C        0.78280    0.44920    0.69740    1.000
    C172     C        0.76390    0.51180    0.71510    1.000
    C173     C        0.76980    0.57530    0.69580    1.000
    C174     C        0.79450    0.57610    0.65880    1.000
    H78      H        0.82030    0.40740    0.64850    1.000
    H79      H        0.74710    0.51120    0.74020    1.000
    H80      H        0.79840    0.61930    0.64570    1.000
    C175     C        0.77670    0.38340    0.71740    1.000
    O77      O        0.79500    0.32280    0.70410    1.000
    O78      O        0.75200    0.37650    0.75120    1.000
    C176     C        0.75020    0.64010    0.71410    1.000
    O79      O        0.76700    0.70220    0.70240    1.000
    O80      O        0.71300    0.64500    0.74450    1.000
    Cu16     Cu       0.79680    0.23790    0.72230    1.000
    C177     C        0.01120    0.46590    0.00000    1.000
    C178     C        0.05950    0.32960    0.00000    1.000
    H81      H        0.07600    0.28260    0.00000    1.000
    C179     C        0.98880    0.53410    0.00000    1.000
    C180     C        0.94050    0.67040    0.00000    1.000
    H82      H        0.92400    0.71740    0.00000    1.000
    C181     C        0.53410    0.01120    0.00000    1.000
    C182     C        0.67040    0.05950    0.00000    1.000
    H83      H        0.71740    0.07600    0.00000    1.000
    C183     C        0.46590    0.98880    0.00000    1.000
    C184     C        0.32960    0.94050    0.00000    1.000
    H84      H        0.28260    0.92400    0.00000    1.000
    C185     C        0.48880    0.96590    0.50000    1.000
    C186     C        0.44050    0.82960    0.50000    1.000
    H85      H        0.42400    0.78260    0.50000    1.000
    C187     C        0.51120    0.03410    0.50000    1.000
    C188     C        0.55950    0.17040    0.50000    1.000
    H86      H        0.57600    0.21740    0.50000    1.000
    C189     C        0.96590    0.51120    0.50000    1.000
    C190     C        0.82960    0.55950    0.50000    1.000
    H87      H        0.78260    0.57600    0.50000    1.000
    C191     C        0.03410    0.48880    0.50000    1.000
    C192     C        0.17040    0.44050    0.50000    1.000
    H88      H        0.21740    0.42400    0.50000    1.000
