data_functionalizedCrystal
_audit_creation_method	'EQeq! by Chris Wilmer'
_symmetry_space_group_name_H-M	'P1'
_symmetry_Int_Tables_number	1
_symmetry_cell_setting	triclinic
loop_
_symmetry_equiv_pos_as_xyz
  x,y,z
_cell_length_a	10.1414
_cell_length_b	17.3983
_cell_length_c	11.3646
_cell_angle_alpha	90
_cell_angle_beta	110.085
_cell_angle_gamma	90
loop_
_atom_site_label
_atom_site_type_symbol
_atom_site_fract_x
_atom_site_fract_y
_atom_site_fract_z
_atom_site_charge
Mof_Dy	Dy	0.50947	0.50704	0.68128	2.202
Mof_O 	O 	0.7283	0.48579	0.6557	-0.495
Mof_O 	O 	0.7028	0.53865	0.8794	-0.267
Mof_O 	O 	0.7087	0.45292	0.4587	-0.509
Mof_O 	O 	0.3567	0.41743	0.7251	-0.325
Mof_O 	O 	0.4119	0.56798	0.8169	-0.32
Mof_N 	N 	0.731	0.4696	0.9079	0.065
Mof_O 	O 	0.5604	0.86074	0.1574	-0.464
Mof_O 	O 	0.5261	0.91584	0.9748	-0.586
Mof_O 	O 	0.6464	0.41826	0.8441	-0.294
Mof_N 	N 	0.4468	0.63686	0.8696	-0.047
Mof_N 	N 	0.218	0.4252	0.6902	-0.045
Mof_C 	C 	0.1353	0.3994	0.5773	0.016
Mof_H 	H 	0.1751	0.3745	0.5252	0.04
Mof_C 	C 	0.5373	0.8567	0.0428	0.412
Mof_C 	C 	0.5511	0.7121	0.0506	-0.048
Mof_H 	H 	0.5986	0.7152	0.1365	0.078
Mof_C 	C 	0.02	0.4684	0.7351	-0.02
Mof_H 	H 	0.9822	0.4902	0.7912	0.08
Mof_C 	C 	0.4376	0.7721	0.8526	-0.019
Mof_H 	H 	0.41	0.816	0.8035	0.047
Mof_O 	O 	0.837	0.4518	0.9958	-0.104
Mof_C 	C 	0.9925	0.4096	0.5387	-0.018
Mof_H 	H 	0.9361	0.3925	0.4599	0.058
Mof_C 	C 	0.7764	0.4624	0.5741	0.462
Mof_C 	C 	0.9318	0.4455	0.6171	-0.089
Mof_C 	C 	0.4051	0.701	0.7986	0.026
Mof_H 	H 	0.3544	0.6967	0.7135	0.045
Mof_C 	C 	0.5114	0.7791	0.9796	-0.067
Mof_C 	C 	0.1618	0.4592	0.7688	0.016
Mof_H 	H 	0.2203	0.4764	0.8466	0.07
Mof_C 	C 	0.5197	0.6419	0.9931	0.058
Mof_H 	H 	0.5491	0.5973	0.0399	0.044
Mof_Dy	Dy	0.49053	0.00704	0.81872	2.187
Mof_O 	O 	0.2717	0.98579	0.8443	-0.493
Mof_O 	O 	0.2972	0.03865	0.6206	-0.269
Mof_O 	O 	0.2913	0.95292	0.0413	-0.514
Mof_O 	O 	0.6433	0.91743	0.7749	-0.322
Mof_O 	O 	0.5881	0.06798	0.6831	-0.319
Mof_N 	N 	0.269	0.9696	0.5921	0.067
Mof_O 	O 	0.4396	0.36074	0.3426	-0.469
Mof_O 	O 	0.4739	0.41584	0.5252	-0.598
Mof_O 	O 	0.3536	0.91826	0.6559	-0.292
Mof_N 	N 	0.5532	0.13686	0.6304	-0.042
Mof_N 	N 	0.782	0.9252	0.8098	-0.043
Mof_C 	C 	0.8647	0.8994	0.9227	0.012
Mof_H 	H 	0.8249	0.8745	0.9748	0.043
Mof_C 	C 	0.4627	0.3567	0.4572	0.432
Mof_C 	C 	0.4489	0.2121	0.4494	-0.023
Mof_H 	H 	0.4014	0.2152	0.3635	0.07
Mof_C 	C 	0.98	0.9684	0.7649	-0.016
Mof_H 	H 	0.0178	0.9902	0.7088	0.08
Mof_C 	C 	0.5624	0.2721	0.6474	-0.005
Mof_H 	H 	0.59	0.316	0.6965	0.042
Mof_O 	O 	0.163	0.9518	0.5042	-0.104
Mof_C 	C 	0.0075	0.9096	0.9613	-0.006
Mof_H 	H 	0.0639	0.8925	0.0401	0.05
Mof_C 	C 	0.2236	0.9624	0.9259	0.47
Mof_C 	C 	0.0682	0.9455	0.8829	-0.094
Mof_C 	C 	0.5949	0.201	0.7014	0.017
Mof_H 	H 	0.6456	0.1967	0.7865	0.048
Mof_C 	C 	0.4886	0.2791	0.5204	-0.09
Mof_C 	C 	0.8382	0.9592	0.7312	0.015
Mof_H 	H 	0.7797	0.9764	0.6534	0.072
Mof_C 	C 	0.4803	0.1419	0.5069	0.04
Mof_H 	H 	0.4509	0.0973	0.4601	0.052
Mof_Dy	Dy	0.49053	0.49296	0.31872	2.202
Mof_O 	O 	0.2717	0.51421	0.3443	-0.495
Mof_O 	O 	0.2972	0.46135	0.1206	-0.267
Mof_O 	O 	0.2913	0.54708	0.5413	-0.509
Mof_O 	O 	0.6433	0.58257	0.2749	-0.325
Mof_O 	O 	0.5881	0.43202	0.1831	-0.32
Mof_N 	N 	0.269	0.5304	0.0921	0.065
Mof_O 	O 	0.4396	0.13926	0.8426	-0.464
Mof_O 	O 	0.4739	0.08416	0.0252	-0.586
Mof_O 	O 	0.3536	0.58174	0.1559	-0.294
Mof_N 	N 	0.5532	0.36314	0.1304	-0.047
Mof_N 	N 	0.782	0.5748	0.3098	-0.045
Mof_C 	C 	0.8647	0.6006	0.4227	0.016
Mof_H 	H 	0.8249	0.6255	0.4748	0.04
Mof_C 	C 	0.4627	0.1433	0.9572	0.412
Mof_C 	C 	0.4489	0.2879	0.9494	-0.048
Mof_H 	H 	0.4014	0.2848	0.8635	0.078
Mof_C 	C 	0.98	0.5316	0.2649	-0.02
Mof_H 	H 	0.0178	0.5098	0.2088	0.08
Mof_C 	C 	0.5624	0.2279	0.1474	-0.019
Mof_H 	H 	0.59	0.184	0.1965	0.047
Mof_O 	O 	0.163	0.5482	0.0042	-0.104
Mof_C 	C 	0.0075	0.5904	0.4613	-0.018
Mof_H 	H 	0.0639	0.6075	0.5401	0.058
Mof_C 	C 	0.2236	0.5376	0.4259	0.462
Mof_C 	C 	0.0682	0.5545	0.3829	-0.089
Mof_C 	C 	0.5949	0.299	0.2014	0.026
Mof_H 	H 	0.6456	0.3033	0.2865	0.045
Mof_C 	C 	0.4886	0.2209	0.0204	-0.067
Mof_C 	C 	0.8382	0.5408	0.2312	0.016
Mof_H 	H 	0.7797	0.5236	0.1534	0.07
Mof_C 	C 	0.4803	0.3581	0.0069	0.058
Mof_H 	H 	0.4509	0.4027	0.9601	0.044
Mof_Dy	Dy	0.50947	0.99296	0.18128	2.187
Mof_O 	O 	0.7283	0.01421	0.1557	-0.493
Mof_O 	O 	0.7028	0.96135	0.3794	-0.269
Mof_O 	O 	0.7087	0.04708	0.9587	-0.514
Mof_O 	O 	0.3567	0.08257	0.2251	-0.322
Mof_O 	O 	0.4119	0.93202	0.3169	-0.319
Mof_N 	N 	0.731	0.0304	0.4079	0.067
Mof_O 	O 	0.5604	0.63926	0.6574	-0.469
Mof_O 	O 	0.5261	0.58416	0.4748	-0.598
Mof_O 	O 	0.6464	0.08174	0.3441	-0.292
Mof_N 	N 	0.4468	0.86314	0.3696	-0.042
Mof_N 	N 	0.218	0.0748	0.1902	-0.043
Mof_C 	C 	0.1353	0.1006	0.0773	0.012
Mof_H 	H 	0.1751	0.1255	0.0252	0.043
Mof_C 	C 	0.5373	0.6433	0.5428	0.432
Mof_C 	C 	0.5511	0.7879	0.5506	-0.023
Mof_H 	H 	0.5986	0.7848	0.6365	0.07
Mof_C 	C 	0.02	0.0316	0.2351	-0.016
Mof_H 	H 	0.9822	0.0098	0.2912	0.08
Mof_C 	C 	0.4376	0.7279	0.3526	-0.005
Mof_H 	H 	0.41	0.684	0.3035	0.042
Mof_O 	O 	0.837	0.0482	0.4958	-0.104
Mof_C 	C 	0.9925	0.0904	0.0387	-0.006
Mof_H 	H 	0.9361	0.1075	0.9599	0.05
Mof_C 	C 	0.7764	0.0376	0.0741	0.47
Mof_C 	C 	0.9318	0.0545	0.1171	-0.094
Mof_C 	C 	0.4051	0.799	0.2986	0.017
Mof_H 	H 	0.3544	0.8033	0.2135	0.048
Mof_C 	C 	0.5114	0.7209	0.4796	-0.09
Mof_C 	C 	0.1618	0.0408	0.2688	0.015
Mof_H 	H 	0.2203	0.0236	0.3466	0.072
Mof_C 	C 	0.5197	0.8581	0.4931	0.04
Mof_H 	H 	0.5491	0.9027	0.5399	0.052
_end
