data_functionalizedCrystal
_audit_creation_method	'EQeq! by Chris Wilmer'
_symmetry_space_group_name_H-M	'P1'
_symmetry_Int_Tables_number	1
_symmetry_cell_setting	triclinic
loop_
_symmetry_equiv_pos_as_xyz
  x,y,z
_cell_length_a	18.1148
_cell_length_b	18.1148
_cell_length_c	24.397
_cell_angle_alpha	74.5422
_cell_angle_beta	74.5422
_cell_angle_gamma	106.384
loop_
_atom_site_label
_atom_site_type_symbol
_atom_site_fract_x
_atom_site_fract_y
_atom_site_fract_z
_atom_site_charge
Mof_Cu	Cu	0.55266	0.99526	0.95382	0.902
Mof_Cu	Cu	0.49352	0.55092	0.95382	0.904
Mof_Cu	Cu	0.50474	0.94734	0.54618	0.904
Mof_Cu	Cu	0.94908	0.00648	0.54618	0.904
Mof_Cu	Cu	0.44734	0.00474	0.04618	0.902
Mof_Cu	Cu	0.50648	0.44908	0.04618	0.904
Mof_Cu	Cu	0.49526	0.05266	0.45382	0.905
Mof_Cu	Cu	0.05092	0.99352	0.45382	0.905
Mof_H 	H 	0.7717	0.5711	0.0052	0.042
Mof_H 	H 	0.8772	0.8122	0.8364	0.062
Mof_H 	H 	0.912	0.6508	0.9638	0.063
Mof_H 	H 	0.7358	0.7306	0.8766	0.042
Mof_H 	H 	0.9964	0.8106	0.7772	0.092
Mof_H 	H 	0.0501	0.9145	0.6836	0.038
Mof_H 	H 	0.2231	0.9237	0.0052	0.048
Mof_H 	H 	0.2864	0.8514	0.8364	0.06
Mof_H 	H 	0.1242	0.8854	0.9638	0.059
Mof_H 	H 	0.3876	0.8928	0.8766	0.044
Mof_H 	H 	0.2264	0.9122	0.7772	0.091
Mof_H 	H 	0.2663	0.9019	0.6836	0.038
Mof_H 	H 	0.9289	0.7283	0.4948	0.041
Mof_H 	H 	0.6878	0.6228	0.6636	0.062
Mof_H 	H 	0.8492	0.588	0.5362	0.063
Mof_H 	H 	0.7694	0.7642	0.6234	0.042
Mof_H 	H 	0.6894	0.5036	0.7228	0.09
Mof_H 	H 	0.5855	0.4499	0.8164	0.038
Mof_H 	H 	0.5763	0.2769	0.4948	0.041
Mof_H 	H 	0.6486	0.2136	0.6636	0.062
Mof_H 	H 	0.6146	0.3758	0.5362	0.063
Mof_H 	H 	0.6072	0.1124	0.6234	0.042
Mof_H 	H 	0.5878	0.2736	0.7228	0.091
Mof_H 	H 	0.5981	0.2337	0.8164	0.039
Mof_H 	H 	0.2283	0.4289	0.9948	0.042
Mof_H 	H 	0.1228	0.1878	0.1636	0.062
Mof_H 	H 	0.088	0.3492	0.0362	0.063
Mof_H 	H 	0.2642	0.2694	0.1234	0.042
Mof_H 	H 	0.0036	0.1894	0.2228	0.092
Mof_H 	H 	0.9499	0.0855	0.3164	0.038
Mof_H 	H 	0.7769	0.0763	0.9948	0.048
Mof_H 	H 	0.7136	0.1486	0.1636	0.06
Mof_H 	H 	0.8758	0.1146	0.0362	0.059
Mof_H 	H 	0.6124	0.1072	0.1234	0.044
Mof_H 	H 	0.7736	0.0878	0.2228	0.091
Mof_H 	H 	0.7337	0.0981	0.3164	0.038
Mof_H 	H 	0.0711	0.2717	0.5052	0.041
Mof_H 	H 	0.3122	0.3772	0.3364	0.062
Mof_H 	H 	0.1508	0.412	0.4638	0.063
Mof_H 	H 	0.2306	0.2358	0.3766	0.042
Mof_H 	H 	0.3106	0.4964	0.2772	0.09
Mof_H 	H 	0.4145	0.5501	0.1836	0.038
Mof_H 	H 	0.4237	0.7231	0.5052	0.041
Mof_H 	H 	0.3514	0.7864	0.3364	0.062
Mof_H 	H 	0.3854	0.6242	0.4638	0.063
Mof_H 	H 	0.3928	0.8876	0.3766	0.042
Mof_H 	H 	0.4122	0.7264	0.2772	0.091
Mof_H 	H 	0.4019	0.7663	0.1836	0.039
Mof_H 	H 	0.0329	0.7829	0.9342	0.085
Mof_H 	H 	0.2377	0.9877	0.5246	0.042
Mof_H 	H 	0.7171	0.4671	0.5658	0.085
Mof_H 	H 	0.5123	0.2623	0.9754	0.043
Mof_H 	H 	0.9671	0.2171	0.0658	0.085
Mof_H 	H 	0.7623	0.0123	0.4754	0.042
Mof_H 	H 	0.2829	0.5329	0.4342	0.085
Mof_H 	H 	0.4877	0.7377	0.0246	0.043
Mof_C 	C 	0.74275	0.64255	0.9419	-0.078
Mof_C 	C 	0.79355	0.61875	0.9701	0.017
Mof_C 	C 	0.85626	0.76226	0.86948	-0.087
Mof_C 	C 	0.90877	0.73697	0.89406	0.023
Mof_C 	C 	0.87693	0.66633	0.94554	-0.088
Mof_C 	C 	0.77149	0.71389	0.89362	0.015
Mof_C 	C 	0.00197	0.78997	0.86026	0.084
Mof_C 	C 	0.03193	0.82053	0.79794	-0.163
Mof_C 	C 	0.1042	0.9208	0.6636	0.02
Mof_C 	C 	0.13476	0.94936	0.60068	-0.11
Mof_C 	C 	0.64863	0.58783	0.96474	0.347
Mof_C 	C 	0.08115	0.96535	0.5663	0.371
Mof_C 	C 	0.31535	0.91555	0.9419	-0.072
Mof_C 	C 	0.23635	0.91115	0.9701	0.005
Mof_C 	C 	0.27426	0.86826	0.86948	-0.082
Mof_C 	C 	0.19717	0.86897	0.89406	0.017
Mof_C 	C 	0.17753	0.88813	0.94554	-0.079
Mof_C 	C 	0.33489	0.89249	0.89362	0.009
Mof_C 	C 	0.13777	0.84977	0.86026	0.086
Mof_C 	C 	0.17013	0.88153	0.79794	-0.162
Mof_C 	C 	0.2322	0.9156	0.6636	0.02
Mof_C 	C 	0.26456	0.94996	0.60068	-0.11
Mof_C 	C 	0.38663	0.94743	0.96474	0.34
Mof_C 	C 	0.35255	0.96835	0.5663	0.371
Mof_C 	C 	0.85745	0.75725	0.5581	-0.078
Mof_C 	C 	0.88125	0.70645	0.5299	0.018
Mof_C 	C 	0.73774	0.64374	0.63052	-0.087
Mof_C 	C 	0.76303	0.59123	0.60594	0.023
Mof_C 	C 	0.83367	0.62307	0.55446	-0.088
Mof_C 	C 	0.78611	0.72851	0.60638	0.015
Mof_C 	C 	0.71003	0.49803	0.63974	0.084
Mof_C 	C 	0.67947	0.46807	0.70206	-0.16
Mof_C 	C 	0.5792	0.3958	0.8364	0.02
Mof_C 	C 	0.55064	0.36524	0.89932	-0.109
Mof_C 	C 	0.91217	0.85137	0.53526	0.347
Mof_C 	C 	0.53465	0.41885	0.9337	0.371
Mof_C 	C 	0.58445	0.18465	0.5581	-0.079
Mof_C 	C 	0.58885	0.26365	0.5299	0.018
Mof_C 	C 	0.63174	0.22574	0.63052	-0.087
Mof_C 	C 	0.63103	0.30283	0.60594	0.023
Mof_C 	C 	0.61187	0.32247	0.55446	-0.088
Mof_C 	C 	0.60751	0.16511	0.60638	0.016
Mof_C 	C 	0.65023	0.36223	0.63974	0.084
Mof_C 	C 	0.61847	0.32987	0.70206	-0.16
Mof_C 	C 	0.5844	0.2678	0.8364	0.019
Mof_C 	C 	0.55004	0.23544	0.89932	-0.109
Mof_C 	C 	0.55257	0.11337	0.53526	0.347
Mof_C 	C 	0.53165	0.14745	0.9337	0.371
Mof_C 	C 	0.25725	0.35745	0.0581	-0.078
Mof_C 	C 	0.20645	0.38125	0.0299	0.017
Mof_C 	C 	0.14374	0.23774	0.13052	-0.087
Mof_C 	C 	0.09123	0.26303	0.10594	0.023
Mof_C 	C 	0.12307	0.33367	0.05446	-0.088
Mof_C 	C 	0.22851	0.28611	0.10638	0.015
Mof_C 	C 	0.99803	0.21003	0.13974	0.084
Mof_C 	C 	0.96807	0.17947	0.20206	-0.163
Mof_C 	C 	0.8958	0.0792	0.3364	0.02
Mof_C 	C 	0.86524	0.05064	0.39932	-0.11
Mof_C 	C 	0.35137	0.41217	0.03526	0.347
Mof_C 	C 	0.91885	0.03465	0.4337	0.371
Mof_C 	C 	0.68465	0.08445	0.0581	-0.072
Mof_C 	C 	0.76365	0.08885	0.0299	0.005
Mof_C 	C 	0.72574	0.13174	0.13052	-0.082
Mof_C 	C 	0.80283	0.13103	0.10594	0.017
Mof_C 	C 	0.82247	0.11187	0.05446	-0.079
Mof_C 	C 	0.66511	0.10751	0.10638	0.009
Mof_C 	C 	0.86223	0.15023	0.13974	0.086
Mof_C 	C 	0.82987	0.11847	0.20206	-0.162
Mof_C 	C 	0.7678	0.0844	0.3364	0.02
Mof_C 	C 	0.73544	0.05004	0.39932	-0.11
Mof_C 	C 	0.61337	0.05257	0.03526	0.34
Mof_C 	C 	0.64745	0.03165	0.4337	0.371
Mof_C 	C 	0.14255	0.24275	0.4419	-0.078
Mof_C 	C 	0.11875	0.29355	0.4701	0.018
Mof_C 	C 	0.26226	0.35626	0.36948	-0.087
Mof_C 	C 	0.23697	0.40877	0.39406	0.023
Mof_C 	C 	0.16633	0.37693	0.44554	-0.088
Mof_C 	C 	0.21389	0.27149	0.39362	0.015
Mof_C 	C 	0.28997	0.50197	0.36026	0.084
Mof_C 	C 	0.32053	0.53193	0.29794	-0.16
Mof_C 	C 	0.4208	0.6042	0.1636	0.02
Mof_C 	C 	0.44936	0.63476	0.10068	-0.109
Mof_C 	C 	0.08783	0.14863	0.46474	0.347
Mof_C 	C 	0.46535	0.58115	0.0663	0.371
Mof_C 	C 	0.41555	0.81535	0.4419	-0.079
Mof_C 	C 	0.41115	0.73635	0.4701	0.018
Mof_C 	C 	0.36826	0.77426	0.36948	-0.087
Mof_C 	C 	0.36897	0.69717	0.39406	0.023
Mof_C 	C 	0.38813	0.67753	0.44554	-0.088
Mof_C 	C 	0.39249	0.83489	0.39362	0.016
Mof_C 	C 	0.34977	0.63777	0.36026	0.084
Mof_C 	C 	0.38153	0.67013	0.29794	-0.16
Mof_C 	C 	0.4156	0.7322	0.1636	0.019
Mof_C 	C 	0.44996	0.76456	0.10068	-0.109
Mof_C 	C 	0.44743	0.88663	0.46474	0.347
Mof_C 	C 	0.46835	0.85255	0.0663	0.371
Mof_C 	C 	0.05415	0.80415	0.8917	-0.154
Mof_C 	C 	0.1175	0.8675	0.765	0.107
Mof_C 	C 	0.1501	0.9001	0.6998	-0.057
Mof_C 	C 	0.21646	0.96646	0.56708	0.052
Mof_C 	C 	0.69585	0.44585	0.6083	-0.152
Mof_C 	C 	0.6325	0.3825	0.735	0.106
Mof_C 	C 	0.5999	0.3499	0.8002	-0.055
Mof_C 	C 	0.53354	0.28354	0.93292	0.051
Mof_C 	C 	0.94585	0.19585	0.1083	-0.154
Mof_C 	C 	0.8825	0.1325	0.235	0.107
Mof_C 	C 	0.8499	0.0999	0.3002	-0.057
Mof_C 	C 	0.78354	0.03354	0.43292	0.052
Mof_C 	C 	0.30415	0.55415	0.3917	-0.152
Mof_C 	C 	0.3675	0.6175	0.265	0.106
Mof_C 	C 	0.4001	0.6501	0.1998	-0.055
Mof_C 	C 	0.46646	0.71646	0.06708	0.051
Mof_O 	O 	0.61023	0.61151	0.93364	-0.415
Mof_O 	O 	0.01819	0.97741	0.59168	-0.407
Mof_O 	O 	0.62251	0.52409	0.0137	-0.398
Mof_O 	O 	0.10413	0.96869	0.5119	-0.415
Mof_O 	O 	0.45613	0.95485	0.93364	-0.414
Mof_O 	O 	0.39013	0.93091	0.59168	-0.407
Mof_O 	O 	0.36379	0.96221	0.0137	-0.394
Mof_O 	O 	0.38397	0.01941	0.5119	-0.414
Mof_O 	O 	0.88849	0.88977	0.56636	-0.414
Mof_O 	O 	0.52259	0.48181	0.90832	-0.406
Mof_O 	O 	0.97591	0.87749	0.4863	-0.398
Mof_O 	O 	0.53131	0.39587	0.9881	-0.414
Mof_O 	O 	0.54515	0.04387	0.56636	-0.414
Mof_O 	O 	0.56909	0.10987	0.90832	-0.405
Mof_O 	O 	0.53779	0.13621	0.4863	-0.398
Mof_O 	O 	0.48059	0.11603	0.9881	-0.413
Mof_O 	O 	0.38977	0.38849	0.06636	-0.415
Mof_O 	O 	0.98181	0.02259	0.40832	-0.407
Mof_O 	O 	0.37749	0.47591	0.9863	-0.398
Mof_O 	O 	0.89587	0.03131	0.4881	-0.415
Mof_O 	O 	0.54387	0.04515	0.06636	-0.414
Mof_O 	O 	0.60987	0.06909	0.40832	-0.407
Mof_O 	O 	0.63621	0.03779	0.9863	-0.394
Mof_O 	O 	0.61603	0.98059	0.4881	-0.414
Mof_O 	O 	0.11151	0.11023	0.43364	-0.414
Mof_O 	O 	0.47741	0.51819	0.09168	-0.406
Mof_O 	O 	0.02409	0.12251	0.5137	-0.398
Mof_O 	O 	0.46869	0.60413	0.0119	-0.414
Mof_O 	O 	0.45485	0.95613	0.43364	-0.414
Mof_O 	O 	0.43091	0.89013	0.09168	-0.405
Mof_O 	O 	0.46221	0.86379	0.5137	-0.398
Mof_O 	O 	0.51941	0.88397	0.0119	-0.413
_end
