# CIF file generated by openbabel 3.1.0, see https://openbabel.org
data_I
_chemical_name_common 'MIDRAT_clean'
_cell_length_a 11.5312
_cell_length_b 14.8219
_cell_length_c 14.8219
_cell_angle_alpha 90
_cell_angle_beta 90
_cell_angle_gamma 90
_space_group_name_H-M_alt 'P 1'
_space_group_name_Hall 'P 1'
loop_
    _symmetry_equiv_pos_as_xyz
    x,y,z
loop_
    _atom_site_label
    _atom_site_type_symbol
    _atom_site_fract_x
    _atom_site_fract_y
    _atom_site_fract_z
    _atom_site_occupancy
    Zn1      Zn       0.75000    0.88747    0.11253    1.000
    Zn2      Zn       0.25000    0.11253    0.88747    1.000
    Zn3      Zn       0.50000    0.38747    0.38747    1.000
    Zn4      Zn       0.00000    0.61253    0.61253    1.000
    H1       H        0.43860    0.36650    0.08940    1.000
    H2       H        0.55840    0.40770    0.05370    1.000
    H3       H        0.54630    0.30130    0.06980    1.000
    H4       H        0.88850    0.31130    0.29100    1.000
    H5       H        0.90210    0.41650    0.26910    1.000
    H6       H        0.88180    0.38380    0.37080    1.000
    H7       H        0.65230    0.20000    0.21840    1.000
    H8       H        0.65380    0.04470    0.21240    1.000
    H9       H        0.89180    0.04510    0.02270    1.000
    H10      H        0.89960    0.20080    0.02340    1.000
    H11      H        0.93860    0.63350    0.91060    1.000
    H12      H        0.05840    0.59230    0.94630    1.000
    H13      H        0.04630    0.69870    0.93020    1.000
    H14      H        0.38850    0.68870    0.70900    1.000
    H15      H        0.40210    0.58350    0.73090    1.000
    H16      H        0.38180    0.61620    0.62920    1.000
    H17      H        0.15230    0.80000    0.78160    1.000
    H18      H        0.15380    0.95530    0.78760    1.000
    H19      H        0.39180    0.95490    0.97730    1.000
    H20      H        0.39960    0.79920    0.97660    1.000
    H21      H        0.18860    0.41060    0.86650    1.000
    H22      H        0.30840    0.44630    0.90770    1.000
    H23      H        0.29630    0.43020    0.80130    1.000
    H24      H        0.63850    0.20900    0.81130    1.000
    H25      H        0.65210    0.23090    0.91650    1.000
    H26      H        0.63180    0.12920    0.88380    1.000
    H27      H        0.40230    0.28160    0.70000    1.000
    H28      H        0.40380    0.28760    0.54470    1.000
    H29      H        0.64180    0.47730    0.54510    1.000
    H30      H        0.64960    0.47660    0.70080    1.000
    H31      H        0.68860    0.58940    0.13350    1.000
    H32      H        0.80840    0.55370    0.09230    1.000
    H33      H        0.79630    0.56980    0.19870    1.000
    H34      H        0.13850    0.79100    0.18870    1.000
    H35      H        0.15210    0.76910    0.08350    1.000
    H36      H        0.13180    0.87080    0.11620    1.000
    H37      H        0.90230    0.71840    0.30000    1.000
    H38      H        0.90380    0.71240    0.45530    1.000
    H39      H        0.14180    0.52270    0.45490    1.000
    H40      H        0.14960    0.52340    0.29920    1.000
    H41      H        0.31140    0.13350    0.58940    1.000
    H42      H        0.19160    0.09230    0.55370    1.000
    H43      H        0.20370    0.19870    0.56980    1.000
    H44      H        0.86150    0.18870    0.79100    1.000
    H45      H        0.84790    0.08350    0.76910    1.000
    H46      H        0.86820    0.11620    0.87080    1.000
    H47      H        0.09770    0.30000    0.71840    1.000
    H48      H        0.09620    0.45530    0.71240    1.000
    H49      H        0.85820    0.45490    0.52270    1.000
    H50      H        0.85040    0.29920    0.52340    1.000
    H51      H        0.81140    0.86650    0.41060    1.000
    H52      H        0.69160    0.90770    0.44630    1.000
    H53      H        0.70370    0.80130    0.43020    1.000
    H54      H        0.36150    0.81130    0.20900    1.000
    H55      H        0.34790    0.91650    0.23090    1.000
    H56      H        0.36820    0.88380    0.12920    1.000
    H57      H        0.59770    0.70000    0.28160    1.000
    H58      H        0.59620    0.54470    0.28760    1.000
    H59      H        0.35820    0.54510    0.47730    1.000
    H60      H        0.35040    0.70080    0.47660    1.000
    H61      H        0.56140    0.08940    0.36650    1.000
    H62      H        0.44160    0.05370    0.40770    1.000
    H63      H        0.45370    0.06980    0.30130    1.000
    H64      H        0.11150    0.29100    0.31130    1.000
    H65      H        0.09790    0.26910    0.41650    1.000
    H66      H        0.11820    0.37080    0.38380    1.000
    H67      H        0.34770    0.21840    0.20000    1.000
    H68      H        0.34620    0.21240    0.04470    1.000
    H69      H        0.10820    0.02270    0.04510    1.000
    H70      H        0.10040    0.02340    0.20080    1.000
    H71      H        0.06140    0.91060    0.63350    1.000
    H72      H        0.94160    0.94630    0.59230    1.000
    H73      H        0.95370    0.93020    0.69870    1.000
    H74      H        0.61150    0.70900    0.68870    1.000
    H75      H        0.59790    0.73090    0.58350    1.000
    H76      H        0.61820    0.62920    0.61620    1.000
    H77      H        0.84770    0.78160    0.80000    1.000
    H78      H        0.84620    0.78760    0.95530    1.000
    H79      H        0.60820    0.97730    0.95490    1.000
    H80      H        0.60040    0.97660    0.79920    1.000
    C1       C        0.52320    0.36110    0.09177    1.000
    C2       C        0.56380    0.37273    0.18785    1.000
    C3       C        0.68530    0.36623    0.20717    1.000
    C4       C        0.73420    0.37948    0.29427    1.000
    C5       C        0.86280    0.37210    0.30740    1.000
    C6       C        0.77660    0.21838    0.12105    1.000
    C7       C        0.70230    0.16966    0.17752    1.000
    C8       C        0.70310    0.07722    0.17270    1.000
    C9       C        0.84200    0.07732    0.06228    1.000
    C10      C        0.84770    0.17008    0.06263    1.000
    C11      C        0.02320    0.63890    0.90823    1.000
    C12      C        0.06380    0.62727    0.81215    1.000
    C13      C        0.18530    0.63377    0.79283    1.000
    C14      C        0.23420    0.62052    0.70573    1.000
    C15      C        0.36280    0.62790    0.69260    1.000
    C16      C        0.27660    0.78162    0.87895    1.000
    C17      C        0.20230    0.83034    0.82248    1.000
    C18      C        0.20310    0.92278    0.82730    1.000
    C19      C        0.34200    0.92268    0.93772    1.000
    C20      C        0.34770    0.82992    0.93737    1.000
    C21      C        0.27320    0.40823    0.86110    1.000
    C22      C        0.31380    0.31215    0.87273    1.000
    C23      C        0.43530    0.29283    0.86623    1.000
    C24      C        0.48420    0.20573    0.87948    1.000
    C25      C        0.61280    0.19260    0.87210    1.000
    C26      C        0.52660    0.37895    0.71838    1.000
    C27      C        0.45230    0.32248    0.66966    1.000
    C28      C        0.45310    0.32730    0.57722    1.000
    C29      C        0.59200    0.43772    0.57732    1.000
    C30      C        0.59770    0.43737    0.67008    1.000
    C31      C        0.77320    0.59177    0.13890    1.000
    C32      C        0.81380    0.68785    0.12727    1.000
    C33      C        0.93530    0.70717    0.13377    1.000
    C34      C        0.98420    0.79427    0.12052    1.000
    C35      C        0.11280    0.80740    0.12790    1.000
    C36      C        0.02660    0.62105    0.28162    1.000
    C37      C        0.95230    0.67752    0.33034    1.000
    C38      C        0.95310    0.67270    0.42278    1.000
    C39      C        0.09200    0.56228    0.42268    1.000
    C40      C        0.09770    0.56263    0.32992    1.000
    C41      C        0.22680    0.13890    0.59177    1.000
    C42      C        0.18620    0.12727    0.68785    1.000
    C43      C        0.06470    0.13377    0.70717    1.000
    C44      C        0.01580    0.12052    0.79427    1.000
    C45      C        0.88720    0.12790    0.80740    1.000
    C46      C        0.97340    0.28162    0.62105    1.000
    C47      C        0.04770    0.33034    0.67752    1.000
    C48      C        0.04690    0.42278    0.67270    1.000
    C49      C        0.90800    0.42268    0.56228    1.000
    C50      C        0.90230    0.32992    0.56263    1.000
    C51      C        0.72680    0.86110    0.40823    1.000
    C52      C        0.68620    0.87273    0.31215    1.000
    C53      C        0.56470    0.86623    0.29283    1.000
    C54      C        0.51580    0.87948    0.20573    1.000
    C55      C        0.38720    0.87210    0.19260    1.000
    C56      C        0.47340    0.71838    0.37895    1.000
    C57      C        0.54770    0.66966    0.32248    1.000
    C58      C        0.54690    0.57722    0.32730    1.000
    C59      C        0.40800    0.57732    0.43772    1.000
    C60      C        0.40230    0.67008    0.43737    1.000
    C61      C        0.47680    0.09177    0.36110    1.000
    C62      C        0.43620    0.18785    0.37273    1.000
    C63      C        0.31470    0.20717    0.36623    1.000
    C64      C        0.26580    0.29427    0.37948    1.000
    C65      C        0.13720    0.30740    0.37210    1.000
    C66      C        0.22340    0.12105    0.21838    1.000
    C67      C        0.29770    0.17752    0.16966    1.000
    C68      C        0.29690    0.17270    0.07722    1.000
    C69      C        0.15800    0.06228    0.07732    1.000
    C70      C        0.15230    0.06263    0.17008    1.000
    C71      C        0.97680    0.90823    0.63890    1.000
    C72      C        0.93620    0.81215    0.62727    1.000
    C73      C        0.81470    0.79283    0.63377    1.000
    C74      C        0.76580    0.70573    0.62052    1.000
    C75      C        0.63720    0.69260    0.62790    1.000
    C76      C        0.72340    0.87895    0.78162    1.000
    C77      C        0.79770    0.82248    0.83034    1.000
    C78      C        0.79690    0.82730    0.92278    1.000
    C79      C        0.65800    0.93772    0.92268    1.000
    C80      C        0.65230    0.93737    0.82992    1.000
    S1       S        0.77979    0.33706    0.11858    1.000
    S2       S        0.27979    0.66294    0.88142    1.000
    S3       S        0.52979    0.38142    0.83706    1.000
    S4       S        0.02979    0.61858    0.16294    1.000
    S5       S        0.97021    0.16294    0.61858    1.000
    S6       S        0.47021    0.83706    0.38142    1.000
    S7       S        0.22021    0.11858    0.33706    1.000
    S8       S        0.72021    0.88142    0.66294    1.000
    N1       N        0.76940    0.03001    0.11523    1.000
    N2       N        0.26940    0.96999    0.88477    1.000
    N3       N        0.51940    0.38477    0.53001    1.000
    N4       N        0.01940    0.61523    0.46999    1.000
    N5       N        0.98060    0.46999    0.61523    1.000
    N6       N        0.48060    0.53001    0.38477    1.000
    N7       N        0.23060    0.11523    0.03001    1.000
    N8       N        0.73060    0.88477    0.96999    1.000
    O1       O        0.48713    0.38701    0.24605    1.000
    O2       O        0.67603    0.39733    0.36487    1.000
    O3       O        0.98713    0.61299    0.75395    1.000
    O4       O        0.17603    0.60267    0.63513    1.000
    O5       O        0.23713    0.25395    0.88701    1.000
    O6       O        0.42603    0.13513    0.89733    1.000
    O7       O        0.73713    0.74605    0.11299    1.000
    O8       O        0.92603    0.86487    0.10267    1.000
    O9       O        0.26287    0.11299    0.74605    1.000
    O10      O        0.07397    0.10267    0.86487    1.000
    O11      O        0.76287    0.88701    0.25395    1.000
    O12      O        0.57397    0.89733    0.13513    1.000
    O13      O        0.51287    0.24605    0.38701    1.000
    O14      O        0.32397    0.36487    0.39733    1.000
    O15      O        0.01287    0.75395    0.61299    1.000
    O16      O        0.82397    0.63513    0.60267    1.000
