# CIF file generated by openbabel 3.1.0, see https://openbabel.org
data_I
_chemical_name_common 'image0'
_cell_length_a 10.8928
_cell_length_b 8.7917
_cell_length_c 27.7665
_cell_angle_alpha 90
_cell_angle_beta 101.051
_cell_angle_gamma 90
_space_group_name_H-M_alt 'P 1'
_space_group_name_Hall 'P 1'
loop_
    _symmetry_equiv_pos_as_xyz
    x,y,z
loop_
    _atom_site_label
    _atom_site_type_symbol
    _atom_site_fract_x
    _atom_site_fract_y
    _atom_site_fract_z
    _atom_site_occupancy
    Zn1      Zn       0.62956    0.03308    0.80094    1.000
    Zn2      Zn       0.87284    0.23781    0.70400    1.000
    P1       P        0.88172    0.95290    0.76783    1.000
    P2       P        0.61328    0.30500    0.72899    1.000
    O1       O        0.88780    0.02040    0.71823    1.000
    O2       O        0.95466    0.80450    0.77700    1.000
    O3       O        0.74679    0.92040    0.77190    1.000
    O4       O        0.93960    0.07530    0.80678    1.000
    O5       O        0.75207    0.34770    0.73361    1.000
    O6       O        0.58800    0.23930    0.77661    1.000
    O7       O        0.58440    0.17530    0.68933    1.000
    O8       O        0.66800    0.06460    0.87146    1.000
    O9       O        0.83650    0.23780    0.13210    1.000
    O10      O        0.87690    0.05800    0.89168    1.000
    O11      O        0.62840    0.21520    0.11091    1.000
    C1       C        0.77200    0.07300    0.90169    1.000
    C2       C        0.76320    0.10270    0.95430    1.000
    C3       C        0.64770    0.10370    0.96809    1.000
    C4       C        0.63920    0.13950    0.01566    1.000
    C5       C        0.74680    0.16920    0.05056    1.000
    C6       C        0.86230    0.16220    0.03730    1.000
    C7       C        0.87090    0.13050    0.98908    1.000
    C8       C        0.73550    0.20960    0.10215    1.000
    H1       H        0.92430    0.05630    0.83850    1.000
    H2       H        0.60110    0.21050    0.66210    1.000
    H3       H        0.57640    0.08210    0.94520    1.000
    H4       H        0.56140    0.14190    0.02430    1.000
    H5       H        0.93450    0.17640    0.06080    1.000
    H6       H        0.94840    0.12900    0.98040    1.000
    O12      O        0.53370    0.44200    0.71371    1.000
    Zn3      Zn       0.37044    0.53308    0.69906    1.000
    Zn4      Zn       0.12716    0.73781    0.79599    1.000
    P3       P        0.11828    0.45290    0.73217    1.000
    P4       P        0.38672    0.80500    0.77101    1.000
    O13      O        0.11220    0.52040    0.78177    1.000
    O14      O        0.04534    0.30450    0.72300    1.000
    O15      O        0.25321    0.42040    0.72810    1.000
    O16      O        0.06040    0.57530    0.69322    1.000
    O17      O        0.24793    0.84770    0.76639    1.000
    O18      O        0.41200    0.73930    0.72339    1.000
    O19      O        0.41560    0.67530    0.81067    1.000
    O20      O        0.33200    0.56460    0.62854    1.000
    O21      O        0.16350    0.73780    0.36790    1.000
    O22      O        0.12310    0.55800    0.60832    1.000
    O23      O        0.37160    0.71520    0.38909    1.000
    C9       C        0.22800    0.57300    0.59831    1.000
    C10      C        0.23680    0.60270    0.54570    1.000
    C11      C        0.35230    0.60370    0.53191    1.000
    C12      C        0.36080    0.63950    0.48434    1.000
    C13      C        0.25320    0.66920    0.44944    1.000
    C14      C        0.13770    0.66220    0.46270    1.000
    C15      C        0.12910    0.63050    0.51092    1.000
    C16      C        0.26450    0.70960    0.39785    1.000
    H7       H        0.07570    0.55630    0.66150    1.000
    H8       H        0.39890    0.71050    0.83790    1.000
    H9       H        0.42360    0.58210    0.55480    1.000
    H10      H        0.43860    0.64190    0.47570    1.000
    H11      H        0.06550    0.67640    0.43920    1.000
    H12      H        0.05160    0.62900    0.51960    1.000
    O24      O        0.46630    0.94200    0.78629    1.000
    Zn5      Zn       0.37044    0.96692    0.19906    1.000
    Zn6      Zn       0.12716    0.76219    0.29600    1.000
    P5       P        0.11828    0.04710    0.23217    1.000
    P6       P        0.38672    0.69500    0.27101    1.000
    O25      O        0.11220    0.97960    0.28177    1.000
    O26      O        0.04534    0.19550    0.22300    1.000
    O27      O        0.25321    0.07960    0.22810    1.000
    O28      O        0.06040    0.92470    0.19322    1.000
    O29      O        0.24793    0.65230    0.26639    1.000
    O30      O        0.41200    0.76070    0.22339    1.000
    O31      O        0.41560    0.82470    0.31067    1.000
    O32      O        0.33200    0.93540    0.12854    1.000
    O33      O        0.16350    0.76220    0.86790    1.000
    O34      O        0.12310    0.94200    0.10832    1.000
    O35      O        0.37160    0.78480    0.88909    1.000
    C17      C        0.22800    0.92700    0.09831    1.000
    C18      C        0.23680    0.89730    0.04570    1.000
    C19      C        0.35230    0.89630    0.03191    1.000
    C20      C        0.36080    0.86050    0.98434    1.000
    C21      C        0.25320    0.83080    0.94944    1.000
    C22      C        0.13770    0.83780    0.96270    1.000
    C23      C        0.12910    0.86950    0.01092    1.000
    C24      C        0.26450    0.79040    0.89785    1.000
    H13      H        0.07570    0.94370    0.16150    1.000
    H14      H        0.39890    0.78950    0.33790    1.000
    H15      H        0.42360    0.91790    0.05480    1.000
    H16      H        0.43860    0.85810    0.97570    1.000
    H17      H        0.06550    0.82360    0.93920    1.000
    H18      H        0.05160    0.87100    0.01960    1.000
    O36      O        0.46630    0.55800    0.28629    1.000
    Zn7      Zn       0.62956    0.46692    0.30094    1.000
    Zn8      Zn       0.87284    0.26219    0.20400    1.000
    P7       P        0.88172    0.54710    0.26783    1.000
    P8       P        0.61328    0.19500    0.22899    1.000
    O37      O        0.88780    0.47960    0.21823    1.000
    O38      O        0.95466    0.69550    0.27700    1.000
    O39      O        0.74679    0.57960    0.27190    1.000
    O40      O        0.93960    0.42470    0.30678    1.000
    O41      O        0.75207    0.15230    0.23361    1.000
    O42      O        0.58800    0.26070    0.27661    1.000
    O43      O        0.58440    0.32470    0.18933    1.000
    O44      O        0.66800    0.43540    0.37146    1.000
    O45      O        0.83650    0.26220    0.63210    1.000
    O46      O        0.87690    0.44200    0.39168    1.000
    O47      O        0.62840    0.28480    0.61091    1.000
    C25      C        0.77200    0.42700    0.40169    1.000
    C26      C        0.76320    0.39730    0.45430    1.000
    C27      C        0.64770    0.39630    0.46809    1.000
    C28      C        0.63920    0.36050    0.51566    1.000
    C29      C        0.74680    0.33080    0.55056    1.000
    C30      C        0.86230    0.33780    0.53730    1.000
    C31      C        0.87090    0.36950    0.48908    1.000
    C32      C        0.73550    0.29040    0.60215    1.000
    H19      H        0.92430    0.44370    0.33850    1.000
    H20      H        0.60110    0.28950    0.16210    1.000
    H21      H        0.57640    0.41790    0.44520    1.000
    H22      H        0.56140    0.35810    0.52430    1.000
    H23      H        0.93450    0.32360    0.56080    1.000
    H24      H        0.94840    0.37100    0.48040    1.000
    O48      O        0.53370    0.05800    0.21371    1.000
