# CIF file generated by openbabel 3.1.0, see https://openbabel.org
data_I
_chemical_name_common 'image0'
_cell_length_a 15.569
_cell_length_b 6.8533
_cell_length_c 14.397
_cell_angle_alpha 90
_cell_angle_beta 90
_cell_angle_gamma 90
_space_group_name_H-M_alt 'P 1'
_space_group_name_Hall 'P 1'
loop_
    _symmetry_equiv_pos_as_xyz
    x,y,z
loop_
    _atom_site_label
    _atom_site_type_symbol
    _atom_site_fract_x
    _atom_site_fract_y
    _atom_site_fract_z
    _atom_site_occupancy
    O1       O        0.14740    0.58930    0.36150    1.000
    O2       O        0.20640    0.90900    0.74970    1.000
    O3       O        0.35260    0.41070    0.86150    1.000
    O4       O        0.29360    0.09100    0.24970    1.000
    O5       O        0.85260    0.08930    0.63850    1.000
    O6       O        0.79360    0.40900    0.25030    1.000
    O7       O        0.64740    0.91070    0.13850    1.000
    O8       O        0.70640    0.59100    0.75030    1.000
    O9       O        0.85260    0.41070    0.63850    1.000
    O10      O        0.79360    0.09100    0.25030    1.000
    O11      O        0.64740    0.58930    0.13850    1.000
    O12      O        0.70640    0.90900    0.75030    1.000
    O13      O        0.14740    0.91070    0.36150    1.000
    O14      O        0.20640    0.59100    0.74970    1.000
    O15      O        0.35260    0.08930    0.86150    1.000
    O16      O        0.29360    0.40900    0.24970    1.000
    Sm1      Sm       0.80181    0.75000    0.62143    1.000
    O17      O        0.85400    0.75000    0.45910    1.000
    O18      O        0.95550    0.75000    0.34990    1.000
    O19      O        0.02830    0.75000    0.82650    1.000
    O20      O        0.90120    0.75000    0.75910    1.000
    N1       N        0.96810    0.75000    0.59340    1.000
    N2       N        0.14220    0.75000    0.56170    1.000
    C1       C        0.99880    0.75000    0.50660    1.000
    C2       C        0.08740    0.75000    0.49100    1.000
    C3       C        0.11090    0.75000    0.64740    1.000
    C4       C        0.02230    0.75000    0.66350    1.000
    C5       C        0.93070    0.75000    0.43100    1.000
    C6       C        0.12920    0.75000    0.39600    1.000
    C7       C        0.17890    0.75000    0.72250    1.000
    C8       C        0.98170    0.75000    0.75820    1.000
    Sm2      Sm       0.69819    0.25000    0.12143    1.000
    O21      O        0.64600    0.25000    0.95910    1.000
    O22      O        0.54450    0.25000    0.84990    1.000
    O23      O        0.47170    0.25000    0.32650    1.000
    O24      O        0.59880    0.25000    0.25910    1.000
    N3       N        0.53190    0.25000    0.09340    1.000
    N4       N        0.35780    0.25000    0.06170    1.000
    C9       C        0.50120    0.25000    0.00660    1.000
    C10      C        0.41260    0.25000    0.99100    1.000
    C11      C        0.38910    0.25000    0.14740    1.000
    C12      C        0.47770    0.25000    0.16350    1.000
    C13      C        0.56930    0.25000    0.93100    1.000
    C14      C        0.37080    0.25000    0.89600    1.000
    C15      C        0.32110    0.25000    0.22250    1.000
    C16      C        0.51830    0.25000    0.25820    1.000
    Sm3      Sm       0.19819    0.25000    0.37857    1.000
    O25      O        0.14600    0.25000    0.54090    1.000
    O26      O        0.04450    0.25000    0.65010    1.000
    O27      O        0.97170    0.25000    0.17350    1.000
    O28      O        0.09880    0.25000    0.24090    1.000
    N5       N        0.03190    0.25000    0.40660    1.000
    N6       N        0.85780    0.25000    0.43830    1.000
    C17      C        0.00120    0.25000    0.49340    1.000
    C18      C        0.91260    0.25000    0.50900    1.000
    C19      C        0.88910    0.25000    0.35260    1.000
    C20      C        0.97770    0.25000    0.33650    1.000
    C21      C        0.06930    0.25000    0.56900    1.000
    C22      C        0.87080    0.25000    0.60400    1.000
    C23      C        0.82110    0.25000    0.27750    1.000
    C24      C        0.01830    0.25000    0.24180    1.000
    Sm4      Sm       0.30181    0.75000    0.87857    1.000
    O29      O        0.35400    0.75000    0.04090    1.000
    O30      O        0.45550    0.75000    0.15010    1.000
    O31      O        0.52830    0.75000    0.67350    1.000
    O32      O        0.40120    0.75000    0.74090    1.000
    N7       N        0.46810    0.75000    0.90660    1.000
    N8       N        0.64220    0.75000    0.93830    1.000
    C25      C        0.49880    0.75000    0.99340    1.000
    C26      C        0.58740    0.75000    0.00900    1.000
    C27      C        0.61090    0.75000    0.85260    1.000
    C28      C        0.52230    0.75000    0.83650    1.000
    C29      C        0.43070    0.75000    0.06900    1.000
    C30      C        0.62920    0.75000    0.10400    1.000
    C31      C        0.67890    0.75000    0.77750    1.000
    C32      C        0.48170    0.75000    0.74180    1.000
    Na1      Na       0.25950    0.25000    0.69210    1.000
    Na2      Na       0.24050    0.75000    0.19210    1.000
    Na3      Na       0.74050    0.75000    0.30790    1.000
    Na4      Na       0.75950    0.25000    0.80790    1.000
