# CIF file generated by openbabel 3.1.0, see https://openbabel.org
data_I
_chemical_name_common 'image0'
_cell_length_a 13.3961
_cell_length_b 10.1579
_cell_length_c 17.6555
_cell_angle_alpha 90
_cell_angle_beta 90.079
_cell_angle_gamma 90
_space_group_name_H-M_alt 'P 1'
_space_group_name_Hall 'P 1'
loop_
    _symmetry_equiv_pos_as_xyz
    x,y,z
loop_
    _atom_site_label
    _atom_site_type_symbol
    _atom_site_fract_x
    _atom_site_fract_y
    _atom_site_fract_z
    _atom_site_occupancy
    Mn1      Mn       0.84650    0.42418    0.01539    1.000
    Mn2      Mn       0.61117    0.58167    0.03189    1.000
    C1       C        0.62800    0.41150    0.91712    1.000
    C2       C        0.63960    0.34760    0.84198    1.000
    C3       C        0.56540    0.23010    0.73780    1.000
    H1       H        0.50900    0.19020    0.71460    1.000
    C4       C        0.65800    0.22370    0.70287    1.000
    C5       C        0.74110    0.28130    0.73670    1.000
    H2       H        0.80370    0.27950    0.71160    1.000
    C6       C        0.91270    0.66300    0.81928    1.000
    C7       C        0.67060    0.14960    0.63000    1.000
    C8       C        0.76390    0.70870    0.74640    1.000
    H3       H        0.69350    0.70330    0.74050    1.000
    C9       C        0.82130    0.76850    0.69020    1.000
    C10      C        0.92490    0.77660    0.69910    1.000
    H4       H        0.96450    0.81820    0.66150    1.000
    C11      C        0.77090    0.82390    0.62130    1.000
    C12      C        0.55530    0.29420    0.80615    1.000
    H5       H        0.49140    0.30220    0.82894    1.000
    C13      C        0.96950    0.72350    0.76320    1.000
    H6       H        0.04000    0.72850    0.76890    1.000
    C14      C        0.73260    0.34140    0.80690    1.000
    H7       H        0.78980    0.37810    0.83090    1.000
    C15      C        0.80890    0.65660    0.81110    1.000
    H8       H        0.76930    0.61700    0.84940    1.000
    O1       O        0.91540    0.51480    0.92297    1.000
    O2       O        0.70009    0.47660    0.94566    1.000
    O3       O        0.54646    0.40240    0.95199    1.000
    O4       O        0.60790    0.05960    0.61818    1.000
    O5       O        0.74110    0.18170    0.58701    1.000
    O6       O        0.81950    0.89830    0.57794    1.000
    O7       O        0.68100    0.79050    0.60982    1.000
    O8       O        0.04560    0.64930    0.90674    1.000
    C16      C        0.96200    0.60400    0.88885    1.000
    Mn3      Mn       0.15350    0.92418    0.48461    1.000
    Mn4      Mn       0.38883    0.08167    0.46811    1.000
    C17      C        0.37200    0.91150    0.58288    1.000
    C18      C        0.36040    0.84760    0.65802    1.000
    C19      C        0.43460    0.73010    0.76220    1.000
    H9       H        0.49100    0.69020    0.78540    1.000
    C20      C        0.34200    0.72370    0.79713    1.000
    C21      C        0.25890    0.78130    0.76330    1.000
    H10      H        0.19630    0.77950    0.78840    1.000
    C22      C        0.08730    0.16300    0.68072    1.000
    C23      C        0.32940    0.64960    0.87000    1.000
    C24      C        0.23610    0.20870    0.75360    1.000
    H11      H        0.30650    0.20330    0.75950    1.000
    C25      C        0.17870    0.26850    0.80980    1.000
    C26      C        0.07510    0.27660    0.80090    1.000
    H12      H        0.03550    0.31820    0.83850    1.000
    C27      C        0.22910    0.32390    0.87870    1.000
    C28      C        0.44470    0.79420    0.69385    1.000
    H13      H        0.50860    0.80220    0.67106    1.000
    C29      C        0.03050    0.22350    0.73680    1.000
    H14      H        0.96000    0.22850    0.73110    1.000
    C30      C        0.26740    0.84140    0.69310    1.000
    H15      H        0.21020    0.87810    0.66910    1.000
    C31      C        0.19110    0.15660    0.68890    1.000
    H16      H        0.23070    0.11700    0.65060    1.000
    O9       O        0.08460    0.01480    0.57703    1.000
    O10      O        0.29991    0.97660    0.55434    1.000
    O11      O        0.45354    0.90240    0.54801    1.000
    O12      O        0.39210    0.55960    0.88182    1.000
    O13      O        0.25890    0.68170    0.91299    1.000
    O14      O        0.18050    0.39830    0.92206    1.000
    O15      O        0.31900    0.29050    0.89018    1.000
    O16      O        0.95440    0.14930    0.59326    1.000
    C32      C        0.03800    0.10400    0.61115    1.000
    Mn5      Mn       0.15350    0.57582    0.98461    1.000
    Mn6      Mn       0.38883    0.41833    0.96811    1.000
    C33      C        0.37200    0.58850    0.08288    1.000
    C34      C        0.36040    0.65240    0.15802    1.000
    C35      C        0.43460    0.76990    0.26220    1.000
    H17      H        0.49100    0.80980    0.28540    1.000
    C36      C        0.34200    0.77630    0.29713    1.000
    C37      C        0.25890    0.71870    0.26330    1.000
    H18      H        0.19630    0.72050    0.28840    1.000
    C38      C        0.08730    0.33700    0.18072    1.000
    C39      C        0.32940    0.85040    0.37000    1.000
    C40      C        0.23610    0.29130    0.25360    1.000
    H19      H        0.30650    0.29670    0.25950    1.000
    C41      C        0.17870    0.23150    0.30980    1.000
    C42      C        0.07510    0.22340    0.30090    1.000
    H20      H        0.03550    0.18180    0.33850    1.000
    C43      C        0.22910    0.17610    0.37870    1.000
    C44      C        0.44470    0.70580    0.19385    1.000
    H21      H        0.50860    0.69780    0.17106    1.000
    C45      C        0.03050    0.27650    0.23680    1.000
    H22      H        0.96000    0.27150    0.23110    1.000
    C46      C        0.26740    0.65860    0.19310    1.000
    H23      H        0.21020    0.62190    0.16910    1.000
    C47      C        0.19110    0.34340    0.18890    1.000
    H24      H        0.23070    0.38300    0.15060    1.000
    O17      O        0.08460    0.48520    0.07703    1.000
    O18      O        0.29991    0.52340    0.05434    1.000
    O19      O        0.45354    0.59760    0.04801    1.000
    O20      O        0.39210    0.94040    0.38182    1.000
    O21      O        0.25890    0.81830    0.41299    1.000
    O22      O        0.18050    0.10170    0.42206    1.000
    O23      O        0.31900    0.20950    0.39018    1.000
    O24      O        0.95440    0.35070    0.09326    1.000
    C48      C        0.03800    0.39600    0.11115    1.000
    Mn7      Mn       0.84650    0.07582    0.51539    1.000
    Mn8      Mn       0.61117    0.91833    0.53189    1.000
    C49      C        0.62800    0.08850    0.41712    1.000
    C50      C        0.63960    0.15240    0.34198    1.000
    C51      C        0.56540    0.26990    0.23780    1.000
    H25      H        0.50900    0.30980    0.21460    1.000
    C52      C        0.65800    0.27630    0.20287    1.000
    C53      C        0.74110    0.21870    0.23670    1.000
    H26      H        0.80370    0.22050    0.21160    1.000
    C54      C        0.91270    0.83700    0.31928    1.000
    C55      C        0.67060    0.35040    0.13000    1.000
    C56      C        0.76390    0.79130    0.24640    1.000
    H27      H        0.69350    0.79670    0.24050    1.000
    C57      C        0.82130    0.73150    0.19020    1.000
    C58      C        0.92490    0.72340    0.19910    1.000
    H28      H        0.96450    0.68180    0.16150    1.000
    C59      C        0.77090    0.67610    0.12130    1.000
    C60      C        0.55530    0.20580    0.30615    1.000
    H29      H        0.49140    0.19780    0.32894    1.000
    C61      C        0.96950    0.77650    0.26320    1.000
    H30      H        0.04000    0.77150    0.26890    1.000
    C62      C        0.73260    0.15860    0.30690    1.000
    H31      H        0.78980    0.12190    0.33090    1.000
    C63      C        0.80890    0.84340    0.31110    1.000
    H32      H        0.76930    0.88300    0.34940    1.000
    O25      O        0.91540    0.98520    0.42297    1.000
    O26      O        0.70009    0.02340    0.44566    1.000
    O27      O        0.54646    0.09760    0.45199    1.000
    O28      O        0.60790    0.44040    0.11818    1.000
    O29      O        0.74110    0.31830    0.08701    1.000
    O30      O        0.81950    0.60170    0.07794    1.000
    O31      O        0.68100    0.70950    0.10982    1.000
    O32      O        0.04560    0.85070    0.40674    1.000
    C64      C        0.96200    0.89600    0.38885    1.000
