# CIF file generated by openbabel 3.1.0, see https://openbabel.org
data_I
_chemical_name_common 'GEVXAI_clean'
_cell_length_a 7.1849
_cell_length_b 10.7329
_cell_length_c 17.1753
_cell_angle_alpha 97.16
_cell_angle_beta 90
_cell_angle_gamma 90
_space_group_name_H-M_alt 'P 1'
_space_group_name_Hall 'P 1'
loop_
    _symmetry_equiv_pos_as_xyz
    x,y,z
loop_
    _atom_site_label
    _atom_site_type_symbol
    _atom_site_fract_x
    _atom_site_fract_y
    _atom_site_fract_z
    _atom_site_occupancy
    Gd1      Gd       0.02004    0.82501    0.75316    1.000
    Gd2      Gd       0.52004    0.67499    0.74684    1.000
    Gd3      Gd       0.97996    0.17499    0.24684    1.000
    Gd4      Gd       0.47996    0.32501    0.25316    1.000
    H1       H        0.31700    0.50700    0.48060    1.000
    H2       H        0.96600    0.19000    0.56000    1.000
    H3       H        0.65100    0.83300    0.55180    1.000
    H4       H        0.81700    0.99300    0.01940    1.000
    H5       H        0.46600    0.31000    0.94000    1.000
    H6       H        0.15100    0.66700    0.94820    1.000
    H7       H        0.68300    0.49300    0.51940    1.000
    H8       H        0.03400    0.81000    0.44000    1.000
    H9       H        0.34900    0.16700    0.44820    1.000
    H10      H        0.18300    0.00700    0.98060    1.000
    H11      H        0.53400    0.69000    0.06000    1.000
    H12      H        0.84900    0.33300    0.05180    1.000
    C1       C        0.25170    0.59440    0.62557    1.000
    C2       C        0.11770    0.54790    0.56187    1.000
    C3       C        0.92580    0.54230    0.57337    1.000
    C4       C        0.82690    0.58400    0.64871    1.000
    C5       C        0.18990    0.50560    0.48818    1.000
    C6       C        0.35250    0.89150    0.63405    1.000
    C7       C        0.42840    0.95270    0.56655    1.000
    C8       C        0.34120    0.05370    0.53695    1.000
    C9       C        0.18140    0.12200    0.57921    1.000
    C10      C        0.58820    0.90100    0.52949    1.000
    C11      C        0.75170    0.90560    0.87443    1.000
    C12      C        0.61770    0.95210    0.93813    1.000
    C13      C        0.42580    0.95770    0.92663    1.000
    C14      C        0.32690    0.91600    0.85129    1.000
    C15      C        0.68990    0.99440    0.01182    1.000
    C16      C        0.85250    0.60850    0.86595    1.000
    C17      C        0.92840    0.54730    0.93345    1.000
    C18      C        0.84120    0.44630    0.96305    1.000
    C19      C        0.68140    0.37800    0.92079    1.000
    C20      C        0.08820    0.59900    0.97051    1.000
    C21      C        0.74830    0.40560    0.37443    1.000
    C22      C        0.88230    0.45210    0.43813    1.000
    C23      C        0.07420    0.45770    0.42663    1.000
    C24      C        0.17310    0.41600    0.35129    1.000
    C25      C        0.81010    0.49440    0.51182    1.000
    C26      C        0.64750    0.10850    0.36595    1.000
    C27      C        0.57160    0.04730    0.43345    1.000
    C28      C        0.65880    0.94630    0.46305    1.000
    C29      C        0.81860    0.87800    0.42079    1.000
    C30      C        0.41180    0.09900    0.47051    1.000
    C31      C        0.24830    0.09440    0.12557    1.000
    C32      C        0.38230    0.04790    0.06187    1.000
    C33      C        0.57420    0.04230    0.07337    1.000
    C34      C        0.67310    0.08400    0.14871    1.000
    C35      C        0.31010    0.00560    0.98818    1.000
    C36      C        0.14750    0.39150    0.13405    1.000
    C37      C        0.07160    0.45270    0.06655    1.000
    C38      C        0.15880    0.55370    0.03695    1.000
    C39      C        0.31860    0.62200    0.07921    1.000
    C40      C        0.91180    0.40100    0.02949    1.000
    O1       O        0.18940    0.64428    0.69223    1.000
    O2       O        0.42100    0.58290    0.61371    1.000
    O3       O        0.80810    0.70276    0.67043    1.000
    O4       O        0.74770    0.50604    0.68465    1.000
    O5       O        0.17890    0.88757    0.64288    1.000
    O6       O        0.46880    0.84507    0.67622    1.000
    O7       O        0.18240    0.15350    0.64992    1.000
    O8       O        0.04740    0.14840    0.53301    1.000
    O9       O        0.68940    0.85572    0.80777    1.000
    O10      O        0.92100    0.91710    0.88629    1.000
    O11      O        0.30810    0.79724    0.82957    1.000
    O12      O        0.24770    0.99396    0.81535    1.000
    O13      O        0.67890    0.61243    0.85712    1.000
    O14      O        0.96880    0.65493    0.82378    1.000
    O15      O        0.68240    0.34650    0.85008    1.000
    O16      O        0.54740    0.35160    0.96699    1.000
    O17      O        0.81060    0.35572    0.30777    1.000
    O18      O        0.57900    0.41710    0.38629    1.000
    O19      O        0.19190    0.29724    0.32957    1.000
    O20      O        0.25230    0.49396    0.31535    1.000
    O21      O        0.82110    0.11243    0.35712    1.000
    O22      O        0.53120    0.15493    0.32378    1.000
    O23      O        0.81760    0.84650    0.35008    1.000
    O24      O        0.95260    0.85160    0.46699    1.000
    O25      O        0.31060    0.14428    0.19223    1.000
    O26      O        0.07900    0.08290    0.11371    1.000
    O27      O        0.69190    0.20276    0.17043    1.000
    O28      O        0.75230    0.00604    0.18465    1.000
    O29      O        0.32110    0.38757    0.14288    1.000
    O30      O        0.03120    0.34507    0.17622    1.000
    O31      O        0.31760    0.65350    0.14992    1.000
    O32      O        0.45260    0.64840    0.03301    1.000
