data_functionalizedCrystal
_audit_creation_method	'EQeq! by Chris Wilmer'
_symmetry_space_group_name_H-M	'P1'
_symmetry_Int_Tables_number	1
_symmetry_cell_setting	triclinic
loop_
_symmetry_equiv_pos_as_xyz
  x,y,z
_cell_length_a	9.749
_cell_length_b	10.658
_cell_length_c	16.414
_cell_angle_alpha	74.83
_cell_angle_beta	82.72
_cell_angle_gamma	63.98
loop_
_atom_site_label
_atom_site_type_symbol
_atom_site_fract_x
_atom_site_fract_y
_atom_site_fract_z
_atom_site_charge
Mof_La	La	0.87616	0.03108	0.12561	2.029
Mof_La	La	0.62951	0.98236	0.3759	2.232
Mof_O 	O 	0.4148	0.1069	0.2655	-0.493
Mof_O 	O 	0.6273	0.1011	0.2028	-0.625
Mof_O 	O 	0.0941	0.8716	0.0468	-0.63
Mof_O 	O 	0.2729	0.7271	0.9769	-0.51
Mof_O 	O 	0.7114	0.8	0.2918	-0.584
Mof_O 	O 	0.8644	0.7924	0.1791	-0.56
Mof_O 	O 	0.708	0.1264	0.4607	-0.442
Mof_O 	O 	0.6226	0.2371	0.3328	-0.452
Mof_O 	O 	0.8854	0.9514	0.3141	-0.588
Mof_O 	O 	0.0901	0.8901	0.2345	-0.475
Mof_O 	O 	0.2012	0.2541	0.5245	-0.498
Mof_O 	O 	0.3929	0.1252	0.4538	-0.626
Mof_O 	O 	0.0817	0.1324	0.0922	-0.833
Mof_C 	C 	0.4853	0.1427	0.2011	0.499
Mof_C 	C 	0.398	0.2407	0.1222	-0.427
Mof_H 	H 	0.4686	0.2439	0.0753	0.13
Mof_H 	H 	0.3305	0.2045	0.1082	0.148
Mof_C 	C 	0.3072	0.3873	0.1372	0.046
Mof_H 	H 	0.2139	0.4053	0.1653	0.001
Mof_C 	C 	0.3485	0.4915	0.114	0.02
Mof_H 	H 	0.4431	0.4727	0.0873	0.027
Mof_C 	C 	0.2557	0.6403	0.127	-0.414
Mof_H 	H 	0.1664	0.6424	0.1612	0.146
Mof_H 	H 	0.3159	0.6645	0.1578	0.146
Mof_C 	C 	0.2054	0.7511	0.0457	0.475
Mof_C 	C 	0.8038	0.7361	0.2423	0.605
Mof_C 	C 	0.843	0.5802	0.2516	-0.545
Mof_H 	H 	0.8036	0.5707	0.2032	0.174
Mof_H 	H 	0.9532	0.5282	0.25	0.179
Mof_C 	C 	0.7839	0.5104	0.3297	0.161
Mof_H 	H 	0.8295	0.4996	0.379	-0.026
Mof_C 	C 	0.6877	0.4654	0.3404	-0.099
Mof_H 	H 	0.6329	0.4874	0.2922	0.061
Mof_C 	C 	0.6401	0.3808	0.4168	-0.288
Mof_H 	H 	0.534	0.436	0.4303	0.102
Mof_H 	H 	0.7012	0.3629	0.4643	0.109
Mof_C 	C 	0.6591	0.2399	0.4027	0.374
Mof_C 	C 	0.0242	0.8762	0.3058	0.508
Mof_C 	C 	0.1161	0.7659	0.3791	-0.447
Mof_H 	H 	0.0493	0.7637	0.428	0.159
Mof_H 	H 	0.1919	0.7933	0.3922	0.156
Mof_C 	C 	0.1954	0.6179	0.3619	0.05
Mof_H 	H 	0.2755	0.6008	0.3228	0.005
Mof_C 	C 	0.1586	0.5123	0.3986	0.002
Mof_H 	H 	0.0794	0.5294	0.4382	0.041
Mof_C 	C 	0.2354	0.3646	0.3811	-0.399
Mof_H 	H 	0.1682	0.3549	0.3468	0.141
Mof_H 	H 	0.3277	0.3562	0.3482	0.141
Mof_C 	C 	0.2765	0.243	0.458	0.482
Mof_H 	H 	0.037	0.207	0.057	0.319
Mof_H 	H 	0.133	0.068	0.067	0.294
Mof_La	La	0.12384	0.96892	0.87439	2.028
Mof_La	La	0.37049	0.01764	0.6241	2.231
Mof_O 	O 	0.5852	0.8931	0.7345	-0.493
Mof_O 	O 	0.3727	0.8989	0.7972	-0.625
Mof_O 	O 	0.9059	0.1284	0.9532	-0.63
Mof_O 	O 	0.7271	0.2729	0.0231	-0.51
Mof_O 	O 	0.2886	0.2	0.7082	-0.584
Mof_O 	O 	0.1356	0.2076	0.8209	-0.56
Mof_O 	O 	0.292	0.8736	0.5393	-0.442
Mof_O 	O 	0.3774	0.7629	0.6672	-0.452
Mof_O 	O 	0.1146	0.0486	0.6859	-0.588
Mof_O 	O 	0.9099	0.1099	0.7655	-0.475
Mof_O 	O 	0.7988	0.7459	0.4755	-0.498
Mof_O 	O 	0.6071	0.8748	0.5462	-0.626
Mof_O 	O 	0.9183	0.8676	0.9078	-0.833
Mof_C 	C 	0.5147	0.8573	0.7989	0.499
Mof_C 	C 	0.602	0.7593	0.8778	-0.427
Mof_H 	H 	0.5314	0.7561	0.9247	0.13
Mof_H 	H 	0.6695	0.7955	0.8918	0.148
Mof_C 	C 	0.6928	0.6127	0.8628	0.046
Mof_H 	H 	0.7861	0.5947	0.8347	0.001
Mof_C 	C 	0.6515	0.5085	0.886	0.02
Mof_H 	H 	0.5569	0.5273	0.9127	0.027
Mof_C 	C 	0.7443	0.3597	0.873	-0.414
Mof_H 	H 	0.8336	0.3576	0.8388	0.146
Mof_H 	H 	0.6841	0.3355	0.8422	0.146
Mof_C 	C 	0.7946	0.2489	0.9543	0.475
Mof_C 	C 	0.1962	0.2639	0.7577	0.605
Mof_C 	C 	0.157	0.4198	0.7484	-0.545
Mof_H 	H 	0.1964	0.4293	0.7968	0.174
Mof_H 	H 	0.0468	0.4718	0.75	0.179
Mof_C 	C 	0.2161	0.4896	0.6703	0.161
Mof_H 	H 	0.1705	0.5004	0.621	-0.026
Mof_C 	C 	0.3123	0.5346	0.6596	-0.099
Mof_H 	H 	0.3671	0.5126	0.7078	0.061
Mof_C 	C 	0.3599	0.6192	0.5832	-0.288
Mof_H 	H 	0.466	0.564	0.5697	0.102
Mof_H 	H 	0.2988	0.6371	0.5357	0.109
Mof_C 	C 	0.3409	0.7601	0.5973	0.374
Mof_C 	C 	0.9758	0.1238	0.6942	0.508
Mof_C 	C 	0.8839	0.2341	0.6209	-0.447
Mof_H 	H 	0.9507	0.2363	0.572	0.159
Mof_H 	H 	0.8081	0.2067	0.6078	0.156
Mof_C 	C 	0.8046	0.3821	0.6381	0.05
Mof_H 	H 	0.7245	0.3992	0.6772	0.005
Mof_C 	C 	0.8414	0.4877	0.6014	0.002
Mof_H 	H 	0.9206	0.4706	0.5618	0.041
Mof_C 	C 	0.7646	0.6354	0.6189	-0.399
Mof_H 	H 	0.8318	0.6451	0.6532	0.141
Mof_H 	H 	0.6723	0.6438	0.6518	0.141
Mof_C 	C 	0.7235	0.757	0.542	0.482
Mof_H 	H 	0.963	0.793	0.943	0.319
Mof_H 	H 	0.867	0.932	0.933	0.294
_end
