data_functionalizedCrystal
_audit_creation_method	'EQeq! by Chris Wilmer'
_symmetry_space_group_name_H-M	'P1'
_symmetry_Int_Tables_number	1
_symmetry_cell_setting	triclinic
loop_
_symmetry_equiv_pos_as_xyz
  x,y,z
_cell_length_a	12.997
_cell_length_b	13.106
_cell_length_c	17.213
_cell_angle_alpha	93.895
_cell_angle_beta	107.639
_cell_angle_gamma	95.018
loop_
_atom_site_label
_atom_site_type_symbol
_atom_site_fract_x
_atom_site_fract_y
_atom_site_fract_z
_atom_site_charge
Mof_C 	C 	0.1724	0.5964	0.5792	0.097
Mof_H 	H 	0.1194	0.5402	0.5603	-0.001
Mof_C 	C 	0.2507	0.5957	0.6547	-0.171
Mof_H 	H 	0.2481	0.5414	0.6863	0.099
Mof_C 	C 	0.3323	0.6766	0.6825	0.116
Mof_C 	C 	0.3292	0.7583	0.6343	-0.169
Mof_H 	H 	0.382	0.8148	0.6517	0.094
Mof_C 	C 	0.247	0.7549	0.5604	0.095
Mof_H 	H 	0.2452	0.8102	0.5292	-0.005
Mof_C 	C 	0.4246	0.674	0.7599	-0.064
Mof_C 	C 	0.5265	0.6543	0.7536	0.026
Mof_C 	C 	0.5453	0.6295	0.6768	-0.072
Mof_H 	H 	0.488	0.6266	0.6284	0.06
Mof_C 	C 	0.6437	0.6102	0.6731	-0.023
Mof_H 	H 	0.6533	0.5936	0.6225	0.039
Mof_C 	C 	0.7327	0.6148	0.7452	-0.026
Mof_H 	H 	0.8009	0.6034	0.7417	0.047
Mof_C 	C 	0.7195	0.6357	0.8199	-0.073
Mof_H 	H 	0.7789	0.6381	0.8668	0.061
Mof_C 	C 	0.6169	0.654	0.8274	0.029
Mof_C 	C 	0.5986	0.6705	0.9043	-0.073
Mof_C 	C 	0.4965	0.6868	0.9102	0.028
Mof_C 	C 	0.4768	0.7036	0.9873	-0.075
Mof_H 	H 	0.5335	0.7026	0.0356	0.058
Mof_C 	C 	0.3762	0.7212	0.9914	-0.033
Mof_H 	H 	0.3654	0.7324	0.0421	0.038
Mof_C 	C 	0.2887	0.7225	0.919	-0.025
Mof_H 	H 	0.2202	0.7329	0.9222	0.038
Mof_C 	C 	0.3044	0.7084	0.8443	-0.076
Mof_H 	H 	0.2463	0.7111	0.7973	0.066
Mof_C 	C 	0.407	0.6898	0.8363	0.026
Mof_C 	C 	0.6918	0.6663	0.9806	0.135
Mof_C 	C 	0.7646	0.7514	0.0142	-0.193
Mof_H 	H 	0.7569	0.8127	0.9899	0.1
Mof_C 	C 	0.8509	0.7456	0.0852	0.114
Mof_H 	H 	0.8996	0.8043	0.1073	-0.015
Mof_C 	C 	0.7941	0.5785	0.0899	0.103
Mof_H 	H 	0.8028	0.5182	0.1156	-0.009
Mof_C 	C 	0.7069	0.5796	0.0196	-0.19
Mof_H 	H 	0.6584	0.5205	0.9991	0.1
Mof_C 	C 	0.0063	0.4668	0.3116	0.374
Mof_C 	C 	0.0067	0.3519	0.3029	-0.081
Mof_C 	C 	0.9797	0.2982	0.2242	0.007
Mof_H 	H 	0.9609	0.334	0.178	0.038
Mof_C 	C 	0.9811	0.1934	0.2153	-0.087
Mof_H 	H 	0.963	0.1589	0.1631	0.06
Mof_C 	C 	0.0095	0.1374	0.2845	0.023
Mof_C 	C 	0.0371	0.1914	0.364	0.032
Mof_C 	C 	0.0352	0.299	0.3715	-0.047
Mof_H 	H 	0.0534	0.3346	0.4233	0.067
Mof_C 	C 	0.0657	0.1345	0.4339	-0.096
Mof_H 	H 	0.0828	0.1687	0.4861	0.076
Mof_C 	C 	0.0682	0.0311	0.425	0.014
Mof_H 	H 	0.0887	0.9955	0.4713	0.043
Mof_C 	C 	0.0397	0.9765	0.3457	-0.079
Mof_C 	C 	0.011	0.0294	0.277	-0.038
Mof_H 	H 	0.9925	0.9936	0.2253	0.058
Mof_C 	C 	0.8388	0.6619	0.3584	0.364
Mof_C 	C 	0.036	0.8617	0.3372	0.375
Mof_C 	C 	0.2029	0.6658	0.2948	0.386
Mof_C 	C 	0.3179	0.663	0.2927	-0.075
Mof_C 	C 	0.4003	0.6638	0.3643	-0.045
Mof_H 	H 	0.3847	0.6659	0.4136	0.06
Mof_C 	C 	0.5088	0.6615	0.3647	0.035
Mof_C 	C 	0.5311	0.6585	0.2885	0.013
Mof_C 	C 	0.4426	0.6441	0.2142	-0.038
Mof_H 	H 	0.4557	0.6322	0.1644	0.034
Mof_C 	C 	0.3385	0.6477	0.2162	-0.009
Mof_H 	H 	0.2811	0.6402	0.1675	0.032
Mof_C 	C 	0.6407	0.6596	0.2895	-0.031
Mof_H 	H 	0.6563	0.659	0.2402	0.055
Mof_C 	C 	0.724	0.6615	0.3607	-0.086
Mof_C 	C 	0.7006	0.6605	0.4358	0.017
Mof_H 	H 	0.7566	0.6597	0.4844	0.038
Mof_C 	C 	0.5957	0.6608	0.4371	-0.096
Mof_H 	H 	0.5816	0.6605	0.4869	0.064
Mof_N 	N 	0.1698	0.6744	0.53253	-0.259
Mof_N 	N 	0.8664	0.6616	0.12213	-0.265
Mof_O 	O 	0.04028	0.51202	0.38323	-0.46
Mof_O 	O 	0.9728	0.5094	0.24681	-0.462
Mof_O 	O 	0.1292	0.6621	0.22784	-0.45
Mof_O 	O 	0.18916	0.6719	0.36329	-0.475
Mof_O 	O 	0.0072	0.8166	0.26552	-0.454
Mof_O 	O 	0.0608	0.8184	0.40261	-0.458
Mof_O 	O 	0.85234	0.6658	0.28917	-0.462
Mof_O 	O 	0.91283	0.65948	0.42541	-0.446
Mof_Zn	Zn	0.97565	0.66275	0.23558	1.216
Mof_Zn	Zn	0.06664	0.66628	0.41677	1.216
Mof_C 	C 	0.4495	0.687	0.2196	-0.032
Mof_H 	H 	0.4679	0.7057	0.1739	0.031
Mof_C 	C 	0.3445	0.687	0.2202	-0.001
Mof_H 	H 	0.2909	0.7026	0.1743	0.026
Mof_C 	C 	0.8276	0.4036	0.4208	0.098
Mof_H 	H 	0.8806	0.4598	0.4397	-0
Mof_C 	C 	0.7493	0.4043	0.3453	-0.17
Mof_H 	H 	0.7519	0.4586	0.3137	0.1
Mof_C 	C 	0.6677	0.3234	0.3175	0.116
Mof_C 	C 	0.6708	0.2417	0.3657	-0.169
Mof_H 	H 	0.618	0.1852	0.3483	0.094
Mof_C 	C 	0.753	0.2451	0.4396	0.095
Mof_H 	H 	0.7548	0.1898	0.4708	-0.005
Mof_C 	C 	0.5754	0.326	0.2401	-0.064
Mof_C 	C 	0.4735	0.3457	0.2464	0.026
Mof_C 	C 	0.4547	0.3705	0.3232	-0.072
Mof_H 	H 	0.512	0.3734	0.3716	0.06
Mof_C 	C 	0.3563	0.3898	0.3269	-0.023
Mof_H 	H 	0.3467	0.4064	0.3775	0.039
Mof_C 	C 	0.2673	0.3852	0.2548	-0.026
Mof_H 	H 	0.1991	0.3966	0.2583	0.047
Mof_C 	C 	0.2805	0.3643	0.1801	-0.073
Mof_H 	H 	0.2211	0.3619	0.1332	0.061
Mof_C 	C 	0.3831	0.346	0.1726	0.029
Mof_C 	C 	0.4014	0.3295	0.0957	-0.073
Mof_C 	C 	0.5035	0.3132	0.0898	0.028
Mof_C 	C 	0.5232	0.2964	0.0127	-0.075
Mof_H 	H 	0.4665	0.2974	0.9644	0.058
Mof_C 	C 	0.6238	0.2788	0.0086	-0.033
Mof_H 	H 	0.6346	0.2676	0.9579	0.038
Mof_C 	C 	0.7113	0.2775	0.081	-0.025
Mof_H 	H 	0.7798	0.2671	0.0778	0.038
Mof_C 	C 	0.6956	0.2916	0.1557	-0.076
Mof_H 	H 	0.7537	0.2889	0.2027	0.066
Mof_C 	C 	0.593	0.3102	0.1637	0.026
Mof_C 	C 	0.3082	0.3337	0.0194	0.135
Mof_C 	C 	0.2354	0.2486	0.9858	-0.193
Mof_H 	H 	0.2431	0.1873	0.0101	0.1
Mof_C 	C 	0.1491	0.2544	0.9148	0.114
Mof_H 	H 	0.1004	0.1957	0.8927	-0.015
Mof_C 	C 	0.2059	0.4215	0.9101	0.103
Mof_H 	H 	0.1972	0.4818	0.8844	-0.009
Mof_C 	C 	0.2931	0.4204	0.9804	-0.19
Mof_H 	H 	0.3416	0.4795	0.0009	0.1
Mof_C 	C 	0.9937	0.5332	0.6884	0.374
Mof_C 	C 	0.9933	0.6481	0.6971	-0.081
Mof_C 	C 	0.0203	0.7018	0.7758	0.007
Mof_H 	H 	0.0391	0.666	0.822	0.038
Mof_C 	C 	0.0189	0.8066	0.7847	-0.087
Mof_H 	H 	0.037	0.8411	0.8369	0.06
Mof_C 	C 	0.9905	0.8626	0.7155	0.023
Mof_C 	C 	0.9629	0.8086	0.636	0.032
Mof_C 	C 	0.9648	0.701	0.6285	-0.047
Mof_H 	H 	0.9466	0.6654	0.5767	0.067
Mof_C 	C 	0.9343	0.8655	0.5661	-0.096
Mof_H 	H 	0.9172	0.8313	0.5139	0.076
Mof_C 	C 	0.9318	0.9689	0.575	0.014
Mof_H 	H 	0.9113	0.0045	0.5287	0.043
Mof_C 	C 	0.9603	0.0235	0.6543	-0.079
Mof_C 	C 	0.989	0.9706	0.723	-0.038
Mof_H 	H 	0.0075	0.0064	0.7747	0.058
Mof_C 	C 	0.1612	0.3381	0.6416	0.364
Mof_C 	C 	0.964	0.1383	0.6628	0.375
Mof_C 	C 	0.7971	0.3342	0.7052	0.386
Mof_C 	C 	0.6821	0.337	0.7073	-0.075
Mof_C 	C 	0.5997	0.3362	0.6357	-0.045
Mof_H 	H 	0.6153	0.3341	0.5864	0.06
Mof_C 	C 	0.4912	0.3385	0.6353	0.035
Mof_C 	C 	0.4689	0.3415	0.7115	0.013
Mof_C 	C 	0.5574	0.3559	0.7858	-0.038
Mof_H 	H 	0.5443	0.3678	0.8356	0.034
Mof_C 	C 	0.6615	0.3523	0.7838	-0.009
Mof_H 	H 	0.7189	0.3598	0.8325	0.032
Mof_C 	C 	0.3593	0.3404	0.7105	-0.031
Mof_H 	H 	0.3437	0.341	0.7598	0.055
Mof_C 	C 	0.276	0.3385	0.6393	-0.086
Mof_C 	C 	0.2994	0.3395	0.5642	0.017
Mof_H 	H 	0.2434	0.3403	0.5156	0.038
Mof_C 	C 	0.4043	0.3392	0.5629	-0.096
Mof_H 	H 	0.4184	0.3395	0.5131	0.064
Mof_N 	N 	0.8302	0.3256	0.46747	-0.259
Mof_N 	N 	0.1336	0.3384	0.87787	-0.265
Mof_O 	O 	0.95972	0.48798	0.61677	-0.46
Mof_O 	O 	0.0272	0.4906	0.75319	-0.462
Mof_O 	O 	0.8708	0.3379	0.77216	-0.45
Mof_O 	O 	0.81084	0.3281	0.63671	-0.475
Mof_O 	O 	0.9928	0.1834	0.73448	-0.454
Mof_O 	O 	0.9392	0.1816	0.59739	-0.458
Mof_O 	O 	0.14766	0.3342	0.71083	-0.462
Mof_O 	O 	0.08717	0.34052	0.57459	-0.446
Mof_Zn	Zn	0.02435	0.33725	0.76442	1.216
Mof_Zn	Zn	0.93336	0.33372	0.58323	1.216
Mof_C 	C 	0.5505	0.313	0.7804	-0.032
Mof_H 	H 	0.5321	0.2943	0.8261	0.031
Mof_C 	C 	0.6555	0.313	0.7798	-0.001
Mof_H 	H 	0.7091	0.2974	0.8257	0.026
_end
