# CIF file generated by openbabel 3.1.0, see https://openbabel.org
data_I
_chemical_name_common 'image0'
_cell_length_a 9.761
_cell_length_b 10.645
_cell_length_c 10.956
_cell_angle_alpha 63.331
_cell_angle_beta 65.969
_cell_angle_gamma 67.128
_space_group_name_H-M_alt 'P 1'
_space_group_name_Hall 'P 1'
loop_
    _symmetry_equiv_pos_as_xyz
    x,y,z
loop_
    _atom_site_label
    _atom_site_type_symbol
    _atom_site_fract_x
    _atom_site_fract_y
    _atom_site_fract_z
    _atom_site_occupancy
    Nd1      Nd       0.71421    0.99232    0.49249    1.000
    O1       O        0.57010    0.16240    0.62570    1.000
    O2       O        0.40230    0.12460    0.56720    1.000
    O3       O        0.91490    0.80570    0.58870    1.000
    O4       O        0.11290    0.85840    0.59040    1.000
    O5       O        0.62840    0.18810    0.29350    1.000
    O6       O        0.41310    0.16660    0.28550    1.000
    C1       C        0.43880    0.19940    0.60740    1.000
    C2       C        0.32720    0.33880    0.62490    1.000
    C3       C        0.37840    0.42980    0.64720    1.000
    H1       H        0.47600    0.39740    0.66540    1.000
    C4       C        0.28540    0.56900    0.64280    1.000
    H2       H        0.32130    0.63220    0.65560    1.000
    C5       C        0.14110    0.61620    0.62010    1.000
    C6       C        0.08560    0.52000    0.60830    1.000
    H3       H        0.98400    0.54880    0.59940    1.000
    C7       C        0.18000    0.38150    0.60980    1.000
    H4       H        0.14310    0.31680    0.60030    1.000
    C8       C        0.04930    0.77150    0.59910    1.000
    C9       C        0.51620    0.23170    0.24230    1.000
    C10      C        0.50820    0.37180    0.11630    1.000
    C11      C        0.38020    0.43140    0.06380    1.000
    H5       H        0.29800    0.38480    0.10790    1.000
    C12      C        0.62730    0.44120    0.05270    1.000
    H6       H        0.71420    0.40130    0.08920    1.000
    Nd2      Nd       0.28579    0.00768    0.50751    1.000
    O7       O        0.42990    0.83760    0.37430    1.000
    O8       O        0.59770    0.87540    0.43280    1.000
    O9       O        0.08510    0.19430    0.41130    1.000
    O10      O        0.88710    0.14160    0.40960    1.000
    O11      O        0.37160    0.81190    0.70650    1.000
    O12      O        0.58690    0.83340    0.71450    1.000
    C13      C        0.56120    0.80060    0.39260    1.000
    C14      C        0.67280    0.66120    0.37510    1.000
    C15      C        0.62160    0.57020    0.35280    1.000
    H7       H        0.52400    0.60260    0.33460    1.000
    C16      C        0.71460    0.43100    0.35720    1.000
    H8       H        0.67870    0.36780    0.34440    1.000
    C17      C        0.85890    0.38380    0.37990    1.000
    C18      C        0.91440    0.48000    0.39170    1.000
    H9       H        0.01600    0.45120    0.40060    1.000
    C19      C        0.82000    0.61850    0.39020    1.000
    H10      H        0.85690    0.68320    0.39970    1.000
    C20      C        0.95070    0.22850    0.40090    1.000
    C21      C        0.48380    0.76830    0.75770    1.000
    C22      C        0.49180    0.62820    0.88370    1.000
    C23      C        0.61980    0.56860    0.93620    1.000
    H11      H        0.70200    0.61520    0.89210    1.000
    C24      C        0.37270    0.55880    0.94730    1.000
    H12      H        0.28580    0.59870    0.91080    1.000
