data_functionalizedCrystal
_audit_creation_method	'EQeq! by Chris Wilmer'
_symmetry_space_group_name_H-M	'P1'
_symmetry_Int_Tables_number	1
_symmetry_cell_setting	triclinic
loop_
_symmetry_equiv_pos_as_xyz
  x,y,z
_cell_length_a	9.8162
_cell_length_b	23.284
_cell_length_c	8.9306
_cell_angle_alpha	90
_cell_angle_beta	90
_cell_angle_gamma	90
loop_
_atom_site_label
_atom_site_type_symbol
_atom_site_fract_x
_atom_site_fract_y
_atom_site_fract_z
_atom_site_charge
Mof_Zn	Zn	0.44051	0.54696	0.21892	1.237
Mof_P 	P 	0.28715	0.49715	0.93735	0.479
Mof_H 	H 	0.293	0.4549	0.019	-0.082
Mof_P 	P 	0.42532	0.68444	0.26368	0.473
Mof_H 	H 	0.536	0.7089	0.207	-0.047
Mof_O 	O 	0.3258	0.54516	0.043	-0.45
Mof_O 	O 	0.1418	0.50339	0.8815	-0.418
Mof_O 	O 	0.3864	0.49118	0.8094	-0.459
Mof_O 	O 	0.4652	0.62308	0.2973	-0.435
Mof_O 	O 	0.3138	0.68794	0.1471	-0.467
Mof_O 	O 	0.3969	0.71573	0.4069	-0.455
Mof_Zn	Zn	0.05949	0.95304	0.21892	1.238
Mof_P 	P 	0.21285	0.00285	0.93735	0.478
Mof_H 	H 	0.207	0.0451	0.019	-0.079
Mof_P 	P 	0.07468	0.81556	0.26368	0.473
Mof_H 	H 	0.964	0.7911	0.207	-0.046
Mof_O 	O 	0.1742	0.95484	0.043	-0.45
Mof_O 	O 	0.3582	0.99661	0.8815	-0.417
Mof_O 	O 	0.1136	0.00882	0.8094	-0.458
Mof_O 	O 	0.0348	0.87692	0.2973	-0.435
Mof_O 	O 	0.1862	0.81206	0.1471	-0.467
Mof_O 	O 	0.1031	0.78427	0.4069	-0.455
Mof_Zn	Zn	0.55949	0.04696	0.28108	1.238
Mof_P 	P 	0.71285	0.99715	0.56265	0.48
Mof_H 	H 	0.707	0.9549	0.481	-0.081
Mof_P 	P 	0.57468	0.18444	0.23632	0.474
Mof_H 	H 	0.464	0.2089	0.293	-0.046
Mof_O 	O 	0.6742	0.04516	0.457	-0.448
Mof_O 	O 	0.8582	0.00339	0.6185	-0.419
Mof_O 	O 	0.6136	0.99118	0.6906	-0.459
Mof_O 	O 	0.5348	0.12308	0.2027	-0.434
Mof_O 	O 	0.6862	0.18794	0.3529	-0.465
Mof_O 	O 	0.6031	0.21573	0.0931	-0.453
Mof_Zn	Zn	0.94051	0.45304	0.28108	1.239
Mof_P 	P 	0.78715	0.50285	0.56265	0.479
Mof_H 	H 	0.793	0.5451	0.481	-0.081
Mof_P 	P 	0.92532	0.31556	0.23632	0.474
Mof_H 	H 	0.036	0.2911	0.293	-0.046
Mof_O 	O 	0.8258	0.45484	0.457	-0.448
Mof_O 	O 	0.6418	0.49661	0.6185	-0.418
Mof_O 	O 	0.8864	0.50882	0.6906	-0.459
Mof_O 	O 	0.9652	0.37692	0.2027	-0.434
Mof_O 	O 	0.8138	0.31206	0.3529	-0.465
Mof_O 	O 	0.8969	0.28427	0.0931	-0.453
Mof_Zn	Zn	0.55949	0.45304	0.78108	1.238
Mof_P 	P 	0.71285	0.50285	0.06265	0.48
Mof_H 	H 	0.707	0.5451	0.981	-0.081
Mof_P 	P 	0.57468	0.31556	0.73632	0.474
Mof_H 	H 	0.464	0.2911	0.793	-0.047
Mof_O 	O 	0.6742	0.45484	0.957	-0.45
Mof_O 	O 	0.8582	0.49661	0.1185	-0.418
Mof_O 	O 	0.6136	0.50882	0.1906	-0.459
Mof_O 	O 	0.5348	0.37692	0.7027	-0.435
Mof_O 	O 	0.6862	0.31206	0.8529	-0.467
Mof_O 	O 	0.6031	0.28427	0.5931	-0.455
Mof_Zn	Zn	0.94051	0.04696	0.78108	1.238
Mof_P 	P 	0.78715	0.99715	0.06265	0.478
Mof_H 	H 	0.793	0.9549	0.981	-0.079
Mof_P 	P 	0.92532	0.18444	0.73632	0.473
Mof_H 	H 	0.036	0.2089	0.793	-0.046
Mof_O 	O 	0.8258	0.04516	0.957	-0.45
Mof_O 	O 	0.6418	0.00339	0.1185	-0.417
Mof_O 	O 	0.8864	0.99118	0.1906	-0.458
Mof_O 	O 	0.9652	0.12308	0.7027	-0.435
Mof_O 	O 	0.8138	0.18794	0.8529	-0.467
Mof_O 	O 	0.8969	0.21573	0.5931	-0.455
Mof_Zn	Zn	0.44051	0.95304	0.71892	1.238
Mof_P 	P 	0.28715	0.00285	0.43735	0.48
Mof_H 	H 	0.293	0.0451	0.519	-0.081
Mof_P 	P 	0.42532	0.81556	0.76368	0.474
Mof_H 	H 	0.536	0.7911	0.707	-0.046
Mof_O 	O 	0.3258	0.95484	0.543	-0.448
Mof_O 	O 	0.1418	0.99661	0.3815	-0.419
Mof_O 	O 	0.3864	0.00882	0.3094	-0.459
Mof_O 	O 	0.4652	0.87692	0.7973	-0.434
Mof_O 	O 	0.3138	0.81206	0.6471	-0.465
Mof_O 	O 	0.3969	0.78427	0.9069	-0.453
Mof_Zn	Zn	0.05949	0.54696	0.71892	1.239
Mof_P 	P 	0.21285	0.49715	0.43735	0.479
Mof_H 	H 	0.207	0.4549	0.519	-0.081
Mof_P 	P 	0.07468	0.68444	0.76368	0.474
Mof_H 	H 	0.964	0.7089	0.707	-0.046
Mof_O 	O 	0.1742	0.54516	0.543	-0.448
Mof_O 	O 	0.3582	0.50339	0.3815	-0.418
Mof_O 	O 	0.1136	0.49118	0.3094	-0.459
Mof_O 	O 	0.0348	0.62308	0.7973	-0.434
Mof_O 	O 	0.1862	0.68794	0.6471	-0.465
Mof_O 	O 	0.1031	0.71573	0.9069	-0.453
Mof_Zn	Zn	0.25	0.75	0.01889	1.232
Mof_Zn	Zn	0.75	0.25	0.48111	1.233
Mof_Zn	Zn	0.75	0.25	0.98111	1.232
Mof_Zn	Zn	0.25	0.75	0.51889	1.233
_end
