data_functionalizedCrystal
_audit_creation_method	'EQeq! by Chris Wilmer'
_symmetry_space_group_name_H-M	'P1'
_symmetry_Int_Tables_number	1
_symmetry_cell_setting	triclinic
loop_
_symmetry_equiv_pos_as_xyz
  x,y,z
_cell_length_a	51.5521
_cell_length_b	51.5521
_cell_length_c	51.5521
_cell_angle_alpha	60
_cell_angle_beta	60
_cell_angle_gamma	60
loop_
_atom_site_label
_atom_site_type_symbol
_atom_site_fract_x
_atom_site_fract_y
_atom_site_fract_z
_atom_site_charge
Mof_Cr	Cr	0.74634	0.89055	0.955	2.401
Mof_Cr	Cr	0.58531	0.13928	0.92989	2.482
Mof_O 	O 	0.76118	0.80445	0.8544	-0.809
Mof_O 	O 	0.73951	0.78283	0.83271	-0.811
Mof_O 	O 	0.55889	0.99271	0.94308	-0.785
Mof_O 	O 	0.44698	0.04674	0.00357	-0.71
Mof_O 	O 	0.53276	0.04073	0.94818	-0.742
Mof_O 	O 	0.72993	0.86735	0.91703	-0.826
Mof_O 	O 	0.67764	0.95214	0.90269	-0.823
Mof_O 	O 	0.75723	0.85369	0.94707	-0.787
Mof_O 	O 	0.88755	0.93086	0.78978	-0.753
Mof_O 	O 	0.73654	0.92441	0.96755	-0.76
Mof_O 	O 	0.70453	0.98201	0.8905	-0.78
Mof_O 	O 	0.59473	0.16727	0.96916	-0.725
Mof_O 	O 	0.30193	0.103	0.00097	-0.689
Mof_O 	O 	0.56832	0.17564	0.94087	-0.791
Mof_O 	O 	0.34748	0.11342	0.97168	-0.749
Mof_O 	O 	0.59725	0.10559	0.9174	-0.817
Mof_O 	O 	0.65013	0.08466	0.90273	-0.79
Mof_C 	C 	0.37864	0.06475	0.01749	0.127
Mof_C 	C 	0.34622	0.07125	0.02258	-0.222
Mof_C 	C 	0.33057	0.09781	0.99719	0.586
Mof_C 	C 	0.76349	0.81042	0.90451	0.205
Mof_C 	C 	0.76901	0.81651	0.92482	-0.316
Mof_C 	C 	0.75053	0.8475	0.9306	0.701
Mof_C 	C 	0.64847	0.00575	0.90025	-0.306
Mof_C 	C 	0.64899	0.03414	0.89694	0.2
Mof_C 	C 	0.62094	0.05793	0.90647	-0.312
Mof_C 	C 	0.5913	0.05401	0.91785	0.189
Mof_C 	C 	0.58959	0.02608	0.92083	-0.29
Mof_C 	C 	0.61864	0.00208	0.91177	0.192
Mof_C 	C 	0.55833	0.01976	0.93795	0.658
Mof_C 	C 	0.62301	0.0846	0.90853	0.7
Mof_C 	C 	0.67891	0.97844	0.89695	0.69
Mof_C 	C 	0.68853	0.0286	0.98047	-0.27
Mof_C 	C 	0.70729	0.00846	0.96148	0.167
Mof_C 	C 	0.57534	0.18578	0.9536	0.642
Mof_H 	H 	0.39126	0.08004	0.99649	0
Mof_H 	H 	0.74397	0.82719	0.89547	-0.016
Mof_H 	H 	0.67161	0.03685	0.88891	-0.015
Mof_H 	H 	0.56957	0.07194	0.92615	-0.013
Mof_H 	H 	0.61811	0.97973	0.91544	-0.014
Mof_H 	H 	0.71339	0.01907	0.93592	-0.006
Mof_Cr	Cr	0.89055	0.74634	0.40811	2.403
Mof_Cr	Cr	0.13928	0.58531	0.34552	2.483
Mof_O 	O 	0.80445	0.76118	0.57997	-0.809
Mof_O 	O 	0.78283	0.73951	0.64495	-0.811
Mof_O 	O 	0.99271	0.55889	0.50532	-0.785
Mof_O 	O 	0.04674	0.44698	0.50271	-0.714
Mof_O 	O 	0.04073	0.53276	0.47833	-0.743
Mof_O 	O 	0.86735	0.72993	0.48569	-0.826
Mof_O 	O 	0.95214	0.67764	0.46753	-0.823
Mof_O 	O 	0.85369	0.75723	0.44201	-0.787
Mof_O 	O 	0.93086	0.88755	0.39181	-0.753
Mof_O 	O 	0.92441	0.73654	0.3715	-0.758
Mof_O 	O 	0.98201	0.70453	0.42296	-0.78
Mof_O 	O 	0.16727	0.59473	0.26884	-0.726
Mof_O 	O 	0.103	0.30193	0.5941	-0.696
Mof_O 	O 	0.17564	0.56832	0.31517	-0.791
Mof_O 	O 	0.11342	0.34748	0.56742	-0.751
Mof_O 	O 	0.10559	0.59725	0.37976	-0.817
Mof_O 	O 	0.08466	0.65013	0.36248	-0.79
Mof_C 	C 	0.06475	0.37864	0.53912	0.124
Mof_C 	C 	0.07125	0.34622	0.55995	-0.225
Mof_C 	C 	0.09781	0.33057	0.57443	0.594
Mof_C 	C 	0.81042	0.76349	0.52158	0.205
Mof_C 	C 	0.81651	0.76901	0.48966	-0.316
Mof_C 	C 	0.8475	0.75053	0.47137	0.702
Mof_C 	C 	0.00575	0.64847	0.44553	-0.306
Mof_C 	C 	0.03414	0.64899	0.41993	0.2
Mof_C 	C 	0.05793	0.62094	0.41466	-0.312
Mof_C 	C 	0.05401	0.5913	0.43684	0.19
Mof_C 	C 	0.02608	0.58959	0.4635	-0.29
Mof_C 	C 	0.00208	0.61864	0.46751	0.192
Mof_C 	C 	0.01976	0.55833	0.48396	0.658
Mof_C 	C 	0.0846	0.62301	0.38386	0.7
Mof_C 	C 	0.97844	0.67891	0.4457	0.69
Mof_C 	C 	0.0286	0.68853	0.3024	-0.265
Mof_C 	C 	0.00846	0.70729	0.32277	0.164
Mof_C 	C 	0.18578	0.57534	0.28528	0.643
Mof_H 	H 	0.08004	0.39126	0.53221	0.003
Mof_H 	H 	0.82719	0.74397	0.53337	-0.016
Mof_H 	H 	0.03685	0.67161	0.40263	-0.015
Mof_H 	H 	0.07194	0.56957	0.43234	-0.013
Mof_H 	H 	0.97973	0.61811	0.48672	-0.014
Mof_H 	H 	0.01907	0.71339	0.33162	-0.005
Mof_Cr	Cr	0.955	0.40811	0.74634	2.401
Mof_Cr	Cr	0.92989	0.34552	0.58531	2.482
Mof_O 	O 	0.8544	0.57997	0.76118	-0.809
Mof_O 	O 	0.83271	0.64495	0.73951	-0.811
Mof_O 	O 	0.94308	0.50532	0.55889	-0.781
Mof_O 	O 	0.00357	0.50271	0.44698	-0.71
Mof_O 	O 	0.94818	0.47833	0.53276	-0.741
Mof_O 	O 	0.91703	0.48569	0.72993	-0.827
Mof_O 	O 	0.90269	0.46753	0.67764	-0.824
Mof_O 	O 	0.94707	0.44201	0.75723	-0.787
Mof_O 	O 	0.78978	0.39181	0.88755	-0.753
Mof_O 	O 	0.96755	0.3715	0.73654	-0.759
Mof_O 	O 	0.8905	0.42296	0.70453	-0.779
Mof_O 	O 	0.96916	0.26884	0.59473	-0.725
Mof_O 	O 	0.00097	0.5941	0.30193	-0.689
Mof_O 	O 	0.94087	0.31517	0.56832	-0.791
Mof_O 	O 	0.97168	0.56742	0.34748	-0.75
Mof_O 	O 	0.9174	0.37976	0.59725	-0.817
Mof_O 	O 	0.90273	0.36248	0.65013	-0.79
Mof_C 	C 	0.01749	0.53912	0.37864	0.126
Mof_C 	C 	0.02258	0.55995	0.34622	-0.223
Mof_C 	C 	0.99719	0.57443	0.33057	0.585
Mof_C 	C 	0.90451	0.52158	0.76349	0.204
Mof_C 	C 	0.92482	0.48966	0.76901	-0.317
Mof_C 	C 	0.9306	0.47137	0.75053	0.701
Mof_C 	C 	0.90025	0.44553	0.64847	-0.309
Mof_C 	C 	0.89694	0.41993	0.64899	0.199
Mof_C 	C 	0.90647	0.41466	0.62094	-0.313
Mof_C 	C 	0.91785	0.43684	0.5913	0.187
Mof_C 	C 	0.92083	0.4635	0.58959	-0.29
Mof_C 	C 	0.91177	0.46751	0.61864	0.186
Mof_C 	C 	0.93795	0.48396	0.55833	0.651
Mof_C 	C 	0.90853	0.38386	0.62301	0.698
Mof_C 	C 	0.89695	0.4457	0.67891	0.692
Mof_C 	C 	0.98047	0.3024	0.68853	-0.269
Mof_C 	C 	0.96148	0.32277	0.70729	0.16
Mof_C 	C 	0.9536	0.28528	0.57534	0.641
Mof_H 	H 	0.99649	0.53221	0.39126	-0.001
Mof_H 	H 	0.89547	0.53337	0.74397	-0.017
Mof_H 	H 	0.88891	0.40263	0.67161	-0.017
Mof_H 	H 	0.92615	0.43234	0.56957	-0.014
Mof_H 	H 	0.91544	0.48672	0.61811	-0.012
Mof_H 	H 	0.93592	0.33162	0.71339	-0.007
Mof_Cr	Cr	0.40811	0.955	0.89055	2.4
Mof_Cr	Cr	0.34552	0.92989	0.13928	2.481
Mof_O 	O 	0.57997	0.8544	0.80445	-0.81
Mof_O 	O 	0.64495	0.83271	0.78283	-0.812
Mof_O 	O 	0.50532	0.94308	0.99271	-0.786
Mof_O 	O 	0.50271	0.00357	0.04674	-0.711
Mof_O 	O 	0.47833	0.94818	0.04073	-0.744
Mof_O 	O 	0.48569	0.91703	0.86735	-0.827
Mof_O 	O 	0.46753	0.90269	0.95214	-0.824
Mof_O 	O 	0.44201	0.94707	0.85369	-0.788
Mof_O 	O 	0.39181	0.78978	0.93086	-0.754
Mof_O 	O 	0.3715	0.96755	0.92441	-0.761
Mof_O 	O 	0.42296	0.8905	0.98201	-0.781
Mof_O 	O 	0.26884	0.96916	0.16727	-0.726
Mof_O 	O 	0.5941	0.00097	0.103	-0.69
Mof_O 	O 	0.31517	0.94087	0.17564	-0.792
Mof_O 	O 	0.56742	0.97168	0.11342	-0.75
Mof_O 	O 	0.37976	0.9174	0.10559	-0.818
Mof_O 	O 	0.36248	0.90273	0.08466	-0.791
Mof_C 	C 	0.53912	0.01749	0.06475	0.126
Mof_C 	C 	0.55995	0.02258	0.07125	-0.223
Mof_C 	C 	0.57443	0.99719	0.09781	0.585
Mof_C 	C 	0.52158	0.90451	0.81042	0.204
Mof_C 	C 	0.48966	0.92482	0.81651	-0.317
Mof_C 	C 	0.47137	0.9306	0.8475	0.7
Mof_C 	C 	0.44553	0.90025	0.00575	-0.307
Mof_C 	C 	0.41993	0.89694	0.03414	0.199
Mof_C 	C 	0.41466	0.90647	0.05793	-0.313
Mof_C 	C 	0.43684	0.91785	0.05401	0.188
Mof_C 	C 	0.4635	0.92083	0.02608	-0.292
Mof_C 	C 	0.46751	0.91177	0.00208	0.191
Mof_C 	C 	0.48396	0.93795	0.01976	0.657
Mof_C 	C 	0.38386	0.90853	0.0846	0.699
Mof_C 	C 	0.4457	0.89695	0.97844	0.689
Mof_C 	C 	0.3024	0.98047	0.0286	-0.272
Mof_C 	C 	0.32277	0.96148	0.00846	0.166
Mof_C 	C 	0.28528	0.9536	0.18578	0.641
Mof_H 	H 	0.53221	0.99649	0.08004	-0.001
Mof_H 	H 	0.53337	0.89547	0.82719	-0.017
Mof_H 	H 	0.40263	0.88891	0.03685	-0.016
Mof_H 	H 	0.43234	0.92615	0.07194	-0.014
Mof_H 	H 	0.48672	0.91544	0.97973	-0.015
Mof_H 	H 	0.33162	0.93592	0.01907	-0.007
Mof_Cr	Cr	0.955	0.74634	0.89055	2.4
Mof_Cr	Cr	0.92989	0.58531	0.13928	2.481
Mof_O 	O 	0.8544	0.76118	0.80445	-0.81
Mof_O 	O 	0.83271	0.73951	0.78283	-0.812
Mof_O 	O 	0.94308	0.55889	0.99271	-0.786
Mof_O 	O 	0.00357	0.44698	0.04674	-0.711
Mof_O 	O 	0.94818	0.53276	0.04073	-0.743
Mof_O 	O 	0.91703	0.72993	0.86735	-0.827
Mof_O 	O 	0.90269	0.67764	0.95214	-0.824
Mof_O 	O 	0.94707	0.75723	0.85369	-0.788
Mof_O 	O 	0.78978	0.88755	0.93086	-0.754
Mof_O 	O 	0.96755	0.73654	0.92441	-0.761
Mof_O 	O 	0.8905	0.70453	0.98201	-0.781
Mof_O 	O 	0.96916	0.59473	0.16727	-0.726
Mof_O 	O 	0.00097	0.30193	0.103	-0.69
Mof_O 	O 	0.94087	0.56832	0.17564	-0.792
Mof_O 	O 	0.97168	0.34748	0.11342	-0.75
Mof_O 	O 	0.9174	0.59725	0.10559	-0.818
Mof_O 	O 	0.90273	0.65013	0.08466	-0.791
Mof_C 	C 	0.01749	0.37864	0.06475	0.126
Mof_C 	C 	0.02258	0.34622	0.07125	-0.223
Mof_C 	C 	0.99719	0.33057	0.09781	0.585
Mof_C 	C 	0.90451	0.76349	0.81042	0.204
Mof_C 	C 	0.92482	0.76901	0.81651	-0.317
Mof_C 	C 	0.9306	0.75053	0.8475	0.7
Mof_C 	C 	0.90025	0.64847	0.00575	-0.307
Mof_C 	C 	0.89694	0.64899	0.03414	0.199
Mof_C 	C 	0.90647	0.62094	0.05793	-0.313
Mof_C 	C 	0.91785	0.5913	0.05401	0.188
Mof_C 	C 	0.92083	0.58959	0.02608	-0.291
Mof_C 	C 	0.91177	0.61864	0.00208	0.191
Mof_C 	C 	0.93795	0.55833	0.01976	0.657
Mof_C 	C 	0.90853	0.62301	0.0846	0.699
Mof_C 	C 	0.89695	0.67891	0.97844	0.689
Mof_C 	C 	0.98047	0.68853	0.0286	-0.271
Mof_C 	C 	0.96148	0.70729	0.00846	0.166
Mof_C 	C 	0.9536	0.57534	0.18578	0.641
Mof_H 	H 	0.99649	0.39126	0.08004	-0.001
Mof_H 	H 	0.89547	0.74397	0.82719	-0.017
Mof_H 	H 	0.88891	0.67161	0.03685	-0.016
Mof_H 	H 	0.92615	0.56957	0.07194	-0.014
Mof_H 	H 	0.91544	0.61811	0.97973	-0.015
Mof_H 	H 	0.93592	0.71339	0.01907	-0.007
Mof_Cr	Cr	0.40811	0.89055	0.74634	2.402
Mof_Cr	Cr	0.34552	0.13928	0.58531	2.482
Mof_O 	O 	0.57997	0.80445	0.76118	-0.81
Mof_O 	O 	0.64495	0.78283	0.73951	-0.812
Mof_O 	O 	0.50532	0.99271	0.55889	-0.786
Mof_O 	O 	0.50271	0.04674	0.44698	-0.715
Mof_O 	O 	0.47833	0.04073	0.53276	-0.744
Mof_O 	O 	0.48569	0.86735	0.72993	-0.827
Mof_O 	O 	0.46753	0.95214	0.67764	-0.824
Mof_O 	O 	0.44201	0.85369	0.75723	-0.788
Mof_O 	O 	0.39181	0.93086	0.88755	-0.754
Mof_O 	O 	0.3715	0.92441	0.73654	-0.759
Mof_O 	O 	0.42296	0.98201	0.70453	-0.781
Mof_O 	O 	0.26884	0.16727	0.59473	-0.727
Mof_O 	O 	0.5941	0.103	0.30193	-0.697
Mof_O 	O 	0.31517	0.17564	0.56832	-0.792
Mof_O 	O 	0.56742	0.11342	0.34748	-0.752
Mof_O 	O 	0.37976	0.10559	0.59725	-0.818
Mof_O 	O 	0.36248	0.08466	0.65013	-0.791
Mof_C 	C 	0.53912	0.06475	0.37864	0.123
Mof_C 	C 	0.55995	0.07125	0.34622	-0.226
Mof_C 	C 	0.57443	0.09781	0.33057	0.593
Mof_C 	C 	0.52158	0.81042	0.76349	0.204
Mof_C 	C 	0.48966	0.81651	0.76901	-0.317
Mof_C 	C 	0.47137	0.8475	0.75053	0.701
Mof_C 	C 	0.44553	0.00575	0.64847	-0.307
Mof_C 	C 	0.41993	0.03414	0.64899	0.199
Mof_C 	C 	0.41466	0.05793	0.62094	-0.313
Mof_C 	C 	0.43684	0.05401	0.5913	0.189
Mof_C 	C 	0.4635	0.02608	0.58959	-0.291
Mof_C 	C 	0.46751	0.00208	0.61864	0.191
Mof_C 	C 	0.48396	0.01976	0.55833	0.657
Mof_C 	C 	0.38386	0.0846	0.62301	0.699
Mof_C 	C 	0.4457	0.97844	0.67891	0.689
Mof_C 	C 	0.3024	0.0286	0.68853	-0.266
Mof_C 	C 	0.32277	0.00846	0.70729	0.163
Mof_C 	C 	0.28528	0.18578	0.57534	0.642
Mof_H 	H 	0.53221	0.08004	0.39126	0.002
Mof_H 	H 	0.53337	0.82719	0.74397	-0.017
Mof_H 	H 	0.40263	0.03685	0.67161	-0.016
Mof_H 	H 	0.43234	0.07194	0.56957	-0.014
Mof_H 	H 	0.48672	0.97973	0.61811	-0.015
Mof_H 	H 	0.33162	0.01907	0.71339	-0.006
Mof_Cr	Cr	0.74634	0.955	0.40811	2.4
Mof_Cr	Cr	0.58531	0.92989	0.34552	2.481
Mof_O 	O 	0.76118	0.8544	0.57997	-0.81
Mof_O 	O 	0.73951	0.83271	0.64495	-0.812
Mof_O 	O 	0.55889	0.94308	0.50532	-0.782
Mof_O 	O 	0.44698	0.00357	0.50271	-0.711
Mof_O 	O 	0.53276	0.94818	0.47833	-0.742
Mof_O 	O 	0.72993	0.91703	0.48569	-0.828
Mof_O 	O 	0.67764	0.90269	0.46753	-0.825
Mof_O 	O 	0.75723	0.94707	0.44201	-0.788
Mof_O 	O 	0.88755	0.78978	0.39181	-0.754
Mof_O 	O 	0.73654	0.96755	0.3715	-0.76
Mof_O 	O 	0.70453	0.8905	0.42296	-0.78
Mof_O 	O 	0.59473	0.96916	0.26884	-0.726
Mof_O 	O 	0.30193	0.00097	0.5941	-0.69
Mof_O 	O 	0.56832	0.94087	0.31517	-0.792
Mof_O 	O 	0.34748	0.97168	0.56742	-0.751
Mof_O 	O 	0.59725	0.9174	0.37976	-0.818
Mof_O 	O 	0.65013	0.90273	0.36248	-0.791
Mof_C 	C 	0.37864	0.01749	0.53912	0.126
Mof_C 	C 	0.34622	0.02258	0.55995	-0.223
Mof_C 	C 	0.33057	0.99719	0.57443	0.585
Mof_C 	C 	0.76349	0.90451	0.52158	0.204
Mof_C 	C 	0.76901	0.92482	0.48966	-0.317
Mof_C 	C 	0.75053	0.9306	0.47137	0.701
Mof_C 	C 	0.64847	0.90025	0.44553	-0.309
Mof_C 	C 	0.64899	0.89694	0.41993	0.199
Mof_C 	C 	0.62094	0.90647	0.41466	-0.313
Mof_C 	C 	0.5913	0.91785	0.43684	0.187
Mof_C 	C 	0.58959	0.92083	0.4635	-0.29
Mof_C 	C 	0.61864	0.91177	0.46751	0.186
Mof_C 	C 	0.55833	0.93795	0.48396	0.651
Mof_C 	C 	0.62301	0.90853	0.38386	0.698
Mof_C 	C 	0.67891	0.89695	0.4457	0.692
Mof_C 	C 	0.68853	0.98047	0.3024	-0.269
Mof_C 	C 	0.70729	0.96148	0.32277	0.16
Mof_C 	C 	0.57534	0.9536	0.28528	0.641
Mof_H 	H 	0.39126	0.99649	0.53221	-0.001
Mof_H 	H 	0.74397	0.89547	0.53337	-0.017
Mof_H 	H 	0.67161	0.88891	0.40263	-0.017
Mof_H 	H 	0.56957	0.92615	0.43234	-0.014
Mof_H 	H 	0.61811	0.91544	0.48672	-0.012
Mof_H 	H 	0.71339	0.93592	0.33162	-0.007
Mof_Cr	Cr	0.89055	0.40811	0.955	2.4
Mof_Cr	Cr	0.13928	0.34552	0.92989	2.481
Mof_O 	O 	0.80445	0.57997	0.8544	-0.81
Mof_O 	O 	0.78283	0.64495	0.83271	-0.812
Mof_O 	O 	0.99271	0.50532	0.94308	-0.786
Mof_O 	O 	0.04674	0.50271	0.00357	-0.711
Mof_O 	O 	0.04073	0.47833	0.94818	-0.744
Mof_O 	O 	0.86735	0.48569	0.91703	-0.827
Mof_O 	O 	0.95214	0.46753	0.90269	-0.824
Mof_O 	O 	0.85369	0.44201	0.94707	-0.788
Mof_O 	O 	0.93086	0.39181	0.78978	-0.754
Mof_O 	O 	0.92441	0.3715	0.96755	-0.761
Mof_O 	O 	0.98201	0.42296	0.8905	-0.781
Mof_O 	O 	0.16727	0.26884	0.96916	-0.726
Mof_O 	O 	0.103	0.5941	0.00097	-0.69
Mof_O 	O 	0.17564	0.31517	0.94087	-0.792
Mof_O 	O 	0.11342	0.56742	0.97168	-0.75
Mof_O 	O 	0.10559	0.37976	0.9174	-0.818
Mof_O 	O 	0.08466	0.36248	0.90273	-0.791
Mof_C 	C 	0.06475	0.53912	0.01749	0.126
Mof_C 	C 	0.07125	0.55995	0.02258	-0.223
Mof_C 	C 	0.09781	0.57443	0.99719	0.585
Mof_C 	C 	0.81042	0.52158	0.90451	0.204
Mof_C 	C 	0.81651	0.48966	0.92482	-0.317
Mof_C 	C 	0.8475	0.47137	0.9306	0.7
Mof_C 	C 	0.00575	0.44553	0.90025	-0.307
Mof_C 	C 	0.03414	0.41993	0.89694	0.199
Mof_C 	C 	0.05793	0.41466	0.90647	-0.313
Mof_C 	C 	0.05401	0.43684	0.91785	0.188
Mof_C 	C 	0.02608	0.4635	0.92083	-0.292
Mof_C 	C 	0.00208	0.46751	0.91177	0.191
Mof_C 	C 	0.01976	0.48396	0.93795	0.657
Mof_C 	C 	0.0846	0.38386	0.90853	0.699
Mof_C 	C 	0.97844	0.4457	0.89695	0.689
Mof_C 	C 	0.0286	0.3024	0.98047	-0.272
Mof_C 	C 	0.00846	0.32277	0.96148	0.166
Mof_C 	C 	0.18578	0.28528	0.9536	0.641
Mof_H 	H 	0.08004	0.53221	0.99649	-0.001
Mof_H 	H 	0.82719	0.53337	0.89547	-0.017
Mof_H 	H 	0.03685	0.40263	0.88891	-0.016
Mof_H 	H 	0.07194	0.43234	0.92615	-0.014
Mof_H 	H 	0.97973	0.48672	0.91544	-0.015
Mof_H 	H 	0.01907	0.33162	0.93592	-0.007
Mof_Cr	Cr	0.89055	0.955	0.74634	2.4
Mof_Cr	Cr	0.13928	0.92989	0.58531	2.481
Mof_O 	O 	0.80445	0.8544	0.76118	-0.81
Mof_O 	O 	0.78283	0.83271	0.73951	-0.812
Mof_O 	O 	0.99271	0.94308	0.55889	-0.786
Mof_O 	O 	0.04674	0.00357	0.44698	-0.711
Mof_O 	O 	0.04073	0.94818	0.53276	-0.743
Mof_O 	O 	0.86735	0.91703	0.72993	-0.827
Mof_O 	O 	0.95214	0.90269	0.67764	-0.824
Mof_O 	O 	0.85369	0.94707	0.75723	-0.788
Mof_O 	O 	0.93086	0.78978	0.88755	-0.754
Mof_O 	O 	0.92441	0.96755	0.73654	-0.761
Mof_O 	O 	0.98201	0.8905	0.70453	-0.781
Mof_O 	O 	0.16727	0.96916	0.59473	-0.726
Mof_O 	O 	0.103	0.00097	0.30193	-0.69
Mof_O 	O 	0.17564	0.94087	0.56832	-0.792
Mof_O 	O 	0.11342	0.97168	0.34748	-0.75
Mof_O 	O 	0.10559	0.9174	0.59725	-0.818
Mof_O 	O 	0.08466	0.90273	0.65013	-0.791
Mof_C 	C 	0.06475	0.01749	0.37864	0.126
Mof_C 	C 	0.07125	0.02258	0.34622	-0.223
Mof_C 	C 	0.09781	0.99719	0.33057	0.585
Mof_C 	C 	0.81042	0.90451	0.76349	0.204
Mof_C 	C 	0.81651	0.92482	0.76901	-0.317
Mof_C 	C 	0.8475	0.9306	0.75053	0.7
Mof_C 	C 	0.00575	0.90025	0.64847	-0.307
Mof_C 	C 	0.03414	0.89694	0.64899	0.199
Mof_C 	C 	0.05793	0.90647	0.62094	-0.313
Mof_C 	C 	0.05401	0.91785	0.5913	0.188
Mof_C 	C 	0.02608	0.92083	0.58959	-0.291
Mof_C 	C 	0.00208	0.91177	0.61864	0.191
Mof_C 	C 	0.01976	0.93795	0.55833	0.657
Mof_C 	C 	0.0846	0.90853	0.62301	0.699
Mof_C 	C 	0.97844	0.89695	0.67891	0.689
Mof_C 	C 	0.0286	0.98047	0.68853	-0.271
Mof_C 	C 	0.00846	0.96148	0.70729	0.166
Mof_C 	C 	0.18578	0.9536	0.57534	0.641
Mof_H 	H 	0.08004	0.99649	0.39126	-0.001
Mof_H 	H 	0.82719	0.89547	0.74397	-0.017
Mof_H 	H 	0.03685	0.88891	0.67161	-0.016
Mof_H 	H 	0.07194	0.92615	0.56957	-0.014
Mof_H 	H 	0.97973	0.91544	0.61811	-0.015
Mof_H 	H 	0.01907	0.93592	0.71339	-0.007
Mof_Cr	Cr	0.74634	0.40811	0.89055	2.402
Mof_Cr	Cr	0.58531	0.34552	0.13928	2.482
Mof_O 	O 	0.76118	0.57997	0.80445	-0.81
Mof_O 	O 	0.73951	0.64495	0.78283	-0.812
Mof_O 	O 	0.55889	0.50532	0.99271	-0.786
Mof_O 	O 	0.44698	0.50271	0.04674	-0.715
Mof_O 	O 	0.53276	0.47833	0.04073	-0.744
Mof_O 	O 	0.72993	0.48569	0.86735	-0.827
Mof_O 	O 	0.67764	0.46753	0.95214	-0.824
Mof_O 	O 	0.75723	0.44201	0.85369	-0.788
Mof_O 	O 	0.88755	0.39181	0.93086	-0.754
Mof_O 	O 	0.73654	0.3715	0.92441	-0.759
Mof_O 	O 	0.70453	0.42296	0.98201	-0.781
Mof_O 	O 	0.59473	0.26884	0.16727	-0.727
Mof_O 	O 	0.30193	0.5941	0.103	-0.697
Mof_O 	O 	0.56832	0.31517	0.17564	-0.792
Mof_O 	O 	0.34748	0.56742	0.11342	-0.752
Mof_O 	O 	0.59725	0.37976	0.10559	-0.818
Mof_O 	O 	0.65013	0.36248	0.08466	-0.791
Mof_C 	C 	0.37864	0.53912	0.06475	0.123
Mof_C 	C 	0.34622	0.55995	0.07125	-0.226
Mof_C 	C 	0.33057	0.57443	0.09781	0.593
Mof_C 	C 	0.76349	0.52158	0.81042	0.204
Mof_C 	C 	0.76901	0.48966	0.81651	-0.317
Mof_C 	C 	0.75053	0.47137	0.8475	0.701
Mof_C 	C 	0.64847	0.44553	0.00575	-0.307
Mof_C 	C 	0.64899	0.41993	0.03414	0.199
Mof_C 	C 	0.62094	0.41466	0.05793	-0.313
Mof_C 	C 	0.5913	0.43684	0.05401	0.189
Mof_C 	C 	0.58959	0.4635	0.02608	-0.291
Mof_C 	C 	0.61864	0.46751	0.00208	0.191
Mof_C 	C 	0.55833	0.48396	0.01976	0.657
Mof_C 	C 	0.62301	0.38386	0.0846	0.699
Mof_C 	C 	0.67891	0.4457	0.97844	0.689
Mof_C 	C 	0.68853	0.3024	0.0286	-0.266
Mof_C 	C 	0.70729	0.32277	0.00846	0.163
Mof_C 	C 	0.57534	0.28528	0.18578	0.642
Mof_H 	H 	0.39126	0.53221	0.08004	0.002
Mof_H 	H 	0.74397	0.53337	0.82719	-0.017
Mof_H 	H 	0.67161	0.40263	0.03685	-0.016
Mof_H 	H 	0.56957	0.43234	0.07194	-0.014
Mof_H 	H 	0.61811	0.48672	0.97973	-0.015
Mof_H 	H 	0.71339	0.33162	0.01907	-0.006
Mof_Cr	Cr	0.40811	0.74634	0.955	2.4
Mof_Cr	Cr	0.34552	0.58531	0.92989	2.481
Mof_O 	O 	0.57997	0.76118	0.8544	-0.81
Mof_O 	O 	0.64495	0.73951	0.83271	-0.812
Mof_O 	O 	0.50532	0.55889	0.94308	-0.782
Mof_O 	O 	0.50271	0.44698	0.00357	-0.711
Mof_O 	O 	0.47833	0.53276	0.94818	-0.742
Mof_O 	O 	0.48569	0.72993	0.91703	-0.828
Mof_O 	O 	0.46753	0.67764	0.90269	-0.825
Mof_O 	O 	0.44201	0.75723	0.94707	-0.788
Mof_O 	O 	0.39181	0.88755	0.78978	-0.754
Mof_O 	O 	0.3715	0.73654	0.96755	-0.76
Mof_O 	O 	0.42296	0.70453	0.8905	-0.78
Mof_O 	O 	0.26884	0.59473	0.96916	-0.726
Mof_O 	O 	0.5941	0.30193	0.00097	-0.69
Mof_O 	O 	0.31517	0.56832	0.94087	-0.792
Mof_O 	O 	0.56742	0.34748	0.97168	-0.751
Mof_O 	O 	0.37976	0.59725	0.9174	-0.818
Mof_O 	O 	0.36248	0.65013	0.90273	-0.791
Mof_C 	C 	0.53912	0.37864	0.01749	0.126
Mof_C 	C 	0.55995	0.34622	0.02258	-0.223
Mof_C 	C 	0.57443	0.33057	0.99719	0.585
Mof_C 	C 	0.52158	0.76349	0.90451	0.204
Mof_C 	C 	0.48966	0.76901	0.92482	-0.317
Mof_C 	C 	0.47137	0.75053	0.9306	0.701
Mof_C 	C 	0.44553	0.64847	0.90025	-0.309
Mof_C 	C 	0.41993	0.64899	0.89694	0.199
Mof_C 	C 	0.41466	0.62094	0.90647	-0.313
Mof_C 	C 	0.43684	0.5913	0.91785	0.187
Mof_C 	C 	0.4635	0.58959	0.92083	-0.29
Mof_C 	C 	0.46751	0.61864	0.91177	0.186
Mof_C 	C 	0.48396	0.55833	0.93795	0.651
Mof_C 	C 	0.38386	0.62301	0.90853	0.698
Mof_C 	C 	0.4457	0.67891	0.89695	0.692
Mof_C 	C 	0.3024	0.68853	0.98047	-0.269
Mof_C 	C 	0.32277	0.70729	0.96148	0.16
Mof_C 	C 	0.28528	0.57534	0.9536	0.641
Mof_H 	H 	0.53221	0.39126	0.99649	-0.001
Mof_H 	H 	0.53337	0.74397	0.89547	-0.017
Mof_H 	H 	0.40263	0.67161	0.88891	-0.017
Mof_H 	H 	0.43234	0.56957	0.92615	-0.014
Mof_H 	H 	0.48672	0.61811	0.91544	-0.012
Mof_H 	H 	0.33162	0.71339	0.93592	-0.007
Mof_Cr	Cr	0.955	0.89055	0.40811	2.4
Mof_Cr	Cr	0.92989	0.13928	0.34552	2.481
Mof_O 	O 	0.8544	0.80445	0.57997	-0.81
Mof_O 	O 	0.83271	0.78283	0.64495	-0.812
Mof_O 	O 	0.94308	0.99271	0.50532	-0.786
Mof_O 	O 	0.00357	0.04674	0.50271	-0.711
Mof_O 	O 	0.94818	0.04073	0.47833	-0.744
Mof_O 	O 	0.91703	0.86735	0.48569	-0.827
Mof_O 	O 	0.90269	0.95214	0.46753	-0.824
Mof_O 	O 	0.94707	0.85369	0.44201	-0.788
Mof_O 	O 	0.78978	0.93086	0.39181	-0.754
Mof_O 	O 	0.96755	0.92441	0.3715	-0.761
Mof_O 	O 	0.8905	0.98201	0.42296	-0.781
Mof_O 	O 	0.96916	0.16727	0.26884	-0.726
Mof_O 	O 	0.00097	0.103	0.5941	-0.69
Mof_O 	O 	0.94087	0.17564	0.31517	-0.792
Mof_O 	O 	0.97168	0.11342	0.56742	-0.75
Mof_O 	O 	0.9174	0.10559	0.37976	-0.818
Mof_O 	O 	0.90273	0.08466	0.36248	-0.791
Mof_C 	C 	0.01749	0.06475	0.53912	0.126
Mof_C 	C 	0.02258	0.07125	0.55995	-0.223
Mof_C 	C 	0.99719	0.09781	0.57443	0.585
Mof_C 	C 	0.90451	0.81042	0.52158	0.204
Mof_C 	C 	0.92482	0.81651	0.48966	-0.317
Mof_C 	C 	0.9306	0.8475	0.47137	0.7
Mof_C 	C 	0.90025	0.00575	0.44553	-0.307
Mof_C 	C 	0.89694	0.03414	0.41993	0.199
Mof_C 	C 	0.90647	0.05793	0.41466	-0.313
Mof_C 	C 	0.91785	0.05401	0.43684	0.188
Mof_C 	C 	0.92083	0.02608	0.4635	-0.292
Mof_C 	C 	0.91177	0.00208	0.46751	0.191
Mof_C 	C 	0.93795	0.01976	0.48396	0.657
Mof_C 	C 	0.90853	0.0846	0.38386	0.699
Mof_C 	C 	0.89695	0.97844	0.4457	0.689
Mof_C 	C 	0.98047	0.0286	0.3024	-0.272
Mof_C 	C 	0.96148	0.00846	0.32277	0.166
Mof_C 	C 	0.9536	0.18578	0.28528	0.641
Mof_H 	H 	0.99649	0.08004	0.53221	-0.001
Mof_H 	H 	0.89547	0.82719	0.53337	-0.017
Mof_H 	H 	0.88891	0.03685	0.40263	-0.016
Mof_H 	H 	0.92615	0.07194	0.43234	-0.014
Mof_H 	H 	0.91544	0.97973	0.48672	-0.015
Mof_H 	H 	0.93592	0.01907	0.33162	-0.007
Mof_Cr	Cr	0.50366	0.35945	0.84189	2.401
Mof_Cr	Cr	0.66469	0.11072	0.90448	2.483
Mof_O 	O 	0.48882	0.44555	0.67003	-0.81
Mof_O 	O 	0.51049	0.46717	0.60505	-0.812
Mof_O 	O 	0.69111	0.25729	0.74468	-0.782
Mof_O 	O 	0.80302	0.20326	0.74729	-0.714
Mof_O 	O 	0.71724	0.20927	0.77167	-0.743
Mof_O 	O 	0.52007	0.38265	0.76431	-0.828
Mof_O 	O 	0.57236	0.29786	0.78247	-0.825
Mof_O 	O 	0.49277	0.39631	0.80799	-0.788
Mof_O 	O 	0.36245	0.31914	0.85819	-0.754
Mof_O 	O 	0.51346	0.32559	0.8785	-0.759
Mof_O 	O 	0.54547	0.26799	0.82704	-0.78
Mof_O 	O 	0.65527	0.08273	0.98116	-0.728
Mof_O 	O 	0.94807	0.147	0.6559	-0.696
Mof_O 	O 	0.68168	0.07436	0.93483	-0.793
Mof_O 	O 	0.90252	0.13658	0.68258	-0.752
Mof_O 	O 	0.65275	0.14441	0.87024	-0.818
Mof_O 	O 	0.59987	0.16534	0.88752	-0.79
Mof_C 	C 	0.87136	0.18525	0.71088	0.122
Mof_C 	C 	0.90378	0.17875	0.69005	-0.227
Mof_C 	C 	0.91943	0.15219	0.67557	0.593
Mof_C 	C 	0.48651	0.43958	0.72842	0.204
Mof_C 	C 	0.48099	0.43349	0.76034	-0.317
Mof_C 	C 	0.49947	0.4025	0.77863	0.701
Mof_C 	C 	0.60153	0.24425	0.80447	-0.309
Mof_C 	C 	0.60101	0.21586	0.83007	0.199
Mof_C 	C 	0.62906	0.19207	0.83534	-0.313
Mof_C 	C 	0.6587	0.19599	0.81316	0.188
Mof_C 	C 	0.66041	0.22392	0.7865	-0.289
Mof_C 	C 	0.63136	0.24792	0.78249	0.186
Mof_C 	C 	0.69167	0.23024	0.76604	0.652
Mof_C 	C 	0.62699	0.1654	0.86614	0.699
Mof_C 	C 	0.57109	0.27156	0.8043	0.692
Mof_C 	C 	0.56147	0.2214	0.9476	-0.263
Mof_C 	C 	0.54271	0.24154	0.92723	0.157
Mof_C 	C 	0.67466	0.06422	0.96472	0.644
Mof_H 	H 	0.85874	0.16996	0.71779	0.002
Mof_H 	H 	0.50603	0.42281	0.71663	-0.017
Mof_H 	H 	0.57839	0.21315	0.84737	-0.017
Mof_H 	H 	0.68043	0.17806	0.81766	-0.013
Mof_H 	H 	0.63189	0.27027	0.76328	-0.012
Mof_H 	H 	0.53661	0.23093	0.91838	-0.006
Mof_Cr	Cr	0.35945	0.50366	0.295	2.402
Mof_Cr	Cr	0.11072	0.66469	0.32011	2.483
Mof_O 	O 	0.44555	0.48882	0.3956	-0.81
Mof_O 	O 	0.46717	0.51049	0.41729	-0.812
Mof_O 	O 	0.25729	0.69111	0.30692	-0.782
Mof_O 	O 	0.20326	0.80302	0.24643	-0.714
Mof_O 	O 	0.20927	0.71724	0.30182	-0.743
Mof_O 	O 	0.38265	0.52007	0.33297	-0.828
Mof_O 	O 	0.29786	0.57236	0.34731	-0.825
Mof_O 	O 	0.39631	0.49277	0.30293	-0.788
Mof_O 	O 	0.31914	0.36245	0.46022	-0.754
Mof_O 	O 	0.32559	0.51346	0.28245	-0.759
Mof_O 	O 	0.26799	0.54547	0.3595	-0.78
Mof_O 	O 	0.08273	0.65527	0.28084	-0.727
Mof_O 	O 	0.147	0.94807	0.24903	-0.696
Mof_O 	O 	0.07436	0.68168	0.30913	-0.792
Mof_O 	O 	0.13658	0.90252	0.27832	-0.752
Mof_O 	O 	0.14441	0.65275	0.3326	-0.818
Mof_O 	O 	0.16534	0.59987	0.34727	-0.791
Mof_C 	C 	0.18525	0.87136	0.23251	0.122
Mof_C 	C 	0.17875	0.90378	0.22742	-0.226
Mof_C 	C 	0.15219	0.91943	0.25281	0.593
Mof_C 	C 	0.43958	0.48651	0.34549	0.204
Mof_C 	C 	0.43349	0.48099	0.32518	-0.317
Mof_C 	C 	0.4025	0.49947	0.3194	0.701
Mof_C 	C 	0.24425	0.60153	0.34975	-0.309
Mof_C 	C 	0.21586	0.60101	0.35306	0.199
Mof_C 	C 	0.19207	0.62906	0.34353	-0.313
Mof_C 	C 	0.19599	0.6587	0.33215	0.188
Mof_C 	C 	0.22392	0.66041	0.32917	-0.289
Mof_C 	C 	0.24792	0.63136	0.33823	0.186
Mof_C 	C 	0.23024	0.69167	0.31205	0.652
Mof_C 	C 	0.1654	0.62699	0.34147	0.699
Mof_C 	C 	0.27156	0.57109	0.35305	0.692
Mof_C 	C 	0.2214	0.56147	0.26953	-0.263
Mof_C 	C 	0.24154	0.54271	0.28852	0.157
Mof_C 	C 	0.06422	0.67466	0.2964	0.643
Mof_H 	H 	0.16996	0.85874	0.25351	0.003
Mof_H 	H 	0.42281	0.50603	0.35453	-0.017
Mof_H 	H 	0.21315	0.57839	0.36109	-0.017
Mof_H 	H 	0.17806	0.68043	0.32385	-0.013
Mof_H 	H 	0.27027	0.63189	0.33456	-0.012
Mof_H 	H 	0.23093	0.53661	0.31408	-0.006
Mof_Cr	Cr	0.295	0.84189	0.35945	2.401
Mof_Cr	Cr	0.32011	0.90448	0.11072	2.483
Mof_O 	O 	0.3956	0.67003	0.44555	-0.81
Mof_O 	O 	0.41729	0.60505	0.46717	-0.812
Mof_O 	O 	0.30692	0.74468	0.25729	-0.782
Mof_O 	O 	0.24643	0.74729	0.20326	-0.714
Mof_O 	O 	0.30182	0.77167	0.20927	-0.743
Mof_O 	O 	0.33297	0.76431	0.38265	-0.828
Mof_O 	O 	0.34731	0.78247	0.29786	-0.825
Mof_O 	O 	0.30293	0.80799	0.39631	-0.788
Mof_O 	O 	0.46022	0.85819	0.31914	-0.754
Mof_O 	O 	0.28245	0.8785	0.32559	-0.759
Mof_O 	O 	0.3595	0.82704	0.26799	-0.78
Mof_O 	O 	0.28084	0.98116	0.08273	-0.728
Mof_O 	O 	0.24903	0.6559	0.147	-0.697
Mof_O 	O 	0.30913	0.93483	0.07436	-0.793
Mof_O 	O 	0.27832	0.68258	0.13658	-0.752
Mof_O 	O 	0.3326	0.87024	0.14441	-0.818
Mof_O 	O 	0.34727	0.88752	0.16534	-0.79
Mof_C 	C 	0.23251	0.71088	0.18525	0.122
Mof_C 	C 	0.22742	0.69005	0.17875	-0.227
Mof_C 	C 	0.25281	0.67557	0.15219	0.593
Mof_C 	C 	0.34549	0.72842	0.43958	0.204
Mof_C 	C 	0.32518	0.76034	0.43349	-0.317
Mof_C 	C 	0.3194	0.77863	0.4025	0.701
Mof_C 	C 	0.34975	0.80447	0.24425	-0.309
Mof_C 	C 	0.35306	0.83007	0.21586	0.199
Mof_C 	C 	0.34353	0.83534	0.19207	-0.313
Mof_C 	C 	0.33215	0.81316	0.19599	0.188
Mof_C 	C 	0.32917	0.7865	0.22392	-0.289
Mof_C 	C 	0.33823	0.78249	0.24792	0.186
Mof_C 	C 	0.31205	0.76604	0.23024	0.652
Mof_C 	C 	0.34147	0.86614	0.1654	0.699
Mof_C 	C 	0.35305	0.8043	0.27156	0.692
Mof_C 	C 	0.26953	0.9476	0.2214	-0.263
Mof_C 	C 	0.28852	0.92723	0.24154	0.157
Mof_C 	C 	0.2964	0.96472	0.06422	0.644
Mof_H 	H 	0.25351	0.71779	0.16996	0.003
Mof_H 	H 	0.35453	0.71663	0.42281	-0.017
Mof_H 	H 	0.36109	0.84737	0.21315	-0.017
Mof_H 	H 	0.32385	0.81766	0.17806	-0.013
Mof_H 	H 	0.33456	0.76328	0.27027	-0.012
Mof_H 	H 	0.31408	0.91838	0.23093	-0.006
Mof_Cr	Cr	0.84189	0.295	0.50366	2.401
Mof_Cr	Cr	0.90448	0.32011	0.66469	2.482
Mof_O 	O 	0.67003	0.3956	0.48882	-0.81
Mof_O 	O 	0.60505	0.41729	0.51049	-0.812
Mof_O 	O 	0.74468	0.30692	0.69111	-0.782
Mof_O 	O 	0.74729	0.24643	0.80302	-0.714
Mof_O 	O 	0.77167	0.30182	0.71724	-0.743
Mof_O 	O 	0.76431	0.33297	0.52007	-0.828
Mof_O 	O 	0.78247	0.34731	0.57236	-0.825
Mof_O 	O 	0.80799	0.30293	0.49277	-0.788
Mof_O 	O 	0.85819	0.46022	0.36245	-0.754
Mof_O 	O 	0.8785	0.28245	0.51346	-0.759
Mof_O 	O 	0.82704	0.3595	0.54547	-0.78
Mof_O 	O 	0.98116	0.28084	0.65527	-0.727
Mof_O 	O 	0.6559	0.24903	0.94807	-0.696
Mof_O 	O 	0.93483	0.30913	0.68168	-0.792
Mof_O 	O 	0.68258	0.27832	0.90252	-0.752
Mof_O 	O 	0.87024	0.3326	0.65275	-0.818
Mof_O 	O 	0.88752	0.34727	0.59987	-0.79
Mof_C 	C 	0.71088	0.23251	0.87136	0.122
Mof_C 	C 	0.69005	0.22742	0.90378	-0.227
Mof_C 	C 	0.67557	0.25281	0.91943	0.593
Mof_C 	C 	0.72842	0.34549	0.48651	0.204
Mof_C 	C 	0.76034	0.32518	0.48099	-0.317
Mof_C 	C 	0.77863	0.3194	0.49947	0.701
Mof_C 	C 	0.80447	0.34975	0.60153	-0.309
Mof_C 	C 	0.83007	0.35306	0.60101	0.199
Mof_C 	C 	0.83534	0.34353	0.62906	-0.313
Mof_C 	C 	0.81316	0.33215	0.6587	0.188
Mof_C 	C 	0.7865	0.32917	0.66041	-0.289
Mof_C 	C 	0.78249	0.33823	0.63136	0.186
Mof_C 	C 	0.76604	0.31205	0.69167	0.652
Mof_C 	C 	0.86614	0.34147	0.62699	0.699
Mof_C 	C 	0.8043	0.35305	0.57109	0.692
Mof_C 	C 	0.9476	0.26953	0.56147	-0.263
Mof_C 	C 	0.92723	0.28852	0.54271	0.157
Mof_C 	C 	0.96472	0.2964	0.67466	0.643
Mof_H 	H 	0.71779	0.25351	0.85874	0.002
Mof_H 	H 	0.71663	0.35453	0.50603	-0.017
Mof_H 	H 	0.84737	0.36109	0.57839	-0.017
Mof_H 	H 	0.81766	0.32385	0.68043	-0.014
Mof_H 	H 	0.76328	0.33456	0.63189	-0.012
Mof_H 	H 	0.91838	0.31408	0.53661	-0.006
Mof_Cr	Cr	0.295	0.50366	0.84189	2.401
Mof_Cr	Cr	0.32011	0.66469	0.90448	2.482
Mof_O 	O 	0.3956	0.48882	0.67003	-0.81
Mof_O 	O 	0.41729	0.51049	0.60505	-0.812
Mof_O 	O 	0.30692	0.69111	0.74468	-0.782
Mof_O 	O 	0.24643	0.80302	0.74729	-0.714
Mof_O 	O 	0.30182	0.71724	0.77167	-0.743
Mof_O 	O 	0.33297	0.52007	0.76431	-0.828
Mof_O 	O 	0.34731	0.57236	0.78247	-0.825
Mof_O 	O 	0.30293	0.49277	0.80799	-0.788
Mof_O 	O 	0.46022	0.36245	0.85819	-0.754
Mof_O 	O 	0.28245	0.51346	0.8785	-0.759
Mof_O 	O 	0.3595	0.54547	0.82704	-0.78
Mof_O 	O 	0.28084	0.65527	0.98116	-0.727
Mof_O 	O 	0.24903	0.94807	0.6559	-0.696
Mof_O 	O 	0.30913	0.68168	0.93483	-0.792
Mof_O 	O 	0.27832	0.90252	0.68258	-0.752
Mof_O 	O 	0.3326	0.65275	0.87024	-0.818
Mof_O 	O 	0.34727	0.59987	0.88752	-0.79
Mof_C 	C 	0.23251	0.87136	0.71088	0.122
Mof_C 	C 	0.22742	0.90378	0.69005	-0.227
Mof_C 	C 	0.25281	0.91943	0.67557	0.593
Mof_C 	C 	0.34549	0.48651	0.72842	0.204
Mof_C 	C 	0.32518	0.48099	0.76034	-0.317
Mof_C 	C 	0.3194	0.49947	0.77863	0.701
Mof_C 	C 	0.34975	0.60153	0.80447	-0.309
Mof_C 	C 	0.35306	0.60101	0.83007	0.199
Mof_C 	C 	0.34353	0.62906	0.83534	-0.313
Mof_C 	C 	0.33215	0.6587	0.81316	0.188
Mof_C 	C 	0.32917	0.66041	0.7865	-0.289
Mof_C 	C 	0.33823	0.63136	0.78249	0.186
Mof_C 	C 	0.31205	0.69167	0.76604	0.652
Mof_C 	C 	0.34147	0.62699	0.86614	0.699
Mof_C 	C 	0.35305	0.57109	0.8043	0.692
Mof_C 	C 	0.26953	0.56147	0.9476	-0.263
Mof_C 	C 	0.28852	0.54271	0.92723	0.157
Mof_C 	C 	0.2964	0.67466	0.96472	0.643
Mof_H 	H 	0.25351	0.85874	0.71779	0.002
Mof_H 	H 	0.35453	0.50603	0.71663	-0.017
Mof_H 	H 	0.36109	0.57839	0.84737	-0.017
Mof_H 	H 	0.32385	0.68043	0.81766	-0.014
Mof_H 	H 	0.33456	0.63189	0.76328	-0.012
Mof_H 	H 	0.31408	0.53661	0.91838	-0.006
Mof_Cr	Cr	0.84189	0.35945	0.295	2.401
Mof_Cr	Cr	0.90448	0.11072	0.32011	2.483
Mof_O 	O 	0.67003	0.44555	0.3956	-0.81
Mof_O 	O 	0.60505	0.46717	0.41729	-0.812
Mof_O 	O 	0.74468	0.25729	0.30692	-0.782
Mof_O 	O 	0.74729	0.20326	0.24643	-0.714
Mof_O 	O 	0.77167	0.20927	0.30182	-0.743
Mof_O 	O 	0.76431	0.38265	0.33297	-0.828
Mof_O 	O 	0.78247	0.29786	0.34731	-0.825
Mof_O 	O 	0.80799	0.39631	0.30293	-0.788
Mof_O 	O 	0.85819	0.31914	0.46022	-0.754
Mof_O 	O 	0.8785	0.32559	0.28245	-0.759
Mof_O 	O 	0.82704	0.26799	0.3595	-0.78
Mof_O 	O 	0.98116	0.08273	0.28084	-0.728
Mof_O 	O 	0.6559	0.147	0.24903	-0.697
Mof_O 	O 	0.93483	0.07436	0.30913	-0.793
Mof_O 	O 	0.68258	0.13658	0.27832	-0.752
Mof_O 	O 	0.87024	0.14441	0.3326	-0.818
Mof_O 	O 	0.88752	0.16534	0.34727	-0.79
Mof_C 	C 	0.71088	0.18525	0.23251	0.122
Mof_C 	C 	0.69005	0.17875	0.22742	-0.227
Mof_C 	C 	0.67557	0.15219	0.25281	0.593
Mof_C 	C 	0.72842	0.43958	0.34549	0.204
Mof_C 	C 	0.76034	0.43349	0.32518	-0.317
Mof_C 	C 	0.77863	0.4025	0.3194	0.701
Mof_C 	C 	0.80447	0.24425	0.34975	-0.309
Mof_C 	C 	0.83007	0.21586	0.35306	0.199
Mof_C 	C 	0.83534	0.19207	0.34353	-0.313
Mof_C 	C 	0.81316	0.19599	0.33215	0.188
Mof_C 	C 	0.7865	0.22392	0.32917	-0.289
Mof_C 	C 	0.78249	0.24792	0.33823	0.186
Mof_C 	C 	0.76604	0.23024	0.31205	0.652
Mof_C 	C 	0.86614	0.1654	0.34147	0.699
Mof_C 	C 	0.8043	0.27156	0.35305	0.692
Mof_C 	C 	0.9476	0.2214	0.26953	-0.263
Mof_C 	C 	0.92723	0.24154	0.28852	0.157
Mof_C 	C 	0.96472	0.06422	0.2964	0.644
Mof_H 	H 	0.71779	0.16996	0.25351	0.003
Mof_H 	H 	0.71663	0.42281	0.35453	-0.017
Mof_H 	H 	0.84737	0.21315	0.36109	-0.017
Mof_H 	H 	0.81766	0.17806	0.32385	-0.013
Mof_H 	H 	0.76328	0.27027	0.33456	-0.012
Mof_H 	H 	0.91838	0.23093	0.31408	-0.006
Mof_Cr	Cr	0.50366	0.295	0.35945	2.402
Mof_Cr	Cr	0.66469	0.32011	0.11072	2.483
Mof_O 	O 	0.48882	0.3956	0.44555	-0.81
Mof_O 	O 	0.51049	0.41729	0.46717	-0.812
Mof_O 	O 	0.69111	0.30692	0.25729	-0.782
Mof_O 	O 	0.80302	0.24643	0.20326	-0.714
Mof_O 	O 	0.71724	0.30182	0.20927	-0.743
Mof_O 	O 	0.52007	0.33297	0.38265	-0.828
Mof_O 	O 	0.57236	0.34731	0.29786	-0.825
Mof_O 	O 	0.49277	0.30293	0.39631	-0.788
Mof_O 	O 	0.36245	0.46022	0.31914	-0.754
Mof_O 	O 	0.51346	0.28245	0.32559	-0.759
Mof_O 	O 	0.54547	0.3595	0.26799	-0.78
Mof_O 	O 	0.65527	0.28084	0.08273	-0.727
Mof_O 	O 	0.94807	0.24903	0.147	-0.696
Mof_O 	O 	0.68168	0.30913	0.07436	-0.792
Mof_O 	O 	0.90252	0.27832	0.13658	-0.752
Mof_O 	O 	0.65275	0.3326	0.14441	-0.818
Mof_O 	O 	0.59987	0.34727	0.16534	-0.791
Mof_C 	C 	0.87136	0.23251	0.18525	0.122
Mof_C 	C 	0.90378	0.22742	0.17875	-0.226
Mof_C 	C 	0.91943	0.25281	0.15219	0.593
Mof_C 	C 	0.48651	0.34549	0.43958	0.204
Mof_C 	C 	0.48099	0.32518	0.43349	-0.317
Mof_C 	C 	0.49947	0.3194	0.4025	0.701
Mof_C 	C 	0.60153	0.34975	0.24425	-0.309
Mof_C 	C 	0.60101	0.35306	0.21586	0.199
Mof_C 	C 	0.62906	0.34353	0.19207	-0.313
Mof_C 	C 	0.6587	0.33215	0.19599	0.188
Mof_C 	C 	0.66041	0.32917	0.22392	-0.289
Mof_C 	C 	0.63136	0.33823	0.24792	0.186
Mof_C 	C 	0.69167	0.31205	0.23024	0.652
Mof_C 	C 	0.62699	0.34147	0.1654	0.699
Mof_C 	C 	0.57109	0.35305	0.27156	0.692
Mof_C 	C 	0.56147	0.26953	0.2214	-0.263
Mof_C 	C 	0.54271	0.28852	0.24154	0.157
Mof_C 	C 	0.67466	0.2964	0.06422	0.643
Mof_H 	H 	0.85874	0.25351	0.16996	0.003
Mof_H 	H 	0.50603	0.35453	0.42281	-0.017
Mof_H 	H 	0.57839	0.36109	0.21315	-0.017
Mof_H 	H 	0.68043	0.32385	0.17806	-0.013
Mof_H 	H 	0.63189	0.33456	0.27027	-0.012
Mof_H 	H 	0.53661	0.31408	0.23093	-0.006
Mof_Cr	Cr	0.35945	0.84189	0.50366	2.401
Mof_Cr	Cr	0.11072	0.90448	0.66469	2.483
Mof_O 	O 	0.44555	0.67003	0.48882	-0.81
Mof_O 	O 	0.46717	0.60505	0.51049	-0.812
Mof_O 	O 	0.25729	0.74468	0.69111	-0.782
Mof_O 	O 	0.20326	0.74729	0.80302	-0.714
Mof_O 	O 	0.20927	0.77167	0.71724	-0.743
Mof_O 	O 	0.38265	0.76431	0.52007	-0.828
Mof_O 	O 	0.29786	0.78247	0.57236	-0.825
Mof_O 	O 	0.39631	0.80799	0.49277	-0.788
Mof_O 	O 	0.31914	0.85819	0.36245	-0.754
Mof_O 	O 	0.32559	0.8785	0.51346	-0.759
Mof_O 	O 	0.26799	0.82704	0.54547	-0.78
Mof_O 	O 	0.08273	0.98116	0.65527	-0.728
Mof_O 	O 	0.147	0.6559	0.94807	-0.696
Mof_O 	O 	0.07436	0.93483	0.68168	-0.793
Mof_O 	O 	0.13658	0.68258	0.90252	-0.752
Mof_O 	O 	0.14441	0.87024	0.65275	-0.818
Mof_O 	O 	0.16534	0.88752	0.59987	-0.79
Mof_C 	C 	0.18525	0.71088	0.87136	0.122
Mof_C 	C 	0.17875	0.69005	0.90378	-0.227
Mof_C 	C 	0.15219	0.67557	0.91943	0.593
Mof_C 	C 	0.43958	0.72842	0.48651	0.204
Mof_C 	C 	0.43349	0.76034	0.48099	-0.317
Mof_C 	C 	0.4025	0.77863	0.49947	0.701
Mof_C 	C 	0.24425	0.80447	0.60153	-0.309
Mof_C 	C 	0.21586	0.83007	0.60101	0.199
Mof_C 	C 	0.19207	0.83534	0.62906	-0.313
Mof_C 	C 	0.19599	0.81316	0.6587	0.188
Mof_C 	C 	0.22392	0.7865	0.66041	-0.289
Mof_C 	C 	0.24792	0.78249	0.63136	0.186
Mof_C 	C 	0.23024	0.76604	0.69167	0.652
Mof_C 	C 	0.1654	0.86614	0.62699	0.699
Mof_C 	C 	0.27156	0.8043	0.57109	0.692
Mof_C 	C 	0.2214	0.9476	0.56147	-0.263
Mof_C 	C 	0.24154	0.92723	0.54271	0.157
Mof_C 	C 	0.06422	0.96472	0.67466	0.644
Mof_H 	H 	0.16996	0.71779	0.85874	0.002
Mof_H 	H 	0.42281	0.71663	0.50603	-0.017
Mof_H 	H 	0.21315	0.84737	0.57839	-0.017
Mof_H 	H 	0.17806	0.81766	0.68043	-0.013
Mof_H 	H 	0.27027	0.76328	0.63189	-0.012
Mof_H 	H 	0.23093	0.91838	0.53661	-0.006
Mof_Cr	Cr	0.35945	0.295	0.84189	2.401
Mof_Cr	Cr	0.11072	0.32011	0.90448	2.483
Mof_O 	O 	0.44555	0.3956	0.67003	-0.81
Mof_O 	O 	0.46717	0.41729	0.60505	-0.812
Mof_O 	O 	0.25729	0.30692	0.74468	-0.782
Mof_O 	O 	0.20326	0.24643	0.74729	-0.714
Mof_O 	O 	0.20927	0.30182	0.77167	-0.743
Mof_O 	O 	0.38265	0.33297	0.76431	-0.828
Mof_O 	O 	0.29786	0.34731	0.78247	-0.825
Mof_O 	O 	0.39631	0.30293	0.80799	-0.788
Mof_O 	O 	0.31914	0.46022	0.85819	-0.754
Mof_O 	O 	0.32559	0.28245	0.8785	-0.759
Mof_O 	O 	0.26799	0.3595	0.82704	-0.78
Mof_O 	O 	0.08273	0.28084	0.98116	-0.728
Mof_O 	O 	0.147	0.24903	0.6559	-0.697
Mof_O 	O 	0.07436	0.30913	0.93483	-0.793
Mof_O 	O 	0.13658	0.27832	0.68258	-0.752
Mof_O 	O 	0.14441	0.3326	0.87024	-0.818
Mof_O 	O 	0.16534	0.34727	0.88752	-0.79
Mof_C 	C 	0.18525	0.23251	0.71088	0.122
Mof_C 	C 	0.17875	0.22742	0.69005	-0.227
Mof_C 	C 	0.15219	0.25281	0.67557	0.593
Mof_C 	C 	0.43958	0.34549	0.72842	0.204
Mof_C 	C 	0.43349	0.32518	0.76034	-0.317
Mof_C 	C 	0.4025	0.3194	0.77863	0.701
Mof_C 	C 	0.24425	0.34975	0.80447	-0.309
Mof_C 	C 	0.21586	0.35306	0.83007	0.199
Mof_C 	C 	0.19207	0.34353	0.83534	-0.313
Mof_C 	C 	0.19599	0.33215	0.81316	0.188
Mof_C 	C 	0.22392	0.32917	0.7865	-0.289
Mof_C 	C 	0.24792	0.33823	0.78249	0.186
Mof_C 	C 	0.23024	0.31205	0.76604	0.652
Mof_C 	C 	0.1654	0.34147	0.86614	0.699
Mof_C 	C 	0.27156	0.35305	0.8043	0.692
Mof_C 	C 	0.2214	0.26953	0.9476	-0.263
Mof_C 	C 	0.24154	0.28852	0.92723	0.157
Mof_C 	C 	0.06422	0.2964	0.96472	0.644
Mof_H 	H 	0.16996	0.25351	0.71779	0.003
Mof_H 	H 	0.42281	0.35453	0.71663	-0.017
Mof_H 	H 	0.21315	0.36109	0.84737	-0.017
Mof_H 	H 	0.17806	0.32385	0.81766	-0.013
Mof_H 	H 	0.27027	0.33456	0.76328	-0.012
Mof_H 	H 	0.23093	0.31408	0.91838	-0.006
Mof_Cr	Cr	0.50366	0.84189	0.295	2.401
Mof_Cr	Cr	0.66469	0.90448	0.32011	2.482
Mof_O 	O 	0.48882	0.67003	0.3956	-0.81
Mof_O 	O 	0.51049	0.60505	0.41729	-0.812
Mof_O 	O 	0.69111	0.74468	0.30692	-0.782
Mof_O 	O 	0.80302	0.74729	0.24643	-0.714
Mof_O 	O 	0.71724	0.77167	0.30182	-0.743
Mof_O 	O 	0.52007	0.76431	0.33297	-0.828
Mof_O 	O 	0.57236	0.78247	0.34731	-0.825
Mof_O 	O 	0.49277	0.80799	0.30293	-0.788
Mof_O 	O 	0.36245	0.85819	0.46022	-0.754
Mof_O 	O 	0.51346	0.8785	0.28245	-0.759
Mof_O 	O 	0.54547	0.82704	0.3595	-0.78
Mof_O 	O 	0.65527	0.98116	0.28084	-0.727
Mof_O 	O 	0.94807	0.6559	0.24903	-0.696
Mof_O 	O 	0.68168	0.93483	0.30913	-0.792
Mof_O 	O 	0.90252	0.68258	0.27832	-0.752
Mof_O 	O 	0.65275	0.87024	0.3326	-0.818
Mof_O 	O 	0.59987	0.88752	0.34727	-0.79
Mof_C 	C 	0.87136	0.71088	0.23251	0.122
Mof_C 	C 	0.90378	0.69005	0.22742	-0.227
Mof_C 	C 	0.91943	0.67557	0.25281	0.593
Mof_C 	C 	0.48651	0.72842	0.34549	0.204
Mof_C 	C 	0.48099	0.76034	0.32518	-0.317
Mof_C 	C 	0.49947	0.77863	0.3194	0.701
Mof_C 	C 	0.60153	0.80447	0.34975	-0.309
Mof_C 	C 	0.60101	0.83007	0.35306	0.199
Mof_C 	C 	0.62906	0.83534	0.34353	-0.313
Mof_C 	C 	0.6587	0.81316	0.33215	0.188
Mof_C 	C 	0.66041	0.7865	0.32917	-0.289
Mof_C 	C 	0.63136	0.78249	0.33823	0.186
Mof_C 	C 	0.69167	0.76604	0.31205	0.652
Mof_C 	C 	0.62699	0.86614	0.34147	0.699
Mof_C 	C 	0.57109	0.8043	0.35305	0.692
Mof_C 	C 	0.56147	0.9476	0.26953	-0.263
Mof_C 	C 	0.54271	0.92723	0.28852	0.157
Mof_C 	C 	0.67466	0.96472	0.2964	0.643
Mof_H 	H 	0.85874	0.71779	0.25351	0.002
Mof_H 	H 	0.50603	0.71663	0.35453	-0.017
Mof_H 	H 	0.57839	0.84737	0.36109	-0.017
Mof_H 	H 	0.68043	0.81766	0.32385	-0.014
Mof_H 	H 	0.63189	0.76328	0.33456	-0.012
Mof_H 	H 	0.53661	0.91838	0.31408	-0.006
Mof_Cr	Cr	0.84189	0.50366	0.35945	2.401
Mof_Cr	Cr	0.90448	0.66469	0.11072	2.483
Mof_O 	O 	0.67003	0.48882	0.44555	-0.81
Mof_O 	O 	0.60505	0.51049	0.46717	-0.812
Mof_O 	O 	0.74468	0.69111	0.25729	-0.782
Mof_O 	O 	0.74729	0.80302	0.20326	-0.714
Mof_O 	O 	0.77167	0.71724	0.20927	-0.743
Mof_O 	O 	0.76431	0.52007	0.38265	-0.828
Mof_O 	O 	0.78247	0.57236	0.29786	-0.825
Mof_O 	O 	0.80799	0.49277	0.39631	-0.788
Mof_O 	O 	0.85819	0.36245	0.31914	-0.754
Mof_O 	O 	0.8785	0.51346	0.32559	-0.759
Mof_O 	O 	0.82704	0.54547	0.26799	-0.78
Mof_O 	O 	0.98116	0.65527	0.08273	-0.728
Mof_O 	O 	0.6559	0.94807	0.147	-0.696
Mof_O 	O 	0.93483	0.68168	0.07436	-0.793
Mof_O 	O 	0.68258	0.90252	0.13658	-0.752
Mof_O 	O 	0.87024	0.65275	0.14441	-0.818
Mof_O 	O 	0.88752	0.59987	0.16534	-0.79
Mof_C 	C 	0.71088	0.87136	0.18525	0.122
Mof_C 	C 	0.69005	0.90378	0.17875	-0.227
Mof_C 	C 	0.67557	0.91943	0.15219	0.593
Mof_C 	C 	0.72842	0.48651	0.43958	0.204
Mof_C 	C 	0.76034	0.48099	0.43349	-0.317
Mof_C 	C 	0.77863	0.49947	0.4025	0.701
Mof_C 	C 	0.80447	0.60153	0.24425	-0.309
Mof_C 	C 	0.83007	0.60101	0.21586	0.199
Mof_C 	C 	0.83534	0.62906	0.19207	-0.313
Mof_C 	C 	0.81316	0.6587	0.19599	0.188
Mof_C 	C 	0.7865	0.66041	0.22392	-0.289
Mof_C 	C 	0.78249	0.63136	0.24792	0.186
Mof_C 	C 	0.76604	0.69167	0.23024	0.652
Mof_C 	C 	0.86614	0.62699	0.1654	0.699
Mof_C 	C 	0.8043	0.57109	0.27156	0.692
Mof_C 	C 	0.9476	0.56147	0.2214	-0.263
Mof_C 	C 	0.92723	0.54271	0.24154	0.157
Mof_C 	C 	0.96472	0.67466	0.06422	0.644
Mof_H 	H 	0.71779	0.85874	0.16996	0.002
Mof_H 	H 	0.71663	0.50603	0.42281	-0.017
Mof_H 	H 	0.84737	0.57839	0.21315	-0.017
Mof_H 	H 	0.81766	0.68043	0.17806	-0.013
Mof_H 	H 	0.76328	0.63189	0.27027	-0.012
Mof_H 	H 	0.91838	0.53661	0.23093	-0.006
Mof_Cr	Cr	0.295	0.35945	0.50366	2.402
Mof_Cr	Cr	0.32011	0.11072	0.66469	2.483
Mof_O 	O 	0.3956	0.44555	0.48882	-0.81
Mof_O 	O 	0.41729	0.46717	0.51049	-0.812
Mof_O 	O 	0.30692	0.25729	0.69111	-0.782
Mof_O 	O 	0.24643	0.20326	0.80302	-0.714
Mof_O 	O 	0.30182	0.20927	0.71724	-0.743
Mof_O 	O 	0.33297	0.38265	0.52007	-0.828
Mof_O 	O 	0.34731	0.29786	0.57236	-0.825
Mof_O 	O 	0.30293	0.39631	0.49277	-0.788
Mof_O 	O 	0.46022	0.31914	0.36245	-0.754
Mof_O 	O 	0.28245	0.32559	0.51346	-0.759
Mof_O 	O 	0.3595	0.26799	0.54547	-0.78
Mof_O 	O 	0.28084	0.08273	0.65527	-0.727
Mof_O 	O 	0.24903	0.147	0.94807	-0.696
Mof_O 	O 	0.30913	0.07436	0.68168	-0.792
Mof_O 	O 	0.27832	0.13658	0.90252	-0.752
Mof_O 	O 	0.3326	0.14441	0.65275	-0.818
Mof_O 	O 	0.34727	0.16534	0.59987	-0.791
Mof_C 	C 	0.23251	0.18525	0.87136	0.122
Mof_C 	C 	0.22742	0.17875	0.90378	-0.226
Mof_C 	C 	0.25281	0.15219	0.91943	0.593
Mof_C 	C 	0.34549	0.43958	0.48651	0.204
Mof_C 	C 	0.32518	0.43349	0.48099	-0.317
Mof_C 	C 	0.3194	0.4025	0.49947	0.701
Mof_C 	C 	0.34975	0.24425	0.60153	-0.309
Mof_C 	C 	0.35306	0.21586	0.60101	0.199
Mof_C 	C 	0.34353	0.19207	0.62906	-0.313
Mof_C 	C 	0.33215	0.19599	0.6587	0.188
Mof_C 	C 	0.32917	0.22392	0.66041	-0.289
Mof_C 	C 	0.33823	0.24792	0.63136	0.186
Mof_C 	C 	0.31205	0.23024	0.69167	0.652
Mof_C 	C 	0.34147	0.1654	0.62699	0.699
Mof_C 	C 	0.35305	0.27156	0.57109	0.692
Mof_C 	C 	0.26953	0.2214	0.56147	-0.263
Mof_C 	C 	0.28852	0.24154	0.54271	0.157
Mof_C 	C 	0.2964	0.06422	0.67466	0.643
Mof_H 	H 	0.25351	0.16996	0.85874	0.003
Mof_H 	H 	0.35453	0.42281	0.50603	-0.017
Mof_H 	H 	0.36109	0.21315	0.57839	-0.017
Mof_H 	H 	0.32385	0.17806	0.68043	-0.013
Mof_H 	H 	0.33456	0.27027	0.63189	-0.012
Mof_H 	H 	0.31408	0.23093	0.53661	-0.006
Mof_Cr	Cr	0.50366	0.35945	0.295	2.402
Mof_Cr	Cr	0.66469	0.11072	0.32011	2.483
Mof_O 	O 	0.48882	0.44555	0.3956	-0.81
Mof_O 	O 	0.51049	0.46717	0.41729	-0.812
Mof_O 	O 	0.69111	0.25729	0.30692	-0.782
Mof_O 	O 	0.80302	0.20326	0.24643	-0.714
Mof_O 	O 	0.71724	0.20927	0.30182	-0.743
Mof_O 	O 	0.52007	0.38265	0.33297	-0.828
Mof_O 	O 	0.57236	0.29786	0.34731	-0.825
Mof_O 	O 	0.49277	0.39631	0.30293	-0.788
Mof_O 	O 	0.36245	0.31914	0.46022	-0.754
Mof_O 	O 	0.51346	0.32559	0.28245	-0.759
Mof_O 	O 	0.54547	0.26799	0.3595	-0.78
Mof_O 	O 	0.65527	0.08273	0.28084	-0.727
Mof_O 	O 	0.94807	0.147	0.24903	-0.696
Mof_O 	O 	0.68168	0.07436	0.30913	-0.792
Mof_O 	O 	0.90252	0.13658	0.27832	-0.752
Mof_O 	O 	0.65275	0.14441	0.3326	-0.818
Mof_O 	O 	0.59987	0.16534	0.34727	-0.791
Mof_C 	C 	0.87136	0.18525	0.23251	0.122
Mof_C 	C 	0.90378	0.17875	0.22742	-0.226
Mof_C 	C 	0.91943	0.15219	0.25281	0.593
Mof_C 	C 	0.48651	0.43958	0.34549	0.204
Mof_C 	C 	0.48099	0.43349	0.32518	-0.317
Mof_C 	C 	0.49947	0.4025	0.3194	0.701
Mof_C 	C 	0.60153	0.24425	0.34975	-0.309
Mof_C 	C 	0.60101	0.21586	0.35306	0.199
Mof_C 	C 	0.62906	0.19207	0.34353	-0.313
Mof_C 	C 	0.6587	0.19599	0.33215	0.188
Mof_C 	C 	0.66041	0.22392	0.32917	-0.289
Mof_C 	C 	0.63136	0.24792	0.33823	0.186
Mof_C 	C 	0.69167	0.23024	0.31205	0.652
Mof_C 	C 	0.62699	0.1654	0.34147	0.699
Mof_C 	C 	0.57109	0.27156	0.35305	0.692
Mof_C 	C 	0.56147	0.2214	0.26953	-0.263
Mof_C 	C 	0.54271	0.24154	0.28852	0.157
Mof_C 	C 	0.67466	0.06422	0.2964	0.643
Mof_H 	H 	0.85874	0.16996	0.25351	0.003
Mof_H 	H 	0.50603	0.42281	0.35453	-0.017
Mof_H 	H 	0.57839	0.21315	0.36109	-0.017
Mof_H 	H 	0.68043	0.17806	0.32385	-0.013
Mof_H 	H 	0.63189	0.27027	0.33456	-0.012
Mof_H 	H 	0.53661	0.23093	0.31408	-0.006
Mof_Cr	Cr	0.35945	0.50366	0.84189	2.401
Mof_Cr	Cr	0.11072	0.66469	0.90448	2.483
Mof_O 	O 	0.44555	0.48882	0.67003	-0.81
Mof_O 	O 	0.46717	0.51049	0.60505	-0.812
Mof_O 	O 	0.25729	0.69111	0.74468	-0.782
Mof_O 	O 	0.20326	0.80302	0.74729	-0.714
Mof_O 	O 	0.20927	0.71724	0.77167	-0.743
Mof_O 	O 	0.38265	0.52007	0.76431	-0.828
Mof_O 	O 	0.29786	0.57236	0.78247	-0.825
Mof_O 	O 	0.39631	0.49277	0.80799	-0.788
Mof_O 	O 	0.31914	0.36245	0.85819	-0.754
Mof_O 	O 	0.32559	0.51346	0.8785	-0.759
Mof_O 	O 	0.26799	0.54547	0.82704	-0.78
Mof_O 	O 	0.08273	0.65527	0.98116	-0.728
Mof_O 	O 	0.147	0.94807	0.6559	-0.696
Mof_O 	O 	0.07436	0.68168	0.93483	-0.793
Mof_O 	O 	0.13658	0.90252	0.68258	-0.752
Mof_O 	O 	0.14441	0.65275	0.87024	-0.818
Mof_O 	O 	0.16534	0.59987	0.88752	-0.79
Mof_C 	C 	0.18525	0.87136	0.71088	0.122
Mof_C 	C 	0.17875	0.90378	0.69005	-0.227
Mof_C 	C 	0.15219	0.91943	0.67557	0.593
Mof_C 	C 	0.43958	0.48651	0.72842	0.204
Mof_C 	C 	0.43349	0.48099	0.76034	-0.317
Mof_C 	C 	0.4025	0.49947	0.77863	0.701
Mof_C 	C 	0.24425	0.60153	0.80447	-0.309
Mof_C 	C 	0.21586	0.60101	0.83007	0.199
Mof_C 	C 	0.19207	0.62906	0.83534	-0.313
Mof_C 	C 	0.19599	0.6587	0.81316	0.188
Mof_C 	C 	0.22392	0.66041	0.7865	-0.289
Mof_C 	C 	0.24792	0.63136	0.78249	0.186
Mof_C 	C 	0.23024	0.69167	0.76604	0.652
Mof_C 	C 	0.1654	0.62699	0.86614	0.699
Mof_C 	C 	0.27156	0.57109	0.8043	0.692
Mof_C 	C 	0.2214	0.56147	0.9476	-0.263
Mof_C 	C 	0.24154	0.54271	0.92723	0.157
Mof_C 	C 	0.06422	0.67466	0.96472	0.644
Mof_H 	H 	0.16996	0.85874	0.71779	0.002
Mof_H 	H 	0.42281	0.50603	0.71663	-0.017
Mof_H 	H 	0.21315	0.57839	0.84737	-0.017
Mof_H 	H 	0.17806	0.68043	0.81766	-0.013
Mof_H 	H 	0.27027	0.63189	0.76328	-0.012
Mof_H 	H 	0.23093	0.53661	0.91838	-0.006
Mof_Cr	Cr	0.295	0.84189	0.50366	2.401
Mof_Cr	Cr	0.32011	0.90448	0.66469	2.482
Mof_O 	O 	0.3956	0.67003	0.48882	-0.81
Mof_O 	O 	0.41729	0.60505	0.51049	-0.812
Mof_O 	O 	0.30692	0.74468	0.69111	-0.782
Mof_O 	O 	0.24643	0.74729	0.80302	-0.714
Mof_O 	O 	0.30182	0.77167	0.71724	-0.743
Mof_O 	O 	0.33297	0.76431	0.52007	-0.828
Mof_O 	O 	0.34731	0.78247	0.57236	-0.825
Mof_O 	O 	0.30293	0.80799	0.49277	-0.788
Mof_O 	O 	0.46022	0.85819	0.36245	-0.754
Mof_O 	O 	0.28245	0.8785	0.51346	-0.759
Mof_O 	O 	0.3595	0.82704	0.54547	-0.78
Mof_O 	O 	0.28084	0.98116	0.65527	-0.727
Mof_O 	O 	0.24903	0.6559	0.94807	-0.696
Mof_O 	O 	0.30913	0.93483	0.68168	-0.792
Mof_O 	O 	0.27832	0.68258	0.90252	-0.752
Mof_O 	O 	0.3326	0.87024	0.65275	-0.818
Mof_O 	O 	0.34727	0.88752	0.59987	-0.79
Mof_C 	C 	0.23251	0.71088	0.87136	0.122
Mof_C 	C 	0.22742	0.69005	0.90378	-0.227
Mof_C 	C 	0.25281	0.67557	0.91943	0.593
Mof_C 	C 	0.34549	0.72842	0.48651	0.204
Mof_C 	C 	0.32518	0.76034	0.48099	-0.317
Mof_C 	C 	0.3194	0.77863	0.49947	0.701
Mof_C 	C 	0.34975	0.80447	0.60153	-0.309
Mof_C 	C 	0.35306	0.83007	0.60101	0.199
Mof_C 	C 	0.34353	0.83534	0.62906	-0.313
Mof_C 	C 	0.33215	0.81316	0.6587	0.188
Mof_C 	C 	0.32917	0.7865	0.66041	-0.289
Mof_C 	C 	0.33823	0.78249	0.63136	0.186
Mof_C 	C 	0.31205	0.76604	0.69167	0.652
Mof_C 	C 	0.34147	0.86614	0.62699	0.699
Mof_C 	C 	0.35305	0.8043	0.57109	0.692
Mof_C 	C 	0.26953	0.9476	0.56147	-0.263
Mof_C 	C 	0.28852	0.92723	0.54271	0.157
Mof_C 	C 	0.2964	0.96472	0.67466	0.643
Mof_H 	H 	0.25351	0.71779	0.85874	0.002
Mof_H 	H 	0.35453	0.71663	0.50603	-0.017
Mof_H 	H 	0.36109	0.84737	0.57839	-0.017
Mof_H 	H 	0.32385	0.81766	0.68043	-0.014
Mof_H 	H 	0.33456	0.76328	0.63189	-0.012
Mof_H 	H 	0.31408	0.91838	0.53661	-0.006
Mof_Cr	Cr	0.84189	0.295	0.35945	2.401
Mof_Cr	Cr	0.90448	0.32011	0.11072	2.483
Mof_O 	O 	0.67003	0.3956	0.44555	-0.81
Mof_O 	O 	0.60505	0.41729	0.46717	-0.812
Mof_O 	O 	0.74468	0.30692	0.25729	-0.782
Mof_O 	O 	0.74729	0.24643	0.20326	-0.714
Mof_O 	O 	0.77167	0.30182	0.20927	-0.743
Mof_O 	O 	0.76431	0.33297	0.38265	-0.828
Mof_O 	O 	0.78247	0.34731	0.29786	-0.825
Mof_O 	O 	0.80799	0.30293	0.39631	-0.788
Mof_O 	O 	0.85819	0.46022	0.31914	-0.754
Mof_O 	O 	0.8785	0.28245	0.32559	-0.759
Mof_O 	O 	0.82704	0.3595	0.26799	-0.78
Mof_O 	O 	0.98116	0.28084	0.08273	-0.728
Mof_O 	O 	0.6559	0.24903	0.147	-0.697
Mof_O 	O 	0.93483	0.30913	0.07436	-0.793
Mof_O 	O 	0.68258	0.27832	0.13658	-0.752
Mof_O 	O 	0.87024	0.3326	0.14441	-0.818
Mof_O 	O 	0.88752	0.34727	0.16534	-0.79
Mof_C 	C 	0.71088	0.23251	0.18525	0.122
Mof_C 	C 	0.69005	0.22742	0.17875	-0.227
Mof_C 	C 	0.67557	0.25281	0.15219	0.593
Mof_C 	C 	0.72842	0.34549	0.43958	0.204
Mof_C 	C 	0.76034	0.32518	0.43349	-0.317
Mof_C 	C 	0.77863	0.3194	0.4025	0.701
Mof_C 	C 	0.80447	0.34975	0.24425	-0.309
Mof_C 	C 	0.83007	0.35306	0.21586	0.199
Mof_C 	C 	0.83534	0.34353	0.19207	-0.313
Mof_C 	C 	0.81316	0.33215	0.19599	0.188
Mof_C 	C 	0.7865	0.32917	0.22392	-0.289
Mof_C 	C 	0.78249	0.33823	0.24792	0.186
Mof_C 	C 	0.76604	0.31205	0.23024	0.652
Mof_C 	C 	0.86614	0.34147	0.1654	0.699
Mof_C 	C 	0.8043	0.35305	0.27156	0.692
Mof_C 	C 	0.9476	0.26953	0.2214	-0.263
Mof_C 	C 	0.92723	0.28852	0.24154	0.157
Mof_C 	C 	0.96472	0.2964	0.06422	0.644
Mof_H 	H 	0.71779	0.25351	0.16996	0.003
Mof_H 	H 	0.71663	0.35453	0.42281	-0.017
Mof_H 	H 	0.84737	0.36109	0.21315	-0.017
Mof_H 	H 	0.81766	0.32385	0.17806	-0.013
Mof_H 	H 	0.76328	0.33456	0.27027	-0.012
Mof_H 	H 	0.91838	0.31408	0.23093	-0.006
Mof_Cr	Cr	0.295	0.50366	0.35945	2.402
Mof_Cr	Cr	0.32011	0.66469	0.11072	2.483
Mof_O 	O 	0.3956	0.48882	0.44555	-0.81
Mof_O 	O 	0.41729	0.51049	0.46717	-0.812
Mof_O 	O 	0.30692	0.69111	0.25729	-0.782
Mof_O 	O 	0.24643	0.80302	0.20326	-0.714
Mof_O 	O 	0.30182	0.71724	0.20927	-0.743
Mof_O 	O 	0.33297	0.52007	0.38265	-0.828
Mof_O 	O 	0.34731	0.57236	0.29786	-0.825
Mof_O 	O 	0.30293	0.49277	0.39631	-0.788
Mof_O 	O 	0.46022	0.36245	0.31914	-0.754
Mof_O 	O 	0.28245	0.51346	0.32559	-0.759
Mof_O 	O 	0.3595	0.54547	0.26799	-0.78
Mof_O 	O 	0.28084	0.65527	0.08273	-0.727
Mof_O 	O 	0.24903	0.94807	0.147	-0.696
Mof_O 	O 	0.30913	0.68168	0.07436	-0.792
Mof_O 	O 	0.27832	0.90252	0.13658	-0.752
Mof_O 	O 	0.3326	0.65275	0.14441	-0.818
Mof_O 	O 	0.34727	0.59987	0.16534	-0.791
Mof_C 	C 	0.23251	0.87136	0.18525	0.122
Mof_C 	C 	0.22742	0.90378	0.17875	-0.226
Mof_C 	C 	0.25281	0.91943	0.15219	0.593
Mof_C 	C 	0.34549	0.48651	0.43958	0.204
Mof_C 	C 	0.32518	0.48099	0.43349	-0.317
Mof_C 	C 	0.3194	0.49947	0.4025	0.701
Mof_C 	C 	0.34975	0.60153	0.24425	-0.309
Mof_C 	C 	0.35306	0.60101	0.21586	0.199
Mof_C 	C 	0.34353	0.62906	0.19207	-0.313
Mof_C 	C 	0.33215	0.6587	0.19599	0.188
Mof_C 	C 	0.32917	0.66041	0.22392	-0.289
Mof_C 	C 	0.33823	0.63136	0.24792	0.186
Mof_C 	C 	0.31205	0.69167	0.23024	0.652
Mof_C 	C 	0.34147	0.62699	0.1654	0.699
Mof_C 	C 	0.35305	0.57109	0.27156	0.692
Mof_C 	C 	0.26953	0.56147	0.2214	-0.263
Mof_C 	C 	0.28852	0.54271	0.24154	0.157
Mof_C 	C 	0.2964	0.67466	0.06422	0.643
Mof_H 	H 	0.25351	0.85874	0.16996	0.003
Mof_H 	H 	0.35453	0.50603	0.42281	-0.017
Mof_H 	H 	0.36109	0.57839	0.21315	-0.017
Mof_H 	H 	0.32385	0.68043	0.17806	-0.013
Mof_H 	H 	0.33456	0.63189	0.27027	-0.012
Mof_H 	H 	0.31408	0.53661	0.23093	-0.006
Mof_Cr	Cr	0.84189	0.35945	0.50366	2.401
Mof_Cr	Cr	0.90448	0.11072	0.66469	2.483
Mof_O 	O 	0.67003	0.44555	0.48882	-0.81
Mof_O 	O 	0.60505	0.46717	0.51049	-0.812
Mof_O 	O 	0.74468	0.25729	0.69111	-0.782
Mof_O 	O 	0.74729	0.20326	0.80302	-0.714
Mof_O 	O 	0.77167	0.20927	0.71724	-0.743
Mof_O 	O 	0.76431	0.38265	0.52007	-0.828
Mof_O 	O 	0.78247	0.29786	0.57236	-0.825
Mof_O 	O 	0.80799	0.39631	0.49277	-0.788
Mof_O 	O 	0.85819	0.31914	0.36245	-0.754
Mof_O 	O 	0.8785	0.32559	0.51346	-0.759
Mof_O 	O 	0.82704	0.26799	0.54547	-0.78
Mof_O 	O 	0.98116	0.08273	0.65527	-0.728
Mof_O 	O 	0.6559	0.147	0.94807	-0.696
Mof_O 	O 	0.93483	0.07436	0.68168	-0.793
Mof_O 	O 	0.68258	0.13658	0.90252	-0.752
Mof_O 	O 	0.87024	0.14441	0.65275	-0.818
Mof_O 	O 	0.88752	0.16534	0.59987	-0.79
Mof_C 	C 	0.71088	0.18525	0.87136	0.122
Mof_C 	C 	0.69005	0.17875	0.90378	-0.227
Mof_C 	C 	0.67557	0.15219	0.91943	0.593
Mof_C 	C 	0.72842	0.43958	0.48651	0.204
Mof_C 	C 	0.76034	0.43349	0.48099	-0.317
Mof_C 	C 	0.77863	0.4025	0.49947	0.701
Mof_C 	C 	0.80447	0.24425	0.60153	-0.309
Mof_C 	C 	0.83007	0.21586	0.60101	0.199
Mof_C 	C 	0.83534	0.19207	0.62906	-0.313
Mof_C 	C 	0.81316	0.19599	0.6587	0.188
Mof_C 	C 	0.7865	0.22392	0.66041	-0.289
Mof_C 	C 	0.78249	0.24792	0.63136	0.186
Mof_C 	C 	0.76604	0.23024	0.69167	0.652
Mof_C 	C 	0.86614	0.1654	0.62699	0.699
Mof_C 	C 	0.8043	0.27156	0.57109	0.692
Mof_C 	C 	0.9476	0.2214	0.56147	-0.263
Mof_C 	C 	0.92723	0.24154	0.54271	0.157
Mof_C 	C 	0.96472	0.06422	0.67466	0.644
Mof_H 	H 	0.71779	0.16996	0.85874	0.002
Mof_H 	H 	0.71663	0.42281	0.50603	-0.017
Mof_H 	H 	0.84737	0.21315	0.57839	-0.017
Mof_H 	H 	0.81766	0.17806	0.68043	-0.013
Mof_H 	H 	0.76328	0.27027	0.63189	-0.012
Mof_H 	H 	0.91838	0.23093	0.53661	-0.006
Mof_Cr	Cr	0.50366	0.295	0.84189	2.401
Mof_Cr	Cr	0.66469	0.32011	0.90448	2.482
Mof_O 	O 	0.48882	0.3956	0.67003	-0.81
Mof_O 	O 	0.51049	0.41729	0.60505	-0.812
Mof_O 	O 	0.69111	0.30692	0.74468	-0.782
Mof_O 	O 	0.80302	0.24643	0.74729	-0.714
Mof_O 	O 	0.71724	0.30182	0.77167	-0.743
Mof_O 	O 	0.52007	0.33297	0.76431	-0.828
Mof_O 	O 	0.57236	0.34731	0.78247	-0.825
Mof_O 	O 	0.49277	0.30293	0.80799	-0.788
Mof_O 	O 	0.36245	0.46022	0.85819	-0.754
Mof_O 	O 	0.51346	0.28245	0.8785	-0.759
Mof_O 	O 	0.54547	0.3595	0.82704	-0.78
Mof_O 	O 	0.65527	0.28084	0.98116	-0.727
Mof_O 	O 	0.94807	0.24903	0.6559	-0.696
Mof_O 	O 	0.68168	0.30913	0.93483	-0.792
Mof_O 	O 	0.90252	0.27832	0.68258	-0.752
Mof_O 	O 	0.65275	0.3326	0.87024	-0.818
Mof_O 	O 	0.59987	0.34727	0.88752	-0.79
Mof_C 	C 	0.87136	0.23251	0.71088	0.122
Mof_C 	C 	0.90378	0.22742	0.69005	-0.227
Mof_C 	C 	0.91943	0.25281	0.67557	0.593
Mof_C 	C 	0.48651	0.34549	0.72842	0.204
Mof_C 	C 	0.48099	0.32518	0.76034	-0.317
Mof_C 	C 	0.49947	0.3194	0.77863	0.701
Mof_C 	C 	0.60153	0.34975	0.80447	-0.309
Mof_C 	C 	0.60101	0.35306	0.83007	0.199
Mof_C 	C 	0.62906	0.34353	0.83534	-0.313
Mof_C 	C 	0.6587	0.33215	0.81316	0.188
Mof_C 	C 	0.66041	0.32917	0.7865	-0.289
Mof_C 	C 	0.63136	0.33823	0.78249	0.186
Mof_C 	C 	0.69167	0.31205	0.76604	0.652
Mof_C 	C 	0.62699	0.34147	0.86614	0.699
Mof_C 	C 	0.57109	0.35305	0.8043	0.692
Mof_C 	C 	0.56147	0.26953	0.9476	-0.263
Mof_C 	C 	0.54271	0.28852	0.92723	0.157
Mof_C 	C 	0.67466	0.2964	0.96472	0.643
Mof_H 	H 	0.85874	0.25351	0.71779	0.002
Mof_H 	H 	0.50603	0.35453	0.71663	-0.017
Mof_H 	H 	0.57839	0.36109	0.84737	-0.017
Mof_H 	H 	0.68043	0.32385	0.81766	-0.014
Mof_H 	H 	0.63189	0.33456	0.76328	-0.012
Mof_H 	H 	0.53661	0.31408	0.91838	-0.006
Mof_Cr	Cr	0.35945	0.84189	0.295	2.401
Mof_Cr	Cr	0.11072	0.90448	0.32011	2.483
Mof_O 	O 	0.44555	0.67003	0.3956	-0.81
Mof_O 	O 	0.46717	0.60505	0.41729	-0.812
Mof_O 	O 	0.25729	0.74468	0.30692	-0.782
Mof_O 	O 	0.20326	0.74729	0.24643	-0.714
Mof_O 	O 	0.20927	0.77167	0.30182	-0.743
Mof_O 	O 	0.38265	0.76431	0.33297	-0.828
Mof_O 	O 	0.29786	0.78247	0.34731	-0.825
Mof_O 	O 	0.39631	0.80799	0.30293	-0.788
Mof_O 	O 	0.31914	0.85819	0.46022	-0.754
Mof_O 	O 	0.32559	0.8785	0.28245	-0.759
Mof_O 	O 	0.26799	0.82704	0.3595	-0.78
Mof_O 	O 	0.08273	0.98116	0.28084	-0.728
Mof_O 	O 	0.147	0.6559	0.24903	-0.697
Mof_O 	O 	0.07436	0.93483	0.30913	-0.793
Mof_O 	O 	0.13658	0.68258	0.27832	-0.752
Mof_O 	O 	0.14441	0.87024	0.3326	-0.818
Mof_O 	O 	0.16534	0.88752	0.34727	-0.79
Mof_C 	C 	0.18525	0.71088	0.23251	0.122
Mof_C 	C 	0.17875	0.69005	0.22742	-0.227
Mof_C 	C 	0.15219	0.67557	0.25281	0.593
Mof_C 	C 	0.43958	0.72842	0.34549	0.204
Mof_C 	C 	0.43349	0.76034	0.32518	-0.317
Mof_C 	C 	0.4025	0.77863	0.3194	0.701
Mof_C 	C 	0.24425	0.80447	0.34975	-0.309
Mof_C 	C 	0.21586	0.83007	0.35306	0.199
Mof_C 	C 	0.19207	0.83534	0.34353	-0.313
Mof_C 	C 	0.19599	0.81316	0.33215	0.188
Mof_C 	C 	0.22392	0.7865	0.32917	-0.289
Mof_C 	C 	0.24792	0.78249	0.33823	0.186
Mof_C 	C 	0.23024	0.76604	0.31205	0.652
Mof_C 	C 	0.1654	0.86614	0.34147	0.699
Mof_C 	C 	0.27156	0.8043	0.35305	0.692
Mof_C 	C 	0.2214	0.9476	0.26953	-0.263
Mof_C 	C 	0.24154	0.92723	0.28852	0.157
Mof_C 	C 	0.06422	0.96472	0.2964	0.644
Mof_H 	H 	0.16996	0.71779	0.25351	0.003
Mof_H 	H 	0.42281	0.71663	0.35453	-0.017
Mof_H 	H 	0.21315	0.84737	0.36109	-0.017
Mof_H 	H 	0.17806	0.81766	0.32385	-0.013
Mof_H 	H 	0.27027	0.76328	0.33456	-0.012
Mof_H 	H 	0.23093	0.91838	0.31408	-0.006
Mof_Cr	Cr	0.35945	0.295	0.50366	2.402
Mof_Cr	Cr	0.11072	0.32011	0.66469	2.483
Mof_O 	O 	0.44555	0.3956	0.48882	-0.81
Mof_O 	O 	0.46717	0.41729	0.51049	-0.812
Mof_O 	O 	0.25729	0.30692	0.69111	-0.782
Mof_O 	O 	0.20326	0.24643	0.80302	-0.714
Mof_O 	O 	0.20927	0.30182	0.71724	-0.743
Mof_O 	O 	0.38265	0.33297	0.52007	-0.828
Mof_O 	O 	0.29786	0.34731	0.57236	-0.825
Mof_O 	O 	0.39631	0.30293	0.49277	-0.788
Mof_O 	O 	0.31914	0.46022	0.36245	-0.754
Mof_O 	O 	0.32559	0.28245	0.51346	-0.759
Mof_O 	O 	0.26799	0.3595	0.54547	-0.78
Mof_O 	O 	0.08273	0.28084	0.65527	-0.727
Mof_O 	O 	0.147	0.24903	0.94807	-0.696
Mof_O 	O 	0.07436	0.30913	0.68168	-0.792
Mof_O 	O 	0.13658	0.27832	0.90252	-0.752
Mof_O 	O 	0.14441	0.3326	0.65275	-0.818
Mof_O 	O 	0.16534	0.34727	0.59987	-0.791
Mof_C 	C 	0.18525	0.23251	0.87136	0.122
Mof_C 	C 	0.17875	0.22742	0.90378	-0.226
Mof_C 	C 	0.15219	0.25281	0.91943	0.593
Mof_C 	C 	0.43958	0.34549	0.48651	0.204
Mof_C 	C 	0.43349	0.32518	0.48099	-0.317
Mof_C 	C 	0.4025	0.3194	0.49947	0.701
Mof_C 	C 	0.24425	0.34975	0.60153	-0.309
Mof_C 	C 	0.21586	0.35306	0.60101	0.199
Mof_C 	C 	0.19207	0.34353	0.62906	-0.313
Mof_C 	C 	0.19599	0.33215	0.6587	0.188
Mof_C 	C 	0.22392	0.32917	0.66041	-0.289
Mof_C 	C 	0.24792	0.33823	0.63136	0.186
Mof_C 	C 	0.23024	0.31205	0.69167	0.652
Mof_C 	C 	0.1654	0.34147	0.62699	0.699
Mof_C 	C 	0.27156	0.35305	0.57109	0.692
Mof_C 	C 	0.2214	0.26953	0.56147	-0.263
Mof_C 	C 	0.24154	0.28852	0.54271	0.157
Mof_C 	C 	0.06422	0.2964	0.67466	0.643
Mof_H 	H 	0.16996	0.25351	0.85874	0.003
Mof_H 	H 	0.42281	0.35453	0.50603	-0.017
Mof_H 	H 	0.21315	0.36109	0.57839	-0.017
Mof_H 	H 	0.17806	0.32385	0.68043	-0.013
Mof_H 	H 	0.27027	0.33456	0.63189	-0.012
Mof_H 	H 	0.23093	0.31408	0.53661	-0.006
Mof_Cr	Cr	0.50366	0.84189	0.35945	2.401
Mof_Cr	Cr	0.66469	0.90448	0.11072	2.483
Mof_O 	O 	0.48882	0.67003	0.44555	-0.81
Mof_O 	O 	0.51049	0.60505	0.46717	-0.812
Mof_O 	O 	0.69111	0.74468	0.25729	-0.782
Mof_O 	O 	0.80302	0.74729	0.20326	-0.714
Mof_O 	O 	0.71724	0.77167	0.20927	-0.743
Mof_O 	O 	0.52007	0.76431	0.38265	-0.828
Mof_O 	O 	0.57236	0.78247	0.29786	-0.825
Mof_O 	O 	0.49277	0.80799	0.39631	-0.788
Mof_O 	O 	0.36245	0.85819	0.31914	-0.754
Mof_O 	O 	0.51346	0.8785	0.32559	-0.759
Mof_O 	O 	0.54547	0.82704	0.26799	-0.78
Mof_O 	O 	0.65527	0.98116	0.08273	-0.728
Mof_O 	O 	0.94807	0.6559	0.147	-0.696
Mof_O 	O 	0.68168	0.93483	0.07436	-0.793
Mof_O 	O 	0.90252	0.68258	0.13658	-0.752
Mof_O 	O 	0.65275	0.87024	0.14441	-0.818
Mof_O 	O 	0.59987	0.88752	0.16534	-0.79
Mof_C 	C 	0.87136	0.71088	0.18525	0.122
Mof_C 	C 	0.90378	0.69005	0.17875	-0.227
Mof_C 	C 	0.91943	0.67557	0.15219	0.593
Mof_C 	C 	0.48651	0.72842	0.43958	0.204
Mof_C 	C 	0.48099	0.76034	0.43349	-0.317
Mof_C 	C 	0.49947	0.77863	0.4025	0.701
Mof_C 	C 	0.60153	0.80447	0.24425	-0.309
Mof_C 	C 	0.60101	0.83007	0.21586	0.199
Mof_C 	C 	0.62906	0.83534	0.19207	-0.313
Mof_C 	C 	0.6587	0.81316	0.19599	0.188
Mof_C 	C 	0.66041	0.7865	0.22392	-0.289
Mof_C 	C 	0.63136	0.78249	0.24792	0.186
Mof_C 	C 	0.69167	0.76604	0.23024	0.652
Mof_C 	C 	0.62699	0.86614	0.1654	0.699
Mof_C 	C 	0.57109	0.8043	0.27156	0.692
Mof_C 	C 	0.56147	0.9476	0.2214	-0.263
Mof_C 	C 	0.54271	0.92723	0.24154	0.157
Mof_C 	C 	0.67466	0.96472	0.06422	0.644
Mof_H 	H 	0.85874	0.71779	0.16996	0.002
Mof_H 	H 	0.50603	0.71663	0.42281	-0.017
Mof_H 	H 	0.57839	0.84737	0.21315	-0.017
Mof_H 	H 	0.68043	0.81766	0.17806	-0.013
Mof_H 	H 	0.63189	0.76328	0.27027	-0.012
Mof_H 	H 	0.53661	0.91838	0.23093	-0.006
Mof_Cr	Cr	0.84189	0.50366	0.295	2.401
Mof_Cr	Cr	0.90448	0.66469	0.32011	2.482
Mof_O 	O 	0.67003	0.48882	0.3956	-0.81
Mof_O 	O 	0.60505	0.51049	0.41729	-0.812
Mof_O 	O 	0.74468	0.69111	0.30692	-0.782
Mof_O 	O 	0.74729	0.80302	0.24643	-0.714
Mof_O 	O 	0.77167	0.71724	0.30182	-0.743
Mof_O 	O 	0.76431	0.52007	0.33297	-0.828
Mof_O 	O 	0.78247	0.57236	0.34731	-0.825
Mof_O 	O 	0.80799	0.49277	0.30293	-0.788
Mof_O 	O 	0.85819	0.36245	0.46022	-0.754
Mof_O 	O 	0.8785	0.51346	0.28245	-0.759
Mof_O 	O 	0.82704	0.54547	0.3595	-0.78
Mof_O 	O 	0.98116	0.65527	0.28084	-0.727
Mof_O 	O 	0.6559	0.94807	0.24903	-0.696
Mof_O 	O 	0.93483	0.68168	0.30913	-0.792
Mof_O 	O 	0.68258	0.90252	0.27832	-0.752
Mof_O 	O 	0.87024	0.65275	0.3326	-0.818
Mof_O 	O 	0.88752	0.59987	0.34727	-0.79
Mof_C 	C 	0.71088	0.87136	0.23251	0.122
Mof_C 	C 	0.69005	0.90378	0.22742	-0.227
Mof_C 	C 	0.67557	0.91943	0.25281	0.593
Mof_C 	C 	0.72842	0.48651	0.34549	0.204
Mof_C 	C 	0.76034	0.48099	0.32518	-0.317
Mof_C 	C 	0.77863	0.49947	0.3194	0.701
Mof_C 	C 	0.80447	0.60153	0.34975	-0.309
Mof_C 	C 	0.83007	0.60101	0.35306	0.199
Mof_C 	C 	0.83534	0.62906	0.34353	-0.313
Mof_C 	C 	0.81316	0.6587	0.33215	0.188
Mof_C 	C 	0.7865	0.66041	0.32917	-0.289
Mof_C 	C 	0.78249	0.63136	0.33823	0.186
Mof_C 	C 	0.76604	0.69167	0.31205	0.652
Mof_C 	C 	0.86614	0.62699	0.34147	0.699
Mof_C 	C 	0.8043	0.57109	0.35305	0.692
Mof_C 	C 	0.9476	0.56147	0.26953	-0.263
Mof_C 	C 	0.92723	0.54271	0.28852	0.157
Mof_C 	C 	0.96472	0.67466	0.2964	0.643
Mof_H 	H 	0.71779	0.85874	0.25351	0.002
Mof_H 	H 	0.71663	0.50603	0.35453	-0.017
Mof_H 	H 	0.84737	0.57839	0.36109	-0.017
Mof_H 	H 	0.81766	0.68043	0.32385	-0.014
Mof_H 	H 	0.76328	0.63189	0.33456	-0.012
Mof_H 	H 	0.91838	0.53661	0.31408	-0.006
Mof_Cr	Cr	0.295	0.35945	0.84189	2.401
Mof_Cr	Cr	0.32011	0.11072	0.90448	2.483
Mof_O 	O 	0.3956	0.44555	0.67003	-0.81
Mof_O 	O 	0.41729	0.46717	0.60505	-0.812
Mof_O 	O 	0.30692	0.25729	0.74468	-0.782
Mof_O 	O 	0.24643	0.20326	0.74729	-0.714
Mof_O 	O 	0.30182	0.20927	0.77167	-0.743
Mof_O 	O 	0.33297	0.38265	0.76431	-0.828
Mof_O 	O 	0.34731	0.29786	0.78247	-0.825
Mof_O 	O 	0.30293	0.39631	0.80799	-0.788
Mof_O 	O 	0.46022	0.31914	0.85819	-0.754
Mof_O 	O 	0.28245	0.32559	0.8785	-0.759
Mof_O 	O 	0.3595	0.26799	0.82704	-0.78
Mof_O 	O 	0.28084	0.08273	0.98116	-0.728
Mof_O 	O 	0.24903	0.147	0.6559	-0.697
Mof_O 	O 	0.30913	0.07436	0.93483	-0.793
Mof_O 	O 	0.27832	0.13658	0.68258	-0.752
Mof_O 	O 	0.3326	0.14441	0.87024	-0.818
Mof_O 	O 	0.34727	0.16534	0.88752	-0.79
Mof_C 	C 	0.23251	0.18525	0.71088	0.122
Mof_C 	C 	0.22742	0.17875	0.69005	-0.227
Mof_C 	C 	0.25281	0.15219	0.67557	0.593
Mof_C 	C 	0.34549	0.43958	0.72842	0.204
Mof_C 	C 	0.32518	0.43349	0.76034	-0.317
Mof_C 	C 	0.3194	0.4025	0.77863	0.701
Mof_C 	C 	0.34975	0.24425	0.80447	-0.309
Mof_C 	C 	0.35306	0.21586	0.83007	0.199
Mof_C 	C 	0.34353	0.19207	0.83534	-0.313
Mof_C 	C 	0.33215	0.19599	0.81316	0.188
Mof_C 	C 	0.32917	0.22392	0.7865	-0.289
Mof_C 	C 	0.33823	0.24792	0.78249	0.186
Mof_C 	C 	0.31205	0.23024	0.76604	0.652
Mof_C 	C 	0.34147	0.1654	0.86614	0.699
Mof_C 	C 	0.35305	0.27156	0.8043	0.692
Mof_C 	C 	0.26953	0.2214	0.9476	-0.263
Mof_C 	C 	0.28852	0.24154	0.92723	0.157
Mof_C 	C 	0.2964	0.06422	0.96472	0.644
Mof_H 	H 	0.25351	0.16996	0.71779	0.003
Mof_H 	H 	0.35453	0.42281	0.71663	-0.017
Mof_H 	H 	0.36109	0.21315	0.84737	-0.017
Mof_H 	H 	0.32385	0.17806	0.81766	-0.013
Mof_H 	H 	0.33456	0.27027	0.76328	-0.012
Mof_H 	H 	0.31408	0.23093	0.91838	-0.006
Mof_Cr	Cr	0.74634	0.89055	0.40811	2.402
Mof_Cr	Cr	0.58531	0.13928	0.34552	2.482
Mof_O 	O 	0.76118	0.80445	0.57997	-0.81
Mof_O 	O 	0.73951	0.78283	0.64495	-0.812
Mof_O 	O 	0.55889	0.99271	0.50532	-0.786
Mof_O 	O 	0.44698	0.04674	0.50271	-0.715
Mof_O 	O 	0.53276	0.04073	0.47833	-0.744
Mof_O 	O 	0.72993	0.86735	0.48569	-0.827
Mof_O 	O 	0.67764	0.95214	0.46753	-0.824
Mof_O 	O 	0.75723	0.85369	0.44201	-0.788
Mof_O 	O 	0.88755	0.93086	0.39181	-0.754
Mof_O 	O 	0.73654	0.92441	0.3715	-0.759
Mof_O 	O 	0.70453	0.98201	0.42296	-0.781
Mof_O 	O 	0.59473	0.16727	0.26884	-0.727
Mof_O 	O 	0.30193	0.103	0.5941	-0.697
Mof_O 	O 	0.56832	0.17564	0.31517	-0.792
Mof_O 	O 	0.34748	0.11342	0.56742	-0.752
Mof_O 	O 	0.59725	0.10559	0.37976	-0.818
Mof_O 	O 	0.65013	0.08466	0.36248	-0.791
Mof_C 	C 	0.37864	0.06475	0.53912	0.123
Mof_C 	C 	0.34622	0.07125	0.55995	-0.226
Mof_C 	C 	0.33057	0.09781	0.57443	0.593
Mof_C 	C 	0.76349	0.81042	0.52158	0.204
Mof_C 	C 	0.76901	0.81651	0.48966	-0.317
Mof_C 	C 	0.75053	0.8475	0.47137	0.701
Mof_C 	C 	0.64847	0.00575	0.44553	-0.307
Mof_C 	C 	0.64899	0.03414	0.41993	0.199
Mof_C 	C 	0.62094	0.05793	0.41466	-0.313
Mof_C 	C 	0.5913	0.05401	0.43684	0.189
Mof_C 	C 	0.58959	0.02608	0.4635	-0.291
Mof_C 	C 	0.61864	0.00208	0.46751	0.191
Mof_C 	C 	0.55833	0.01976	0.48396	0.657
Mof_C 	C 	0.62301	0.0846	0.38386	0.699
Mof_C 	C 	0.67891	0.97844	0.4457	0.689
Mof_C 	C 	0.68853	0.0286	0.3024	-0.266
Mof_C 	C 	0.70729	0.00846	0.32277	0.163
Mof_C 	C 	0.57534	0.18578	0.28528	0.642
Mof_H 	H 	0.39126	0.08004	0.53221	0.002
Mof_H 	H 	0.74397	0.82719	0.53337	-0.017
Mof_H 	H 	0.67161	0.03685	0.40263	-0.016
Mof_H 	H 	0.56957	0.07194	0.43234	-0.014
Mof_H 	H 	0.61811	0.97973	0.48672	-0.015
Mof_H 	H 	0.71339	0.01907	0.33162	-0.006
Mof_Cr	Cr	0.89055	0.74634	0.955	2.4
Mof_Cr	Cr	0.13928	0.58531	0.92989	2.481
Mof_O 	O 	0.80445	0.76118	0.8544	-0.81
Mof_O 	O 	0.78283	0.73951	0.83271	-0.812
Mof_O 	O 	0.99271	0.55889	0.94308	-0.786
Mof_O 	O 	0.04674	0.44698	0.00357	-0.711
Mof_O 	O 	0.04073	0.53276	0.94818	-0.743
Mof_O 	O 	0.86735	0.72993	0.91703	-0.827
Mof_O 	O 	0.95214	0.67764	0.90269	-0.824
Mof_O 	O 	0.85369	0.75723	0.94707	-0.788
Mof_O 	O 	0.93086	0.88755	0.78978	-0.754
Mof_O 	O 	0.92441	0.73654	0.96755	-0.761
Mof_O 	O 	0.98201	0.70453	0.8905	-0.781
Mof_O 	O 	0.16727	0.59473	0.96916	-0.726
Mof_O 	O 	0.103	0.30193	0.00097	-0.69
Mof_O 	O 	0.17564	0.56832	0.94087	-0.792
Mof_O 	O 	0.11342	0.34748	0.97168	-0.75
Mof_O 	O 	0.10559	0.59725	0.9174	-0.818
Mof_O 	O 	0.08466	0.65013	0.90273	-0.791
Mof_C 	C 	0.06475	0.37864	0.01749	0.126
Mof_C 	C 	0.07125	0.34622	0.02258	-0.223
Mof_C 	C 	0.09781	0.33057	0.99719	0.585
Mof_C 	C 	0.81042	0.76349	0.90451	0.204
Mof_C 	C 	0.81651	0.76901	0.92482	-0.317
Mof_C 	C 	0.8475	0.75053	0.9306	0.7
Mof_C 	C 	0.00575	0.64847	0.90025	-0.307
Mof_C 	C 	0.03414	0.64899	0.89694	0.199
Mof_C 	C 	0.05793	0.62094	0.90647	-0.313
Mof_C 	C 	0.05401	0.5913	0.91785	0.188
Mof_C 	C 	0.02608	0.58959	0.92083	-0.291
Mof_C 	C 	0.00208	0.61864	0.91177	0.191
Mof_C 	C 	0.01976	0.55833	0.93795	0.657
Mof_C 	C 	0.0846	0.62301	0.90853	0.699
Mof_C 	C 	0.97844	0.67891	0.89695	0.689
Mof_C 	C 	0.0286	0.68853	0.98047	-0.271
Mof_C 	C 	0.00846	0.70729	0.96148	0.166
Mof_C 	C 	0.18578	0.57534	0.9536	0.641
Mof_H 	H 	0.08004	0.39126	0.99649	-0.001
Mof_H 	H 	0.82719	0.74397	0.89547	-0.017
Mof_H 	H 	0.03685	0.67161	0.88891	-0.016
Mof_H 	H 	0.07194	0.56957	0.92615	-0.014
Mof_H 	H 	0.97973	0.61811	0.91544	-0.015
Mof_H 	H 	0.01907	0.71339	0.93592	-0.007
Mof_Cr	Cr	0.955	0.40811	0.89055	2.4
Mof_Cr	Cr	0.92989	0.34552	0.13928	2.481
Mof_O 	O 	0.8544	0.57997	0.80445	-0.81
Mof_O 	O 	0.83271	0.64495	0.78283	-0.812
Mof_O 	O 	0.94308	0.50532	0.99271	-0.786
Mof_O 	O 	0.00357	0.50271	0.04674	-0.711
Mof_O 	O 	0.94818	0.47833	0.04073	-0.744
Mof_O 	O 	0.91703	0.48569	0.86735	-0.827
Mof_O 	O 	0.90269	0.46753	0.95214	-0.824
Mof_O 	O 	0.94707	0.44201	0.85369	-0.788
Mof_O 	O 	0.78978	0.39181	0.93086	-0.754
Mof_O 	O 	0.96755	0.3715	0.92441	-0.761
Mof_O 	O 	0.8905	0.42296	0.98201	-0.781
Mof_O 	O 	0.96916	0.26884	0.16727	-0.726
Mof_O 	O 	0.00097	0.5941	0.103	-0.69
Mof_O 	O 	0.94087	0.31517	0.17564	-0.792
Mof_O 	O 	0.97168	0.56742	0.11342	-0.75
Mof_O 	O 	0.9174	0.37976	0.10559	-0.818
Mof_O 	O 	0.90273	0.36248	0.08466	-0.791
Mof_C 	C 	0.01749	0.53912	0.06475	0.126
Mof_C 	C 	0.02258	0.55995	0.07125	-0.223
Mof_C 	C 	0.99719	0.57443	0.09781	0.585
Mof_C 	C 	0.90451	0.52158	0.81042	0.204
Mof_C 	C 	0.92482	0.48966	0.81651	-0.317
Mof_C 	C 	0.9306	0.47137	0.8475	0.7
Mof_C 	C 	0.90025	0.44553	0.00575	-0.307
Mof_C 	C 	0.89694	0.41993	0.03414	0.199
Mof_C 	C 	0.90647	0.41466	0.05793	-0.313
Mof_C 	C 	0.91785	0.43684	0.05401	0.188
Mof_C 	C 	0.92083	0.4635	0.02608	-0.292
Mof_C 	C 	0.91177	0.46751	0.00208	0.191
Mof_C 	C 	0.93795	0.48396	0.01976	0.657
Mof_C 	C 	0.90853	0.38386	0.0846	0.699
Mof_C 	C 	0.89695	0.4457	0.97844	0.689
Mof_C 	C 	0.98047	0.3024	0.0286	-0.272
Mof_C 	C 	0.96148	0.32277	0.00846	0.166
Mof_C 	C 	0.9536	0.28528	0.18578	0.641
Mof_H 	H 	0.99649	0.53221	0.08004	-0.001
Mof_H 	H 	0.89547	0.53337	0.82719	-0.017
Mof_H 	H 	0.88891	0.40263	0.03685	-0.016
Mof_H 	H 	0.92615	0.43234	0.07194	-0.014
Mof_H 	H 	0.91544	0.48672	0.97973	-0.015
Mof_H 	H 	0.93592	0.33162	0.01907	-0.007
Mof_Cr	Cr	0.40811	0.955	0.74634	2.4
Mof_Cr	Cr	0.34552	0.92989	0.58531	2.481
Mof_O 	O 	0.57997	0.8544	0.76118	-0.81
Mof_O 	O 	0.64495	0.83271	0.73951	-0.812
Mof_O 	O 	0.50532	0.94308	0.55889	-0.782
Mof_O 	O 	0.50271	0.00357	0.44698	-0.711
Mof_O 	O 	0.47833	0.94818	0.53276	-0.742
Mof_O 	O 	0.48569	0.91703	0.72993	-0.828
Mof_O 	O 	0.46753	0.90269	0.67764	-0.825
Mof_O 	O 	0.44201	0.94707	0.75723	-0.788
Mof_O 	O 	0.39181	0.78978	0.88755	-0.754
Mof_O 	O 	0.3715	0.96755	0.73654	-0.76
Mof_O 	O 	0.42296	0.8905	0.70453	-0.78
Mof_O 	O 	0.26884	0.96916	0.59473	-0.726
Mof_O 	O 	0.5941	0.00097	0.30193	-0.69
Mof_O 	O 	0.31517	0.94087	0.56832	-0.792
Mof_O 	O 	0.56742	0.97168	0.34748	-0.751
Mof_O 	O 	0.37976	0.9174	0.59725	-0.818
Mof_O 	O 	0.36248	0.90273	0.65013	-0.791
Mof_C 	C 	0.53912	0.01749	0.37864	0.126
Mof_C 	C 	0.55995	0.02258	0.34622	-0.223
Mof_C 	C 	0.57443	0.99719	0.33057	0.585
Mof_C 	C 	0.52158	0.90451	0.76349	0.204
Mof_C 	C 	0.48966	0.92482	0.76901	-0.317
Mof_C 	C 	0.47137	0.9306	0.75053	0.701
Mof_C 	C 	0.44553	0.90025	0.64847	-0.309
Mof_C 	C 	0.41993	0.89694	0.64899	0.199
Mof_C 	C 	0.41466	0.90647	0.62094	-0.313
Mof_C 	C 	0.43684	0.91785	0.5913	0.187
Mof_C 	C 	0.4635	0.92083	0.58959	-0.29
Mof_C 	C 	0.46751	0.91177	0.61864	0.186
Mof_C 	C 	0.48396	0.93795	0.55833	0.651
Mof_C 	C 	0.38386	0.90853	0.62301	0.698
Mof_C 	C 	0.4457	0.89695	0.67891	0.692
Mof_C 	C 	0.3024	0.98047	0.68853	-0.269
Mof_C 	C 	0.32277	0.96148	0.70729	0.16
Mof_C 	C 	0.28528	0.9536	0.57534	0.641
Mof_H 	H 	0.53221	0.99649	0.39126	-0.001
Mof_H 	H 	0.53337	0.89547	0.74397	-0.017
Mof_H 	H 	0.40263	0.88891	0.67161	-0.017
Mof_H 	H 	0.43234	0.92615	0.56957	-0.014
Mof_H 	H 	0.48672	0.91544	0.61811	-0.012
Mof_H 	H 	0.33162	0.93592	0.71339	-0.007
Mof_Cr	Cr	0.955	0.74634	0.40811	2.4
Mof_Cr	Cr	0.92989	0.58531	0.34552	2.481
Mof_O 	O 	0.8544	0.76118	0.57997	-0.81
Mof_O 	O 	0.83271	0.73951	0.64495	-0.812
Mof_O 	O 	0.94308	0.55889	0.50532	-0.782
Mof_O 	O 	0.00357	0.44698	0.50271	-0.711
Mof_O 	O 	0.94818	0.53276	0.47833	-0.742
Mof_O 	O 	0.91703	0.72993	0.48569	-0.828
Mof_O 	O 	0.90269	0.67764	0.46753	-0.825
Mof_O 	O 	0.94707	0.75723	0.44201	-0.788
Mof_O 	O 	0.78978	0.88755	0.39181	-0.754
Mof_O 	O 	0.96755	0.73654	0.3715	-0.76
Mof_O 	O 	0.8905	0.70453	0.42296	-0.78
Mof_O 	O 	0.96916	0.59473	0.26884	-0.726
Mof_O 	O 	0.00097	0.30193	0.5941	-0.69
Mof_O 	O 	0.94087	0.56832	0.31517	-0.792
Mof_O 	O 	0.97168	0.34748	0.56742	-0.751
Mof_O 	O 	0.9174	0.59725	0.37976	-0.818
Mof_O 	O 	0.90273	0.65013	0.36248	-0.791
Mof_C 	C 	0.01749	0.37864	0.53912	0.126
Mof_C 	C 	0.02258	0.34622	0.55995	-0.223
Mof_C 	C 	0.99719	0.33057	0.57443	0.585
Mof_C 	C 	0.90451	0.76349	0.52158	0.204
Mof_C 	C 	0.92482	0.76901	0.48966	-0.317
Mof_C 	C 	0.9306	0.75053	0.47137	0.701
Mof_C 	C 	0.90025	0.64847	0.44553	-0.309
Mof_C 	C 	0.89694	0.64899	0.41993	0.199
Mof_C 	C 	0.90647	0.62094	0.41466	-0.313
Mof_C 	C 	0.91785	0.5913	0.43684	0.187
Mof_C 	C 	0.92083	0.58959	0.4635	-0.29
Mof_C 	C 	0.91177	0.61864	0.46751	0.186
Mof_C 	C 	0.93795	0.55833	0.48396	0.651
Mof_C 	C 	0.90853	0.62301	0.38386	0.698
Mof_C 	C 	0.89695	0.67891	0.4457	0.692
Mof_C 	C 	0.98047	0.68853	0.3024	-0.269
Mof_C 	C 	0.96148	0.70729	0.32277	0.16
Mof_C 	C 	0.9536	0.57534	0.28528	0.641
Mof_H 	H 	0.99649	0.39126	0.53221	-0.001
Mof_H 	H 	0.89547	0.74397	0.53337	-0.017
Mof_H 	H 	0.88891	0.67161	0.40263	-0.017
Mof_H 	H 	0.92615	0.56957	0.43234	-0.014
Mof_H 	H 	0.91544	0.61811	0.48672	-0.012
Mof_H 	H 	0.93592	0.71339	0.33162	-0.007
Mof_Cr	Cr	0.40811	0.89055	0.955	2.4
Mof_Cr	Cr	0.34552	0.13928	0.92989	2.481
Mof_O 	O 	0.57997	0.80445	0.8544	-0.81
Mof_O 	O 	0.64495	0.78283	0.83271	-0.812
Mof_O 	O 	0.50532	0.99271	0.94308	-0.786
Mof_O 	O 	0.50271	0.04674	0.00357	-0.711
Mof_O 	O 	0.47833	0.04073	0.94818	-0.744
Mof_O 	O 	0.48569	0.86735	0.91703	-0.827
Mof_O 	O 	0.46753	0.95214	0.90269	-0.824
Mof_O 	O 	0.44201	0.85369	0.94707	-0.788
Mof_O 	O 	0.39181	0.93086	0.78978	-0.754
Mof_O 	O 	0.3715	0.92441	0.96755	-0.761
Mof_O 	O 	0.42296	0.98201	0.8905	-0.781
Mof_O 	O 	0.26884	0.16727	0.96916	-0.726
Mof_O 	O 	0.5941	0.103	0.00097	-0.69
Mof_O 	O 	0.31517	0.17564	0.94087	-0.792
Mof_O 	O 	0.56742	0.11342	0.97168	-0.75
Mof_O 	O 	0.37976	0.10559	0.9174	-0.818
Mof_O 	O 	0.36248	0.08466	0.90273	-0.791
Mof_C 	C 	0.53912	0.06475	0.01749	0.126
Mof_C 	C 	0.55995	0.07125	0.02258	-0.223
Mof_C 	C 	0.57443	0.09781	0.99719	0.585
Mof_C 	C 	0.52158	0.81042	0.90451	0.204
Mof_C 	C 	0.48966	0.81651	0.92482	-0.317
Mof_C 	C 	0.47137	0.8475	0.9306	0.7
Mof_C 	C 	0.44553	0.00575	0.90025	-0.307
Mof_C 	C 	0.41993	0.03414	0.89694	0.199
Mof_C 	C 	0.41466	0.05793	0.90647	-0.313
Mof_C 	C 	0.43684	0.05401	0.91785	0.188
Mof_C 	C 	0.4635	0.02608	0.92083	-0.292
Mof_C 	C 	0.46751	0.00208	0.91177	0.191
Mof_C 	C 	0.48396	0.01976	0.93795	0.657
Mof_C 	C 	0.38386	0.0846	0.90853	0.699
Mof_C 	C 	0.4457	0.97844	0.89695	0.689
Mof_C 	C 	0.3024	0.0286	0.98047	-0.272
Mof_C 	C 	0.32277	0.00846	0.96148	0.166
Mof_C 	C 	0.28528	0.18578	0.9536	0.641
Mof_H 	H 	0.53221	0.08004	0.99649	-0.001
Mof_H 	H 	0.53337	0.82719	0.89547	-0.017
Mof_H 	H 	0.40263	0.03685	0.88891	-0.016
Mof_H 	H 	0.43234	0.07194	0.92615	-0.014
Mof_H 	H 	0.48672	0.97973	0.91544	-0.015
Mof_H 	H 	0.33162	0.01907	0.93592	-0.007
Mof_Cr	Cr	0.74634	0.955	0.89055	2.4
Mof_Cr	Cr	0.58531	0.92989	0.13928	2.481
Mof_O 	O 	0.76118	0.8544	0.80445	-0.81
Mof_O 	O 	0.73951	0.83271	0.78283	-0.812
Mof_O 	O 	0.55889	0.94308	0.99271	-0.786
Mof_O 	O 	0.44698	0.00357	0.04674	-0.711
Mof_O 	O 	0.53276	0.94818	0.04073	-0.743
Mof_O 	O 	0.72993	0.91703	0.86735	-0.827
Mof_O 	O 	0.67764	0.90269	0.95214	-0.824
Mof_O 	O 	0.75723	0.94707	0.85369	-0.788
Mof_O 	O 	0.88755	0.78978	0.93086	-0.754
Mof_O 	O 	0.73654	0.96755	0.92441	-0.761
Mof_O 	O 	0.70453	0.8905	0.98201	-0.781
Mof_O 	O 	0.59473	0.96916	0.16727	-0.726
Mof_O 	O 	0.30193	0.00097	0.103	-0.69
Mof_O 	O 	0.56832	0.94087	0.17564	-0.792
Mof_O 	O 	0.34748	0.97168	0.11342	-0.75
Mof_O 	O 	0.59725	0.9174	0.10559	-0.818
Mof_O 	O 	0.65013	0.90273	0.08466	-0.791
Mof_C 	C 	0.37864	0.01749	0.06475	0.126
Mof_C 	C 	0.34622	0.02258	0.07125	-0.223
Mof_C 	C 	0.33057	0.99719	0.09781	0.585
Mof_C 	C 	0.76349	0.90451	0.81042	0.204
Mof_C 	C 	0.76901	0.92482	0.81651	-0.317
Mof_C 	C 	0.75053	0.9306	0.8475	0.7
Mof_C 	C 	0.64847	0.90025	0.00575	-0.307
Mof_C 	C 	0.64899	0.89694	0.03414	0.199
Mof_C 	C 	0.62094	0.90647	0.05793	-0.313
Mof_C 	C 	0.5913	0.91785	0.05401	0.188
Mof_C 	C 	0.58959	0.92083	0.02608	-0.291
Mof_C 	C 	0.61864	0.91177	0.00208	0.191
Mof_C 	C 	0.55833	0.93795	0.01976	0.657
Mof_C 	C 	0.62301	0.90853	0.0846	0.699
Mof_C 	C 	0.67891	0.89695	0.97844	0.689
Mof_C 	C 	0.68853	0.98047	0.0286	-0.271
Mof_C 	C 	0.70729	0.96148	0.00846	0.166
Mof_C 	C 	0.57534	0.9536	0.18578	0.641
Mof_H 	H 	0.39126	0.99649	0.08004	-0.001
Mof_H 	H 	0.74397	0.89547	0.82719	-0.017
Mof_H 	H 	0.67161	0.88891	0.03685	-0.016
Mof_H 	H 	0.56957	0.92615	0.07194	-0.014
Mof_H 	H 	0.61811	0.91544	0.97973	-0.015
Mof_H 	H 	0.71339	0.93592	0.01907	-0.007
Mof_Cr	Cr	0.89055	0.40811	0.74634	2.402
Mof_Cr	Cr	0.13928	0.34552	0.58531	2.482
Mof_O 	O 	0.80445	0.57997	0.76118	-0.81
Mof_O 	O 	0.78283	0.64495	0.73951	-0.812
Mof_O 	O 	0.99271	0.50532	0.55889	-0.786
Mof_O 	O 	0.04674	0.50271	0.44698	-0.715
Mof_O 	O 	0.04073	0.47833	0.53276	-0.744
Mof_O 	O 	0.86735	0.48569	0.72993	-0.827
Mof_O 	O 	0.95214	0.46753	0.67764	-0.824
Mof_O 	O 	0.85369	0.44201	0.75723	-0.788
Mof_O 	O 	0.93086	0.39181	0.88755	-0.754
Mof_O 	O 	0.92441	0.3715	0.73654	-0.759
Mof_O 	O 	0.98201	0.42296	0.70453	-0.781
Mof_O 	O 	0.16727	0.26884	0.59473	-0.727
Mof_O 	O 	0.103	0.5941	0.30193	-0.697
Mof_O 	O 	0.17564	0.31517	0.56832	-0.792
Mof_O 	O 	0.11342	0.56742	0.34748	-0.752
Mof_O 	O 	0.10559	0.37976	0.59725	-0.818
Mof_O 	O 	0.08466	0.36248	0.65013	-0.791
Mof_C 	C 	0.06475	0.53912	0.37864	0.123
Mof_C 	C 	0.07125	0.55995	0.34622	-0.226
Mof_C 	C 	0.09781	0.57443	0.33057	0.593
Mof_C 	C 	0.81042	0.52158	0.76349	0.204
Mof_C 	C 	0.81651	0.48966	0.76901	-0.317
Mof_C 	C 	0.8475	0.47137	0.75053	0.701
Mof_C 	C 	0.00575	0.44553	0.64847	-0.307
Mof_C 	C 	0.03414	0.41993	0.64899	0.199
Mof_C 	C 	0.05793	0.41466	0.62094	-0.313
Mof_C 	C 	0.05401	0.43684	0.5913	0.189
Mof_C 	C 	0.02608	0.4635	0.58959	-0.291
Mof_C 	C 	0.00208	0.46751	0.61864	0.191
Mof_C 	C 	0.01976	0.48396	0.55833	0.657
Mof_C 	C 	0.0846	0.38386	0.62301	0.699
Mof_C 	C 	0.97844	0.4457	0.67891	0.689
Mof_C 	C 	0.0286	0.3024	0.68853	-0.266
Mof_C 	C 	0.00846	0.32277	0.70729	0.163
Mof_C 	C 	0.18578	0.28528	0.57534	0.642
Mof_H 	H 	0.08004	0.53221	0.39126	0.002
Mof_H 	H 	0.82719	0.53337	0.74397	-0.017
Mof_H 	H 	0.03685	0.40263	0.67161	-0.016
Mof_H 	H 	0.07194	0.43234	0.56957	-0.014
Mof_H 	H 	0.97973	0.48672	0.61811	-0.015
Mof_H 	H 	0.01907	0.33162	0.71339	-0.006
Mof_Cr	Cr	0.89055	0.955	0.40811	2.4
Mof_Cr	Cr	0.13928	0.92989	0.34552	2.481
Mof_O 	O 	0.80445	0.8544	0.57997	-0.81
Mof_O 	O 	0.78283	0.83271	0.64495	-0.812
Mof_O 	O 	0.99271	0.94308	0.50532	-0.786
Mof_O 	O 	0.04674	0.00357	0.50271	-0.711
Mof_O 	O 	0.04073	0.94818	0.47833	-0.744
Mof_O 	O 	0.86735	0.91703	0.48569	-0.827
Mof_O 	O 	0.95214	0.90269	0.46753	-0.824
Mof_O 	O 	0.85369	0.94707	0.44201	-0.788
Mof_O 	O 	0.93086	0.78978	0.39181	-0.754
Mof_O 	O 	0.92441	0.96755	0.3715	-0.761
Mof_O 	O 	0.98201	0.8905	0.42296	-0.781
Mof_O 	O 	0.16727	0.96916	0.26884	-0.726
Mof_O 	O 	0.103	0.00097	0.5941	-0.69
Mof_O 	O 	0.17564	0.94087	0.31517	-0.792
Mof_O 	O 	0.11342	0.97168	0.56742	-0.75
Mof_O 	O 	0.10559	0.9174	0.37976	-0.818
Mof_O 	O 	0.08466	0.90273	0.36248	-0.791
Mof_C 	C 	0.06475	0.01749	0.53912	0.126
Mof_C 	C 	0.07125	0.02258	0.55995	-0.223
Mof_C 	C 	0.09781	0.99719	0.57443	0.585
Mof_C 	C 	0.81042	0.90451	0.52158	0.204
Mof_C 	C 	0.81651	0.92482	0.48966	-0.317
Mof_C 	C 	0.8475	0.9306	0.47137	0.7
Mof_C 	C 	0.00575	0.90025	0.44553	-0.307
Mof_C 	C 	0.03414	0.89694	0.41993	0.199
Mof_C 	C 	0.05793	0.90647	0.41466	-0.313
Mof_C 	C 	0.05401	0.91785	0.43684	0.188
Mof_C 	C 	0.02608	0.92083	0.4635	-0.292
Mof_C 	C 	0.00208	0.91177	0.46751	0.191
Mof_C 	C 	0.01976	0.93795	0.48396	0.657
Mof_C 	C 	0.0846	0.90853	0.38386	0.699
Mof_C 	C 	0.97844	0.89695	0.4457	0.689
Mof_C 	C 	0.0286	0.98047	0.3024	-0.272
Mof_C 	C 	0.00846	0.96148	0.32277	0.166
Mof_C 	C 	0.18578	0.9536	0.28528	0.641
Mof_H 	H 	0.08004	0.99649	0.53221	-0.001
Mof_H 	H 	0.82719	0.89547	0.53337	-0.017
Mof_H 	H 	0.03685	0.88891	0.40263	-0.016
Mof_H 	H 	0.07194	0.92615	0.43234	-0.014
Mof_H 	H 	0.97973	0.91544	0.48672	-0.015
Mof_H 	H 	0.01907	0.93592	0.33162	-0.007
Mof_Cr	Cr	0.74634	0.40811	0.955	2.4
Mof_Cr	Cr	0.58531	0.34552	0.92989	2.481
Mof_O 	O 	0.76118	0.57997	0.8544	-0.81
Mof_O 	O 	0.73951	0.64495	0.83271	-0.812
Mof_O 	O 	0.55889	0.50532	0.94308	-0.782
Mof_O 	O 	0.44698	0.50271	0.00357	-0.711
Mof_O 	O 	0.53276	0.47833	0.94818	-0.742
Mof_O 	O 	0.72993	0.48569	0.91703	-0.828
Mof_O 	O 	0.67764	0.46753	0.90269	-0.825
Mof_O 	O 	0.75723	0.44201	0.94707	-0.788
Mof_O 	O 	0.88755	0.39181	0.78978	-0.754
Mof_O 	O 	0.73654	0.3715	0.96755	-0.76
Mof_O 	O 	0.70453	0.42296	0.8905	-0.78
Mof_O 	O 	0.59473	0.26884	0.96916	-0.726
Mof_O 	O 	0.30193	0.5941	0.00097	-0.69
Mof_O 	O 	0.56832	0.31517	0.94087	-0.792
Mof_O 	O 	0.34748	0.56742	0.97168	-0.751
Mof_O 	O 	0.59725	0.37976	0.9174	-0.818
Mof_O 	O 	0.65013	0.36248	0.90273	-0.791
Mof_C 	C 	0.37864	0.53912	0.01749	0.126
Mof_C 	C 	0.34622	0.55995	0.02258	-0.223
Mof_C 	C 	0.33057	0.57443	0.99719	0.585
Mof_C 	C 	0.76349	0.52158	0.90451	0.204
Mof_C 	C 	0.76901	0.48966	0.92482	-0.317
Mof_C 	C 	0.75053	0.47137	0.9306	0.701
Mof_C 	C 	0.64847	0.44553	0.90025	-0.309
Mof_C 	C 	0.64899	0.41993	0.89694	0.199
Mof_C 	C 	0.62094	0.41466	0.90647	-0.313
Mof_C 	C 	0.5913	0.43684	0.91785	0.187
Mof_C 	C 	0.58959	0.4635	0.92083	-0.29
Mof_C 	C 	0.61864	0.46751	0.91177	0.186
Mof_C 	C 	0.55833	0.48396	0.93795	0.651
Mof_C 	C 	0.62301	0.38386	0.90853	0.698
Mof_C 	C 	0.67891	0.4457	0.89695	0.692
Mof_C 	C 	0.68853	0.3024	0.98047	-0.269
Mof_C 	C 	0.70729	0.32277	0.96148	0.16
Mof_C 	C 	0.57534	0.28528	0.9536	0.641
Mof_H 	H 	0.39126	0.53221	0.99649	-0.001
Mof_H 	H 	0.74397	0.53337	0.89547	-0.017
Mof_H 	H 	0.67161	0.40263	0.88891	-0.017
Mof_H 	H 	0.56957	0.43234	0.92615	-0.014
Mof_H 	H 	0.61811	0.48672	0.91544	-0.012
Mof_H 	H 	0.71339	0.33162	0.93592	-0.007
Mof_Cr	Cr	0.40811	0.74634	0.89055	2.402
Mof_Cr	Cr	0.34552	0.58531	0.13928	2.482
Mof_O 	O 	0.57997	0.76118	0.80445	-0.81
Mof_O 	O 	0.64495	0.73951	0.78283	-0.812
Mof_O 	O 	0.50532	0.55889	0.99271	-0.786
Mof_O 	O 	0.50271	0.44698	0.04674	-0.715
Mof_O 	O 	0.47833	0.53276	0.04073	-0.744
Mof_O 	O 	0.48569	0.72993	0.86735	-0.827
Mof_O 	O 	0.46753	0.67764	0.95214	-0.824
Mof_O 	O 	0.44201	0.75723	0.85369	-0.788
Mof_O 	O 	0.39181	0.88755	0.93086	-0.754
Mof_O 	O 	0.3715	0.73654	0.92441	-0.759
Mof_O 	O 	0.42296	0.70453	0.98201	-0.781
Mof_O 	O 	0.26884	0.59473	0.16727	-0.727
Mof_O 	O 	0.5941	0.30193	0.103	-0.697
Mof_O 	O 	0.31517	0.56832	0.17564	-0.792
Mof_O 	O 	0.56742	0.34748	0.11342	-0.752
Mof_O 	O 	0.37976	0.59725	0.10559	-0.818
Mof_O 	O 	0.36248	0.65013	0.08466	-0.791
Mof_C 	C 	0.53912	0.37864	0.06475	0.123
Mof_C 	C 	0.55995	0.34622	0.07125	-0.226
Mof_C 	C 	0.57443	0.33057	0.09781	0.593
Mof_C 	C 	0.52158	0.76349	0.81042	0.204
Mof_C 	C 	0.48966	0.76901	0.81651	-0.317
Mof_C 	C 	0.47137	0.75053	0.8475	0.701
Mof_C 	C 	0.44553	0.64847	0.00575	-0.307
Mof_C 	C 	0.41993	0.64899	0.03414	0.199
Mof_C 	C 	0.41466	0.62094	0.05793	-0.313
Mof_C 	C 	0.43684	0.5913	0.05401	0.189
Mof_C 	C 	0.4635	0.58959	0.02608	-0.291
Mof_C 	C 	0.46751	0.61864	0.00208	0.191
Mof_C 	C 	0.48396	0.55833	0.01976	0.657
Mof_C 	C 	0.38386	0.62301	0.0846	0.699
Mof_C 	C 	0.4457	0.67891	0.97844	0.689
Mof_C 	C 	0.3024	0.68853	0.0286	-0.266
Mof_C 	C 	0.32277	0.70729	0.00846	0.163
Mof_C 	C 	0.28528	0.57534	0.18578	0.642
Mof_H 	H 	0.53221	0.39126	0.08004	0.002
Mof_H 	H 	0.53337	0.74397	0.82719	-0.017
Mof_H 	H 	0.40263	0.67161	0.03685	-0.016
Mof_H 	H 	0.43234	0.56957	0.07194	-0.014
Mof_H 	H 	0.48672	0.61811	0.97973	-0.015
Mof_H 	H 	0.33162	0.71339	0.01907	-0.006
Mof_Cr	Cr	0.955	0.89055	0.74634	2.4
Mof_Cr	Cr	0.92989	0.13928	0.58531	2.481
Mof_O 	O 	0.8544	0.80445	0.76118	-0.81
Mof_O 	O 	0.83271	0.78283	0.73951	-0.812
Mof_O 	O 	0.94308	0.99271	0.55889	-0.786
Mof_O 	O 	0.00357	0.04674	0.44698	-0.711
Mof_O 	O 	0.94818	0.04073	0.53276	-0.743
Mof_O 	O 	0.91703	0.86735	0.72993	-0.827
Mof_O 	O 	0.90269	0.95214	0.67764	-0.824
Mof_O 	O 	0.94707	0.85369	0.75723	-0.788
Mof_O 	O 	0.78978	0.93086	0.88755	-0.754
Mof_O 	O 	0.96755	0.92441	0.73654	-0.761
Mof_O 	O 	0.8905	0.98201	0.70453	-0.781
Mof_O 	O 	0.96916	0.16727	0.59473	-0.726
Mof_O 	O 	0.00097	0.103	0.30193	-0.69
Mof_O 	O 	0.94087	0.17564	0.56832	-0.792
Mof_O 	O 	0.97168	0.11342	0.34748	-0.75
Mof_O 	O 	0.9174	0.10559	0.59725	-0.818
Mof_O 	O 	0.90273	0.08466	0.65013	-0.791
Mof_C 	C 	0.01749	0.06475	0.37864	0.126
Mof_C 	C 	0.02258	0.07125	0.34622	-0.223
Mof_C 	C 	0.99719	0.09781	0.33057	0.585
Mof_C 	C 	0.90451	0.81042	0.76349	0.204
Mof_C 	C 	0.92482	0.81651	0.76901	-0.317
Mof_C 	C 	0.9306	0.8475	0.75053	0.7
Mof_C 	C 	0.90025	0.00575	0.64847	-0.307
Mof_C 	C 	0.89694	0.03414	0.64899	0.199
Mof_C 	C 	0.90647	0.05793	0.62094	-0.313
Mof_C 	C 	0.91785	0.05401	0.5913	0.188
Mof_C 	C 	0.92083	0.02608	0.58959	-0.291
Mof_C 	C 	0.91177	0.00208	0.61864	0.191
Mof_C 	C 	0.93795	0.01976	0.55833	0.657
Mof_C 	C 	0.90853	0.0846	0.62301	0.699
Mof_C 	C 	0.89695	0.97844	0.67891	0.689
Mof_C 	C 	0.98047	0.0286	0.68853	-0.271
Mof_C 	C 	0.96148	0.00846	0.70729	0.166
Mof_C 	C 	0.9536	0.18578	0.57534	0.641
Mof_H 	H 	0.99649	0.08004	0.39126	-0.001
Mof_H 	H 	0.89547	0.82719	0.74397	-0.017
Mof_H 	H 	0.88891	0.03685	0.67161	-0.016
Mof_H 	H 	0.92615	0.07194	0.56957	-0.014
Mof_H 	H 	0.91544	0.97973	0.61811	-0.015
Mof_H 	H 	0.93592	0.01907	0.71339	-0.007
Mof_Cr	Cr	0.75267	0.81744	0.81744	2.521
Mof_Cr	Cr	0.70539	0.91025	0.91025	2.587
Mof_O 	O 	0.4301	0.9186	0.9186	-1.23
Mof_C 	C 	0.67905	0.01402	0.01402	0.158
Mof_C 	C 	0.71639	0.97489	0.97489	-0.276
Mof_C 	C 	0.73124	0.95428	0.95428	0.64
Mof_Cr	Cr	0.81744	0.75267	0.61245	2.521
Mof_Cr	Cr	0.91025	0.70539	0.47411	2.588
Mof_O 	O 	0.9186	0.4301	0.7327	-1.23
Mof_C 	C 	0.01402	0.67905	0.29291	0.153
Mof_C 	C 	0.97489	0.71639	0.33383	-0.271
Mof_C 	C 	0.95428	0.73124	0.3602	0.639
Mof_Cr	Cr	0.81744	0.61245	0.75267	2.521
Mof_Cr	Cr	0.91025	0.47411	0.70539	2.588
Mof_O 	O 	0.9186	0.7327	0.4301	-1.23
Mof_C 	C 	0.01402	0.29291	0.67905	0.153
Mof_C 	C 	0.97489	0.33383	0.71639	-0.271
Mof_C 	C 	0.95428	0.3602	0.73124	0.639
Mof_Cr	Cr	0.61245	0.81744	0.81744	2.521
Mof_Cr	Cr	0.47411	0.91025	0.91025	2.587
Mof_O 	O 	0.7327	0.9186	0.9186	-1.23
Mof_C 	C 	0.29291	0.01402	0.01402	0.159
Mof_C 	C 	0.33383	0.97489	0.97489	-0.277
Mof_C 	C 	0.3602	0.95428	0.95428	0.64
Mof_Cr	Cr	0.81744	0.75267	0.81744	2.521
Mof_Cr	Cr	0.91025	0.70539	0.91025	2.587
Mof_O 	O 	0.9186	0.4301	0.9186	-1.23
Mof_C 	C 	0.01402	0.67905	0.01402	0.158
Mof_C 	C 	0.97489	0.71639	0.97489	-0.276
Mof_C 	C 	0.95428	0.73124	0.95428	0.64
Mof_Cr	Cr	0.61245	0.81744	0.75267	2.521
Mof_Cr	Cr	0.47411	0.91025	0.70539	2.588
Mof_O 	O 	0.7327	0.9186	0.4301	-1.23
Mof_C 	C 	0.29291	0.01402	0.67905	0.153
Mof_C 	C 	0.33383	0.97489	0.71639	-0.271
Mof_C 	C 	0.3602	0.95428	0.73124	0.639
Mof_Cr	Cr	0.75267	0.81744	0.61245	2.521
Mof_Cr	Cr	0.70539	0.91025	0.47411	2.588
Mof_O 	O 	0.4301	0.9186	0.7327	-1.23
Mof_C 	C 	0.67905	0.01402	0.29291	0.153
Mof_C 	C 	0.71639	0.97489	0.33383	-0.271
Mof_C 	C 	0.73124	0.95428	0.3602	0.639
Mof_Cr	Cr	0.81744	0.61245	0.81744	2.521
Mof_Cr	Cr	0.91025	0.47411	0.91025	2.587
Mof_O 	O 	0.9186	0.7327	0.9186	-1.23
Mof_C 	C 	0.01402	0.29291	0.01402	0.159
Mof_C 	C 	0.97489	0.33383	0.97489	-0.277
Mof_C 	C 	0.95428	0.3602	0.95428	0.64
Mof_Cr	Cr	0.81744	0.81744	0.75267	2.521
Mof_Cr	Cr	0.91025	0.91025	0.70539	2.587
Mof_O 	O 	0.9186	0.9186	0.4301	-1.23
Mof_C 	C 	0.01402	0.01402	0.67905	0.158
Mof_C 	C 	0.97489	0.97489	0.71639	-0.276
Mof_C 	C 	0.95428	0.95428	0.73124	0.64
Mof_Cr	Cr	0.75267	0.61245	0.81744	2.521
Mof_Cr	Cr	0.70539	0.47411	0.91025	2.588
Mof_O 	O 	0.4301	0.7327	0.9186	-1.23
Mof_C 	C 	0.67905	0.29291	0.01402	0.153
Mof_C 	C 	0.71639	0.33383	0.97489	-0.271
Mof_C 	C 	0.73124	0.3602	0.95428	0.639
Mof_Cr	Cr	0.61245	0.75267	0.81744	2.521
Mof_Cr	Cr	0.47411	0.70539	0.91025	2.588
Mof_O 	O 	0.7327	0.4301	0.9186	-1.23
Mof_C 	C 	0.29291	0.67905	0.01402	0.153
Mof_C 	C 	0.33383	0.71639	0.97489	-0.271
Mof_C 	C 	0.3602	0.73124	0.95428	0.639
Mof_Cr	Cr	0.81744	0.81744	0.61245	2.521
Mof_Cr	Cr	0.91025	0.91025	0.47411	2.587
Mof_O 	O 	0.9186	0.9186	0.7327	-1.23
Mof_C 	C 	0.01402	0.01402	0.29291	0.159
Mof_C 	C 	0.97489	0.97489	0.33383	-0.277
Mof_C 	C 	0.95428	0.95428	0.3602	0.64
Mof_Cr	Cr	0.49733	0.43256	0.63755	2.521
Mof_Cr	Cr	0.54461	0.33975	0.77589	2.588
Mof_O 	O 	0.8199	0.3314	0.5173	-1.231
Mof_C 	C 	0.57095	0.23598	0.95709	0.146
Mof_C 	C 	0.53361	0.27511	0.91617	-0.265
Mof_C 	C 	0.51876	0.29572	0.8898	0.637
Mof_Cr	Cr	0.43256	0.49733	0.43256	2.521
Mof_Cr	Cr	0.33975	0.54461	0.33975	2.588
Mof_O 	O 	0.3314	0.8199	0.3314	-1.231
Mof_C 	C 	0.23598	0.57095	0.23598	0.147
Mof_C 	C 	0.27511	0.53361	0.27511	-0.265
Mof_C 	C 	0.29572	0.51876	0.29572	0.637
Mof_Cr	Cr	0.43256	0.63755	0.43256	2.521
Mof_Cr	Cr	0.33975	0.77589	0.33975	2.588
Mof_O 	O 	0.3314	0.5173	0.3314	-1.231
Mof_C 	C 	0.23598	0.95709	0.23598	0.147
Mof_C 	C 	0.27511	0.91617	0.27511	-0.265
Mof_C 	C 	0.29572	0.8898	0.29572	0.637
Mof_Cr	Cr	0.63755	0.43256	0.49733	2.521
Mof_Cr	Cr	0.77589	0.33975	0.54461	2.588
Mof_O 	O 	0.5173	0.3314	0.8199	-1.231
Mof_C 	C 	0.95709	0.23598	0.57095	0.146
Mof_C 	C 	0.91617	0.27511	0.53361	-0.265
Mof_C 	C 	0.8898	0.29572	0.51876	0.637
Mof_Cr	Cr	0.43256	0.49733	0.63755	2.521
Mof_Cr	Cr	0.33975	0.54461	0.77589	2.588
Mof_O 	O 	0.3314	0.8199	0.5173	-1.231
Mof_C 	C 	0.23598	0.57095	0.95709	0.146
Mof_C 	C 	0.27511	0.53361	0.91617	-0.265
Mof_C 	C 	0.29572	0.51876	0.8898	0.637
Mof_Cr	Cr	0.63755	0.43256	0.43256	2.521
Mof_Cr	Cr	0.77589	0.33975	0.33975	2.588
Mof_O 	O 	0.5173	0.3314	0.3314	-1.231
Mof_C 	C 	0.95709	0.23598	0.23598	0.147
Mof_C 	C 	0.91617	0.27511	0.27511	-0.265
Mof_C 	C 	0.8898	0.29572	0.29572	0.637
Mof_Cr	Cr	0.49733	0.43256	0.43256	2.521
Mof_Cr	Cr	0.54461	0.33975	0.33975	2.588
Mof_O 	O 	0.8199	0.3314	0.3314	-1.231
Mof_C 	C 	0.57095	0.23598	0.23598	0.147
Mof_C 	C 	0.53361	0.27511	0.27511	-0.265
Mof_C 	C 	0.51876	0.29572	0.29572	0.637
Mof_Cr	Cr	0.43256	0.63755	0.49733	2.521
Mof_Cr	Cr	0.33975	0.77589	0.54461	2.588
Mof_O 	O 	0.3314	0.5173	0.8199	-1.231
Mof_C 	C 	0.23598	0.95709	0.57095	0.146
Mof_C 	C 	0.27511	0.91617	0.53361	-0.265
Mof_C 	C 	0.29572	0.8898	0.51876	0.637
Mof_Cr	Cr	0.43256	0.43256	0.63755	2.521
Mof_Cr	Cr	0.33975	0.33975	0.77589	2.588
Mof_O 	O 	0.3314	0.3314	0.5173	-1.231
Mof_C 	C 	0.23598	0.23598	0.95709	0.147
Mof_C 	C 	0.27511	0.27511	0.91617	-0.265
Mof_C 	C 	0.29572	0.29572	0.8898	0.637
Mof_Cr	Cr	0.49733	0.63755	0.43256	2.521
Mof_Cr	Cr	0.54461	0.77589	0.33975	2.588
Mof_O 	O 	0.8199	0.5173	0.3314	-1.231
Mof_C 	C 	0.57095	0.95709	0.23598	0.146
Mof_C 	C 	0.53361	0.91617	0.27511	-0.265
Mof_C 	C 	0.51876	0.8898	0.29572	0.637
Mof_Cr	Cr	0.63755	0.49733	0.43256	2.521
Mof_Cr	Cr	0.77589	0.54461	0.33975	2.588
Mof_O 	O 	0.5173	0.8199	0.3314	-1.231
Mof_C 	C 	0.95709	0.57095	0.23598	0.146
Mof_C 	C 	0.91617	0.53361	0.27511	-0.265
Mof_C 	C 	0.8898	0.51876	0.29572	0.637
Mof_Cr	Cr	0.43256	0.43256	0.49733	2.521
Mof_Cr	Cr	0.33975	0.33975	0.54461	2.588
Mof_O 	O 	0.3314	0.3314	0.8199	-1.231
Mof_C 	C 	0.23598	0.23598	0.57095	0.147
Mof_C 	C 	0.27511	0.27511	0.53361	-0.265
Mof_C 	C 	0.29572	0.29572	0.51876	0.637
Mof_C 	C 	0.39566	0.03797	0.03797	-0.224
Mof_C 	C 	0.33087	0.04951	0.04951	0.122
Mof_C 	C 	0.43201	0.02914	0.02914	0.585
Mof_C 	C 	0.03797	0.39566	0.5284	-0.224
Mof_C 	C 	0.04951	0.33087	0.57011	0.123
Mof_C 	C 	0.02914	0.43201	0.50971	0.585
Mof_C 	C 	0.03797	0.5284	0.39566	-0.224
Mof_C 	C 	0.04951	0.57011	0.33087	0.123
Mof_C 	C 	0.02914	0.50971	0.43201	0.585
Mof_C 	C 	0.5284	0.03797	0.03797	-0.224
Mof_C 	C 	0.57011	0.04951	0.04951	0.122
Mof_C 	C 	0.50971	0.02914	0.02914	0.585
Mof_C 	C 	0.03797	0.39566	0.03797	-0.224
Mof_C 	C 	0.04951	0.33087	0.04951	0.122
Mof_C 	C 	0.02914	0.43201	0.02914	0.585
Mof_C 	C 	0.5284	0.03797	0.39566	-0.224
Mof_C 	C 	0.57011	0.04951	0.33087	0.123
Mof_C 	C 	0.50971	0.02914	0.43201	0.585
Mof_C 	C 	0.39566	0.03797	0.5284	-0.224
Mof_C 	C 	0.33087	0.04951	0.57011	0.123
Mof_C 	C 	0.43201	0.02914	0.50971	0.585
Mof_C 	C 	0.03797	0.5284	0.03797	-0.224
Mof_C 	C 	0.04951	0.57011	0.04951	0.122
Mof_C 	C 	0.02914	0.50971	0.02914	0.585
Mof_C 	C 	0.03797	0.03797	0.39566	-0.224
Mof_C 	C 	0.04951	0.04951	0.33087	0.122
Mof_C 	C 	0.02914	0.02914	0.43201	0.585
Mof_C 	C 	0.39566	0.5284	0.03797	-0.224
Mof_C 	C 	0.33087	0.57011	0.04951	0.123
Mof_C 	C 	0.43201	0.50971	0.02914	0.585
Mof_C 	C 	0.5284	0.39566	0.03797	-0.224
Mof_C 	C 	0.57011	0.33087	0.04951	0.123
Mof_C 	C 	0.50971	0.43201	0.02914	0.585
Mof_C 	C 	0.03797	0.03797	0.5284	-0.224
Mof_C 	C 	0.04951	0.04951	0.57011	0.122
Mof_C 	C 	0.02914	0.02914	0.50971	0.585
Mof_C 	C 	0.85434	0.21203	0.7216	-0.224
Mof_C 	C 	0.91913	0.20049	0.67989	0.122
Mof_C 	C 	0.81799	0.22086	0.74029	0.585
Mof_C 	C 	0.21203	0.85434	0.21203	-0.224
Mof_C 	C 	0.20049	0.91913	0.20049	0.123
Mof_C 	C 	0.22086	0.81799	0.22086	0.585
Mof_C 	C 	0.21203	0.7216	0.21203	-0.224
Mof_C 	C 	0.20049	0.67989	0.20049	0.123
Mof_C 	C 	0.22086	0.74029	0.22086	0.585
Mof_C 	C 	0.7216	0.21203	0.85434	-0.224
Mof_C 	C 	0.67989	0.20049	0.91913	0.122
Mof_C 	C 	0.74029	0.22086	0.81799	0.585
Mof_C 	C 	0.21203	0.85434	0.7216	-0.224
Mof_C 	C 	0.20049	0.91913	0.67989	0.122
Mof_C 	C 	0.22086	0.81799	0.74029	0.585
Mof_C 	C 	0.7216	0.21203	0.21203	-0.224
Mof_C 	C 	0.67989	0.20049	0.20049	0.123
Mof_C 	C 	0.74029	0.22086	0.22086	0.585
Mof_C 	C 	0.85434	0.21203	0.21203	-0.224
Mof_C 	C 	0.91913	0.20049	0.20049	0.123
Mof_C 	C 	0.81799	0.22086	0.22086	0.585
Mof_C 	C 	0.21203	0.7216	0.85434	-0.224
Mof_C 	C 	0.20049	0.67989	0.91913	0.122
Mof_C 	C 	0.22086	0.74029	0.81799	0.585
Mof_C 	C 	0.21203	0.21203	0.7216	-0.224
Mof_C 	C 	0.20049	0.20049	0.67989	0.123
Mof_C 	C 	0.22086	0.22086	0.74029	0.585
Mof_C 	C 	0.85434	0.7216	0.21203	-0.224
Mof_C 	C 	0.91913	0.67989	0.20049	0.122
Mof_C 	C 	0.81799	0.74029	0.22086	0.585
Mof_C 	C 	0.7216	0.85434	0.21203	-0.224
Mof_C 	C 	0.67989	0.91913	0.20049	0.122
Mof_C 	C 	0.74029	0.81799	0.22086	0.585
Mof_C 	C 	0.21203	0.21203	0.85434	-0.224
Mof_C 	C 	0.20049	0.20049	0.91913	0.123
Mof_C 	C 	0.22086	0.22086	0.81799	0.585
Mof_Cr	Cr	0.53061	0.96939	0.96939	2.465
Mof_O 	O 	0.50408	0.99592	0.99592	-1.192
Mof_Cr	Cr	0.96939	0.53061	0.53061	2.464
Mof_O 	O 	0.99592	0.50408	0.50408	-1.19
Mof_Cr	Cr	0.96939	0.53061	0.96939	2.465
Mof_O 	O 	0.99592	0.50408	0.99592	-1.192
Mof_Cr	Cr	0.53061	0.96939	0.53061	2.464
Mof_O 	O 	0.50408	0.99592	0.50408	-1.19
Mof_Cr	Cr	0.96939	0.96939	0.53061	2.465
Mof_O 	O 	0.99592	0.99592	0.50408	-1.192
Mof_Cr	Cr	0.53061	0.53061	0.96939	2.464
Mof_O 	O 	0.50408	0.50408	0.99592	-1.19
Mof_Cr	Cr	0.71939	0.28061	0.71939	2.463
Mof_O 	O 	0.74592	0.25408	0.74592	-1.188
Mof_Cr	Cr	0.28061	0.71939	0.28061	2.463
Mof_O 	O 	0.25408	0.74592	0.25408	-1.188
Mof_Cr	Cr	0.28061	0.71939	0.71939	2.463
Mof_O 	O 	0.25408	0.74592	0.74592	-1.188
Mof_Cr	Cr	0.71939	0.28061	0.28061	2.463
Mof_O 	O 	0.74592	0.25408	0.25408	-1.188
Mof_Cr	Cr	0.28061	0.28061	0.71939	2.463
Mof_O 	O 	0.25408	0.25408	0.74592	-1.188
Mof_Cr	Cr	0.71939	0.71939	0.28061	2.463
Mof_O 	O 	0.74592	0.74592	0.25408	-1.188
Mof_Cr	Cr	0.4908	0.04143	0.97696	2.284
Mof_C 	C 	0.70352	0.75042	0.84255	0.189
Mof_Cr	Cr	0.04143	0.4908	0.4908	2.293
Mof_C 	C 	0.75042	0.70352	0.70352	0.189
Mof_Cr	Cr	0.97696	0.4908	0.4908	2.278
Mof_C 	C 	0.84255	0.70352	0.70352	0.189
Mof_Cr	Cr	0.4908	0.97696	0.04143	2.284
Mof_C 	C 	0.70352	0.84255	0.75042	0.189
Mof_Cr	Cr	0.97696	0.4908	0.04143	2.284
Mof_C 	C 	0.84255	0.70352	0.75042	0.189
Mof_Cr	Cr	0.4908	0.04143	0.4908	2.293
Mof_C 	C 	0.70352	0.75042	0.70352	0.189
Mof_Cr	Cr	0.4908	0.97696	0.4908	2.278
Mof_C 	C 	0.70352	0.84255	0.70352	0.189
Mof_Cr	Cr	0.04143	0.4908	0.97696	2.284
Mof_C 	C 	0.75042	0.70352	0.84255	0.189
Mof_Cr	Cr	0.04143	0.97696	0.4908	2.284
Mof_C 	C 	0.75042	0.84255	0.70352	0.189
Mof_Cr	Cr	0.4908	0.4908	0.04143	2.293
Mof_C 	C 	0.70352	0.70352	0.75042	0.189
Mof_Cr	Cr	0.4908	0.4908	0.97696	2.278
Mof_C 	C 	0.70352	0.70352	0.84255	0.189
Mof_Cr	Cr	0.97696	0.04143	0.4908	2.284
Mof_C 	C 	0.84255	0.75042	0.70352	0.189
Mof_Cr	Cr	0.7592	0.20857	0.7592	2.287
Mof_C 	C 	0.54648	0.49958	0.54648	0.189
Mof_Cr	Cr	0.20857	0.7592	0.27304	2.287
Mof_C 	C 	0.49958	0.54648	0.40745	0.189
Mof_Cr	Cr	0.27304	0.7592	0.20857	2.287
Mof_C 	C 	0.40745	0.54648	0.49958	0.189
Mof_Cr	Cr	0.7592	0.27304	0.7592	2.287
Mof_C 	C 	0.54648	0.40745	0.54648	0.189
Mof_Cr	Cr	0.27304	0.7592	0.7592	2.287
Mof_C 	C 	0.40745	0.54648	0.54648	0.189
Mof_Cr	Cr	0.7592	0.20857	0.27304	2.287
Mof_C 	C 	0.54648	0.49958	0.40745	0.189
Mof_Cr	Cr	0.7592	0.27304	0.20857	2.287
Mof_C 	C 	0.54648	0.40745	0.49958	0.189
Mof_Cr	Cr	0.20857	0.7592	0.7592	2.287
Mof_C 	C 	0.49958	0.54648	0.54648	0.189
Mof_Cr	Cr	0.20857	0.27304	0.7592	2.287
Mof_C 	C 	0.49958	0.40745	0.54648	0.189
Mof_Cr	Cr	0.7592	0.7592	0.27304	2.287
Mof_C 	C 	0.54648	0.54648	0.40745	0.189
Mof_Cr	Cr	0.7592	0.7592	0.20857	2.287
Mof_C 	C 	0.54648	0.54648	0.49958	0.189
Mof_Cr	Cr	0.27304	0.20857	0.7592	2.287
Mof_C 	C 	0.40745	0.49958	0.54648	0.189
Mof_Cr	Cr	0.27693	0.97307	0.125	2.223
Mof_O 	O 	0.31421	0.93579	0.125	-1.209
Mof_Cr	Cr	0.97307	0.27693	0.625	2.223
Mof_O 	O 	0.93579	0.31421	0.625	-1.209
Mof_Cr	Cr	0.125	0.625	0.27693	2.229
Mof_O 	O 	0.125	0.625	0.31421	-1.21
Mof_Cr	Cr	0.625	0.125	0.97307	2.223
Mof_O 	O 	0.625	0.125	0.93579	-1.209
Mof_Cr	Cr	0.125	0.27693	0.97307	2.223
Mof_O 	O 	0.125	0.31421	0.93579	-1.209
Mof_Cr	Cr	0.625	0.97307	0.27693	2.223
Mof_O 	O 	0.625	0.93579	0.31421	-1.209
Mof_Cr	Cr	0.27693	0.125	0.625	2.229
Mof_O 	O 	0.31421	0.125	0.625	-1.21
Mof_Cr	Cr	0.97307	0.625	0.125	2.223
Mof_O 	O 	0.93579	0.625	0.125	-1.209
Mof_Cr	Cr	0.97307	0.125	0.27693	2.223
Mof_O 	O 	0.93579	0.125	0.31421	-1.209
Mof_Cr	Cr	0.27693	0.625	0.97307	2.223
Mof_O 	O 	0.31421	0.625	0.93579	-1.209
Mof_Cr	Cr	0.625	0.27693	0.125	2.229
Mof_O 	O 	0.625	0.31421	0.125	-1.21
Mof_Cr	Cr	0.125	0.97307	0.625	2.223
Mof_O 	O 	0.125	0.93579	0.625	-1.209
Mof_Cr	Cr	0.97307	0.27693	0.125	2.223
Mof_O 	O 	0.93579	0.31421	0.125	-1.209
Mof_Cr	Cr	0.27693	0.97307	0.625	2.223
Mof_O 	O 	0.31421	0.93579	0.625	-1.209
Mof_Cr	Cr	0.125	0.625	0.97307	2.223
Mof_O 	O 	0.125	0.625	0.93579	-1.209
Mof_Cr	Cr	0.625	0.125	0.27693	2.229
Mof_O 	O 	0.625	0.125	0.31421	-1.21
Mof_Cr	Cr	0.125	0.97307	0.27693	2.223
Mof_O 	O 	0.125	0.93579	0.31421	-1.209
Mof_Cr	Cr	0.625	0.27693	0.97307	2.223
Mof_O 	O 	0.625	0.31421	0.93579	-1.209
Mof_Cr	Cr	0.97307	0.125	0.625	2.223
Mof_O 	O 	0.93579	0.125	0.625	-1.209
Mof_Cr	Cr	0.27693	0.625	0.125	2.229
Mof_O 	O 	0.31421	0.625	0.125	-1.21
Mof_Cr	Cr	0.27693	0.125	0.97307	2.223
Mof_O 	O 	0.31421	0.125	0.93579	-1.209
Mof_Cr	Cr	0.97307	0.625	0.27693	2.223
Mof_O 	O 	0.93579	0.625	0.31421	-1.209
Mof_Cr	Cr	0.625	0.97307	0.125	2.223
Mof_O 	O 	0.625	0.93579	0.125	-1.209
Mof_Cr	Cr	0.125	0.27693	0.625	2.229
Mof_O 	O 	0.125	0.31421	0.625	-1.21
Mof_O 	O 	0.79585	0.79585	0.79585	-1.251
Mof_O 	O 	0.79585	0.79585	0.61245	-1.251
Mof_O 	O 	0.79585	0.61245	0.79585	-1.251
Mof_O 	O 	0.61245	0.79585	0.79585	-1.251
Mof_O 	O 	0.45415	0.45415	0.63755	-1.251
Mof_O 	O 	0.45415	0.45415	0.45415	-1.251
Mof_O 	O 	0.45415	0.63755	0.45415	-1.251
Mof_O 	O 	0.63755	0.45415	0.45415	-1.251
Mof_C 	C 	0.88823	0.88823	0.83992	-0.259
Mof_C 	C 	0.9034	0.9034	0.80443	0.628
Mof_C 	C 	0.78456	0.78456	0.89336	-0.32
Mof_C 	C 	0.79576	0.79576	0.93452	0.187
Mof_C 	C 	0.7829	0.7829	0.86611	0.7
Mof_C 	C 	0.88823	0.88823	0.38362	-0.259
Mof_C 	C 	0.9034	0.9034	0.38877	0.628
Mof_C 	C 	0.78456	0.78456	0.53752	-0.32
Mof_C 	C 	0.79576	0.79576	0.47396	0.188
Mof_C 	C 	0.7829	0.7829	0.56809	0.7
Mof_C 	C 	0.83992	0.38362	0.88823	-0.259
Mof_C 	C 	0.80443	0.38877	0.9034	0.628
Mof_C 	C 	0.89336	0.53752	0.78456	-0.32
Mof_C 	C 	0.93452	0.47396	0.79576	0.187
Mof_C 	C 	0.86611	0.56809	0.7829	0.7
Mof_C 	C 	0.38362	0.83992	0.88823	-0.259
Mof_C 	C 	0.38877	0.80443	0.9034	0.628
Mof_C 	C 	0.53752	0.89336	0.78456	-0.32
Mof_C 	C 	0.47396	0.93452	0.79576	0.187
Mof_C 	C 	0.56809	0.86611	0.7829	0.7
Mof_C 	C 	0.83992	0.88823	0.88823	-0.259
Mof_C 	C 	0.80443	0.9034	0.9034	0.628
Mof_C 	C 	0.89336	0.78456	0.78456	-0.32
Mof_C 	C 	0.93452	0.79576	0.79576	0.187
Mof_C 	C 	0.86611	0.7829	0.7829	0.7
Mof_C 	C 	0.38362	0.88823	0.88823	-0.259
Mof_C 	C 	0.38877	0.9034	0.9034	0.628
Mof_C 	C 	0.53752	0.78456	0.78456	-0.32
Mof_C 	C 	0.47396	0.79576	0.79576	0.188
Mof_C 	C 	0.56809	0.7829	0.7829	0.7
Mof_C 	C 	0.88823	0.83992	0.38362	-0.259
Mof_C 	C 	0.9034	0.80443	0.38877	0.628
Mof_C 	C 	0.78456	0.89336	0.53752	-0.32
Mof_C 	C 	0.79576	0.93452	0.47396	0.187
Mof_C 	C 	0.7829	0.86611	0.56809	0.7
Mof_C 	C 	0.88823	0.38362	0.83992	-0.259
Mof_C 	C 	0.9034	0.38877	0.80443	0.628
Mof_C 	C 	0.78456	0.53752	0.89336	-0.32
Mof_C 	C 	0.79576	0.47396	0.93452	0.187
Mof_C 	C 	0.7829	0.56809	0.86611	0.7
Mof_C 	C 	0.88823	0.83992	0.88823	-0.259
Mof_C 	C 	0.9034	0.80443	0.9034	0.628
Mof_C 	C 	0.78456	0.89336	0.78456	-0.32
Mof_C 	C 	0.79576	0.93452	0.79576	0.187
Mof_C 	C 	0.7829	0.86611	0.7829	0.7
Mof_C 	C 	0.88823	0.38362	0.88823	-0.259
Mof_C 	C 	0.9034	0.38877	0.9034	0.628
Mof_C 	C 	0.78456	0.53752	0.78456	-0.32
Mof_C 	C 	0.79576	0.47396	0.79576	0.188
Mof_C 	C 	0.7829	0.56809	0.7829	0.7
Mof_C 	C 	0.38362	0.88823	0.83992	-0.259
Mof_C 	C 	0.38877	0.9034	0.80443	0.628
Mof_C 	C 	0.53752	0.78456	0.89336	-0.32
Mof_C 	C 	0.47396	0.79576	0.93452	0.187
Mof_C 	C 	0.56809	0.7829	0.86611	0.7
Mof_C 	C 	0.83992	0.88823	0.38362	-0.259
Mof_C 	C 	0.80443	0.9034	0.38877	0.628
Mof_C 	C 	0.89336	0.78456	0.53752	-0.32
Mof_C 	C 	0.93452	0.79576	0.47396	0.187
Mof_C 	C 	0.86611	0.7829	0.56809	0.7
Mof_C 	C 	0.36177	0.36177	0.86638	-0.259
Mof_C 	C 	0.3466	0.3466	0.86123	0.628
Mof_C 	C 	0.46544	0.46544	0.71248	-0.32
Mof_C 	C 	0.45424	0.45424	0.77604	0.188
Mof_C 	C 	0.4671	0.4671	0.68191	0.7
Mof_C 	C 	0.36177	0.36177	0.41008	-0.259
Mof_C 	C 	0.3466	0.3466	0.44557	0.628
Mof_C 	C 	0.46544	0.46544	0.35664	-0.32
Mof_C 	C 	0.45424	0.45424	0.31548	0.188
Mof_C 	C 	0.4671	0.4671	0.38389	0.7
Mof_C 	C 	0.41008	0.86638	0.36177	-0.259
Mof_C 	C 	0.44557	0.86123	0.3466	0.628
Mof_C 	C 	0.35664	0.71248	0.46544	-0.32
Mof_C 	C 	0.31548	0.77604	0.45424	0.188
Mof_C 	C 	0.38389	0.68191	0.4671	0.7
Mof_C 	C 	0.86638	0.41008	0.36177	-0.259
Mof_C 	C 	0.86123	0.44557	0.3466	0.628
Mof_C 	C 	0.71248	0.35664	0.46544	-0.32
Mof_C 	C 	0.77604	0.31548	0.45424	0.188
Mof_C 	C 	0.68191	0.38389	0.4671	0.7
Mof_C 	C 	0.41008	0.36177	0.86638	-0.259
Mof_C 	C 	0.44557	0.3466	0.86123	0.628
Mof_C 	C 	0.35664	0.46544	0.71248	-0.32
Mof_C 	C 	0.31548	0.45424	0.77604	0.188
Mof_C 	C 	0.38389	0.4671	0.68191	0.7
Mof_C 	C 	0.86638	0.36177	0.41008	-0.259
Mof_C 	C 	0.86123	0.3466	0.44557	0.628
Mof_C 	C 	0.71248	0.46544	0.35664	-0.32
Mof_C 	C 	0.77604	0.45424	0.31548	0.188
Mof_C 	C 	0.68191	0.4671	0.38389	0.7
Mof_C 	C 	0.36177	0.41008	0.36177	-0.259
Mof_C 	C 	0.3466	0.44557	0.3466	0.628
Mof_C 	C 	0.46544	0.35664	0.46544	-0.32
Mof_C 	C 	0.45424	0.31548	0.45424	0.188
Mof_C 	C 	0.4671	0.38389	0.4671	0.7
Mof_C 	C 	0.36177	0.86638	0.36177	-0.259
Mof_C 	C 	0.3466	0.86123	0.3466	0.628
Mof_C 	C 	0.46544	0.71248	0.46544	-0.32
Mof_C 	C 	0.45424	0.77604	0.45424	0.188
Mof_C 	C 	0.4671	0.68191	0.4671	0.7
Mof_C 	C 	0.36177	0.41008	0.86638	-0.259
Mof_C 	C 	0.3466	0.44557	0.86123	0.628
Mof_C 	C 	0.46544	0.35664	0.71248	-0.32
Mof_C 	C 	0.45424	0.31548	0.77604	0.188
Mof_C 	C 	0.4671	0.38389	0.68191	0.7
Mof_C 	C 	0.36177	0.86638	0.41008	-0.259
Mof_C 	C 	0.3466	0.86123	0.44557	0.628
Mof_C 	C 	0.46544	0.71248	0.35664	-0.32
Mof_C 	C 	0.45424	0.77604	0.31548	0.188
Mof_C 	C 	0.4671	0.68191	0.38389	0.7
Mof_C 	C 	0.86638	0.36177	0.36177	-0.259
Mof_C 	C 	0.86123	0.3466	0.3466	0.628
Mof_C 	C 	0.71248	0.46544	0.46544	-0.32
Mof_C 	C 	0.77604	0.45424	0.45424	0.188
Mof_C 	C 	0.68191	0.4671	0.4671	0.7
Mof_C 	C 	0.41008	0.36177	0.36177	-0.259
Mof_C 	C 	0.44557	0.3466	0.3466	0.628
Mof_C 	C 	0.35664	0.46544	0.46544	-0.32
Mof_C 	C 	0.31548	0.45424	0.45424	0.188
Mof_C 	C 	0.38389	0.4671	0.4671	0.7
Mof_C 	C 	0.73491	0.73491	0.84281	-0.316
Mof_C 	C 	0.7534	0.7534	0.83639	0.7
Mof_C 	C 	0.73491	0.73491	0.68737	-0.316
Mof_C 	C 	0.7534	0.7534	0.65681	0.7
Mof_C 	C 	0.84281	0.68737	0.73491	-0.316
Mof_C 	C 	0.83639	0.65681	0.7534	0.7
Mof_C 	C 	0.68737	0.84281	0.73491	-0.316
Mof_C 	C 	0.65681	0.83639	0.7534	0.7
Mof_C 	C 	0.84281	0.73491	0.73491	-0.316
Mof_C 	C 	0.83639	0.7534	0.7534	0.7
Mof_C 	C 	0.68737	0.73491	0.73491	-0.316
Mof_C 	C 	0.65681	0.7534	0.7534	0.7
Mof_C 	C 	0.73491	0.84281	0.68737	-0.316
Mof_C 	C 	0.7534	0.83639	0.65681	0.7
Mof_C 	C 	0.73491	0.68737	0.84281	-0.316
Mof_C 	C 	0.7534	0.65681	0.83639	0.7
Mof_C 	C 	0.73491	0.84281	0.73491	-0.316
Mof_C 	C 	0.7534	0.83639	0.7534	0.7
Mof_C 	C 	0.73491	0.68737	0.73491	-0.316
Mof_C 	C 	0.7534	0.65681	0.7534	0.7
Mof_C 	C 	0.68737	0.73491	0.84281	-0.316
Mof_C 	C 	0.65681	0.7534	0.83639	0.7
Mof_C 	C 	0.84281	0.73491	0.68737	-0.316
Mof_C 	C 	0.83639	0.7534	0.65681	0.7
Mof_C 	C 	0.51509	0.51509	0.56263	-0.316
Mof_C 	C 	0.4966	0.4966	0.59319	0.7
Mof_C 	C 	0.51509	0.51509	0.40719	-0.316
Mof_C 	C 	0.4966	0.4966	0.41361	0.7
Mof_C 	C 	0.40719	0.56263	0.51509	-0.316
Mof_C 	C 	0.41361	0.59319	0.4966	0.7
Mof_C 	C 	0.56263	0.40719	0.51509	-0.316
Mof_C 	C 	0.59319	0.41361	0.4966	0.7
Mof_C 	C 	0.40719	0.51509	0.56263	-0.316
Mof_C 	C 	0.41361	0.4966	0.59319	0.7
Mof_C 	C 	0.56263	0.51509	0.40719	-0.316
Mof_C 	C 	0.59319	0.4966	0.41361	0.7
Mof_C 	C 	0.51509	0.40719	0.51509	-0.316
Mof_C 	C 	0.4966	0.41361	0.4966	0.7
Mof_C 	C 	0.51509	0.56263	0.51509	-0.316
Mof_C 	C 	0.4966	0.59319	0.4966	0.7
Mof_C 	C 	0.51509	0.40719	0.56263	-0.316
Mof_C 	C 	0.4966	0.41361	0.59319	0.7
Mof_C 	C 	0.51509	0.56263	0.40719	-0.316
Mof_C 	C 	0.4966	0.59319	0.41361	0.7
Mof_C 	C 	0.56263	0.51509	0.51509	-0.316
Mof_C 	C 	0.59319	0.4966	0.4966	0.7
Mof_C 	C 	0.40719	0.51509	0.51509	-0.316
Mof_C 	C 	0.41361	0.4966	0.4966	0.7
Mof_C 	C 	0.85632	0.90346	0.85632	0.147
Mof_C 	C 	0.90346	0.85632	0.3839	0.147
Mof_C 	C 	0.85632	0.3839	0.85632	0.147
Mof_C 	C 	0.3839	0.85632	0.90346	0.147
Mof_C 	C 	0.85632	0.85632	0.90346	0.147
Mof_C 	C 	0.3839	0.90346	0.85632	0.147
Mof_C 	C 	0.85632	0.85632	0.3839	0.147
Mof_C 	C 	0.90346	0.3839	0.85632	0.147
Mof_C 	C 	0.90346	0.85632	0.85632	0.147
Mof_C 	C 	0.85632	0.3839	0.90346	0.147
Mof_C 	C 	0.3839	0.85632	0.85632	0.147
Mof_C 	C 	0.85632	0.90346	0.3839	0.147
Mof_C 	C 	0.39368	0.34654	0.8661	0.147
Mof_C 	C 	0.34654	0.39368	0.39368	0.147
Mof_C 	C 	0.39368	0.8661	0.34654	0.147
Mof_C 	C 	0.8661	0.39368	0.39368	0.147
Mof_C 	C 	0.39368	0.39368	0.8661	0.147
Mof_C 	C 	0.8661	0.34654	0.39368	0.147
Mof_C 	C 	0.39368	0.39368	0.34654	0.147
Mof_C 	C 	0.34654	0.8661	0.39368	0.147
Mof_C 	C 	0.34654	0.39368	0.8661	0.147
Mof_C 	C 	0.39368	0.8661	0.39368	0.147
Mof_C 	C 	0.8661	0.39368	0.34654	0.147
Mof_C 	C 	0.39368	0.34654	0.39368	0.147
_end
