# CIF file generated by openbabel 3.1.0, see https://openbabel.org
data_I
_chemical_name_common 'image0'
_cell_length_a 8.9036
_cell_length_b 11.1229
_cell_length_c 13.851
_cell_angle_alpha 106.103
_cell_angle_beta 90.944
_cell_angle_gamma 109.83
_space_group_name_H-M_alt 'P 1'
_space_group_name_Hall 'P 1'
loop_
    _symmetry_equiv_pos_as_xyz
    x,y,z
loop_
    _atom_site_label
    _atom_site_type_symbol
    _atom_site_fract_x
    _atom_site_fract_y
    _atom_site_fract_z
    _atom_site_occupancy
    Gd1      Gd       0.77723    0.24736    0.23730    1.000
    Mn1      Mn       0.71086    0.59056    0.02670    1.000
    C1       C        0.46290    0.70340    0.94420    1.000
    C2       C        0.60240    0.83830    0.96590    1.000
    C3       C        0.82060    0.97370    0.91250    1.000
    H1       H        0.88920    0.98890    0.86370    1.000
    C4       C        0.70030    0.28590    0.48940    1.000
    C5       C        0.76790    0.43550    0.53720    1.000
    C6       C        0.84520    0.07420    0.00430    1.000
    C7       C        0.98430    0.20780    0.03490    1.000
    C8       C        0.62230    0.94150    0.05440    1.000
    C9       C        0.51140    0.93550    0.13590    1.000
    C10      C        0.74220    0.63820    0.55100    1.000
    H2       H        0.68990    0.68890    0.53170    1.000
    C11      C        0.87550    0.70260    0.62440    1.000
    C12      C        0.95020    0.85280    0.67440    1.000
    C13      C        0.90440    0.50080    0.60880    1.000
    C14      C        0.01110    0.43490    0.64160    1.000
    N1       N        0.69850    0.85450    0.89350    1.000
    N2       N        0.74510    0.05930    0.07370    1.000
    N3       N        0.68650    0.50420    0.50690    1.000
    N4       N        0.95460    0.63230    0.65190    1.000
    O1       O        0.48490    0.61280    0.97380    1.000
    O2       O        0.33950    0.69250    0.89380    1.000
    O3       O        0.08820    0.22780    0.97570    1.000
    O4       O        0.98160    0.28820    0.11930    1.000
    O5       O        0.54830    0.04350    0.21010    1.000
    O6       O        0.39260    0.83510    0.12220    1.000
    O7       O        0.73880    0.23780    0.40440    1.000
    O8       O        0.60810    0.22110    0.53900    1.000
    O9       O        0.88310    0.92570    0.65480    1.000
    O10      O        0.08100    0.89240    0.73160    1.000
    O11      O        0.12840    0.51300    0.70750    1.000
    O12      O        0.97670    0.31370    0.59830    1.000
    Gd2      Gd       0.22277    0.75264    0.76270    1.000
    Mn2      Mn       0.28914    0.40944    0.97330    1.000
    C15      C        0.53710    0.29660    0.05580    1.000
    C16      C        0.39760    0.16170    0.03410    1.000
    C17      C        0.17940    0.02630    0.08750    1.000
    H3       H        0.11080    0.01110    0.13630    1.000
    C18      C        0.29970    0.71410    0.51060    1.000
    C19      C        0.23210    0.56450    0.46280    1.000
    C20      C        0.15480    0.92580    0.99570    1.000
    C21      C        0.01570    0.79220    0.96510    1.000
    C22      C        0.37770    0.05850    0.94560    1.000
    C23      C        0.48860    0.06450    0.86410    1.000
    C24      C        0.25780    0.36180    0.44900    1.000
    H4       H        0.31010    0.31110    0.46830    1.000
    C25      C        0.12450    0.29740    0.37560    1.000
    C26      C        0.04980    0.14720    0.32560    1.000
    C27      C        0.09560    0.49920    0.39120    1.000
    C28      C        0.98890    0.56510    0.35840    1.000
    N5       N        0.30150    0.14550    0.10650    1.000
    N6       N        0.25490    0.94070    0.92630    1.000
    N7       N        0.31350    0.49580    0.49310    1.000
    N8       N        0.04540    0.36770    0.34810    1.000
    O13      O        0.51510    0.38720    0.02620    1.000
    O14      O        0.66050    0.30750    0.10620    1.000
    O15      O        0.91180    0.77220    0.02430    1.000
    O16      O        0.01840    0.71180    0.88070    1.000
    O17      O        0.45170    0.95650    0.78990    1.000
    O18      O        0.60740    0.16490    0.87780    1.000
    O19      O        0.26120    0.76220    0.59560    1.000
    O20      O        0.39190    0.77890    0.46100    1.000
    O21      O        0.11690    0.07430    0.34520    1.000
    O22      O        0.91900    0.10760    0.26840    1.000
    O23      O        0.87160    0.48700    0.29250    1.000
    O24      O        0.02330    0.68630    0.40170    1.000
    Mn3      Mn       0.50000    0.00000    0.50000    1.000
