data_functionalizedCrystal
_audit_creation_method	'EQeq! by Chris Wilmer'
_symmetry_space_group_name_H-M	'P1'
_symmetry_Int_Tables_number	1
_symmetry_cell_setting	triclinic
loop_
_symmetry_equiv_pos_as_xyz
  x,y,z
_cell_length_a	20.5213
_cell_length_b	20.5213
_cell_length_c	20.5213
_cell_angle_alpha	90
_cell_angle_beta	90
_cell_angle_gamma	90
loop_
_atom_site_label
_atom_site_type_symbol
_atom_site_fract_x
_atom_site_fract_y
_atom_site_fract_z
_atom_site_charge
Mof_Co	Co	0.83872	0.60162	0.85685	1.196
Mof_Co	Co	0.99403	0.43891	0.72415	1.176
Mof_Co	Co	0.66128	0.39838	0.35685	1.196
Mof_Co	Co	0.50597	0.56109	0.22415	1.176
Mof_Co	Co	0.16128	0.10162	0.64315	1.196
Mof_Co	Co	0.00597	0.93891	0.77585	1.174
Mof_Co	Co	0.33872	0.89838	0.14315	1.197
Mof_Co	Co	0.49403	0.06109	0.27585	1.177
Mof_Co	Co	0.85685	0.83872	0.60162	1.197
Mof_Co	Co	0.72415	0.99403	0.43891	1.177
Mof_Co	Co	0.35685	0.66128	0.39838	1.197
Mof_Co	Co	0.22415	0.50597	0.56109	1.177
Mof_Co	Co	0.64315	0.16128	0.10162	1.197
Mof_Co	Co	0.77585	0.00597	0.93891	1.175
Mof_Co	Co	0.14315	0.33872	0.89838	1.197
Mof_Co	Co	0.27585	0.49403	0.06109	1.177
Mof_Co	Co	0.60162	0.85685	0.83872	1.197
Mof_Co	Co	0.43891	0.72415	0.99403	1.177
Mof_Co	Co	0.39838	0.35685	0.66128	1.197
Mof_Co	Co	0.56109	0.22415	0.50597	1.177
Mof_Co	Co	0.10162	0.64315	0.16128	1.197
Mof_Co	Co	0.93891	0.77585	0.00597	1.175
Mof_Co	Co	0.89838	0.14315	0.33872	1.197
Mof_Co	Co	0.06109	0.27585	0.49403	1.177
Mof_Co	Co	0.16128	0.39838	0.14315	1.197
Mof_Co	Co	0.00597	0.56109	0.27585	1.177
Mof_Co	Co	0.33872	0.60162	0.64315	1.197
Mof_Co	Co	0.49403	0.43891	0.77585	1.177
Mof_Co	Co	0.83872	0.89838	0.35685	1.197
Mof_Co	Co	0.99403	0.06109	0.22415	1.175
Mof_Co	Co	0.66128	0.10162	0.85685	1.197
Mof_Co	Co	0.50597	0.93891	0.72415	1.177
Mof_Co	Co	0.14315	0.16128	0.39838	1.197
Mof_Co	Co	0.27585	0.00597	0.56109	1.177
Mof_Co	Co	0.64315	0.33872	0.60162	1.197
Mof_Co	Co	0.77585	0.49403	0.43891	1.177
Mof_Co	Co	0.35685	0.83872	0.89838	1.197
Mof_Co	Co	0.22415	0.99403	0.06109	1.175
Mof_Co	Co	0.85685	0.66128	0.10162	1.197
Mof_Co	Co	0.72415	0.50597	0.93891	1.177
Mof_Co	Co	0.39838	0.14315	0.16128	1.197
Mof_Co	Co	0.56109	0.27585	0.00597	1.177
Mof_Co	Co	0.60162	0.64315	0.33872	1.197
Mof_Co	Co	0.43891	0.77585	0.49403	1.177
Mof_Co	Co	0.89838	0.35685	0.83872	1.197
Mof_Co	Co	0.06109	0.22415	0.99403	1.175
Mof_Co	Co	0.10162	0.85685	0.66128	1.197
Mof_Co	Co	0.93891	0.72415	0.50597	1.177
Mof_H 	H 	0.879	0.6223	0.6994	0.058
Mof_H 	H 	0.9975	0.6608	0.6924	0.089
Mof_H 	H 	0.0084	0.6998	0.7934	0.075
Mof_H 	H 	0.8887	0.7629	0.805	0.075
Mof_H 	H 	0.8535	0.4948	0.9235	0.229
Mof_H 	H 	0.8417	0.5517	0.9734	0.232
Mof_H 	H 	0.621	0.3777	0.1994	0.059
Mof_H 	H 	0.5025	0.3392	0.1924	0.087
Mof_H 	H 	0.4916	0.3002	0.2934	0.08
Mof_H 	H 	0.6113	0.2371	0.305	0.074
Mof_H 	H 	0.6465	0.5052	0.4235	0.229
Mof_H 	H 	0.6583	0.4483	0.4734	0.231
Mof_H 	H 	0.121	0.1223	0.8006	0.058
Mof_H 	H 	0.0025	0.1608	0.8076	0.087
Mof_H 	H 	0.9916	0.1998	0.7066	0.08
Mof_H 	H 	0.1113	0.2629	0.695	0.074
Mof_H 	H 	0.1465	0.9948	0.5765	0.228
Mof_H 	H 	0.1583	0.0517	0.5266	0.231
Mof_H 	H 	0.379	0.8777	0.3006	0.058
Mof_H 	H 	0.4975	0.8392	0.3076	0.087
Mof_H 	H 	0.5084	0.8002	0.2066	0.08
Mof_H 	H 	0.3887	0.7371	0.195	0.074
Mof_H 	H 	0.3535	0.0052	0.0765	0.233
Mof_H 	H 	0.3417	0.9483	0.0266	0.231
Mof_H 	H 	0.6994	0.879	0.6223	0.058
Mof_H 	H 	0.6924	0.9975	0.6608	0.089
Mof_H 	H 	0.7934	0.0084	0.6998	0.075
Mof_H 	H 	0.805	0.8887	0.7629	0.075
Mof_H 	H 	0.9235	0.8535	0.4948	0.229
Mof_H 	H 	0.9734	0.8417	0.5517	0.232
Mof_H 	H 	0.1994	0.621	0.3777	0.059
Mof_H 	H 	0.1924	0.5025	0.3392	0.087
Mof_H 	H 	0.2934	0.4916	0.3002	0.08
Mof_H 	H 	0.305	0.6113	0.2371	0.074
Mof_H 	H 	0.4235	0.6465	0.5052	0.229
Mof_H 	H 	0.4734	0.6583	0.4483	0.231
Mof_H 	H 	0.8006	0.121	0.1223	0.058
Mof_H 	H 	0.8076	0.0025	0.1608	0.087
Mof_H 	H 	0.7066	0.9916	0.1998	0.08
Mof_H 	H 	0.695	0.1113	0.2629	0.074
Mof_H 	H 	0.5765	0.1465	0.9948	0.228
Mof_H 	H 	0.5266	0.1583	0.0517	0.231
Mof_H 	H 	0.3006	0.379	0.8777	0.058
Mof_H 	H 	0.3076	0.4975	0.8392	0.087
Mof_H 	H 	0.2066	0.5084	0.8002	0.08
Mof_H 	H 	0.195	0.3887	0.7371	0.074
Mof_H 	H 	0.0765	0.3535	0.0052	0.233
Mof_H 	H 	0.0266	0.3417	0.9483	0.231
Mof_H 	H 	0.6223	0.6994	0.879	0.058
Mof_H 	H 	0.6608	0.6924	0.9975	0.089
Mof_H 	H 	0.6998	0.7934	0.0084	0.075
Mof_H 	H 	0.7629	0.805	0.8887	0.075
Mof_H 	H 	0.4948	0.9235	0.8535	0.229
Mof_H 	H 	0.5517	0.9734	0.8417	0.232
Mof_H 	H 	0.3777	0.1994	0.621	0.059
Mof_H 	H 	0.3392	0.1924	0.5025	0.087
Mof_H 	H 	0.3002	0.2934	0.4916	0.08
Mof_H 	H 	0.2371	0.305	0.6113	0.074
Mof_H 	H 	0.5052	0.4235	0.6465	0.229
Mof_H 	H 	0.4483	0.4734	0.6583	0.231
Mof_H 	H 	0.1223	0.8006	0.121	0.058
Mof_H 	H 	0.1608	0.8076	0.0025	0.087
Mof_H 	H 	0.1998	0.7066	0.9916	0.08
Mof_H 	H 	0.2629	0.695	0.1113	0.074
Mof_H 	H 	0.9948	0.5765	0.1465	0.228
Mof_H 	H 	0.0517	0.5266	0.1583	0.231
Mof_H 	H 	0.8777	0.3006	0.379	0.058
Mof_H 	H 	0.8392	0.3076	0.4975	0.087
Mof_H 	H 	0.8002	0.2066	0.5084	0.08
Mof_H 	H 	0.7371	0.195	0.3887	0.074
Mof_H 	H 	0.0052	0.0765	0.3535	0.233
Mof_H 	H 	0.9483	0.0266	0.3417	0.231
Mof_H 	H 	0.121	0.3777	0.3006	0.058
Mof_H 	H 	0.0025	0.3392	0.3076	0.089
Mof_H 	H 	0.9916	0.3002	0.2066	0.075
Mof_H 	H 	0.1113	0.2371	0.195	0.075
Mof_H 	H 	0.1465	0.5052	0.0765	0.229
Mof_H 	H 	0.1583	0.4483	0.0266	0.232
Mof_H 	H 	0.379	0.6223	0.8006	0.059
Mof_H 	H 	0.4975	0.6608	0.8076	0.087
Mof_H 	H 	0.5084	0.6998	0.7066	0.08
Mof_H 	H 	0.3887	0.7629	0.695	0.074
Mof_H 	H 	0.3535	0.4948	0.5765	0.229
Mof_H 	H 	0.3417	0.5517	0.5266	0.231
Mof_H 	H 	0.879	0.8777	0.1994	0.058
Mof_H 	H 	0.9975	0.8392	0.1924	0.087
Mof_H 	H 	0.0084	0.8002	0.2934	0.08
Mof_H 	H 	0.8887	0.7371	0.305	0.074
Mof_H 	H 	0.8535	0.0052	0.4235	0.228
Mof_H 	H 	0.8417	0.9483	0.4734	0.231
Mof_H 	H 	0.621	0.1223	0.6994	0.058
Mof_H 	H 	0.5025	0.1608	0.6924	0.087
Mof_H 	H 	0.4916	0.1998	0.7934	0.08
Mof_H 	H 	0.6113	0.2629	0.805	0.074
Mof_H 	H 	0.6465	0.9948	0.9235	0.233
Mof_H 	H 	0.6583	0.0517	0.9734	0.231
Mof_H 	H 	0.3006	0.121	0.3777	0.058
Mof_H 	H 	0.3076	0.0025	0.3392	0.089
Mof_H 	H 	0.2066	0.9916	0.3002	0.075
Mof_H 	H 	0.195	0.1113	0.2371	0.075
Mof_H 	H 	0.0765	0.1465	0.5052	0.229
Mof_H 	H 	0.0266	0.1583	0.4483	0.232
Mof_H 	H 	0.8006	0.379	0.6223	0.059
Mof_H 	H 	0.8076	0.4975	0.6608	0.087
Mof_H 	H 	0.7066	0.5084	0.6998	0.08
Mof_H 	H 	0.695	0.3887	0.7629	0.074
Mof_H 	H 	0.5765	0.3535	0.4948	0.229
Mof_H 	H 	0.5266	0.3417	0.5517	0.231
Mof_H 	H 	0.1994	0.879	0.8777	0.058
Mof_H 	H 	0.1924	0.9975	0.8392	0.087
Mof_H 	H 	0.2934	0.0084	0.8002	0.08
Mof_H 	H 	0.305	0.8887	0.7371	0.074
Mof_H 	H 	0.4235	0.8535	0.0052	0.228
Mof_H 	H 	0.4734	0.8417	0.9483	0.231
Mof_H 	H 	0.6994	0.621	0.1223	0.058
Mof_H 	H 	0.6924	0.5025	0.1608	0.087
Mof_H 	H 	0.7934	0.4916	0.1998	0.08
Mof_H 	H 	0.805	0.6113	0.2629	0.074
Mof_H 	H 	0.9235	0.6465	0.9948	0.233
Mof_H 	H 	0.9734	0.6583	0.0517	0.231
Mof_H 	H 	0.3777	0.3006	0.121	0.058
Mof_H 	H 	0.3392	0.3076	0.0025	0.089
Mof_H 	H 	0.3002	0.2066	0.9916	0.075
Mof_H 	H 	0.2371	0.195	0.1113	0.075
Mof_H 	H 	0.5052	0.0765	0.1465	0.229
Mof_H 	H 	0.4483	0.0266	0.1583	0.232
Mof_H 	H 	0.6223	0.8006	0.379	0.059
Mof_H 	H 	0.6608	0.8076	0.4975	0.087
Mof_H 	H 	0.6998	0.7066	0.5084	0.08
Mof_H 	H 	0.7629	0.695	0.3887	0.074
Mof_H 	H 	0.4948	0.5765	0.3535	0.229
Mof_H 	H 	0.5517	0.5266	0.3417	0.231
Mof_H 	H 	0.8777	0.1994	0.879	0.058
Mof_H 	H 	0.8392	0.1924	0.9975	0.087
Mof_H 	H 	0.8002	0.2934	0.0084	0.08
Mof_H 	H 	0.7371	0.305	0.8887	0.074
Mof_H 	H 	0.0052	0.4235	0.8535	0.228
Mof_H 	H 	0.9483	0.4734	0.8417	0.231
Mof_H 	H 	0.1223	0.6994	0.621	0.058
Mof_H 	H 	0.1608	0.6924	0.5025	0.087
Mof_H 	H 	0.1998	0.7934	0.4916	0.08
Mof_H 	H 	0.2629	0.805	0.6113	0.074
Mof_H 	H 	0.9948	0.9235	0.6465	0.233
Mof_H 	H 	0.0517	0.9734	0.6583	0.231
Mof_C 	C 	0.909	0.63387	0.73472	-0.029
Mof_C 	C 	0.93852	0.57092	0.76203	0.337
Mof_C 	C 	0.95851	0.68333	0.70835	-0.121
Mof_C 	C 	0.92588	0.72086	0.65303	0.406
Mof_C 	C 	0.97506	0.72392	0.7691	-0.09
Mof_C 	C 	0.00365	0.79134	0.75367	0.385
Mof_C 	C 	0.91227	0.72167	0.80989	-0.033
Mof_C 	C 	0.92604	0.70963	0.88175	0.339
Mof_C 	C 	0.591	0.36613	0.23472	-0.03
Mof_C 	C 	0.56148	0.42908	0.26203	0.337
Mof_C 	C 	0.54149	0.31667	0.20835	-0.117
Mof_C 	C 	0.57412	0.27914	0.15303	0.405
Mof_C 	C 	0.52494	0.27608	0.2691	-0.101
Mof_C 	C 	0.49635	0.20866	0.25367	0.395
Mof_C 	C 	0.58773	0.27833	0.30989	-0.03
Mof_C 	C 	0.57396	0.29037	0.38175	0.338
Mof_C 	C 	0.091	0.13387	0.76528	-0.03
Mof_C 	C 	0.06148	0.07092	0.73797	0.337
Mof_C 	C 	0.04149	0.18333	0.79165	-0.118
Mof_C 	C 	0.07412	0.22086	0.84697	0.405
Mof_C 	C 	0.02494	0.22392	0.7309	-0.1
Mof_C 	C 	0.99635	0.29134	0.74633	0.396
Mof_C 	C 	0.08773	0.22167	0.69011	-0.03
Mof_C 	C 	0.07396	0.20963	0.61825	0.338
Mof_C 	C 	0.409	0.86613	0.26528	-0.03
Mof_C 	C 	0.43852	0.92908	0.23797	0.337
Mof_C 	C 	0.45851	0.81667	0.29165	-0.117
Mof_C 	C 	0.42588	0.77914	0.34697	0.405
Mof_C 	C 	0.47506	0.77608	0.2309	-0.101
Mof_C 	C 	0.50365	0.70866	0.24633	0.395
Mof_C 	C 	0.41227	0.77833	0.19011	-0.03
Mof_C 	C 	0.42604	0.79037	0.11825	0.338
Mof_C 	C 	0.73472	0.909	0.63387	-0.029
Mof_C 	C 	0.76203	0.93852	0.57092	0.337
Mof_C 	C 	0.70835	0.95851	0.68333	-0.121
Mof_C 	C 	0.65303	0.92588	0.72086	0.406
Mof_C 	C 	0.7691	0.97506	0.72392	-0.09
Mof_C 	C 	0.75367	0.00365	0.79134	0.385
Mof_C 	C 	0.80989	0.91227	0.72167	-0.033
Mof_C 	C 	0.88175	0.92604	0.70963	0.339
Mof_C 	C 	0.23472	0.591	0.36613	-0.03
Mof_C 	C 	0.26203	0.56148	0.42908	0.337
Mof_C 	C 	0.20835	0.54149	0.31667	-0.117
Mof_C 	C 	0.15303	0.57412	0.27914	0.405
Mof_C 	C 	0.2691	0.52494	0.27608	-0.101
Mof_C 	C 	0.25367	0.49635	0.20866	0.395
Mof_C 	C 	0.30989	0.58773	0.27833	-0.03
Mof_C 	C 	0.38175	0.57396	0.29037	0.338
Mof_C 	C 	0.76528	0.091	0.13387	-0.03
Mof_C 	C 	0.73797	0.06148	0.07092	0.337
Mof_C 	C 	0.79165	0.04149	0.18333	-0.118
Mof_C 	C 	0.84697	0.07412	0.22086	0.405
Mof_C 	C 	0.7309	0.02494	0.22392	-0.1
Mof_C 	C 	0.74633	0.99635	0.29134	0.396
Mof_C 	C 	0.69011	0.08773	0.22167	-0.03
Mof_C 	C 	0.61825	0.07396	0.20963	0.338
Mof_C 	C 	0.26528	0.409	0.86613	-0.03
Mof_C 	C 	0.23797	0.43852	0.92908	0.337
Mof_C 	C 	0.29165	0.45851	0.81667	-0.117
Mof_C 	C 	0.34697	0.42588	0.77914	0.405
Mof_C 	C 	0.2309	0.47506	0.77608	-0.101
Mof_C 	C 	0.24633	0.50365	0.70866	0.395
Mof_C 	C 	0.19011	0.41227	0.77833	-0.03
Mof_C 	C 	0.11825	0.42604	0.79037	0.338
Mof_C 	C 	0.63387	0.73472	0.909	-0.029
Mof_C 	C 	0.57092	0.76203	0.93852	0.337
Mof_C 	C 	0.68333	0.70835	0.95851	-0.121
Mof_C 	C 	0.72086	0.65303	0.92588	0.406
Mof_C 	C 	0.72392	0.7691	0.97506	-0.09
Mof_C 	C 	0.79134	0.75367	0.00365	0.385
Mof_C 	C 	0.72167	0.80989	0.91227	-0.033
Mof_C 	C 	0.70963	0.88175	0.92604	0.339
Mof_C 	C 	0.36613	0.23472	0.591	-0.03
Mof_C 	C 	0.42908	0.26203	0.56148	0.337
Mof_C 	C 	0.31667	0.20835	0.54149	-0.117
Mof_C 	C 	0.27914	0.15303	0.57412	0.405
Mof_C 	C 	0.27608	0.2691	0.52494	-0.101
Mof_C 	C 	0.20866	0.25367	0.49635	0.395
Mof_C 	C 	0.27833	0.30989	0.58773	-0.03
Mof_C 	C 	0.29037	0.38175	0.57396	0.338
Mof_C 	C 	0.13387	0.76528	0.091	-0.03
Mof_C 	C 	0.07092	0.73797	0.06148	0.337
Mof_C 	C 	0.18333	0.79165	0.04149	-0.118
Mof_C 	C 	0.22086	0.84697	0.07412	0.405
Mof_C 	C 	0.22392	0.7309	0.02494	-0.1
Mof_C 	C 	0.29134	0.74633	0.99635	0.396
Mof_C 	C 	0.22167	0.69011	0.08773	-0.03
Mof_C 	C 	0.20963	0.61825	0.07396	0.338
Mof_C 	C 	0.86613	0.26528	0.409	-0.03
Mof_C 	C 	0.92908	0.23797	0.43852	0.337
Mof_C 	C 	0.81667	0.29165	0.45851	-0.117
Mof_C 	C 	0.77914	0.34697	0.42588	0.405
Mof_C 	C 	0.77608	0.2309	0.47506	-0.101
Mof_C 	C 	0.70866	0.24633	0.50365	0.395
Mof_C 	C 	0.77833	0.19011	0.41227	-0.03
Mof_C 	C 	0.79037	0.11825	0.42604	0.338
Mof_C 	C 	0.091	0.36613	0.26528	-0.029
Mof_C 	C 	0.06148	0.42908	0.23797	0.337
Mof_C 	C 	0.04149	0.31667	0.29165	-0.121
Mof_C 	C 	0.07412	0.27914	0.34697	0.406
Mof_C 	C 	0.02494	0.27608	0.2309	-0.09
Mof_C 	C 	0.99635	0.20866	0.24633	0.385
Mof_C 	C 	0.08773	0.27833	0.19011	-0.033
Mof_C 	C 	0.07396	0.29037	0.11825	0.339
Mof_C 	C 	0.409	0.63387	0.76528	-0.03
Mof_C 	C 	0.43852	0.57092	0.73797	0.337
Mof_C 	C 	0.45851	0.68333	0.79165	-0.117
Mof_C 	C 	0.42588	0.72086	0.84697	0.405
Mof_C 	C 	0.47506	0.72392	0.7309	-0.101
Mof_C 	C 	0.50365	0.79134	0.74633	0.395
Mof_C 	C 	0.41227	0.72167	0.69011	-0.03
Mof_C 	C 	0.42604	0.70963	0.61825	0.338
Mof_C 	C 	0.909	0.86613	0.23472	-0.03
Mof_C 	C 	0.93852	0.92908	0.26203	0.337
Mof_C 	C 	0.95851	0.81667	0.20835	-0.118
Mof_C 	C 	0.92588	0.77914	0.15303	0.405
Mof_C 	C 	0.97506	0.77608	0.2691	-0.1
Mof_C 	C 	0.00365	0.70866	0.25367	0.396
Mof_C 	C 	0.91227	0.77833	0.30989	-0.03
Mof_C 	C 	0.92604	0.79037	0.38175	0.338
Mof_C 	C 	0.591	0.13387	0.73472	-0.03
Mof_C 	C 	0.56148	0.07092	0.76203	0.337
Mof_C 	C 	0.54149	0.18333	0.70835	-0.117
Mof_C 	C 	0.57412	0.22086	0.65303	0.405
Mof_C 	C 	0.52494	0.22392	0.7691	-0.101
Mof_C 	C 	0.49635	0.29134	0.75367	0.395
Mof_C 	C 	0.58773	0.22167	0.80989	-0.03
Mof_C 	C 	0.57396	0.20963	0.88175	0.338
Mof_C 	C 	0.26528	0.091	0.36613	-0.029
Mof_C 	C 	0.23797	0.06148	0.42908	0.337
Mof_C 	C 	0.29165	0.04149	0.31667	-0.121
Mof_C 	C 	0.34697	0.07412	0.27914	0.406
Mof_C 	C 	0.2309	0.02494	0.27608	-0.09
Mof_C 	C 	0.24633	0.99635	0.20866	0.385
Mof_C 	C 	0.19011	0.08773	0.27833	-0.033
Mof_C 	C 	0.11825	0.07396	0.29037	0.339
Mof_C 	C 	0.76528	0.409	0.63387	-0.03
Mof_C 	C 	0.73797	0.43852	0.57092	0.337
Mof_C 	C 	0.79165	0.45851	0.68333	-0.117
Mof_C 	C 	0.84697	0.42588	0.72086	0.405
Mof_C 	C 	0.7309	0.47506	0.72392	-0.101
Mof_C 	C 	0.74633	0.50365	0.79134	0.395
Mof_C 	C 	0.69011	0.41227	0.72167	-0.03
Mof_C 	C 	0.61825	0.42604	0.70963	0.338
Mof_C 	C 	0.23472	0.909	0.86613	-0.03
Mof_C 	C 	0.26203	0.93852	0.92908	0.337
Mof_C 	C 	0.20835	0.95851	0.81667	-0.118
Mof_C 	C 	0.15303	0.92588	0.77914	0.405
Mof_C 	C 	0.2691	0.97506	0.77608	-0.1
Mof_C 	C 	0.25367	0.00365	0.70866	0.396
Mof_C 	C 	0.30989	0.91227	0.77833	-0.03
Mof_C 	C 	0.38175	0.92604	0.79037	0.338
Mof_C 	C 	0.73472	0.591	0.13387	-0.03
Mof_C 	C 	0.76203	0.56148	0.07092	0.337
Mof_C 	C 	0.70835	0.54149	0.18333	-0.117
Mof_C 	C 	0.65303	0.57412	0.22086	0.405
Mof_C 	C 	0.7691	0.52494	0.22392	-0.101
Mof_C 	C 	0.75367	0.49635	0.29134	0.395
Mof_C 	C 	0.80989	0.58773	0.22167	-0.03
Mof_C 	C 	0.88175	0.57396	0.20963	0.338
Mof_C 	C 	0.36613	0.26528	0.091	-0.029
Mof_C 	C 	0.42908	0.23797	0.06148	0.337
Mof_C 	C 	0.31667	0.29165	0.04149	-0.121
Mof_C 	C 	0.27914	0.34697	0.07412	0.406
Mof_C 	C 	0.27608	0.2309	0.02494	-0.09
Mof_C 	C 	0.20866	0.24633	0.99635	0.385
Mof_C 	C 	0.27833	0.19011	0.08773	-0.033
Mof_C 	C 	0.29037	0.11825	0.07396	0.339
Mof_C 	C 	0.63387	0.76528	0.409	-0.03
Mof_C 	C 	0.57092	0.73797	0.43852	0.337
Mof_C 	C 	0.68333	0.79165	0.45851	-0.117
Mof_C 	C 	0.72086	0.84697	0.42588	0.405
Mof_C 	C 	0.72392	0.7309	0.47506	-0.101
Mof_C 	C 	0.79134	0.74633	0.50365	0.395
Mof_C 	C 	0.72167	0.69011	0.41227	-0.03
Mof_C 	C 	0.70963	0.61825	0.42604	0.338
Mof_C 	C 	0.86613	0.23472	0.909	-0.03
Mof_C 	C 	0.92908	0.26203	0.93852	0.337
Mof_C 	C 	0.81667	0.20835	0.95851	-0.118
Mof_C 	C 	0.77914	0.15303	0.92588	0.405
Mof_C 	C 	0.77608	0.2691	0.97506	-0.1
Mof_C 	C 	0.70866	0.25367	0.00365	0.396
Mof_C 	C 	0.77833	0.30989	0.91227	-0.03
Mof_C 	C 	0.79037	0.38175	0.92604	0.338
Mof_C 	C 	0.13387	0.73472	0.591	-0.03
Mof_C 	C 	0.07092	0.76203	0.56148	0.337
Mof_C 	C 	0.18333	0.70835	0.54149	-0.117
Mof_C 	C 	0.22086	0.65303	0.57412	0.405
Mof_C 	C 	0.22392	0.7691	0.52494	-0.101
Mof_C 	C 	0.29134	0.75367	0.49635	0.395
Mof_C 	C 	0.22167	0.80989	0.58773	-0.03
Mof_C 	C 	0.20963	0.88175	0.57396	0.338
Mof_O 	O 	0.87297	0.66902	0.78382	-0.261
Mof_O 	O 	0.91906	0.55165	0.81704	-0.421
Mof_O 	O 	0.97736	0.54141	0.72616	-0.396
Mof_O 	O 	0.92906	0.69403	0.59854	-0.465
Mof_O 	O 	0.89671	0.77267	0.66535	-0.424
Mof_O 	O 	0.05123	0.79021	0.71496	-0.434
Mof_O 	O 	0.98072	0.8404	0.78088	-0.424
Mof_O 	O 	0.95747	0.75345	0.91042	-0.401
Mof_O 	O 	0.90642	0.65787	0.90807	-0.421
Mof_O 	O 	0.82728	0.5331	0.93237	-0.672
Mof_O 	O 	0.62703	0.33098	0.28382	-0.262
Mof_O 	O 	0.58094	0.44835	0.31704	-0.421
Mof_O 	O 	0.52264	0.45859	0.22616	-0.397
Mof_O 	O 	0.57094	0.30597	0.09854	-0.464
Mof_O 	O 	0.60329	0.22733	0.16535	-0.424
Mof_O 	O 	0.44877	0.20979	0.21496	-0.436
Mof_O 	O 	0.51928	0.1596	0.28088	-0.43
Mof_O 	O 	0.54253	0.24655	0.41042	-0.403
Mof_O 	O 	0.59358	0.34213	0.40807	-0.422
Mof_O 	O 	0.67272	0.4669	0.43237	-0.672
Mof_O 	O 	0.12703	0.16902	0.71618	-0.262
Mof_O 	O 	0.08094	0.05165	0.68296	-0.421
Mof_O 	O 	0.02264	0.04141	0.77384	-0.396
Mof_O 	O 	0.07094	0.19403	0.90146	-0.465
Mof_O 	O 	0.10329	0.27267	0.83465	-0.424
Mof_O 	O 	0.94877	0.29021	0.78504	-0.436
Mof_O 	O 	0.01928	0.3404	0.71912	-0.431
Mof_O 	O 	0.04253	0.25345	0.58958	-0.403
Mof_O 	O 	0.09358	0.15787	0.59193	-0.421
Mof_O 	O 	0.17272	0.0331	0.56763	-0.67
Mof_O 	O 	0.37297	0.83098	0.21618	-0.262
Mof_O 	O 	0.41906	0.94835	0.18296	-0.423
Mof_O 	O 	0.47736	0.95859	0.27384	-0.397
Mof_O 	O 	0.42906	0.80597	0.40146	-0.465
Mof_O 	O 	0.39671	0.72733	0.33465	-0.424
Mof_O 	O 	0.55123	0.70979	0.28504	-0.436
Mof_O 	O 	0.48072	0.6596	0.21912	-0.43
Mof_O 	O 	0.45747	0.74655	0.08958	-0.404
Mof_O 	O 	0.40642	0.84213	0.09193	-0.422
Mof_O 	O 	0.32728	0.9669	0.06763	-0.676
Mof_O 	O 	0.78382	0.87297	0.66902	-0.261
Mof_O 	O 	0.81704	0.91906	0.55165	-0.421
Mof_O 	O 	0.72616	0.97736	0.54141	-0.396
Mof_O 	O 	0.59854	0.92906	0.69403	-0.465
Mof_O 	O 	0.66535	0.89671	0.77267	-0.424
Mof_O 	O 	0.71496	0.05123	0.79021	-0.434
Mof_O 	O 	0.78088	0.98072	0.8404	-0.424
Mof_O 	O 	0.91042	0.95747	0.75345	-0.401
Mof_O 	O 	0.90807	0.90642	0.65787	-0.421
Mof_O 	O 	0.93237	0.82728	0.5331	-0.672
Mof_O 	O 	0.28382	0.62703	0.33098	-0.262
Mof_O 	O 	0.31704	0.58094	0.44835	-0.421
Mof_O 	O 	0.22616	0.52264	0.45859	-0.397
Mof_O 	O 	0.09854	0.57094	0.30597	-0.464
Mof_O 	O 	0.16535	0.60329	0.22733	-0.424
Mof_O 	O 	0.21496	0.44877	0.20979	-0.436
Mof_O 	O 	0.28088	0.51928	0.1596	-0.43
Mof_O 	O 	0.41042	0.54253	0.24655	-0.403
Mof_O 	O 	0.40807	0.59358	0.34213	-0.422
Mof_O 	O 	0.43237	0.67272	0.4669	-0.672
Mof_O 	O 	0.71618	0.12703	0.16902	-0.262
Mof_O 	O 	0.68296	0.08094	0.05165	-0.421
Mof_O 	O 	0.77384	0.02264	0.04141	-0.396
Mof_O 	O 	0.90146	0.07094	0.19403	-0.465
Mof_O 	O 	0.83465	0.10329	0.27267	-0.424
Mof_O 	O 	0.78504	0.94877	0.29021	-0.436
Mof_O 	O 	0.71912	0.01928	0.3404	-0.431
Mof_O 	O 	0.58958	0.04253	0.25345	-0.403
Mof_O 	O 	0.59193	0.09358	0.15787	-0.421
Mof_O 	O 	0.56763	0.17272	0.0331	-0.67
Mof_O 	O 	0.21618	0.37297	0.83098	-0.262
Mof_O 	O 	0.18296	0.41906	0.94835	-0.423
Mof_O 	O 	0.27384	0.47736	0.95859	-0.397
Mof_O 	O 	0.40146	0.42906	0.80597	-0.465
Mof_O 	O 	0.33465	0.39671	0.72733	-0.424
Mof_O 	O 	0.28504	0.55123	0.70979	-0.436
Mof_O 	O 	0.21912	0.48072	0.6596	-0.43
Mof_O 	O 	0.08958	0.45747	0.74655	-0.404
Mof_O 	O 	0.09193	0.40642	0.84213	-0.422
Mof_O 	O 	0.06763	0.32728	0.9669	-0.676
Mof_O 	O 	0.66902	0.78382	0.87297	-0.261
Mof_O 	O 	0.55165	0.81704	0.91906	-0.421
Mof_O 	O 	0.54141	0.72616	0.97736	-0.396
Mof_O 	O 	0.69403	0.59854	0.92906	-0.465
Mof_O 	O 	0.77267	0.66535	0.89671	-0.424
Mof_O 	O 	0.79021	0.71496	0.05123	-0.434
Mof_O 	O 	0.8404	0.78088	0.98072	-0.424
Mof_O 	O 	0.75345	0.91042	0.95747	-0.401
Mof_O 	O 	0.65787	0.90807	0.90642	-0.421
Mof_O 	O 	0.5331	0.93237	0.82728	-0.672
Mof_O 	O 	0.33098	0.28382	0.62703	-0.262
Mof_O 	O 	0.44835	0.31704	0.58094	-0.421
Mof_O 	O 	0.45859	0.22616	0.52264	-0.397
Mof_O 	O 	0.30597	0.09854	0.57094	-0.464
Mof_O 	O 	0.22733	0.16535	0.60329	-0.424
Mof_O 	O 	0.20979	0.21496	0.44877	-0.436
Mof_O 	O 	0.1596	0.28088	0.51928	-0.43
Mof_O 	O 	0.24655	0.41042	0.54253	-0.403
Mof_O 	O 	0.34213	0.40807	0.59358	-0.422
Mof_O 	O 	0.4669	0.43237	0.67272	-0.672
Mof_O 	O 	0.16902	0.71618	0.12703	-0.262
Mof_O 	O 	0.05165	0.68296	0.08094	-0.421
Mof_O 	O 	0.04141	0.77384	0.02264	-0.396
Mof_O 	O 	0.19403	0.90146	0.07094	-0.465
Mof_O 	O 	0.27267	0.83465	0.10329	-0.424
Mof_O 	O 	0.29021	0.78504	0.94877	-0.436
Mof_O 	O 	0.3404	0.71912	0.01928	-0.431
Mof_O 	O 	0.25345	0.58958	0.04253	-0.403
Mof_O 	O 	0.15787	0.59193	0.09358	-0.421
Mof_O 	O 	0.0331	0.56763	0.17272	-0.67
Mof_O 	O 	0.83098	0.21618	0.37297	-0.262
Mof_O 	O 	0.94835	0.18296	0.41906	-0.423
Mof_O 	O 	0.95859	0.27384	0.47736	-0.397
Mof_O 	O 	0.80597	0.40146	0.42906	-0.465
Mof_O 	O 	0.72733	0.33465	0.39671	-0.424
Mof_O 	O 	0.70979	0.28504	0.55123	-0.436
Mof_O 	O 	0.6596	0.21912	0.48072	-0.43
Mof_O 	O 	0.74655	0.08958	0.45747	-0.404
Mof_O 	O 	0.84213	0.09193	0.40642	-0.422
Mof_O 	O 	0.9669	0.06763	0.32728	-0.676
Mof_O 	O 	0.12703	0.33098	0.21618	-0.261
Mof_O 	O 	0.08094	0.44835	0.18296	-0.421
Mof_O 	O 	0.02264	0.45859	0.27384	-0.396
Mof_O 	O 	0.07094	0.30597	0.40146	-0.465
Mof_O 	O 	0.10329	0.22733	0.33465	-0.424
Mof_O 	O 	0.94877	0.20979	0.28504	-0.434
Mof_O 	O 	0.01928	0.1596	0.21912	-0.424
Mof_O 	O 	0.04253	0.24655	0.08958	-0.401
Mof_O 	O 	0.09358	0.34213	0.09193	-0.421
Mof_O 	O 	0.17272	0.4669	0.06763	-0.672
Mof_O 	O 	0.37297	0.66902	0.71618	-0.262
Mof_O 	O 	0.41906	0.55165	0.68296	-0.421
Mof_O 	O 	0.47736	0.54141	0.77384	-0.397
Mof_O 	O 	0.42906	0.69403	0.90146	-0.464
Mof_O 	O 	0.39671	0.77267	0.83465	-0.424
Mof_O 	O 	0.55123	0.79021	0.78504	-0.436
Mof_O 	O 	0.48072	0.8404	0.71912	-0.43
Mof_O 	O 	0.45747	0.75345	0.58958	-0.403
Mof_O 	O 	0.40642	0.65787	0.59193	-0.422
Mof_O 	O 	0.32728	0.5331	0.56763	-0.672
Mof_O 	O 	0.87297	0.83098	0.28382	-0.262
Mof_O 	O 	0.91906	0.94835	0.31704	-0.421
Mof_O 	O 	0.97736	0.95859	0.22616	-0.396
Mof_O 	O 	0.92906	0.80597	0.09854	-0.465
Mof_O 	O 	0.89671	0.72733	0.16535	-0.424
Mof_O 	O 	0.05123	0.70979	0.21496	-0.436
Mof_O 	O 	0.98072	0.6596	0.28088	-0.431
Mof_O 	O 	0.95747	0.74655	0.41042	-0.403
Mof_O 	O 	0.90642	0.84213	0.40807	-0.421
Mof_O 	O 	0.82728	0.9669	0.43237	-0.67
Mof_O 	O 	0.62703	0.16902	0.78382	-0.262
Mof_O 	O 	0.58094	0.05165	0.81704	-0.423
Mof_O 	O 	0.52264	0.04141	0.72616	-0.397
Mof_O 	O 	0.57094	0.19403	0.59854	-0.465
Mof_O 	O 	0.60329	0.27267	0.66535	-0.424
Mof_O 	O 	0.44877	0.29021	0.71496	-0.436
Mof_O 	O 	0.51928	0.3404	0.78088	-0.43
Mof_O 	O 	0.54253	0.25345	0.91042	-0.404
Mof_O 	O 	0.59358	0.15787	0.90807	-0.422
Mof_O 	O 	0.67272	0.0331	0.93237	-0.676
Mof_O 	O 	0.21618	0.12703	0.33098	-0.261
Mof_O 	O 	0.18296	0.08094	0.44835	-0.421
Mof_O 	O 	0.27384	0.02264	0.45859	-0.396
Mof_O 	O 	0.40146	0.07094	0.30597	-0.465
Mof_O 	O 	0.33465	0.10329	0.22733	-0.424
Mof_O 	O 	0.28504	0.94877	0.20979	-0.434
Mof_O 	O 	0.21912	0.01928	0.1596	-0.424
Mof_O 	O 	0.08958	0.04253	0.24655	-0.401
Mof_O 	O 	0.09193	0.09358	0.34213	-0.421
Mof_O 	O 	0.06763	0.17272	0.4669	-0.672
Mof_O 	O 	0.71618	0.37297	0.66902	-0.262
Mof_O 	O 	0.68296	0.41906	0.55165	-0.421
Mof_O 	O 	0.77384	0.47736	0.54141	-0.397
Mof_O 	O 	0.90146	0.42906	0.69403	-0.464
Mof_O 	O 	0.83465	0.39671	0.77267	-0.424
Mof_O 	O 	0.78504	0.55123	0.79021	-0.436
Mof_O 	O 	0.71912	0.48072	0.8404	-0.43
Mof_O 	O 	0.58958	0.45747	0.75345	-0.403
Mof_O 	O 	0.59193	0.40642	0.65787	-0.422
Mof_O 	O 	0.56763	0.32728	0.5331	-0.672
Mof_O 	O 	0.28382	0.87297	0.83098	-0.262
Mof_O 	O 	0.31704	0.91906	0.94835	-0.421
Mof_O 	O 	0.22616	0.97736	0.95859	-0.396
Mof_O 	O 	0.09854	0.92906	0.80597	-0.465
Mof_O 	O 	0.16535	0.89671	0.72733	-0.424
Mof_O 	O 	0.21496	0.05123	0.70979	-0.436
Mof_O 	O 	0.28088	0.98072	0.6596	-0.431
Mof_O 	O 	0.41042	0.95747	0.74655	-0.403
Mof_O 	O 	0.40807	0.90642	0.84213	-0.421
Mof_O 	O 	0.43237	0.82728	0.9669	-0.67
Mof_O 	O 	0.78382	0.62703	0.16902	-0.262
Mof_O 	O 	0.81704	0.58094	0.05165	-0.423
Mof_O 	O 	0.72616	0.52264	0.04141	-0.397
Mof_O 	O 	0.59854	0.57094	0.19403	-0.465
Mof_O 	O 	0.66535	0.60329	0.27267	-0.424
Mof_O 	O 	0.71496	0.44877	0.29021	-0.436
Mof_O 	O 	0.78088	0.51928	0.3404	-0.43
Mof_O 	O 	0.91042	0.54253	0.25345	-0.404
Mof_O 	O 	0.90807	0.59358	0.15787	-0.422
Mof_O 	O 	0.93237	0.67272	0.0331	-0.676
Mof_O 	O 	0.33098	0.21618	0.12703	-0.261
Mof_O 	O 	0.44835	0.18296	0.08094	-0.421
Mof_O 	O 	0.45859	0.27384	0.02264	-0.396
Mof_O 	O 	0.30597	0.40146	0.07094	-0.465
Mof_O 	O 	0.22733	0.33465	0.10329	-0.424
Mof_O 	O 	0.20979	0.28504	0.94877	-0.434
Mof_O 	O 	0.1596	0.21912	0.01928	-0.424
Mof_O 	O 	0.24655	0.08958	0.04253	-0.401
Mof_O 	O 	0.34213	0.09193	0.09358	-0.421
Mof_O 	O 	0.4669	0.06763	0.17272	-0.672
Mof_O 	O 	0.66902	0.71618	0.37297	-0.262
Mof_O 	O 	0.55165	0.68296	0.41906	-0.421
Mof_O 	O 	0.54141	0.77384	0.47736	-0.397
Mof_O 	O 	0.69403	0.90146	0.42906	-0.464
Mof_O 	O 	0.77267	0.83465	0.39671	-0.424
Mof_O 	O 	0.79021	0.78504	0.55123	-0.436
Mof_O 	O 	0.8404	0.71912	0.48072	-0.43
Mof_O 	O 	0.75345	0.58958	0.45747	-0.403
Mof_O 	O 	0.65787	0.59193	0.40642	-0.422
Mof_O 	O 	0.5331	0.56763	0.32728	-0.672
Mof_O 	O 	0.83098	0.28382	0.87297	-0.262
Mof_O 	O 	0.94835	0.31704	0.91906	-0.421
Mof_O 	O 	0.95859	0.22616	0.97736	-0.396
Mof_O 	O 	0.80597	0.09854	0.92906	-0.465
Mof_O 	O 	0.72733	0.16535	0.89671	-0.424
Mof_O 	O 	0.70979	0.21496	0.05123	-0.436
Mof_O 	O 	0.6596	0.28088	0.98072	-0.431
Mof_O 	O 	0.74655	0.41042	0.95747	-0.403
Mof_O 	O 	0.84213	0.40807	0.90642	-0.421
Mof_O 	O 	0.9669	0.43237	0.82728	-0.67
Mof_O 	O 	0.16902	0.78382	0.62703	-0.262
Mof_O 	O 	0.05165	0.81704	0.58094	-0.423
Mof_O 	O 	0.04141	0.72616	0.52264	-0.397
Mof_O 	O 	0.19403	0.59854	0.57094	-0.465
Mof_O 	O 	0.27267	0.66535	0.60329	-0.424
Mof_O 	O 	0.29021	0.71496	0.44877	-0.436
Mof_O 	O 	0.3404	0.78088	0.51928	-0.43
Mof_O 	O 	0.25345	0.91042	0.54253	-0.404
Mof_O 	O 	0.15787	0.90807	0.59358	-0.422
Mof_O 	O 	0.0331	0.93237	0.67272	-0.676
_end
