# CIF file generated by openbabel 3.1.0, see https://openbabel.org
data_I
_chemical_name_common 'EWUCOP_clean'
_cell_length_a 10.922
_cell_length_b 11.402
_cell_length_c 14.654
_cell_angle_alpha 90
_cell_angle_beta 109.3
_cell_angle_gamma 90
_space_group_name_H-M_alt 'P 1'
_space_group_name_Hall 'P 1'
loop_
    _symmetry_equiv_pos_as_xyz
    x,y,z
loop_
    _atom_site_label
    _atom_site_type_symbol
    _atom_site_fract_x
    _atom_site_fract_y
    _atom_site_fract_z
    _atom_site_occupancy
    Cu1      Cu       0.40685    0.41843    0.97658    1.000
    Cu2      Cu       0.59315    0.91843    0.52342    1.000
    Cu3      Cu       0.59315    0.58157    0.02342    1.000
    Cu4      Cu       0.40685    0.08157    0.47658    1.000
    H1       H        0.87840    0.37290    0.94160    1.000
    H2       H        0.88040    0.13400    0.73730    1.000
    H3       H        0.54150    0.25340    0.75890    1.000
    H4       H        0.09320    0.42210    0.90680    1.000
    H5       H        0.12160    0.87290    0.55840    1.000
    H6       H        0.11960    0.63400    0.76270    1.000
    H7       H        0.45850    0.75340    0.74110    1.000
    H8       H        0.90680    0.92210    0.59320    1.000
    H9       H        0.12160    0.62710    0.05840    1.000
    H10      H        0.11960    0.86600    0.26270    1.000
    H11      H        0.45850    0.74660    0.24110    1.000
    H12      H        0.90680    0.57790    0.09320    1.000
    H13      H        0.87840    0.12710    0.44160    1.000
    H14      H        0.88040    0.36600    0.23730    1.000
    H15      H        0.54150    0.24660    0.25890    1.000
    H16      H        0.09320    0.07790    0.40680    1.000
    C1       C        0.62540    0.39170    0.90930    1.000
    C2       C        0.69950    0.32470    0.85900    1.000
    C3       C        0.83220    0.32440    0.89090    1.000
    C4       C        0.89730    0.25080    0.84690    1.000
    C5       C        0.83470    0.18000    0.76740    1.000
    C6       C        0.69930    0.18250    0.73580    1.000
    C7       C        0.63170    0.25350    0.78090    1.000
    C8       C        0.62690    0.11220    0.64910    1.000
    C9       C        0.11760    0.34390    0.90740    1.000
    C10      C        0.37460    0.89170    0.59070    1.000
    C11      C        0.30050    0.82470    0.64100    1.000
    C12      C        0.16780    0.82440    0.60910    1.000
    C13      C        0.10270    0.75080    0.65310    1.000
    C14      C        0.16530    0.68000    0.73260    1.000
    C15      C        0.30070    0.68250    0.76420    1.000
    C16      C        0.36830    0.75350    0.71910    1.000
    C17      C        0.37310    0.61220    0.85090    1.000
    C18      C        0.88240    0.84390    0.59260    1.000
    C19      C        0.37460    0.60830    0.09070    1.000
    C20      C        0.30050    0.67530    0.14100    1.000
    C21      C        0.16780    0.67560    0.10910    1.000
    C22      C        0.10270    0.74920    0.15310    1.000
    C23      C        0.16530    0.82000    0.23260    1.000
    C24      C        0.30070    0.81750    0.26420    1.000
    C25      C        0.36830    0.74650    0.21910    1.000
    C26      C        0.37310    0.88780    0.35090    1.000
    C27      C        0.88240    0.65610    0.09260    1.000
    C28      C        0.62540    0.10830    0.40930    1.000
    C29      C        0.69950    0.17530    0.35900    1.000
    C30      C        0.83220    0.17560    0.39090    1.000
    C31      C        0.89730    0.24920    0.34690    1.000
    C32      C        0.83470    0.32000    0.26740    1.000
    C33      C        0.69930    0.31750    0.23580    1.000
    C34      C        0.63170    0.24650    0.28090    1.000
    C35      C        0.62690    0.38780    0.14910    1.000
    C36      C        0.11760    0.15610    0.40740    1.000
    N1       N        0.03760    0.25190    0.88120    1.000
    N2       N        0.10930    0.15410    0.89230    1.000
    N3       N        0.22970    0.18760    0.92380    1.000
    N4       N        0.23930    0.30260    0.93470    1.000
    N5       N        0.96240    0.75190    0.61880    1.000
    N6       N        0.89070    0.65410    0.60770    1.000
    N7       N        0.77030    0.68760    0.57620    1.000
    N8       N        0.76070    0.80260    0.56530    1.000
    N9       N        0.96240    0.74810    0.11880    1.000
    N10      N        0.89070    0.84590    0.10770    1.000
    N11      N        0.77030    0.81240    0.07620    1.000
    N12      N        0.76070    0.69740    0.06530    1.000
    N13      N        0.03760    0.24810    0.38120    1.000
    N14      N        0.10930    0.34590    0.39230    1.000
    N15      N        0.22970    0.31240    0.42380    1.000
    N16      N        0.23930    0.19740    0.43470    1.000
    O1       O        0.51750    0.35290    0.90740    1.000
    O2       O        0.67760    0.48370    0.94950    1.000
    O3       O        0.51610    0.15250    0.59760    1.000
    O4       O        0.67840    0.02020    0.63560    1.000
    O5       O        0.48250    0.85290    0.59260    1.000
    O6       O        0.32240    0.98370    0.55050    1.000
    O7       O        0.48390    0.65250    0.90240    1.000
    O8       O        0.32160    0.52020    0.86440    1.000
    O9       O        0.48250    0.64710    0.09260    1.000
    O10      O        0.32240    0.51630    0.05050    1.000
    O11      O        0.48390    0.84750    0.40240    1.000
    O12      O        0.32160    0.97980    0.36440    1.000
    O13      O        0.51750    0.14710    0.40740    1.000
    O14      O        0.67760    0.01630    0.44950    1.000
    O15      O        0.51610    0.34750    0.09760    1.000
    O16      O        0.67840    0.47980    0.13560    1.000
