data_functionalizedCrystal
_audit_creation_method	'EQeq! by Chris Wilmer'
_symmetry_space_group_name_H-M	'P1'
_symmetry_Int_Tables_number	1
_symmetry_cell_setting	triclinic
loop_
_symmetry_equiv_pos_as_xyz
  x,y,z
_cell_length_a	33.4649
_cell_length_b	33.4755
_cell_length_c	26.6222
_cell_angle_alpha	90
_cell_angle_beta	127.581
_cell_angle_gamma	90
loop_
_atom_site_label
_atom_site_type_symbol
_atom_site_fract_x
_atom_site_fract_y
_atom_site_fract_z
_atom_site_charge
Mof_As	As	0.36191	0.87278	0.51968	0.4
Mof_As	As	0.19808	0.8689	0.16285	0.387
Mof_As	As	0.38266	0.63215	0.02096	0.396
Mof_As	As	0.19396	0.61145	0.66583	0.399
Mof_C 	C 	0.4406	0.456	0.977	-0.134
Mof_C 	C 	0.3875	0.5742	0.686	0.447
Mof_C 	C 	0.4006	0.4636	0.7704	-0.065
Mof_H 	H 	0.4024	0.4398	0.7898	0.001
Mof_C 	C 	0.3923	0.5343	0.7145	-0.157
Mof_C 	C 	0.0434	0.7937	0.2074	-0.16
Mof_C 	C 	0.4128	0.448	0.0043	0.334
Mof_C 	C 	0.1677	0.712	0.421	-0.046
Mof_H 	H 	0.1348	0.7183	0.405	0.001
Mof_C 	C 	0.2629	0.6951	0.4695	-0.157
Mof_C 	C 	0.0376	0.7262	0.234	-0.09
Mof_H 	H 	0.0204	0.7061	0.2377	0.045
Mof_C 	C 	0.1967	0.7412	0.4148	0.016
Mof_H 	H 	0.1824	0.7653	0.3941	-0.022
Mof_C 	C 	0.3175	0.6893	0.4989	0.371
Mof_C 	C 	0.0129	0.7636	0.2008	0.053
Mof_H 	H 	0.9782	0.7668	0.1765	-0.114
Mof_C 	C 	0.4757	0.4308	0.98	0.059
Mof_H 	H 	0.4847	0.406	0.0003	-0.104
Mof_C 	C 	0.3748	0.4999	0.773	0.021
Mof_H 	H 	0.3604	0.4985	0.7941	-0.023
Mof_C 	C 	0.4216	0.4663	0.7382	-0.099
Mof_H 	H 	0.4385	0.4448	0.7366	0.052
Mof_C 	C 	0.4955	0.4453	0.952	-0.091
Mof_H 	H 	0.5201	0.43	0.9547	0.058
Mof_C 	C 	0.4835	0.4771	0.9223	-0.066
Mof_H 	H 	0.496	0.484	0.9005	0.006
Mof_C 	C 	0.449	0.5039	0.9228	0.042
Mof_H 	H 	0.4419	0.5289	0.904	-0.03
Mof_C 	C 	0.4162	0.5023	0.7089	0.047
Mof_H 	H 	0.4283	0.5051	0.6856	-0.097
Mof_C 	C 	0.1855	0.6786	0.4472	-0.104
Mof_H 	H 	0.1649	0.6607	0.4487	0.055
Mof_C 	C 	0.2348	0.6676	0.474	0.056
Mof_H 	H 	0.248	0.643	0.4938	-0.12
Mof_C 	C 	0.1131	0.7544	0.2596	0.037
Mof_H 	H 	0.1468	0.751	0.2772	-0.028
Mof_C 	C 	0.0861	0.7223	0.2582	-0.074
Mof_H 	H 	0.102	0.6978	0.2745	0.011
Mof_C 	C 	0.0244	0.8348	0.182	0.436
Mof_Dy	Dy	0.21826	0.87556	0.41516	1.81
Mof_Dy	Dy	0.24942	0.77404	0.26428	1.757
Mof_Dy	Dy	0.42043	0.63277	0.91212	1.786
Mof_Dy	Dy	0.24719	0.52247	0.77691	1.772
Mof_K 	K 	0.3291	0.5763	0.5196	2.474
Mof_K 	K 	0.4164	0.666	0.5128	2.668
Mof_K 	K 	0.4038	0.6643	0.6682	2.55
Mof_K 	K 	0.9934	0.9256	0.168	2.575
Mof_N 	N 	0.4275	0.4931	0.9494	-0.19
Mof_N 	N 	0.373	0.5346	0.7451	-0.178
Mof_N 	N 	0.2456	0.7324	0.4399	-0.178
Mof_N 	N 	0.0915	0.7898	0.2361	-0.176
Mof_O 	O 	0.4868	0.9237	0.617	-0.459
Mof_O 	O 	0.4428	0.9227	0.6695	-0.456
Mof_O 	O 	0.4869	0.8579	0.6723	-0.449
Mof_O 	O 	0.3846	0.9844	0.6013	-0.435
Mof_O 	O 	0.3881	0.8802	0.694	-0.441
Mof_O 	O 	0.4328	0.8129	0.6945	-0.475
Mof_O 	O 	0.4306	0.985	0.5509	-0.456
Mof_O 	O 	0.4968	0.8771	0.5412	-0.449
Mof_O 	O 	0.4219	0.9303	0.4714	-0.446
Mof_O 	O 	0.3318	0.9922	0.4778	-0.442
Mof_O 	O 	0.3747	0.9251	0.5348	-0.35
Mof_O 	O 	0.3271	0.9267	0.5939	-0.457
Mof_O 	O 	0.4217	0.8597	0.5388	-0.379
Mof_O 	O 	0.3763	0.8575	0.5941	-0.387
Mof_O 	O 	0.3321	0.8155	0.6301	-0.46
Mof_O 	O 	0.3839	0.7419	0.6496	-0.705
Mof_O 	O 	0.3228	0.7788	0.5347	-0.51
Mof_O 	O 	0.4211	0.7862	0.5916	-0.546
Mof_O 	O 	0.2698	0.8635	0.5215	-0.588
Mof_O 	O 	0.2698	0.9321	0.466	-0.585
Mof_O 	O 	0.4974	0.8118	0.5958	-0.472
Mof_O 	O 	0.4356	0.8173	0.4721	-0.506
Mof_O 	O 	0.4489	0.7438	0.5291	-0.7
Mof_O 	O 	0.3575	0.792	0.4678	-0.554
Mof_O 	O 	0.3253	0.9397	0.3913	-0.467
Mof_O 	O 	0.3582	0.869	0.4093	-0.498
Mof_O 	O 	0.0616	0.9518	0.1502	-0.663
Mof_O 	O 	0.1627	0.695	0.7129	-0.457
Mof_O 	O 	0.2034	0.9493	0.0692	-0.467
Mof_O 	O 	0.2794	0.9535	0.2163	-0.439
Mof_O 	O 	0.2448	0.8752	0.1505	-0.355
Mof_O 	O 	0.1975	0.6598	0.6416	-0.385
Mof_O 	O 	0.0928	0.6865	0.5661	-0.452
Mof_O 	O 	0.1014	0.9684	0.0869	-0.468
Mof_O 	O 	0.3875	0.6036	0.8137	-0.687
Mof_O 	O 	0.2626	0.8837	0.38	-0.595
Mof_O 	O 	0.1791	0.8783	0.0174	-0.473
Mof_O 	O 	0.3543	0.6849	0.1189	-0.457
Mof_O 	O 	0.164	0.9647	0.2118	-0.485
Mof_O 	O 	0.1935	0.6414	0.7938	-0.479
Mof_O 	O 	0.3377	0.636	0.8764	-0.605
Mof_O 	O 	0.2589	0.5867	0.8087	-0.605
Mof_O 	O 	0.0697	0.667	0.6404	-0.442
Mof_O 	O 	0.3406	0.5496	0.9784	-0.534
Mof_O 	O 	0.3682	0.601	0.6976	-0.73
Mof_O 	O 	0.4189	0.6889	0.9595	-0.578
Mof_O 	O 	0.4762	0.625	0.0197	-0.6
Mof_O 	O 	0.2706	0.7108	0.7018	-0.48
Mof_O 	O 	0.1749	0.9207	0.1448	-0.387
Mof_O 	O 	0.3041	0.5557	0.7658	-0.564
Mof_O 	O 	0.2755	0.623	0.9123	-0.508
Mof_O 	O 	0.4013	0.5481	0.0999	-0.543
Mof_O 	O 	0.1844	0.8083	0.2572	-0.555
Mof_O 	O 	0.2555	0.8142	0.4206	-0.563
Mof_O 	O 	0.2403	0.6304	0.5881	-0.559
Mof_O 	O 	0.1071	0.538	0.6026	-0.471
Mof_O 	O 	0.1638	0.5461	0.7257	-0.599
Mof_O 	O 	0.274	0.8542	0.0831	-0.434
Mof_O 	O 	0.2038	0.5178	0.6687	-0.594
Mof_O 	O 	0.3259	0.8947	0.2907	-0.492
Mof_O 	O 	0.2714	0.635	0.0474	-0.471
Mof_O 	O 	0.1403	0.89	0.2124	-0.536
Mof_O 	O 	0.1934	0.9936	0.1444	-0.449
Mof_O 	O 	0.2654	0.5723	0.9827	-0.463
Mof_O 	O 	0.4382	0.5386	0.0398	-0.533
Mof_O 	O 	0.2745	0.6846	0.9722	-0.445
Mof_O 	O 	0.4862	0.5815	0.1993	-0.484
Mof_O 	O 	0.0694	0.6148	0.5187	-0.461
Mof_O 	O 	0.2821	0.5657	0.6528	-0.531
Mof_O 	O 	0.393	0.5691	0.9262	-0.579
Mof_O 	O 	0.162	0.5915	0.4891	-0.481
Mof_O 	O 	0.0571	0.8575	0.9861	-0.468
Mof_O 	O 	0.977	0.8397	0.1465	-1.025
Mof_O 	O 	0.3435	0.6186	0.0426	-0.389
Mof_O 	O 	0.4852	0.6888	0.0849	-0.464
Mof_O 	O 	0.2521	0.5644	0.5323	-0.723
Mof_O 	O 	0.4217	0.4159	0.0354	-1.021
Mof_O 	O 	0.3803	0.4737	0.9936	-0.671
Mof_O 	O 	0.3361	0.7431	0.041	-0.456
Mof_O 	O 	0.4036	0.5799	0.6548	-1.042
Mof_O 	O 	0.0954	0.8236	0.1457	-0.516
Mof_O 	O 	0.2727	0.837	0.3018	-0.598
Mof_O 	O 	0.1467	0.8481	0.0866	-0.391
Mof_O 	O 	0.1528	0.8536	0.3149	-0.68
Mof_O 	O 	0.1281	0.6555	0.5055	-0.445
Mof_O 	O 	0.4337	0.7483	0.0903	-0.43
Mof_O 	O 	0.3366	0.7174	0.483	-0.668
Mof_O 	O 	0.3301	0.5725	0.1098	-0.462
Mof_O 	O 	0.2729	0.7553	0.3651	-0.683
Mof_O 	O 	0.1715	0.5865	0.5923	-0.39
Mof_O 	O 	0.1118	0.9239	0.0125	-0.479
Mof_O 	O 	0.0741	0.8923	0.0862	-0.538
Mof_O 	O 	0.5279	0.6466	0.1908	-0.447
Mof_O 	O 	0.3799	0.6845	0.0278	-0.358
Mof_O 	O 	0.281	0.8001	0.2136	-0.594
Mof_O 	O 	0.1368	0.6184	0.656	-0.354
Mof_O 	O 	0.1001	0.5458	0.4974	-0.442
Mof_O 	O 	0.3424	0.6602	0.5337	-1.019
Mof_O 	O 	0.1866	0.774	0.1554	-0.581
Mof_O 	O 	0.2985	0.9254	0.139	-0.446
Mof_O 	O 	0.1023	0.6026	0.7153	-0.466
Mof_O 	O 	0.4422	0.6205	0.095	-0.381
Mof_O 	O 	0.2987	0.6347	0.7113	-0.546
Mof_O 	O 	0.3151	0.5015	0.0458	-0.64
Mof_O 	O 	0.196	0.5244	0.5585	-0.478
Mof_O 	O 	0.0438	0.5937	0.5909	-0.444
Mof_O 	O 	0.0872	0.7874	0.0496	-0.489
Mof_O 	O 	0.0046	0.829	0.0265	-0.719
Mof_O 	O 	0.2452	0.9186	0.2755	-0.487
Mof_O 	O 	0.2101	0.7052	0.5755	-0.465
Mof_O 	O 	0.2894	0.6916	0.8887	-0.475
Mof_O 	O 	0.4976	0.5076	0.1621	-0.696
Mof_O 	O 	0.0569	0.8593	0.1961	-0.707
Mof_O 	O 	0.123	0.8114	0.9876	-0.432
Mof_O 	O 	0.174	0.7341	0.6319	-0.456
Mof_O 	O 	0.4102	0.6237	0.1762	-0.459
Mof_O 	O 	0.338	0.8573	0.2081	-0.454
Mof_O 	O 	0.3114	0.6913	0.6405	-0.646
Mof_O 	O 	0.3234	0.5108	0.8756	-0.69
Mof_O 	O 	0.5224	0.5806	0.1315	-0.482
Mof_O 	O 	0.217	0.7989	0.0896	-0.467
Mof_O 	O 	0.254	0.668	0.7724	-0.5
Mof_O 	O 	0.3646	0.7485	0.9694	-0.441
Mof_O 	O 	0.4476	0.6867	0.1671	-0.459
Mof_W 	W 	0.44414	0.87007	0.69992	0.969
Mof_W 	W 	0.44431	0.96269	0.62051	1.015
Mof_W 	W 	0.50478	0.8705	0.62131	0.959
Mof_W 	W 	0.31708	0.87259	0.60651	0.953
Mof_W 	W 	0.37563	0.78867	0.61535	1.335
Mof_W 	W 	0.43476	0.7919	0.53451	1.378
Mof_W 	W 	0.4323	0.87469	0.46271	0.983
Mof_W 	W 	0.37367	0.96818	0.45874	0.969
Mof_W 	W 	0.31685	0.96208	0.52965	0.99
Mof_W 	W 	0.29689	0.77201	0.4403	1.327
Mof_W 	W 	0.29356	0.88423	0.34187	1.375
Mof_W 	W 	0.13311	0.84066	0.23762	1.292
Mof_W 	W 	0.22724	0.96569	0.22294	0.988
Mof_W 	W 	0.32388	0.9093	0.22827	0.988
Mof_W 	W 	0.28347	0.81899	0.15436	0.997
Mof_W 	W 	0.15578	0.78236	0.07305	0.969
Mof_W 	W 	0.06636	0.83639	0.06257	1.364
Mof_W 	W 	0.10876	0.93379	0.14618	1.317
Mof_W 	W 	0.14884	0.96347	0.06377	1.004
Mof_W 	W 	0.11113	0.86559	0.98347	1.005
Mof_W 	W 	0.24261	0.90347	0.06643	0.977
Mof_W 	W 	0.34329	0.63201	0.12775	0.957
Mof_W 	W 	0.39577	0.72499	0.11471	0.966
Mof_W 	W 	0.47865	0.63619	0.19966	1.007
Mof_W 	W 	0.3326	0.55054	0.04772	1.302
Mof_W 	W 	0.25866	0.62989	0.96938	1.035
Mof_W 	W 	0.30643	0.72383	0.95354	1.005
Mof_W 	W 	0.43143	0.72256	0.02032	0.954
Mof_W 	W 	0.51206	0.63645	0.10316	0.97
Mof_W 	W 	0.46934	0.55186	0.12316	1.324
Mof_W 	W 	0.27389	0.63579	0.84255	1.445
Mof_W 	W 	0.37514	0.52961	0.94961	1.38
Mof_W 	W 	0.33314	0.58626	0.74116	1.341
Mof_W 	W 	0.13141	0.65491	0.7288	1.009
Mof_W 	W 	0.10359	0.56158	0.66515	1.028
Mof_W 	W 	0.15254	0.52089	0.58614	0.975
Mof_W 	W 	0.22808	0.57416	0.56802	1.422
Mof_W 	W 	0.2627	0.67504	0.63994	1.361
Mof_W 	W 	0.21759	0.71123	0.71364	0.987
Mof_W 	W 	0.05448	0.64181	0.56777	0.991
Mof_W 	W 	0.14121	0.70099	0.55567	0.943
Mof_W 	W 	0.10513	0.59957	0.4864	0.992
Mof_As	As	0.86191	0.37278	0.51968	0.4
Mof_As	As	0.69808	0.3689	0.16285	0.387
Mof_As	As	0.88266	0.13215	0.02096	0.396
Mof_As	As	0.69396	0.11145	0.66583	0.399
Mof_C 	C 	0.9406	0.956	0.977	-0.146
Mof_C 	C 	0.8875	0.0742	0.686	0.446
Mof_C 	C 	0.9006	0.9636	0.7704	-0.066
Mof_H 	H 	0.9024	0.9398	0.7898	0.001
Mof_C 	C 	0.8923	0.0343	0.7145	-0.156
Mof_C 	C 	0.5434	0.2937	0.2074	-0.146
Mof_C 	C 	0.9128	0.948	0.0043	0.336
Mof_C 	C 	0.6677	0.212	0.421	-0.046
Mof_H 	H 	0.6348	0.2183	0.405	0
Mof_C 	C 	0.7629	0.1951	0.4695	-0.157
Mof_C 	C 	0.5376	0.2262	0.234	-0.071
Mof_H 	H 	0.5204	0.2061	0.2377	0.035
Mof_C 	C 	0.6967	0.2412	0.4148	0.016
Mof_H 	H 	0.6824	0.2653	0.3941	-0.022
Mof_C 	C 	0.8175	0.1893	0.4989	0.371
Mof_C 	C 	0.5129	0.2636	0.2008	0.019
Mof_H 	H 	0.4782	0.2668	0.1765	-0.097
Mof_C 	C 	0.9757	0.9308	0.98	0.096
Mof_H 	H 	0.9847	0.906	0.0003	-0.121
Mof_C 	C 	0.8748	0.9999	0.773	0.022
Mof_H 	H 	0.8604	0.9985	0.7941	-0.023
Mof_C 	C 	0.9216	0.9663	0.7382	-0.097
Mof_H 	H 	0.9385	0.9448	0.7366	0.051
Mof_C 	C 	0.9955	0.9453	0.952	-0.154
Mof_H 	H 	0.0201	0.93	0.9547	0.086
Mof_C 	C 	0.9835	0.9771	0.9223	-0.02
Mof_H 	H 	0.996	0.984	0.9005	-0.013
Mof_C 	C 	0.949	0.0039	0.9228	0.019
Mof_H 	H 	0.9419	0.0289	0.904	-0.023
Mof_C 	C 	0.9162	0.0023	0.7089	0.045
Mof_H 	H 	0.9283	0.0051	0.6856	-0.096
Mof_C 	C 	0.6855	0.1786	0.4472	-0.104
Mof_H 	H 	0.6649	0.1607	0.4487	0.054
Mof_C 	C 	0.7348	0.1676	0.474	0.056
Mof_H 	H 	0.748	0.143	0.4938	-0.12
Mof_C 	C 	0.6131	0.2544	0.2596	0.044
Mof_H 	H 	0.6468	0.251	0.2772	-0.03
Mof_C 	C 	0.5861	0.2223	0.2582	-0.088
Mof_H 	H 	0.602	0.1978	0.2745	0.015
Mof_C 	C 	0.5244	0.3348	0.182	0.419
Mof_Dy	Dy	0.71826	0.37556	0.41516	1.807
Mof_Dy	Dy	0.74942	0.27404	0.26428	1.756
Mof_Dy	Dy	0.92043	0.13277	0.91212	1.782
Mof_Dy	Dy	0.74719	0.02247	0.77691	1.77
Mof_K 	K 	0.8291	0.0763	0.5196	2.477
Mof_K 	K 	0.9164	0.166	0.5128	2.657
Mof_K 	K 	0.9038	0.1643	0.6682	2.55
Mof_K 	K 	0.4934	0.4256	0.168	2.604
Mof_N 	N 	0.9275	0.9931	0.9494	-0.183
Mof_N 	N 	0.873	0.0346	0.7451	-0.179
Mof_N 	N 	0.7456	0.2324	0.4399	-0.178
Mof_N 	N 	0.5915	0.2898	0.2361	-0.18
Mof_O 	O 	0.9868	0.4237	0.617	-0.467
Mof_O 	O 	0.9428	0.4227	0.6695	-0.457
Mof_O 	O 	0.9869	0.3579	0.6723	-0.458
Mof_O 	O 	0.8846	0.4844	0.6013	-0.436
Mof_O 	O 	0.8881	0.3802	0.694	-0.442
Mof_O 	O 	0.9328	0.3129	0.6945	-0.477
Mof_O 	O 	0.9306	0.485	0.5509	-0.458
Mof_O 	O 	0.9968	0.3771	0.5412	-0.457
Mof_O 	O 	0.9219	0.4303	0.4714	-0.447
Mof_O 	O 	0.8318	0.4922	0.4778	-0.442
Mof_O 	O 	0.8747	0.4251	0.5348	-0.35
Mof_O 	O 	0.8271	0.4267	0.5939	-0.458
Mof_O 	O 	0.9217	0.3597	0.5388	-0.382
Mof_O 	O 	0.8763	0.3575	0.5941	-0.386
Mof_O 	O 	0.8321	0.3155	0.6301	-0.461
Mof_O 	O 	0.8839	0.2419	0.6496	-0.706
Mof_O 	O 	0.8228	0.2788	0.5347	-0.51
Mof_O 	O 	0.9211	0.2862	0.5916	-0.547
Mof_O 	O 	0.7698	0.3635	0.5215	-0.588
Mof_O 	O 	0.7698	0.4321	0.466	-0.585
Mof_O 	O 	0.9974	0.3118	0.5958	-0.48
Mof_O 	O 	0.9356	0.3173	0.4721	-0.507
Mof_O 	O 	0.9489	0.2438	0.5291	-0.702
Mof_O 	O 	0.8575	0.292	0.4678	-0.554
Mof_O 	O 	0.8253	0.4397	0.3913	-0.467
Mof_O 	O 	0.8582	0.369	0.4093	-0.498
Mof_O 	O 	0.5616	0.4518	0.1502	-0.67
Mof_O 	O 	0.6627	0.195	0.7129	-0.457
Mof_O 	O 	0.7034	0.4493	0.0692	-0.467
Mof_O 	O 	0.7794	0.4535	0.2163	-0.439
Mof_O 	O 	0.7448	0.3752	0.1505	-0.355
Mof_O 	O 	0.6975	0.1598	0.6416	-0.384
Mof_O 	O 	0.5928	0.1865	0.5661	-0.452
Mof_O 	O 	0.6014	0.4684	0.0869	-0.47
Mof_O 	O 	0.8875	0.1036	0.8137	-0.687
Mof_O 	O 	0.7626	0.3837	0.38	-0.595
Mof_O 	O 	0.6791	0.3783	0.0174	-0.473
Mof_O 	O 	0.8543	0.1849	0.1189	-0.457
Mof_O 	O 	0.664	0.4647	0.2118	-0.486
Mof_O 	O 	0.6935	0.1414	0.7938	-0.479
Mof_O 	O 	0.8377	0.136	0.8764	-0.605
Mof_O 	O 	0.7589	0.0867	0.8087	-0.605
Mof_O 	O 	0.5697	0.167	0.6404	-0.444
Mof_O 	O 	0.8406	0.0496	0.9784	-0.534
Mof_O 	O 	0.8682	0.101	0.6976	-0.73
Mof_O 	O 	0.9189	0.1889	0.9595	-0.579
Mof_O 	O 	0.9762	0.125	0.0197	-0.607
Mof_O 	O 	0.7706	0.2108	0.7018	-0.48
Mof_O 	O 	0.6749	0.4207	0.1448	-0.387
Mof_O 	O 	0.8041	0.0557	0.7658	-0.564
Mof_O 	O 	0.7755	0.123	0.9123	-0.508
Mof_O 	O 	0.9013	0.0481	0.0999	-0.542
Mof_O 	O 	0.6844	0.3083	0.2572	-0.555
Mof_O 	O 	0.7555	0.3142	0.4206	-0.563
Mof_O 	O 	0.7403	0.1304	0.5881	-0.559
Mof_O 	O 	0.6071	0.038	0.6026	-0.472
Mof_O 	O 	0.6638	0.0461	0.7257	-0.599
Mof_O 	O 	0.774	0.3542	0.0831	-0.434
Mof_O 	O 	0.7038	0.0178	0.6687	-0.593
Mof_O 	O 	0.8259	0.3947	0.2907	-0.492
Mof_O 	O 	0.7714	0.135	0.0474	-0.471
Mof_O 	O 	0.6403	0.39	0.2124	-0.537
Mof_O 	O 	0.6934	0.4936	0.1444	-0.45
Mof_O 	O 	0.7654	0.0723	0.9827	-0.464
Mof_O 	O 	0.9382	0.0386	0.0398	-0.533
Mof_O 	O 	0.7745	0.1846	0.9722	-0.445
Mof_O 	O 	0.9862	0.0815	0.1993	-0.484
Mof_O 	O 	0.5694	0.1148	0.5187	-0.462
Mof_O 	O 	0.7821	0.0657	0.6528	-0.531
Mof_O 	O 	0.893	0.0691	0.9262	-0.579
Mof_O 	O 	0.662	0.0915	0.4891	-0.481
Mof_O 	O 	0.5571	0.3575	0.9861	-0.47
Mof_O 	O 	0.477	0.3397	0.1465	-1.018
Mof_O 	O 	0.8435	0.1186	0.0426	-0.389
Mof_O 	O 	0.9852	0.1888	0.0849	-0.471
Mof_O 	O 	0.7521	0.0644	0.5323	-0.724
Mof_O 	O 	0.9217	0.9159	0.0354	-1.019
Mof_O 	O 	0.8803	0.9737	0.9936	-0.669
Mof_O 	O 	0.8361	0.2431	0.041	-0.456
Mof_O 	O 	0.9036	0.0799	0.6548	-1.04
Mof_O 	O 	0.5954	0.3236	0.1457	-0.517
Mof_O 	O 	0.7727	0.337	0.3018	-0.598
Mof_O 	O 	0.6467	0.3481	0.0866	-0.391
Mof_O 	O 	0.6528	0.3536	0.3149	-0.681
Mof_O 	O 	0.6281	0.1555	0.5055	-0.445
Mof_O 	O 	0.9337	0.2483	0.0903	-0.431
Mof_O 	O 	0.8366	0.2174	0.483	-0.667
Mof_O 	O 	0.8301	0.0725	0.1098	-0.462
Mof_O 	O 	0.7729	0.2553	0.3651	-0.683
Mof_O 	O 	0.6715	0.0865	0.5923	-0.39
Mof_O 	O 	0.6118	0.4239	0.0125	-0.479
Mof_O 	O 	0.5741	0.3923	0.0862	-0.54
Mof_O 	O 	0.0279	0.1466	0.1908	-0.44
Mof_O 	O 	0.8799	0.1845	0.0278	-0.358
Mof_O 	O 	0.781	0.3001	0.2136	-0.594
Mof_O 	O 	0.6368	0.1184	0.656	-0.353
Mof_O 	O 	0.6001	0.0458	0.4974	-0.443
Mof_O 	O 	0.8424	0.1602	0.5337	-1.018
Mof_O 	O 	0.6866	0.274	0.1554	-0.581
Mof_O 	O 	0.7985	0.4254	0.139	-0.447
Mof_O 	O 	0.6023	0.1026	0.7153	-0.467
Mof_O 	O 	0.9422	0.1205	0.095	-0.384
Mof_O 	O 	0.7987	0.1347	0.7113	-0.546
Mof_O 	O 	0.8151	0.0015	0.0458	-0.64
Mof_O 	O 	0.696	0.0244	0.5585	-0.478
Mof_O 	O 	0.5438	0.0937	0.5909	-0.445
Mof_O 	O 	0.5872	0.2874	0.0496	-0.49
Mof_O 	O 	0.5046	0.329	0.0265	-0.726
Mof_O 	O 	0.7452	0.4186	0.2755	-0.487
Mof_O 	O 	0.7101	0.2052	0.5755	-0.465
Mof_O 	O 	0.7894	0.1916	0.8887	-0.475
Mof_O 	O 	0.9976	0.0076	0.1621	-0.695
Mof_O 	O 	0.5569	0.3593	0.1961	-0.707
Mof_O 	O 	0.623	0.3114	0.9876	-0.433
Mof_O 	O 	0.674	0.2341	0.6319	-0.456
Mof_O 	O 	0.9102	0.1237	0.1762	-0.458
Mof_O 	O 	0.838	0.3573	0.2081	-0.454
Mof_O 	O 	0.8114	0.1913	0.6405	-0.646
Mof_O 	O 	0.8234	0.0108	0.8756	-0.69
Mof_O 	O 	0.0224	0.0806	0.1315	-0.476
Mof_O 	O 	0.717	0.2989	0.0896	-0.467
Mof_O 	O 	0.754	0.168	0.7724	-0.5
Mof_O 	O 	0.8646	0.2485	0.9694	-0.442
Mof_O 	O 	0.9476	0.1867	0.1671	-0.46
Mof_W 	W 	0.94414	0.37007	0.69992	0.966
Mof_W 	W 	0.94431	0.46269	0.62051	1.013
Mof_W 	W 	0.00478	0.3705	0.62131	0.988
Mof_W 	W 	0.81708	0.37259	0.60651	0.952
Mof_W 	W 	0.87563	0.28867	0.61535	1.335
Mof_W 	W 	0.93476	0.2919	0.53451	1.378
Mof_W 	W 	0.9323	0.37469	0.46271	0.982
Mof_W 	W 	0.87367	0.46818	0.45874	0.968
Mof_W 	W 	0.81685	0.46208	0.52965	0.989
Mof_W 	W 	0.79689	0.27201	0.4403	1.327
Mof_W 	W 	0.79356	0.38423	0.34187	1.375
Mof_W 	W 	0.63311	0.34066	0.23762	1.292
Mof_W 	W 	0.72724	0.46569	0.22294	0.988
Mof_W 	W 	0.82388	0.4093	0.22827	0.987
Mof_W 	W 	0.78347	0.31899	0.15436	0.996
Mof_W 	W 	0.65578	0.28236	0.07305	0.968
Mof_W 	W 	0.56636	0.33639	0.06257	1.364
Mof_W 	W 	0.60876	0.43379	0.14618	1.316
Mof_W 	W 	0.64884	0.46347	0.06377	1.002
Mof_W 	W 	0.61113	0.36559	0.98347	1.003
Mof_W 	W 	0.74261	0.40347	0.06643	0.976
Mof_W 	W 	0.84329	0.13201	0.12775	0.956
Mof_W 	W 	0.89577	0.22499	0.11471	0.964
Mof_W 	W 	0.97865	0.13619	0.19966	0.997
Mof_W 	W 	0.8326	0.05054	0.04772	1.302
Mof_W 	W 	0.75866	0.12989	0.96938	1.034
Mof_W 	W 	0.80643	0.22383	0.95354	1.004
Mof_W 	W 	0.93143	0.22256	0.02032	0.953
Mof_W 	W 	0.01206	0.13645	0.10316	0.989
Mof_W 	W 	0.96934	0.05186	0.12316	1.316
Mof_W 	W 	0.77389	0.13579	0.84255	1.444
Mof_W 	W 	0.87514	0.02961	0.94961	1.378
Mof_W 	W 	0.83314	0.08626	0.74116	1.341
Mof_W 	W 	0.63141	0.15491	0.7288	1.007
Mof_W 	W 	0.60359	0.06158	0.66515	1.025
Mof_W 	W 	0.65254	0.02089	0.58614	0.973
Mof_W 	W 	0.72808	0.07416	0.56802	1.422
Mof_W 	W 	0.7627	0.17504	0.63994	1.361
Mof_W 	W 	0.71759	0.21123	0.71364	0.987
Mof_W 	W 	0.55448	0.14181	0.56777	0.987
Mof_W 	W 	0.64121	0.20099	0.55567	0.941
Mof_W 	W 	0.60513	0.09957	0.4864	0.989
Mof_As	As	0.36191	0.12722	0.01968	0.387
Mof_As	As	0.19808	0.1311	0.66285	0.386
Mof_As	As	0.38266	0.36785	0.52096	0.408
Mof_As	As	0.19396	0.38855	0.16583	0.4
Mof_C 	C 	0.4406	0.544	0.477	-0.141
Mof_C 	C 	0.3875	0.4258	0.186	0.446
Mof_C 	C 	0.4006	0.5364	0.2704	-0.065
Mof_H 	H 	0.4024	0.5602	0.2898	0
Mof_C 	C 	0.3923	0.4657	0.2145	-0.156
Mof_C 	C 	0.0434	0.2063	0.7074	-0.159
Mof_C 	C 	0.4128	0.552	0.5043	0.371
Mof_C 	C 	0.1677	0.288	0.921	-0.046
Mof_H 	H 	0.1348	0.2817	0.905	0.004
Mof_C 	C 	0.2629	0.3049	0.9695	-0.157
Mof_C 	C 	0.0376	0.2738	0.734	-0.088
Mof_H 	H 	0.0204	0.2939	0.7377	0.045
Mof_C 	C 	0.1967	0.2588	0.9148	0.02
Mof_H 	H 	0.1824	0.2347	0.8941	-0.022
Mof_C 	C 	0.3175	0.3107	0.9989	0.396
Mof_C 	C 	0.0129	0.2364	0.7008	0.051
Mof_H 	H 	0.9782	0.2332	0.6765	-0.114
Mof_C 	C 	0.4757	0.5692	0.48	0.001
Mof_H 	H 	0.4847	0.594	0.5003	-0.073
Mof_C 	C 	0.3748	0.5001	0.273	0.021
Mof_H 	H 	0.3604	0.5015	0.2941	-0.023
Mof_C 	C 	0.4216	0.5337	0.2382	-0.099
Mof_H 	H 	0.4385	0.5552	0.2366	0.052
Mof_C 	C 	0.4955	0.5547	0.452	-0.045
Mof_H 	H 	0.5201	0.57	0.4547	0.036
Mof_C 	C 	0.4835	0.5229	0.4223	-0.103
Mof_H 	H 	0.496	0.516	0.4005	0.016
Mof_C 	C 	0.449	0.4961	0.4228	0.054
Mof_H 	H 	0.4419	0.4711	0.404	-0.036
Mof_C 	C 	0.4162	0.4977	0.2089	0.047
Mof_H 	H 	0.4283	0.4949	0.1856	-0.096
Mof_C 	C 	0.1855	0.3214	0.9472	-0.1
Mof_H 	H 	0.1649	0.3393	0.9487	0.058
Mof_C 	C 	0.2348	0.3324	0.974	0.059
Mof_H 	H 	0.248	0.357	0.9938	-0.111
Mof_C 	C 	0.1131	0.2456	0.7596	0.038
Mof_H 	H 	0.1468	0.249	0.7772	-0.028
Mof_C 	C 	0.0861	0.2777	0.7582	-0.075
Mof_H 	H 	0.102	0.3022	0.7745	0.012
Mof_C 	C 	0.0244	0.1652	0.682	0.436
Mof_Dy	Dy	0.21826	0.12444	0.91516	1.833
Mof_Dy	Dy	0.24942	0.22596	0.76428	1.763
Mof_Dy	Dy	0.42043	0.36723	0.41212	1.763
Mof_Dy	Dy	0.24719	0.47753	0.27691	1.765
Mof_K 	K 	0.3291	0.4237	0.0196	2.425
Mof_K 	K 	0.4164	0.334	0.0128	2.624
Mof_K 	K 	0.4038	0.3357	0.1682	2.55
Mof_K 	K 	0.9934	0.0744	0.668	2.579
Mof_N 	N 	0.4275	0.5069	0.4494	-0.194
Mof_N 	N 	0.373	0.4654	0.2451	-0.178
Mof_N 	N 	0.2456	0.2676	0.9399	-0.177
Mof_N 	N 	0.0915	0.2102	0.7361	-0.176
Mof_O 	O 	0.4868	0.0763	0.117	-0.461
Mof_O 	O 	0.4428	0.0773	0.1695	-0.456
Mof_O 	O 	0.4869	0.1421	0.1723	-0.449
Mof_O 	O 	0.3846	0.0156	0.1013	-0.435
Mof_O 	O 	0.3881	0.1198	0.194	-0.442
Mof_O 	O 	0.4328	0.1871	0.1945	-0.476
Mof_O 	O 	0.4306	0.015	0.0509	-0.467
Mof_O 	O 	0.4968	0.1229	0.0412	-0.462
Mof_O 	O 	0.4219	0.0697	0.9714	-0.442
Mof_O 	O 	0.3318	0.0078	0.9778	-0.429
Mof_O 	O 	0.3747	0.0749	0.0348	-0.355
Mof_O 	O 	0.3271	0.0733	0.0939	-0.456
Mof_O 	O 	0.4217	0.1403	0.0388	-0.385
Mof_O 	O 	0.3763	0.1425	0.0941	-0.385
Mof_O 	O 	0.3321	0.1845	0.1301	-0.462
Mof_O 	O 	0.3839	0.2581	0.1496	-0.707
Mof_O 	O 	0.3228	0.2212	0.0347	-0.522
Mof_O 	O 	0.4211	0.2138	0.0916	-0.544
Mof_O 	O 	0.2698	0.1365	0.0215	-0.6
Mof_O 	O 	0.2698	0.0679	0.966	-0.57
Mof_O 	O 	0.4974	0.1882	0.0958	-0.471
Mof_O 	O 	0.4356	0.1827	0.9721	-0.493
Mof_O 	O 	0.4489	0.2562	0.0291	-0.698
Mof_O 	O 	0.3575	0.208	0.9678	-0.542
Mof_O 	O 	0.3253	0.0603	0.8913	-0.468
Mof_O 	O 	0.3582	0.131	0.9093	-0.498
Mof_O 	O 	0.0616	0.0482	0.6502	-0.662
Mof_O 	O 	0.1627	0.305	0.2129	-0.457
Mof_O 	O 	0.2034	0.0507	0.5692	-0.466
Mof_O 	O 	0.2794	0.0465	0.7163	-0.439
Mof_O 	O 	0.2448	0.1248	0.6505	-0.356
Mof_O 	O 	0.1975	0.3402	0.1416	-0.384
Mof_O 	O 	0.0928	0.3135	0.0661	-0.453
Mof_O 	O 	0.1014	0.0316	0.5869	-0.464
Mof_O 	O 	0.3875	0.3964	0.3137	-0.685
Mof_O 	O 	0.2626	0.1163	0.88	-0.596
Mof_O 	O 	0.1791	0.1217	0.5174	-0.46
Mof_O 	O 	0.3543	0.3151	0.6189	-0.455
Mof_O 	O 	0.164	0.0353	0.7118	-0.484
Mof_O 	O 	0.1935	0.3586	0.2938	-0.479
Mof_O 	O 	0.3377	0.364	0.3764	-0.605
Mof_O 	O 	0.2589	0.4133	0.3087	-0.604
Mof_O 	O 	0.0697	0.333	0.1404	-0.443
Mof_O 	O 	0.3406	0.4504	0.4784	-0.547
Mof_O 	O 	0.3682	0.399	0.1976	-0.729
Mof_O 	O 	0.4189	0.3111	0.4595	-0.593
Mof_O 	O 	0.4762	0.375	0.5197	-0.588
Mof_O 	O 	0.2706	0.2892	0.2018	-0.48
Mof_O 	O 	0.1749	0.0793	0.6448	-0.388
Mof_O 	O 	0.3041	0.4443	0.2658	-0.563
Mof_O 	O 	0.2755	0.377	0.4123	-0.508
Mof_O 	O 	0.4013	0.4519	0.5999	-0.545
Mof_O 	O 	0.1844	0.1917	0.7572	-0.556
Mof_O 	O 	0.2555	0.1858	0.9206	-0.562
Mof_O 	O 	0.2403	0.3696	0.0881	-0.562
Mof_O 	O 	0.1071	0.462	0.1026	-0.473
Mof_O 	O 	0.1638	0.4539	0.2257	-0.599
Mof_O 	O 	0.274	0.1458	0.5831	-0.431
Mof_O 	O 	0.2038	0.4822	0.1687	-0.591
Mof_O 	O 	0.3259	0.1053	0.7907	-0.492
Mof_O 	O 	0.2714	0.365	0.5474	-0.457
Mof_O 	O 	0.1403	0.11	0.7124	-0.537
Mof_O 	O 	0.1934	0.0064	0.6444	-0.448
Mof_O 	O 	0.2654	0.4277	0.4827	-0.476
Mof_O 	O 	0.4382	0.4614	0.5398	-0.522
Mof_O 	O 	0.2745	0.3154	0.4722	-0.45
Mof_O 	O 	0.4862	0.4185	0.6993	-0.483
Mof_O 	O 	0.0694	0.3852	0.0187	-0.473
Mof_O 	O 	0.2821	0.4343	0.1528	-0.528
Mof_O 	O 	0.393	0.4309	0.4262	-0.581
Mof_O 	O 	0.162	0.4085	0.9891	-0.471
Mof_O 	O 	0.0571	0.1425	0.4861	-0.479
Mof_O 	O 	0.977	0.1603	0.6465	-1.028
Mof_O 	O 	0.3435	0.3814	0.5426	-0.383
Mof_O 	O 	0.4852	0.3112	0.5849	-0.465
Mof_O 	O 	0.2521	0.4356	0.0323	-0.723
Mof_O 	O 	0.4217	0.5841	0.5354	-1.034
Mof_O 	O 	0.3803	0.5263	0.4936	-0.701
Mof_O 	O 	0.3361	0.2569	0.541	-0.444
Mof_O 	O 	0.4036	0.4201	0.1548	-1.039
Mof_O 	O 	0.0954	0.1764	0.6457	-0.519
Mof_O 	O 	0.2727	0.163	0.8018	-0.599
Mof_O 	O 	0.1467	0.1519	0.5866	-0.386
Mof_O 	O 	0.1528	0.1464	0.8149	-0.682
Mof_O 	O 	0.1281	0.3445	0.0055	-0.459
Mof_O 	O 	0.4337	0.2517	0.5903	-0.43
Mof_O 	O 	0.3366	0.2826	0.983	-0.66
Mof_O 	O 	0.3301	0.4275	0.6098	-0.463
Mof_O 	O 	0.2729	0.2447	0.8651	-0.684
Mof_O 	O 	0.1715	0.4135	0.0923	-0.395
Mof_O 	O 	0.1118	0.0761	0.5125	-0.465
Mof_O 	O 	0.0741	0.1077	0.5862	-0.536
Mof_O 	O 	0.5279	0.3534	0.6908	-0.446
Mof_O 	O 	0.3799	0.3155	0.5278	-0.352
Mof_O 	O 	0.281	0.1999	0.7136	-0.594
Mof_O 	O 	0.1368	0.3816	0.156	-0.353
Mof_O 	O 	0.1001	0.4542	0.9974	-0.432
Mof_O 	O 	0.3424	0.3398	0.0337	-1.03
Mof_O 	O 	0.1866	0.226	0.6554	-0.584
Mof_O 	O 	0.2985	0.0746	0.639	-0.446
Mof_O 	O 	0.1023	0.3974	0.2153	-0.467
Mof_O 	O 	0.4422	0.3795	0.595	-0.382
Mof_O 	O 	0.2987	0.3653	0.2113	-0.545
Mof_O 	O 	0.3151	0.4985	0.5458	-0.642
Mof_O 	O 	0.196	0.4756	0.0585	-0.481
Mof_O 	O 	0.0438	0.4063	0.0909	-0.446
Mof_O 	O 	0.0872	0.2126	0.5496	-0.486
Mof_O 	O 	0.0046	0.171	0.5265	-0.721
Mof_O 	O 	0.2452	0.0814	0.7755	-0.487
Mof_O 	O 	0.2101	0.2948	0.0755	-0.47
Mof_O 	O 	0.2894	0.3084	0.3887	-0.474
Mof_O 	O 	0.4976	0.4924	0.6621	-0.695
Mof_O 	O 	0.0569	0.1407	0.6961	-0.707
Mof_O 	O 	0.123	0.1886	0.4876	-0.442
Mof_O 	O 	0.174	0.2659	0.1319	-0.457
Mof_O 	O 	0.4102	0.3763	0.6762	-0.459
Mof_O 	O 	0.338	0.1427	0.7081	-0.453
Mof_O 	O 	0.3114	0.3087	0.1405	-0.649
Mof_O 	O 	0.3234	0.4892	0.3756	-0.69
Mof_O 	O 	0.5224	0.4194	0.6315	-0.48
Mof_O 	O 	0.217	0.2011	0.5896	-0.464
Mof_O 	O 	0.254	0.332	0.2724	-0.499
Mof_O 	O 	0.3646	0.2515	0.4694	-0.455
Mof_O 	O 	0.4476	0.3133	0.6671	-0.46
Mof_W 	W 	0.44414	0.12993	0.19992	0.967
Mof_W 	W 	0.44431	0.03731	0.12051	1.012
Mof_W 	W 	0.50478	0.1295	0.12131	0.957
Mof_W 	W 	0.31708	0.12741	0.10651	0.949
Mof_W 	W 	0.37563	0.21133	0.11535	1.333
Mof_W 	W 	0.43476	0.2081	0.03451	1.352
Mof_W 	W 	0.4323	0.12531	0.96271	1.005
Mof_W 	W 	0.37367	0.03182	0.95874	0.988
Mof_W 	W 	0.31685	0.03792	0.02965	0.96
Mof_W 	W 	0.29689	0.22799	0.9403	1.338
Mof_W 	W 	0.29356	0.11577	0.84187	1.378
Mof_W 	W 	0.13311	0.15934	0.73762	1.294
Mof_W 	W 	0.22724	0.03431	0.72294	0.99
Mof_W 	W 	0.32388	0.0907	0.72827	0.99
Mof_W 	W 	0.28347	0.18101	0.65436	0.999
Mof_W 	W 	0.15578	0.21764	0.57305	0.984
Mof_W 	W 	0.06636	0.16361	0.56257	1.377
Mof_W 	W 	0.10876	0.06621	0.64618	1.318
Mof_W 	W 	0.14884	0.03653	0.56377	1.009
Mof_W 	W 	0.11113	0.13441	0.48347	0.974
Mof_W 	W 	0.24261	0.09653	0.56643	0.981
Mof_W 	W 	0.34329	0.36799	0.62775	0.96
Mof_W 	W 	0.39577	0.27501	0.61471	0.969
Mof_W 	W 	0.47865	0.36381	0.69966	1.009
Mof_W 	W 	0.3326	0.44946	0.54772	1.327
Mof_W 	W 	0.25866	0.37011	0.46938	1.011
Mof_W 	W 	0.30643	0.27617	0.45354	0.985
Mof_W 	W 	0.43143	0.27744	0.52032	0.986
Mof_W 	W 	0.51206	0.36355	0.60316	0.974
Mof_W 	W 	0.46934	0.44814	0.62316	1.326
Mof_W 	W 	0.27389	0.36421	0.34255	1.441
Mof_W 	W 	0.37514	0.47039	0.44961	1.369
Mof_W 	W 	0.33314	0.41374	0.24116	1.339
Mof_W 	W 	0.13141	0.34509	0.2288	1.007
Mof_W 	W 	0.10359	0.43842	0.16515	1.026
Mof_W 	W 	0.15254	0.47911	0.08614	0.961
Mof_W 	W 	0.22808	0.42584	0.06802	1.408
Mof_W 	W 	0.2627	0.32496	0.13994	1.359
Mof_W 	W 	0.21759	0.28877	0.21364	0.986
Mof_W 	W 	0.05448	0.35819	0.06777	0.987
Mof_W 	W 	0.14121	0.29901	0.05567	0.937
Mof_W 	W 	0.10513	0.40043	0.9864	1.023
Mof_As	As	0.86191	0.62722	0.01968	0.387
Mof_As	As	0.69808	0.6311	0.66285	0.387
Mof_As	As	0.88266	0.86785	0.52096	0.409
Mof_As	As	0.69396	0.88855	0.16583	0.4
Mof_C 	C 	0.9406	0.044	0.477	-0.155
Mof_C 	C 	0.8875	0.9258	0.186	0.445
Mof_C 	C 	0.9006	0.0364	0.2704	-0.065
Mof_H 	H 	0.9024	0.0602	0.2898	-0
Mof_C 	C 	0.8923	0.9657	0.2145	-0.156
Mof_C 	C 	0.5434	0.7063	0.7074	-0.147
Mof_C 	C 	0.9128	0.052	0.5043	0.375
Mof_C 	C 	0.6677	0.788	0.921	-0.046
Mof_H 	H 	0.6348	0.7817	0.905	0.003
Mof_C 	C 	0.7629	0.8049	0.9695	-0.157
Mof_C 	C 	0.5376	0.7738	0.734	-0.071
Mof_H 	H 	0.5204	0.7939	0.7377	0.035
Mof_C 	C 	0.6967	0.7588	0.9148	0.02
Mof_H 	H 	0.6824	0.7347	0.8941	-0.022
Mof_C 	C 	0.8175	0.8107	0.9989	0.397
Mof_C 	C 	0.5129	0.7364	0.7008	0.02
Mof_H 	H 	0.4782	0.7332	0.6765	-0.097
Mof_C 	C 	0.9757	0.0692	0.48	0.035
Mof_H 	H 	0.9847	0.094	0.5003	-0.088
Mof_C 	C 	0.8748	0.0001	0.273	0.021
Mof_H 	H 	0.8604	0.0015	0.2941	-0.023
Mof_C 	C 	0.9216	0.0337	0.2382	-0.098
Mof_H 	H 	0.9385	0.0552	0.2366	0.051
Mof_C 	C 	0.9955	0.0547	0.452	-0.106
Mof_H 	H 	0.0201	0.07	0.4547	0.064
Mof_C 	C 	0.9835	0.0229	0.4223	-0.06
Mof_H 	H 	0.996	0.016	0.4005	-0.002
Mof_C 	C 	0.949	0.9961	0.4228	0.034
Mof_H 	H 	0.9419	0.9711	0.404	-0.03
Mof_C 	C 	0.9162	0.9977	0.2089	0.045
Mof_H 	H 	0.9283	0.9949	0.1856	-0.095
Mof_C 	C 	0.6855	0.8214	0.9472	-0.1
Mof_H 	H 	0.6649	0.8393	0.9487	0.058
Mof_C 	C 	0.7348	0.8324	0.974	0.059
Mof_H 	H 	0.748	0.857	0.9938	-0.111
Mof_C 	C 	0.6131	0.7456	0.7596	0.044
Mof_H 	H 	0.6468	0.749	0.7772	-0.03
Mof_C 	C 	0.5861	0.7777	0.7582	-0.088
Mof_H 	H 	0.602	0.8022	0.7745	0.016
Mof_C 	C 	0.5244	0.6652	0.682	0.42
Mof_Dy	Dy	0.71826	0.62444	0.91516	1.832
Mof_Dy	Dy	0.74942	0.72596	0.76428	1.762
Mof_Dy	Dy	0.92043	0.86723	0.41212	1.76
Mof_Dy	Dy	0.74719	0.97753	0.27691	1.763
Mof_K 	K 	0.8291	0.9237	0.0196	2.426
Mof_K 	K 	0.9164	0.834	0.0128	2.611
Mof_K 	K 	0.9038	0.8357	0.1682	2.55
Mof_K 	K 	0.4934	0.5744	0.668	2.607
Mof_N 	N 	0.9275	0.0069	0.4494	-0.189
Mof_N 	N 	0.873	0.9654	0.2451	-0.178
Mof_N 	N 	0.7456	0.7676	0.9399	-0.177
Mof_N 	N 	0.5915	0.7102	0.7361	-0.18
Mof_O 	O 	0.9868	0.5763	0.117	-0.47
Mof_O 	O 	0.9428	0.5773	0.1695	-0.457
Mof_O 	O 	0.9869	0.6421	0.1723	-0.458
Mof_O 	O 	0.8846	0.5156	0.1013	-0.435
Mof_O 	O 	0.8881	0.6198	0.194	-0.443
Mof_O 	O 	0.9328	0.6871	0.1945	-0.478
Mof_O 	O 	0.9306	0.515	0.0509	-0.469
Mof_O 	O 	0.9968	0.6229	0.0412	-0.471
Mof_O 	O 	0.9219	0.5697	0.9714	-0.442
Mof_O 	O 	0.8318	0.5078	0.9778	-0.428
Mof_O 	O 	0.8747	0.5749	0.0348	-0.355
Mof_O 	O 	0.8271	0.5733	0.0939	-0.456
Mof_O 	O 	0.9217	0.6403	0.0388	-0.388
Mof_O 	O 	0.8763	0.6425	0.0941	-0.385
Mof_O 	O 	0.8321	0.6845	0.1301	-0.462
Mof_O 	O 	0.8839	0.7581	0.1496	-0.708
Mof_O 	O 	0.8228	0.7212	0.0347	-0.522
Mof_O 	O 	0.9211	0.7138	0.0916	-0.545
Mof_O 	O 	0.7698	0.6365	0.0215	-0.6
Mof_O 	O 	0.7698	0.5679	0.966	-0.569
Mof_O 	O 	0.9974	0.6882	0.0958	-0.479
Mof_O 	O 	0.9356	0.6827	0.9721	-0.493
Mof_O 	O 	0.9489	0.7562	0.0291	-0.7
Mof_O 	O 	0.8575	0.708	0.9678	-0.541
Mof_O 	O 	0.8253	0.5603	0.8913	-0.468
Mof_O 	O 	0.8582	0.631	0.9093	-0.498
Mof_O 	O 	0.5616	0.5482	0.6502	-0.669
Mof_O 	O 	0.6627	0.805	0.2129	-0.458
Mof_O 	O 	0.7034	0.5507	0.5692	-0.466
Mof_O 	O 	0.7794	0.5465	0.7163	-0.439
Mof_O 	O 	0.7448	0.6248	0.6505	-0.355
Mof_O 	O 	0.6975	0.8402	0.1416	-0.384
Mof_O 	O 	0.5928	0.8135	0.0661	-0.454
Mof_O 	O 	0.6014	0.5316	0.5869	-0.466
Mof_O 	O 	0.8875	0.8964	0.3137	-0.685
Mof_O 	O 	0.7626	0.6163	0.88	-0.595
Mof_O 	O 	0.6791	0.6217	0.5174	-0.46
Mof_O 	O 	0.8543	0.8151	0.6189	-0.455
Mof_O 	O 	0.664	0.5353	0.7118	-0.485
Mof_O 	O 	0.6935	0.8586	0.2938	-0.479
Mof_O 	O 	0.8377	0.864	0.3764	-0.604
Mof_O 	O 	0.7589	0.9133	0.3087	-0.604
Mof_O 	O 	0.5697	0.833	0.1404	-0.445
Mof_O 	O 	0.8406	0.9504	0.4784	-0.546
Mof_O 	O 	0.8682	0.899	0.1976	-0.729
Mof_O 	O 	0.9189	0.8111	0.4595	-0.594
Mof_O 	O 	0.9762	0.875	0.5197	-0.594
Mof_O 	O 	0.7706	0.7892	0.2018	-0.481
Mof_O 	O 	0.6749	0.5793	0.6448	-0.387
Mof_O 	O 	0.8041	0.9443	0.2658	-0.563
Mof_O 	O 	0.7755	0.877	0.4123	-0.508
Mof_O 	O 	0.9013	0.9519	0.5999	-0.544
Mof_O 	O 	0.6844	0.6917	0.7572	-0.556
Mof_O 	O 	0.7555	0.6858	0.9206	-0.561
Mof_O 	O 	0.7403	0.8696	0.0881	-0.562
Mof_O 	O 	0.6071	0.962	0.1026	-0.474
Mof_O 	O 	0.6638	0.9539	0.2257	-0.599
Mof_O 	O 	0.774	0.6458	0.5831	-0.431
Mof_O 	O 	0.7038	0.9822	0.1687	-0.591
Mof_O 	O 	0.8259	0.6053	0.7907	-0.492
Mof_O 	O 	0.7714	0.865	0.5474	-0.458
Mof_O 	O 	0.6403	0.61	0.7124	-0.538
Mof_O 	O 	0.6934	0.5064	0.6444	-0.448
Mof_O 	O 	0.7654	0.9277	0.4827	-0.476
Mof_O 	O 	0.9382	0.9614	0.5398	-0.522
Mof_O 	O 	0.7745	0.8154	0.4722	-0.45
Mof_O 	O 	0.9862	0.9185	0.6993	-0.484
Mof_O 	O 	0.5694	0.8852	0.0187	-0.475
Mof_O 	O 	0.7821	0.9343	0.1528	-0.528
Mof_O 	O 	0.893	0.9309	0.4262	-0.581
Mof_O 	O 	0.662	0.9085	0.9891	-0.47
Mof_O 	O 	0.5571	0.6425	0.4861	-0.48
Mof_O 	O 	0.477	0.6603	0.6465	-1.021
Mof_O 	O 	0.8435	0.8814	0.5426	-0.383
Mof_O 	O 	0.9852	0.8112	0.5849	-0.472
Mof_O 	O 	0.7521	0.9356	0.0323	-0.724
Mof_O 	O 	0.9217	0.0841	0.5354	-1.033
Mof_O 	O 	0.8803	0.0263	0.4936	-0.702
Mof_O 	O 	0.8361	0.7569	0.541	-0.444
Mof_O 	O 	0.9036	0.9201	0.1548	-1.036
Mof_O 	O 	0.5954	0.6764	0.6457	-0.52
Mof_O 	O 	0.7727	0.663	0.8018	-0.599
Mof_O 	O 	0.6467	0.6519	0.5866	-0.386
Mof_O 	O 	0.6528	0.6464	0.8149	-0.683
Mof_O 	O 	0.6281	0.8445	0.0055	-0.46
Mof_O 	O 	0.9337	0.7517	0.5903	-0.431
Mof_O 	O 	0.8366	0.7826	0.983	-0.659
Mof_O 	O 	0.8301	0.9275	0.6098	-0.463
Mof_O 	O 	0.7729	0.7447	0.8651	-0.684
Mof_O 	O 	0.6715	0.9135	0.0923	-0.395
Mof_O 	O 	0.6118	0.5761	0.5125	-0.465
Mof_O 	O 	0.5741	0.6077	0.5862	-0.539
Mof_O 	O 	0.0279	0.8534	0.6908	-0.44
Mof_O 	O 	0.8799	0.8155	0.5278	-0.352
Mof_O 	O 	0.781	0.6999	0.7136	-0.594
Mof_O 	O 	0.6368	0.8816	0.156	-0.352
Mof_O 	O 	0.6001	0.9542	0.9974	-0.432
Mof_O 	O 	0.8424	0.8398	0.0337	-1.03
Mof_O 	O 	0.6866	0.726	0.6554	-0.584
Mof_O 	O 	0.7985	0.5746	0.639	-0.446
Mof_O 	O 	0.6023	0.8974	0.2153	-0.468
Mof_O 	O 	0.9422	0.8795	0.595	-0.385
Mof_O 	O 	0.7987	0.8653	0.2113	-0.545
Mof_O 	O 	0.8151	0.9985	0.5458	-0.642
Mof_O 	O 	0.696	0.9756	0.0585	-0.482
Mof_O 	O 	0.5438	0.9063	0.0909	-0.448
Mof_O 	O 	0.5872	0.7126	0.5496	-0.487
Mof_O 	O 	0.5046	0.671	0.5265	-0.728
Mof_O 	O 	0.7452	0.5814	0.7755	-0.487
Mof_O 	O 	0.7101	0.7948	0.0755	-0.47
Mof_O 	O 	0.7894	0.8084	0.3887	-0.474
Mof_O 	O 	0.9976	0.9924	0.6621	-0.694
Mof_O 	O 	0.5569	0.6407	0.6961	-0.708
Mof_O 	O 	0.623	0.6886	0.4876	-0.443
Mof_O 	O 	0.674	0.7659	0.1319	-0.458
Mof_O 	O 	0.9102	0.8763	0.6762	-0.459
Mof_O 	O 	0.838	0.6427	0.7081	-0.453
Mof_O 	O 	0.8114	0.8087	0.1405	-0.649
Mof_O 	O 	0.8234	0.9892	0.3756	-0.689
Mof_O 	O 	0.0224	0.9194	0.6315	-0.474
Mof_O 	O 	0.717	0.7011	0.5896	-0.465
Mof_O 	O 	0.754	0.832	0.2724	-0.499
Mof_O 	O 	0.8646	0.7515	0.4694	-0.456
Mof_O 	O 	0.9476	0.8133	0.6671	-0.46
Mof_W 	W 	0.94414	0.62993	0.19992	0.964
Mof_W 	W 	0.94431	0.53731	0.12051	1.01
Mof_W 	W 	0.00478	0.6295	0.12131	0.987
Mof_W 	W 	0.81708	0.62741	0.10651	0.948
Mof_W 	W 	0.87563	0.71133	0.11535	1.333
Mof_W 	W 	0.93476	0.7081	0.03451	1.35
Mof_W 	W 	0.9323	0.62531	0.96271	1.005
Mof_W 	W 	0.87367	0.53182	0.95874	0.988
Mof_W 	W 	0.81685	0.53792	0.02965	0.958
Mof_W 	W 	0.79689	0.72799	0.9403	1.339
Mof_W 	W 	0.79356	0.61577	0.84187	1.378
Mof_W 	W 	0.63311	0.65934	0.73762	1.293
Mof_W 	W 	0.72724	0.53431	0.72294	0.99
Mof_W 	W 	0.82388	0.5907	0.72827	0.989
Mof_W 	W 	0.78347	0.68101	0.65436	0.999
Mof_W 	W 	0.65578	0.71764	0.57305	0.983
Mof_W 	W 	0.56636	0.66361	0.56257	1.376
Mof_W 	W 	0.60876	0.56621	0.64618	1.318
Mof_W 	W 	0.64884	0.53653	0.56377	1.007
Mof_W 	W 	0.61113	0.63441	0.48347	0.972
Mof_W 	W 	0.74261	0.59653	0.56643	0.98
Mof_W 	W 	0.84329	0.86799	0.62775	0.959
Mof_W 	W 	0.89577	0.77501	0.61471	0.967
Mof_W 	W 	0.97865	0.86381	0.69966	1
Mof_W 	W 	0.8326	0.94946	0.54772	1.327
Mof_W 	W 	0.75866	0.87011	0.46938	1.01
Mof_W 	W 	0.80643	0.77617	0.45354	0.984
Mof_W 	W 	0.93143	0.77744	0.52032	0.983
Mof_W 	W 	0.01206	0.86355	0.60316	0.993
Mof_W 	W 	0.96934	0.94814	0.62316	1.318
Mof_W 	W 	0.77389	0.86421	0.34255	1.441
Mof_W 	W 	0.87514	0.97039	0.44961	1.369
Mof_W 	W 	0.83314	0.91374	0.24116	1.339
Mof_W 	W 	0.63141	0.84509	0.2288	1.005
Mof_W 	W 	0.60359	0.93842	0.16515	1.023
Mof_W 	W 	0.65254	0.97911	0.08614	0.958
Mof_W 	W 	0.72808	0.92584	0.06802	1.407
Mof_W 	W 	0.7627	0.82496	0.13994	1.359
Mof_W 	W 	0.71759	0.78877	0.21364	0.985
Mof_W 	W 	0.55448	0.85819	0.06777	0.983
Mof_W 	W 	0.64121	0.79901	0.05567	0.935
Mof_W 	W 	0.60513	0.90043	0.9864	1.023
_end
