# CIF file generated by openbabel 3.1.0, see https://openbabel.org
data_I
_chemical_name_common 'image0'
_cell_length_a 9.6217
_cell_length_b 28.6285
_cell_length_c 10.4801
_cell_angle_alpha 90
_cell_angle_beta 111.376
_cell_angle_gamma 90
_space_group_name_H-M_alt 'P 1'
_space_group_name_Hall 'P 1'
loop_
    _symmetry_equiv_pos_as_xyz
    x,y,z
loop_
    _atom_site_label
    _atom_site_type_symbol
    _atom_site_fract_x
    _atom_site_fract_y
    _atom_site_fract_z
    _atom_site_occupancy
    Zn1      Zn       0.58331    0.53974    0.89008    1.000
    N1       N        0.76230    0.53558    0.08360    1.000
    N2       N        0.39760    0.54047    0.69950    1.000
    C1       C        0.76740    0.56226    0.18930    1.000
    H1       H        0.68360    0.58140    0.18030    1.000
    C2       C        0.88750    0.56351    0.31070    1.000
    H2       H        0.88520    0.58310    0.38310    1.000
    C3       C        0.01310    0.53612    0.32800    1.000
    C4       C        0.00600    0.50792    0.21800    1.000
    H3       H        0.08700    0.48790    0.22450    1.000
    C5       C        0.88150    0.50898    0.09950    1.000
    H4       H        0.88020    0.48980    0.02510    1.000
    C6       C        0.14740    0.53760    0.45590    1.000
    C7       C        0.16290    0.57040    0.55570    1.000
    H5       H        0.08730    0.59330    0.54260    1.000
    C8       C        0.28680    0.57047    0.67450    1.000
    H6       H        0.29290    0.59330    0.74220    1.000
    C9       C        0.38430    0.50933    0.60270    1.000
    H7       H        0.46260    0.48730    0.61810    1.000
    C10      C        0.26410    0.50679    0.48080    1.000
    H8       H        0.26170    0.48390    0.41440    1.000
    O1       O        0.80810    0.22318    0.87350    1.000
    O2       O        0.36040    0.11666    0.61800    1.000
    O3       O        0.26510    0.06332    0.71040    1.000
    O4       O        0.56210    0.43703    0.02320    1.000
    O5       O        0.61630    0.47130    0.85580    1.000
    C11      C        0.27610    0.10520    0.68070    1.000
    C12      C        0.19080    0.14215    0.72050    1.000
    C13      C        0.21750    0.18851    0.70710    1.000
    H9       H        0.29100    0.19730    0.67090    1.000
    C14      C        0.13930    0.22260    0.74550    1.000
    H10      H        0.15880    0.25450    0.73470    1.000
    C15      C        0.03220    0.21070    0.79980    1.000
    C16      C        0.00140    0.16480    0.80630    1.000
    H11      H        0.92400    0.15590    0.83750    1.000
    C17      C        0.07990    0.13080    0.76850    1.000
    H12      H        0.05700    0.09890    0.77580    1.000
    C18      C        0.84630    0.31440    0.88420    1.000
    C19      C        0.86830    0.35580    0.83350    1.000
    H13      H        0.93650    0.35780    0.78710    1.000
    C20      C        0.79390    0.39520    0.84770    1.000
    H14      H        0.80940    0.42390    0.80900    1.000
    C21      C        0.69700    0.39387    0.91750    1.000
    C22      C        0.67740    0.35212    0.97340    1.000
    H15      H        0.61310    0.35050    0.02380    1.000
    C23      C        0.75090    0.31245    0.95650    1.000
    H16      H        0.73600    0.28360    0.99460    1.000
    C24      C        0.61860    0.43747    0.93320    1.000
    C25      C        0.91500    0.23680    0.84100    1.000
    N3       N        0.95470    0.28370    0.85790    1.000
    N4       N        0.99250    0.25880    0.83800    1.000
    C26      C        0.87530    0.25860    0.87000    1.000
    Zn2      Zn       0.41669    0.46026    0.10992    1.000
    N5       N        0.23770    0.46442    0.91640    1.000
    N6       N        0.60240    0.45953    0.30050    1.000
    C27      C        0.23260    0.43774    0.81070    1.000
    H17      H        0.31640    0.41860    0.81970    1.000
    C28      C        0.11250    0.43649    0.68930    1.000
    H18      H        0.11480    0.41690    0.61690    1.000
    C29      C        0.98690    0.46388    0.67200    1.000
    C30      C        0.99400    0.49208    0.78200    1.000
    H19      H        0.91300    0.51210    0.77550    1.000
    C31      C        0.11850    0.49102    0.90050    1.000
    H20      H        0.11980    0.51020    0.97490    1.000
    C32      C        0.85260    0.46240    0.54410    1.000
    C33      C        0.83710    0.42960    0.44430    1.000
    H21      H        0.91270    0.40670    0.45740    1.000
    C34      C        0.71320    0.42953    0.32550    1.000
    H22      H        0.70710    0.40670    0.25780    1.000
    C35      C        0.61570    0.49067    0.39730    1.000
    H23      H        0.53740    0.51270    0.38190    1.000
    C36      C        0.73590    0.49321    0.51920    1.000
    H24      H        0.73830    0.51610    0.58560    1.000
    O6       O        0.19190    0.77682    0.12650    1.000
    O7       O        0.63960    0.88334    0.38200    1.000
    O8       O        0.73490    0.93668    0.28960    1.000
    O9       O        0.43790    0.56297    0.97680    1.000
    O10      O        0.38370    0.52870    0.14420    1.000
    C37      C        0.72390    0.89480    0.31930    1.000
    C38      C        0.80920    0.85785    0.27950    1.000
    C39      C        0.78250    0.81149    0.29290    1.000
    H25      H        0.70900    0.80270    0.32910    1.000
    C40      C        0.86070    0.77740    0.25450    1.000
    H26      H        0.84120    0.74550    0.26530    1.000
    C41      C        0.96780    0.78930    0.20020    1.000
    C42      C        0.99860    0.83520    0.19370    1.000
    H27      H        0.07600    0.84410    0.16250    1.000
    C43      C        0.92010    0.86920    0.23150    1.000
    H28      H        0.94300    0.90110    0.22420    1.000
    C44      C        0.15370    0.68560    0.11580    1.000
    C45      C        0.13170    0.64420    0.16650    1.000
    H29      H        0.06350    0.64220    0.21290    1.000
    C46      C        0.20610    0.60480    0.15230    1.000
    H30      H        0.19060    0.57610    0.19100    1.000
    C47      C        0.30300    0.60613    0.08250    1.000
    C48      C        0.32260    0.64788    0.02660    1.000
    H31      H        0.38690    0.64950    0.97620    1.000
    C49      C        0.24910    0.68755    0.04350    1.000
    H32      H        0.26400    0.71640    0.00540    1.000
    C50      C        0.38140    0.56253    0.06680    1.000
    C51      C        0.08500    0.76320    0.15900    1.000
    N7       N        0.04530    0.71630    0.14210    1.000
    N8       N        0.00750    0.74120    0.16200    1.000
    C52      C        0.12470    0.74140    0.13000    1.000
    O11      O        0.19190    0.72318    0.62650    1.000
    O12      O        0.63960    0.61666    0.88200    1.000
    O13      O        0.73490    0.56332    0.78960    1.000
    O14      O        0.43790    0.93703    0.47680    1.000
    O15      O        0.38370    0.97130    0.64420    1.000
    C53      C        0.72390    0.60520    0.81930    1.000
    C54      C        0.80920    0.64215    0.77950    1.000
    C55      C        0.78250    0.68851    0.79290    1.000
    H33      H        0.70900    0.69730    0.82910    1.000
    C56      C        0.86070    0.72260    0.75450    1.000
    H34      H        0.84120    0.75450    0.76530    1.000
    C57      C        0.96780    0.71070    0.70020    1.000
    C58      C        0.99860    0.66480    0.69370    1.000
    H35      H        0.07600    0.65590    0.66250    1.000
    C59      C        0.92010    0.63080    0.73150    1.000
    H36      H        0.94300    0.59890    0.72420    1.000
    C60      C        0.15370    0.81440    0.61580    1.000
    C61      C        0.13170    0.85580    0.66650    1.000
    H37      H        0.06350    0.85780    0.71290    1.000
    C62      C        0.20610    0.89520    0.65230    1.000
    H38      H        0.19060    0.92390    0.69100    1.000
    C63      C        0.30300    0.89387    0.58250    1.000
    C64      C        0.32260    0.85212    0.52660    1.000
    H39      H        0.38690    0.85050    0.47620    1.000
    C65      C        0.24910    0.81245    0.54350    1.000
    H40      H        0.26400    0.78360    0.50540    1.000
    C66      C        0.38140    0.93747    0.56680    1.000
    C67      C        0.08500    0.73680    0.65900    1.000
    N9       N        0.04530    0.78370    0.64210    1.000
    N10      N        0.00750    0.75880    0.66200    1.000
    C68      C        0.12470    0.75860    0.63000    1.000
    Zn3      Zn       0.41669    0.03974    0.60992    1.000
    N11      N        0.23770    0.03558    0.41640    1.000
    N12      N        0.60240    0.04047    0.80050    1.000
    C69      C        0.23260    0.06226    0.31070    1.000
    H41      H        0.31640    0.08140    0.31970    1.000
    C70      C        0.11250    0.06351    0.18930    1.000
    H42      H        0.11480    0.08310    0.11690    1.000
    C71      C        0.98690    0.03612    0.17200    1.000
    C72      C        0.99400    0.00792    0.28200    1.000
    H43      H        0.91300    0.98790    0.27550    1.000
    C73      C        0.11850    0.00898    0.40050    1.000
    H44      H        0.11980    0.98980    0.47490    1.000
    C74      C        0.85260    0.03760    0.04410    1.000
    C75      C        0.83710    0.07040    0.94430    1.000
    H45      H        0.91270    0.09330    0.95740    1.000
    C76      C        0.71320    0.07047    0.82550    1.000
    H46      H        0.70710    0.09330    0.75780    1.000
    C77      C        0.61570    0.00933    0.89730    1.000
    H47      H        0.53740    0.98730    0.88190    1.000
    C78      C        0.73590    0.00679    0.01920    1.000
    H48      H        0.73830    0.98390    0.08560    1.000
    O16      O        0.80810    0.27682    0.37350    1.000
    O17      O        0.36040    0.38334    0.11800    1.000
    O18      O        0.26510    0.43668    0.21040    1.000
    O19      O        0.56210    0.06297    0.52320    1.000
    O20      O        0.61630    0.02870    0.35580    1.000
    C79      C        0.27610    0.39480    0.18070    1.000
    C80      C        0.19080    0.35785    0.22050    1.000
    C81      C        0.21750    0.31149    0.20710    1.000
    H49      H        0.29100    0.30270    0.17090    1.000
    C82      C        0.13930    0.27740    0.24550    1.000
    H50      H        0.15880    0.24550    0.23470    1.000
    C83      C        0.03220    0.28930    0.29980    1.000
    C84      C        0.00140    0.33520    0.30630    1.000
    H51      H        0.92400    0.34410    0.33750    1.000
    C85      C        0.07990    0.36920    0.26850    1.000
    H52      H        0.05700    0.40110    0.27580    1.000
    C86      C        0.84630    0.18560    0.38420    1.000
    C87      C        0.86830    0.14420    0.33350    1.000
    H53      H        0.93650    0.14220    0.28710    1.000
    C88      C        0.79390    0.10480    0.34770    1.000
    H54      H        0.80940    0.07610    0.30900    1.000
    C89      C        0.69700    0.10613    0.41750    1.000
    C90      C        0.67740    0.14788    0.47340    1.000
    H55      H        0.61310    0.14950    0.52380    1.000
    C91      C        0.75090    0.18755    0.45650    1.000
    H56      H        0.73600    0.21640    0.49460    1.000
    C92      C        0.61860    0.06253    0.43320    1.000
    C93      C        0.91500    0.26320    0.34100    1.000
    N13      N        0.95470    0.21630    0.35790    1.000
    N14      N        0.99250    0.24120    0.33800    1.000
    C94      C        0.87530    0.24140    0.37000    1.000
    Zn4      Zn       0.58331    0.96026    0.39008    1.000
    N15      N        0.76230    0.96442    0.58360    1.000
    N16      N        0.39760    0.95953    0.19950    1.000
    C95      C        0.76740    0.93774    0.68930    1.000
    H57      H        0.68360    0.91860    0.68030    1.000
    C96      C        0.88750    0.93649    0.81070    1.000
    H58      H        0.88520    0.91690    0.88310    1.000
    C97      C        0.01310    0.96388    0.82800    1.000
    C98      C        0.00600    0.99208    0.71800    1.000
    H59      H        0.08700    0.01210    0.72450    1.000
    C99      C        0.88150    0.99102    0.59950    1.000
    H60      H        0.88020    0.01020    0.52510    1.000
    C100     C        0.14740    0.96240    0.95590    1.000
    C101     C        0.16290    0.92960    0.05570    1.000
    H61      H        0.08730    0.90670    0.04260    1.000
    C102     C        0.28680    0.92953    0.17450    1.000
    H62      H        0.29290    0.90670    0.24220    1.000
    C103     C        0.38430    0.99067    0.10270    1.000
    H63      H        0.46260    0.01270    0.11810    1.000
    C104     C        0.26410    0.99321    0.98080    1.000
    H64      H        0.26170    0.01610    0.91440    1.000
