# CIF file generated by openbabel 3.1.0, see https://openbabel.org
data_I
_chemical_name_common 'image0'
_cell_length_a 9.8669
_cell_length_b 10.425
_cell_length_c 12.4397
_cell_angle_alpha 111.316
_cell_angle_beta 102.568
_cell_angle_gamma 93.8625
_space_group_name_H-M_alt 'P 1'
_space_group_name_Hall 'P 1'
loop_
    _symmetry_equiv_pos_as_xyz
    x,y,z
loop_
    _atom_site_label
    _atom_site_type_symbol
    _atom_site_fract_x
    _atom_site_fract_y
    _atom_site_fract_z
    _atom_site_occupancy
    C1       C        0.73860    0.30280    0.40800    1.000
    C2       C        0.89460    0.32240    0.46190    1.000
    C3       C        0.94760    0.39600    0.58440    1.000
    H1       H        0.88780    0.43380    0.63190    1.000
    C4       C        0.08930    0.41210    0.63440    1.000
    C5       C        0.18190    0.36000    0.56590    1.000
    H2       H        0.27760    0.37210    0.60130    1.000
    C6       C        0.12850    0.28930    0.44320    1.000
    C7       C        0.98460    0.26950    0.39140    1.000
    H3       H        0.94900    0.22080    0.30940    1.000
    C8       C        0.22620    0.23640    0.36680    1.000
    C9       C        0.29850    0.52990    0.94090    1.000
    C10      C        0.32660    0.67520    0.98960    1.000
    H4       H        0.30560    0.72510    0.94110    1.000
    C11      C        0.38630    0.74430    0.11130    1.000
    C12      C        0.41680    0.66850    0.18290    1.000
    H5       H        0.45620    0.71510    0.26470    1.000
    C13      C        0.38880    0.52370    0.13330    1.000
    C14      C        0.33180    0.45430    0.01090    1.000
    H6       H        0.31630    0.35730    0.97650    1.000
    C15      C        0.42280    0.44140    0.21050    1.000
    C16      C        0.41440    0.90100    0.16550    1.000
    Cd1      Cd       0.45330    0.17885    0.25827    1.000
    N1       N        0.14160    0.49050    0.76220    1.000
    N2       N        0.24310    0.45170    0.81460    1.000
    O1       O        0.68950    0.22460    0.30030    1.000
    O2       O        0.66610    0.36340    0.47580    1.000
    O3       O        0.18140    0.14570    0.26470    1.000
    O4       O        0.35760    0.28620    0.41110    1.000
    O5       O        0.39470    0.31060    0.15830    1.000
    O6       O        0.47660    0.50700    0.31900    1.000
    O7       O        0.38920    0.96610    0.09900    1.000
    O8       O        0.46100    0.96180    0.27620    1.000
    O9       O        0.06530    0.57400    0.81310    1.000
    O10      O        0.25030    0.31720    0.77790    1.000
    C17      C        0.26140    0.69720    0.59200    1.000
    C18      C        0.10540    0.67760    0.53810    1.000
    C19      C        0.05240    0.60400    0.41560    1.000
    H7       H        0.11220    0.56620    0.36810    1.000
    C20      C        0.91070    0.58790    0.36560    1.000
    C21      C        0.81810    0.64000    0.43410    1.000
    H8       H        0.72240    0.62790    0.39870    1.000
    C22      C        0.87150    0.71070    0.55680    1.000
    C23      C        0.01540    0.73050    0.60860    1.000
    H9       H        0.05100    0.77920    0.69060    1.000
    C24      C        0.77380    0.76360    0.63320    1.000
    C25      C        0.70150    0.47010    0.05910    1.000
    C26      C        0.67340    0.32480    0.01040    1.000
    H10      H        0.69440    0.27490    0.05890    1.000
    C27      C        0.61370    0.25570    0.88870    1.000
    C28      C        0.58320    0.33150    0.81710    1.000
    H11      H        0.54380    0.28490    0.73530    1.000
    C29      C        0.61120    0.47630    0.86670    1.000
    C30      C        0.66820    0.54570    0.98910    1.000
    H12      H        0.68370    0.64270    0.02350    1.000
    C31      C        0.57720    0.55860    0.78950    1.000
    C32      C        0.58560    0.09900    0.83450    1.000
    Cd2      Cd       0.54670    0.82115    0.74173    1.000
    N3       N        0.85840    0.50950    0.23780    1.000
    N4       N        0.75690    0.54830    0.18540    1.000
    O11      O        0.31050    0.77540    0.69970    1.000
    O12      O        0.33390    0.63660    0.52420    1.000
    O13      O        0.81860    0.85430    0.73530    1.000
    O14      O        0.64240    0.71380    0.58890    1.000
    O15      O        0.60530    0.68940    0.84170    1.000
    O16      O        0.52340    0.49300    0.68100    1.000
    O17      O        0.61080    0.03390    0.90100    1.000
    O18      O        0.53900    0.03820    0.72380    1.000
    O19      O        0.93470    0.42600    0.18690    1.000
    O20      O        0.74970    0.68280    0.22210    1.000
    Cd3      Cd       0.50000    0.50000    0.50000    1.000
