# CIF file generated by openbabel 3.1.0, see https://openbabel.org
data_I
_chemical_name_common 'image0'
_cell_length_a 32.68
_cell_length_b 34.95
_cell_length_c 25.12
_cell_angle_alpha 90
_cell_angle_beta 90
_cell_angle_gamma 90
_space_group_name_H-M_alt 'P 1'
_space_group_name_Hall 'P 1'
loop_
    _symmetry_equiv_pos_as_xyz
    x,y,z
loop_
    _atom_site_label
    _atom_site_type_symbol
    _atom_site_fract_x
    _atom_site_fract_y
    _atom_site_fract_z
    _atom_site_occupancy
    Cd1      Cd       0.49786    0.14656    0.88496    1.000
    Cd2      Cd       0.56981    0.24939    0.66463    1.000
    Cd3      Cd       0.53199    0.19610    0.77117    1.000
    C1       C        0.64540    0.16280    0.78490    1.000
    H1       H        0.62690    0.17720    0.80460    1.000
    C2       C        0.64680    0.16810    0.73550    1.000
    C3       C        0.67530    0.14310    0.69910    1.000
    H2       H        0.67740    0.14690    0.66130    1.000
    C4       C        0.69830    0.11410    0.73080    1.000
    H3       H        0.71400    0.09640    0.71210    1.000
    C5       C        0.69830    0.11180    0.77930    1.000
    C6       C        0.67170    0.13470    0.81380    1.000
    C7       C        0.67120    0.12890    0.86900    1.000
    H4       H        0.64990    0.14070    0.88960    1.000
    C8       C        0.69750    0.10450    0.89180    1.000
    H5       H        0.69720    0.10150    0.92860    1.000
    C9       C        0.72530    0.08350    0.86180    1.000
    C10      C        0.72660    0.08610    0.80780    1.000
    H6       H        0.74540    0.07160    0.78870    1.000
    C11      C        0.61910    0.19360    0.69990    1.000
    C12      C        0.75890    0.05620    0.88500    1.000
    O1       O        0.62630    0.19870    0.65480    1.000
    O2       O        0.59400    0.21150    0.73290    1.000
    O3       O        0.75410    0.05670    0.93760    1.000
    O4       O        0.77780    0.03390    0.86100    1.000
    C13      C        0.65820    0.32510    0.98450    1.000
    H7       H        0.67020    0.34150    0.95990    1.000
    C14      C        0.66530    0.32920    0.03440    1.000
    C15      C        0.65150    0.30000    0.07240    1.000
    H8       H        0.65800    0.30220    0.10950    1.000
    C16      C        0.62680    0.27210    0.05220    1.000
    H9       H        0.61530    0.25460    0.07580    1.000
    C17      C        0.61800    0.26820    0.99970    1.000
    C18      C        0.63150    0.29490    0.96690    1.000
    C19      C        0.62490    0.29390    0.90880    1.000
    H10      H        0.63750    0.31150    0.88640    1.000
    C20      C        0.59760    0.26400    0.88750    1.000
    H11      H        0.58870    0.26360    0.85110    1.000
    C21      C        0.58380    0.23530    0.92670    1.000
    C22      C        0.59250    0.23820    0.97880    1.000
    H12      H        0.58170    0.22020    0.00210    1.000
    C23      C        0.69410    0.36090    0.05370    1.000
    C24      C        0.55780    0.20290    0.90400    1.000
    O5       O        0.70380    0.35620    0.10000    1.000
    O6       O        0.70470    0.38400    0.02140    1.000
    O7       O        0.55730    0.20120    0.85420    1.000
    O8       O        0.53820    0.18460    0.93570    1.000
    C25      C        0.39360    0.04550    0.94580    1.000
    H13      H        0.39080    0.04000    0.90980    1.000
    C26      C        0.41860    0.07180    0.97150    1.000
    C27      C        0.42060    0.07530    0.02610    1.000
    H14      H        0.43780    0.09410    0.03960    1.000
    C28      C        0.39940    0.05370    0.06260    1.000
    H15      H        0.40150    0.05870    0.09890    1.000
    C29      C        0.37550    0.02510    0.04470    1.000
    C30      C        0.37350    0.02960    0.99040    1.000
    C31      C        0.35020    0.00170    0.96830    1.000
    H16      H        0.34740    0.99720    0.93200    1.000
    C32      C        0.33100    0.98050    0.00870    1.000
    H17      H        0.31370    0.96200    0.99450    1.000
    C33      C        0.33060    0.97970    0.06460    1.000
    C34      C        0.35750    0.00570    0.08730    1.000
    H18      H        0.36180    0.00870    0.12490    1.000
    C35      C        0.45060    0.09850    0.93930    1.000
    C36      C        0.30320    0.94920    0.09030    1.000
    O9       O        0.44760    0.09880    0.89110    1.000
    O10      O        0.46970    0.12080    0.96660    1.000
    O11      O        0.30680    0.94700    0.14080    1.000
    O12      O        0.27980    0.93100    0.06190    1.000
    C37      C        0.72810    0.42770    0.57020    1.000
    H19      H        0.74150    0.44370    0.59610    1.000
    C38      C        0.73560    0.43350    0.51640    1.000
    C39      C        0.71400    0.41210    0.47880    1.000
    H20      H        0.71560    0.41850    0.44290    1.000
    C40      C        0.69000    0.38120    0.49490    1.000
    H21      H        0.68240    0.36140    0.47020    1.000
    C41      C        0.68140    0.37670    0.54700    1.000
    C42      C        0.70060    0.39930    0.58660    1.000
    C43      C        0.69310    0.39060    0.63930    1.000
    H22      H        0.70610    0.40450    0.66760    1.000
    C44      C        0.66750    0.36060    0.65350    1.000
    H23      H        0.65770    0.35430    0.68840    1.000
    C45      C        0.64860    0.33890    0.61390    1.000
    C46      C        0.65580    0.34630    0.56100    1.000
    H24      H        0.64140    0.33030    0.53610    1.000
    C47      C        0.76270    0.46500    0.49650    1.000
    C48      C        0.61810    0.30550    0.62340    1.000
    O13      O        0.77040    0.49310    0.52390    1.000
    O14      O        0.77250    0.46190    0.44890    1.000
    O15      O        0.59690    0.28590    0.59510    1.000
    O16      O        0.62010    0.29760    0.67370    1.000
    Cd4      Cd       0.49786    0.64656    0.38496    1.000
    Cd5      Cd       0.56981    0.74939    0.16463    1.000
    Cd6      Cd       0.53199    0.69610    0.27117    1.000
    C49      C        0.64540    0.66280    0.28490    1.000
    H25      H        0.62690    0.67720    0.30460    1.000
    C50      C        0.64680    0.66810    0.23550    1.000
    C51      C        0.67530    0.64310    0.19910    1.000
    H26      H        0.67740    0.64690    0.16130    1.000
    C52      C        0.69830    0.61410    0.23080    1.000
    H27      H        0.71400    0.59640    0.21210    1.000
    C53      C        0.69830    0.61180    0.27930    1.000
    C54      C        0.67170    0.63470    0.31380    1.000
    C55      C        0.67120    0.62890    0.36900    1.000
    H28      H        0.64990    0.64070    0.38960    1.000
    C56      C        0.69750    0.60450    0.39180    1.000
    H29      H        0.69720    0.60150    0.42860    1.000
    C57      C        0.72530    0.58350    0.36180    1.000
    C58      C        0.72660    0.58610    0.30780    1.000
    H30      H        0.74540    0.57160    0.28870    1.000
    C59      C        0.61910    0.69360    0.19990    1.000
    C60      C        0.75890    0.55620    0.38500    1.000
    O17      O        0.62630    0.69870    0.15480    1.000
    O18      O        0.59400    0.71150    0.23290    1.000
    O19      O        0.75410    0.55670    0.43760    1.000
    O20      O        0.77780    0.53390    0.36100    1.000
    C61      C        0.65820    0.82510    0.48450    1.000
    H31      H        0.67020    0.84150    0.45990    1.000
    C62      C        0.66530    0.82920    0.53440    1.000
    C63      C        0.65150    0.80000    0.57240    1.000
    H32      H        0.65800    0.80220    0.60950    1.000
    C64      C        0.62680    0.77210    0.55220    1.000
    H33      H        0.61530    0.75460    0.57580    1.000
    C65      C        0.61800    0.76820    0.49970    1.000
    C66      C        0.63150    0.79490    0.46690    1.000
    C67      C        0.62490    0.79390    0.40880    1.000
    H34      H        0.63750    0.81150    0.38640    1.000
    C68      C        0.59760    0.76400    0.38750    1.000
    H35      H        0.58870    0.76360    0.35110    1.000
    C69      C        0.58380    0.73530    0.42670    1.000
    C70      C        0.59250    0.73820    0.47880    1.000
    H36      H        0.58170    0.72020    0.50210    1.000
    C71      C        0.69410    0.86090    0.55370    1.000
    C72      C        0.55780    0.70290    0.40400    1.000
    O21      O        0.70380    0.85620    0.60000    1.000
    O22      O        0.70470    0.88400    0.52140    1.000
    O23      O        0.55730    0.70120    0.35420    1.000
    O24      O        0.53820    0.68460    0.43570    1.000
    C73      C        0.39360    0.54550    0.44580    1.000
    H37      H        0.39080    0.54000    0.40980    1.000
    C74      C        0.41860    0.57180    0.47150    1.000
    C75      C        0.42060    0.57530    0.52610    1.000
    H38      H        0.43780    0.59410    0.53960    1.000
    C76      C        0.39940    0.55370    0.56260    1.000
    H39      H        0.40150    0.55870    0.59890    1.000
    C77      C        0.37550    0.52510    0.54470    1.000
    C78      C        0.37350    0.52960    0.49040    1.000
    C79      C        0.35020    0.50170    0.46830    1.000
    H40      H        0.34740    0.49720    0.43200    1.000
    C80      C        0.33100    0.48050    0.50870    1.000
    H41      H        0.31370    0.46200    0.49450    1.000
    C81      C        0.33060    0.47970    0.56460    1.000
    C82      C        0.35750    0.50570    0.58730    1.000
    H42      H        0.36180    0.50870    0.62490    1.000
    C83      C        0.45060    0.59850    0.43930    1.000
    C84      C        0.30320    0.44920    0.59030    1.000
    O25      O        0.44760    0.59880    0.39110    1.000
    O26      O        0.46970    0.62080    0.46660    1.000
    O27      O        0.30680    0.44700    0.64080    1.000
    O28      O        0.27980    0.43100    0.56190    1.000
    C85      C        0.72810    0.92770    0.07020    1.000
    H43      H        0.74150    0.94370    0.09610    1.000
    C86      C        0.73560    0.93350    0.01640    1.000
    C87      C        0.71400    0.91210    0.97880    1.000
    H44      H        0.71560    0.91850    0.94290    1.000
    C88      C        0.69000    0.88120    0.99490    1.000
    H45      H        0.68240    0.86140    0.97020    1.000
    C89      C        0.68140    0.87670    0.04700    1.000
    C90      C        0.70060    0.89930    0.08660    1.000
    C91      C        0.69310    0.89060    0.13930    1.000
    H46      H        0.70610    0.90450    0.16760    1.000
    C92      C        0.66750    0.86060    0.15350    1.000
    H47      H        0.65770    0.85430    0.18840    1.000
    C93      C        0.64860    0.83890    0.11390    1.000
    C94      C        0.65580    0.84630    0.06100    1.000
    H48      H        0.64140    0.83030    0.03610    1.000
    C95      C        0.76270    0.96500    0.99650    1.000
    C96      C        0.61810    0.80550    0.12340    1.000
    O29      O        0.77040    0.99310    0.02390    1.000
    O30      O        0.77250    0.96190    0.94890    1.000
    O31      O        0.59690    0.78590    0.09510    1.000
    O32      O        0.62010    0.79760    0.17370    1.000
    Cd7      Cd       0.99786    0.14656    0.38496    1.000
    Cd8      Cd       0.06981    0.24939    0.16463    1.000
    Cd9      Cd       0.03199    0.19610    0.27117    1.000
    C97      C        0.14540    0.16280    0.28490    1.000
    H49      H        0.12690    0.17720    0.30460    1.000
    C98      C        0.14680    0.16810    0.23550    1.000
    C99      C        0.17530    0.14310    0.19910    1.000
    H50      H        0.17740    0.14690    0.16130    1.000
    C100     C        0.19830    0.11410    0.23080    1.000
    H51      H        0.21400    0.09640    0.21210    1.000
    C101     C        0.19830    0.11180    0.27930    1.000
    C102     C        0.17170    0.13470    0.31380    1.000
    C103     C        0.17120    0.12890    0.36900    1.000
    H52      H        0.14990    0.14070    0.38960    1.000
    C104     C        0.19750    0.10450    0.39180    1.000
    H53      H        0.19720    0.10150    0.42860    1.000
    C105     C        0.22530    0.08350    0.36180    1.000
    C106     C        0.22660    0.08610    0.30780    1.000
    H54      H        0.24540    0.07160    0.28870    1.000
    C107     C        0.11910    0.19360    0.19990    1.000
    C108     C        0.25890    0.05620    0.38500    1.000
    O33      O        0.12630    0.19870    0.15480    1.000
    O34      O        0.09400    0.21150    0.23290    1.000
    O35      O        0.25410    0.05670    0.43760    1.000
    O36      O        0.27780    0.03390    0.36100    1.000
    C109     C        0.15820    0.32510    0.48450    1.000
    H55      H        0.17020    0.34150    0.45990    1.000
    C110     C        0.16530    0.32920    0.53440    1.000
    C111     C        0.15150    0.30000    0.57240    1.000
    H56      H        0.15800    0.30220    0.60950    1.000
    C112     C        0.12680    0.27210    0.55220    1.000
    H57      H        0.11530    0.25460    0.57580    1.000
    C113     C        0.11800    0.26820    0.49970    1.000
    C114     C        0.13150    0.29490    0.46690    1.000
    C115     C        0.12490    0.29390    0.40880    1.000
    H58      H        0.13750    0.31150    0.38640    1.000
    C116     C        0.09760    0.26400    0.38750    1.000
    H59      H        0.08870    0.26360    0.35110    1.000
    C117     C        0.08380    0.23530    0.42670    1.000
    C118     C        0.09250    0.23820    0.47880    1.000
    H60      H        0.08170    0.22020    0.50210    1.000
    C119     C        0.19410    0.36090    0.55370    1.000
    C120     C        0.05780    0.20290    0.40400    1.000
    O37      O        0.20380    0.35620    0.60000    1.000
    O38      O        0.20470    0.38400    0.52140    1.000
    O39      O        0.05730    0.20120    0.35420    1.000
    O40      O        0.03820    0.18460    0.43570    1.000
    C121     C        0.89360    0.04550    0.44580    1.000
    H61      H        0.89080    0.04000    0.40980    1.000
    C122     C        0.91860    0.07180    0.47150    1.000
    C123     C        0.92060    0.07530    0.52610    1.000
    H62      H        0.93780    0.09410    0.53960    1.000
    C124     C        0.89940    0.05370    0.56260    1.000
    H63      H        0.90150    0.05870    0.59890    1.000
    C125     C        0.87550    0.02510    0.54470    1.000
    C126     C        0.87350    0.02960    0.49040    1.000
    C127     C        0.85020    0.00170    0.46830    1.000
    H64      H        0.84740    0.99720    0.43200    1.000
    C128     C        0.83100    0.98050    0.50870    1.000
    H65      H        0.81370    0.96200    0.49450    1.000
    C129     C        0.83060    0.97970    0.56460    1.000
    C130     C        0.85750    0.00570    0.58730    1.000
    H66      H        0.86180    0.00870    0.62490    1.000
    C131     C        0.95060    0.09850    0.43930    1.000
    C132     C        0.80320    0.94920    0.59030    1.000
    O41      O        0.94760    0.09880    0.39110    1.000
    O42      O        0.96970    0.12080    0.46660    1.000
    O43      O        0.80680    0.94700    0.64080    1.000
    O44      O        0.77980    0.93100    0.56190    1.000
    C133     C        0.22810    0.42770    0.07020    1.000
    H67      H        0.24150    0.44370    0.09610    1.000
    C134     C        0.23560    0.43350    0.01640    1.000
    C135     C        0.21400    0.41210    0.97880    1.000
    H68      H        0.21560    0.41850    0.94290    1.000
    C136     C        0.19000    0.38120    0.99490    1.000
    H69      H        0.18240    0.36140    0.97020    1.000
    C137     C        0.18140    0.37670    0.04700    1.000
    C138     C        0.20060    0.39930    0.08660    1.000
    C139     C        0.19310    0.39060    0.13930    1.000
    H70      H        0.20610    0.40450    0.16760    1.000
    C140     C        0.16750    0.36060    0.15350    1.000
    H71      H        0.15770    0.35430    0.18840    1.000
    C141     C        0.14860    0.33890    0.11390    1.000
    C142     C        0.15580    0.34630    0.06100    1.000
    H72      H        0.14140    0.33030    0.03610    1.000
    C143     C        0.26270    0.46500    0.99650    1.000
    C144     C        0.11810    0.30550    0.12340    1.000
    O45      O        0.27040    0.49310    0.02390    1.000
    O46      O        0.27250    0.46190    0.94890    1.000
    O47      O        0.09690    0.28590    0.09510    1.000
    O48      O        0.12010    0.29760    0.17370    1.000
    Cd10     Cd       0.99786    0.64656    0.88496    1.000
    Cd11     Cd       0.06981    0.74939    0.66463    1.000
    Cd12     Cd       0.03199    0.69610    0.77117    1.000
    C145     C        0.14540    0.66280    0.78490    1.000
    H73      H        0.12690    0.67720    0.80460    1.000
    C146     C        0.14680    0.66810    0.73550    1.000
    C147     C        0.17530    0.64310    0.69910    1.000
    H74      H        0.17740    0.64690    0.66130    1.000
    C148     C        0.19830    0.61410    0.73080    1.000
    H75      H        0.21400    0.59640    0.71210    1.000
    C149     C        0.19830    0.61180    0.77930    1.000
    C150     C        0.17170    0.63470    0.81380    1.000
    C151     C        0.17120    0.62890    0.86900    1.000
    H76      H        0.14990    0.64070    0.88960    1.000
    C152     C        0.19750    0.60450    0.89180    1.000
    H77      H        0.19720    0.60150    0.92860    1.000
    C153     C        0.22530    0.58350    0.86180    1.000
    C154     C        0.22660    0.58610    0.80780    1.000
    H78      H        0.24540    0.57160    0.78870    1.000
    C155     C        0.11910    0.69360    0.69990    1.000
    C156     C        0.25890    0.55620    0.88500    1.000
    O49      O        0.12630    0.69870    0.65480    1.000
    O50      O        0.09400    0.71150    0.73290    1.000
    O51      O        0.25410    0.55670    0.93760    1.000
    O52      O        0.27780    0.53390    0.86100    1.000
    C157     C        0.15820    0.82510    0.98450    1.000
    H79      H        0.17020    0.84150    0.95990    1.000
    C158     C        0.16530    0.82920    0.03440    1.000
    C159     C        0.15150    0.80000    0.07240    1.000
    H80      H        0.15800    0.80220    0.10950    1.000
    C160     C        0.12680    0.77210    0.05220    1.000
    H81      H        0.11530    0.75460    0.07580    1.000
    C161     C        0.11800    0.76820    0.99970    1.000
    C162     C        0.13150    0.79490    0.96690    1.000
    C163     C        0.12490    0.79390    0.90880    1.000
    H82      H        0.13750    0.81150    0.88640    1.000
    C164     C        0.09760    0.76400    0.88750    1.000
    H83      H        0.08870    0.76360    0.85110    1.000
    C165     C        0.08380    0.73530    0.92670    1.000
    C166     C        0.09250    0.73820    0.97880    1.000
    H84      H        0.08170    0.72020    0.00210    1.000
    C167     C        0.19410    0.86090    0.05370    1.000
    C168     C        0.05780    0.70290    0.90400    1.000
    O53      O        0.20380    0.85620    0.10000    1.000
    O54      O        0.20470    0.88400    0.02140    1.000
    O55      O        0.05730    0.70120    0.85420    1.000
    O56      O        0.03820    0.68460    0.93570    1.000
    C169     C        0.89360    0.54550    0.94580    1.000
    H85      H        0.89080    0.54000    0.90980    1.000
    C170     C        0.91860    0.57180    0.97150    1.000
    C171     C        0.92060    0.57530    0.02610    1.000
    H86      H        0.93780    0.59410    0.03960    1.000
    C172     C        0.89940    0.55370    0.06260    1.000
    H87      H        0.90150    0.55870    0.09890    1.000
    C173     C        0.87550    0.52510    0.04470    1.000
    C174     C        0.87350    0.52960    0.99040    1.000
    C175     C        0.85020    0.50170    0.96830    1.000
    H88      H        0.84740    0.49720    0.93200    1.000
    C176     C        0.83100    0.48050    0.00870    1.000
    H89      H        0.81370    0.46200    0.99450    1.000
    C177     C        0.83060    0.47970    0.06460    1.000
    C178     C        0.85750    0.50570    0.08730    1.000
    H90      H        0.86180    0.50870    0.12490    1.000
    C179     C        0.95060    0.59850    0.93930    1.000
    C180     C        0.80320    0.44920    0.09030    1.000
    O57      O        0.94760    0.59880    0.89110    1.000
    O58      O        0.96970    0.62080    0.96660    1.000
    O59      O        0.80680    0.44700    0.14080    1.000
    O60      O        0.77980    0.43100    0.06190    1.000
    C181     C        0.22810    0.92770    0.57020    1.000
    H91      H        0.24150    0.94370    0.59610    1.000
    C182     C        0.23560    0.93350    0.51640    1.000
    C183     C        0.21400    0.91210    0.47880    1.000
    H92      H        0.21560    0.91850    0.44290    1.000
    C184     C        0.19000    0.88120    0.49490    1.000
    H93      H        0.18240    0.86140    0.47020    1.000
    C185     C        0.18140    0.87670    0.54700    1.000
    C186     C        0.20060    0.89930    0.58660    1.000
    C187     C        0.19310    0.89060    0.63930    1.000
    H94      H        0.20610    0.90450    0.66760    1.000
    C188     C        0.16750    0.86060    0.65350    1.000
    H95      H        0.15770    0.85430    0.68840    1.000
    C189     C        0.14860    0.83890    0.61390    1.000
    C190     C        0.15580    0.84630    0.56100    1.000
    H96      H        0.14140    0.83030    0.53610    1.000
    C191     C        0.26270    0.96500    0.49650    1.000
    C192     C        0.11810    0.80550    0.62340    1.000
    O61      O        0.27040    0.99310    0.52390    1.000
    O62      O        0.27250    0.96190    0.44890    1.000
    O63      O        0.09690    0.78590    0.59510    1.000
    O64      O        0.12010    0.79760    0.67370    1.000
    Cd13     Cd       0.50214    0.85344    0.88496    1.000
    Cd14     Cd       0.43019    0.75061    0.66463    1.000
    Cd15     Cd       0.46801    0.80390    0.77117    1.000
    C193     C        0.35460    0.83720    0.78490    1.000
    H97      H        0.37310    0.82280    0.80460    1.000
    C194     C        0.35320    0.83190    0.73550    1.000
    C195     C        0.32470    0.85690    0.69910    1.000
    H98      H        0.32260    0.85310    0.66130    1.000
    C196     C        0.30170    0.88590    0.73080    1.000
    H99      H        0.28600    0.90360    0.71210    1.000
    C197     C        0.30170    0.88820    0.77930    1.000
    C198     C        0.32830    0.86530    0.81380    1.000
    C199     C        0.32880    0.87110    0.86900    1.000
    H100     H        0.35010    0.85930    0.88960    1.000
    C200     C        0.30250    0.89550    0.89180    1.000
    H101     H        0.30280    0.89850    0.92860    1.000
    C201     C        0.27470    0.91650    0.86180    1.000
    C202     C        0.27340    0.91390    0.80780    1.000
    H102     H        0.25460    0.92840    0.78870    1.000
    C203     C        0.38090    0.80640    0.69990    1.000
    C204     C        0.24110    0.94380    0.88500    1.000
    O65      O        0.37370    0.80130    0.65480    1.000
    O66      O        0.40600    0.78850    0.73290    1.000
    O67      O        0.24590    0.94330    0.93760    1.000
    O68      O        0.22220    0.96610    0.86100    1.000
    C205     C        0.34180    0.67490    0.98450    1.000
    H103     H        0.32980    0.65850    0.95990    1.000
    C206     C        0.33470    0.67080    0.03440    1.000
    C207     C        0.34850    0.70000    0.07240    1.000
    H104     H        0.34200    0.69780    0.10950    1.000
    C208     C        0.37320    0.72790    0.05220    1.000
    H105     H        0.38470    0.74540    0.07580    1.000
    C209     C        0.38200    0.73180    0.99970    1.000
    C210     C        0.36850    0.70510    0.96690    1.000
    C211     C        0.37510    0.70610    0.90880    1.000
    H106     H        0.36250    0.68850    0.88640    1.000
    C212     C        0.40240    0.73600    0.88750    1.000
    H107     H        0.41130    0.73640    0.85110    1.000
    C213     C        0.41620    0.76470    0.92670    1.000
    C214     C        0.40750    0.76180    0.97880    1.000
    H108     H        0.41830    0.77980    0.00210    1.000
    C215     C        0.30590    0.63910    0.05370    1.000
    C216     C        0.44220    0.79710    0.90400    1.000
    O69      O        0.29620    0.64380    0.10000    1.000
    O70      O        0.29530    0.61600    0.02140    1.000
    O71      O        0.44270    0.79880    0.85420    1.000
    O72      O        0.46180    0.81540    0.93570    1.000
    C217     C        0.60640    0.95450    0.94580    1.000
    H109     H        0.60920    0.96000    0.90980    1.000
    C218     C        0.58140    0.92820    0.97150    1.000
    C219     C        0.57940    0.92470    0.02610    1.000
    H110     H        0.56220    0.90590    0.03960    1.000
    C220     C        0.60060    0.94630    0.06260    1.000
    H111     H        0.59850    0.94130    0.09890    1.000
    C221     C        0.62450    0.97490    0.04470    1.000
    C222     C        0.62650    0.97040    0.99040    1.000
    C223     C        0.64980    0.99830    0.96830    1.000
    H112     H        0.65260    0.00280    0.93200    1.000
    C224     C        0.66900    0.01950    0.00870    1.000
    H113     H        0.68630    0.03800    0.99450    1.000
    C225     C        0.66940    0.02030    0.06460    1.000
    C226     C        0.64250    0.99430    0.08730    1.000
    H114     H        0.63820    0.99130    0.12490    1.000
    C227     C        0.54940    0.90150    0.93930    1.000
    C228     C        0.69680    0.05080    0.09030    1.000
    O73      O        0.55240    0.90120    0.89110    1.000
    O74      O        0.53030    0.87920    0.96660    1.000
    O75      O        0.69320    0.05300    0.14080    1.000
    O76      O        0.72020    0.06900    0.06190    1.000
    C229     C        0.27190    0.57230    0.57020    1.000
    H115     H        0.25850    0.55630    0.59610    1.000
    C230     C        0.26440    0.56650    0.51640    1.000
    C231     C        0.28600    0.58790    0.47880    1.000
    H116     H        0.28440    0.58150    0.44290    1.000
    C232     C        0.31000    0.61880    0.49490    1.000
    H117     H        0.31760    0.63860    0.47020    1.000
    C233     C        0.31860    0.62330    0.54700    1.000
    C234     C        0.29940    0.60070    0.58660    1.000
    C235     C        0.30690    0.60940    0.63930    1.000
    H118     H        0.29390    0.59550    0.66760    1.000
    C236     C        0.33250    0.63940    0.65350    1.000
    H119     H        0.34230    0.64570    0.68840    1.000
    C237     C        0.35140    0.66110    0.61390    1.000
    C238     C        0.34420    0.65370    0.56100    1.000
    H120     H        0.35860    0.66970    0.53610    1.000
    C239     C        0.23730    0.53500    0.49650    1.000
    C240     C        0.38190    0.69450    0.62340    1.000
    O77      O        0.22960    0.50690    0.52390    1.000
    O78      O        0.22750    0.53810    0.44890    1.000
    O79      O        0.40310    0.71410    0.59510    1.000
    O80      O        0.37990    0.70240    0.67370    1.000
    Cd16     Cd       0.50214    0.35344    0.38496    1.000
    Cd17     Cd       0.43019    0.25061    0.16463    1.000
    Cd18     Cd       0.46801    0.30390    0.27117    1.000
    C241     C        0.35460    0.33720    0.28490    1.000
    H121     H        0.37310    0.32280    0.30460    1.000
    C242     C        0.35320    0.33190    0.23550    1.000
    C243     C        0.32470    0.35690    0.19910    1.000
    H122     H        0.32260    0.35310    0.16130    1.000
    C244     C        0.30170    0.38590    0.23080    1.000
    H123     H        0.28600    0.40360    0.21210    1.000
    C245     C        0.30170    0.38820    0.27930    1.000
    C246     C        0.32830    0.36530    0.31380    1.000
    C247     C        0.32880    0.37110    0.36900    1.000
    H124     H        0.35010    0.35930    0.38960    1.000
    C248     C        0.30250    0.39550    0.39180    1.000
    H125     H        0.30280    0.39850    0.42860    1.000
    C249     C        0.27470    0.41650    0.36180    1.000
    C250     C        0.27340    0.41390    0.30780    1.000
    H126     H        0.25460    0.42840    0.28870    1.000
    C251     C        0.38090    0.30640    0.19990    1.000
    C252     C        0.24110    0.44380    0.38500    1.000
    O81      O        0.37370    0.30130    0.15480    1.000
    O82      O        0.40600    0.28850    0.23290    1.000
    O83      O        0.24590    0.44330    0.43760    1.000
    O84      O        0.22220    0.46610    0.36100    1.000
    C253     C        0.34180    0.17490    0.48450    1.000
    H127     H        0.32980    0.15850    0.45990    1.000
    C254     C        0.33470    0.17080    0.53440    1.000
    C255     C        0.34850    0.20000    0.57240    1.000
    H128     H        0.34200    0.19780    0.60950    1.000
    C256     C        0.37320    0.22790    0.55220    1.000
    H129     H        0.38470    0.24540    0.57580    1.000
    C257     C        0.38200    0.23180    0.49970    1.000
    C258     C        0.36850    0.20510    0.46690    1.000
    C259     C        0.37510    0.20610    0.40880    1.000
    H130     H        0.36250    0.18850    0.38640    1.000
    C260     C        0.40240    0.23600    0.38750    1.000
    H131     H        0.41130    0.23640    0.35110    1.000
    C261     C        0.41620    0.26470    0.42670    1.000
    C262     C        0.40750    0.26180    0.47880    1.000
    H132     H        0.41830    0.27980    0.50210    1.000
    C263     C        0.30590    0.13910    0.55370    1.000
    C264     C        0.44220    0.29710    0.40400    1.000
    O85      O        0.29620    0.14380    0.60000    1.000
    O86      O        0.29530    0.11600    0.52140    1.000
    O87      O        0.44270    0.29880    0.35420    1.000
    O88      O        0.46180    0.31540    0.43570    1.000
    C265     C        0.60640    0.45450    0.44580    1.000
    H133     H        0.60920    0.46000    0.40980    1.000
    C266     C        0.58140    0.42820    0.47150    1.000
    C267     C        0.57940    0.42470    0.52610    1.000
    H134     H        0.56220    0.40590    0.53960    1.000
    C268     C        0.60060    0.44630    0.56260    1.000
    H135     H        0.59850    0.44130    0.59890    1.000
    C269     C        0.62450    0.47490    0.54470    1.000
    C270     C        0.62650    0.47040    0.49040    1.000
    C271     C        0.64980    0.49830    0.46830    1.000
    H136     H        0.65260    0.50280    0.43200    1.000
    C272     C        0.66900    0.51950    0.50870    1.000
    H137     H        0.68630    0.53800    0.49450    1.000
    C273     C        0.66940    0.52030    0.56460    1.000
    C274     C        0.64250    0.49430    0.58730    1.000
    H138     H        0.63820    0.49130    0.62490    1.000
    C275     C        0.54940    0.40150    0.43930    1.000
    C276     C        0.69680    0.55080    0.59030    1.000
    O89      O        0.55240    0.40120    0.39110    1.000
    O90      O        0.53030    0.37920    0.46660    1.000
    O91      O        0.69320    0.55300    0.64080    1.000
    O92      O        0.72020    0.56900    0.56190    1.000
    C277     C        0.27190    0.07230    0.07020    1.000
    H139     H        0.25850    0.05630    0.09610    1.000
    C278     C        0.26440    0.06650    0.01640    1.000
    C279     C        0.28600    0.08790    0.97880    1.000
    H140     H        0.28440    0.08150    0.94290    1.000
    C280     C        0.31000    0.11880    0.99490    1.000
    H141     H        0.31760    0.13860    0.97020    1.000
    C281     C        0.31860    0.12330    0.04700    1.000
    C282     C        0.29940    0.10070    0.08660    1.000
    C283     C        0.30690    0.10940    0.13930    1.000
    H142     H        0.29390    0.09550    0.16760    1.000
    C284     C        0.33250    0.13940    0.15350    1.000
    H143     H        0.34230    0.14570    0.18840    1.000
    C285     C        0.35140    0.16110    0.11390    1.000
    C286     C        0.34420    0.15370    0.06100    1.000
    H144     H        0.35860    0.16970    0.03610    1.000
    C287     C        0.23730    0.03500    0.99650    1.000
    C288     C        0.38190    0.19450    0.12340    1.000
    O93      O        0.22960    0.00690    0.02390    1.000
    O94      O        0.22750    0.03810    0.94890    1.000
    O95      O        0.40310    0.21410    0.09510    1.000
    O96      O        0.37990    0.20240    0.17370    1.000
    Cd19     Cd       0.00214    0.85344    0.38496    1.000
    Cd20     Cd       0.93019    0.75061    0.16463    1.000
    Cd21     Cd       0.96801    0.80390    0.27117    1.000
    C289     C        0.85460    0.83720    0.28490    1.000
    H145     H        0.87310    0.82280    0.30460    1.000
    C290     C        0.85320    0.83190    0.23550    1.000
    C291     C        0.82470    0.85690    0.19910    1.000
    H146     H        0.82260    0.85310    0.16130    1.000
    C292     C        0.80170    0.88590    0.23080    1.000
    H147     H        0.78600    0.90360    0.21210    1.000
    C293     C        0.80170    0.88820    0.27930    1.000
    C294     C        0.82830    0.86530    0.31380    1.000
    C295     C        0.82880    0.87110    0.36900    1.000
    H148     H        0.85010    0.85930    0.38960    1.000
    C296     C        0.80250    0.89550    0.39180    1.000
    H149     H        0.80280    0.89850    0.42860    1.000
    C297     C        0.77470    0.91650    0.36180    1.000
    C298     C        0.77340    0.91390    0.30780    1.000
    H150     H        0.75460    0.92840    0.28870    1.000
    C299     C        0.88090    0.80640    0.19990    1.000
    C300     C        0.74110    0.94380    0.38500    1.000
    O97      O        0.87370    0.80130    0.15480    1.000
    O98      O        0.90600    0.78850    0.23290    1.000
    O99      O        0.74590    0.94330    0.43760    1.000
    O100     O        0.72220    0.96610    0.36100    1.000
    C301     C        0.84180    0.67490    0.48450    1.000
    H151     H        0.82980    0.65850    0.45990    1.000
    C302     C        0.83470    0.67080    0.53440    1.000
    C303     C        0.84850    0.70000    0.57240    1.000
    H152     H        0.84200    0.69780    0.60950    1.000
    C304     C        0.87320    0.72790    0.55220    1.000
    H153     H        0.88470    0.74540    0.57580    1.000
    C305     C        0.88200    0.73180    0.49970    1.000
    C306     C        0.86850    0.70510    0.46690    1.000
    C307     C        0.87510    0.70610    0.40880    1.000
    H154     H        0.86250    0.68850    0.38640    1.000
    C308     C        0.90240    0.73600    0.38750    1.000
    H155     H        0.91130    0.73640    0.35110    1.000
    C309     C        0.91620    0.76470    0.42670    1.000
    C310     C        0.90750    0.76180    0.47880    1.000
    H156     H        0.91830    0.77980    0.50210    1.000
    C311     C        0.80590    0.63910    0.55370    1.000
    C312     C        0.94220    0.79710    0.40400    1.000
    O101     O        0.79620    0.64380    0.60000    1.000
    O102     O        0.79530    0.61600    0.52140    1.000
    O103     O        0.94270    0.79880    0.35420    1.000
    O104     O        0.96180    0.81540    0.43570    1.000
    C313     C        0.10640    0.95450    0.44580    1.000
    H157     H        0.10920    0.96000    0.40980    1.000
    C314     C        0.08140    0.92820    0.47150    1.000
    C315     C        0.07940    0.92470    0.52610    1.000
    H158     H        0.06220    0.90590    0.53960    1.000
    C316     C        0.10060    0.94630    0.56260    1.000
    H159     H        0.09850    0.94130    0.59890    1.000
    C317     C        0.12450    0.97490    0.54470    1.000
    C318     C        0.12650    0.97040    0.49040    1.000
    C319     C        0.14980    0.99830    0.46830    1.000
    H160     H        0.15260    0.00280    0.43200    1.000
    C320     C        0.16900    0.01950    0.50870    1.000
    H161     H        0.18630    0.03800    0.49450    1.000
    C321     C        0.16940    0.02030    0.56460    1.000
    C322     C        0.14250    0.99430    0.58730    1.000
    H162     H        0.13820    0.99130    0.62490    1.000
    C323     C        0.04940    0.90150    0.43930    1.000
    C324     C        0.19680    0.05080    0.59030    1.000
    O105     O        0.05240    0.90120    0.39110    1.000
    O106     O        0.03030    0.87920    0.46660    1.000
    O107     O        0.19320    0.05300    0.64080    1.000
    O108     O        0.22020    0.06900    0.56190    1.000
    C325     C        0.77190    0.57230    0.07020    1.000
    H163     H        0.75850    0.55630    0.09610    1.000
    C326     C        0.76440    0.56650    0.01640    1.000
    C327     C        0.78600    0.58790    0.97880    1.000
    H164     H        0.78440    0.58150    0.94290    1.000
    C328     C        0.81000    0.61880    0.99490    1.000
    H165     H        0.81760    0.63860    0.97020    1.000
    C329     C        0.81860    0.62330    0.04700    1.000
    C330     C        0.79940    0.60070    0.08660    1.000
    C331     C        0.80690    0.60940    0.13930    1.000
    H166     H        0.79390    0.59550    0.16760    1.000
    C332     C        0.83250    0.63940    0.15350    1.000
    H167     H        0.84230    0.64570    0.18840    1.000
    C333     C        0.85140    0.66110    0.11390    1.000
    C334     C        0.84420    0.65370    0.06100    1.000
    H168     H        0.85860    0.66970    0.03610    1.000
    C335     C        0.73730    0.53500    0.99650    1.000
    C336     C        0.88190    0.69450    0.12340    1.000
    O109     O        0.72960    0.50690    0.02390    1.000
    O110     O        0.72750    0.53810    0.94890    1.000
    O111     O        0.90310    0.71410    0.09510    1.000
    O112     O        0.87990    0.70240    0.17370    1.000
    Cd22     Cd       0.00214    0.35344    0.88496    1.000
    Cd23     Cd       0.93019    0.25061    0.66463    1.000
    Cd24     Cd       0.96801    0.30390    0.77117    1.000
    C337     C        0.85460    0.33720    0.78490    1.000
    H169     H        0.87310    0.32280    0.80460    1.000
    C338     C        0.85320    0.33190    0.73550    1.000
    C339     C        0.82470    0.35690    0.69910    1.000
    H170     H        0.82260    0.35310    0.66130    1.000
    C340     C        0.80170    0.38590    0.73080    1.000
    H171     H        0.78600    0.40360    0.71210    1.000
    C341     C        0.80170    0.38820    0.77930    1.000
    C342     C        0.82830    0.36530    0.81380    1.000
    C343     C        0.82880    0.37110    0.86900    1.000
    H172     H        0.85010    0.35930    0.88960    1.000
    C344     C        0.80250    0.39550    0.89180    1.000
    H173     H        0.80280    0.39850    0.92860    1.000
    C345     C        0.77470    0.41650    0.86180    1.000
    C346     C        0.77340    0.41390    0.80780    1.000
    H174     H        0.75460    0.42840    0.78870    1.000
    C347     C        0.88090    0.30640    0.69990    1.000
    C348     C        0.74110    0.44380    0.88500    1.000
    O113     O        0.87370    0.30130    0.65480    1.000
    O114     O        0.90600    0.28850    0.73290    1.000
    O115     O        0.74590    0.44330    0.93760    1.000
    O116     O        0.72220    0.46610    0.86100    1.000
    C349     C        0.84180    0.17490    0.98450    1.000
    H175     H        0.82980    0.15850    0.95990    1.000
    C350     C        0.83470    0.17080    0.03440    1.000
    C351     C        0.84850    0.20000    0.07240    1.000
    H176     H        0.84200    0.19780    0.10950    1.000
    C352     C        0.87320    0.22790    0.05220    1.000
    H177     H        0.88470    0.24540    0.07580    1.000
    C353     C        0.88200    0.23180    0.99970    1.000
    C354     C        0.86850    0.20510    0.96690    1.000
    C355     C        0.87510    0.20610    0.90880    1.000
    H178     H        0.86250    0.18850    0.88640    1.000
    C356     C        0.90240    0.23600    0.88750    1.000
    H179     H        0.91130    0.23640    0.85110    1.000
    C357     C        0.91620    0.26470    0.92670    1.000
    C358     C        0.90750    0.26180    0.97880    1.000
    H180     H        0.91830    0.27980    0.00210    1.000
    C359     C        0.80590    0.13910    0.05370    1.000
    C360     C        0.94220    0.29710    0.90400    1.000
    O117     O        0.79620    0.14380    0.10000    1.000
    O118     O        0.79530    0.11600    0.02140    1.000
    O119     O        0.94270    0.29880    0.85420    1.000
    O120     O        0.96180    0.31540    0.93570    1.000
    C361     C        0.10640    0.45450    0.94580    1.000
    H181     H        0.10920    0.46000    0.90980    1.000
    C362     C        0.08140    0.42820    0.97150    1.000
    C363     C        0.07940    0.42470    0.02610    1.000
    H182     H        0.06220    0.40590    0.03960    1.000
    C364     C        0.10060    0.44630    0.06260    1.000
    H183     H        0.09850    0.44130    0.09890    1.000
    C365     C        0.12450    0.47490    0.04470    1.000
    C366     C        0.12650    0.47040    0.99040    1.000
    C367     C        0.14980    0.49830    0.96830    1.000
    H184     H        0.15260    0.50280    0.93200    1.000
    C368     C        0.16900    0.51950    0.00870    1.000
    H185     H        0.18630    0.53800    0.99450    1.000
    C369     C        0.16940    0.52030    0.06460    1.000
    C370     C        0.14250    0.49430    0.08730    1.000
    H186     H        0.13820    0.49130    0.12490    1.000
    C371     C        0.04940    0.40150    0.93930    1.000
    C372     C        0.19680    0.55080    0.09030    1.000
    O121     O        0.05240    0.40120    0.89110    1.000
    O122     O        0.03030    0.37920    0.96660    1.000
    O123     O        0.19320    0.55300    0.14080    1.000
    O124     O        0.22020    0.56900    0.06190    1.000
    C373     C        0.77190    0.07230    0.57020    1.000
    H187     H        0.75850    0.05630    0.59610    1.000
    C374     C        0.76440    0.06650    0.51640    1.000
    C375     C        0.78600    0.08790    0.47880    1.000
    H188     H        0.78440    0.08150    0.44290    1.000
    C376     C        0.81000    0.11880    0.49490    1.000
    H189     H        0.81760    0.13860    0.47020    1.000
    C377     C        0.81860    0.12330    0.54700    1.000
    C378     C        0.79940    0.10070    0.58660    1.000
    C379     C        0.80690    0.10940    0.63930    1.000
    H190     H        0.79390    0.09550    0.66760    1.000
    C380     C        0.83250    0.13940    0.65350    1.000
    H191     H        0.84230    0.14570    0.68840    1.000
    C381     C        0.85140    0.16110    0.61390    1.000
    C382     C        0.84420    0.15370    0.56100    1.000
    H192     H        0.85860    0.16970    0.53610    1.000
    C383     C        0.73730    0.03500    0.49650    1.000
    C384     C        0.88190    0.19450    0.62340    1.000
    O125     O        0.72960    0.00690    0.52390    1.000
    O126     O        0.72750    0.03810    0.44890    1.000
    O127     O        0.90310    0.21410    0.59510    1.000
    O128     O        0.87990    0.20240    0.67370    1.000
    Cd25     Cd       0.74786    0.10344    0.13496    1.000
    Cd26     Cd       0.81981    0.00061    0.91463    1.000
    Cd27     Cd       0.78199    0.05390    0.02117    1.000
    C385     C        0.89540    0.08720    0.03490    1.000
    H193     H        0.87690    0.07280    0.05460    1.000
    C386     C        0.89680    0.08190    0.98550    1.000
    C387     C        0.92530    0.10690    0.94910    1.000
    H194     H        0.92740    0.10310    0.91130    1.000
    C388     C        0.94830    0.13590    0.98080    1.000
    H195     H        0.96400    0.15360    0.96210    1.000
    C389     C        0.94830    0.13820    0.02930    1.000
    C390     C        0.92170    0.11530    0.06380    1.000
    C391     C        0.92120    0.12110    0.11900    1.000
    H196     H        0.89990    0.10930    0.13960    1.000
    C392     C        0.94750    0.14550    0.14180    1.000
    H197     H        0.94720    0.14850    0.17860    1.000
    C393     C        0.97530    0.16650    0.11180    1.000
    C394     C        0.97660    0.16390    0.05780    1.000
    H198     H        0.99540    0.17840    0.03870    1.000
    C395     C        0.86910    0.05640    0.94990    1.000
    C396     C        0.00890    0.19380    0.13500    1.000
    O129     O        0.87630    0.05130    0.90480    1.000
    O130     O        0.84400    0.03850    0.98290    1.000
    O131     O        0.00410    0.19330    0.18760    1.000
    O132     O        0.02780    0.21610    0.11100    1.000
    C397     C        0.90820    0.92490    0.23450    1.000
    H199     H        0.92020    0.90850    0.20990    1.000
    C398     C        0.91530    0.92080    0.28440    1.000
    C399     C        0.90150    0.95000    0.32240    1.000
    H200     H        0.90800    0.94780    0.35950    1.000
    C400     C        0.87680    0.97790    0.30220    1.000
    H201     H        0.86530    0.99540    0.32580    1.000
    C401     C        0.86800    0.98180    0.24970    1.000
    C402     C        0.88150    0.95510    0.21690    1.000
    C403     C        0.87490    0.95610    0.15880    1.000
    H202     H        0.88750    0.93850    0.13640    1.000
    C404     C        0.84760    0.98600    0.13750    1.000
    H203     H        0.83870    0.98640    0.10110    1.000
    C405     C        0.83380    0.01470    0.17670    1.000
    C406     C        0.84250    0.01180    0.22880    1.000
    H204     H        0.83170    0.02980    0.25210    1.000
    C407     C        0.94410    0.88910    0.30370    1.000
    C408     C        0.80780    0.04710    0.15400    1.000
    O133     O        0.95380    0.89380    0.35000    1.000
    O134     O        0.95470    0.86600    0.27140    1.000
    O135     O        0.80730    0.04880    0.10420    1.000
    O136     O        0.78820    0.06540    0.18570    1.000
    C409     C        0.64360    0.20450    0.19580    1.000
    H205     H        0.64080    0.21000    0.15980    1.000
    C410     C        0.66860    0.17820    0.22150    1.000
    C411     C        0.67060    0.17470    0.27610    1.000
    H206     H        0.68780    0.15590    0.28960    1.000
    C412     C        0.64940    0.19630    0.31260    1.000
    H207     H        0.65150    0.19130    0.34890    1.000
    C413     C        0.62550    0.22490    0.29470    1.000
    C414     C        0.62350    0.22040    0.24040    1.000
    C415     C        0.60020    0.24830    0.21830    1.000
    H208     H        0.59740    0.25280    0.18200    1.000
    C416     C        0.58100    0.26950    0.25870    1.000
    H209     H        0.56370    0.28800    0.24450    1.000
    C417     C        0.58060    0.27030    0.31460    1.000
    C418     C        0.60750    0.24430    0.33730    1.000
    H210     H        0.61180    0.24130    0.37490    1.000
    C419     C        0.70060    0.15150    0.18930    1.000
    C420     C        0.55320    0.30080    0.34030    1.000
    O137     O        0.69760    0.15120    0.14110    1.000
    O138     O        0.71970    0.12920    0.21660    1.000
    O139     O        0.55680    0.30300    0.39080    1.000
    O140     O        0.52980    0.31900    0.31190    1.000
    C421     C        0.97810    0.82230    0.82020    1.000
    H211     H        0.99150    0.80630    0.84610    1.000
    C422     C        0.98560    0.81650    0.76640    1.000
    C423     C        0.96400    0.83790    0.72880    1.000
    H212     H        0.96560    0.83150    0.69290    1.000
    C424     C        0.94000    0.86880    0.74490    1.000
    H213     H        0.93240    0.88860    0.72020    1.000
    C425     C        0.93140    0.87330    0.79700    1.000
    C426     C        0.95060    0.85070    0.83660    1.000
    C427     C        0.94310    0.85940    0.88930    1.000
    H214     H        0.95610    0.84550    0.91760    1.000
    C428     C        0.91750    0.88940    0.90350    1.000
    H215     H        0.90770    0.89570    0.93840    1.000
    C429     C        0.89860    0.91110    0.86390    1.000
    C430     C        0.90580    0.90370    0.81100    1.000
    H216     H        0.89140    0.91970    0.78610    1.000
    C431     C        0.01270    0.78500    0.74650    1.000
    C432     C        0.86810    0.94450    0.87340    1.000
    O141     O        0.02040    0.75690    0.77390    1.000
    O142     O        0.02250    0.78810    0.69890    1.000
    O143     O        0.84690    0.96410    0.84510    1.000
    O144     O        0.87010    0.95240    0.92370    1.000
    Cd28     Cd       0.74786    0.60344    0.63496    1.000
    Cd29     Cd       0.81981    0.50061    0.41463    1.000
    Cd30     Cd       0.78199    0.55390    0.52117    1.000
    C433     C        0.89540    0.58720    0.53490    1.000
    H217     H        0.87690    0.57280    0.55460    1.000
    C434     C        0.89680    0.58190    0.48550    1.000
    C435     C        0.92530    0.60690    0.44910    1.000
    H218     H        0.92740    0.60310    0.41130    1.000
    C436     C        0.94830    0.63590    0.48080    1.000
    H219     H        0.96400    0.65360    0.46210    1.000
    C437     C        0.94830    0.63820    0.52930    1.000
    C438     C        0.92170    0.61530    0.56380    1.000
    C439     C        0.92120    0.62110    0.61900    1.000
    H220     H        0.89990    0.60930    0.63960    1.000
    C440     C        0.94750    0.64550    0.64180    1.000
    H221     H        0.94720    0.64850    0.67860    1.000
    C441     C        0.97530    0.66650    0.61180    1.000
    C442     C        0.97660    0.66390    0.55780    1.000
    H222     H        0.99540    0.67840    0.53870    1.000
    C443     C        0.86910    0.55640    0.44990    1.000
    C444     C        0.00890    0.69380    0.63500    1.000
    O145     O        0.87630    0.55130    0.40480    1.000
    O146     O        0.84400    0.53850    0.48290    1.000
    O147     O        0.00410    0.69330    0.68760    1.000
    O148     O        0.02780    0.71610    0.61100    1.000
    C445     C        0.90820    0.42490    0.73450    1.000
    H223     H        0.92020    0.40850    0.70990    1.000
    C446     C        0.91530    0.42080    0.78440    1.000
    C447     C        0.90150    0.45000    0.82240    1.000
    H224     H        0.90800    0.44780    0.85950    1.000
    C448     C        0.87680    0.47790    0.80220    1.000
    H225     H        0.86530    0.49540    0.82580    1.000
    C449     C        0.86800    0.48180    0.74970    1.000
    C450     C        0.88150    0.45510    0.71690    1.000
    C451     C        0.87490    0.45610    0.65880    1.000
    H226     H        0.88750    0.43850    0.63640    1.000
    C452     C        0.84760    0.48600    0.63750    1.000
    H227     H        0.83870    0.48640    0.60110    1.000
    C453     C        0.83380    0.51470    0.67670    1.000
    C454     C        0.84250    0.51180    0.72880    1.000
    H228     H        0.83170    0.52980    0.75210    1.000
    C455     C        0.94410    0.38910    0.80370    1.000
    C456     C        0.80780    0.54710    0.65400    1.000
    O149     O        0.95380    0.39380    0.85000    1.000
    O150     O        0.95470    0.36600    0.77140    1.000
    O151     O        0.80730    0.54880    0.60420    1.000
    O152     O        0.78820    0.56540    0.68570    1.000
    C457     C        0.64360    0.70450    0.69580    1.000
    H229     H        0.64080    0.71000    0.65980    1.000
    C458     C        0.66860    0.67820    0.72150    1.000
    C459     C        0.67060    0.67470    0.77610    1.000
    H230     H        0.68780    0.65590    0.78960    1.000
    C460     C        0.64940    0.69630    0.81260    1.000
    H231     H        0.65150    0.69130    0.84890    1.000
    C461     C        0.62550    0.72490    0.79470    1.000
    C462     C        0.62350    0.72040    0.74040    1.000
    C463     C        0.60020    0.74830    0.71830    1.000
    H232     H        0.59740    0.75280    0.68200    1.000
    C464     C        0.58100    0.76950    0.75870    1.000
    H233     H        0.56370    0.78800    0.74450    1.000
    C465     C        0.58060    0.77030    0.81460    1.000
    C466     C        0.60750    0.74430    0.83730    1.000
    H234     H        0.61180    0.74130    0.87490    1.000
    C467     C        0.70060    0.65150    0.68930    1.000
    C468     C        0.55320    0.80080    0.84030    1.000
    O153     O        0.69760    0.65120    0.64110    1.000
    O154     O        0.71970    0.62920    0.71660    1.000
    O155     O        0.55680    0.80300    0.89080    1.000
    O156     O        0.52980    0.81900    0.81190    1.000
    C469     C        0.97810    0.32230    0.32020    1.000
    H235     H        0.99150    0.30630    0.34610    1.000
    C470     C        0.98560    0.31650    0.26640    1.000
    C471     C        0.96400    0.33790    0.22880    1.000
    H236     H        0.96560    0.33150    0.19290    1.000
    C472     C        0.94000    0.36880    0.24490    1.000
    H237     H        0.93240    0.38860    0.22020    1.000
    C473     C        0.93140    0.37330    0.29700    1.000
    C474     C        0.95060    0.35070    0.33660    1.000
    C475     C        0.94310    0.35940    0.38930    1.000
    H238     H        0.95610    0.34550    0.41760    1.000
    C476     C        0.91750    0.38940    0.40350    1.000
    H239     H        0.90770    0.39570    0.43840    1.000
    C477     C        0.89860    0.41110    0.36390    1.000
    C478     C        0.90580    0.40370    0.31100    1.000
    H240     H        0.89140    0.41970    0.28610    1.000
    C479     C        0.01270    0.28500    0.24650    1.000
    C480     C        0.86810    0.44450    0.37340    1.000
    O157     O        0.02040    0.25690    0.27390    1.000
    O158     O        0.02250    0.28810    0.19890    1.000
    O159     O        0.84690    0.46410    0.34510    1.000
    O160     O        0.87010    0.45240    0.42370    1.000
    Cd31     Cd       0.24786    0.10344    0.63496    1.000
    Cd32     Cd       0.31981    0.00061    0.41463    1.000
    Cd33     Cd       0.28199    0.05390    0.52117    1.000
    C481     C        0.39540    0.08720    0.53490    1.000
    H241     H        0.37690    0.07280    0.55460    1.000
    C482     C        0.39680    0.08190    0.48550    1.000
    C483     C        0.42530    0.10690    0.44910    1.000
    H242     H        0.42740    0.10310    0.41130    1.000
    C484     C        0.44830    0.13590    0.48080    1.000
    H243     H        0.46400    0.15360    0.46210    1.000
    C485     C        0.44830    0.13820    0.52930    1.000
    C486     C        0.42170    0.11530    0.56380    1.000
    C487     C        0.42120    0.12110    0.61900    1.000
    H244     H        0.39990    0.10930    0.63960    1.000
    C488     C        0.44750    0.14550    0.64180    1.000
    H245     H        0.44720    0.14850    0.67860    1.000
    C489     C        0.47530    0.16650    0.61180    1.000
    C490     C        0.47660    0.16390    0.55780    1.000
    H246     H        0.49540    0.17840    0.53870    1.000
    C491     C        0.36910    0.05640    0.44990    1.000
    C492     C        0.50890    0.19380    0.63500    1.000
    O161     O        0.37630    0.05130    0.40480    1.000
    O162     O        0.34400    0.03850    0.48290    1.000
    O163     O        0.50410    0.19330    0.68760    1.000
    O164     O        0.52780    0.21610    0.61100    1.000
    C493     C        0.40820    0.92490    0.73450    1.000
    H247     H        0.42020    0.90850    0.70990    1.000
    C494     C        0.41530    0.92080    0.78440    1.000
    C495     C        0.40150    0.95000    0.82240    1.000
    H248     H        0.40800    0.94780    0.85950    1.000
    C496     C        0.37680    0.97790    0.80220    1.000
    H249     H        0.36530    0.99540    0.82580    1.000
    C497     C        0.36800    0.98180    0.74970    1.000
    C498     C        0.38150    0.95510    0.71690    1.000
    C499     C        0.37490    0.95610    0.65880    1.000
    H250     H        0.38750    0.93850    0.63640    1.000
    C500     C        0.34760    0.98600    0.63750    1.000
    H251     H        0.33870    0.98640    0.60110    1.000
    C501     C        0.33380    0.01470    0.67670    1.000
    C502     C        0.34250    0.01180    0.72880    1.000
    H252     H        0.33170    0.02980    0.75210    1.000
    C503     C        0.44410    0.88910    0.80370    1.000
    C504     C        0.30780    0.04710    0.65400    1.000
    O165     O        0.45380    0.89380    0.85000    1.000
    O166     O        0.45470    0.86600    0.77140    1.000
    O167     O        0.30730    0.04880    0.60420    1.000
    O168     O        0.28820    0.06540    0.68570    1.000
    C505     C        0.14360    0.20450    0.69580    1.000
    H253     H        0.14080    0.21000    0.65980    1.000
    C506     C        0.16860    0.17820    0.72150    1.000
    C507     C        0.17060    0.17470    0.77610    1.000
    H254     H        0.18780    0.15590    0.78960    1.000
    C508     C        0.14940    0.19630    0.81260    1.000
    H255     H        0.15150    0.19130    0.84890    1.000
    C509     C        0.12550    0.22490    0.79470    1.000
    C510     C        0.12350    0.22040    0.74040    1.000
    C511     C        0.10020    0.24830    0.71830    1.000
    H256     H        0.09740    0.25280    0.68200    1.000
    C512     C        0.08100    0.26950    0.75870    1.000
    H257     H        0.06370    0.28800    0.74450    1.000
    C513     C        0.08060    0.27030    0.81460    1.000
    C514     C        0.10750    0.24430    0.83730    1.000
    H258     H        0.11180    0.24130    0.87490    1.000
    C515     C        0.20060    0.15150    0.68930    1.000
    C516     C        0.05320    0.30080    0.84030    1.000
    O169     O        0.19760    0.15120    0.64110    1.000
    O170     O        0.21970    0.12920    0.71660    1.000
    O171     O        0.05680    0.30300    0.89080    1.000
    O172     O        0.02980    0.31900    0.81190    1.000
    C517     C        0.47810    0.82230    0.32020    1.000
    H259     H        0.49150    0.80630    0.34610    1.000
    C518     C        0.48560    0.81650    0.26640    1.000
    C519     C        0.46400    0.83790    0.22880    1.000
    H260     H        0.46560    0.83150    0.19290    1.000
    C520     C        0.44000    0.86880    0.24490    1.000
    H261     H        0.43240    0.88860    0.22020    1.000
    C521     C        0.43140    0.87330    0.29700    1.000
    C522     C        0.45060    0.85070    0.33660    1.000
    C523     C        0.44310    0.85940    0.38930    1.000
    H262     H        0.45610    0.84550    0.41760    1.000
    C524     C        0.41750    0.88940    0.40350    1.000
    H263     H        0.40770    0.89570    0.43840    1.000
    C525     C        0.39860    0.91110    0.36390    1.000
    C526     C        0.40580    0.90370    0.31100    1.000
    H264     H        0.39140    0.91970    0.28610    1.000
    C527     C        0.51270    0.78500    0.24650    1.000
    C528     C        0.36810    0.94450    0.37340    1.000
    O173     O        0.52040    0.75690    0.27390    1.000
    O174     O        0.52250    0.78810    0.19890    1.000
    O175     O        0.34690    0.96410    0.34510    1.000
    O176     O        0.37010    0.95240    0.42370    1.000
    Cd34     Cd       0.24786    0.60344    0.13496    1.000
    Cd35     Cd       0.31981    0.50061    0.91463    1.000
    Cd36     Cd       0.28199    0.55390    0.02117    1.000
    C529     C        0.39540    0.58720    0.03490    1.000
    H265     H        0.37690    0.57280    0.05460    1.000
    C530     C        0.39680    0.58190    0.98550    1.000
    C531     C        0.42530    0.60690    0.94910    1.000
    H266     H        0.42740    0.60310    0.91130    1.000
    C532     C        0.44830    0.63590    0.98080    1.000
    H267     H        0.46400    0.65360    0.96210    1.000
    C533     C        0.44830    0.63820    0.02930    1.000
    C534     C        0.42170    0.61530    0.06380    1.000
    C535     C        0.42120    0.62110    0.11900    1.000
    H268     H        0.39990    0.60930    0.13960    1.000
    C536     C        0.44750    0.64550    0.14180    1.000
    H269     H        0.44720    0.64850    0.17860    1.000
    C537     C        0.47530    0.66650    0.11180    1.000
    C538     C        0.47660    0.66390    0.05780    1.000
    H270     H        0.49540    0.67840    0.03870    1.000
    C539     C        0.36910    0.55640    0.94990    1.000
    C540     C        0.50890    0.69380    0.13500    1.000
    O177     O        0.37630    0.55130    0.90480    1.000
    O178     O        0.34400    0.53850    0.98290    1.000
    O179     O        0.50410    0.69330    0.18760    1.000
    O180     O        0.52780    0.71610    0.11100    1.000
    C541     C        0.40820    0.42490    0.23450    1.000
    H271     H        0.42020    0.40850    0.20990    1.000
    C542     C        0.41530    0.42080    0.28440    1.000
    C543     C        0.40150    0.45000    0.32240    1.000
    H272     H        0.40800    0.44780    0.35950    1.000
    C544     C        0.37680    0.47790    0.30220    1.000
    H273     H        0.36530    0.49540    0.32580    1.000
    C545     C        0.36800    0.48180    0.24970    1.000
    C546     C        0.38150    0.45510    0.21690    1.000
    C547     C        0.37490    0.45610    0.15880    1.000
    H274     H        0.38750    0.43850    0.13640    1.000
    C548     C        0.34760    0.48600    0.13750    1.000
    H275     H        0.33870    0.48640    0.10110    1.000
    C549     C        0.33380    0.51470    0.17670    1.000
    C550     C        0.34250    0.51180    0.22880    1.000
    H276     H        0.33170    0.52980    0.25210    1.000
    C551     C        0.44410    0.38910    0.30370    1.000
    C552     C        0.30780    0.54710    0.15400    1.000
    O181     O        0.45380    0.39380    0.35000    1.000
    O182     O        0.45470    0.36600    0.27140    1.000
    O183     O        0.30730    0.54880    0.10420    1.000
    O184     O        0.28820    0.56540    0.18570    1.000
    C553     C        0.14360    0.70450    0.19580    1.000
    H277     H        0.14080    0.71000    0.15980    1.000
    C554     C        0.16860    0.67820    0.22150    1.000
    C555     C        0.17060    0.67470    0.27610    1.000
    H278     H        0.18780    0.65590    0.28960    1.000
    C556     C        0.14940    0.69630    0.31260    1.000
    H279     H        0.15150    0.69130    0.34890    1.000
    C557     C        0.12550    0.72490    0.29470    1.000
    C558     C        0.12350    0.72040    0.24040    1.000
    C559     C        0.10020    0.74830    0.21830    1.000
    H280     H        0.09740    0.75280    0.18200    1.000
    C560     C        0.08100    0.76950    0.25870    1.000
    H281     H        0.06370    0.78800    0.24450    1.000
    C561     C        0.08060    0.77030    0.31460    1.000
    C562     C        0.10750    0.74430    0.33730    1.000
    H282     H        0.11180    0.74130    0.37490    1.000
    C563     C        0.20060    0.65150    0.18930    1.000
    C564     C        0.05320    0.80080    0.34030    1.000
    O185     O        0.19760    0.65120    0.14110    1.000
    O186     O        0.21970    0.62920    0.21660    1.000
    O187     O        0.05680    0.80300    0.39080    1.000
    O188     O        0.02980    0.81900    0.31190    1.000
    C565     C        0.47810    0.32230    0.82020    1.000
    H283     H        0.49150    0.30630    0.84610    1.000
    C566     C        0.48560    0.31650    0.76640    1.000
    C567     C        0.46400    0.33790    0.72880    1.000
    H284     H        0.46560    0.33150    0.69290    1.000
    C568     C        0.44000    0.36880    0.74490    1.000
    H285     H        0.43240    0.38860    0.72020    1.000
    C569     C        0.43140    0.37330    0.79700    1.000
    C570     C        0.45060    0.35070    0.83660    1.000
    C571     C        0.44310    0.35940    0.88930    1.000
    H286     H        0.45610    0.34550    0.91760    1.000
    C572     C        0.41750    0.38940    0.90350    1.000
    H287     H        0.40770    0.39570    0.93840    1.000
    C573     C        0.39860    0.41110    0.86390    1.000
    C574     C        0.40580    0.40370    0.81100    1.000
    H288     H        0.39140    0.41970    0.78610    1.000
    C575     C        0.51270    0.28500    0.74650    1.000
    C576     C        0.36810    0.44450    0.87340    1.000
    O189     O        0.52040    0.25690    0.77390    1.000
    O190     O        0.52250    0.28810    0.69890    1.000
    O191     O        0.34690    0.46410    0.84510    1.000
    O192     O        0.37010    0.45240    0.92370    1.000
    Cd37     Cd       0.75214    0.39656    0.13496    1.000
    Cd38     Cd       0.68019    0.49939    0.91463    1.000
    Cd39     Cd       0.71801    0.44610    0.02117    1.000
    C577     C        0.60460    0.41280    0.03490    1.000
    H289     H        0.62310    0.42720    0.05460    1.000
    C578     C        0.60320    0.41810    0.98550    1.000
    C579     C        0.57470    0.39310    0.94910    1.000
    H290     H        0.57260    0.39690    0.91130    1.000
    C580     C        0.55170    0.36410    0.98080    1.000
    H291     H        0.53600    0.34640    0.96210    1.000
    C581     C        0.55170    0.36180    0.02930    1.000
    C582     C        0.57830    0.38470    0.06380    1.000
    C583     C        0.57880    0.37890    0.11900    1.000
    H292     H        0.60010    0.39070    0.13960    1.000
    C584     C        0.55250    0.35450    0.14180    1.000
    H293     H        0.55280    0.35150    0.17860    1.000
    C585     C        0.52470    0.33350    0.11180    1.000
    C586     C        0.52340    0.33610    0.05780    1.000
    H294     H        0.50460    0.32160    0.03870    1.000
    C587     C        0.63090    0.44360    0.94990    1.000
    C588     C        0.49110    0.30620    0.13500    1.000
    O193     O        0.62370    0.44870    0.90480    1.000
    O194     O        0.65600    0.46150    0.98290    1.000
    O195     O        0.49590    0.30670    0.18760    1.000
    O196     O        0.47220    0.28390    0.11100    1.000
    C589     C        0.59180    0.57510    0.23450    1.000
    H295     H        0.57980    0.59150    0.20990    1.000
    C590     C        0.58470    0.57920    0.28440    1.000
    C591     C        0.59850    0.55000    0.32240    1.000
    H296     H        0.59200    0.55220    0.35950    1.000
    C592     C        0.62320    0.52210    0.30220    1.000
    H297     H        0.63470    0.50460    0.32580    1.000
    C593     C        0.63200    0.51820    0.24970    1.000
    C594     C        0.61850    0.54490    0.21690    1.000
    C595     C        0.62510    0.54390    0.15880    1.000
    H298     H        0.61250    0.56150    0.13640    1.000
    C596     C        0.65240    0.51400    0.13750    1.000
    H299     H        0.66130    0.51360    0.10110    1.000
    C597     C        0.66620    0.48530    0.17670    1.000
    C598     C        0.65750    0.48820    0.22880    1.000
    H300     H        0.66830    0.47020    0.25210    1.000
    C599     C        0.55590    0.61090    0.30370    1.000
    C600     C        0.69220    0.45290    0.15400    1.000
    O197     O        0.54620    0.60620    0.35000    1.000
    O198     O        0.54530    0.63400    0.27140    1.000
    O199     O        0.69270    0.45120    0.10420    1.000
    O200     O        0.71180    0.43460    0.18570    1.000
    C601     C        0.85640    0.29550    0.19580    1.000
    H301     H        0.85920    0.29000    0.15980    1.000
    C602     C        0.83140    0.32180    0.22150    1.000
    C603     C        0.82940    0.32530    0.27610    1.000
    H302     H        0.81220    0.34410    0.28960    1.000
    C604     C        0.85060    0.30370    0.31260    1.000
    H303     H        0.84850    0.30870    0.34890    1.000
    C605     C        0.87450    0.27510    0.29470    1.000
    C606     C        0.87650    0.27960    0.24040    1.000
    C607     C        0.89980    0.25170    0.21830    1.000
    H304     H        0.90260    0.24720    0.18200    1.000
    C608     C        0.91900    0.23050    0.25870    1.000
    H305     H        0.93630    0.21200    0.24450    1.000
    C609     C        0.91940    0.22970    0.31460    1.000
    C610     C        0.89250    0.25570    0.33730    1.000
    H306     H        0.88820    0.25870    0.37490    1.000
    C611     C        0.79940    0.34850    0.18930    1.000
    C612     C        0.94680    0.19920    0.34030    1.000
    O201     O        0.80240    0.34880    0.14110    1.000
    O202     O        0.78030    0.37080    0.21660    1.000
    O203     O        0.94320    0.19700    0.39080    1.000
    O204     O        0.97020    0.18100    0.31190    1.000
    C613     C        0.52190    0.67770    0.82020    1.000
    H307     H        0.50850    0.69370    0.84610    1.000
    C614     C        0.51440    0.68350    0.76640    1.000
    C615     C        0.53600    0.66210    0.72880    1.000
    H308     H        0.53440    0.66850    0.69290    1.000
    C616     C        0.56000    0.63120    0.74490    1.000
    H309     H        0.56760    0.61140    0.72020    1.000
    C617     C        0.56860    0.62670    0.79700    1.000
    C618     C        0.54940    0.64930    0.83660    1.000
    C619     C        0.55690    0.64060    0.88930    1.000
    H310     H        0.54390    0.65450    0.91760    1.000
    C620     C        0.58250    0.61060    0.90350    1.000
    H311     H        0.59230    0.60430    0.93840    1.000
    C621     C        0.60140    0.58890    0.86390    1.000
    C622     C        0.59420    0.59630    0.81100    1.000
    H312     H        0.60860    0.58030    0.78610    1.000
    C623     C        0.48730    0.71500    0.74650    1.000
    C624     C        0.63190    0.55550    0.87340    1.000
    O205     O        0.47960    0.74310    0.77390    1.000
    O206     O        0.47750    0.71190    0.69890    1.000
    O207     O        0.65310    0.53590    0.84510    1.000
    O208     O        0.62990    0.54760    0.92370    1.000
    Cd40     Cd       0.75214    0.89656    0.63496    1.000
    Cd41     Cd       0.68019    0.99939    0.41463    1.000
    Cd42     Cd       0.71801    0.94610    0.52117    1.000
    C625     C        0.60460    0.91280    0.53490    1.000
    H313     H        0.62310    0.92720    0.55460    1.000
    C626     C        0.60320    0.91810    0.48550    1.000
    C627     C        0.57470    0.89310    0.44910    1.000
    H314     H        0.57260    0.89690    0.41130    1.000
    C628     C        0.55170    0.86410    0.48080    1.000
    H315     H        0.53600    0.84640    0.46210    1.000
    C629     C        0.55170    0.86180    0.52930    1.000
    C630     C        0.57830    0.88470    0.56380    1.000
    C631     C        0.57880    0.87890    0.61900    1.000
    H316     H        0.60010    0.89070    0.63960    1.000
    C632     C        0.55250    0.85450    0.64180    1.000
    H317     H        0.55280    0.85150    0.67860    1.000
    C633     C        0.52470    0.83350    0.61180    1.000
    C634     C        0.52340    0.83610    0.55780    1.000
    H318     H        0.50460    0.82160    0.53870    1.000
    C635     C        0.63090    0.94360    0.44990    1.000
    C636     C        0.49110    0.80620    0.63500    1.000
    O209     O        0.62370    0.94870    0.40480    1.000
    O210     O        0.65600    0.96150    0.48290    1.000
    O211     O        0.49590    0.80670    0.68760    1.000
    O212     O        0.47220    0.78390    0.61100    1.000
    C637     C        0.59180    0.07510    0.73450    1.000
    H319     H        0.57980    0.09150    0.70990    1.000
    C638     C        0.58470    0.07920    0.78440    1.000
    C639     C        0.59850    0.05000    0.82240    1.000
    H320     H        0.59200    0.05220    0.85950    1.000
    C640     C        0.62320    0.02210    0.80220    1.000
    H321     H        0.63470    0.00460    0.82580    1.000
    C641     C        0.63200    0.01820    0.74970    1.000
    C642     C        0.61850    0.04490    0.71690    1.000
    C643     C        0.62510    0.04390    0.65880    1.000
    H322     H        0.61250    0.06150    0.63640    1.000
    C644     C        0.65240    0.01400    0.63750    1.000
    H323     H        0.66130    0.01360    0.60110    1.000
    C645     C        0.66620    0.98530    0.67670    1.000
    C646     C        0.65750    0.98820    0.72880    1.000
    H324     H        0.66830    0.97020    0.75210    1.000
    C647     C        0.55590    0.11090    0.80370    1.000
    C648     C        0.69220    0.95290    0.65400    1.000
    O213     O        0.54620    0.10620    0.85000    1.000
    O214     O        0.54530    0.13400    0.77140    1.000
    O215     O        0.69270    0.95120    0.60420    1.000
    O216     O        0.71180    0.93460    0.68570    1.000
    C649     C        0.85640    0.79550    0.69580    1.000
    H325     H        0.85920    0.79000    0.65980    1.000
    C650     C        0.83140    0.82180    0.72150    1.000
    C651     C        0.82940    0.82530    0.77610    1.000
    H326     H        0.81220    0.84410    0.78960    1.000
    C652     C        0.85060    0.80370    0.81260    1.000
    H327     H        0.84850    0.80870    0.84890    1.000
    C653     C        0.87450    0.77510    0.79470    1.000
    C654     C        0.87650    0.77960    0.74040    1.000
    C655     C        0.89980    0.75170    0.71830    1.000
    H328     H        0.90260    0.74720    0.68200    1.000
    C656     C        0.91900    0.73050    0.75870    1.000
    H329     H        0.93630    0.71200    0.74450    1.000
    C657     C        0.91940    0.72970    0.81460    1.000
    C658     C        0.89250    0.75570    0.83730    1.000
    H330     H        0.88820    0.75870    0.87490    1.000
    C659     C        0.79940    0.84850    0.68930    1.000
    C660     C        0.94680    0.69920    0.84030    1.000
    O217     O        0.80240    0.84880    0.64110    1.000
    O218     O        0.78030    0.87080    0.71660    1.000
    O219     O        0.94320    0.69700    0.89080    1.000
    O220     O        0.97020    0.68100    0.81190    1.000
    C661     C        0.52190    0.17770    0.32020    1.000
    H331     H        0.50850    0.19370    0.34610    1.000
    C662     C        0.51440    0.18350    0.26640    1.000
    C663     C        0.53600    0.16210    0.22880    1.000
    H332     H        0.53440    0.16850    0.19290    1.000
    C664     C        0.56000    0.13120    0.24490    1.000
    H333     H        0.56760    0.11140    0.22020    1.000
    C665     C        0.56860    0.12670    0.29700    1.000
    C666     C        0.54940    0.14930    0.33660    1.000
    C667     C        0.55690    0.14060    0.38930    1.000
    H334     H        0.54390    0.15450    0.41760    1.000
    C668     C        0.58250    0.11060    0.40350    1.000
    H335     H        0.59230    0.10430    0.43840    1.000
    C669     C        0.60140    0.08890    0.36390    1.000
    C670     C        0.59420    0.09630    0.31100    1.000
    H336     H        0.60860    0.08030    0.28610    1.000
    C671     C        0.48730    0.21500    0.24650    1.000
    C672     C        0.63190    0.05550    0.37340    1.000
    O221     O        0.47960    0.24310    0.27390    1.000
    O222     O        0.47750    0.21190    0.19890    1.000
    O223     O        0.65310    0.03590    0.34510    1.000
    O224     O        0.62990    0.04760    0.42370    1.000
    Cd43     Cd       0.25214    0.39656    0.63496    1.000
    Cd44     Cd       0.18019    0.49939    0.41463    1.000
    Cd45     Cd       0.21801    0.44610    0.52117    1.000
    C673     C        0.10460    0.41280    0.53490    1.000
    H337     H        0.12310    0.42720    0.55460    1.000
    C674     C        0.10320    0.41810    0.48550    1.000
    C675     C        0.07470    0.39310    0.44910    1.000
    H338     H        0.07260    0.39690    0.41130    1.000
    C676     C        0.05170    0.36410    0.48080    1.000
    H339     H        0.03600    0.34640    0.46210    1.000
    C677     C        0.05170    0.36180    0.52930    1.000
    C678     C        0.07830    0.38470    0.56380    1.000
    C679     C        0.07880    0.37890    0.61900    1.000
    H340     H        0.10010    0.39070    0.63960    1.000
    C680     C        0.05250    0.35450    0.64180    1.000
    H341     H        0.05280    0.35150    0.67860    1.000
    C681     C        0.02470    0.33350    0.61180    1.000
    C682     C        0.02340    0.33610    0.55780    1.000
    H342     H        0.00460    0.32160    0.53870    1.000
    C683     C        0.13090    0.44360    0.44990    1.000
    C684     C        0.99110    0.30620    0.63500    1.000
    O225     O        0.12370    0.44870    0.40480    1.000
    O226     O        0.15600    0.46150    0.48290    1.000
    O227     O        0.99590    0.30670    0.68760    1.000
    O228     O        0.97220    0.28390    0.61100    1.000
    C685     C        0.09180    0.57510    0.73450    1.000
    H343     H        0.07980    0.59150    0.70990    1.000
    C686     C        0.08470    0.57920    0.78440    1.000
    C687     C        0.09850    0.55000    0.82240    1.000
    H344     H        0.09200    0.55220    0.85950    1.000
    C688     C        0.12320    0.52210    0.80220    1.000
    H345     H        0.13470    0.50460    0.82580    1.000
    C689     C        0.13200    0.51820    0.74970    1.000
    C690     C        0.11850    0.54490    0.71690    1.000
    C691     C        0.12510    0.54390    0.65880    1.000
    H346     H        0.11250    0.56150    0.63640    1.000
    C692     C        0.15240    0.51400    0.63750    1.000
    H347     H        0.16130    0.51360    0.60110    1.000
    C693     C        0.16620    0.48530    0.67670    1.000
    C694     C        0.15750    0.48820    0.72880    1.000
    H348     H        0.16830    0.47020    0.75210    1.000
    C695     C        0.05590    0.61090    0.80370    1.000
    C696     C        0.19220    0.45290    0.65400    1.000
    O229     O        0.04620    0.60620    0.85000    1.000
    O230     O        0.04530    0.63400    0.77140    1.000
    O231     O        0.19270    0.45120    0.60420    1.000
    O232     O        0.21180    0.43460    0.68570    1.000
    C697     C        0.35640    0.29550    0.69580    1.000
    H349     H        0.35920    0.29000    0.65980    1.000
    C698     C        0.33140    0.32180    0.72150    1.000
    C699     C        0.32940    0.32530    0.77610    1.000
    H350     H        0.31220    0.34410    0.78960    1.000
    C700     C        0.35060    0.30370    0.81260    1.000
    H351     H        0.34850    0.30870    0.84890    1.000
    C701     C        0.37450    0.27510    0.79470    1.000
    C702     C        0.37650    0.27960    0.74040    1.000
    C703     C        0.39980    0.25170    0.71830    1.000
    H352     H        0.40260    0.24720    0.68200    1.000
    C704     C        0.41900    0.23050    0.75870    1.000
    H353     H        0.43630    0.21200    0.74450    1.000
    C705     C        0.41940    0.22970    0.81460    1.000
    C706     C        0.39250    0.25570    0.83730    1.000
    H354     H        0.38820    0.25870    0.87490    1.000
    C707     C        0.29940    0.34850    0.68930    1.000
    C708     C        0.44680    0.19920    0.84030    1.000
    O233     O        0.30240    0.34880    0.64110    1.000
    O234     O        0.28030    0.37080    0.71660    1.000
    O235     O        0.44320    0.19700    0.89080    1.000
    O236     O        0.47020    0.18100    0.81190    1.000
    C709     C        0.02190    0.67770    0.32020    1.000
    H355     H        0.00850    0.69370    0.34610    1.000
    C710     C        0.01440    0.68350    0.26640    1.000
    C711     C        0.03600    0.66210    0.22880    1.000
    H356     H        0.03440    0.66850    0.19290    1.000
    C712     C        0.06000    0.63120    0.24490    1.000
    H357     H        0.06760    0.61140    0.22020    1.000
    C713     C        0.06860    0.62670    0.29700    1.000
    C714     C        0.04940    0.64930    0.33660    1.000
    C715     C        0.05690    0.64060    0.38930    1.000
    H358     H        0.04390    0.65450    0.41760    1.000
    C716     C        0.08250    0.61060    0.40350    1.000
    H359     H        0.09230    0.60430    0.43840    1.000
    C717     C        0.10140    0.58890    0.36390    1.000
    C718     C        0.09420    0.59630    0.31100    1.000
    H360     H        0.10860    0.58030    0.28610    1.000
    C719     C        0.98730    0.71500    0.24650    1.000
    C720     C        0.13190    0.55550    0.37340    1.000
    O237     O        0.97960    0.74310    0.27390    1.000
    O238     O        0.97750    0.71190    0.19890    1.000
    O239     O        0.15310    0.53590    0.34510    1.000
    O240     O        0.12990    0.54760    0.42370    1.000
    Cd46     Cd       0.25214    0.89656    0.13496    1.000
    Cd47     Cd       0.18019    0.99939    0.91463    1.000
    Cd48     Cd       0.21801    0.94610    0.02117    1.000
    C721     C        0.10460    0.91280    0.03490    1.000
    H361     H        0.12310    0.92720    0.05460    1.000
    C722     C        0.10320    0.91810    0.98550    1.000
    C723     C        0.07470    0.89310    0.94910    1.000
    H362     H        0.07260    0.89690    0.91130    1.000
    C724     C        0.05170    0.86410    0.98080    1.000
    H363     H        0.03600    0.84640    0.96210    1.000
    C725     C        0.05170    0.86180    0.02930    1.000
    C726     C        0.07830    0.88470    0.06380    1.000
    C727     C        0.07880    0.87890    0.11900    1.000
    H364     H        0.10010    0.89070    0.13960    1.000
    C728     C        0.05250    0.85450    0.14180    1.000
    H365     H        0.05280    0.85150    0.17860    1.000
    C729     C        0.02470    0.83350    0.11180    1.000
    C730     C        0.02340    0.83610    0.05780    1.000
    H366     H        0.00460    0.82160    0.03870    1.000
    C731     C        0.13090    0.94360    0.94990    1.000
    C732     C        0.99110    0.80620    0.13500    1.000
    O241     O        0.12370    0.94870    0.90480    1.000
    O242     O        0.15600    0.96150    0.98290    1.000
    O243     O        0.99590    0.80670    0.18760    1.000
    O244     O        0.97220    0.78390    0.11100    1.000
    C733     C        0.09180    0.07510    0.23450    1.000
    H367     H        0.07980    0.09150    0.20990    1.000
    C734     C        0.08470    0.07920    0.28440    1.000
    C735     C        0.09850    0.05000    0.32240    1.000
    H368     H        0.09200    0.05220    0.35950    1.000
    C736     C        0.12320    0.02210    0.30220    1.000
    H369     H        0.13470    0.00460    0.32580    1.000
    C737     C        0.13200    0.01820    0.24970    1.000
    C738     C        0.11850    0.04490    0.21690    1.000
    C739     C        0.12510    0.04390    0.15880    1.000
    H370     H        0.11250    0.06150    0.13640    1.000
    C740     C        0.15240    0.01400    0.13750    1.000
    H371     H        0.16130    0.01360    0.10110    1.000
    C741     C        0.16620    0.98530    0.17670    1.000
    C742     C        0.15750    0.98820    0.22880    1.000
    H372     H        0.16830    0.97020    0.25210    1.000
    C743     C        0.05590    0.11090    0.30370    1.000
    C744     C        0.19220    0.95290    0.15400    1.000
    O245     O        0.04620    0.10620    0.35000    1.000
    O246     O        0.04530    0.13400    0.27140    1.000
    O247     O        0.19270    0.95120    0.10420    1.000
    O248     O        0.21180    0.93460    0.18570    1.000
    C745     C        0.35640    0.79550    0.19580    1.000
    H373     H        0.35920    0.79000    0.15980    1.000
    C746     C        0.33140    0.82180    0.22150    1.000
    C747     C        0.32940    0.82530    0.27610    1.000
    H374     H        0.31220    0.84410    0.28960    1.000
    C748     C        0.35060    0.80370    0.31260    1.000
    H375     H        0.34850    0.80870    0.34890    1.000
    C749     C        0.37450    0.77510    0.29470    1.000
    C750     C        0.37650    0.77960    0.24040    1.000
    C751     C        0.39980    0.75170    0.21830    1.000
    H376     H        0.40260    0.74720    0.18200    1.000
    C752     C        0.41900    0.73050    0.25870    1.000
    H377     H        0.43630    0.71200    0.24450    1.000
    C753     C        0.41940    0.72970    0.31460    1.000
    C754     C        0.39250    0.75570    0.33730    1.000
    H378     H        0.38820    0.75870    0.37490    1.000
    C755     C        0.29940    0.84850    0.18930    1.000
    C756     C        0.44680    0.69920    0.34030    1.000
    O249     O        0.30240    0.84880    0.14110    1.000
    O250     O        0.28030    0.87080    0.21660    1.000
    O251     O        0.44320    0.69700    0.39080    1.000
    O252     O        0.47020    0.68100    0.31190    1.000
    C757     C        0.02190    0.17770    0.82020    1.000
    H379     H        0.00850    0.19370    0.84610    1.000
    C758     C        0.01440    0.18350    0.76640    1.000
    C759     C        0.03600    0.16210    0.72880    1.000
    H380     H        0.03440    0.16850    0.69290    1.000
    C760     C        0.06000    0.13120    0.74490    1.000
    H381     H        0.06760    0.11140    0.72020    1.000
    C761     C        0.06860    0.12670    0.79700    1.000
    C762     C        0.04940    0.14930    0.83660    1.000
    C763     C        0.05690    0.14060    0.88930    1.000
    H382     H        0.04390    0.15450    0.91760    1.000
    C764     C        0.08250    0.11060    0.90350    1.000
    H383     H        0.09230    0.10430    0.93840    1.000
    C765     C        0.10140    0.08890    0.86390    1.000
    C766     C        0.09420    0.09630    0.81100    1.000
    H384     H        0.10860    0.08030    0.78610    1.000
    C767     C        0.98730    0.21500    0.74650    1.000
    C768     C        0.13190    0.05550    0.87340    1.000
    O253     O        0.97960    0.24310    0.77390    1.000
    O254     O        0.97750    0.21190    0.69890    1.000
    O255     O        0.15310    0.03590    0.84510    1.000
    O256     O        0.12990    0.04760    0.92370    1.000
