# CIF file generated by openbabel 3.1.0, see https://openbabel.org
data_I
_chemical_name_common 'image0'
_cell_length_a 31.8199
_cell_length_b 31.8199
_cell_length_c 25.1149
_cell_angle_alpha 90
_cell_angle_beta 90
_cell_angle_gamma 90
_space_group_name_H-M_alt 'P 1'
_space_group_name_Hall 'P 1'
loop_
    _symmetry_equiv_pos_as_xyz
    x,y,z
loop_
    _atom_site_label
    _atom_site_type_symbol
    _atom_site_fract_x
    _atom_site_fract_y
    _atom_site_fract_z
    _atom_site_occupancy
    Ni1      Ni       0.51330    0.25755    0.64040    1.000
    Ni2      Ni       0.25671    0.01475    0.39297    1.000
    Ni3      Ni       0.01507    0.75582    0.64029    1.000
    Ni4      Ni       0.74338    0.98623    0.89118    1.000
    N1       N        0.52950    0.77480    0.09860    1.000
    C1       C        0.57040    0.77700    0.11550    1.000
    H1       H        0.57700    0.76470    0.14890    1.000
    C2       C        0.60330    0.79630    0.08710    1.000
    H2       H        0.63140    0.79630    0.09970    1.000
    C3       C        0.59150    0.81620    0.03720    1.000
    C4       C        0.55100    0.81460    0.02020    1.000
    H3       H        0.54280    0.82760    0.98780    1.000
    C5       C        0.52170    0.79330    0.05160    1.000
    H4       H        0.49370    0.79170    0.03850    1.000
    C6       C        0.62340    0.84070    0.00690    1.000
    C7       C        0.65910    0.85750    0.03260    1.000
    H5       H        0.66450    0.85000    0.06850    1.000
    C8       C        0.68660    0.88470    0.00670    1.000
    H6       H        0.70880    0.89820    0.02550    1.000
    C9       C        0.68060    0.89170    0.95240    1.000
    C10      C        0.64850    0.87430    0.92560    1.000
    H7       H        0.64510    0.87970    0.88860    1.000
    C11      C        0.61900    0.84720    0.95300    1.000
    H8       H        0.59680    0.83410    0.93400    1.000
    C12      C        0.70780    0.92460    0.92620    1.000
    O1       O        0.73300    0.94560    0.95310    1.000
    O2       O        0.70340    0.93110    0.87630    1.000
    N2       N        0.54120    0.20480    0.67250    1.000
    C13      C        0.53500    0.19910    0.72590    1.000
    H9       H        0.51490    0.21520    0.74490    1.000
    C14      C        0.55970    0.16830    0.75160    1.000
    H10      H        0.55660    0.16480    0.78900    1.000
    C15      C        0.58770    0.14350    0.72570    1.000
    C16      C        0.59100    0.14900    0.67200    1.000
    H11      H        0.60960    0.13170    0.65210    1.000
    C17      C        0.56750    0.17960    0.64610    1.000
    H12      H        0.57020    0.18270    0.60870    1.000
    C18      C        0.61080    0.11230    0.75590    1.000
    C19      C        0.60020    0.09590    0.80380    1.000
    H13      H        0.57330    0.10240    0.81790    1.000
    C20      C        0.62580    0.07070    0.83260    1.000
    H14      H        0.61640    0.06070    0.86630    1.000
    C21      C        0.66530    0.05910    0.81430    1.000
    C22      C        0.67820    0.07420    0.76500    1.000
    H15      H        0.70430    0.06560    0.75020    1.000
    C23      C        0.65230    0.10240    0.73730    1.000
    H16      H        0.66240    0.11510    0.70550    1.000
    C24      C        0.69380    0.03170    0.84690    1.000
    O3       O        0.68540    0.02170    0.89480    1.000
    O4       O        0.72930    0.02190    0.82690    1.000
    N3       N        0.72530    0.46890    0.43300    1.000
    C25      C        0.70740    0.47750    0.47980    1.000
    H17      H        0.70850    0.50560    0.49220    1.000
    C26      C        0.68680    0.44740    0.51220    1.000
    H18      H        0.67540    0.45500    0.54580    1.000
    C27      C        0.68400    0.40720    0.49390    1.000
    C28      C        0.70270    0.39580    0.44510    1.000
    H19      H        0.70210    0.36780    0.43220    1.000
    C29      C        0.72280    0.42930    0.41630    1.000
    H20      H        0.73520    0.42270    0.38290    1.000
    C30      C        0.65970    0.37570    0.52510    1.000
    C31      C        0.65420    0.38030    0.57910    1.000
    H21      H        0.66840    0.40180    0.59830    1.000
    C32      C        0.62640    0.35190    0.60560    1.000
    H22      H        0.62020    0.35580    0.64220    1.000
    C33      C        0.60900    0.31920    0.57890    1.000
    C34      C        0.61640    0.31280    0.52600    1.000
    H23      H        0.60350    0.29010    0.50770    1.000
    C35      C        0.64380    0.34090    0.49880    1.000
    H24      H        0.65110    0.33580    0.46270    1.000
    C36      C        0.57560    0.29280    0.60530    1.000
    O5       O        0.56860    0.29640    0.65550    1.000
    O6       O        0.55420    0.26760    0.57860    1.000
    N4       N        0.79590    0.95820    0.85800    1.000
    C37      C        0.81840    0.93000    0.88300    1.000
    H25      H        0.81310    0.92500    0.91970    1.000
    C38      C        0.84860    0.90800    0.85860    1.000
    H26      H        0.86510    0.88900    0.87900    1.000
    C39      C        0.85670    0.91190    0.80470    1.000
    C40      C        0.83280    0.93940    0.77840    1.000
    H27      H        0.83630    0.94310    0.74110    1.000
    C41      C        0.80150    0.96370    0.80670    1.000
    H28      H        0.78500    0.98380    0.78810    1.000
    C42      C        0.88830    0.88770    0.77460    1.000
    C43      C        0.90600    0.90090    0.72920    1.000
    H29      H        0.89920    0.92790    0.71540    1.000
    C44      C        0.93480    0.87450    0.70180    1.000
    H30      H        0.94980    0.88560    0.67230    1.000
    C45      C        0.94140    0.83440    0.71640    1.000
    C46      C        0.92300    0.82020    0.76490    1.000
    H31      H        0.93020    0.79330    0.77860    1.000
    C47      C        0.89520    0.84470    0.79170    1.000
    H32      H        0.88050    0.83380    0.82150    1.000
    C48      C        0.96910    0.80520    0.68410    1.000
    O7       O        0.98060    0.81530    0.63890    1.000
    O8       O        0.97920    0.77040    0.70400    1.000
    N5       N        0.22720    0.96880    0.43490    1.000
    C49      C        0.22390    0.92900    0.41600    1.000
    H33      H        0.23610    0.92310    0.38230    1.000
    C50      C        0.20400    0.89610    0.44290    1.000
    H34      H        0.20190    0.86900    0.42720    1.000
    C51      C        0.18710    0.90400    0.49360    1.000
    C52      C        0.19240    0.94620    0.51280    1.000
    H35      H        0.18260    0.95340    0.54730    1.000
    C53      C        0.21110    0.97550    0.48280    1.000
    H36      H        0.21300    0.00320    0.49690    1.000
    C54      C        0.16370    0.87190    0.52360    1.000
    C55      C        0.15870    0.87490    0.57780    1.000
    H37      H        0.17370    0.89570    0.59720    1.000
    C56      C        0.13100    0.84690    0.60530    1.000
    H38      H        0.12650    0.85020    0.64250    1.000
    C57      C        0.11090    0.81560    0.57850    1.000
    C58      C        0.11760    0.81150    0.52430    1.000
    H39      H        0.10320    0.79020    0.50510    1.000
    C59      C        0.14530    0.83820    0.49700    1.000
    H40      H        0.15150    0.83320    0.46050    1.000
    C60      C        0.07820    0.79020    0.60700    1.000
    O9       O        0.05570    0.76550    0.57930    1.000
    O10      O        0.07140    0.79430    0.65490    1.000
    N6       N        0.45900    0.79690    0.17340    1.000
    C61      C        0.43610    0.82540    0.14670    1.000
    H41      H        0.43460    0.82290    0.10900    1.000
    C62      C        0.41440    0.85800    0.17030    1.000
    H42      H        0.39950    0.87800    0.14940    1.000
    C63      C        0.41520    0.86100    0.22690    1.000
    C64      C        0.44030    0.83450    0.25150    1.000
    H43      H        0.44370    0.83710    0.28900    1.000
    C65      C        0.46190    0.80330    0.22520    1.000
    H44      H        0.47970    0.78540    0.24540    1.000
    C66      C        0.39000    0.89310    0.25490    1.000
    C67      C        0.34990    0.90180    0.23690    1.000
    H45      H        0.34060    0.89060    0.20380    1.000
    C68      C        0.32260    0.92740    0.26740    1.000
    H46      H        0.29470    0.93280    0.25580    1.000
    C69      C        0.33710    0.94410    0.31380    1.000
    C70      C        0.37870    0.93820    0.33010    1.000
    H47      H        0.38920    0.95200    0.36090    1.000
    C71      C        0.40430    0.91180    0.30060    1.000
    H48      H        0.43220    0.90670    0.31210    1.000
    C72      C        0.30760    0.97020    0.34710    1.000
    O11      O        0.27220    0.97970    0.32810    1.000
    O12      O        0.31790    0.98250    0.39400    1.000
    N7       N        0.46860    0.22660    0.59960    1.000
    C73      C        0.47550    0.21090    0.55110    1.000
    H49      H        0.50320    0.21300    0.53730    1.000
    C74      C        0.44530    0.19150    0.51880    1.000
    H50      H        0.45200    0.18140    0.48420    1.000
    C75      C        0.40360    0.18760    0.54060    1.000
    C76      C        0.39530    0.20350    0.58990    1.000
    H51      H        0.36800    0.20120    0.60500    1.000
    C77      C        0.42830    0.22360    0.61830    1.000
    H52      H        0.42200    0.23550    0.65210    1.000
    C78      C        0.37120    0.16420    0.50970    1.000
    C79      C        0.37470    0.16040    0.45470    1.000
    H53      H        0.39560    0.17540    0.43550    1.000
    C80      C        0.34620    0.13370    0.42840    1.000
    H54      H        0.34780    0.13140    0.39080    1.000
    C81      C        0.31600    0.11080    0.45510    1.000
    C82      C        0.31160    0.11700    0.50860    1.000
    H55      H        0.29040    0.10220    0.52750    1.000
    C83      C        0.33850    0.14540    0.53650    1.000
    H56      H        0.33390    0.15110    0.57320    1.000
    C84      C        0.28990    0.07750    0.42730    1.000
    O13      O        0.29430    0.07220    0.37790    1.000
    O14      O        0.26620    0.05580    0.45540    1.000
    N8       N        0.29600    0.45950    0.86140    1.000
    C85      C        0.30050    0.46300    0.80770    1.000
    H57      H        0.28200    0.48040    0.78790    1.000
    C86      C        0.33300    0.44040    0.78140    1.000
    H58      H        0.33580    0.44270    0.74390    1.000
    C87      C        0.35940    0.41620    0.80800    1.000
    C88      C        0.35830    0.41470    0.86380    1.000
    H59      H        0.37830    0.39940    0.88410    1.000
    C89      C        0.32410    0.43810    0.88800    1.000
    H60      H        0.32210    0.43790    0.92570    1.000
    C90      C        0.39290    0.39120    0.78040    1.000
    C91      C        0.41030    0.40320    0.73200    1.000
    H61      H        0.40510    0.43080    0.71940    1.000
    C92      C        0.43390    0.37790    0.70240    1.000
    H62      H        0.44400    0.38770    0.66900    1.000
    C93      C        0.42930    0.32420    0.77010    1.000
    H63      H        0.43780    0.29790    0.78460    1.000
    C94      C        0.40200    0.35040    0.79920    1.000
    H64      H        0.38980    0.34060    0.83140    1.000
    C95      C        0.46860    0.30780    0.68630    1.000
    O15      O        0.47830    0.27200    0.70700    1.000
    O16      O        0.47910    0.31810    0.64020    1.000
    C96      C        0.44430    0.33680    0.71920    1.000
    Ni5      Ni       0.98670    0.24245    0.14040    1.000
    Ni6      Ni       0.24329    0.48525    0.89297    1.000
    Ni7      Ni       0.48493    0.74418    0.14029    1.000
    Ni8      Ni       0.75662    0.51377    0.39118    1.000
    N9       N        0.97050    0.72520    0.59860    1.000
    C97      C        0.92960    0.72300    0.61550    1.000
    H65      H        0.92300    0.73530    0.64890    1.000
    C98      C        0.89670    0.70370    0.58710    1.000
    H66      H        0.86860    0.70370    0.59970    1.000
    C99      C        0.90850    0.68380    0.53720    1.000
    C100     C        0.94900    0.68540    0.52020    1.000
    H67      H        0.95720    0.67240    0.48780    1.000
    C101     C        0.97830    0.70670    0.55160    1.000
    H68      H        0.00630    0.70830    0.53850    1.000
    C102     C        0.87660    0.65930    0.50690    1.000
    C103     C        0.84090    0.64250    0.53260    1.000
    H69      H        0.83550    0.65000    0.56850    1.000
    C104     C        0.81340    0.61530    0.50670    1.000
    H70      H        0.79120    0.60180    0.52550    1.000
    C105     C        0.81940    0.60830    0.45240    1.000
    C106     C        0.85150    0.62570    0.42560    1.000
    H71      H        0.85490    0.62030    0.38860    1.000
    C107     C        0.88100    0.65280    0.45300    1.000
    H72      H        0.90320    0.66590    0.43400    1.000
    C108     C        0.79220    0.57540    0.42620    1.000
    O17      O        0.76700    0.55440    0.45310    1.000
    O18      O        0.79660    0.56890    0.37630    1.000
    N10      N        0.95880    0.29520    0.17250    1.000
    C109     C        0.96500    0.30090    0.22590    1.000
    H73      H        0.98510    0.28480    0.24490    1.000
    C110     C        0.94030    0.33170    0.25160    1.000
    H74      H        0.94340    0.33520    0.28900    1.000
    C111     C        0.91230    0.35650    0.22570    1.000
    C112     C        0.90900    0.35100    0.17200    1.000
    H75      H        0.89040    0.36830    0.15210    1.000
    C113     C        0.93250    0.32040    0.14610    1.000
    H76      H        0.92980    0.31730    0.10870    1.000
    C114     C        0.88920    0.38770    0.25590    1.000
    C115     C        0.89980    0.40410    0.30380    1.000
    H77      H        0.92670    0.39760    0.31790    1.000
    C116     C        0.87420    0.42930    0.33260    1.000
    H78      H        0.88360    0.43930    0.36630    1.000
    C117     C        0.83470    0.44090    0.31430    1.000
    C118     C        0.82180    0.42580    0.26500    1.000
    H79      H        0.79570    0.43440    0.25020    1.000
    C119     C        0.84770    0.39760    0.23730    1.000
    H80      H        0.83760    0.38490    0.20550    1.000
    C120     C        0.80620    0.46830    0.34690    1.000
    O19      O        0.81460    0.47830    0.39480    1.000
    O20      O        0.77070    0.47810    0.32690    1.000
    N11      N        0.77470    0.03110    0.93300    1.000
    C121     C        0.79260    0.02250    0.97980    1.000
    H81      H        0.79150    0.99440    0.99220    1.000
    C122     C        0.81320    0.05260    0.01220    1.000
    H82      H        0.82460    0.04500    0.04580    1.000
    C123     C        0.81600    0.09280    0.99390    1.000
    C124     C        0.79730    0.10420    0.94510    1.000
    H83      H        0.79790    0.13220    0.93220    1.000
    C125     C        0.77720    0.07070    0.91630    1.000
    H84      H        0.76480    0.07730    0.88290    1.000
    C126     C        0.84030    0.12430    0.02510    1.000
    C127     C        0.84580    0.11970    0.07910    1.000
    H85      H        0.83160    0.09820    0.09830    1.000
    C128     C        0.87360    0.14810    0.10560    1.000
    H86      H        0.87980    0.14420    0.14220    1.000
    C129     C        0.89100    0.18080    0.07890    1.000
    C130     C        0.88360    0.18720    0.02600    1.000
    H87      H        0.89650    0.20990    0.00770    1.000
    C131     C        0.85620    0.15910    0.99880    1.000
    H88      H        0.84890    0.16420    0.96270    1.000
    C132     C        0.92440    0.20720    0.10530    1.000
    O21      O        0.93140    0.20360    0.15550    1.000
    O22      O        0.94580    0.23240    0.07860    1.000
    N12      N        0.70410    0.54180    0.35800    1.000
    C133     C        0.68160    0.57000    0.38300    1.000
    H89      H        0.68690    0.57500    0.41970    1.000
    C134     C        0.65140    0.59200    0.35860    1.000
    H90      H        0.63490    0.61100    0.37900    1.000
    C135     C        0.64330    0.58810    0.30470    1.000
    C136     C        0.66720    0.56060    0.27840    1.000
    H91      H        0.66370    0.55690    0.24110    1.000
    C137     C        0.69850    0.53630    0.30670    1.000
    H92      H        0.71500    0.51620    0.28810    1.000
    C138     C        0.61170    0.61230    0.27460    1.000
    C139     C        0.59400    0.59910    0.22920    1.000
    H93      H        0.60080    0.57210    0.21540    1.000
    C140     C        0.56520    0.62550    0.20180    1.000
    H94      H        0.55020    0.61440    0.17230    1.000
    C141     C        0.55860    0.66560    0.21640    1.000
    C142     C        0.57700    0.67980    0.26490    1.000
    H95      H        0.56980    0.70670    0.27860    1.000
    C143     C        0.60480    0.65530    0.29170    1.000
    H96      H        0.61950    0.66620    0.32150    1.000
    C144     C        0.53090    0.69480    0.18410    1.000
    O23      O        0.51940    0.68470    0.13890    1.000
    O24      O        0.52080    0.72960    0.20400    1.000
    N13      N        0.27280    0.53120    0.93490    1.000
    C145     C        0.27610    0.57100    0.91600    1.000
    H97      H        0.26390    0.57690    0.88230    1.000
    C146     C        0.29600    0.60390    0.94290    1.000
    H98      H        0.29810    0.63100    0.92720    1.000
    C147     C        0.31290    0.59600    0.99360    1.000
    C148     C        0.30760    0.55380    0.01280    1.000
    H99      H        0.31740    0.54660    0.04730    1.000
    C149     C        0.28890    0.52450    0.98280    1.000
    H100     H        0.28700    0.49680    0.99690    1.000
    C150     C        0.33630    0.62810    0.02360    1.000
    C151     C        0.34130    0.62510    0.07780    1.000
    H101     H        0.32630    0.60430    0.09720    1.000
    C152     C        0.36900    0.65310    0.10530    1.000
    H102     H        0.37350    0.64980    0.14250    1.000
    C153     C        0.38910    0.68440    0.07850    1.000
    C154     C        0.38240    0.68850    0.02430    1.000
    H103     H        0.39680    0.70980    0.00510    1.000
    C155     C        0.35470    0.66180    0.99700    1.000
    H104     H        0.34850    0.66680    0.96050    1.000
    C156     C        0.42180    0.70980    0.10700    1.000
    O25      O        0.44430    0.73450    0.07930    1.000
    O26      O        0.42860    0.70570    0.15490    1.000
    N14      N        0.04100    0.70310    0.67340    1.000
    C157     C        0.06390    0.67460    0.64670    1.000
    H105     H        0.06540    0.67710    0.60900    1.000
    C158     C        0.08560    0.64200    0.67030    1.000
    H106     H        0.10050    0.62200    0.64940    1.000
    C159     C        0.08480    0.63900    0.72690    1.000
    C160     C        0.05970    0.66550    0.75150    1.000
    H107     H        0.05630    0.66290    0.78900    1.000
    C161     C        0.03810    0.69670    0.72520    1.000
    H108     H        0.02030    0.71460    0.74540    1.000
    C162     C        0.11000    0.60690    0.75490    1.000
    C163     C        0.15010    0.59820    0.73690    1.000
    H109     H        0.15940    0.60940    0.70380    1.000
    C164     C        0.17740    0.57260    0.76740    1.000
    H110     H        0.20530    0.56720    0.75580    1.000
    C165     C        0.16290    0.55590    0.81380    1.000
    C166     C        0.12130    0.56180    0.83010    1.000
    H111     H        0.11080    0.54800    0.86090    1.000
    C167     C        0.09570    0.58820    0.80060    1.000
    H112     H        0.06780    0.59330    0.81210    1.000
    C168     C        0.19240    0.52980    0.84710    1.000
    O27      O        0.22780    0.52030    0.82810    1.000
    O28      O        0.18210    0.51750    0.89400    1.000
    N15      N        0.03140    0.27340    0.09960    1.000
    C169     C        0.02450    0.28910    0.05110    1.000
    H113     H        0.99680    0.28700    0.03730    1.000
    C170     C        0.05470    0.30850    0.01880    1.000
    H114     H        0.04800    0.31860    0.98420    1.000
    C171     C        0.09640    0.31240    0.04060    1.000
    C172     C        0.10470    0.29650    0.08990    1.000
    H115     H        0.13200    0.29880    0.10500    1.000
    C173     C        0.07170    0.27640    0.11830    1.000
    H116     H        0.07800    0.26450    0.15210    1.000
    C174     C        0.12880    0.33580    0.00970    1.000
    C175     C        0.12530    0.33960    0.95470    1.000
    H117     H        0.10440    0.32460    0.93550    1.000
    C176     C        0.15380    0.36630    0.92840    1.000
    H118     H        0.15220    0.36860    0.89080    1.000
    C177     C        0.18400    0.38920    0.95510    1.000
    C178     C        0.18840    0.38300    0.00860    1.000
    H119     H        0.20960    0.39780    0.02750    1.000
    C179     C        0.16150    0.35460    0.03650    1.000
    H120     H        0.16610    0.34890    0.07320    1.000
    C180     C        0.21010    0.42250    0.92730    1.000
    O29      O        0.20570    0.42780    0.87790    1.000
    O30      O        0.23380    0.44420    0.95540    1.000
    N16      N        0.20400    0.04050    0.36140    1.000
    C181     C        0.19950    0.03700    0.30770    1.000
    H121     H        0.21800    0.01960    0.28790    1.000
    C182     C        0.16700    0.05960    0.28140    1.000
    H122     H        0.16420    0.05730    0.24390    1.000
    C183     C        0.14060    0.08380    0.30800    1.000
    C184     C        0.14170    0.08530    0.36380    1.000
    H123     H        0.12170    0.10060    0.38410    1.000
    C185     C        0.17590    0.06190    0.38800    1.000
    H124     H        0.17790    0.06210    0.42570    1.000
    C186     C        0.10710    0.10880    0.28040    1.000
    C187     C        0.08970    0.09680    0.23200    1.000
    H125     H        0.09490    0.06920    0.21940    1.000
    C188     C        0.06610    0.12210    0.20240    1.000
    H126     H        0.05600    0.11230    0.16900    1.000
    C189     C        0.07070    0.17580    0.27010    1.000
    H127     H        0.06220    0.20210    0.28460    1.000
    C190     C        0.09800    0.14960    0.29920    1.000
    H128     H        0.11020    0.15940    0.33140    1.000
    C191     C        0.03140    0.19220    0.18630    1.000
    O31      O        0.02170    0.22800    0.20700    1.000
    O32      O        0.02090    0.18190    0.14020    1.000
    C192     C        0.05570    0.16320    0.21920    1.000
    Ni9      Ni       0.01330    0.75755    0.14040    1.000
    Ni10     Ni       0.75671    0.51475    0.89297    1.000
    Ni11     Ni       0.51507    0.25582    0.14029    1.000
    Ni12     Ni       0.24338    0.48623    0.39118    1.000
    N17      N        0.02950    0.27480    0.59860    1.000
    C193     C        0.07040    0.27700    0.61550    1.000
    H129     H        0.07700    0.26470    0.64890    1.000
    C194     C        0.10330    0.29630    0.58710    1.000
    H130     H        0.13140    0.29630    0.59970    1.000
    C195     C        0.09150    0.31620    0.53720    1.000
    C196     C        0.05100    0.31460    0.52020    1.000
    H131     H        0.04280    0.32760    0.48780    1.000
    C197     C        0.02170    0.29330    0.55160    1.000
    H132     H        0.99370    0.29170    0.53850    1.000
    C198     C        0.12340    0.34070    0.50690    1.000
    C199     C        0.15910    0.35750    0.53260    1.000
    H133     H        0.16450    0.35000    0.56850    1.000
    C200     C        0.18660    0.38470    0.50670    1.000
    H134     H        0.20880    0.39820    0.52550    1.000
    C201     C        0.18060    0.39170    0.45240    1.000
    C202     C        0.14850    0.37430    0.42560    1.000
    H135     H        0.14510    0.37970    0.38860    1.000
    C203     C        0.11900    0.34720    0.45300    1.000
    H136     H        0.09680    0.33410    0.43400    1.000
    C204     C        0.20780    0.42460    0.42620    1.000
    O33      O        0.23300    0.44560    0.45310    1.000
    O34      O        0.20340    0.43110    0.37630    1.000
    N18      N        0.04120    0.70480    0.17250    1.000
    C205     C        0.03500    0.69910    0.22590    1.000
    H137     H        0.01490    0.71520    0.24490    1.000
    C206     C        0.05970    0.66830    0.25160    1.000
    H138     H        0.05660    0.66480    0.28900    1.000
    C207     C        0.08770    0.64350    0.22570    1.000
    C208     C        0.09100    0.64900    0.17200    1.000
    H139     H        0.10960    0.63170    0.15210    1.000
    C209     C        0.06750    0.67960    0.14610    1.000
    H140     H        0.07020    0.68270    0.10870    1.000
    C210     C        0.11080    0.61230    0.25590    1.000
    C211     C        0.10020    0.59590    0.30380    1.000
    H141     H        0.07330    0.60240    0.31790    1.000
    C212     C        0.12580    0.57070    0.33260    1.000
    H142     H        0.11640    0.56070    0.36630    1.000
    C213     C        0.16530    0.55910    0.31430    1.000
    C214     C        0.17820    0.57420    0.26500    1.000
    H143     H        0.20430    0.56560    0.25020    1.000
    C215     C        0.15230    0.60240    0.23730    1.000
    H144     H        0.16240    0.61510    0.20550    1.000
    C216     C        0.19380    0.53170    0.34690    1.000
    O35      O        0.18540    0.52170    0.39480    1.000
    O36      O        0.22930    0.52190    0.32690    1.000
    N19      N        0.22530    0.96890    0.93300    1.000
    C217     C        0.20740    0.97750    0.97980    1.000
    H145     H        0.20850    0.00560    0.99220    1.000
    C218     C        0.18680    0.94740    0.01220    1.000
    H146     H        0.17540    0.95500    0.04580    1.000
    C219     C        0.18400    0.90720    0.99390    1.000
    C220     C        0.20270    0.89580    0.94510    1.000
    H147     H        0.20210    0.86780    0.93220    1.000
    C221     C        0.22280    0.92930    0.91630    1.000
    H148     H        0.23520    0.92270    0.88290    1.000
    C222     C        0.15970    0.87570    0.02510    1.000
    C223     C        0.15420    0.88030    0.07910    1.000
    H149     H        0.16840    0.90180    0.09830    1.000
    C224     C        0.12640    0.85190    0.10560    1.000
    H150     H        0.12020    0.85580    0.14220    1.000
    C225     C        0.10900    0.81920    0.07890    1.000
    C226     C        0.11640    0.81280    0.02600    1.000
    H151     H        0.10350    0.79010    0.00770    1.000
    C227     C        0.14380    0.84090    0.99880    1.000
    H152     H        0.15110    0.83580    0.96270    1.000
    C228     C        0.07560    0.79280    0.10530    1.000
    O37      O        0.06860    0.79640    0.15550    1.000
    O38      O        0.05420    0.76760    0.07860    1.000
    N20      N        0.29590    0.45820    0.35800    1.000
    C229     C        0.31840    0.43000    0.38300    1.000
    H153     H        0.31310    0.42500    0.41970    1.000
    C230     C        0.34860    0.40800    0.35860    1.000
    H154     H        0.36510    0.38900    0.37900    1.000
    C231     C        0.35670    0.41190    0.30470    1.000
    C232     C        0.33280    0.43940    0.27840    1.000
    H155     H        0.33630    0.44310    0.24110    1.000
    C233     C        0.30150    0.46370    0.30670    1.000
    H156     H        0.28500    0.48380    0.28810    1.000
    C234     C        0.38830    0.38770    0.27460    1.000
    C235     C        0.40600    0.40090    0.22920    1.000
    H157     H        0.39920    0.42790    0.21540    1.000
    C236     C        0.43480    0.37450    0.20180    1.000
    H158     H        0.44980    0.38560    0.17230    1.000
    C237     C        0.44140    0.33440    0.21640    1.000
    C238     C        0.42300    0.32020    0.26490    1.000
    H159     H        0.43020    0.29330    0.27860    1.000
    C239     C        0.39520    0.34470    0.29170    1.000
    H160     H        0.38050    0.33380    0.32150    1.000
    C240     C        0.46910    0.30520    0.18410    1.000
    O39      O        0.48060    0.31530    0.13890    1.000
    O40      O        0.47920    0.27040    0.20400    1.000
    N21      N        0.72720    0.46880    0.93490    1.000
    C241     C        0.72390    0.42900    0.91600    1.000
    H161     H        0.73610    0.42310    0.88230    1.000
    C242     C        0.70400    0.39610    0.94290    1.000
    H162     H        0.70190    0.36900    0.92720    1.000
    C243     C        0.68710    0.40400    0.99360    1.000
    C244     C        0.69240    0.44620    0.01280    1.000
    H163     H        0.68260    0.45340    0.04730    1.000
    C245     C        0.71110    0.47550    0.98280    1.000
    H164     H        0.71300    0.50320    0.99690    1.000
    C246     C        0.66370    0.37190    0.02360    1.000
    C247     C        0.65870    0.37490    0.07780    1.000
    H165     H        0.67370    0.39570    0.09720    1.000
    C248     C        0.63100    0.34690    0.10530    1.000
    H166     H        0.62650    0.35020    0.14250    1.000
    C249     C        0.61090    0.31560    0.07850    1.000
    C250     C        0.61760    0.31150    0.02430    1.000
    H167     H        0.60320    0.29020    0.00510    1.000
    C251     C        0.64530    0.33820    0.99700    1.000
    H168     H        0.65150    0.33320    0.96050    1.000
    C252     C        0.57820    0.29020    0.10700    1.000
    O41      O        0.55570    0.26550    0.07930    1.000
    O42      O        0.57140    0.29430    0.15490    1.000
    N22      N        0.95900    0.29690    0.67340    1.000
    C253     C        0.93610    0.32540    0.64670    1.000
    H169     H        0.93460    0.32290    0.60900    1.000
    C254     C        0.91440    0.35800    0.67030    1.000
    H170     H        0.89950    0.37800    0.64940    1.000
    C255     C        0.91520    0.36100    0.72690    1.000
    C256     C        0.94030    0.33450    0.75150    1.000
    H171     H        0.94370    0.33710    0.78900    1.000
    C257     C        0.96190    0.30330    0.72520    1.000
    H172     H        0.97970    0.28540    0.74540    1.000
    C258     C        0.89000    0.39310    0.75490    1.000
    C259     C        0.84990    0.40180    0.73690    1.000
    H173     H        0.84060    0.39060    0.70380    1.000
    C260     C        0.82260    0.42740    0.76740    1.000
    H174     H        0.79470    0.43280    0.75580    1.000
    C261     C        0.83710    0.44410    0.81380    1.000
    C262     C        0.87870    0.43820    0.83010    1.000
    H175     H        0.88920    0.45200    0.86090    1.000
    C263     C        0.90430    0.41180    0.80060    1.000
    H176     H        0.93220    0.40670    0.81210    1.000
    C264     C        0.80760    0.47020    0.84710    1.000
    O43      O        0.77220    0.47970    0.82810    1.000
    O44      O        0.81790    0.48250    0.89400    1.000
    N23      N        0.96860    0.72660    0.09960    1.000
    C265     C        0.97550    0.71090    0.05110    1.000
    H177     H        0.00320    0.71300    0.03730    1.000
    C266     C        0.94530    0.69150    0.01880    1.000
    H178     H        0.95200    0.68140    0.98420    1.000
    C267     C        0.90360    0.68760    0.04060    1.000
    C268     C        0.89530    0.70350    0.08990    1.000
    H179     H        0.86800    0.70120    0.10500    1.000
    C269     C        0.92830    0.72360    0.11830    1.000
    H180     H        0.92200    0.73550    0.15210    1.000
    C270     C        0.87120    0.66420    0.00970    1.000
    C271     C        0.87470    0.66040    0.95470    1.000
    H181     H        0.89560    0.67540    0.93550    1.000
    C272     C        0.84620    0.63370    0.92840    1.000
    H182     H        0.84780    0.63140    0.89080    1.000
    C273     C        0.81600    0.61080    0.95510    1.000
    C274     C        0.81160    0.61700    0.00860    1.000
    H183     H        0.79040    0.60220    0.02750    1.000
    C275     C        0.83850    0.64540    0.03650    1.000
    H184     H        0.83390    0.65110    0.07320    1.000
    C276     C        0.78990    0.57750    0.92730    1.000
    O45      O        0.79430    0.57220    0.87790    1.000
    O46      O        0.76620    0.55580    0.95540    1.000
    N24      N        0.79600    0.95950    0.36140    1.000
    C277     C        0.80050    0.96300    0.30770    1.000
    H185     H        0.78200    0.98040    0.28790    1.000
    C278     C        0.83300    0.94040    0.28140    1.000
    H186     H        0.83580    0.94270    0.24390    1.000
    C279     C        0.85940    0.91620    0.30800    1.000
    C280     C        0.85830    0.91470    0.36380    1.000
    H187     H        0.87830    0.89940    0.38410    1.000
    C281     C        0.82410    0.93810    0.38800    1.000
    H188     H        0.82210    0.93790    0.42570    1.000
    C282     C        0.89290    0.89120    0.28040    1.000
    C283     C        0.91030    0.90320    0.23200    1.000
    H189     H        0.90510    0.93080    0.21940    1.000
    C284     C        0.93390    0.87790    0.20240    1.000
    H190     H        0.94400    0.88770    0.16900    1.000
    C285     C        0.92930    0.82420    0.27010    1.000
    H191     H        0.93780    0.79790    0.28460    1.000
    C286     C        0.90200    0.85040    0.29920    1.000
    H192     H        0.88980    0.84060    0.33140    1.000
    C287     C        0.96860    0.80780    0.18630    1.000
    O47      O        0.97830    0.77200    0.20700    1.000
    O48      O        0.97910    0.81810    0.14020    1.000
    C288     C        0.94430    0.83680    0.21920    1.000
    Ni13     Ni       0.48670    0.74245    0.64040    1.000
    Ni14     Ni       0.74329    0.98525    0.39297    1.000
    Ni15     Ni       0.98493    0.24418    0.64029    1.000
    Ni16     Ni       0.25662    0.01377    0.89118    1.000
    N25      N        0.47050    0.22520    0.09860    1.000
    C289     C        0.42960    0.22300    0.11550    1.000
    H193     H        0.42300    0.23530    0.14890    1.000
    C290     C        0.39670    0.20370    0.08710    1.000
    H194     H        0.36860    0.20370    0.09970    1.000
    C291     C        0.40850    0.18380    0.03720    1.000
    C292     C        0.44900    0.18540    0.02020    1.000
    H195     H        0.45720    0.17240    0.98780    1.000
    C293     C        0.47830    0.20670    0.05160    1.000
    H196     H        0.50630    0.20830    0.03850    1.000
    C294     C        0.37660    0.15930    0.00690    1.000
    C295     C        0.34090    0.14250    0.03260    1.000
    H197     H        0.33550    0.15000    0.06850    1.000
    C296     C        0.31340    0.11530    0.00670    1.000
    H198     H        0.29120    0.10180    0.02550    1.000
    C297     C        0.31940    0.10830    0.95240    1.000
    C298     C        0.35150    0.12570    0.92560    1.000
    H199     H        0.35490    0.12030    0.88860    1.000
    C299     C        0.38100    0.15280    0.95300    1.000
    H200     H        0.40320    0.16590    0.93400    1.000
    C300     C        0.29220    0.07540    0.92620    1.000
    O49      O        0.26700    0.05440    0.95310    1.000
    O50      O        0.29660    0.06890    0.87630    1.000
    N26      N        0.45880    0.79520    0.67250    1.000
    C301     C        0.46500    0.80090    0.72590    1.000
    H201     H        0.48510    0.78480    0.74490    1.000
    C302     C        0.44030    0.83170    0.75160    1.000
    H202     H        0.44340    0.83520    0.78900    1.000
    C303     C        0.41230    0.85650    0.72570    1.000
    C304     C        0.40900    0.85100    0.67200    1.000
    H203     H        0.39040    0.86830    0.65210    1.000
    C305     C        0.43250    0.82040    0.64610    1.000
    H204     H        0.42980    0.81730    0.60870    1.000
    C306     C        0.38920    0.88770    0.75590    1.000
    C307     C        0.39980    0.90410    0.80380    1.000
    H205     H        0.42670    0.89760    0.81790    1.000
    C308     C        0.37420    0.92930    0.83260    1.000
    H206     H        0.38360    0.93930    0.86630    1.000
    C309     C        0.33470    0.94090    0.81430    1.000
    C310     C        0.32180    0.92580    0.76500    1.000
    H207     H        0.29570    0.93440    0.75020    1.000
    C311     C        0.34770    0.89760    0.73730    1.000
    H208     H        0.33760    0.88490    0.70550    1.000
    C312     C        0.30620    0.96830    0.84690    1.000
    O51      O        0.31460    0.97830    0.89480    1.000
    O52      O        0.27070    0.97810    0.82690    1.000
    N27      N        0.27470    0.53110    0.43300    1.000
    C313     C        0.29260    0.52250    0.47980    1.000
    H209     H        0.29150    0.49440    0.49220    1.000
    C314     C        0.31320    0.55260    0.51220    1.000
    H210     H        0.32460    0.54500    0.54580    1.000
    C315     C        0.31600    0.59280    0.49390    1.000
    C316     C        0.29730    0.60420    0.44510    1.000
    H211     H        0.29790    0.63220    0.43220    1.000
    C317     C        0.27720    0.57070    0.41630    1.000
    H212     H        0.26480    0.57730    0.38290    1.000
    C318     C        0.34030    0.62430    0.52510    1.000
    C319     C        0.34580    0.61970    0.57910    1.000
    H213     H        0.33160    0.59820    0.59830    1.000
    C320     C        0.37360    0.64810    0.60560    1.000
    H214     H        0.37980    0.64420    0.64220    1.000
    C321     C        0.39100    0.68080    0.57890    1.000
    C322     C        0.38360    0.68720    0.52600    1.000
    H215     H        0.39650    0.70990    0.50770    1.000
    C323     C        0.35620    0.65910    0.49880    1.000
    H216     H        0.34890    0.66420    0.46270    1.000
    C324     C        0.42440    0.70720    0.60530    1.000
    O53      O        0.43140    0.70360    0.65550    1.000
    O54      O        0.44580    0.73240    0.57860    1.000
    N28      N        0.20410    0.04180    0.85800    1.000
    C325     C        0.18160    0.07000    0.88300    1.000
    H217     H        0.18690    0.07500    0.91970    1.000
    C326     C        0.15140    0.09200    0.85860    1.000
    H218     H        0.13490    0.11100    0.87900    1.000
    C327     C        0.14330    0.08810    0.80470    1.000
    C328     C        0.16720    0.06060    0.77840    1.000
    H219     H        0.16370    0.05690    0.74110    1.000
    C329     C        0.19850    0.03630    0.80670    1.000
    H220     H        0.21500    0.01620    0.78810    1.000
    C330     C        0.11170    0.11230    0.77460    1.000
    C331     C        0.09400    0.09910    0.72920    1.000
    H221     H        0.10080    0.07210    0.71540    1.000
    C332     C        0.06520    0.12550    0.70180    1.000
    H222     H        0.05020    0.11440    0.67230    1.000
    C333     C        0.05860    0.16560    0.71640    1.000
    C334     C        0.07700    0.17980    0.76490    1.000
    H223     H        0.06980    0.20670    0.77860    1.000
    C335     C        0.10480    0.15530    0.79170    1.000
    H224     H        0.11950    0.16620    0.82150    1.000
    C336     C        0.03090    0.19480    0.68410    1.000
    O55      O        0.01940    0.18470    0.63890    1.000
    O56      O        0.02080    0.22960    0.70400    1.000
    N29      N        0.77280    0.03120    0.43490    1.000
    C337     C        0.77610    0.07100    0.41600    1.000
    H225     H        0.76390    0.07690    0.38230    1.000
    C338     C        0.79600    0.10390    0.44290    1.000
    H226     H        0.79810    0.13100    0.42720    1.000
    C339     C        0.81290    0.09600    0.49360    1.000
    C340     C        0.80760    0.05380    0.51280    1.000
    H227     H        0.81740    0.04660    0.54730    1.000
    C341     C        0.78890    0.02450    0.48280    1.000
    H228     H        0.78700    0.99680    0.49690    1.000
    C342     C        0.83630    0.12810    0.52360    1.000
    C343     C        0.84130    0.12510    0.57780    1.000
    H229     H        0.82630    0.10430    0.59720    1.000
    C344     C        0.86900    0.15310    0.60530    1.000
    H230     H        0.87350    0.14980    0.64250    1.000
    C345     C        0.88910    0.18440    0.57850    1.000
    C346     C        0.88240    0.18850    0.52430    1.000
    H231     H        0.89680    0.20980    0.50510    1.000
    C347     C        0.85470    0.16180    0.49700    1.000
    H232     H        0.84850    0.16680    0.46050    1.000
    C348     C        0.92180    0.20980    0.60700    1.000
    O57      O        0.94430    0.23450    0.57930    1.000
    O58      O        0.92860    0.20570    0.65490    1.000
    N30      N        0.54100    0.20310    0.17340    1.000
    C349     C        0.56390    0.17460    0.14670    1.000
    H233     H        0.56540    0.17710    0.10900    1.000
    C350     C        0.58560    0.14200    0.17030    1.000
    H234     H        0.60050    0.12200    0.14940    1.000
    C351     C        0.58480    0.13900    0.22690    1.000
    C352     C        0.55970    0.16550    0.25150    1.000
    H235     H        0.55630    0.16290    0.28900    1.000
    C353     C        0.53810    0.19670    0.22520    1.000
    H236     H        0.52030    0.21460    0.24540    1.000
    C354     C        0.61000    0.10690    0.25490    1.000
    C355     C        0.65010    0.09820    0.23690    1.000
    H237     H        0.65940    0.10940    0.20380    1.000
    C356     C        0.67740    0.07260    0.26740    1.000
    H238     H        0.70530    0.06720    0.25580    1.000
    C357     C        0.66290    0.05590    0.31380    1.000
    C358     C        0.62130    0.06180    0.33010    1.000
    H239     H        0.61080    0.04800    0.36090    1.000
    C359     C        0.59570    0.08820    0.30060    1.000
    H240     H        0.56780    0.09330    0.31210    1.000
    C360     C        0.69240    0.02980    0.34710    1.000
    O59      O        0.72780    0.02030    0.32810    1.000
    O60      O        0.68210    0.01750    0.39400    1.000
    N31      N        0.53140    0.77340    0.59960    1.000
    C361     C        0.52450    0.78910    0.55110    1.000
    H241     H        0.49680    0.78700    0.53730    1.000
    C362     C        0.55470    0.80850    0.51880    1.000
    H242     H        0.54800    0.81860    0.48420    1.000
    C363     C        0.59640    0.81240    0.54060    1.000
    C364     C        0.60470    0.79650    0.58990    1.000
    H243     H        0.63200    0.79880    0.60500    1.000
    C365     C        0.57170    0.77640    0.61830    1.000
    H244     H        0.57800    0.76450    0.65210    1.000
    C366     C        0.62880    0.83580    0.50970    1.000
    C367     C        0.62530    0.83960    0.45470    1.000
    H245     H        0.60440    0.82460    0.43550    1.000
    C368     C        0.65380    0.86630    0.42840    1.000
    H246     H        0.65220    0.86860    0.39080    1.000
    C369     C        0.68400    0.88920    0.45510    1.000
    C370     C        0.68840    0.88300    0.50860    1.000
    H247     H        0.70960    0.89780    0.52750    1.000
    C371     C        0.66150    0.85460    0.53650    1.000
    H248     H        0.66610    0.84890    0.57320    1.000
    C372     C        0.71010    0.92250    0.42730    1.000
    O61      O        0.70570    0.92780    0.37790    1.000
    O62      O        0.73380    0.94420    0.45540    1.000
    N32      N        0.70400    0.54050    0.86140    1.000
    C373     C        0.69950    0.53700    0.80770    1.000
    H249     H        0.71800    0.51960    0.78790    1.000
    C374     C        0.66700    0.55960    0.78140    1.000
    H250     H        0.66420    0.55730    0.74390    1.000
    C375     C        0.64060    0.58380    0.80800    1.000
    C376     C        0.64170    0.58530    0.86380    1.000
    H251     H        0.62170    0.60060    0.88410    1.000
    C377     C        0.67590    0.56190    0.88800    1.000
    H252     H        0.67790    0.56210    0.92570    1.000
    C378     C        0.60710    0.60880    0.78040    1.000
    C379     C        0.58970    0.59680    0.73200    1.000
    H253     H        0.59490    0.56920    0.71940    1.000
    C380     C        0.56610    0.62210    0.70240    1.000
    H254     H        0.55600    0.61230    0.66900    1.000
    C381     C        0.57070    0.67580    0.77010    1.000
    H255     H        0.56220    0.70210    0.78460    1.000
    C382     C        0.59800    0.64960    0.79920    1.000
    H256     H        0.61020    0.65940    0.83140    1.000
    C383     C        0.53140    0.69220    0.68630    1.000
    O63      O        0.52170    0.72800    0.70700    1.000
    O64      O        0.52090    0.68190    0.64020    1.000
    C384     C        0.55570    0.66320    0.71920    1.000
    Ni17     Ni       0.74245    0.51330    0.64040    1.000
    Ni18     Ni       0.98525    0.25671    0.39297    1.000
    Ni19     Ni       0.24418    0.01507    0.64029    1.000
    Ni20     Ni       0.01377    0.74338    0.89118    1.000
    N33      N        0.22520    0.52950    0.09860    1.000
    C385     C        0.22300    0.57040    0.11550    1.000
    H257     H        0.23530    0.57700    0.14890    1.000
    C386     C        0.20370    0.60330    0.08710    1.000
    H258     H        0.20370    0.63140    0.09970    1.000
    C387     C        0.18380    0.59150    0.03720    1.000
    C388     C        0.18540    0.55100    0.02020    1.000
    H259     H        0.17240    0.54280    0.98780    1.000
    C389     C        0.20670    0.52170    0.05160    1.000
    H260     H        0.20830    0.49370    0.03850    1.000
    C390     C        0.15930    0.62340    0.00690    1.000
    C391     C        0.14250    0.65910    0.03260    1.000
    H261     H        0.15000    0.66450    0.06850    1.000
    C392     C        0.11530    0.68660    0.00670    1.000
    H262     H        0.10180    0.70880    0.02550    1.000
    C393     C        0.10830    0.68060    0.95240    1.000
    C394     C        0.12570    0.64850    0.92560    1.000
    H263     H        0.12030    0.64510    0.88860    1.000
    C395     C        0.15280    0.61900    0.95300    1.000
    H264     H        0.16590    0.59680    0.93400    1.000
    C396     C        0.07540    0.70780    0.92620    1.000
    O65      O        0.05440    0.73300    0.95310    1.000
    O66      O        0.06890    0.70340    0.87630    1.000
    N34      N        0.79520    0.54120    0.67250    1.000
    C397     C        0.80090    0.53500    0.72590    1.000
    H265     H        0.78480    0.51490    0.74490    1.000
    C398     C        0.83170    0.55970    0.75160    1.000
    H266     H        0.83520    0.55660    0.78900    1.000
    C399     C        0.85650    0.58770    0.72570    1.000
    C400     C        0.85100    0.59100    0.67200    1.000
    H267     H        0.86830    0.60960    0.65210    1.000
    C401     C        0.82040    0.56750    0.64610    1.000
    H268     H        0.81730    0.57020    0.60870    1.000
    C402     C        0.88770    0.61080    0.75590    1.000
    C403     C        0.90410    0.60020    0.80380    1.000
    H269     H        0.89760    0.57330    0.81790    1.000
    C404     C        0.92930    0.62580    0.83260    1.000
    H270     H        0.93930    0.61640    0.86630    1.000
    C405     C        0.94090    0.66530    0.81430    1.000
    C406     C        0.92580    0.67820    0.76500    1.000
    H271     H        0.93440    0.70430    0.75020    1.000
    C407     C        0.89760    0.65230    0.73730    1.000
    H272     H        0.88490    0.66240    0.70550    1.000
    C408     C        0.96830    0.69380    0.84690    1.000
    O67      O        0.97830    0.68540    0.89480    1.000
    O68      O        0.97810    0.72930    0.82690    1.000
    N35      N        0.53110    0.72530    0.43300    1.000
    C409     C        0.52250    0.70740    0.47980    1.000
    H273     H        0.49440    0.70850    0.49220    1.000
    C410     C        0.55260    0.68680    0.51220    1.000
    H274     H        0.54500    0.67540    0.54580    1.000
    C411     C        0.59280    0.68400    0.49390    1.000
    C412     C        0.60420    0.70270    0.44510    1.000
    H275     H        0.63220    0.70210    0.43220    1.000
    C413     C        0.57070    0.72280    0.41630    1.000
    H276     H        0.57730    0.73520    0.38290    1.000
    C414     C        0.62430    0.65970    0.52510    1.000
    C415     C        0.61970    0.65420    0.57910    1.000
    H277     H        0.59820    0.66840    0.59830    1.000
    C416     C        0.64810    0.62640    0.60560    1.000
    H278     H        0.64420    0.62020    0.64220    1.000
    C417     C        0.68080    0.60900    0.57890    1.000
    C418     C        0.68720    0.61640    0.52600    1.000
    H279     H        0.70990    0.60350    0.50770    1.000
    C419     C        0.65910    0.64380    0.49880    1.000
    H280     H        0.66420    0.65110    0.46270    1.000
    C420     C        0.70720    0.57560    0.60530    1.000
    O69      O        0.70360    0.56860    0.65550    1.000
    O70      O        0.73240    0.55420    0.57860    1.000
    N36      N        0.04180    0.79590    0.85800    1.000
    C421     C        0.07000    0.81840    0.88300    1.000
    H281     H        0.07500    0.81310    0.91970    1.000
    C422     C        0.09200    0.84860    0.85860    1.000
    H282     H        0.11100    0.86510    0.87900    1.000
    C423     C        0.08810    0.85670    0.80470    1.000
    C424     C        0.06060    0.83280    0.77840    1.000
    H283     H        0.05690    0.83630    0.74110    1.000
    C425     C        0.03630    0.80150    0.80670    1.000
    H284     H        0.01620    0.78500    0.78810    1.000
    C426     C        0.11230    0.88830    0.77460    1.000
    C427     C        0.09910    0.90600    0.72920    1.000
    H285     H        0.07210    0.89920    0.71540    1.000
    C428     C        0.12550    0.93480    0.70180    1.000
    H286     H        0.11440    0.94980    0.67230    1.000
    C429     C        0.16560    0.94140    0.71640    1.000
    C430     C        0.17980    0.92300    0.76490    1.000
    H287     H        0.20670    0.93020    0.77860    1.000
    C431     C        0.15530    0.89520    0.79170    1.000
    H288     H        0.16620    0.88050    0.82150    1.000
    C432     C        0.19480    0.96910    0.68410    1.000
    O71      O        0.18470    0.98060    0.63890    1.000
    O72      O        0.22960    0.97920    0.70400    1.000
    N37      N        0.03120    0.22720    0.43490    1.000
    C433     C        0.07100    0.22390    0.41600    1.000
    H289     H        0.07690    0.23610    0.38230    1.000
    C434     C        0.10390    0.20400    0.44290    1.000
    H290     H        0.13100    0.20190    0.42720    1.000
    C435     C        0.09600    0.18710    0.49360    1.000
    C436     C        0.05380    0.19240    0.51280    1.000
    H291     H        0.04660    0.18260    0.54730    1.000
    C437     C        0.02450    0.21110    0.48280    1.000
    H292     H        0.99680    0.21300    0.49690    1.000
    C438     C        0.12810    0.16370    0.52360    1.000
    C439     C        0.12510    0.15870    0.57780    1.000
    H293     H        0.10430    0.17370    0.59720    1.000
    C440     C        0.15310    0.13100    0.60530    1.000
    H294     H        0.14980    0.12650    0.64250    1.000
    C441     C        0.18440    0.11090    0.57850    1.000
    C442     C        0.18850    0.11760    0.52430    1.000
    H295     H        0.20980    0.10320    0.50510    1.000
    C443     C        0.16180    0.14530    0.49700    1.000
    H296     H        0.16680    0.15150    0.46050    1.000
    C444     C        0.20980    0.07820    0.60700    1.000
    O73      O        0.23450    0.05570    0.57930    1.000
    O74      O        0.20570    0.07140    0.65490    1.000
    N38      N        0.20310    0.45900    0.17340    1.000
    C445     C        0.17460    0.43610    0.14670    1.000
    H297     H        0.17710    0.43460    0.10900    1.000
    C446     C        0.14200    0.41440    0.17030    1.000
    H298     H        0.12200    0.39950    0.14940    1.000
    C447     C        0.13900    0.41520    0.22690    1.000
    C448     C        0.16550    0.44030    0.25150    1.000
    H299     H        0.16290    0.44370    0.28900    1.000
    C449     C        0.19670    0.46190    0.22520    1.000
    H300     H        0.21460    0.47970    0.24540    1.000
    C450     C        0.10690    0.39000    0.25490    1.000
    C451     C        0.09820    0.34990    0.23690    1.000
    H301     H        0.10940    0.34060    0.20380    1.000
    C452     C        0.07260    0.32260    0.26740    1.000
    H302     H        0.06720    0.29470    0.25580    1.000
    C453     C        0.05590    0.33710    0.31380    1.000
    C454     C        0.06180    0.37870    0.33010    1.000
    H303     H        0.04800    0.38920    0.36090    1.000
    C455     C        0.08820    0.40430    0.30060    1.000
    H304     H        0.09330    0.43220    0.31210    1.000
    C456     C        0.02980    0.30760    0.34710    1.000
    O75      O        0.02030    0.27220    0.32810    1.000
    O76      O        0.01750    0.31790    0.39400    1.000
    N39      N        0.77340    0.46860    0.59960    1.000
    C457     C        0.78910    0.47550    0.55110    1.000
    H305     H        0.78700    0.50320    0.53730    1.000
    C458     C        0.80850    0.44530    0.51880    1.000
    H306     H        0.81860    0.45200    0.48420    1.000
    C459     C        0.81240    0.40360    0.54060    1.000
    C460     C        0.79650    0.39530    0.58990    1.000
    H307     H        0.79880    0.36800    0.60500    1.000
    C461     C        0.77640    0.42830    0.61830    1.000
    H308     H        0.76450    0.42200    0.65210    1.000
    C462     C        0.83580    0.37120    0.50970    1.000
    C463     C        0.83960    0.37470    0.45470    1.000
    H309     H        0.82460    0.39560    0.43550    1.000
    C464     C        0.86630    0.34620    0.42840    1.000
    H310     H        0.86860    0.34780    0.39080    1.000
    C465     C        0.88920    0.31600    0.45510    1.000
    C466     C        0.88300    0.31160    0.50860    1.000
    H311     H        0.89780    0.29040    0.52750    1.000
    C467     C        0.85460    0.33850    0.53650    1.000
    H312     H        0.84890    0.33390    0.57320    1.000
    C468     C        0.92250    0.28990    0.42730    1.000
    O77      O        0.92780    0.29430    0.37790    1.000
    O78      O        0.94420    0.26620    0.45540    1.000
    N40      N        0.54050    0.29600    0.86140    1.000
    C469     C        0.53700    0.30050    0.80770    1.000
    H313     H        0.51960    0.28200    0.78790    1.000
    C470     C        0.55960    0.33300    0.78140    1.000
    H314     H        0.55730    0.33580    0.74390    1.000
    C471     C        0.58380    0.35940    0.80800    1.000
    C472     C        0.58530    0.35830    0.86380    1.000
    H315     H        0.60060    0.37830    0.88410    1.000
    C473     C        0.56190    0.32410    0.88800    1.000
    H316     H        0.56210    0.32210    0.92570    1.000
    C474     C        0.60880    0.39290    0.78040    1.000
    C475     C        0.59680    0.41030    0.73200    1.000
    H317     H        0.56920    0.40510    0.71940    1.000
    C476     C        0.62210    0.43390    0.70240    1.000
    H318     H        0.61230    0.44400    0.66900    1.000
    C477     C        0.67580    0.42930    0.77010    1.000
    H319     H        0.70210    0.43780    0.78460    1.000
    C478     C        0.64960    0.40200    0.79920    1.000
    H320     H        0.65940    0.38980    0.83140    1.000
    C479     C        0.69220    0.46860    0.68630    1.000
    O79      O        0.72800    0.47830    0.70700    1.000
    O80      O        0.68190    0.47910    0.64020    1.000
    C480     C        0.66320    0.44430    0.71920    1.000
    Ni21     Ni       0.75755    0.98670    0.14040    1.000
    Ni22     Ni       0.51475    0.24329    0.89297    1.000
    Ni23     Ni       0.25582    0.48493    0.14029    1.000
    Ni24     Ni       0.48623    0.75662    0.39118    1.000
    N41      N        0.27480    0.97050    0.59860    1.000
    C481     C        0.27700    0.92960    0.61550    1.000
    H321     H        0.26470    0.92300    0.64890    1.000
    C482     C        0.29630    0.89670    0.58710    1.000
    H322     H        0.29630    0.86860    0.59970    1.000
    C483     C        0.31620    0.90850    0.53720    1.000
    C484     C        0.31460    0.94900    0.52020    1.000
    H323     H        0.32760    0.95720    0.48780    1.000
    C485     C        0.29330    0.97830    0.55160    1.000
    H324     H        0.29170    0.00630    0.53850    1.000
    C486     C        0.34070    0.87660    0.50690    1.000
    C487     C        0.35750    0.84090    0.53260    1.000
    H325     H        0.35000    0.83550    0.56850    1.000
    C488     C        0.38470    0.81340    0.50670    1.000
    H326     H        0.39820    0.79120    0.52550    1.000
    C489     C        0.39170    0.81940    0.45240    1.000
    C490     C        0.37430    0.85150    0.42560    1.000
    H327     H        0.37970    0.85490    0.38860    1.000
    C491     C        0.34720    0.88100    0.45300    1.000
    H328     H        0.33410    0.90320    0.43400    1.000
    C492     C        0.42460    0.79220    0.42620    1.000
    O81      O        0.44560    0.76700    0.45310    1.000
    O82      O        0.43110    0.79660    0.37630    1.000
    N42      N        0.70480    0.95880    0.17250    1.000
    C493     C        0.69910    0.96500    0.22590    1.000
    H329     H        0.71520    0.98510    0.24490    1.000
    C494     C        0.66830    0.94030    0.25160    1.000
    H330     H        0.66480    0.94340    0.28900    1.000
    C495     C        0.64350    0.91230    0.22570    1.000
    C496     C        0.64900    0.90900    0.17200    1.000
    H331     H        0.63170    0.89040    0.15210    1.000
    C497     C        0.67960    0.93250    0.14610    1.000
    H332     H        0.68270    0.92980    0.10870    1.000
    C498     C        0.61230    0.88920    0.25590    1.000
    C499     C        0.59590    0.89980    0.30380    1.000
    H333     H        0.60240    0.92670    0.31790    1.000
    C500     C        0.57070    0.87420    0.33260    1.000
    H334     H        0.56070    0.88360    0.36630    1.000
    C501     C        0.55910    0.83470    0.31430    1.000
    C502     C        0.57420    0.82180    0.26500    1.000
    H335     H        0.56560    0.79570    0.25020    1.000
    C503     C        0.60240    0.84770    0.23730    1.000
    H336     H        0.61510    0.83760    0.20550    1.000
    C504     C        0.53170    0.80620    0.34690    1.000
    O83      O        0.52170    0.81460    0.39480    1.000
    O84      O        0.52190    0.77070    0.32690    1.000
    N43      N        0.96890    0.77470    0.93300    1.000
    C505     C        0.97750    0.79260    0.97980    1.000
    H337     H        0.00560    0.79150    0.99220    1.000
    C506     C        0.94740    0.81320    0.01220    1.000
    H338     H        0.95500    0.82460    0.04580    1.000
    C507     C        0.90720    0.81600    0.99390    1.000
    C508     C        0.89580    0.79730    0.94510    1.000
    H339     H        0.86780    0.79790    0.93220    1.000
    C509     C        0.92930    0.77720    0.91630    1.000
    H340     H        0.92270    0.76480    0.88290    1.000
    C510     C        0.87570    0.84030    0.02510    1.000
    C511     C        0.88030    0.84580    0.07910    1.000
    H341     H        0.90180    0.83160    0.09830    1.000
    C512     C        0.85190    0.87360    0.10560    1.000
    H342     H        0.85580    0.87980    0.14220    1.000
    C513     C        0.81920    0.89100    0.07890    1.000
    C514     C        0.81280    0.88360    0.02600    1.000
    H343     H        0.79010    0.89650    0.00770    1.000
    C515     C        0.84090    0.85620    0.99880    1.000
    H344     H        0.83580    0.84890    0.96270    1.000
    C516     C        0.79280    0.92440    0.10530    1.000
    O85      O        0.79640    0.93140    0.15550    1.000
    O86      O        0.76760    0.94580    0.07860    1.000
    N44      N        0.45820    0.70410    0.35800    1.000
    C517     C        0.43000    0.68160    0.38300    1.000
    H345     H        0.42500    0.68690    0.41970    1.000
    C518     C        0.40800    0.65140    0.35860    1.000
    H346     H        0.38900    0.63490    0.37900    1.000
    C519     C        0.41190    0.64330    0.30470    1.000
    C520     C        0.43940    0.66720    0.27840    1.000
    H347     H        0.44310    0.66370    0.24110    1.000
    C521     C        0.46370    0.69850    0.30670    1.000
    H348     H        0.48380    0.71500    0.28810    1.000
    C522     C        0.38770    0.61170    0.27460    1.000
    C523     C        0.40090    0.59400    0.22920    1.000
    H349     H        0.42790    0.60080    0.21540    1.000
    C524     C        0.37450    0.56520    0.20180    1.000
    H350     H        0.38560    0.55020    0.17230    1.000
    C525     C        0.33440    0.55860    0.21640    1.000
    C526     C        0.32020    0.57700    0.26490    1.000
    H351     H        0.29330    0.56980    0.27860    1.000
    C527     C        0.34470    0.60480    0.29170    1.000
    H352     H        0.33380    0.61950    0.32150    1.000
    C528     C        0.30520    0.53090    0.18410    1.000
    O87      O        0.31530    0.51940    0.13890    1.000
    O88      O        0.27040    0.52080    0.20400    1.000
    N45      N        0.46880    0.27280    0.93490    1.000
    C529     C        0.42900    0.27610    0.91600    1.000
    H353     H        0.42310    0.26390    0.88230    1.000
    C530     C        0.39610    0.29600    0.94290    1.000
    H354     H        0.36900    0.29810    0.92720    1.000
    C531     C        0.40400    0.31290    0.99360    1.000
    C532     C        0.44620    0.30760    0.01280    1.000
    H355     H        0.45340    0.31740    0.04730    1.000
    C533     C        0.47550    0.28890    0.98280    1.000
    H356     H        0.50320    0.28700    0.99690    1.000
    C534     C        0.37190    0.33630    0.02360    1.000
    C535     C        0.37490    0.34130    0.07780    1.000
    H357     H        0.39570    0.32630    0.09720    1.000
    C536     C        0.34690    0.36900    0.10530    1.000
    H358     H        0.35020    0.37350    0.14250    1.000
    C537     C        0.31560    0.38910    0.07850    1.000
    C538     C        0.31150    0.38240    0.02430    1.000
    H359     H        0.29020    0.39680    0.00510    1.000
    C539     C        0.33820    0.35470    0.99700    1.000
    H360     H        0.33320    0.34850    0.96050    1.000
    C540     C        0.29020    0.42180    0.10700    1.000
    O89      O        0.26550    0.44430    0.07930    1.000
    O90      O        0.29430    0.42860    0.15490    1.000
    N46      N        0.29690    0.04100    0.67340    1.000
    C541     C        0.32540    0.06390    0.64670    1.000
    H361     H        0.32290    0.06540    0.60900    1.000
    C542     C        0.35800    0.08560    0.67030    1.000
    H362     H        0.37800    0.10050    0.64940    1.000
    C543     C        0.36100    0.08480    0.72690    1.000
    C544     C        0.33450    0.05970    0.75150    1.000
    H363     H        0.33710    0.05630    0.78900    1.000
    C545     C        0.30330    0.03810    0.72520    1.000
    H364     H        0.28540    0.02030    0.74540    1.000
    C546     C        0.39310    0.11000    0.75490    1.000
    C547     C        0.40180    0.15010    0.73690    1.000
    H365     H        0.39060    0.15940    0.70380    1.000
    C548     C        0.42740    0.17740    0.76740    1.000
    H366     H        0.43280    0.20530    0.75580    1.000
    C549     C        0.44410    0.16290    0.81380    1.000
    C550     C        0.43820    0.12130    0.83010    1.000
    H367     H        0.45200    0.11080    0.86090    1.000
    C551     C        0.41180    0.09570    0.80060    1.000
    H368     H        0.40670    0.06780    0.81210    1.000
    C552     C        0.47020    0.19240    0.84710    1.000
    O91      O        0.47970    0.22780    0.82810    1.000
    O92      O        0.48250    0.18210    0.89400    1.000
    N47      N        0.72660    0.03140    0.09960    1.000
    C553     C        0.71090    0.02450    0.05110    1.000
    H369     H        0.71300    0.99680    0.03730    1.000
    C554     C        0.69150    0.05470    0.01880    1.000
    H370     H        0.68140    0.04800    0.98420    1.000
    C555     C        0.68760    0.09640    0.04060    1.000
    C556     C        0.70350    0.10470    0.08990    1.000
    H371     H        0.70120    0.13200    0.10500    1.000
    C557     C        0.72360    0.07170    0.11830    1.000
    H372     H        0.73550    0.07800    0.15210    1.000
    C558     C        0.66420    0.12880    0.00970    1.000
    C559     C        0.66040    0.12530    0.95470    1.000
    H373     H        0.67540    0.10440    0.93550    1.000
    C560     C        0.63370    0.15380    0.92840    1.000
    H374     H        0.63140    0.15220    0.89080    1.000
    C561     C        0.61080    0.18400    0.95510    1.000
    C562     C        0.61700    0.18840    0.00860    1.000
    H375     H        0.60220    0.20960    0.02750    1.000
    C563     C        0.64540    0.16150    0.03650    1.000
    H376     H        0.65110    0.16610    0.07320    1.000
    C564     C        0.57750    0.21010    0.92730    1.000
    O93      O        0.57220    0.20570    0.87790    1.000
    O94      O        0.55580    0.23380    0.95540    1.000
    N48      N        0.95950    0.20400    0.36140    1.000
    C565     C        0.96300    0.19950    0.30770    1.000
    H377     H        0.98040    0.21800    0.28790    1.000
    C566     C        0.94040    0.16700    0.28140    1.000
    H378     H        0.94270    0.16420    0.24390    1.000
    C567     C        0.91620    0.14060    0.30800    1.000
    C568     C        0.91470    0.14170    0.36380    1.000
    H379     H        0.89940    0.12170    0.38410    1.000
    C569     C        0.93810    0.17590    0.38800    1.000
    H380     H        0.93790    0.17790    0.42570    1.000
    C570     C        0.89120    0.10710    0.28040    1.000
    C571     C        0.90320    0.08970    0.23200    1.000
    H381     H        0.93080    0.09490    0.21940    1.000
    C572     C        0.87790    0.06610    0.20240    1.000
    H382     H        0.88770    0.05600    0.16900    1.000
    C573     C        0.82420    0.07070    0.27010    1.000
    H383     H        0.79790    0.06220    0.28460    1.000
    C574     C        0.85040    0.09800    0.29920    1.000
    H384     H        0.84060    0.11020    0.33140    1.000
    C575     C        0.80780    0.03140    0.18630    1.000
    O95      O        0.77200    0.02170    0.20700    1.000
    O96      O        0.81810    0.02090    0.14020    1.000
    C576     C        0.83680    0.05570    0.21920    1.000
    Ni25     Ni       0.24245    0.01330    0.14040    1.000
    Ni26     Ni       0.48525    0.75671    0.89297    1.000
    Ni27     Ni       0.74418    0.51507    0.14029    1.000
    Ni28     Ni       0.51377    0.24338    0.39118    1.000
    N49      N        0.72520    0.02950    0.59860    1.000
    C577     C        0.72300    0.07040    0.61550    1.000
    H385     H        0.73530    0.07700    0.64890    1.000
    C578     C        0.70370    0.10330    0.58710    1.000
    H386     H        0.70370    0.13140    0.59970    1.000
    C579     C        0.68380    0.09150    0.53720    1.000
    C580     C        0.68540    0.05100    0.52020    1.000
    H387     H        0.67240    0.04280    0.48780    1.000
    C581     C        0.70670    0.02170    0.55160    1.000
    H388     H        0.70830    0.99370    0.53850    1.000
    C582     C        0.65930    0.12340    0.50690    1.000
    C583     C        0.64250    0.15910    0.53260    1.000
    H389     H        0.65000    0.16450    0.56850    1.000
    C584     C        0.61530    0.18660    0.50670    1.000
    H390     H        0.60180    0.20880    0.52550    1.000
    C585     C        0.60830    0.18060    0.45240    1.000
    C586     C        0.62570    0.14850    0.42560    1.000
    H391     H        0.62030    0.14510    0.38860    1.000
    C587     C        0.65280    0.11900    0.45300    1.000
    H392     H        0.66590    0.09680    0.43400    1.000
    C588     C        0.57540    0.20780    0.42620    1.000
    O97      O        0.55440    0.23300    0.45310    1.000
    O98      O        0.56890    0.20340    0.37630    1.000
    N50      N        0.29520    0.04120    0.17250    1.000
    C589     C        0.30090    0.03500    0.22590    1.000
    H393     H        0.28480    0.01490    0.24490    1.000
    C590     C        0.33170    0.05970    0.25160    1.000
    H394     H        0.33520    0.05660    0.28900    1.000
    C591     C        0.35650    0.08770    0.22570    1.000
    C592     C        0.35100    0.09100    0.17200    1.000
    H395     H        0.36830    0.10960    0.15210    1.000
    C593     C        0.32040    0.06750    0.14610    1.000
    H396     H        0.31730    0.07020    0.10870    1.000
    C594     C        0.38770    0.11080    0.25590    1.000
    C595     C        0.40410    0.10020    0.30380    1.000
    H397     H        0.39760    0.07330    0.31790    1.000
    C596     C        0.42930    0.12580    0.33260    1.000
    H398     H        0.43930    0.11640    0.36630    1.000
    C597     C        0.44090    0.16530    0.31430    1.000
    C598     C        0.42580    0.17820    0.26500    1.000
    H399     H        0.43440    0.20430    0.25020    1.000
    C599     C        0.39760    0.15230    0.23730    1.000
    H400     H        0.38490    0.16240    0.20550    1.000
    C600     C        0.46830    0.19380    0.34690    1.000
    O99      O        0.47830    0.18540    0.39480    1.000
    O100     O        0.47810    0.22930    0.32690    1.000
    N51      N        0.03110    0.22530    0.93300    1.000
    C601     C        0.02250    0.20740    0.97980    1.000
    H401     H        0.99440    0.20850    0.99220    1.000
    C602     C        0.05260    0.18680    0.01220    1.000
    H402     H        0.04500    0.17540    0.04580    1.000
    C603     C        0.09280    0.18400    0.99390    1.000
    C604     C        0.10420    0.20270    0.94510    1.000
    H403     H        0.13220    0.20210    0.93220    1.000
    C605     C        0.07070    0.22280    0.91630    1.000
    H404     H        0.07730    0.23520    0.88290    1.000
    C606     C        0.12430    0.15970    0.02510    1.000
    C607     C        0.11970    0.15420    0.07910    1.000
    H405     H        0.09820    0.16840    0.09830    1.000
    C608     C        0.14810    0.12640    0.10560    1.000
    H406     H        0.14420    0.12020    0.14220    1.000
    C609     C        0.18080    0.10900    0.07890    1.000
    C610     C        0.18720    0.11640    0.02600    1.000
    H407     H        0.20990    0.10350    0.00770    1.000
    C611     C        0.15910    0.14380    0.99880    1.000
    H408     H        0.16420    0.15110    0.96270    1.000
    C612     C        0.20720    0.07560    0.10530    1.000
    O101     O        0.20360    0.06860    0.15550    1.000
    O102     O        0.23240    0.05420    0.07860    1.000
    N52      N        0.54180    0.29590    0.35800    1.000
    C613     C        0.57000    0.31840    0.38300    1.000
    H409     H        0.57500    0.31310    0.41970    1.000
    C614     C        0.59200    0.34860    0.35860    1.000
    H410     H        0.61100    0.36510    0.37900    1.000
    C615     C        0.58810    0.35670    0.30470    1.000
    C616     C        0.56060    0.33280    0.27840    1.000
    H411     H        0.55690    0.33630    0.24110    1.000
    C617     C        0.53630    0.30150    0.30670    1.000
    H412     H        0.51620    0.28500    0.28810    1.000
    C618     C        0.61230    0.38830    0.27460    1.000
    C619     C        0.59910    0.40600    0.22920    1.000
    H413     H        0.57210    0.39920    0.21540    1.000
    C620     C        0.62550    0.43480    0.20180    1.000
    H414     H        0.61440    0.44980    0.17230    1.000
    C621     C        0.66560    0.44140    0.21640    1.000
    C622     C        0.67980    0.42300    0.26490    1.000
    H415     H        0.70670    0.43020    0.27860    1.000
    C623     C        0.65530    0.39520    0.29170    1.000
    H416     H        0.66620    0.38050    0.32150    1.000
    C624     C        0.69480    0.46910    0.18410    1.000
    O103     O        0.68470    0.48060    0.13890    1.000
    O104     O        0.72960    0.47920    0.20400    1.000
    N53      N        0.53120    0.72720    0.93490    1.000
    C625     C        0.57100    0.72390    0.91600    1.000
    H417     H        0.57690    0.73610    0.88230    1.000
    C626     C        0.60390    0.70400    0.94290    1.000
    H418     H        0.63100    0.70190    0.92720    1.000
    C627     C        0.59600    0.68710    0.99360    1.000
    C628     C        0.55380    0.69240    0.01280    1.000
    H419     H        0.54660    0.68260    0.04730    1.000
    C629     C        0.52450    0.71110    0.98280    1.000
    H420     H        0.49680    0.71300    0.99690    1.000
    C630     C        0.62810    0.66370    0.02360    1.000
    C631     C        0.62510    0.65870    0.07780    1.000
    H421     H        0.60430    0.67370    0.09720    1.000
    C632     C        0.65310    0.63100    0.10530    1.000
    H422     H        0.64980    0.62650    0.14250    1.000
    C633     C        0.68440    0.61090    0.07850    1.000
    C634     C        0.68850    0.61760    0.02430    1.000
    H423     H        0.70980    0.60320    0.00510    1.000
    C635     C        0.66180    0.64530    0.99700    1.000
    H424     H        0.66680    0.65150    0.96050    1.000
    C636     C        0.70980    0.57820    0.10700    1.000
    O105     O        0.73450    0.55570    0.07930    1.000
    O106     O        0.70570    0.57140    0.15490    1.000
    N54      N        0.70310    0.95900    0.67340    1.000
    C637     C        0.67460    0.93610    0.64670    1.000
    H425     H        0.67710    0.93460    0.60900    1.000
    C638     C        0.64200    0.91440    0.67030    1.000
    H426     H        0.62200    0.89950    0.64940    1.000
    C639     C        0.63900    0.91520    0.72690    1.000
    C640     C        0.66550    0.94030    0.75150    1.000
    H427     H        0.66290    0.94370    0.78900    1.000
    C641     C        0.69670    0.96190    0.72520    1.000
    H428     H        0.71460    0.97970    0.74540    1.000
    C642     C        0.60690    0.89000    0.75490    1.000
    C643     C        0.59820    0.84990    0.73690    1.000
    H429     H        0.60940    0.84060    0.70380    1.000
    C644     C        0.57260    0.82260    0.76740    1.000
    H430     H        0.56720    0.79470    0.75580    1.000
    C645     C        0.55590    0.83710    0.81380    1.000
    C646     C        0.56180    0.87870    0.83010    1.000
    H431     H        0.54800    0.88920    0.86090    1.000
    C647     C        0.58820    0.90430    0.80060    1.000
    H432     H        0.59330    0.93220    0.81210    1.000
    C648     C        0.52980    0.80760    0.84710    1.000
    O107     O        0.52030    0.77220    0.82810    1.000
    O108     O        0.51750    0.81790    0.89400    1.000
    N55      N        0.27340    0.96860    0.09960    1.000
    C649     C        0.28910    0.97550    0.05110    1.000
    H433     H        0.28700    0.00320    0.03730    1.000
    C650     C        0.30850    0.94530    0.01880    1.000
    H434     H        0.31860    0.95200    0.98420    1.000
    C651     C        0.31240    0.90360    0.04060    1.000
    C652     C        0.29650    0.89530    0.08990    1.000
    H435     H        0.29880    0.86800    0.10500    1.000
    C653     C        0.27640    0.92830    0.11830    1.000
    H436     H        0.26450    0.92200    0.15210    1.000
    C654     C        0.33580    0.87120    0.00970    1.000
    C655     C        0.33960    0.87470    0.95470    1.000
    H437     H        0.32460    0.89560    0.93550    1.000
    C656     C        0.36630    0.84620    0.92840    1.000
    H438     H        0.36860    0.84780    0.89080    1.000
    C657     C        0.38920    0.81600    0.95510    1.000
    C658     C        0.38300    0.81160    0.00860    1.000
    H439     H        0.39780    0.79040    0.02750    1.000
    C659     C        0.35460    0.83850    0.03650    1.000
    H440     H        0.34890    0.83390    0.07320    1.000
    C660     C        0.42250    0.78990    0.92730    1.000
    O109     O        0.42780    0.79430    0.87790    1.000
    O110     O        0.44420    0.76620    0.95540    1.000
    N56      N        0.04050    0.79600    0.36140    1.000
    C661     C        0.03700    0.80050    0.30770    1.000
    H441     H        0.01960    0.78200    0.28790    1.000
    C662     C        0.05960    0.83300    0.28140    1.000
    H442     H        0.05730    0.83580    0.24390    1.000
    C663     C        0.08380    0.85940    0.30800    1.000
    C664     C        0.08530    0.85830    0.36380    1.000
    H443     H        0.10060    0.87830    0.38410    1.000
    C665     C        0.06190    0.82410    0.38800    1.000
    H444     H        0.06210    0.82210    0.42570    1.000
    C666     C        0.10880    0.89290    0.28040    1.000
    C667     C        0.09680    0.91030    0.23200    1.000
    H445     H        0.06920    0.90510    0.21940    1.000
    C668     C        0.12210    0.93390    0.20240    1.000
    H446     H        0.11230    0.94400    0.16900    1.000
    C669     C        0.17580    0.92930    0.27010    1.000
    H447     H        0.20210    0.93780    0.28460    1.000
    C670     C        0.14960    0.90200    0.29920    1.000
    H448     H        0.15940    0.88980    0.33140    1.000
    C671     C        0.19220    0.96860    0.18630    1.000
    O111     O        0.22800    0.97830    0.20700    1.000
    O112     O        0.18190    0.97910    0.14020    1.000
    C672     C        0.16320    0.94430    0.21920    1.000
    Ni29     Ni       0.25755    0.48670    0.64040    1.000
    Ni30     Ni       0.01475    0.74329    0.39297    1.000
    Ni31     Ni       0.75582    0.98493    0.64029    1.000
    Ni32     Ni       0.98623    0.25662    0.89118    1.000
    N57      N        0.77480    0.47050    0.09860    1.000
    C673     C        0.77700    0.42960    0.11550    1.000
    H449     H        0.76470    0.42300    0.14890    1.000
    C674     C        0.79630    0.39670    0.08710    1.000
    H450     H        0.79630    0.36860    0.09970    1.000
    C675     C        0.81620    0.40850    0.03720    1.000
    C676     C        0.81460    0.44900    0.02020    1.000
    H451     H        0.82760    0.45720    0.98780    1.000
    C677     C        0.79330    0.47830    0.05160    1.000
    H452     H        0.79170    0.50630    0.03850    1.000
    C678     C        0.84070    0.37660    0.00690    1.000
    C679     C        0.85750    0.34090    0.03260    1.000
    H453     H        0.85000    0.33550    0.06850    1.000
    C680     C        0.88470    0.31340    0.00670    1.000
    H454     H        0.89820    0.29120    0.02550    1.000
    C681     C        0.89170    0.31940    0.95240    1.000
    C682     C        0.87430    0.35150    0.92560    1.000
    H455     H        0.87970    0.35490    0.88860    1.000
    C683     C        0.84720    0.38100    0.95300    1.000
    H456     H        0.83410    0.40320    0.93400    1.000
    C684     C        0.92460    0.29220    0.92620    1.000
    O113     O        0.94560    0.26700    0.95310    1.000
    O114     O        0.93110    0.29660    0.87630    1.000
    N58      N        0.20480    0.45880    0.67250    1.000
    C685     C        0.19910    0.46500    0.72590    1.000
    H457     H        0.21520    0.48510    0.74490    1.000
    C686     C        0.16830    0.44030    0.75160    1.000
    H458     H        0.16480    0.44340    0.78900    1.000
    C687     C        0.14350    0.41230    0.72570    1.000
    C688     C        0.14900    0.40900    0.67200    1.000
    H459     H        0.13170    0.39040    0.65210    1.000
    C689     C        0.17960    0.43250    0.64610    1.000
    H460     H        0.18270    0.42980    0.60870    1.000
    C690     C        0.11230    0.38920    0.75590    1.000
    C691     C        0.09590    0.39980    0.80380    1.000
    H461     H        0.10240    0.42670    0.81790    1.000
    C692     C        0.07070    0.37420    0.83260    1.000
    H462     H        0.06070    0.38360    0.86630    1.000
    C693     C        0.05910    0.33470    0.81430    1.000
    C694     C        0.07420    0.32180    0.76500    1.000
    H463     H        0.06560    0.29570    0.75020    1.000
    C695     C        0.10240    0.34770    0.73730    1.000
    H464     H        0.11510    0.33760    0.70550    1.000
    C696     C        0.03170    0.30620    0.84690    1.000
    O115     O        0.02170    0.31460    0.89480    1.000
    O116     O        0.02190    0.27070    0.82690    1.000
    N59      N        0.46890    0.27470    0.43300    1.000
    C697     C        0.47750    0.29260    0.47980    1.000
    H465     H        0.50560    0.29150    0.49220    1.000
    C698     C        0.44740    0.31320    0.51220    1.000
    H466     H        0.45500    0.32460    0.54580    1.000
    C699     C        0.40720    0.31600    0.49390    1.000
    C700     C        0.39580    0.29730    0.44510    1.000
    H467     H        0.36780    0.29790    0.43220    1.000
    C701     C        0.42930    0.27720    0.41630    1.000
    H468     H        0.42270    0.26480    0.38290    1.000
    C702     C        0.37570    0.34030    0.52510    1.000
    C703     C        0.38030    0.34580    0.57910    1.000
    H469     H        0.40180    0.33160    0.59830    1.000
    C704     C        0.35190    0.37360    0.60560    1.000
    H470     H        0.35580    0.37980    0.64220    1.000
    C705     C        0.31920    0.39100    0.57890    1.000
    C706     C        0.31280    0.38360    0.52600    1.000
    H471     H        0.29010    0.39650    0.50770    1.000
    C707     C        0.34090    0.35620    0.49880    1.000
    H472     H        0.33580    0.34890    0.46270    1.000
    C708     C        0.29280    0.42440    0.60530    1.000
    O117     O        0.29640    0.43140    0.65550    1.000
    O118     O        0.26760    0.44580    0.57860    1.000
    N60      N        0.95820    0.20410    0.85800    1.000
    C709     C        0.93000    0.18160    0.88300    1.000
    H473     H        0.92500    0.18690    0.91970    1.000
    C710     C        0.90800    0.15140    0.85860    1.000
    H474     H        0.88900    0.13490    0.87900    1.000
    C711     C        0.91190    0.14330    0.80470    1.000
    C712     C        0.93940    0.16720    0.77840    1.000
    H475     H        0.94310    0.16370    0.74110    1.000
    C713     C        0.96370    0.19850    0.80670    1.000
    H476     H        0.98380    0.21500    0.78810    1.000
    C714     C        0.88770    0.11170    0.77460    1.000
    C715     C        0.90090    0.09400    0.72920    1.000
    H477     H        0.92790    0.10080    0.71540    1.000
    C716     C        0.87450    0.06520    0.70180    1.000
    H478     H        0.88560    0.05020    0.67230    1.000
    C717     C        0.83440    0.05860    0.71640    1.000
    C718     C        0.82020    0.07700    0.76490    1.000
    H479     H        0.79330    0.06980    0.77860    1.000
    C719     C        0.84470    0.10480    0.79170    1.000
    H480     H        0.83380    0.11950    0.82150    1.000
    C720     C        0.80520    0.03090    0.68410    1.000
    O119     O        0.81530    0.01940    0.63890    1.000
    O120     O        0.77040    0.02080    0.70400    1.000
    N61      N        0.96880    0.77280    0.43490    1.000
    C721     C        0.92900    0.77610    0.41600    1.000
    H481     H        0.92310    0.76390    0.38230    1.000
    C722     C        0.89610    0.79600    0.44290    1.000
    H482     H        0.86900    0.79810    0.42720    1.000
    C723     C        0.90400    0.81290    0.49360    1.000
    C724     C        0.94620    0.80760    0.51280    1.000
    H483     H        0.95340    0.81740    0.54730    1.000
    C725     C        0.97550    0.78890    0.48280    1.000
    H484     H        0.00320    0.78700    0.49690    1.000
    C726     C        0.87190    0.83630    0.52360    1.000
    C727     C        0.87490    0.84130    0.57780    1.000
    H485     H        0.89570    0.82630    0.59720    1.000
    C728     C        0.84690    0.86900    0.60530    1.000
    H486     H        0.85020    0.87350    0.64250    1.000
    C729     C        0.81560    0.88910    0.57850    1.000
    C730     C        0.81150    0.88240    0.52430    1.000
    H487     H        0.79020    0.89680    0.50510    1.000
    C731     C        0.83820    0.85470    0.49700    1.000
    H488     H        0.83320    0.84850    0.46050    1.000
    C732     C        0.79020    0.92180    0.60700    1.000
    O121     O        0.76550    0.94430    0.57930    1.000
    O122     O        0.79430    0.92860    0.65490    1.000
    N62      N        0.79690    0.54100    0.17340    1.000
    C733     C        0.82540    0.56390    0.14670    1.000
    H489     H        0.82290    0.56540    0.10900    1.000
    C734     C        0.85800    0.58560    0.17030    1.000
    H490     H        0.87800    0.60050    0.14940    1.000
    C735     C        0.86100    0.58480    0.22690    1.000
    C736     C        0.83450    0.55970    0.25150    1.000
    H491     H        0.83710    0.55630    0.28900    1.000
    C737     C        0.80330    0.53810    0.22520    1.000
    H492     H        0.78540    0.52030    0.24540    1.000
    C738     C        0.89310    0.61000    0.25490    1.000
    C739     C        0.90180    0.65010    0.23690    1.000
    H493     H        0.89060    0.65940    0.20380    1.000
    C740     C        0.92740    0.67740    0.26740    1.000
    H494     H        0.93280    0.70530    0.25580    1.000
    C741     C        0.94410    0.66290    0.31380    1.000
    C742     C        0.93820    0.62130    0.33010    1.000
    H495     H        0.95200    0.61080    0.36090    1.000
    C743     C        0.91180    0.59570    0.30060    1.000
    H496     H        0.90670    0.56780    0.31210    1.000
    C744     C        0.97020    0.69240    0.34710    1.000
    O123     O        0.97970    0.72780    0.32810    1.000
    O124     O        0.98250    0.68210    0.39400    1.000
    N63      N        0.22660    0.53140    0.59960    1.000
    C745     C        0.21090    0.52450    0.55110    1.000
    H497     H        0.21300    0.49680    0.53730    1.000
    C746     C        0.19150    0.55470    0.51880    1.000
    H498     H        0.18140    0.54800    0.48420    1.000
    C747     C        0.18760    0.59640    0.54060    1.000
    C748     C        0.20350    0.60470    0.58990    1.000
    H499     H        0.20120    0.63200    0.60500    1.000
    C749     C        0.22360    0.57170    0.61830    1.000
    H500     H        0.23550    0.57800    0.65210    1.000
    C750     C        0.16420    0.62880    0.50970    1.000
    C751     C        0.16040    0.62530    0.45470    1.000
    H501     H        0.17540    0.60440    0.43550    1.000
    C752     C        0.13370    0.65380    0.42840    1.000
    H502     H        0.13140    0.65220    0.39080    1.000
    C753     C        0.11080    0.68400    0.45510    1.000
    C754     C        0.11700    0.68840    0.50860    1.000
    H503     H        0.10220    0.70960    0.52750    1.000
    C755     C        0.14540    0.66150    0.53650    1.000
    H504     H        0.15110    0.66610    0.57320    1.000
    C756     C        0.07750    0.71010    0.42730    1.000
    O125     O        0.07220    0.70570    0.37790    1.000
    O126     O        0.05580    0.73380    0.45540    1.000
    N64      N        0.45950    0.70400    0.86140    1.000
    C757     C        0.46300    0.69950    0.80770    1.000
    H505     H        0.48040    0.71800    0.78790    1.000
    C758     C        0.44040    0.66700    0.78140    1.000
    H506     H        0.44270    0.66420    0.74390    1.000
    C759     C        0.41620    0.64060    0.80800    1.000
    C760     C        0.41470    0.64170    0.86380    1.000
    H507     H        0.39940    0.62170    0.88410    1.000
    C761     C        0.43810    0.67590    0.88800    1.000
    H508     H        0.43790    0.67790    0.92570    1.000
    C762     C        0.39120    0.60710    0.78040    1.000
    C763     C        0.40320    0.58970    0.73200    1.000
    H509     H        0.43080    0.59490    0.71940    1.000
    C764     C        0.37790    0.56610    0.70240    1.000
    H510     H        0.38770    0.55600    0.66900    1.000
    C765     C        0.32420    0.57070    0.77010    1.000
    H511     H        0.29790    0.56220    0.78460    1.000
    C766     C        0.35040    0.59800    0.79920    1.000
    H512     H        0.34060    0.61020    0.83140    1.000
    C767     C        0.30780    0.53140    0.68630    1.000
    O127     O        0.27200    0.52170    0.70700    1.000
    O128     O        0.31810    0.52090    0.64020    1.000
    C768     C        0.33680    0.55570    0.71920    1.000
