data_functionalizedCrystal
_audit_creation_method	'EQeq! by Chris Wilmer'
_symmetry_space_group_name_H-M	'P1'
_symmetry_Int_Tables_number	1
_symmetry_cell_setting	triclinic
loop_
_symmetry_equiv_pos_as_xyz
  x,y,z
_cell_length_a	7.151
_cell_length_b	24.8988
_cell_length_c	28.6097
_cell_angle_alpha	90
_cell_angle_beta	93.406
_cell_angle_gamma	90
loop_
_atom_site_label
_atom_site_type_symbol
_atom_site_fract_x
_atom_site_fract_y
_atom_site_fract_z
_atom_site_charge
Mof_C 	C 	0.338	0.5046	0.8114	0.194
Mof_C 	C 	0.3951	0.465	0.8495	0.349
Mof_C 	C 	0.5787	0.4659	0.8689	0.633
Mof_H 	H 	0.6647	0.4899	0.8575	-0.305
Mof_C 	C 	0.6332	0.4316	0.9049	-0.432
Mof_H 	H 	0.7555	0.4332	0.9178	0.178
Mof_C 	C 	0.5093	0.3947	0.9224	0.093
Mof_C 	C 	0.3254	0.3938	0.9028	0.096
Mof_H 	H 	0.2399	0.3693	0.9137	-0.011
Mof_C 	C 	0.2706	0.4287	0.8675	-0.486
Mof_H 	H 	0.147	0.4281	0.8554	0.215
Mof_C 	C 	0.5623	0.3577	0.9623	0.124
Mof_C 	C 	0.4558	0.3606	0.0014	-0.147
Mof_H 	H 	0.3542	0.384	0.001	0.081
Mof_C 	C 	0.497	0.3299	0.0405	0.152
Mof_C 	C 	0.3855	0.34	0.0829	-0.271
Mof_C 	C 	0.1899	0.3389	0.0776	-0.027
Mof_H 	H 	0.1305	0.3302	0.0488	0.04
Mof_C 	C 	0.083	0.3509	0.1161	0.206
Mof_H 	H 	0.953	0.3498	0.1126	-0.057
Mof_C 	C 	0.1671	0.3641	0.1582	-0.111
Mof_C 	C 	0.055	0.3825	0.1975	-0.029
Mof_C 	C 	0.3602	0.365	0.1632	-0.789
Mof_H 	H 	0.4182	0.3739	0.1921	0.22
Mof_C 	C 	0.4676	0.3533	0.127	0.582
Mof_H 	H 	0.5974	0.3541	0.1316	-0.121
Mof_C 	C 	0.644	0.2925	0.0414	0.014
Mof_C 	C 	0.6881	0.2568	0.08	-0.12
Mof_H 	H 	0.6166	0.2585	0.1061	-0.004
Mof_C 	C 	0.8284	0.2212	0.0798	-0.153
Mof_H 	H 	0.8535	0.1996	0.106	-0.053
Mof_C 	C 	0.941	0.2156	0.0403	0.012
Mof_C 	C 	0.9031	0.2507	0.0013	-0.019
Mof_C 	C 	0.7531	0.2885	0.0018	-0.053
Mof_C 	C 	0.7154	0.3226	0.9625	-0.03
Mof_C 	C 	0.8289	0.3165	0.9225	-0.037
Mof_H 	H 	0.8044	0.3382	0.8964	-0.069
Mof_C 	C 	0.9691	0.2804	0.9222	-0.085
Mof_H 	H 	0.0386	0.278	0.8958	-0.043
Mof_C 	C 	0.014	0.2457	0.9609	-0.025
Mof_C 	C 	0.1633	0.2093	0.9621	0.303
Mof_C 	C 	0.1981	0.178	0.0006	-0.165
Mof_H 	H 	0.297	0.1538	0.0008	0.094
Mof_C 	C 	0.094	0.1807	0.0392	0.463
Mof_C 	C 	0.1391	0.1399	0.0778	-0.115
Mof_C 	C 	0.0028	0.107	0.0954	-0.076
Mof_H 	H 	0.8778	0.1124	0.0856	0.054
Mof_C 	C 	0.0493	0.0662	0.1273	0.174
Mof_H 	H 	0.9564	0.0437	0.1375	0.059
Mof_C 	C 	0.232	0.0593	0.1435	0.04
Mof_C 	C 	0.2818	0.0178	0.1813	0.315
Mof_C 	C 	0.3699	0.0916	0.1286	-0.288
Mof_H 	H 	0.4937	0.0868	0.1397	0.127
Mof_C 	C 	0.3216	0.1329	0.0959	0.084
Mof_H 	H 	0.4148	0.1557	0.0863	-0.012
Mof_C 	C 	0.2767	0.1996	0.9204	-0.253
Mof_C 	C 	0.4718	0.2004	0.9258	0.002
Mof_H 	H 	0.5305	0.2125	0.9537	0.032
Mof_C 	C 	0.5767	0.1837	0.8905	0.076
Mof_H 	H 	0.7067	0.1852	0.8939	0
Mof_C 	C 	0.4915	0.1649	0.8501	-0.133
Mof_C 	C 	0.6062	0.1418	0.8126	0.234
Mof_C 	C 	0.2994	0.165	0.8417	-0.631
Mof_H 	H 	0.2436	0.1534	0.8133	0.126
Mof_C 	C 	0.194	0.1829	0.8774	0.494
Mof_H 	H 	0.0642	0.1839	0.8727	-0.08
Mof_Cd	Cd	0.19646	0.57891	0.7462	0.485
Mof_Cd	Cd	0.65257	0.53774	0.73502	0.434
Mof_O 	O 	0.1189	0.40704	0.23213	-0.232
Mof_O 	O 	0.8833	0.3675	0.19322	-0.25
Mof_O 	O 	0.7786	0.146	0.81681	-0.258
Mof_O 	O 	0.5276	0.113	0.78014	-0.274
Mof_O 	O 	0.4498	0.0191	0.197	-0.289
Mof_O 	O 	0.1712	0.5007	0.7972	-0.265
Mof_O 	O 	0.4496	0.5346	0.79352	-0.271
Mof_O 	O 	0.1635	0.9819	0.18858	-0.283
Mof_C 	C 	0.986	0.1552	0.1184	-0.002
Mof_C 	C 	0.8861	0.1105	0.1319	0.017
Mof_H 	H 	0.7567	0.1093	0.1265	0.013
Mof_C 	C 	0.98	0.0675	0.1536	-0.27
Mof_H 	H 	0.9136	0.0375	0.1627	0.106
Mof_C 	C 	0.174	0.0693	0.1617	-0.105
Mof_C 	C 	0.2731	0.114	0.1481	0.151
Mof_H 	H 	0.4025	0.1152	0.1536	0.044
Mof_C 	C 	0.179	0.157	0.1265	-0.113
Mof_H 	H 	0.2456	0.187	0.1174	0.055
Mof_C 	C 	0.343	0.4897	0.8027	0.097
Mof_C 	C 	0.469	0.4532	0.8325	-0.638
Mof_C 	C 	0.655	0.4624	0.848	-0.235
Mof_H 	H 	0.7107	0.4951	0.8416	0.313
Mof_C 	C 	0.758	0.4236	0.8727	-0.003
Mof_H 	H 	0.8821	0.4301	0.883	0.008
Mof_C 	C 	0.675	0.3749	0.8819	0.146
Mof_C 	C 	0.489	0.3651	0.8666	-0.391
Mof_H 	H 	0.4338	0.3323	0.8726	0.161
Mof_C 	C 	0.389	0.4046	0.8422	0.496
Mof_H 	H 	0.2644	0.3983	0.8323	-0.085
Mof_C 	C 	0.615	0.3426	0.9764	0.025
Mof_H 	H 	0.5501	0.371	0.9619	-0.075
Mof_C 	C 	0.572	0.3272	0.0215	-0.136
Mof_H 	H 	0.4816	0.3466	0.0364	0.038
Mof_C 	C 	0.66	0.283	0.045	0.013
Mof_C 	C 	0.464	0.2939	0.1162	-0.056
Mof_C 	C 	0.278	0.2959	0.1011	0.203
Mof_H 	H 	0.2379	0.281	0.0725	-0.041
Mof_C 	C 	0.15	0.3201	0.1288	-0.352
Mof_H 	H 	0.0232	0.3202	0.1192	0.106
Mof_C 	C 	0.21	0.3443	0.1707	0.315
Mof_C 	C 	0.052	0.367	0.196	0.195
Mof_C 	C 	0.396	0.3416	0.1868	0.547
Mof_H 	H 	0.4373	0.357	0.2152	-0.217
Mof_C 	C 	0.518	0.3153	0.1592	-0.42
Mof_H 	H 	0.6422	0.3119	0.1701	0.2
Mof_C 	C 	0.804	0.2584	0.0217	0.035
Mof_C 	C 	0.619	0.2663	0.0904	0.128
Mof_C 	C 	0.727	0.2252	0.111	0.003
Mof_H 	H 	0.6976	0.2141	0.1407	0.026
Mof_C 	C 	0.91	0.2173	0.045	0.021
Mof_C 	C 	0.848	0.2747	0.9767	0.092
Mof_C 	C 	0.753	0.3162	0.9526	-0.039
Mof_C 	C 	0.931	0.306	0.8867	-0.091
Mof_H 	H 	0.9574	0.3162	0.8566	0.064
Mof_C 	C 	0.784	0.3312	0.9069	0.132
Mof_C 	C 	0.043	0.266	0.9086	0.19
Mof_C 	C 	0.995	0.251	0.9535	-0.063
Mof_C 	C 	0.084	0.2056	0.9746	-0.033
Mof_H 	H 	0.1764	0.1878	0.9591	-0.081
Mof_C 	C 	0.877	0.1989	0.0909	0.185
Mof_C 	C 	0.034	0.1873	0.0187	-0.374
Mof_H 	H 	0.0833	0.1551	0.0306	-0.046
Mof_C 	C 	0.19	0.2393	0.8821	-0.082
Mof_C 	C 	0.376	0.2376	0.8985	0.118
Mof_H 	H 	0.4148	0.2539	0.9266	-0.009
Mof_C 	C 	0.503	0.211	0.8719	-0.184
Mof_H 	H 	0.6291	0.2153	0.8805	0.073
Mof_C 	C 	0.455	0.1779	0.8328	0.272
Mof_C 	C 	0.265	0.1844	0.8159	0.473
Mof_H 	H 	0.227	0.17	0.7869	-0.163
Mof_C 	C 	0.134	0.2117	0.8417	-0.362
Mof_H 	H 	0.0078	0.2113	0.8315	0.177
Mof_C 	C 	0.662	0.0046	0.6886	0.192
Mof_C 	C 	0.6049	0.965	0.6505	0.349
Mof_C 	C 	0.4213	0.9659	0.6311	0.634
Mof_H 	H 	0.3353	0.9899	0.6425	-0.307
Mof_C 	C 	0.3668	0.9316	0.5951	-0.435
Mof_H 	H 	0.2445	0.9332	0.5822	0.177
Mof_C 	C 	0.4907	0.8947	0.5776	0.093
Mof_C 	C 	0.6746	0.8938	0.5972	0.096
Mof_H 	H 	0.7601	0.8693	0.5863	-0.011
Mof_C 	C 	0.7294	0.9287	0.6325	-0.487
Mof_H 	H 	0.853	0.9281	0.6446	0.215
Mof_C 	C 	0.4377	0.8577	0.5377	0.125
Mof_C 	C 	0.5442	0.8606	0.4986	-0.147
Mof_H 	H 	0.6458	0.884	0.499	0.081
Mof_C 	C 	0.503	0.8299	0.4595	0.152
Mof_C 	C 	0.6145	0.84	0.4171	-0.272
Mof_C 	C 	0.8101	0.8389	0.4224	-0.026
Mof_H 	H 	0.8695	0.8302	0.4512	0.04
Mof_C 	C 	0.917	0.8509	0.3839	0.206
Mof_H 	H 	0.047	0.8498	0.3874	-0.057
Mof_C 	C 	0.8329	0.8641	0.3418	-0.112
Mof_C 	C 	0.945	0.8825	0.3025	-0.029
Mof_C 	C 	0.6398	0.865	0.3368	-0.792
Mof_H 	H 	0.5818	0.8739	0.3079	0.221
Mof_C 	C 	0.5324	0.8533	0.373	0.583
Mof_H 	H 	0.4026	0.8541	0.3684	-0.121
Mof_C 	C 	0.356	0.7925	0.4586	0.014
Mof_C 	C 	0.3119	0.7568	0.42	-0.12
Mof_H 	H 	0.3834	0.7585	0.3939	-0.004
Mof_C 	C 	0.1716	0.7212	0.4202	-0.153
Mof_H 	H 	0.1465	0.6996	0.394	-0.053
Mof_C 	C 	0.059	0.7156	0.4597	0.012
Mof_C 	C 	0.0969	0.7507	0.4987	-0.02
Mof_C 	C 	0.2469	0.7885	0.4982	-0.053
Mof_C 	C 	0.2846	0.8226	0.5375	-0.03
Mof_C 	C 	0.1711	0.8165	0.5775	-0.037
Mof_H 	H 	0.1956	0.8382	0.6036	-0.069
Mof_C 	C 	0.0309	0.7804	0.5778	-0.085
Mof_H 	H 	0.9614	0.778	0.6042	-0.043
Mof_C 	C 	0.986	0.7457	0.5391	-0.026
Mof_C 	C 	0.8367	0.7093	0.5379	0.304
Mof_C 	C 	0.8019	0.678	0.4994	-0.165
Mof_H 	H 	0.703	0.6538	0.4992	0.094
Mof_C 	C 	0.906	0.6807	0.4608	0.463
Mof_C 	C 	0.8609	0.6399	0.4222	-0.115
Mof_C 	C 	0.9972	0.607	0.4046	-0.076
Mof_H 	H 	0.1222	0.6124	0.4144	0.054
Mof_C 	C 	0.9507	0.5662	0.3727	0.176
Mof_H 	H 	0.0436	0.5437	0.3625	0.059
Mof_C 	C 	0.768	0.5593	0.3565	0.041
Mof_C 	C 	0.7182	0.5178	0.3187	0.316
Mof_C 	C 	0.6301	0.5916	0.3714	-0.29
Mof_H 	H 	0.5063	0.5868	0.3603	0.127
Mof_C 	C 	0.6784	0.6329	0.4041	0.084
Mof_H 	H 	0.5852	0.6557	0.4137	-0.012
Mof_C 	C 	0.7233	0.6996	0.5796	-0.253
Mof_C 	C 	0.5282	0.7004	0.5742	0.002
Mof_H 	H 	0.4695	0.7125	0.5463	0.032
Mof_C 	C 	0.4233	0.6837	0.6095	0.076
Mof_H 	H 	0.2933	0.6852	0.6061	0
Mof_C 	C 	0.5085	0.6649	0.6499	-0.133
Mof_C 	C 	0.3938	0.6418	0.6874	0.234
Mof_C 	C 	0.7006	0.665	0.6583	-0.632
Mof_H 	H 	0.7564	0.6534	0.6867	0.127
Mof_C 	C 	0.806	0.6829	0.6226	0.495
Mof_H 	H 	0.9358	0.6839	0.6273	-0.08
Mof_Cd	Cd	0.80354	0.07891	0.7538	0.485
Mof_Cd	Cd	0.34743	0.03774	0.76498	0.434
Mof_O 	O 	0.8811	0.90704	0.26787	-0.232
Mof_O 	O 	0.1167	0.8675	0.30678	-0.25
Mof_O 	O 	0.2214	0.646	0.68319	-0.258
Mof_O 	O 	0.4724	0.613	0.71986	-0.274
Mof_O 	O 	0.5502	0.5191	0.303	-0.289
Mof_O 	O 	0.8288	0.0007	0.7028	-0.265
Mof_O 	O 	0.5504	0.0346	0.70648	-0.271
Mof_O 	O 	0.8365	0.4819	0.31142	-0.284
Mof_C 	C 	0.014	0.6552	0.3816	-0.001
Mof_C 	C 	0.1139	0.6105	0.3681	0.017
Mof_H 	H 	0.2433	0.6093	0.3735	0.013
Mof_C 	C 	0.02	0.5675	0.3464	-0.271
Mof_H 	H 	0.0864	0.5375	0.3373	0.106
Mof_C 	C 	0.826	0.5693	0.3383	-0.107
Mof_C 	C 	0.7269	0.614	0.3519	0.153
Mof_H 	H 	0.5975	0.6152	0.3464	0.044
Mof_C 	C 	0.821	0.657	0.3735	-0.114
Mof_H 	H 	0.7544	0.687	0.3826	0.055
Mof_C 	C 	0.657	0.9897	0.6973	0.098
Mof_C 	C 	0.531	0.9532	0.6675	-0.641
Mof_C 	C 	0.345	0.9624	0.652	-0.236
Mof_H 	H 	0.2893	0.9951	0.6584	0.314
Mof_C 	C 	0.242	0.9236	0.6273	-0.003
Mof_H 	H 	0.1179	0.9301	0.617	0.008
Mof_C 	C 	0.325	0.8749	0.6181	0.147
Mof_C 	C 	0.511	0.8651	0.6334	-0.392
Mof_H 	H 	0.5662	0.8323	0.6274	0.161
Mof_C 	C 	0.611	0.9046	0.6578	0.498
Mof_H 	H 	0.7356	0.8983	0.6677	-0.085
Mof_C 	C 	0.385	0.8426	0.5236	0.026
Mof_H 	H 	0.4499	0.871	0.5381	-0.075
Mof_C 	C 	0.428	0.8272	0.4785	-0.136
Mof_H 	H 	0.5184	0.8466	0.4636	0.038
Mof_C 	C 	0.34	0.783	0.455	0.013
Mof_C 	C 	0.536	0.7939	0.3838	-0.056
Mof_C 	C 	0.722	0.7959	0.3989	0.203
Mof_H 	H 	0.7621	0.781	0.4275	-0.041
Mof_C 	C 	0.85	0.8201	0.3712	-0.352
Mof_H 	H 	0.9768	0.8202	0.3808	0.106
Mof_C 	C 	0.79	0.8443	0.3293	0.317
Mof_C 	C 	0.948	0.867	0.304	0.195
Mof_C 	C 	0.604	0.8416	0.3132	0.548
Mof_H 	H 	0.5627	0.857	0.2848	-0.218
Mof_C 	C 	0.482	0.8153	0.3408	-0.421
Mof_H 	H 	0.3578	0.8119	0.3299	0.2
Mof_C 	C 	0.196	0.7584	0.4783	0.036
Mof_C 	C 	0.381	0.7663	0.4096	0.128
Mof_C 	C 	0.273	0.7252	0.389	0.003
Mof_H 	H 	0.3024	0.7141	0.3593	0.026
Mof_C 	C 	0.09	0.7173	0.455	0.021
Mof_C 	C 	0.152	0.7747	0.5233	0.093
Mof_C 	C 	0.247	0.8162	0.5474	-0.039
Mof_C 	C 	0.069	0.806	0.6133	-0.091
Mof_H 	H 	0.0426	0.8162	0.6434	0.064
Mof_C 	C 	0.216	0.8312	0.5931	0.132
Mof_C 	C 	0.957	0.766	0.5914	0.189
Mof_C 	C 	0.005	0.751	0.5465	-0.063
Mof_C 	C 	0.916	0.7056	0.5254	-0.033
Mof_H 	H 	0.8236	0.6878	0.5409	-0.082
Mof_C 	C 	0.123	0.6989	0.4091	0.185
Mof_C 	C 	0.966	0.6873	0.4813	-0.374
Mof_H 	H 	0.9167	0.6551	0.4694	-0.046
Mof_C 	C 	0.81	0.7393	0.6179	-0.082
Mof_C 	C 	0.624	0.7376	0.6015	0.118
Mof_H 	H 	0.5852	0.7539	0.5734	-0.009
Mof_C 	C 	0.497	0.711	0.6281	-0.184
Mof_H 	H 	0.3709	0.7153	0.6195	0.073
Mof_C 	C 	0.545	0.6779	0.6672	0.272
Mof_C 	C 	0.735	0.6844	0.6841	0.473
Mof_H 	H 	0.773	0.67	0.7131	-0.163
Mof_C 	C 	0.866	0.7117	0.6583	-0.362
Mof_H 	H 	0.9922	0.7113	0.6685	0.177
Mof_C 	C 	0.662	0.4954	0.1886	0.193
Mof_C 	C 	0.6049	0.535	0.1505	0.348
Mof_C 	C 	0.4213	0.5341	0.1311	0.632
Mof_H 	H 	0.3353	0.5101	0.1425	-0.306
Mof_C 	C 	0.3668	0.5684	0.0951	-0.433
Mof_H 	H 	0.2445	0.5668	0.0822	0.177
Mof_C 	C 	0.4907	0.6053	0.0776	0.093
Mof_C 	C 	0.6746	0.6062	0.0972	0.096
Mof_H 	H 	0.7601	0.6307	0.0863	-0.011
Mof_C 	C 	0.7294	0.5713	0.1325	-0.486
Mof_H 	H 	0.853	0.5719	0.1446	0.215
Mof_C 	C 	0.4377	0.6423	0.0377	0.124
Mof_C 	C 	0.5442	0.6394	0.9986	-0.147
Mof_H 	H 	0.6458	0.616	0.999	0.081
Mof_C 	C 	0.503	0.6701	0.9595	0.152
Mof_C 	C 	0.6145	0.66	0.9171	-0.271
Mof_C 	C 	0.8101	0.6611	0.9224	-0.027
Mof_H 	H 	0.8695	0.6698	0.9512	0.04
Mof_C 	C 	0.917	0.6491	0.8839	0.206
Mof_H 	H 	0.047	0.6502	0.8874	-0.057
Mof_C 	C 	0.8329	0.6359	0.8418	-0.111
Mof_C 	C 	0.945	0.6175	0.8025	-0.029
Mof_C 	C 	0.6398	0.635	0.8368	-0.789
Mof_H 	H 	0.5818	0.6261	0.8079	0.22
Mof_C 	C 	0.5324	0.6467	0.873	0.582
Mof_H 	H 	0.4026	0.6459	0.8684	-0.121
Mof_C 	C 	0.356	0.7075	0.9586	0.014
Mof_C 	C 	0.3119	0.7432	0.92	-0.12
Mof_H 	H 	0.3834	0.7415	0.8939	-0.004
Mof_C 	C 	0.1716	0.7788	0.9202	-0.153
Mof_H 	H 	0.1465	0.8004	0.894	-0.053
Mof_C 	C 	0.059	0.7844	0.9597	0.012
Mof_C 	C 	0.0969	0.7493	0.9987	-0.019
Mof_C 	C 	0.2469	0.7115	0.9982	-0.053
Mof_C 	C 	0.2846	0.6774	0.0375	-0.03
Mof_C 	C 	0.1711	0.6835	0.0775	-0.037
Mof_H 	H 	0.1956	0.6618	0.1036	-0.069
Mof_C 	C 	0.0309	0.7196	0.0778	-0.085
Mof_H 	H 	0.9614	0.722	0.1042	-0.043
Mof_C 	C 	0.986	0.7543	0.0391	-0.025
Mof_C 	C 	0.8367	0.7907	0.0379	0.303
Mof_C 	C 	0.8019	0.822	0.9994	-0.165
Mof_H 	H 	0.703	0.8462	0.9992	0.094
Mof_C 	C 	0.906	0.8193	0.9608	0.463
Mof_C 	C 	0.8609	0.8601	0.9222	-0.115
Mof_C 	C 	0.9972	0.893	0.9046	-0.076
Mof_H 	H 	0.1222	0.8876	0.9144	0.054
Mof_C 	C 	0.9507	0.9338	0.8727	0.174
Mof_H 	H 	0.0436	0.9563	0.8625	0.059
Mof_C 	C 	0.768	0.9407	0.8565	0.04
Mof_C 	C 	0.7182	0.9822	0.8187	0.315
Mof_C 	C 	0.6301	0.9084	0.8714	-0.288
Mof_H 	H 	0.5063	0.9132	0.8603	0.127
Mof_C 	C 	0.6784	0.8671	0.9041	0.084
Mof_H 	H 	0.5852	0.8443	0.9137	-0.012
Mof_C 	C 	0.7233	0.8004	0.0796	-0.253
Mof_C 	C 	0.5282	0.7996	0.0742	0.002
Mof_H 	H 	0.4695	0.7875	0.0463	0.032
Mof_C 	C 	0.4233	0.8163	0.1095	0.076
Mof_H 	H 	0.2933	0.8148	0.1061	0
Mof_C 	C 	0.5085	0.8351	0.1499	-0.133
Mof_C 	C 	0.3938	0.8582	0.1874	0.234
Mof_C 	C 	0.7006	0.835	0.1583	-0.631
Mof_H 	H 	0.7564	0.8466	0.1867	0.126
Mof_C 	C 	0.806	0.8171	0.1226	0.494
Mof_H 	H 	0.9358	0.8161	0.1273	-0.08
Mof_Cd	Cd	0.80354	0.42109	0.2538	0.485
Mof_Cd	Cd	0.34743	0.46226	0.26498	0.434
Mof_O 	O 	0.8811	0.59296	0.76787	-0.232
Mof_O 	O 	0.1167	0.6325	0.80678	-0.25
Mof_O 	O 	0.2214	0.854	0.18319	-0.258
Mof_O 	O 	0.4724	0.887	0.21986	-0.274
Mof_O 	O 	0.5502	0.9809	0.803	-0.289
Mof_O 	O 	0.8288	0.4993	0.2028	-0.265
Mof_O 	O 	0.5504	0.4654	0.20648	-0.271
Mof_O 	O 	0.8365	0.0181	0.81142	-0.283
Mof_C 	C 	0.014	0.8448	0.8816	-0.002
Mof_C 	C 	0.1139	0.8895	0.8681	0.017
Mof_H 	H 	0.2433	0.8907	0.8735	0.013
Mof_C 	C 	0.02	0.9325	0.8464	-0.27
Mof_H 	H 	0.0864	0.9625	0.8373	0.106
Mof_C 	C 	0.826	0.9307	0.8383	-0.105
Mof_C 	C 	0.7269	0.886	0.8519	0.151
Mof_H 	H 	0.5975	0.8848	0.8464	0.044
Mof_C 	C 	0.821	0.843	0.8735	-0.113
Mof_H 	H 	0.7544	0.813	0.8826	0.055
Mof_C 	C 	0.657	0.5103	0.1973	0.097
Mof_C 	C 	0.531	0.5468	0.1675	-0.638
Mof_C 	C 	0.345	0.5376	0.152	-0.235
Mof_H 	H 	0.2893	0.5049	0.1584	0.313
Mof_C 	C 	0.242	0.5764	0.1273	-0.003
Mof_H 	H 	0.1179	0.5699	0.117	0.008
Mof_C 	C 	0.325	0.6251	0.1181	0.146
Mof_C 	C 	0.511	0.6349	0.1334	-0.391
Mof_H 	H 	0.5662	0.6677	0.1274	0.161
Mof_C 	C 	0.611	0.5954	0.1578	0.496
Mof_H 	H 	0.7356	0.6017	0.1677	-0.085
Mof_C 	C 	0.385	0.6574	0.0236	0.025
Mof_H 	H 	0.4499	0.629	0.0381	-0.075
Mof_C 	C 	0.428	0.6728	0.9785	-0.136
Mof_H 	H 	0.5184	0.6534	0.9636	0.038
Mof_C 	C 	0.34	0.717	0.955	0.013
Mof_C 	C 	0.536	0.7061	0.8838	-0.056
Mof_C 	C 	0.722	0.7041	0.8989	0.203
Mof_H 	H 	0.7621	0.719	0.9275	-0.041
Mof_C 	C 	0.85	0.6799	0.8712	-0.352
Mof_H 	H 	0.9768	0.6798	0.8808	0.106
Mof_C 	C 	0.79	0.6557	0.8293	0.315
Mof_C 	C 	0.948	0.633	0.804	0.195
Mof_C 	C 	0.604	0.6584	0.8132	0.547
Mof_H 	H 	0.5627	0.643	0.7848	-0.217
Mof_C 	C 	0.482	0.6847	0.8408	-0.42
Mof_H 	H 	0.3578	0.6881	0.8299	0.2
Mof_C 	C 	0.196	0.7416	0.9783	0.035
Mof_C 	C 	0.381	0.7337	0.9096	0.128
Mof_C 	C 	0.273	0.7748	0.889	0.003
Mof_H 	H 	0.3024	0.7859	0.8593	0.026
Mof_C 	C 	0.09	0.7827	0.955	0.021
Mof_C 	C 	0.152	0.7253	0.0233	0.092
Mof_C 	C 	0.247	0.6838	0.0474	-0.039
Mof_C 	C 	0.069	0.694	0.1133	-0.091
Mof_H 	H 	0.0426	0.6838	0.1434	0.064
Mof_C 	C 	0.216	0.6688	0.0931	0.132
Mof_C 	C 	0.957	0.734	0.0914	0.19
Mof_C 	C 	0.005	0.749	0.0465	-0.063
Mof_C 	C 	0.916	0.7944	0.0254	-0.033
Mof_H 	H 	0.8236	0.8122	0.0409	-0.081
Mof_C 	C 	0.123	0.8011	0.9091	0.185
Mof_C 	C 	0.966	0.8127	0.9813	-0.374
Mof_H 	H 	0.9167	0.8449	0.9694	-0.046
Mof_C 	C 	0.81	0.7607	0.1179	-0.082
Mof_C 	C 	0.624	0.7624	0.1015	0.118
Mof_H 	H 	0.5852	0.7461	0.0734	-0.009
Mof_C 	C 	0.497	0.789	0.1281	-0.184
Mof_H 	H 	0.3709	0.7847	0.1195	0.073
Mof_C 	C 	0.545	0.8221	0.1672	0.272
Mof_C 	C 	0.735	0.8156	0.1841	0.473
Mof_H 	H 	0.773	0.83	0.2131	-0.163
Mof_C 	C 	0.866	0.7883	0.1583	-0.362
Mof_H 	H 	0.9922	0.7887	0.1685	0.177
Mof_C 	C 	0.338	0.9954	0.3114	0.192
Mof_C 	C 	0.3951	0.035	0.3495	0.349
Mof_C 	C 	0.5787	0.0341	0.3689	0.634
Mof_H 	H 	0.6647	0.0101	0.3575	-0.307
Mof_C 	C 	0.6332	0.0684	0.4049	-0.435
Mof_H 	H 	0.7555	0.0668	0.4178	0.177
Mof_C 	C 	0.5093	0.1053	0.4224	0.093
Mof_C 	C 	0.3254	0.1062	0.4028	0.096
Mof_H 	H 	0.2399	0.1307	0.4137	-0.011
Mof_C 	C 	0.2706	0.0713	0.3675	-0.487
Mof_H 	H 	0.147	0.0719	0.3554	0.215
Mof_C 	C 	0.5623	0.1423	0.4623	0.125
Mof_C 	C 	0.4558	0.1394	0.5014	-0.147
Mof_H 	H 	0.3542	0.116	0.501	0.081
Mof_C 	C 	0.497	0.1701	0.5405	0.152
Mof_C 	C 	0.3855	0.16	0.5829	-0.272
Mof_C 	C 	0.1899	0.1611	0.5776	-0.026
Mof_H 	H 	0.1305	0.1698	0.5488	0.04
Mof_C 	C 	0.083	0.1491	0.6161	0.206
Mof_H 	H 	0.953	0.1502	0.6126	-0.057
Mof_C 	C 	0.1671	0.1359	0.6582	-0.112
Mof_C 	C 	0.055	0.1175	0.6975	-0.029
Mof_C 	C 	0.3602	0.135	0.6632	-0.792
Mof_H 	H 	0.4182	0.1261	0.6921	0.221
Mof_C 	C 	0.4676	0.1467	0.627	0.583
Mof_H 	H 	0.5974	0.1459	0.6316	-0.121
Mof_C 	C 	0.644	0.2075	0.5414	0.014
Mof_C 	C 	0.6881	0.2432	0.58	-0.12
Mof_H 	H 	0.6166	0.2415	0.6061	-0.004
Mof_C 	C 	0.8284	0.2788	0.5798	-0.153
Mof_H 	H 	0.8535	0.3004	0.606	-0.053
Mof_C 	C 	0.941	0.2844	0.5403	0.012
Mof_C 	C 	0.9031	0.2493	0.5013	-0.02
Mof_C 	C 	0.7531	0.2115	0.5018	-0.053
Mof_C 	C 	0.7154	0.1774	0.4625	-0.03
Mof_C 	C 	0.8289	0.1835	0.4225	-0.037
Mof_H 	H 	0.8044	0.1618	0.3964	-0.069
Mof_C 	C 	0.9691	0.2196	0.4222	-0.085
Mof_H 	H 	0.0386	0.222	0.3958	-0.043
Mof_C 	C 	0.014	0.2543	0.4609	-0.026
Mof_C 	C 	0.1633	0.2907	0.4621	0.304
Mof_C 	C 	0.1981	0.322	0.5006	-0.165
Mof_H 	H 	0.297	0.3462	0.5008	0.094
Mof_C 	C 	0.094	0.3193	0.5392	0.463
Mof_C 	C 	0.1391	0.3601	0.5778	-0.115
Mof_C 	C 	0.0028	0.393	0.5954	-0.076
Mof_H 	H 	0.8778	0.3876	0.5856	0.054
Mof_C 	C 	0.0493	0.4338	0.6273	0.176
Mof_H 	H 	0.9564	0.4563	0.6375	0.059
Mof_C 	C 	0.232	0.4407	0.6435	0.041
Mof_C 	C 	0.2818	0.4822	0.6813	0.316
Mof_C 	C 	0.3699	0.4084	0.6286	-0.29
Mof_H 	H 	0.4937	0.4132	0.6397	0.127
Mof_C 	C 	0.3216	0.3671	0.5959	0.084
Mof_H 	H 	0.4148	0.3443	0.5863	-0.012
Mof_C 	C 	0.2767	0.3004	0.4204	-0.253
Mof_C 	C 	0.4718	0.2996	0.4258	0.002
Mof_H 	H 	0.5305	0.2875	0.4537	0.032
Mof_C 	C 	0.5767	0.3163	0.3905	0.076
Mof_H 	H 	0.7067	0.3148	0.3939	0
Mof_C 	C 	0.4915	0.3351	0.3501	-0.133
Mof_C 	C 	0.6062	0.3582	0.3126	0.234
Mof_C 	C 	0.2994	0.335	0.3417	-0.632
Mof_H 	H 	0.2436	0.3466	0.3133	0.127
Mof_C 	C 	0.194	0.3171	0.3774	0.495
Mof_H 	H 	0.0642	0.3161	0.3727	-0.08
Mof_Cd	Cd	0.19646	0.92109	0.2462	0.485
Mof_Cd	Cd	0.65257	0.96226	0.23502	0.434
Mof_O 	O 	0.1189	0.09296	0.73213	-0.232
Mof_O 	O 	0.8833	0.1325	0.69322	-0.25
Mof_O 	O 	0.7786	0.354	0.31681	-0.258
Mof_O 	O 	0.5276	0.387	0.28014	-0.274
Mof_O 	O 	0.4498	0.4809	0.697	-0.289
Mof_O 	O 	0.1712	0.9993	0.2972	-0.265
Mof_O 	O 	0.4496	0.9654	0.29352	-0.271
Mof_O 	O 	0.1635	0.5181	0.68858	-0.284
Mof_C 	C 	0.986	0.3448	0.6184	-0.001
Mof_C 	C 	0.8861	0.3895	0.6319	0.017
Mof_H 	H 	0.7567	0.3907	0.6265	0.013
Mof_C 	C 	0.98	0.4325	0.6536	-0.271
Mof_H 	H 	0.9136	0.4625	0.6627	0.106
Mof_C 	C 	0.174	0.4307	0.6617	-0.107
Mof_C 	C 	0.2731	0.386	0.6481	0.153
Mof_H 	H 	0.4025	0.3848	0.6536	0.044
Mof_C 	C 	0.179	0.343	0.6265	-0.114
Mof_H 	H 	0.2456	0.313	0.6174	0.055
Mof_C 	C 	0.343	0.0103	0.3027	0.098
Mof_C 	C 	0.469	0.0468	0.3325	-0.641
Mof_C 	C 	0.655	0.0376	0.348	-0.236
Mof_H 	H 	0.7107	0.0049	0.3416	0.314
Mof_C 	C 	0.758	0.0764	0.3727	-0.003
Mof_H 	H 	0.8821	0.0699	0.383	0.008
Mof_C 	C 	0.675	0.1251	0.3819	0.147
Mof_C 	C 	0.489	0.1349	0.3666	-0.392
Mof_H 	H 	0.4338	0.1677	0.3726	0.161
Mof_C 	C 	0.389	0.0954	0.3422	0.498
Mof_H 	H 	0.2644	0.1017	0.3323	-0.085
Mof_C 	C 	0.615	0.1574	0.4764	0.026
Mof_H 	H 	0.5501	0.129	0.4619	-0.075
Mof_C 	C 	0.572	0.1728	0.5215	-0.136
Mof_H 	H 	0.4816	0.1534	0.5364	0.038
Mof_C 	C 	0.66	0.217	0.545	0.013
Mof_C 	C 	0.464	0.2061	0.6162	-0.056
Mof_C 	C 	0.278	0.2041	0.6011	0.203
Mof_H 	H 	0.2379	0.219	0.5725	-0.041
Mof_C 	C 	0.15	0.1799	0.6288	-0.352
Mof_H 	H 	0.0232	0.1798	0.6192	0.106
Mof_C 	C 	0.21	0.1557	0.6707	0.317
Mof_C 	C 	0.052	0.133	0.696	0.195
Mof_C 	C 	0.396	0.1584	0.6868	0.548
Mof_H 	H 	0.4373	0.143	0.7152	-0.218
Mof_C 	C 	0.518	0.1847	0.6592	-0.421
Mof_H 	H 	0.6422	0.1881	0.6701	0.2
Mof_C 	C 	0.804	0.2416	0.5217	0.036
Mof_C 	C 	0.619	0.2337	0.5904	0.128
Mof_C 	C 	0.727	0.2748	0.611	0.003
Mof_H 	H 	0.6976	0.2859	0.6407	0.026
Mof_C 	C 	0.91	0.2827	0.545	0.021
Mof_C 	C 	0.848	0.2253	0.4767	0.093
Mof_C 	C 	0.753	0.1838	0.4526	-0.039
Mof_C 	C 	0.931	0.194	0.3867	-0.091
Mof_H 	H 	0.9574	0.1838	0.3566	0.064
Mof_C 	C 	0.784	0.1688	0.4069	0.132
Mof_C 	C 	0.043	0.234	0.4086	0.189
Mof_C 	C 	0.995	0.249	0.4535	-0.063
Mof_C 	C 	0.084	0.2944	0.4746	-0.033
Mof_H 	H 	0.1764	0.3122	0.4591	-0.082
Mof_C 	C 	0.877	0.3011	0.5909	0.185
Mof_C 	C 	0.034	0.3127	0.5187	-0.374
Mof_H 	H 	0.0833	0.3449	0.5306	-0.046
Mof_C 	C 	0.19	0.2607	0.3821	-0.082
Mof_C 	C 	0.376	0.2624	0.3985	0.118
Mof_H 	H 	0.4148	0.2461	0.4266	-0.009
Mof_C 	C 	0.503	0.289	0.3719	-0.184
Mof_H 	H 	0.6291	0.2847	0.3805	0.073
Mof_C 	C 	0.455	0.3221	0.3328	0.272
Mof_C 	C 	0.265	0.3156	0.3159	0.473
Mof_H 	H 	0.227	0.33	0.2869	-0.163
Mof_C 	C 	0.134	0.2883	0.3417	-0.362
Mof_H 	H 	0.0078	0.2887	0.3315	0.177
_end
