data_functionalizedCrystal
_audit_creation_method	'EQeq! by Chris Wilmer'
_symmetry_space_group_name_H-M	'P1'
_symmetry_Int_Tables_number	1
_symmetry_cell_setting	triclinic
loop_
_symmetry_equiv_pos_as_xyz
  x,y,z
_cell_length_a	14.3142
_cell_length_b	10.0277
_cell_length_c	10.4917
_cell_angle_alpha	90
_cell_angle_beta	94.102
_cell_angle_gamma	90
loop_
_atom_site_label
_atom_site_type_symbol
_atom_site_fract_x
_atom_site_fract_y
_atom_site_fract_z
_atom_site_charge
Mof_Zn	Zn	0.54564	0.87381	0.14422	1.241
Mof_Zn	Zn	0.95654	0.86625	0.10163	1.239
Mof_P 	P 	0.51022	0.19285	0.13423	0.602
Mof_P 	P 	0.74004	0.97354	0.042	0.574
Mof_P 	P 	0.00657	0.82839	0.8268	0.578
Mof_O 	O 	0.6072	0.2225	0.2087	-0.661
Mof_O 	O 	0.4834	0.047	0.1558	-0.478
Mof_O 	O 	0.5192	0.2241	0.9941	-0.435
Mof_O 	O 	0.4398	0.2852	0.1915	-0.405
Mof_O 	O 	0.6999	0.0235	0.9058	-0.499
Mof_O 	O 	0.7477	0.0945	0.1313	-0.309
Mof_O 	O 	0.672	0.8708	0.0888	-0.433
Mof_O 	O 	0.8344	0.9126	0.0226	-0.422
Mof_O 	O 	0.1031	0.7998	0.7671	-0.533
Mof_O 	O 	0.0181	0.7744	0.9644	-0.408
Mof_O 	O 	0.9856	0.9767	0.8232	-0.444
Mof_O 	O 	0.9341	0.7519	0.7429	-0.396
Mof_H 	H 	0.645	0.19	0.18	0.469
Mof_H 	H 	0.649	0.007	0.89	0.341
Mof_H 	H 	0.149	0.825	0.804	0.375
Mof_Zn	Zn	0.45436	0.37381	0.35578	1.243
Mof_Zn	Zn	0.04346	0.36625	0.39837	1.243
Mof_P 	P 	0.48978	0.69285	0.36577	0.599
Mof_P 	P 	0.25996	0.47354	0.458	0.585
Mof_P 	P 	0.99343	0.32839	0.6732	0.582
Mof_O 	O 	0.3928	0.7225	0.2913	-0.66
Mof_O 	O 	0.5166	0.547	0.3442	-0.481
Mof_O 	O 	0.4808	0.7241	0.5059	-0.43
Mof_O 	O 	0.5602	0.7852	0.3085	-0.406
Mof_O 	O 	0.3001	0.5235	0.5942	-0.501
Mof_O 	O 	0.2523	0.5945	0.3687	-0.315
Mof_O 	O 	0.328	0.3708	0.4112	-0.432
Mof_O 	O 	0.1656	0.4126	0.4774	-0.418
Mof_O 	O 	0.8969	0.2998	0.7329	-0.534
Mof_O 	O 	0.9819	0.2744	0.5356	-0.41
Mof_O 	O 	0.0144	0.4767	0.6768	-0.45
Mof_O 	O 	0.0659	0.2519	0.7571	-0.401
Mof_H 	H 	0.355	0.69	0.32	0.468
Mof_H 	H 	0.351	0.507	0.61	0.344
Mof_H 	H 	0.851	0.325	0.696	0.374
Mof_Zn	Zn	0.45436	0.12619	0.85578	1.242
Mof_Zn	Zn	0.04346	0.13375	0.89837	1.24
Mof_P 	P 	0.48978	0.80715	0.86577	0.603
Mof_P 	P 	0.25996	0.02646	0.958	0.575
Mof_P 	P 	0.99343	0.17161	0.1732	0.579
Mof_O 	O 	0.3928	0.7775	0.7913	-0.66
Mof_O 	O 	0.5166	0.953	0.8442	-0.477
Mof_O 	O 	0.4808	0.7759	0.0059	-0.434
Mof_O 	O 	0.5602	0.7148	0.8085	-0.405
Mof_O 	O 	0.3001	0.9765	0.0942	-0.499
Mof_O 	O 	0.2523	0.9055	0.8687	-0.309
Mof_O 	O 	0.328	0.1292	0.9112	-0.433
Mof_O 	O 	0.1656	0.0874	0.9774	-0.422
Mof_O 	O 	0.8969	0.2002	0.2329	-0.533
Mof_O 	O 	0.9819	0.2256	0.0356	-0.408
Mof_O 	O 	0.0144	0.0233	0.1768	-0.444
Mof_O 	O 	0.0659	0.2481	0.2571	-0.396
Mof_H 	H 	0.355	0.81	0.82	0.469
Mof_H 	H 	0.351	0.993	0.11	0.341
Mof_H 	H 	0.851	0.175	0.196	0.375
Mof_Zn	Zn	0.54564	0.62619	0.64422	1.243
Mof_Zn	Zn	0.95654	0.63375	0.60163	1.243
Mof_P 	P 	0.51022	0.30715	0.63423	0.599
Mof_P 	P 	0.74004	0.52646	0.542	0.585
Mof_P 	P 	0.00657	0.67161	0.3268	0.582
Mof_O 	O 	0.6072	0.2775	0.7087	-0.66
Mof_O 	O 	0.4834	0.453	0.6558	-0.481
Mof_O 	O 	0.5192	0.2759	0.4941	-0.43
Mof_O 	O 	0.4398	0.2148	0.6915	-0.406
Mof_O 	O 	0.6999	0.4765	0.4058	-0.501
Mof_O 	O 	0.7477	0.4055	0.6313	-0.315
Mof_O 	O 	0.672	0.6292	0.5888	-0.432
Mof_O 	O 	0.8344	0.5874	0.5226	-0.418
Mof_O 	O 	0.1031	0.7002	0.2671	-0.534
Mof_O 	O 	0.0181	0.7256	0.4644	-0.41
Mof_O 	O 	0.9856	0.5233	0.3232	-0.45
Mof_O 	O 	0.9341	0.7481	0.2429	-0.401
Mof_H 	H 	0.645	0.31	0.68	0.468
Mof_H 	H 	0.649	0.493	0.39	0.344
Mof_H 	H 	0.149	0.675	0.304	0.374
_end
