# CIF file generated by openbabel 3.1.0, see https://openbabel.org
data_I
_chemical_name_common 'image0'
_cell_length_a 26.684
_cell_length_b 26.684
_cell_length_c 4.701
_cell_angle_alpha 90
_cell_angle_beta 90
_cell_angle_gamma 90
_space_group_name_H-M_alt 'P 1'
_space_group_name_Hall 'P 1'
loop_
    _symmetry_equiv_pos_as_xyz
    x,y,z
loop_
    _atom_site_label
    _atom_site_type_symbol
    _atom_site_fract_x
    _atom_site_fract_y
    _atom_site_fract_z
    _atom_site_occupancy
    Zn1      Zn       0.27505    0.21360    0.88640    1.000
    O1       O        0.21350    0.24850    0.03900    1.000
    H1       H        0.19230    0.25980    0.92490    1.000
    N1       N        0.25170    0.14420    0.85700    1.000
    C1       C        0.26970    0.10890    0.01900    1.000
    H2       H        0.29670    0.11420    0.13960    1.000
    N2       N        0.24640    0.06370    0.00000    1.000
    C2       C        0.21540    0.12310    0.72500    1.000
    O2       O        0.27140    0.84000    0.41500    1.000
    C3       C        0.18440    0.14560    0.52700    1.000
    H3       H        0.18880    0.17910    0.47890    1.000
    O3       O        0.30210    0.86600    0.76200    1.000
    C4       C        0.14680    0.11770    0.40300    1.000
    C5       C        0.11520    0.13870    0.20400    1.000
    H4       H        0.11980    0.17220    0.15430    1.000
    C6       C        0.07700    0.11240    0.07400    1.000
    H5       H        0.05610    0.12740    0.94060    1.000
    C7       C        0.07100    0.06270    0.15100    1.000
    H6       H        0.04570    0.04360    0.06950    1.000
    C8       C        0.10270    0.04150    0.34900    1.000
    H7       H        0.09820    0.00790    0.39730    1.000
    C9       C        0.14090    0.06800    0.48000    1.000
    C10      C        0.17170    0.04570    0.67600    1.000
    H8       H        0.16730    0.01220    0.72520    1.000
    C11      C        0.20930    0.07360    0.80000    1.000
    C12      C        0.25800    0.01720    0.12500    1.000
    C13      C        0.28010    0.92670    0.35900    1.000
    C14      C        0.30580    0.00790    0.21900    1.000
    H9       H        0.33010    0.03270    0.20090    1.000
    C15      C        0.31860    0.96200    0.34000    1.000
    H10      H        0.35080    0.95530    0.40450    1.000
    C16      C        0.23040    0.93230    0.27100    1.000
    H11      H        0.20610    0.90760    0.28750    1.000
    C17      C        0.22200    0.97960    0.15300    1.000
    H12      H        0.18980    0.98670    0.08930    1.000
    C18      C        0.29270    0.87710    0.49800    1.000
    O4       O        0.33770    0.87450    0.60300    1.000
    C19      C        0.27860    0.01440    0.39400    1.000
    H13      H        0.28480    0.04380    0.49430    1.000
    C20      C        0.29000    0.96910    0.51600    1.000
    H14      H        0.30380    0.96710    0.69770    1.000
    C21      C        0.25960    0.92750    0.09100    1.000
    H15      H        0.25330    0.89810    0.99130    1.000
    C22      C        0.24880    0.97380    0.97600    1.000
    H16      H        0.23490    0.97560    0.79520    1.000
    Zn2      Zn       0.77505    0.71360    0.38640    1.000
    O5       O        0.71350    0.74850    0.53900    1.000
    H17      H        0.69230    0.75980    0.42490    1.000
    N3       N        0.75170    0.64420    0.35700    1.000
    C23      C        0.76970    0.60890    0.51900    1.000
    H18      H        0.79670    0.61420    0.63960    1.000
    N4       N        0.74640    0.56370    0.50000    1.000
    C24      C        0.71540    0.62310    0.22500    1.000
    O6       O        0.77140    0.34000    0.91500    1.000
    C25      C        0.68440    0.64560    0.02700    1.000
    H19      H        0.68880    0.67910    0.97890    1.000
    O7       O        0.80210    0.36600    0.26200    1.000
    C26      C        0.64680    0.61770    0.90300    1.000
    C27      C        0.61520    0.63870    0.70400    1.000
    H20      H        0.61980    0.67220    0.65430    1.000
    C28      C        0.57700    0.61240    0.57400    1.000
    H21      H        0.55610    0.62740    0.44060    1.000
    C29      C        0.57100    0.56270    0.65100    1.000
    H22      H        0.54570    0.54360    0.56950    1.000
    C30      C        0.60270    0.54150    0.84900    1.000
    H23      H        0.59820    0.50790    0.89730    1.000
    C31      C        0.64090    0.56800    0.98000    1.000
    C32      C        0.67170    0.54570    0.17600    1.000
    H24      H        0.66730    0.51220    0.22520    1.000
    C33      C        0.70930    0.57360    0.30000    1.000
    C34      C        0.75800    0.51720    0.62500    1.000
    C35      C        0.78010    0.42670    0.85900    1.000
    C36      C        0.80580    0.50790    0.71900    1.000
    H25      H        0.83010    0.53270    0.70090    1.000
    C37      C        0.81860    0.46200    0.84000    1.000
    H26      H        0.85080    0.45530    0.90450    1.000
    C38      C        0.73040    0.43230    0.77100    1.000
    H27      H        0.70610    0.40760    0.78750    1.000
    C39      C        0.72200    0.47960    0.65300    1.000
    H28      H        0.68980    0.48670    0.58930    1.000
    C40      C        0.79270    0.37710    0.99800    1.000
    O8       O        0.83770    0.37450    0.10300    1.000
    C41      C        0.77860    0.51440    0.89400    1.000
    H29      H        0.78480    0.54380    0.99430    1.000
    C42      C        0.79000    0.46910    0.01600    1.000
    H30      H        0.80380    0.46710    0.19770    1.000
    C43      C        0.75960    0.42750    0.59100    1.000
    H31      H        0.75330    0.39810    0.49130    1.000
    C44      C        0.74880    0.47380    0.47600    1.000
    H32      H        0.73490    0.47560    0.29520    1.000
    Zn3      Zn       0.72495    0.78640    0.88640    1.000
    O9       O        0.78650    0.75150    0.03900    1.000
    H33      H        0.80770    0.74020    0.92490    1.000
    N5       N        0.74830    0.85580    0.85700    1.000
    C45      C        0.73030    0.89110    0.01900    1.000
    H34      H        0.70330    0.88580    0.13960    1.000
    N6       N        0.75360    0.93630    0.00000    1.000
    C46      C        0.78460    0.87690    0.72500    1.000
    O10      O        0.72860    0.16000    0.41500    1.000
    C47      C        0.81560    0.85440    0.52700    1.000
    H35      H        0.81120    0.82090    0.47890    1.000
    O11      O        0.69790    0.13400    0.76200    1.000
    C48      C        0.85320    0.88230    0.40300    1.000
    C49      C        0.88480    0.86130    0.20400    1.000
    H36      H        0.88020    0.82780    0.15430    1.000
    C50      C        0.92300    0.88760    0.07400    1.000
    H37      H        0.94390    0.87260    0.94060    1.000
    C51      C        0.92900    0.93730    0.15100    1.000
    H38      H        0.95430    0.95640    0.06950    1.000
    C52      C        0.89730    0.95850    0.34900    1.000
    H39      H        0.90180    0.99210    0.39730    1.000
    C53      C        0.85910    0.93200    0.48000    1.000
    C54      C        0.82830    0.95430    0.67600    1.000
    H40      H        0.83270    0.98780    0.72520    1.000
    C55      C        0.79070    0.92640    0.80000    1.000
    C56      C        0.74200    0.98280    0.12500    1.000
    C57      C        0.71990    0.07330    0.35900    1.000
    C58      C        0.69420    0.99210    0.21900    1.000
    H41      H        0.66990    0.96730    0.20090    1.000
    C59      C        0.68140    0.03800    0.34000    1.000
    H42      H        0.64920    0.04470    0.40450    1.000
    C60      C        0.76960    0.06770    0.27100    1.000
    H43      H        0.79390    0.09240    0.28750    1.000
    C61      C        0.77800    0.02040    0.15300    1.000
    H44      H        0.81020    0.01330    0.08930    1.000
    C62      C        0.70730    0.12290    0.49800    1.000
    O12      O        0.66230    0.12550    0.60300    1.000
    C63      C        0.72140    0.98560    0.39400    1.000
    H45      H        0.71520    0.95620    0.49430    1.000
    C64      C        0.71000    0.03090    0.51600    1.000
    H46      H        0.69620    0.03290    0.69770    1.000
    C65      C        0.74040    0.07250    0.09100    1.000
    H47      H        0.74670    0.10190    0.99130    1.000
    C66      C        0.75120    0.02620    0.97600    1.000
    H48      H        0.76510    0.02440    0.79520    1.000
    Zn4      Zn       0.22495    0.28640    0.38640    1.000
    O13      O        0.28650    0.25150    0.53900    1.000
    H49      H        0.30770    0.24020    0.42490    1.000
    N7       N        0.24830    0.35580    0.35700    1.000
    C67      C        0.23030    0.39110    0.51900    1.000
    H50      H        0.20330    0.38580    0.63960    1.000
    N8       N        0.25360    0.43630    0.50000    1.000
    C68      C        0.28460    0.37690    0.22500    1.000
    O14      O        0.22860    0.66000    0.91500    1.000
    C69      C        0.31560    0.35440    0.02700    1.000
    H51      H        0.31120    0.32090    0.97890    1.000
    O15      O        0.19790    0.63400    0.26200    1.000
    C70      C        0.35320    0.38230    0.90300    1.000
    C71      C        0.38480    0.36130    0.70400    1.000
    H52      H        0.38020    0.32780    0.65430    1.000
    C72      C        0.42300    0.38760    0.57400    1.000
    H53      H        0.44390    0.37260    0.44060    1.000
    C73      C        0.42900    0.43730    0.65100    1.000
    H54      H        0.45430    0.45640    0.56950    1.000
    C74      C        0.39730    0.45850    0.84900    1.000
    H55      H        0.40180    0.49210    0.89730    1.000
    C75      C        0.35910    0.43200    0.98000    1.000
    C76      C        0.32830    0.45430    0.17600    1.000
    H56      H        0.33270    0.48780    0.22520    1.000
    C77      C        0.29070    0.42640    0.30000    1.000
    C78      C        0.24200    0.48280    0.62500    1.000
    C79      C        0.21990    0.57330    0.85900    1.000
    C80      C        0.19420    0.49210    0.71900    1.000
    H57      H        0.16990    0.46730    0.70090    1.000
    C81      C        0.18140    0.53800    0.84000    1.000
    H58      H        0.14920    0.54470    0.90450    1.000
    C82      C        0.26960    0.56770    0.77100    1.000
    H59      H        0.29390    0.59240    0.78750    1.000
    C83      C        0.27800    0.52040    0.65300    1.000
    H60      H        0.31020    0.51330    0.58930    1.000
    C84      C        0.20730    0.62290    0.99800    1.000
    O16      O        0.16230    0.62550    0.10300    1.000
    C85      C        0.22140    0.48560    0.89400    1.000
    H61      H        0.21520    0.45620    0.99430    1.000
    C86      C        0.21000    0.53090    0.01600    1.000
    H62      H        0.19620    0.53290    0.19770    1.000
    C87      C        0.24040    0.57250    0.59100    1.000
    H63      H        0.24670    0.60190    0.49130    1.000
    C88      C        0.25120    0.52620    0.47600    1.000
    H64      H        0.26510    0.52440    0.29520    1.000
    Zn5      Zn       0.21360    0.72495    0.11360    1.000
    O17      O        0.24850    0.78650    0.96100    1.000
    H65      H        0.25980    0.80770    0.07510    1.000
    N9       N        0.14420    0.74830    0.14300    1.000
    C89      C        0.10890    0.73030    0.98100    1.000
    H66      H        0.11420    0.70330    0.86040    1.000
    N10      N        0.06370    0.75360    0.00000    1.000
    C90      C        0.12310    0.78460    0.27500    1.000
    O18      O        0.84000    0.72860    0.58500    1.000
    C91      C        0.14560    0.81560    0.47300    1.000
    H67      H        0.17910    0.81120    0.52110    1.000
    O19      O        0.86600    0.69790    0.23800    1.000
    C92      C        0.11770    0.85320    0.59700    1.000
    C93      C        0.13870    0.88480    0.79600    1.000
    H68      H        0.17220    0.88020    0.84570    1.000
    C94      C        0.11240    0.92300    0.92600    1.000
    H69      H        0.12740    0.94390    0.05940    1.000
    C95      C        0.06270    0.92900    0.84900    1.000
    H70      H        0.04360    0.95430    0.93050    1.000
    C96      C        0.04150    0.89730    0.65100    1.000
    H71      H        0.00790    0.90180    0.60270    1.000
    C97      C        0.06800    0.85910    0.52000    1.000
    C98      C        0.04570    0.82830    0.32400    1.000
    H72      H        0.01220    0.83270    0.27480    1.000
    C99      C        0.07360    0.79070    0.20000    1.000
    C100     C        0.01720    0.74200    0.87500    1.000
    C101     C        0.92670    0.71990    0.64100    1.000
    C102     C        0.00790    0.69420    0.78100    1.000
    H73      H        0.03270    0.66990    0.79910    1.000
    C103     C        0.96200    0.68140    0.66000    1.000
    H74      H        0.95530    0.64920    0.59550    1.000
    C104     C        0.93230    0.76960    0.72900    1.000
    H75      H        0.90760    0.79390    0.71250    1.000
    C105     C        0.97960    0.77800    0.84700    1.000
    H76      H        0.98670    0.81020    0.91070    1.000
    C106     C        0.87710    0.70730    0.50200    1.000
    O20      O        0.87450    0.66230    0.39700    1.000
    C107     C        0.01440    0.72140    0.60600    1.000
    H77      H        0.04380    0.71520    0.50570    1.000
    C108     C        0.96910    0.71000    0.48400    1.000
    H78      H        0.96710    0.69620    0.30230    1.000
    C109     C        0.92750    0.74040    0.90900    1.000
    H79      H        0.89810    0.74670    0.00870    1.000
    C110     C        0.97380    0.75120    0.02400    1.000
    H80      H        0.97560    0.76510    0.20480    1.000
    Zn6      Zn       0.71360    0.22495    0.61360    1.000
    O21      O        0.74850    0.28650    0.46100    1.000
    H81      H        0.75980    0.30770    0.57510    1.000
    N11      N        0.64420    0.24830    0.64300    1.000
    C111     C        0.60890    0.23030    0.48100    1.000
    H82      H        0.61420    0.20330    0.36040    1.000
    N12      N        0.56370    0.25360    0.50000    1.000
    C112     C        0.62310    0.28460    0.77500    1.000
    O22      O        0.34000    0.22860    0.08500    1.000
    C113     C        0.64560    0.31560    0.97300    1.000
    H83      H        0.67910    0.31120    0.02110    1.000
    O23      O        0.36600    0.19790    0.73800    1.000
    C114     C        0.61770    0.35320    0.09700    1.000
    C115     C        0.63870    0.38480    0.29600    1.000
    H84      H        0.67220    0.38020    0.34570    1.000
    C116     C        0.61240    0.42300    0.42600    1.000
    H85      H        0.62740    0.44390    0.55940    1.000
    C117     C        0.56270    0.42900    0.34900    1.000
    H86      H        0.54360    0.45430    0.43050    1.000
    C118     C        0.54150    0.39730    0.15100    1.000
    H87      H        0.50790    0.40180    0.10270    1.000
    C119     C        0.56800    0.35910    0.02000    1.000
    C120     C        0.54570    0.32830    0.82400    1.000
    H88      H        0.51220    0.33270    0.77480    1.000
    C121     C        0.57360    0.29070    0.70000    1.000
    C122     C        0.51720    0.24200    0.37500    1.000
    C123     C        0.42670    0.21990    0.14100    1.000
    C124     C        0.50790    0.19420    0.28100    1.000
    H89      H        0.53270    0.16990    0.29910    1.000
    C125     C        0.46200    0.18140    0.16000    1.000
    H90      H        0.45530    0.14920    0.09550    1.000
    C126     C        0.43230    0.26960    0.22900    1.000
    H91      H        0.40760    0.29390    0.21250    1.000
    C127     C        0.47960    0.27800    0.34700    1.000
    H92      H        0.48670    0.31020    0.41070    1.000
    C128     C        0.37710    0.20730    0.00200    1.000
    O24      O        0.37450    0.16230    0.89700    1.000
    C129     C        0.51440    0.22140    0.10600    1.000
    H93      H        0.54380    0.21520    0.00570    1.000
    C130     C        0.46910    0.21000    0.98400    1.000
    H94      H        0.46710    0.19620    0.80230    1.000
    C131     C        0.42750    0.24040    0.40900    1.000
    H95      H        0.39810    0.24670    0.50870    1.000
    C132     C        0.47380    0.25120    0.52400    1.000
    H96      H        0.47560    0.26510    0.70480    1.000
    Zn7      Zn       0.78640    0.27505    0.11360    1.000
    O25      O        0.75150    0.21350    0.96100    1.000
    H97      H        0.74020    0.19230    0.07510    1.000
    N13      N        0.85580    0.25170    0.14300    1.000
    C133     C        0.89110    0.26970    0.98100    1.000
    H98      H        0.88580    0.29670    0.86040    1.000
    N14      N        0.93630    0.24640    0.00000    1.000
    C134     C        0.87690    0.21540    0.27500    1.000
    O26      O        0.16000    0.27140    0.58500    1.000
    C135     C        0.85440    0.18440    0.47300    1.000
    H99      H        0.82090    0.18880    0.52110    1.000
    O27      O        0.13400    0.30210    0.23800    1.000
    C136     C        0.88230    0.14680    0.59700    1.000
    C137     C        0.86130    0.11520    0.79600    1.000
    H100     H        0.82780    0.11980    0.84570    1.000
    C138     C        0.88760    0.07700    0.92600    1.000
    H101     H        0.87260    0.05610    0.05940    1.000
    C139     C        0.93730    0.07100    0.84900    1.000
    H102     H        0.95640    0.04570    0.93050    1.000
    C140     C        0.95850    0.10270    0.65100    1.000
    H103     H        0.99210    0.09820    0.60270    1.000
    C141     C        0.93200    0.14090    0.52000    1.000
    C142     C        0.95430    0.17170    0.32400    1.000
    H104     H        0.98780    0.16730    0.27480    1.000
    C143     C        0.92640    0.20930    0.20000    1.000
    C144     C        0.98280    0.25800    0.87500    1.000
    C145     C        0.07330    0.28010    0.64100    1.000
    C146     C        0.99210    0.30580    0.78100    1.000
    H105     H        0.96730    0.33010    0.79910    1.000
    C147     C        0.03800    0.31860    0.66000    1.000
    H106     H        0.04470    0.35080    0.59550    1.000
    C148     C        0.06770    0.23040    0.72900    1.000
    H107     H        0.09240    0.20610    0.71250    1.000
    C149     C        0.02040    0.22200    0.84700    1.000
    H108     H        0.01330    0.18980    0.91070    1.000
    C150     C        0.12290    0.29270    0.50200    1.000
    O28      O        0.12550    0.33770    0.39700    1.000
    C151     C        0.98560    0.27860    0.60600    1.000
    H109     H        0.95620    0.28480    0.50570    1.000
    C152     C        0.03090    0.29000    0.48400    1.000
    H110     H        0.03290    0.30380    0.30230    1.000
    C153     C        0.07250    0.25960    0.90900    1.000
    H111     H        0.10190    0.25330    0.00870    1.000
    C154     C        0.02620    0.24880    0.02400    1.000
    H112     H        0.02440    0.23490    0.20480    1.000
    Zn8      Zn       0.28640    0.77505    0.61360    1.000
    O29      O        0.25150    0.71350    0.46100    1.000
    H113     H        0.24020    0.69230    0.57510    1.000
    N15      N        0.35580    0.75170    0.64300    1.000
    C155     C        0.39110    0.76970    0.48100    1.000
    H114     H        0.38580    0.79670    0.36040    1.000
    N16      N        0.43630    0.74640    0.50000    1.000
    C156     C        0.37690    0.71540    0.77500    1.000
    O30      O        0.66000    0.77140    0.08500    1.000
    C157     C        0.35440    0.68440    0.97300    1.000
    H115     H        0.32090    0.68880    0.02110    1.000
    O31      O        0.63400    0.80210    0.73800    1.000
    C158     C        0.38230    0.64680    0.09700    1.000
    C159     C        0.36130    0.61520    0.29600    1.000
    H116     H        0.32780    0.61980    0.34570    1.000
    C160     C        0.38760    0.57700    0.42600    1.000
    H117     H        0.37260    0.55610    0.55940    1.000
    C161     C        0.43730    0.57100    0.34900    1.000
    H118     H        0.45640    0.54570    0.43050    1.000
    C162     C        0.45850    0.60270    0.15100    1.000
    H119     H        0.49210    0.59820    0.10270    1.000
    C163     C        0.43200    0.64090    0.02000    1.000
    C164     C        0.45430    0.67170    0.82400    1.000
    H120     H        0.48780    0.66730    0.77480    1.000
    C165     C        0.42640    0.70930    0.70000    1.000
    C166     C        0.48280    0.75800    0.37500    1.000
    C167     C        0.57330    0.78010    0.14100    1.000
    C168     C        0.49210    0.80580    0.28100    1.000
    H121     H        0.46730    0.83010    0.29910    1.000
    C169     C        0.53800    0.81860    0.16000    1.000
    H122     H        0.54470    0.85080    0.09550    1.000
    C170     C        0.56770    0.73040    0.22900    1.000
    H123     H        0.59240    0.70610    0.21250    1.000
    C171     C        0.52040    0.72200    0.34700    1.000
    H124     H        0.51330    0.68980    0.41070    1.000
    C172     C        0.62290    0.79270    0.00200    1.000
    O32      O        0.62550    0.83770    0.89700    1.000
    C173     C        0.48560    0.77860    0.10600    1.000
    H125     H        0.45620    0.78480    0.00570    1.000
    C174     C        0.53090    0.79000    0.98400    1.000
    H126     H        0.53290    0.80380    0.80230    1.000
    C175     C        0.57250    0.75960    0.40900    1.000
    H127     H        0.60190    0.75330    0.50870    1.000
    C176     C        0.52620    0.74880    0.52400    1.000
    H128     H        0.52440    0.73490    0.70480    1.000
