# CIF file generated by openbabel 3.1.0, see https://openbabel.org
data_I
_chemical_name_common 'image0'
_cell_length_a 7.877
_cell_length_b 12.06
_cell_length_c 12.275
_cell_angle_alpha 112.12
_cell_angle_beta 89.98
_cell_angle_gamma 99.95
_space_group_name_H-M_alt 'P 1'
_space_group_name_Hall 'P 1'
loop_
    _symmetry_equiv_pos_as_xyz
    x,y,z
loop_
    _atom_site_label
    _atom_site_type_symbol
    _atom_site_fract_x
    _atom_site_fract_y
    _atom_site_fract_z
    _atom_site_occupancy
    Pr1      Pr       0.99088    0.14557    0.85426    1.000
    Pr2      Pr       0.49083    0.14516    0.75199    1.000
    C1       C        0.63800    0.13800    0.02140    1.000
    C2       C        0.61500    0.16700    0.14800    1.000
    H1       H        0.53340    0.10140    0.15580    1.000
    H2       H        0.56550    0.24030    0.17870    1.000
    C3       C        0.78200    0.18730    0.22210    1.000
    H3       H        0.86730    0.24750    0.20750    1.000
    H4       H        0.75880    0.22120    0.30470    1.000
    C4       C        0.85700    0.07800    0.20100    1.000
    C5       C        0.64500    0.93000    0.64800    1.000
    C6       C        0.71500    0.81100    0.58500    1.000
    H5       H        0.62770    0.75290    0.52610    1.000
    H6       H        0.73490    0.77610    0.64260    1.000
    C7       C        0.24500    0.47300    0.86600    1.000
    H7       H        0.12080    0.45020    0.84920    1.000
    H8       H        0.28910    0.52390    0.82310    1.000
    C8       C        0.32000    0.36300    0.82300    1.000
    C9       C        0.86300    0.85500    0.42100    1.000
    C10      C        0.89800    0.83100    0.52110    1.000
    H9       H        0.97920    0.89930    0.57600    1.000
    H10      H        0.94870    0.75910    0.49860    1.000
    C11      C        0.28500    0.54400    0.99600    1.000
    C12      C        0.18300    0.64100    0.04500    1.000
    O1       O        0.22690    0.72170    0.15410    1.000
    O2       O        0.05200    0.64720    0.99510    1.000
    O3       O        0.76200    0.98220    0.20870    1.000
    O4       O        0.01000    0.07360    0.17840    1.000
    O5       O        0.45300    0.35830    0.75520    1.000
    O6       O        0.27350    0.27770    0.85530    1.000
    O7       O        0.51100    0.14880    0.96430    1.000
    O8       O        0.77140    0.10240    0.98000    1.000
    O9       O        0.98970    0.84490    0.34900    1.000
    O10      O        0.72400    0.89050    0.39980    1.000
    O11      O        0.73600    0.01730    0.72110    1.000
    O12      O        0.49000    0.92750    0.61990    1.000
    Pr3      Pr       0.00912    0.85443    0.14574    1.000
    Pr4      Pr       0.50917    0.85484    0.24801    1.000
    C13      C        0.36200    0.86200    0.97860    1.000
    C14      C        0.38500    0.83300    0.85200    1.000
    H11      H        0.46660    0.89860    0.84420    1.000
    H12      H        0.43450    0.75970    0.82130    1.000
    C15      C        0.21800    0.81270    0.77790    1.000
    H13      H        0.13270    0.75250    0.79250    1.000
    H14      H        0.24120    0.77880    0.69530    1.000
    C16      C        0.14300    0.92200    0.79900    1.000
    C17      C        0.35500    0.07000    0.35200    1.000
    C18      C        0.28500    0.18900    0.41500    1.000
    H15      H        0.37230    0.24710    0.47390    1.000
    H16      H        0.26510    0.22390    0.35740    1.000
    C19      C        0.75500    0.52700    0.13400    1.000
    H17      H        0.87920    0.54980    0.15080    1.000
    H18      H        0.71090    0.47610    0.17690    1.000
    C20      C        0.68000    0.63700    0.17700    1.000
    C21      C        0.13700    0.14500    0.57900    1.000
    C22      C        0.10200    0.16900    0.47890    1.000
    H19      H        0.02080    0.10070    0.42400    1.000
    H20      H        0.05130    0.24090    0.50140    1.000
    C23      C        0.71500    0.45600    0.00400    1.000
    C24      C        0.81700    0.35900    0.95500    1.000
    O13      O        0.77310    0.27830    0.84590    1.000
    O14      O        0.94800    0.35280    0.00490    1.000
    O15      O        0.23800    0.01780    0.79130    1.000
    O16      O        0.99000    0.92640    0.82160    1.000
    O17      O        0.54700    0.64170    0.24480    1.000
    O18      O        0.72650    0.72230    0.14470    1.000
    O19      O        0.48900    0.85120    0.03570    1.000
    O20      O        0.22860    0.89760    0.02000    1.000
    O21      O        0.01030    0.15510    0.65100    1.000
    O22      O        0.27600    0.10950    0.60020    1.000
    O23      O        0.26400    0.98270    0.27890    1.000
    O24      O        0.51000    0.07250    0.38010    1.000
