data_functionalizedCrystal
_audit_creation_method	'EQeq! by Chris Wilmer'
_symmetry_space_group_name_H-M	'P1'
_symmetry_Int_Tables_number	1
_symmetry_cell_setting	triclinic
loop_
_symmetry_equiv_pos_as_xyz
  x,y,z
_cell_length_a	26.528
_cell_length_b	26.528
_cell_length_c	4.498
_cell_angle_alpha	90
_cell_angle_beta	90
_cell_angle_gamma	90
loop_
_atom_site_label
_atom_site_type_symbol
_atom_site_fract_x
_atom_site_fract_y
_atom_site_fract_z
_atom_site_charge
Mof_Zn	Zn	0.26859	0.21543	0.9475	1.198
Mof_O 	O 	0.226	0.2783	-0	-0.721
Mof_H 	H 	0.2042	0.2899	0.8828	0.235
Mof_N 	N 	0.2402	0.1472	0.98	-0.314
Mof_C 	C 	0.2567	0.1116	0.155	0.147
Mof_H 	H 	0.2824	0.1156	0.2944	-0.029
Mof_N 	N 	0.2312	0.0681	0.107	-0.149
Mof_C 	C 	0.2006	0.1239	0.806	0.078
Mof_O 	O 	0.2637	0.837	0.493	-0.521
Mof_C 	C 	0.1712	0.1457	0.587	-0.19
Mof_H 	H 	0.1756	0.1793	0.5354	0.088
Mof_O 	O 	0.3279	0.8633	0.409	-0.334
Mof_C 	C 	0.1351	0.1168	0.446	0.125
Mof_C 	C 	0.1048	0.1371	0.227	-0.182
Mof_H 	H 	0.1091	0.1708	0.1761	0.109
Mof_C 	C 	0.0684	0.1097	0.08	0.095
Mof_H 	H 	0.0484	0.1239	0.932	-0.022
Mof_C 	C 	0.0631	0.0599	0.164	-0.115
Mof_H 	H 	0.039	0.0398	0.071	0.07
Mof_C 	C 	0.0931	0.0397	0.383	-0.014
Mof_H 	H 	0.0885	0.006	0.4342	0.035
Mof_C 	C 	0.1298	0.067	0.53	-0.021
Mof_C 	C 	0.1592	0.0453	0.748	-0.075
Mof_H 	H 	0.1567	0.011	0.7893	0.054
Mof_C 	C 	0.1924	0.0753	0.903	0.017
Mof_C 	C 	0.2451	0.0179	0.215	0.165
Mof_C 	C 	0.2719	0.9268	0.439	-0.192
Mof_C 	C 	0.2621	0.0138	0.504	-0.476
Mof_H 	H 	0.2642	0.0426	0.6217	0.195
Mof_C 	C 	0.2759	0.9681	0.622	0.363
Mof_H 	H 	0.2874	0.9651	0.8168	-0.088
Mof_C 	C 	0.2553	0.9287	0.151	0.224
Mof_H 	H 	0.2532	0.8998	0.0342	0.047
Mof_C 	C 	0.2419	0.9752	0.042	-0.293
Mof_H 	H 	0.2305	0.978	0.8469	0.112
Mof_C 	C 	0.2866	0.8749	0.552	0.602
Mof_O 	O 	0.2703	0.872	0.818	-0.342
Mof_C 	C 	0.2936	0.0105	0.311	0.251
Mof_H 	H 	0.3167	0.0368	0.2975	-0.051
Mof_C 	C 	0.3089	0.9642	0.427	-0.261
Mof_H 	H 	0.3417	0.9586	0.4926	0.131
Mof_C 	C 	0.2218	0.9305	0.348	-0.173
Mof_H 	H 	0.1985	0.9043	0.3599	0.1
Mof_C 	C 	0.2109	0.9783	0.236	0.127
Mof_H 	H 	0.1782	0.9842	0.1695	-0.01
Mof_Zn	Zn	0.76859	0.71543	0.4475	1.213
Mof_O 	O 	0.726	0.7783	0.5	-0.783
Mof_H 	H 	0.7042	0.7899	0.3828	0.277
Mof_N 	N 	0.7402	0.6472	0.48	-0.275
Mof_C 	C 	0.7567	0.6116	0.655	0.101
Mof_H 	H 	0.7824	0.6156	0.7944	-0.02
Mof_N 	N 	0.7312	0.5681	0.607	-0.172
Mof_C 	C 	0.7006	0.6239	0.306	-0.001
Mof_O 	O 	0.7637	0.337	0.993	-0.506
Mof_C 	C 	0.6712	0.6457	0.087	-0.023
Mof_H 	H 	0.6756	0.6793	0.0354	0.035
Mof_O 	O 	0.8279	0.3633	0.909	-0.323
Mof_C 	C 	0.6351	0.6168	0.946	-0.106
Mof_C 	C 	0.6048	0.6371	0.727	0.031
Mof_H 	H 	0.6091	0.6708	0.6761	0.021
Mof_C 	C 	0.5684	0.6097	0.58	-0.147
Mof_H 	H 	0.5484	0.6239	0.432	0.081
Mof_C 	C 	0.5631	0.5599	0.664	0.098
Mof_H 	H 	0.539	0.5398	0.571	-0.012
Mof_C 	C 	0.5931	0.5397	0.883	-0.231
Mof_H 	H 	0.5885	0.506	0.9342	0.107
Mof_C 	C 	0.6298	0.567	0.03	0.195
Mof_C 	C 	0.6592	0.5453	0.248	-0.225
Mof_H 	H 	0.6567	0.511	0.2893	0.109
Mof_C 	C 	0.6924	0.5753	0.403	0.124
Mof_C 	C 	0.7451	0.5179	0.715	0.163
Mof_C 	C 	0.7719	0.4268	0.939	-0.161
Mof_C 	C 	0.7621	0.5138	0.004	-0.304
Mof_H 	H 	0.7642	0.5426	0.1217	0.145
Mof_C 	C 	0.7759	0.4681	0.122	0.185
Mof_H 	H 	0.7874	0.4651	0.3168	-0.014
Mof_C 	C 	0.7553	0.4287	0.651	0.194
Mof_H 	H 	0.7532	0.3998	0.5342	0.048
Mof_C 	C 	0.7419	0.4752	0.542	-0.318
Mof_H 	H 	0.7305	0.478	0.3469	0.138
Mof_C 	C 	0.7866	0.3749	0.052	0.565
Mof_O 	O 	0.7703	0.372	0.318	-0.33
Mof_C 	C 	0.7936	0.5105	0.811	0.092
Mof_H 	H 	0.8167	0.5368	0.7975	0.003
Mof_C 	C 	0.8089	0.4642	0.927	-0.119
Mof_H 	H 	0.8417	0.4586	0.9926	0.085
Mof_C 	C 	0.7218	0.4305	0.848	-0.155
Mof_H 	H 	0.6985	0.4043	0.8599	0.093
Mof_C 	C 	0.7109	0.4783	0.736	0.118
Mof_H 	H 	0.6782	0.4842	0.6695	-0.015
Mof_Zn	Zn	0.73141	0.78457	0.9475	1.197
Mof_O 	O 	0.774	0.7217	-0	-0.722
Mof_H 	H 	0.7958	0.7101	0.8828	0.234
Mof_N 	N 	0.7598	0.8528	0.98	-0.315
Mof_C 	C 	0.7433	0.8884	0.155	0.146
Mof_H 	H 	0.7176	0.8844	0.2944	-0.03
Mof_N 	N 	0.7688	0.9319	0.107	-0.149
Mof_C 	C 	0.7994	0.8761	0.806	0.078
Mof_O 	O 	0.7363	0.163	0.493	-0.521
Mof_C 	C 	0.8288	0.8543	0.587	-0.19
Mof_H 	H 	0.8244	0.8207	0.5354	0.088
Mof_O 	O 	0.6721	0.1367	0.409	-0.334
Mof_C 	C 	0.8649	0.8832	0.446	0.125
Mof_C 	C 	0.8952	0.8629	0.227	-0.182
Mof_H 	H 	0.8909	0.8292	0.1761	0.109
Mof_C 	C 	0.9316	0.8903	0.08	0.095
Mof_H 	H 	0.9516	0.8761	0.932	-0.022
Mof_C 	C 	0.9369	0.9401	0.164	-0.115
Mof_H 	H 	0.961	0.9602	0.071	0.07
Mof_C 	C 	0.9069	0.9603	0.383	-0.014
Mof_H 	H 	0.9115	0.994	0.4342	0.035
Mof_C 	C 	0.8702	0.933	0.53	-0.021
Mof_C 	C 	0.8408	0.9547	0.748	-0.075
Mof_H 	H 	0.8433	0.989	0.7893	0.054
Mof_C 	C 	0.8076	0.9247	0.903	0.017
Mof_C 	C 	0.7549	0.9821	0.215	0.165
Mof_C 	C 	0.7281	0.0732	0.439	-0.192
Mof_C 	C 	0.7379	0.9862	0.504	-0.476
Mof_H 	H 	0.7358	0.9574	0.6217	0.195
Mof_C 	C 	0.7241	0.0319	0.622	0.363
Mof_H 	H 	0.7126	0.0349	0.8168	-0.088
Mof_C 	C 	0.7447	0.0713	0.151	0.224
Mof_H 	H 	0.7468	0.1002	0.0342	0.047
Mof_C 	C 	0.7581	0.0248	0.042	-0.293
Mof_H 	H 	0.7695	0.022	0.8469	0.112
Mof_C 	C 	0.7134	0.1251	0.552	0.602
Mof_O 	O 	0.7297	0.128	0.818	-0.342
Mof_C 	C 	0.7064	0.9895	0.311	0.251
Mof_H 	H 	0.6833	0.9632	0.2975	-0.051
Mof_C 	C 	0.6911	0.0358	0.427	-0.261
Mof_H 	H 	0.6583	0.0414	0.4926	0.131
Mof_C 	C 	0.7782	0.0695	0.348	-0.173
Mof_H 	H 	0.8015	0.0957	0.3599	0.1
Mof_C 	C 	0.7891	0.0217	0.236	0.127
Mof_H 	H 	0.8218	0.0158	0.1695	-0.01
Mof_Zn	Zn	0.23141	0.28457	0.4475	1.213
Mof_O 	O 	0.274	0.2217	0.5	-0.783
Mof_H 	H 	0.2958	0.2101	0.3828	0.277
Mof_N 	N 	0.2598	0.3528	0.48	-0.275
Mof_C 	C 	0.2433	0.3884	0.655	0.101
Mof_H 	H 	0.2176	0.3844	0.7944	-0.02
Mof_N 	N 	0.2688	0.4319	0.607	-0.172
Mof_C 	C 	0.2994	0.3761	0.306	-0.001
Mof_O 	O 	0.2363	0.663	0.993	-0.506
Mof_C 	C 	0.3288	0.3543	0.087	-0.023
Mof_H 	H 	0.3244	0.3207	0.0354	0.035
Mof_O 	O 	0.1721	0.6367	0.909	-0.323
Mof_C 	C 	0.3649	0.3832	0.946	-0.106
Mof_C 	C 	0.3952	0.3629	0.727	0.031
Mof_H 	H 	0.3909	0.3292	0.6761	0.021
Mof_C 	C 	0.4316	0.3903	0.58	-0.147
Mof_H 	H 	0.4516	0.3761	0.432	0.081
Mof_C 	C 	0.4369	0.4401	0.664	0.098
Mof_H 	H 	0.461	0.4602	0.571	-0.012
Mof_C 	C 	0.4069	0.4603	0.883	-0.231
Mof_H 	H 	0.4115	0.494	0.9342	0.107
Mof_C 	C 	0.3702	0.433	0.03	0.195
Mof_C 	C 	0.3408	0.4547	0.248	-0.225
Mof_H 	H 	0.3433	0.489	0.2893	0.109
Mof_C 	C 	0.3076	0.4247	0.403	0.124
Mof_C 	C 	0.2549	0.4821	0.715	0.163
Mof_C 	C 	0.2281	0.5732	0.939	-0.161
Mof_C 	C 	0.2379	0.4862	0.004	-0.304
Mof_H 	H 	0.2358	0.4574	0.1217	0.145
Mof_C 	C 	0.2241	0.5319	0.122	0.185
Mof_H 	H 	0.2126	0.5349	0.3168	-0.014
Mof_C 	C 	0.2447	0.5713	0.651	0.194
Mof_H 	H 	0.2468	0.6002	0.5342	0.048
Mof_C 	C 	0.2581	0.5248	0.542	-0.318
Mof_H 	H 	0.2695	0.522	0.3469	0.138
Mof_C 	C 	0.2134	0.6251	0.052	0.565
Mof_O 	O 	0.2297	0.628	0.318	-0.33
Mof_C 	C 	0.2064	0.4895	0.811	0.092
Mof_H 	H 	0.1833	0.4632	0.7975	0.003
Mof_C 	C 	0.1911	0.5358	0.927	-0.119
Mof_H 	H 	0.1583	0.5414	0.9926	0.085
Mof_C 	C 	0.2782	0.5695	0.848	-0.155
Mof_H 	H 	0.3015	0.5957	0.8599	0.093
Mof_C 	C 	0.2891	0.5217	0.736	0.118
Mof_H 	H 	0.3218	0.5158	0.6695	-0.015
Mof_Zn	Zn	0.21543	0.73141	0.0525	1.212
Mof_O 	O 	0.2783	0.774	-0	-0.777
Mof_H 	H 	0.2899	0.7958	0.1172	0.279
Mof_N 	N 	0.1472	0.7598	0.02	-0.283
Mof_C 	C 	0.1116	0.7433	0.845	0.11
Mof_H 	H 	0.1156	0.7176	0.7056	-0.018
Mof_N 	N 	0.0681	0.7688	0.893	-0.168
Mof_C 	C 	0.1239	0.7994	0.194	0.043
Mof_O 	O 	0.837	0.7363	0.507	-0.522
Mof_C 	C 	0.1457	0.8288	0.413	-0.122
Mof_H 	H 	0.1793	0.8244	0.4646	0.063
Mof_O 	O 	0.8633	0.6721	0.591	-0.335
Mof_C 	C 	0.1168	0.8649	0.554	0.019
Mof_C 	C 	0.1371	0.8952	0.773	-0.047
Mof_H 	H 	0.1708	0.8909	0.8239	0.052
Mof_C 	C 	0.1097	0.9316	0.92	-0.097
Mof_H 	H 	0.1239	0.9516	0.068	0.07
Mof_C 	C 	0.0599	0.9369	0.836	0.031
Mof_H 	H 	0.0398	0.961	0.929	0.005
Mof_C 	C 	0.0397	0.9069	0.617	-0.135
Mof_H 	H 	0.006	0.9115	0.5658	0.076
Mof_C 	C 	0.067	0.8702	0.47	0.08
Mof_C 	C 	0.0453	0.8408	0.252	-0.152
Mof_H 	H 	0.011	0.8433	0.2107	0.085
Mof_C 	C 	0.0753	0.8076	0.097	0.087
Mof_C 	C 	0.0179	0.7549	0.785	0.177
Mof_C 	C 	0.9268	0.7281	0.561	-0.182
Mof_C 	C 	0.0138	0.7379	0.496	-0.134
Mof_H 	H 	0.0426	0.7358	0.3783	0.083
Mof_C 	C 	0.9681	0.7241	0.378	0.035
Mof_H 	H 	0.9651	0.7126	0.1832	0.04
Mof_C 	C 	0.9287	0.7447	0.849	0.077
Mof_H 	H 	0.8998	0.7468	0.9658	0.077
Mof_C 	C 	0.9752	0.7581	0.958	-0.212
Mof_H 	H 	0.978	0.7695	0.1531	0.112
Mof_C 	C 	0.8749	0.7134	0.448	0.597
Mof_O 	O 	0.872	0.7297	0.182	-0.327
Mof_C 	C 	0.0105	0.7064	0.689	-0.091
Mof_H 	H 	0.0368	0.6833	0.7025	0.067
Mof_C 	C 	0.9642	0.6911	0.573	0.05
Mof_H 	H 	0.9586	0.6583	0.5074	0.025
Mof_C 	C 	0.9305	0.7782	0.652	-0.016
Mof_H 	H 	0.9043	0.8015	0.6401	0.04
Mof_C 	C 	0.9783	0.7891	0.764	-0.018
Mof_H 	H 	0.9842	0.8218	0.8305	0.032
Mof_Zn	Zn	0.71543	0.23141	0.5525	1.214
Mof_O 	O 	0.7783	0.274	0.5	-0.776
Mof_H 	H 	0.7899	0.2958	0.6172	0.276
Mof_N 	N 	0.6472	0.2598	0.52	-0.283
Mof_C 	C 	0.6116	0.2433	0.345	0.101
Mof_H 	H 	0.6156	0.2176	0.2056	-0.012
Mof_N 	N 	0.5681	0.2688	0.393	-0.157
Mof_C 	C 	0.6239	0.2994	0.694	0.066
Mof_O 	O 	0.337	0.2363	0.007	-0.449
Mof_C 	C 	0.6457	0.3288	0.913	-0.171
Mof_H 	H 	0.6793	0.3244	0.9646	0.08
Mof_O 	O 	0.3633	0.1721	0.091	-0.282
Mof_C 	C 	0.6168	0.3649	0.054	0.093
Mof_C 	C 	0.6371	0.3952	0.273	-0.134
Mof_H 	H 	0.6708	0.3909	0.3239	0.083
Mof_C 	C 	0.6097	0.4316	0.42	0.011
Mof_H 	H 	0.6239	0.4516	0.568	0.021
Mof_C 	C 	0.5599	0.4369	0.336	-0.064
Mof_H 	H 	0.5398	0.461	0.429	0.048
Mof_C 	C 	0.5397	0.4069	0.117	-0.048
Mof_H 	H 	0.506	0.4115	0.0658	0.05
Mof_C 	C 	0.567	0.3702	0.97	0.002
Mof_C 	C 	0.5453	0.3408	0.752	-0.105
Mof_H 	H 	0.511	0.3433	0.7107	0.065
Mof_C 	C 	0.5753	0.3076	0.597	0.058
Mof_C 	C 	0.5179	0.2549	0.285	0.157
Mof_C 	C 	0.4268	0.2281	0.061	-0.06
Mof_C 	C 	0.5138	0.2379	0.996	-0.29
Mof_H 	H 	0.5426	0.2358	0.8783	0.132
Mof_C 	C 	0.4681	0.2241	0.878	0.07
Mof_H 	H 	0.4651	0.2126	0.6832	0.022
Mof_C 	C 	0.4287	0.2447	0.349	0.123
Mof_H 	H 	0.3998	0.2468	0.4658	0.07
Mof_C 	C 	0.4752	0.2581	0.458	-0.293
Mof_H 	H 	0.478	0.2695	0.6531	0.135
Mof_C 	C 	0.3749	0.2134	0.948	0.443
Mof_O 	O 	0.372	0.2297	0.682	-0.316
Mof_C 	C 	0.5105	0.2064	0.189	0.095
Mof_H 	H 	0.5368	0.1833	0.2025	0.005
Mof_C 	C 	0.4642	0.1911	0.073	-0.081
Mof_H 	H 	0.4586	0.1583	0.0074	0.08
Mof_C 	C 	0.4305	0.2782	0.152	-0.145
Mof_H 	H 	0.4043	0.3015	0.1401	0.097
Mof_C 	C 	0.4783	0.2891	0.264	0.124
Mof_H 	H 	0.4842	0.3218	0.3305	-0.016
Mof_Zn	Zn	0.78457	0.26859	0.0525	1.212
Mof_O 	O 	0.7217	0.226	-0	-0.777
Mof_H 	H 	0.7101	0.2042	0.1172	0.279
Mof_N 	N 	0.8528	0.2402	0.02	-0.283
Mof_C 	C 	0.8884	0.2567	0.845	0.11
Mof_H 	H 	0.8844	0.2824	0.7056	-0.018
Mof_N 	N 	0.9319	0.2312	0.893	-0.168
Mof_C 	C 	0.8761	0.2006	0.194	0.043
Mof_O 	O 	0.163	0.2637	0.507	-0.522
Mof_C 	C 	0.8543	0.1712	0.413	-0.122
Mof_H 	H 	0.8207	0.1756	0.4646	0.063
Mof_O 	O 	0.1367	0.3279	0.591	-0.335
Mof_C 	C 	0.8832	0.1351	0.554	0.019
Mof_C 	C 	0.8629	0.1048	0.773	-0.047
Mof_H 	H 	0.8292	0.1091	0.8239	0.052
Mof_C 	C 	0.8903	0.0684	0.92	-0.097
Mof_H 	H 	0.8761	0.0484	0.068	0.07
Mof_C 	C 	0.9401	0.0631	0.836	0.031
Mof_H 	H 	0.9602	0.039	0.929	0.005
Mof_C 	C 	0.9603	0.0931	0.617	-0.135
Mof_H 	H 	0.994	0.0885	0.5658	0.076
Mof_C 	C 	0.933	0.1298	0.47	0.08
Mof_C 	C 	0.9547	0.1592	0.252	-0.152
Mof_H 	H 	0.989	0.1567	0.2107	0.085
Mof_C 	C 	0.9247	0.1924	0.097	0.087
Mof_C 	C 	0.9821	0.2451	0.785	0.177
Mof_C 	C 	0.0732	0.2719	0.561	-0.182
Mof_C 	C 	0.9862	0.2621	0.496	-0.134
Mof_H 	H 	0.9574	0.2642	0.3783	0.083
Mof_C 	C 	0.0319	0.2759	0.378	0.035
Mof_H 	H 	0.0349	0.2874	0.1832	0.04
Mof_C 	C 	0.0713	0.2553	0.849	0.077
Mof_H 	H 	0.1002	0.2532	0.9658	0.077
Mof_C 	C 	0.0248	0.2419	0.958	-0.212
Mof_H 	H 	0.022	0.2305	0.1531	0.112
Mof_C 	C 	0.1251	0.2866	0.448	0.597
Mof_O 	O 	0.128	0.2703	0.182	-0.327
Mof_C 	C 	0.9895	0.2936	0.689	-0.091
Mof_H 	H 	0.9632	0.3167	0.7025	0.067
Mof_C 	C 	0.0358	0.3089	0.573	0.05
Mof_H 	H 	0.0414	0.3417	0.5074	0.025
Mof_C 	C 	0.0695	0.2218	0.652	-0.016
Mof_H 	H 	0.0957	0.1985	0.6401	0.04
Mof_C 	C 	0.0217	0.2109	0.764	-0.018
Mof_H 	H 	0.0158	0.1782	0.8305	0.032
Mof_Zn	Zn	0.28457	0.76859	0.5525	1.214
Mof_O 	O 	0.2217	0.726	0.5	-0.776
Mof_H 	H 	0.2101	0.7042	0.6172	0.276
Mof_N 	N 	0.3528	0.7402	0.52	-0.283
Mof_C 	C 	0.3884	0.7567	0.345	0.101
Mof_H 	H 	0.3844	0.7824	0.2056	-0.012
Mof_N 	N 	0.4319	0.7312	0.393	-0.157
Mof_C 	C 	0.3761	0.7006	0.694	0.066
Mof_O 	O 	0.663	0.7637	0.007	-0.449
Mof_C 	C 	0.3543	0.6712	0.913	-0.171
Mof_H 	H 	0.3207	0.6756	0.9646	0.08
Mof_O 	O 	0.6367	0.8279	0.091	-0.282
Mof_C 	C 	0.3832	0.6351	0.054	0.093
Mof_C 	C 	0.3629	0.6048	0.273	-0.134
Mof_H 	H 	0.3292	0.6091	0.3239	0.083
Mof_C 	C 	0.3903	0.5684	0.42	0.011
Mof_H 	H 	0.3761	0.5484	0.568	0.021
Mof_C 	C 	0.4401	0.5631	0.336	-0.064
Mof_H 	H 	0.4602	0.539	0.429	0.048
Mof_C 	C 	0.4603	0.5931	0.117	-0.048
Mof_H 	H 	0.494	0.5885	0.0658	0.05
Mof_C 	C 	0.433	0.6298	0.97	0.002
Mof_C 	C 	0.4547	0.6592	0.752	-0.105
Mof_H 	H 	0.489	0.6567	0.7107	0.065
Mof_C 	C 	0.4247	0.6924	0.597	0.058
Mof_C 	C 	0.4821	0.7451	0.285	0.157
Mof_C 	C 	0.5732	0.7719	0.061	-0.06
Mof_C 	C 	0.4862	0.7621	0.996	-0.29
Mof_H 	H 	0.4574	0.7642	0.8783	0.132
Mof_C 	C 	0.5319	0.7759	0.878	0.07
Mof_H 	H 	0.5349	0.7874	0.6832	0.022
Mof_C 	C 	0.5713	0.7553	0.349	0.123
Mof_H 	H 	0.6002	0.7532	0.4658	0.07
Mof_C 	C 	0.5248	0.7419	0.458	-0.293
Mof_H 	H 	0.522	0.7305	0.6531	0.135
Mof_C 	C 	0.6251	0.7866	0.948	0.443
Mof_O 	O 	0.628	0.7703	0.682	-0.316
Mof_C 	C 	0.4895	0.7936	0.189	0.095
Mof_H 	H 	0.4632	0.8167	0.2025	0.005
Mof_C 	C 	0.5358	0.8089	0.073	-0.081
Mof_H 	H 	0.5414	0.8417	0.0074	0.08
Mof_C 	C 	0.5695	0.7218	0.152	-0.145
Mof_H 	H 	0.5957	0.6985	0.1401	0.097
Mof_C 	C 	0.5217	0.7109	0.264	0.124
Mof_H 	H 	0.5158	0.6782	0.3305	-0.016
_end
