# CIF file generated by openbabel 3.1.0, see https://openbabel.org
data_I
_chemical_name_common 'image0'
_cell_length_a 24.6803
_cell_length_b 10.5966
_cell_length_c 19.9825
_cell_angle_alpha 90
_cell_angle_beta 99.515
_cell_angle_gamma 90
_space_group_name_H-M_alt 'P 1'
_space_group_name_Hall 'P 1'
loop_
    _symmetry_equiv_pos_as_xyz
    x,y,z
loop_
    _atom_site_label
    _atom_site_type_symbol
    _atom_site_fract_x
    _atom_site_fract_y
    _atom_site_fract_z
    _atom_site_occupancy
    W1       W        0.39665    0.77149    0.71032    1.000
    W2       W        0.38151    0.98954    0.82811    1.000
    W3       W        0.48530    0.24111    0.86776    1.000
    W4       W        0.39832    0.22945    0.69858    1.000
    W5       W        0.47565    0.75997    0.86331    1.000
    W6       W        0.42312    0.01187    0.58521    1.000
    O1       O        0.45580    0.90770    0.77820    1.000
    O2       O        0.37570    0.13890    0.61720    1.000
    O3       O        0.52980    0.08700    0.81030    1.000
    O4       O        0.54900    0.31470    0.84740    1.000
    O5       O        0.35130    0.85810    0.76130    1.000
    O6       O        0.37270    0.10230    0.75070    1.000
    O7       O        0.53680    0.72180    0.82140    1.000
    O8       O        0.42710    0.68140    0.79360    1.000
    O9       O        0.46830    0.14190    0.56310    1.000
    O10      O        0.41300    0.85370    0.88410    1.000
    O11      O        0.44430    0.27830    0.78230    1.000
    O12      O        0.52000    0.89170    0.90860    1.000
    O13      O        0.43180    0.10840    0.87220    1.000
    O14      O        0.39100    0.89580    0.64540    1.000
    O15      O        0.46420    0.35510    0.92050    1.000
    O16      O        0.48030    0.64540    0.92400    1.000
    N1       N        0.57300    0.47560    0.98030    1.000
    C1       C        0.60680    0.37230    0.99680    1.000
    H1       H        0.59790    0.29950    0.01860    1.000
    N2       N        0.65620    0.39610    0.97510    1.000
    C2       C        0.65290    0.51410    0.94510    1.000
    H2       H        0.68040    0.55350    0.92620    1.000
    C3       C        0.60150    0.56320    0.94830    1.000
    H3       H        0.58840    0.64150    0.93190    1.000
    C4       C        0.70990    0.23280    0.03960    1.000
    H4       H        0.68270    0.22170    0.06620    1.000
    C5       C        0.70280    0.32050    0.98780    1.000
    C6       C        0.74290    0.33800    0.94800    1.000
    H5       H        0.73800    0.39770    0.91330    1.000
    W7       W        0.89665    0.27149    0.71032    1.000
    W8       W        0.88151    0.48954    0.82811    1.000
    W9       W        0.98530    0.74111    0.86776    1.000
    W10      W        0.89832    0.72945    0.69858    1.000
    W11      W        0.97565    0.25997    0.86331    1.000
    W12      W        0.92312    0.51187    0.58521    1.000
    O17      O        0.95580    0.40770    0.77820    1.000
    O18      O        0.87570    0.63890    0.61720    1.000
    O19      O        0.02980    0.58700    0.81030    1.000
    O20      O        0.04900    0.81470    0.84740    1.000
    O21      O        0.85130    0.35810    0.76130    1.000
    O22      O        0.87270    0.60230    0.75070    1.000
    O23      O        0.03680    0.22180    0.82140    1.000
    O24      O        0.92710    0.18140    0.79360    1.000
    O25      O        0.96830    0.64190    0.56310    1.000
    O26      O        0.91300    0.35370    0.88410    1.000
    O27      O        0.94430    0.77830    0.78230    1.000
    O28      O        0.02000    0.39170    0.90860    1.000
    O29      O        0.93180    0.60840    0.87220    1.000
    O30      O        0.89100    0.39580    0.64540    1.000
    O31      O        0.96420    0.85510    0.92050    1.000
    O32      O        0.98030    0.14540    0.92400    1.000
    N3       N        0.07300    0.97560    0.98030    1.000
    C7       C        0.10680    0.87230    0.99680    1.000
    H6       H        0.09790    0.79950    0.01860    1.000
    N4       N        0.15620    0.89610    0.97510    1.000
    C8       C        0.15290    0.01410    0.94510    1.000
    H7       H        0.18040    0.05350    0.92620    1.000
    C9       C        0.10150    0.06320    0.94830    1.000
    H8       H        0.08840    0.14150    0.93190    1.000
    C10      C        0.20990    0.73280    0.03960    1.000
    H9       H        0.18270    0.72170    0.06620    1.000
    C11      C        0.20280    0.82050    0.98780    1.000
    C12      C        0.24290    0.83800    0.94800    1.000
    H10      H        0.23800    0.89770    0.91330    1.000
    W13      W        0.60335    0.77149    0.78968    1.000
    W14      W        0.61849    0.98954    0.67189    1.000
    W15      W        0.51470    0.24111    0.63224    1.000
    W16      W        0.60168    0.22945    0.80142    1.000
    W17      W        0.52435    0.75997    0.63669    1.000
    W18      W        0.57688    0.01187    0.91479    1.000
    O33      O        0.54420    0.90770    0.72180    1.000
    O34      O        0.62430    0.13890    0.88280    1.000
    O35      O        0.47020    0.08700    0.68970    1.000
    O36      O        0.45100    0.31470    0.65260    1.000
    O37      O        0.64870    0.85810    0.73870    1.000
    O38      O        0.62730    0.10230    0.74930    1.000
    O39      O        0.46320    0.72180    0.67860    1.000
    O40      O        0.57290    0.68140    0.70640    1.000
    O41      O        0.53170    0.14190    0.93690    1.000
    O42      O        0.58700    0.85370    0.61590    1.000
    O43      O        0.55570    0.27830    0.71770    1.000
    O44      O        0.48000    0.89170    0.59140    1.000
    O45      O        0.56820    0.10840    0.62780    1.000
    O46      O        0.60900    0.89580    0.85460    1.000
    O47      O        0.53580    0.35510    0.57950    1.000
    O48      O        0.51970    0.64540    0.57600    1.000
    N5       N        0.42700    0.47560    0.51970    1.000
    C13      C        0.39320    0.37230    0.50320    1.000
    H11      H        0.40210    0.29950    0.48140    1.000
    N6       N        0.34380    0.39610    0.52490    1.000
    C14      C        0.34710    0.51410    0.55490    1.000
    H12      H        0.31960    0.55350    0.57380    1.000
    C15      C        0.39850    0.56320    0.55170    1.000
    H13      H        0.41160    0.64150    0.56810    1.000
    C16      C        0.29010    0.23280    0.46040    1.000
    H14      H        0.31730    0.22170    0.43380    1.000
    C17      C        0.29720    0.32050    0.51220    1.000
    C18      C        0.25710    0.33800    0.55200    1.000
    H15      H        0.26200    0.39770    0.58670    1.000
    W19      W        0.10335    0.27149    0.78968    1.000
    W20      W        0.11849    0.48954    0.67189    1.000
    W21      W        0.01470    0.74111    0.63224    1.000
    W22      W        0.10168    0.72945    0.80142    1.000
    W23      W        0.02435    0.25997    0.63669    1.000
    W24      W        0.07688    0.51187    0.91479    1.000
    O49      O        0.04420    0.40770    0.72180    1.000
    O50      O        0.12430    0.63890    0.88280    1.000
    O51      O        0.97020    0.58700    0.68970    1.000
    O52      O        0.95100    0.81470    0.65260    1.000
    O53      O        0.14870    0.35810    0.73870    1.000
    O54      O        0.12730    0.60230    0.74930    1.000
    O55      O        0.96320    0.22180    0.67860    1.000
    O56      O        0.07290    0.18140    0.70640    1.000
    O57      O        0.03170    0.64190    0.93690    1.000
    O58      O        0.08700    0.35370    0.61590    1.000
    O59      O        0.05570    0.77830    0.71770    1.000
    O60      O        0.98000    0.39170    0.59140    1.000
    O61      O        0.06820    0.60840    0.62780    1.000
    O62      O        0.10900    0.39580    0.85460    1.000
    O63      O        0.03580    0.85510    0.57950    1.000
    O64      O        0.01970    0.14540    0.57600    1.000
    N7       N        0.92700    0.97560    0.51970    1.000
    C19      C        0.89320    0.87230    0.50320    1.000
    H16      H        0.90210    0.79950    0.48140    1.000
    N8       N        0.84380    0.89610    0.52490    1.000
    C20      C        0.84710    0.01410    0.55490    1.000
    H17      H        0.81960    0.05350    0.57380    1.000
    C21      C        0.89850    0.06320    0.55170    1.000
    H18      H        0.91160    0.14150    0.56810    1.000
    C22      C        0.79010    0.73280    0.46040    1.000
    H19      H        0.81730    0.72170    0.43380    1.000
    C23      C        0.79720    0.82050    0.51220    1.000
    C24      C        0.75710    0.83800    0.55200    1.000
    H20      H        0.76200    0.89770    0.58670    1.000
    W25      W        0.60335    0.22851    0.28968    1.000
    W26      W        0.61849    0.01046    0.17189    1.000
    W27      W        0.51470    0.75889    0.13224    1.000
    W28      W        0.60168    0.77055    0.30142    1.000
    W29      W        0.52435    0.24003    0.13669    1.000
    W30      W        0.57688    0.98813    0.41479    1.000
    O65      O        0.54420    0.09230    0.22180    1.000
    O66      O        0.62430    0.86110    0.38280    1.000
    O67      O        0.47020    0.91300    0.18970    1.000
    O68      O        0.45100    0.68530    0.15260    1.000
    O69      O        0.64870    0.14190    0.23870    1.000
    O70      O        0.62730    0.89770    0.24930    1.000
    O71      O        0.46320    0.27820    0.17860    1.000
    O72      O        0.57290    0.31860    0.20640    1.000
    O73      O        0.53170    0.85810    0.43690    1.000
    O74      O        0.58700    0.14630    0.11590    1.000
    O75      O        0.55570    0.72170    0.21770    1.000
    O76      O        0.48000    0.10830    0.09140    1.000
    O77      O        0.56820    0.89160    0.12780    1.000
    O78      O        0.60900    0.10420    0.35460    1.000
    O79      O        0.53580    0.64490    0.07950    1.000
    O80      O        0.51970    0.35460    0.07600    1.000
    N9       N        0.42700    0.52440    0.01970    1.000
    C25      C        0.39320    0.62770    0.00320    1.000
    H21      H        0.40210    0.70050    0.98140    1.000
    N10      N        0.34380    0.60390    0.02490    1.000
    C26      C        0.34710    0.48590    0.05490    1.000
    H22      H        0.31960    0.44650    0.07380    1.000
    C27      C        0.39850    0.43680    0.05170    1.000
    H23      H        0.41160    0.35850    0.06810    1.000
    C28      C        0.29010    0.76720    0.96040    1.000
    H24      H        0.31730    0.77830    0.93380    1.000
    C29      C        0.29720    0.67950    0.01220    1.000
    C30      C        0.25710    0.66200    0.05200    1.000
    H25      H        0.26200    0.60230    0.08670    1.000
    W31      W        0.10335    0.72851    0.28968    1.000
    W32      W        0.11849    0.51046    0.17189    1.000
    W33      W        0.01470    0.25889    0.13224    1.000
    W34      W        0.10168    0.27055    0.30142    1.000
    W35      W        0.02435    0.74003    0.13669    1.000
    W36      W        0.07688    0.48813    0.41479    1.000
    O81      O        0.04420    0.59230    0.22180    1.000
    O82      O        0.12430    0.36110    0.38280    1.000
    O83      O        0.97020    0.41300    0.18970    1.000
    O84      O        0.95100    0.18530    0.15260    1.000
    O85      O        0.14870    0.64190    0.23870    1.000
    O86      O        0.12730    0.39770    0.24930    1.000
    O87      O        0.96320    0.77820    0.17860    1.000
    O88      O        0.07290    0.81860    0.20640    1.000
    O89      O        0.03170    0.35810    0.43690    1.000
    O90      O        0.08700    0.64630    0.11590    1.000
    O91      O        0.05570    0.22170    0.21770    1.000
    O92      O        0.98000    0.60830    0.09140    1.000
    O93      O        0.06820    0.39160    0.12780    1.000
    O94      O        0.10900    0.60420    0.35460    1.000
    O95      O        0.03580    0.14490    0.07950    1.000
    O96      O        0.01970    0.85460    0.07600    1.000
    N11      N        0.92700    0.02440    0.01970    1.000
    C31      C        0.89320    0.12770    0.00320    1.000
    H26      H        0.90210    0.20050    0.98140    1.000
    N12      N        0.84380    0.10390    0.02490    1.000
    C32      C        0.84710    0.98590    0.05490    1.000
    H27      H        0.81960    0.94650    0.07380    1.000
    C33      C        0.89850    0.93680    0.05170    1.000
    H28      H        0.91160    0.85850    0.06810    1.000
    C34      C        0.79010    0.26720    0.96040    1.000
    H29      H        0.81730    0.27830    0.93380    1.000
    C35      C        0.79720    0.17950    0.01220    1.000
    C36      C        0.75710    0.16200    0.05200    1.000
    H30      H        0.76200    0.10230    0.08670    1.000
    W37      W        0.39665    0.22851    0.21032    1.000
    W38      W        0.38151    0.01046    0.32811    1.000
    W39      W        0.48530    0.75889    0.36776    1.000
    W40      W        0.39832    0.77055    0.19858    1.000
    W41      W        0.47565    0.24003    0.36331    1.000
    W42      W        0.42312    0.98813    0.08521    1.000
    O97      O        0.45580    0.09230    0.27820    1.000
    O98      O        0.37570    0.86110    0.11720    1.000
    O99      O        0.52980    0.91300    0.31030    1.000
    O100     O        0.54900    0.68530    0.34740    1.000
    O101     O        0.35130    0.14190    0.26130    1.000
    O102     O        0.37270    0.89770    0.25070    1.000
    O103     O        0.53680    0.27820    0.32140    1.000
    O104     O        0.42710    0.31860    0.29360    1.000
    O105     O        0.46830    0.85810    0.06310    1.000
    O106     O        0.41300    0.14630    0.38410    1.000
    O107     O        0.44430    0.72170    0.28230    1.000
    O108     O        0.52000    0.10830    0.40860    1.000
    O109     O        0.43180    0.89160    0.37220    1.000
    O110     O        0.39100    0.10420    0.14540    1.000
    O111     O        0.46420    0.64490    0.42050    1.000
    O112     O        0.48030    0.35460    0.42400    1.000
    N13      N        0.57300    0.52440    0.48030    1.000
    C37      C        0.60680    0.62770    0.49680    1.000
    H31      H        0.59790    0.70050    0.51860    1.000
    N14      N        0.65620    0.60390    0.47510    1.000
    C38      C        0.65290    0.48590    0.44510    1.000
    H32      H        0.68040    0.44650    0.42620    1.000
    C39      C        0.60150    0.43680    0.44830    1.000
    H33      H        0.58840    0.35850    0.43190    1.000
    C40      C        0.70990    0.76720    0.53960    1.000
    H34      H        0.68270    0.77830    0.56620    1.000
    C41      C        0.70280    0.67950    0.48780    1.000
    C42      C        0.74290    0.66200    0.44800    1.000
    H35      H        0.73800    0.60230    0.41330    1.000
    W43      W        0.89665    0.72851    0.21032    1.000
    W44      W        0.88151    0.51046    0.32811    1.000
    W45      W        0.98530    0.25889    0.36776    1.000
    W46      W        0.89832    0.27055    0.19858    1.000
    W47      W        0.97565    0.74003    0.36331    1.000
    W48      W        0.92312    0.48813    0.08521    1.000
    O113     O        0.95580    0.59230    0.27820    1.000
    O114     O        0.87570    0.36110    0.11720    1.000
    O115     O        0.02980    0.41300    0.31030    1.000
    O116     O        0.04900    0.18530    0.34740    1.000
    O117     O        0.85130    0.64190    0.26130    1.000
    O118     O        0.87270    0.39770    0.25070    1.000
    O119     O        0.03680    0.77820    0.32140    1.000
    O120     O        0.92710    0.81860    0.29360    1.000
    O121     O        0.96830    0.35810    0.06310    1.000
    O122     O        0.91300    0.64630    0.38410    1.000
    O123     O        0.94430    0.22170    0.28230    1.000
    O124     O        0.02000    0.60830    0.40860    1.000
    O125     O        0.93180    0.39160    0.37220    1.000
    O126     O        0.89100    0.60420    0.14540    1.000
    O127     O        0.96420    0.14490    0.42050    1.000
    O128     O        0.98030    0.85460    0.42400    1.000
    N15      N        0.07300    0.02440    0.48030    1.000
    C43      C        0.10680    0.12770    0.49680    1.000
    H36      H        0.09790    0.20050    0.51860    1.000
    N16      N        0.15620    0.10390    0.47510    1.000
    C44      C        0.15290    0.98590    0.44510    1.000
    H37      H        0.18040    0.94650    0.42620    1.000
    C45      C        0.10150    0.93680    0.44830    1.000
    H38      H        0.08840    0.85850    0.43190    1.000
    C46      C        0.20990    0.26720    0.53960    1.000
    H39      H        0.18270    0.27830    0.56620    1.000
    C47      C        0.20280    0.17950    0.48780    1.000
    C48      C        0.24290    0.16200    0.44800    1.000
    H40      H        0.23800    0.10230    0.41330    1.000
    Si1      Si       0.50000    0.00000    0.75000    1.000
    Si2      Si       0.00000    0.50000    0.75000    1.000
    Si3      Si       0.50000    0.00000    0.25000    1.000
    Si4      Si       0.00000    0.50000    0.25000    1.000
    Cu1      Cu       0.50000    0.50000    0.00000    1.000
    Cu2      Cu       0.00000    0.00000    0.00000    1.000
    Cu3      Cu       0.50000    0.50000    0.50000    1.000
    Cu4      Cu       0.00000    0.00000    0.50000    1.000
