data_functionalizedCrystal
_audit_creation_method	'EQeq! by Chris Wilmer'
_symmetry_space_group_name_H-M	'P1'
_symmetry_Int_Tables_number	1
_symmetry_cell_setting	triclinic
loop_
_symmetry_equiv_pos_as_xyz
  x,y,z
_cell_length_a	8.6191
_cell_length_b	17.8031
_cell_length_c	9.0257
_cell_angle_alpha	90
_cell_angle_beta	107.357
_cell_angle_gamma	90
loop_
_atom_site_label
_atom_site_type_symbol
_atom_site_fract_x
_atom_site_fract_y
_atom_site_fract_z
_atom_site_charge
Mof_P 	P 	0.3476	0.42755	0.361	1.804
Mof_P 	P 	0.80689	0.29217	0.47431	1.699
Mof_P 	P 	0.26634	0.16905	0.4961	1.648
Mof_Al	Al	0.0772	0.29557	0.28743	7.263
Mof_Al	Al	0.13704	0.10962	0.16094	7.004
Mof_Al	Al	0.02365	0.17754	0.69316	6.496
Mof_O 	O 	0.0448	0.20608	0.1795	-3.421
Mof_H 	H 	4.44509e-34	0.2143	0.0872	0.86
Mof_O 	O 	0.1931	0.38098	0.3084	-1.992
Mof_O 	O 	0.2466	0.25081	0.4384	-1.982
Mof_O 	O 	0.9457	0.30645	0.4075	-2.014
Mof_O 	O 	0.4327	0.15892	0.6132	-1.804
Mof_O 	O 	0.4615	0.40524	0.2632	-2.136
Mof_O 	O 	0.8494	0.22697	0.5916	-2.086
Mof_O 	O 	0.1323	0.14924	0.5706	-2.076
Mof_O 	O 	0.6509	0.2693	0.3453	-2.138
Mof_O 	O 	0.2489	0.11346	0.3632	-1.861
Mof_O 	O 	0.4375	0.41341	0.5319	-2.01
Mof_O 	O 	0.3008	0.50925	0.3324	-1.766
Mof_O 	O 	0.7732	0.36298	0.5533	-2.02
Mof_P 	P 	0.1524	0.92755	0.139	1.799
Mof_P 	P 	0.69311	0.79217	0.02569	1.738
Mof_P 	P 	0.23366	0.66905	0.0039	1.678
Mof_Al	Al	0.4228	0.79557	0.21257	7.67
Mof_Al	Al	0.36296	0.60962	0.33906	7.318
Mof_Al	Al	0.47635	0.67754	0.80684	6.956
Mof_O 	O 	0.4552	0.70608	0.3205	-3.557
Mof_H 	H 	0.5	0.7143	0.4128	0.917
Mof_O 	O 	0.3069	0.88098	0.1916	-2.057
Mof_O 	O 	0.2534	0.75081	0.0616	-2.071
Mof_O 	O 	0.5543	0.80645	0.0925	-2.156
Mof_O 	O 	0.0673	0.65892	0.8868	-1.833
Mof_O 	O 	0.0385	0.90524	0.2368	-2.177
Mof_O 	O 	0.6506	0.72697	0.9084	-2.223
Mof_O 	O 	0.3677	0.64924	0.9294	-2.16
Mof_O 	O 	0.8491	0.7693	0.1547	-2.185
Mof_O 	O 	0.2511	0.61346	0.1368	-1.932
Mof_O 	O 	0.0625	0.91341	0.9681	-1.994
Mof_O 	O 	0.1992	0.00925	0.1676	-1.723
Mof_O 	O 	0.7268	0.86298	0.9467	-2.041
Mof_P 	P 	0.6524	0.57245	0.639	1.829
Mof_P 	P 	0.19311	0.70783	0.52569	1.753
Mof_P 	P 	0.73366	0.83095	0.5039	1.707
Mof_Al	Al	0.9228	0.70443	0.71257	7.742
Mof_Al	Al	0.86296	0.89038	0.83906	7.293
Mof_Al	Al	0.97635	0.82246	0.30684	7.061
Mof_O 	O 	0.9552	0.79392	0.8205	-3.572
Mof_H 	H 	4.30013e-17	0.7857	0.9128	0.93
Mof_O 	O 	0.8069	0.61902	0.6916	-2.064
Mof_O 	O 	0.7534	0.74919	0.5616	-2.073
Mof_O 	O 	0.0543	0.69355	0.5925	-2.173
Mof_O 	O 	0.5673	0.84108	0.3868	-1.829
Mof_O 	O 	0.5385	0.59476	0.7368	-2.154
Mof_O 	O 	0.1506	0.77303	0.4084	-2.254
Mof_O 	O 	0.8677	0.85076	0.4294	-2.187
Mof_O 	O 	0.3491	0.7307	0.6547	-2.171
Mof_O 	O 	0.7511	0.88654	0.6368	-1.921
Mof_O 	O 	0.5625	0.58659	0.4681	-2.021
Mof_O 	O 	0.6992	0.49075	0.6676	-1.751
Mof_O 	O 	0.2268	0.63702	0.4467	-2.055
Mof_P 	P 	0.8476	0.07245	0.861	1.773
Mof_P 	P 	0.30689	0.20783	0.97431	1.698
Mof_P 	P 	0.76634	0.33095	0.9961	1.649
Mof_Al	Al	0.5772	0.20443	0.78743	7.599
Mof_Al	Al	0.63704	0.39038	0.66094	7.276
Mof_Al	Al	0.52365	0.32246	0.19316	6.903
Mof_O 	O 	0.5448	0.29392	0.6795	-3.53
Mof_H 	H 	0.5	0.2857	0.5872	0.912
Mof_O 	O 	0.6931	0.11902	0.8084	-2.026
Mof_O 	O 	0.7466	0.24919	0.9384	-2.024
Mof_O 	O 	0.4457	0.19355	0.9075	-2.129
Mof_O 	O 	0.9327	0.34108	0.1132	-1.695
Mof_O 	O 	0.9615	0.09476	0.7632	-2.002
Mof_O 	O 	0.3494	0.27303	0.0916	-2.197
Mof_O 	O 	0.6323	0.35076	0.0706	-2.136
Mof_O 	O 	0.1509	0.2307	0.8453	-2.078
Mof_O 	O 	0.7489	0.38654	0.8632	-1.905
Mof_O 	O 	0.9375	0.08659	0.0319	-1.879
Mof_O 	O 	0.8008	0.99075	0.8324	-1.757
Mof_O 	O 	0.2732	0.13702	0.0533	-1.977
_end
