# CIF file generated by openbabel 3.1.0, see https://openbabel.org
data_I
_chemical_name_common 'image0'
_cell_length_a 10.1298
_cell_length_b 17.0934
_cell_length_c 11.0846
_cell_angle_alpha 90
_cell_angle_beta 108.696
_cell_angle_gamma 90
_space_group_name_H-M_alt 'P 1'
_space_group_name_Hall 'P 1'
loop_
    _symmetry_equiv_pos_as_xyz
    x,y,z
loop_
    _atom_site_label
    _atom_site_type_symbol
    _atom_site_fract_x
    _atom_site_fract_y
    _atom_site_fract_z
    _atom_site_occupancy
    Dy1      Dy       0.00893    0.00405    0.68318    1.000
    O1       O        0.22620    0.98444    0.65400    1.000
    O2       O        0.84950    0.91264    0.71830    1.000
    O3       O        0.20420    0.02421    0.89090    1.000
    O4       O        0.32250    0.92667    0.99930    1.000
    N1       N        0.22480    0.95184    0.91150    1.000
    O5       O        0.13650    0.90592    0.83650    1.000
    O6       O        0.06580    0.13986    0.67100    1.000
    O7       O        0.20930    0.95172    0.45250    1.000
    O8       O        0.02480    0.08484    0.48250    1.000
    N2       N        0.71200    0.92134    0.68530    1.000
    C1       C        0.42790    0.94164    0.61320    1.000
    C2       C        0.48940    0.90292    0.53480    1.000
    H1       H        0.43410    0.88370    0.45640    1.000
    C3       C        0.63110    0.89272    0.57200    1.000
    H2       H        0.67150    0.86620    0.51940    1.000
    N3       N        0.94490    0.36849    0.37940    1.000
    C4       C        0.27460    0.95989    0.56970    1.000
    O9       O        0.91290    0.43929    0.32720    1.000
    C5       C        0.65570    0.95746    0.76470    1.000
    H3       H        0.71290    0.97590    0.84290    1.000
    C6       C        0.88810    0.30413    0.31240    1.000
    H4       H        0.82730    0.30920    0.22980    1.000
    C7       C        0.51420    0.96714    0.73080    1.000
    H5       H        0.47570    0.99100    0.78710    1.000
    C8       C        0.91960    0.23151    0.36530    1.000
    H6       H        0.88190    0.18730    0.31790    1.000
    C9       C        0.03630    0.14507    0.55200    1.000
    C10      C        0.06090    0.29111    0.55750    1.000
    H7       H        0.11760    0.28760    0.64190    1.000
    C11      C        0.03010    0.36298    0.50060    1.000
    H8       H        0.06800    0.40800    0.54570    1.000
    C12      C        0.00780    0.22359    0.48990    1.000
    Dy2      Dy       0.99107    0.50405    0.81682    1.000
    O10      O        0.77380    0.48444    0.84600    1.000
    O11      O        0.15050    0.41264    0.78170    1.000
    O12      O        0.79580    0.52421    0.60910    1.000
    O13      O        0.67750    0.42667    0.50070    1.000
    N4       N        0.77520    0.45184    0.58850    1.000
    O14      O        0.86350    0.40592    0.66350    1.000
    O15      O        0.93420    0.63986    0.82900    1.000
    O16      O        0.79070    0.45172    0.04750    1.000
    O17      O        0.97520    0.58484    0.01750    1.000
    N5       N        0.28800    0.42134    0.81470    1.000
    C13      C        0.57210    0.44164    0.88680    1.000
    C14      C        0.51060    0.40292    0.96520    1.000
    H9       H        0.56590    0.38370    0.04360    1.000
    C15      C        0.36890    0.39272    0.92800    1.000
    H10      H        0.32850    0.36620    0.98060    1.000
    N6       N        0.05510    0.86849    0.12060    1.000
    C16      C        0.72540    0.45989    0.93030    1.000
    O18      O        0.08710    0.93929    0.17280    1.000
    C17      C        0.34430    0.45746    0.73530    1.000
    H11      H        0.28710    0.47590    0.65710    1.000
    C18      C        0.11190    0.80413    0.18760    1.000
    H12      H        0.17270    0.80920    0.27020    1.000
    C19      C        0.48580    0.46714    0.76920    1.000
    H13      H        0.52430    0.49100    0.71290    1.000
    C20      C        0.08040    0.73151    0.13470    1.000
    H14      H        0.11810    0.68730    0.18210    1.000
    C21      C        0.96370    0.64507    0.94800    1.000
    C22      C        0.93910    0.79111    0.94250    1.000
    H15      H        0.88240    0.78760    0.85810    1.000
    C23      C        0.96990    0.86298    0.99940    1.000
    H16      H        0.93200    0.90800    0.95430    1.000
    C24      C        0.99220    0.72359    0.01010    1.000
    Dy3      Dy       0.99107    0.99595    0.31682    1.000
    O19      O        0.77380    0.01556    0.34600    1.000
    O20      O        0.15050    0.08736    0.28170    1.000
    O21      O        0.79580    0.97579    0.10910    1.000
    O22      O        0.67750    0.07333    0.00070    1.000
    N7       N        0.77520    0.04816    0.08850    1.000
    O23      O        0.86350    0.09408    0.16350    1.000
    O24      O        0.93420    0.86014    0.32900    1.000
    O25      O        0.79070    0.04828    0.54750    1.000
    O26      O        0.97520    0.91516    0.51750    1.000
    N8       N        0.28800    0.07866    0.31470    1.000
    C25      C        0.57210    0.05836    0.38680    1.000
    C26      C        0.51060    0.09708    0.46520    1.000
    H17      H        0.56590    0.11630    0.54360    1.000
    C27      C        0.36890    0.10728    0.42800    1.000
    H18      H        0.32850    0.13380    0.48060    1.000
    N9       N        0.05510    0.63151    0.62060    1.000
    C28      C        0.72540    0.04011    0.43030    1.000
    O27      O        0.08710    0.56071    0.67280    1.000
    C29      C        0.34430    0.04254    0.23530    1.000
    H19      H        0.28710    0.02410    0.15710    1.000
    C30      C        0.11190    0.69587    0.68760    1.000
    H20      H        0.17270    0.69080    0.77020    1.000
    C31      C        0.48580    0.03286    0.26920    1.000
    H21      H        0.52430    0.00900    0.21290    1.000
    C32      C        0.08040    0.76849    0.63470    1.000
    H22      H        0.11810    0.81270    0.68210    1.000
    C33      C        0.96370    0.85493    0.44800    1.000
    C34      C        0.93910    0.70889    0.44250    1.000
    H23      H        0.88240    0.71240    0.35810    1.000
    C35      C        0.96990    0.63702    0.49940    1.000
    H24      H        0.93200    0.59200    0.45430    1.000
    C36      C        0.99220    0.77641    0.51010    1.000
    Dy4      Dy       0.00893    0.49595    0.18318    1.000
    O28      O        0.22620    0.51556    0.15400    1.000
    O29      O        0.84950    0.58736    0.21830    1.000
    O30      O        0.20420    0.47579    0.39090    1.000
    O31      O        0.32250    0.57333    0.49930    1.000
    N10      N        0.22480    0.54816    0.41150    1.000
    O32      O        0.13650    0.59408    0.33650    1.000
    O33      O        0.06580    0.36014    0.17100    1.000
    O34      O        0.20930    0.54828    0.95250    1.000
    O35      O        0.02480    0.41516    0.98250    1.000
    N11      N        0.71200    0.57866    0.18530    1.000
    C37      C        0.42790    0.55836    0.11320    1.000
    C38      C        0.48940    0.59708    0.03480    1.000
    H25      H        0.43410    0.61630    0.95640    1.000
    C39      C        0.63110    0.60728    0.07200    1.000
    H26      H        0.67150    0.63380    0.01940    1.000
    N12      N        0.94490    0.13151    0.87940    1.000
    C40      C        0.27460    0.54011    0.06970    1.000
    O36      O        0.91290    0.06071    0.82720    1.000
    C41      C        0.65570    0.54254    0.26470    1.000
    H27      H        0.71290    0.52410    0.34290    1.000
    C42      C        0.88810    0.19587    0.81240    1.000
    H28      H        0.82730    0.19080    0.72980    1.000
    C43      C        0.51420    0.53286    0.23080    1.000
    H29      H        0.47570    0.50900    0.28710    1.000
    C44      C        0.91960    0.26849    0.86530    1.000
    H30      H        0.88190    0.31270    0.81790    1.000
    C45      C        0.03630    0.35493    0.05200    1.000
    C46      C        0.06090    0.20889    0.05750    1.000
    H31      H        0.11760    0.21240    0.14190    1.000
    C47      C        0.03010    0.13702    0.00060    1.000
    H32      H        0.06800    0.09200    0.04570    1.000
    C48      C        0.00780    0.27641    0.98990    1.000
