data_functionalizedCrystal
_audit_creation_method	'EQeq! by Chris Wilmer'
_symmetry_space_group_name_H-M	'P1'
_symmetry_Int_Tables_number	1
_symmetry_cell_setting	triclinic
loop_
_symmetry_equiv_pos_as_xyz
  x,y,z
_cell_length_a	17.013
_cell_length_b	17.382
_cell_length_c	17.935
_cell_angle_alpha	90
_cell_angle_beta	90
_cell_angle_gamma	90
loop_
_atom_site_label
_atom_site_type_symbol
_atom_site_fract_x
_atom_site_fract_y
_atom_site_fract_z
_atom_site_charge
Mof_Mn	Mn	0.6149	0.3634	0.8669	0.533
Mof_Mn	Mn	0.3851	0.1366	0.3669	0.533
Mof_Mn	Mn	0.1149	0.6366	0.6331	0.534
Mof_Mn	Mn	0.8851	0.8634	0.1331	0.534
Mof_Mn	Mn	0.3851	0.6366	0.1331	0.534
Mof_Mn	Mn	0.6149	0.8634	0.6331	0.534
Mof_Mn	Mn	0.8851	0.3634	0.3669	0.534
Mof_Mn	Mn	0.1149	0.1366	0.8669	0.534
Mof_Re	Re	0.90031	0.46525	0.96513	0.23
Mof_Re	Re	0.95796	0.59999	0.01325	0.224
Mof_Re	Re	0.02887	0.52525	0.90078	0.224
Mof_Re	Re	0.09969	0.03475	0.46513	0.228
Mof_Re	Re	0.04204	0.90001	0.51325	0.226
Mof_Re	Re	0.97113	0.97475	0.40078	0.223
Mof_Re	Re	0.40031	0.53475	0.53487	0.229
Mof_Re	Re	0.45796	0.40001	0.48675	0.225
Mof_Re	Re	0.52887	0.47475	0.59922	0.224
Mof_Re	Re	0.59969	0.96525	0.03487	0.228
Mof_Re	Re	0.54204	0.09999	0.98675	0.224
Mof_Re	Re	0.47113	0.02525	0.09922	0.225
Mof_Re	Re	0.09969	0.53475	0.03487	0.23
Mof_Re	Re	0.04204	0.40001	0.98675	0.224
Mof_Re	Re	0.97113	0.47475	0.09922	0.224
Mof_Re	Re	0.90031	0.96525	0.53487	0.228
Mof_Re	Re	0.95796	0.09999	0.48675	0.226
Mof_Re	Re	0.02887	0.02525	0.59922	0.223
Mof_Re	Re	0.59969	0.46525	0.46513	0.229
Mof_Re	Re	0.54204	0.59999	0.51325	0.225
Mof_Re	Re	0.47113	0.52525	0.40078	0.224
Mof_Re	Re	0.40031	0.03475	0.96513	0.228
Mof_Re	Re	0.45796	0.90001	0.01325	0.224
Mof_Re	Re	0.52887	0.97475	0.90078	0.225
Mof_Te	Te	0.88772	0.59187	0.87924	-0.118
Mof_Te	Te	0.97195	0.39039	0.85318	-0.127
Mof_Te	Te	0.82965	0.53885	0.07775	-0.121
Mof_Te	Te	0.91377	0.34034	0.05213	-0.123
Mof_Te	Te	0.11228	0.90813	0.37924	-0.118
Mof_Te	Te	0.02805	0.10961	0.35318	-0.128
Mof_Te	Te	0.17035	0.96115	0.57775	-0.119
Mof_Te	Te	0.08623	0.15966	0.55213	-0.123
Mof_Te	Te	0.38772	0.40813	0.62076	-0.119
Mof_Te	Te	0.47195	0.60961	0.64682	-0.128
Mof_Te	Te	0.32965	0.46115	0.42225	-0.12
Mof_Te	Te	0.41377	0.65966	0.44787	-0.123
Mof_Te	Te	0.61228	0.09187	0.12076	-0.118
Mof_Te	Te	0.52805	0.89039	0.14682	-0.129
Mof_Te	Te	0.67035	0.03885	0.92225	-0.12
Mof_Te	Te	0.58623	0.84034	0.94787	-0.122
Mof_Te	Te	0.11228	0.40813	0.12076	-0.118
Mof_Te	Te	0.02805	0.60961	0.14682	-0.127
Mof_Te	Te	0.17035	0.46115	0.92225	-0.121
Mof_Te	Te	0.08623	0.65966	0.94787	-0.123
Mof_Te	Te	0.88772	0.09187	0.62076	-0.118
Mof_Te	Te	0.97195	0.89039	0.64682	-0.128
Mof_Te	Te	0.82965	0.03885	0.42225	-0.119
Mof_Te	Te	0.91377	0.84034	0.44787	-0.123
Mof_Te	Te	0.61228	0.59187	0.37924	-0.119
Mof_Te	Te	0.52805	0.39039	0.35318	-0.128
Mof_Te	Te	0.67035	0.53885	0.57775	-0.12
Mof_Te	Te	0.58623	0.34034	0.55213	-0.123
Mof_Te	Te	0.38772	0.90813	0.87924	-0.118
Mof_Te	Te	0.47195	0.10961	0.85318	-0.129
Mof_Te	Te	0.32965	0.96115	0.07775	-0.12
Mof_Te	Te	0.41377	0.15966	0.05213	-0.122
Mof_C 	C 	0.7909	0.4259	0.9255	-0.058
Mof_C 	C 	0.0645	0.5509	0.7902	-0.054
Mof_C 	C 	0.9129	0.7124	0.0328	-0.068
Mof_C 	C 	0.2091	0.0741	0.4255	-0.058
Mof_C 	C 	0.9355	0.9491	0.2902	-0.055
Mof_C 	C 	0.0871	0.7876	0.5328	-0.068
Mof_C 	C 	0.2909	0.5741	0.5745	-0.058
Mof_C 	C 	0.5645	0.4491	0.7098	-0.054
Mof_C 	C 	0.4129	0.2876	0.4672	-0.068
Mof_C 	C 	0.7091	0.9259	0.0745	-0.058
Mof_C 	C 	0.4355	0.0509	0.2098	-0.054
Mof_C 	C 	0.5871	0.2124	0.9672	-0.068
Mof_C 	C 	0.2091	0.5741	0.0745	-0.058
Mof_C 	C 	0.9355	0.4491	0.2098	-0.054
Mof_C 	C 	0.0871	0.2876	0.9672	-0.068
Mof_C 	C 	0.7909	0.9259	0.5745	-0.058
Mof_C 	C 	0.0645	0.0509	0.7098	-0.055
Mof_C 	C 	0.9129	0.2124	0.4672	-0.068
Mof_C 	C 	0.7091	0.4259	0.4255	-0.058
Mof_C 	C 	0.4355	0.5509	0.2902	-0.054
Mof_C 	C 	0.5871	0.7124	0.5328	-0.068
Mof_C 	C 	0.2909	0.0741	0.9255	-0.058
Mof_C 	C 	0.5645	0.9491	0.7902	-0.054
Mof_C 	C 	0.4129	0.7876	0.0328	-0.068
Mof_N 	N 	0.7337	0.403	0.9019	-0.177
Mof_N 	N 	0.0853	0.5686	0.7346	-0.186
Mof_N 	N 	0.8914	0.774	0.0457	-0.179
Mof_N 	N 	0.2663	0.097	0.4019	-0.177
Mof_N 	N 	0.9147	0.9314	0.2346	-0.186
Mof_N 	N 	0.1086	0.726	0.5457	-0.179
Mof_N 	N 	0.2337	0.597	0.5981	-0.177
Mof_N 	N 	0.5853	0.4314	0.7654	-0.186
Mof_N 	N 	0.3914	0.226	0.4543	-0.179
Mof_N 	N 	0.7663	0.903	0.0981	-0.177
Mof_N 	N 	0.4147	0.0686	0.2654	-0.186
Mof_N 	N 	0.6086	0.274	0.9543	-0.179
Mof_N 	N 	0.2663	0.597	0.0981	-0.177
Mof_N 	N 	0.9147	0.4314	0.2654	-0.186
Mof_N 	N 	0.1086	0.226	0.9543	-0.179
Mof_N 	N 	0.7337	0.903	0.5981	-0.177
Mof_N 	N 	0.0853	0.0686	0.7654	-0.186
Mof_N 	N 	0.8914	0.274	0.4543	-0.179
Mof_N 	N 	0.7663	0.403	0.4019	-0.177
Mof_N 	N 	0.4147	0.5686	0.2346	-0.186
Mof_N 	N 	0.6086	0.774	0.5457	-0.179
Mof_N 	N 	0.2337	0.097	0.9019	-0.177
Mof_N 	N 	0.5853	0.9314	0.7346	-0.186
Mof_N 	N 	0.3914	0.726	0.0457	-0.179
_end
