data_functionalizedCrystal
_audit_creation_method	'EQeq! by Chris Wilmer'
_symmetry_space_group_name_H-M	'P1'
_symmetry_Int_Tables_number	1
_symmetry_cell_setting	triclinic
loop_
_symmetry_equiv_pos_as_xyz
  x,y,z
_cell_length_a	13.9822
_cell_length_b	13.9822
_cell_length_c	6.2233
_cell_angle_alpha	90
_cell_angle_beta	90
_cell_angle_gamma	90
loop_
_atom_site_label
_atom_site_type_symbol
_atom_site_fract_x
_atom_site_fract_y
_atom_site_fract_z
_atom_site_charge
Mof_N 	N 	0.6409	0.7044	0.0737	-0.276
Mof_C 	C 	0.5549	0.6275	0.8355	-0.016
Mof_C 	C 	0.497	0.6976	0.9154	-0.027
Mof_C 	C 	0.6406	0.6328	0.9295	0.01
Mof_C 	C 	0.5528	0.7418	0.0626	0.023
Mof_C 	C 	0.5247	0.5619	0.6646	-0.002
Mof_C 	C 	0.5555	0.4672	0.6684	-0.023
Mof_H 	H 	0.5923	0.4449	0.7823	0.038
Mof_C 	C 	0.4689	0.5932	0.4973	-0.029
Mof_H 	H 	0.4473	0.6561	0.4959	0.038
Mof_H 	H 	0.699	0.597	0.919	-0
Mof_H 	H 	0.541	0.793	0.155	0.002
Mof_N 	N 	0.4451	0.3725	0.1645	-0.146
Mof_N 	N 	0.8591	0.7956	0.0737	-0.276
Mof_C 	C 	0.9451	0.8725	0.8355	-0.024
Mof_C 	C 	0.003	0.8024	0.9154	-0.019
Mof_C 	C 	0.8594	0.8672	0.9295	0.013
Mof_C 	C 	0.9472	0.7582	0.0626	0.015
Mof_C 	C 	0.9753	0.9381	0.6646	0
Mof_C 	C 	0.9445	0.0328	0.6684	-0.029
Mof_H 	H 	0.9077	0.0551	0.7823	0.039
Mof_C 	C 	0.0311	0.9068	0.4973	-0.028
Mof_H 	H 	0.0527	0.8439	0.4959	0.039
Mof_H 	H 	0.801	0.903	0.919	-0.001
Mof_H 	H 	0.959	0.707	0.155	0.004
Mof_N 	N 	0.0549	0.1275	0.1645	-0.144
Mof_N 	N 	0.2956	0.1409	0.5737	-0.277
Mof_C 	C 	0.3725	0.0549	0.3355	-0.022
Mof_C 	C 	0.3024	0.997	0.4154	-0.018
Mof_C 	C 	0.3672	0.1406	0.4295	0.013
Mof_C 	C 	0.2582	0.0528	0.5626	0.013
Mof_C 	C 	0.4381	0.0247	0.1646	-0.007
Mof_C 	C 	0.5328	0.0555	0.1684	-0.018
Mof_H 	H 	0.5551	0.0923	0.2823	0.037
Mof_C 	C 	0.4068	0.9689	0.9973	-0.022
Mof_H 	H 	0.3439	0.9473	0.9959	0.036
Mof_H 	H 	0.403	0.199	0.419	-0.001
Mof_H 	H 	0.207	0.041	0.655	0.004
Mof_N 	N 	0.6275	0.9451	0.6645	-0.144
Mof_N 	N 	0.2044	0.3591	0.5737	-0.278
Mof_C 	C 	0.1275	0.4451	0.3355	-0.024
Mof_C 	C 	0.1976	0.503	0.4154	-0.024
Mof_C 	C 	0.1328	0.3594	0.4295	0.015
Mof_C 	C 	0.2418	0.4472	0.5626	0.02
Mof_C 	C 	0.0619	0.4753	0.1646	0.014
Mof_C 	C 	0.9672	0.4445	0.1684	-0.04
Mof_H 	H 	0.9449	0.4077	0.2823	0.044
Mof_C 	C 	0.0932	0.5311	0.9973	-0.045
Mof_H 	H 	0.1561	0.5527	0.9959	0.043
Mof_H 	H 	0.097	0.301	0.419	-0.001
Mof_H 	H 	0.293	0.459	0.655	0.002
Mof_N 	N 	0.8725	0.5549	0.6645	-0.144
Mof_N 	N 	0.3591	0.2956	0.9263	-0.285
Mof_C 	C 	0.503	0.3024	0.0846	0.027
Mof_C 	C 	0.3594	0.3672	0.0705	0.091
Mof_C 	C 	0.4472	0.2582	0.9374	-0.003
Mof_C 	C 	0.4753	0.4381	0.3354	0.1
Mof_C 	C 	0.4445	0.5328	0.3316	-0.111
Mof_H 	H 	0.4077	0.5551	0.2177	0.073
Mof_C 	C 	0.5311	0.4068	0.5027	-0.119
Mof_H 	H 	0.5527	0.3439	0.5041	0.069
Mof_H 	H 	0.301	0.403	0.081	-0.027
Mof_H 	H 	0.459	0.207	0.845	0.009
Mof_N 	N 	0.1409	0.2044	0.9263	-0.286
Mof_C 	C 	0.997	0.1976	0.0846	0.021
Mof_C 	C 	0.1406	0.1328	0.0705	0.09
Mof_C 	C 	0.0528	0.2418	0.9374	0.003
Mof_C 	C 	0.0247	0.0619	0.3354	0.097
Mof_C 	C 	0.0555	0.9672	0.3316	-0.105
Mof_H 	H 	0.0923	0.9449	0.2177	0.072
Mof_C 	C 	0.9689	0.0932	0.5027	-0.119
Mof_H 	H 	0.9473	0.1561	0.5041	0.068
Mof_H 	H 	0.199	0.097	0.081	-0.027
Mof_H 	H 	0.041	0.293	0.845	0.008
Mof_N 	N 	0.7044	0.8591	0.4263	-0.286
Mof_C 	C 	0.6976	0.003	0.5846	0.018
Mof_C 	C 	0.6328	0.8594	0.5705	0.09
Mof_C 	C 	0.7418	0.9472	0.4374	0.007
Mof_C 	C 	0.5619	0.9753	0.8354	0.105
Mof_C 	C 	0.4672	0.9445	0.8316	-0.116
Mof_H 	H 	0.4449	0.9077	0.7177	0.075
Mof_C 	C 	0.5932	0.0311	0.0027	-0.126
Mof_H 	H 	0.6561	0.0527	0.0041	0.071
Mof_H 	H 	0.597	0.801	0.581	-0.027
Mof_H 	H 	0.793	0.959	0.345	0.008
Mof_N 	N 	0.7956	0.6409	0.4263	-0.285
Mof_C 	C 	0.8024	0.497	0.5846	0.024
Mof_C 	C 	0.8672	0.6406	0.5705	0.088
Mof_C 	C 	0.7582	0.5528	0.4374	0
Mof_C 	C 	0.9381	0.5247	0.8354	0.085
Mof_C 	C 	0.0328	0.5555	0.8316	-0.094
Mof_H 	H 	0.0551	0.5923	0.7177	0.067
Mof_C 	C 	0.9068	0.4689	0.0027	-0.103
Mof_H 	H 	0.8439	0.4473	0.0041	0.064
Mof_H 	H 	0.903	0.699	0.581	-0.027
Mof_H 	H 	0.707	0.541	0.345	0.009
Mof_Zn	Zn	0.75	0.75	0.25	1.175
Mof_Zn	Zn	0.25	0.25	0.75	1.175
_end
