data_functionalizedCrystal
_audit_creation_method	'EQeq! by Chris Wilmer'
_symmetry_space_group_name_H-M	'P1'
_symmetry_Int_Tables_number	1
_symmetry_cell_setting	triclinic
loop_
_symmetry_equiv_pos_as_xyz
  x,y,z
_cell_length_a	35.49
_cell_length_b	35.49
_cell_length_c	35.49
_cell_angle_alpha	90
_cell_angle_beta	90
_cell_angle_gamma	90
loop_
_atom_site_label
_atom_site_type_symbol
_atom_site_fract_x
_atom_site_fract_y
_atom_site_fract_z
_atom_site_charge
Mof_O 	O 	0.46254	0.03746	0.21922	-0.413
Mof_C 	C 	0.4067	0.0951	0.2181	0.062
Mof_H 	H 	0.4157	0.0872	0.1948	0.021
Mof_C 	C 	0.377	0.1251	0.2191	-0.13
Mof_H 	H 	0.3694	0.1345	0.1959	0.074
Mof_C 	C 	0.3198	0.1785	0.2141	0.022
Mof_H 	H 	0.3293	0.1685	0.1919	0.017
Mof_C 	C 	0.2932	0.2044	0.2164	-0.137
Mof_H 	H 	0.2826	0.2128	0.194	0.081
Mof_O 	O 	0.53746	0.96254	0.21922	-0.408
Mof_C 	C 	0.5933	0.9049	0.2181	0.062
Mof_H 	H 	0.5843	0.9128	0.1948	0.023
Mof_C 	C 	0.623	0.8749	0.2191	-0.128
Mof_H 	H 	0.6306	0.8655	0.1959	0.075
Mof_C 	C 	0.6802	0.8215	0.2141	0.022
Mof_H 	H 	0.6707	0.8315	0.1919	0.018
Mof_C 	C 	0.7068	0.7956	0.2164	-0.136
Mof_H 	H 	0.7174	0.7872	0.194	0.082
Mof_O 	O 	0.53746	0.03746	0.78078	-0.413
Mof_C 	C 	0.5933	0.0951	0.7819	0.063
Mof_H 	H 	0.5843	0.0872	0.8052	0.022
Mof_C 	C 	0.623	0.1251	0.7809	-0.13
Mof_H 	H 	0.6306	0.1345	0.8041	0.075
Mof_C 	C 	0.6802	0.1785	0.7859	0.023
Mof_H 	H 	0.6707	0.1685	0.8081	0.018
Mof_C 	C 	0.7068	0.2044	0.7836	-0.137
Mof_H 	H 	0.7174	0.2128	0.806	0.083
Mof_O 	O 	0.46254	0.96254	0.78078	-0.408
Mof_C 	C 	0.4067	0.9049	0.7819	0.062
Mof_H 	H 	0.4157	0.9128	0.8052	0.024
Mof_C 	C 	0.377	0.8749	0.7809	-0.128
Mof_H 	H 	0.3694	0.8655	0.8041	0.076
Mof_C 	C 	0.3198	0.8215	0.7859	0.023
Mof_H 	H 	0.3293	0.8315	0.8081	0.019
Mof_C 	C 	0.2932	0.7956	0.7836	-0.136
Mof_H 	H 	0.2826	0.7872	0.806	0.083
Mof_O 	O 	0.21922	0.46254	0.03746	-0.414
Mof_C 	C 	0.2181	0.4067	0.0951	0.062
Mof_H 	H 	0.1948	0.4157	0.0872	0.021
Mof_C 	C 	0.2191	0.377	0.1251	-0.13
Mof_H 	H 	0.1959	0.3694	0.1345	0.074
Mof_C 	C 	0.2141	0.3198	0.1785	0.022
Mof_H 	H 	0.1919	0.3293	0.1685	0.017
Mof_C 	C 	0.2164	0.2932	0.2044	-0.137
Mof_H 	H 	0.194	0.2826	0.2128	0.081
Mof_O 	O 	0.21922	0.53746	0.96254	-0.408
Mof_C 	C 	0.2181	0.5933	0.9049	0.062
Mof_H 	H 	0.1948	0.5843	0.9128	0.023
Mof_C 	C 	0.2191	0.623	0.8749	-0.128
Mof_H 	H 	0.1959	0.6306	0.8655	0.075
Mof_C 	C 	0.2141	0.6802	0.8215	0.022
Mof_H 	H 	0.1919	0.6707	0.8315	0.018
Mof_C 	C 	0.2164	0.7068	0.7956	-0.136
Mof_H 	H 	0.194	0.7174	0.7872	0.082
Mof_O 	O 	0.78078	0.53746	0.03746	-0.413
Mof_C 	C 	0.7819	0.5933	0.0951	0.063
Mof_H 	H 	0.8052	0.5843	0.0872	0.022
Mof_C 	C 	0.7809	0.623	0.1251	-0.13
Mof_H 	H 	0.8041	0.6306	0.1345	0.075
Mof_C 	C 	0.7859	0.6802	0.1785	0.023
Mof_H 	H 	0.8081	0.6707	0.1685	0.018
Mof_C 	C 	0.7836	0.7068	0.2044	-0.137
Mof_H 	H 	0.806	0.7174	0.2128	0.083
Mof_O 	O 	0.78078	0.46254	0.96254	-0.408
Mof_C 	C 	0.7819	0.4067	0.9049	0.062
Mof_H 	H 	0.8052	0.4157	0.9128	0.024
Mof_C 	C 	0.7809	0.377	0.8749	-0.128
Mof_H 	H 	0.8041	0.3694	0.8655	0.076
Mof_C 	C 	0.7859	0.3198	0.8215	0.023
Mof_H 	H 	0.8081	0.3293	0.8315	0.019
Mof_C 	C 	0.7836	0.2932	0.7956	-0.136
Mof_H 	H 	0.806	0.2826	0.7872	0.083
Mof_O 	O 	0.03746	0.21922	0.46254	-0.414
Mof_C 	C 	0.0951	0.2181	0.4067	0.062
Mof_H 	H 	0.0872	0.1948	0.4157	0.021
Mof_C 	C 	0.1251	0.2191	0.377	-0.13
Mof_H 	H 	0.1345	0.1959	0.3694	0.074
Mof_C 	C 	0.1785	0.2141	0.3198	0.022
Mof_H 	H 	0.1685	0.1919	0.3293	0.017
Mof_C 	C 	0.2044	0.2164	0.2932	-0.137
Mof_H 	H 	0.2128	0.194	0.2826	0.081
Mof_O 	O 	0.96254	0.21922	0.53746	-0.408
Mof_C 	C 	0.9049	0.2181	0.5933	0.062
Mof_H 	H 	0.9128	0.1948	0.5843	0.023
Mof_C 	C 	0.8749	0.2191	0.623	-0.128
Mof_H 	H 	0.8655	0.1959	0.6306	0.075
Mof_C 	C 	0.8215	0.2141	0.6802	0.022
Mof_H 	H 	0.8315	0.1919	0.6707	0.018
Mof_C 	C 	0.7956	0.2164	0.7068	-0.136
Mof_H 	H 	0.7872	0.194	0.7174	0.082
Mof_O 	O 	0.03746	0.78078	0.53746	-0.413
Mof_C 	C 	0.0951	0.7819	0.5933	0.063
Mof_H 	H 	0.0872	0.8052	0.5843	0.022
Mof_C 	C 	0.1251	0.7809	0.623	-0.13
Mof_H 	H 	0.1345	0.8041	0.6306	0.075
Mof_C 	C 	0.1785	0.7859	0.6802	0.023
Mof_H 	H 	0.1685	0.8081	0.6707	0.018
Mof_C 	C 	0.2044	0.7836	0.7068	-0.137
Mof_H 	H 	0.2128	0.806	0.7174	0.083
Mof_O 	O 	0.96254	0.78078	0.46254	-0.408
Mof_C 	C 	0.9049	0.7819	0.4067	0.062
Mof_H 	H 	0.9128	0.8052	0.4157	0.024
Mof_C 	C 	0.8749	0.7809	0.377	-0.128
Mof_H 	H 	0.8655	0.8041	0.3694	0.076
Mof_C 	C 	0.8215	0.7859	0.3198	0.023
Mof_H 	H 	0.8315	0.8081	0.3293	0.019
Mof_C 	C 	0.7956	0.7836	0.2932	-0.136
Mof_H 	H 	0.7872	0.806	0.2826	0.083
Mof_O 	O 	0.53746	0.96254	0.28078	-0.408
Mof_C 	C 	0.5951	0.9067	0.2819	0.062
Mof_H 	H 	0.5872	0.9157	0.3052	0.024
Mof_C 	C 	0.6251	0.877	0.2809	-0.128
Mof_H 	H 	0.6345	0.8694	0.3041	0.075
Mof_C 	C 	0.6785	0.8198	0.2859	0.022
Mof_H 	H 	0.6685	0.8293	0.3081	0.018
Mof_C 	C 	0.7044	0.7932	0.2836	-0.136
Mof_H 	H 	0.7128	0.7826	0.306	0.082
Mof_O 	O 	0.46254	0.03746	0.28078	-0.414
Mof_C 	C 	0.4049	0.0933	0.2819	0.062
Mof_H 	H 	0.4128	0.0843	0.3052	0.021
Mof_C 	C 	0.3749	0.123	0.2809	-0.13
Mof_H 	H 	0.3655	0.1306	0.3041	0.075
Mof_C 	C 	0.3215	0.1802	0.2859	0.023
Mof_H 	H 	0.3315	0.1707	0.3081	0.017
Mof_C 	C 	0.2956	0.2068	0.2836	-0.137
Mof_H 	H 	0.2872	0.2174	0.306	0.082
Mof_O 	O 	0.53746	0.03746	0.71922	-0.413
Mof_C 	C 	0.5951	0.0933	0.7181	0.062
Mof_H 	H 	0.5872	0.0843	0.6948	0.022
Mof_C 	C 	0.6251	0.123	0.7191	-0.13
Mof_H 	H 	0.6345	0.1306	0.6959	0.075
Mof_C 	C 	0.6785	0.1802	0.7141	0.023
Mof_H 	H 	0.6685	0.1707	0.6919	0.018
Mof_C 	C 	0.7044	0.2068	0.7164	-0.137
Mof_H 	H 	0.7128	0.2174	0.694	0.082
Mof_O 	O 	0.46254	0.96254	0.71922	-0.408
Mof_C 	C 	0.4049	0.9067	0.7181	0.062
Mof_H 	H 	0.4128	0.9157	0.6948	0.024
Mof_C 	C 	0.3749	0.877	0.7191	-0.128
Mof_H 	H 	0.3655	0.8694	0.6959	0.075
Mof_C 	C 	0.3215	0.8198	0.7141	0.022
Mof_H 	H 	0.3315	0.8293	0.6919	0.018
Mof_C 	C 	0.2956	0.7932	0.7164	-0.136
Mof_H 	H 	0.2872	0.7826	0.694	0.082
Mof_O 	O 	0.96254	0.71922	0.46254	-0.408
Mof_C 	C 	0.9067	0.7181	0.4049	0.062
Mof_H 	H 	0.9157	0.6948	0.4128	0.024
Mof_C 	C 	0.877	0.7191	0.3749	-0.128
Mof_H 	H 	0.8694	0.6959	0.3655	0.075
Mof_C 	C 	0.8198	0.7141	0.3215	0.022
Mof_H 	H 	0.8293	0.6919	0.3315	0.018
Mof_C 	C 	0.7932	0.7164	0.2956	-0.136
Mof_H 	H 	0.7826	0.694	0.2872	0.082
Mof_O 	O 	0.03746	0.71922	0.53746	-0.413
Mof_C 	C 	0.0933	0.7181	0.5951	0.062
Mof_H 	H 	0.0843	0.6948	0.5872	0.022
Mof_C 	C 	0.123	0.7191	0.6251	-0.13
Mof_H 	H 	0.1306	0.6959	0.6345	0.075
Mof_C 	C 	0.1802	0.7141	0.6785	0.023
Mof_H 	H 	0.1707	0.6919	0.6685	0.018
Mof_C 	C 	0.2068	0.7164	0.7044	-0.137
Mof_H 	H 	0.2174	0.694	0.7128	0.082
Mof_O 	O 	0.03746	0.28078	0.46254	-0.414
Mof_C 	C 	0.0933	0.2819	0.4049	0.062
Mof_H 	H 	0.0843	0.3052	0.4128	0.021
Mof_C 	C 	0.123	0.2809	0.3749	-0.13
Mof_H 	H 	0.1306	0.3041	0.3655	0.075
Mof_C 	C 	0.1802	0.2859	0.3215	0.023
Mof_H 	H 	0.1707	0.3081	0.3315	0.017
Mof_C 	C 	0.2068	0.2836	0.2956	-0.137
Mof_H 	H 	0.2174	0.306	0.2872	0.082
Mof_O 	O 	0.96254	0.28078	0.53746	-0.408
Mof_C 	C 	0.9067	0.2819	0.5951	0.062
Mof_H 	H 	0.9157	0.3052	0.5872	0.024
Mof_C 	C 	0.877	0.2809	0.6251	-0.128
Mof_H 	H 	0.8694	0.3041	0.6345	0.075
Mof_C 	C 	0.8198	0.2859	0.6785	0.022
Mof_H 	H 	0.8293	0.3081	0.6685	0.018
Mof_C 	C 	0.7932	0.2836	0.7044	-0.136
Mof_H 	H 	0.7826	0.306	0.7128	0.082
Mof_O 	O 	0.71922	0.53746	0.03746	-0.413
Mof_C 	C 	0.7181	0.5951	0.0933	0.062
Mof_H 	H 	0.6948	0.5872	0.0843	0.022
Mof_C 	C 	0.7191	0.6251	0.123	-0.13
Mof_H 	H 	0.6959	0.6345	0.1306	0.075
Mof_C 	C 	0.7141	0.6785	0.1802	0.023
Mof_H 	H 	0.6919	0.6685	0.1707	0.018
Mof_C 	C 	0.7164	0.7044	0.2068	-0.137
Mof_H 	H 	0.694	0.7128	0.2174	0.082
Mof_O 	O 	0.71922	0.46254	0.96254	-0.408
Mof_C 	C 	0.7181	0.4049	0.9067	0.062
Mof_H 	H 	0.6948	0.4128	0.9157	0.024
Mof_C 	C 	0.7191	0.3749	0.877	-0.128
Mof_H 	H 	0.6959	0.3655	0.8694	0.075
Mof_C 	C 	0.7141	0.3215	0.8198	0.022
Mof_H 	H 	0.6919	0.3315	0.8293	0.018
Mof_C 	C 	0.7164	0.2956	0.7932	-0.136
Mof_H 	H 	0.694	0.2872	0.7826	0.082
Mof_O 	O 	0.28078	0.53746	0.96254	-0.408
Mof_C 	C 	0.2819	0.5951	0.9067	0.062
Mof_H 	H 	0.3052	0.5872	0.9157	0.024
Mof_C 	C 	0.2809	0.6251	0.877	-0.128
Mof_H 	H 	0.3041	0.6345	0.8694	0.075
Mof_C 	C 	0.2859	0.6785	0.8198	0.022
Mof_H 	H 	0.3081	0.6685	0.8293	0.018
Mof_C 	C 	0.2836	0.7044	0.7932	-0.136
Mof_H 	H 	0.306	0.7128	0.7826	0.082
Mof_O 	O 	0.28078	0.46254	0.03746	-0.414
Mof_C 	C 	0.2819	0.4049	0.0933	0.062
Mof_H 	H 	0.3052	0.4128	0.0843	0.021
Mof_C 	C 	0.2809	0.3749	0.123	-0.13
Mof_H 	H 	0.3041	0.3655	0.1306	0.075
Mof_C 	C 	0.2859	0.3215	0.1802	0.023
Mof_H 	H 	0.3081	0.3315	0.1707	0.017
Mof_C 	C 	0.2836	0.2956	0.2068	-0.137
Mof_H 	H 	0.306	0.2872	0.2174	0.082
Mof_O 	O 	0.53746	0.96254	0.78078	-0.407
Mof_C 	C 	0.5933	0.9049	0.7819	0.062
Mof_H 	H 	0.5843	0.9128	0.8052	0.024
Mof_C 	C 	0.623	0.8749	0.7809	-0.128
Mof_H 	H 	0.6306	0.8655	0.8041	0.076
Mof_C 	C 	0.6802	0.8215	0.7859	0.023
Mof_H 	H 	0.6707	0.8315	0.8081	0.019
Mof_C 	C 	0.7068	0.7956	0.7836	-0.136
Mof_H 	H 	0.7174	0.7872	0.806	0.083
Mof_O 	O 	0.46254	0.03746	0.78078	-0.413
Mof_C 	C 	0.4067	0.0951	0.7819	0.062
Mof_H 	H 	0.4157	0.0872	0.8052	0.022
Mof_C 	C 	0.377	0.1251	0.7809	-0.13
Mof_H 	H 	0.3694	0.1345	0.8041	0.075
Mof_C 	C 	0.3198	0.1785	0.7859	0.023
Mof_H 	H 	0.3293	0.1685	0.8081	0.018
Mof_C 	C 	0.2932	0.2044	0.7836	-0.137
Mof_H 	H 	0.2826	0.2128	0.806	0.082
Mof_O 	O 	0.46254	0.96254	0.21922	-0.408
Mof_C 	C 	0.4067	0.9049	0.2181	0.062
Mof_H 	H 	0.4157	0.9128	0.1948	0.023
Mof_C 	C 	0.377	0.8749	0.2191	-0.128
Mof_H 	H 	0.3694	0.8655	0.1959	0.075
Mof_C 	C 	0.3198	0.8215	0.2141	0.022
Mof_H 	H 	0.3293	0.8315	0.1919	0.018
Mof_C 	C 	0.2932	0.7956	0.2164	-0.136
Mof_H 	H 	0.2826	0.7872	0.194	0.082
Mof_O 	O 	0.53746	0.03746	0.21922	-0.414
Mof_C 	C 	0.5933	0.0951	0.2181	0.062
Mof_H 	H 	0.5843	0.0872	0.1948	0.021
Mof_C 	C 	0.623	0.1251	0.2191	-0.13
Mof_H 	H 	0.6306	0.1345	0.1959	0.075
Mof_C 	C 	0.6802	0.1785	0.2141	0.023
Mof_H 	H 	0.6707	0.1685	0.1919	0.017
Mof_C 	C 	0.7068	0.2044	0.2164	-0.137
Mof_H 	H 	0.7174	0.2128	0.194	0.082
Mof_O 	O 	0.78078	0.53746	0.96254	-0.407
Mof_C 	C 	0.7819	0.5933	0.9049	0.062
Mof_H 	H 	0.8052	0.5843	0.9128	0.024
Mof_C 	C 	0.7809	0.623	0.8749	-0.128
Mof_H 	H 	0.8041	0.6306	0.8655	0.076
Mof_C 	C 	0.7859	0.6802	0.8215	0.023
Mof_H 	H 	0.8081	0.6707	0.8315	0.019
Mof_C 	C 	0.7836	0.7068	0.7956	-0.136
Mof_H 	H 	0.806	0.7174	0.7872	0.083
Mof_O 	O 	0.78078	0.46254	0.03746	-0.413
Mof_C 	C 	0.7819	0.4067	0.0951	0.062
Mof_H 	H 	0.8052	0.4157	0.0872	0.022
Mof_C 	C 	0.7809	0.377	0.1251	-0.13
Mof_H 	H 	0.8041	0.3694	0.1345	0.075
Mof_C 	C 	0.7859	0.3198	0.1785	0.023
Mof_H 	H 	0.8081	0.3293	0.1685	0.018
Mof_C 	C 	0.7836	0.2932	0.2044	-0.137
Mof_H 	H 	0.806	0.2826	0.2128	0.082
Mof_O 	O 	0.21922	0.46254	0.96254	-0.408
Mof_C 	C 	0.2181	0.4067	0.9049	0.062
Mof_H 	H 	0.1948	0.4157	0.9128	0.023
Mof_C 	C 	0.2191	0.377	0.8749	-0.128
Mof_H 	H 	0.1959	0.3694	0.8655	0.075
Mof_C 	C 	0.2141	0.3198	0.8215	0.022
Mof_H 	H 	0.1919	0.3293	0.8315	0.018
Mof_C 	C 	0.2164	0.2932	0.7956	-0.136
Mof_H 	H 	0.194	0.2826	0.7872	0.082
Mof_O 	O 	0.21922	0.53746	0.03746	-0.414
Mof_C 	C 	0.2181	0.5933	0.0951	0.062
Mof_H 	H 	0.1948	0.5843	0.0872	0.021
Mof_C 	C 	0.2191	0.623	0.1251	-0.13
Mof_H 	H 	0.1959	0.6306	0.1345	0.075
Mof_C 	C 	0.2141	0.6802	0.1785	0.023
Mof_H 	H 	0.1919	0.6707	0.1685	0.017
Mof_C 	C 	0.2164	0.7068	0.2044	-0.137
Mof_H 	H 	0.194	0.7174	0.2128	0.082
Mof_O 	O 	0.96254	0.78078	0.53746	-0.407
Mof_C 	C 	0.9049	0.7819	0.5933	0.062
Mof_H 	H 	0.9128	0.8052	0.5843	0.024
Mof_C 	C 	0.8749	0.7809	0.623	-0.128
Mof_H 	H 	0.8655	0.8041	0.6306	0.076
Mof_C 	C 	0.8215	0.7859	0.6802	0.023
Mof_H 	H 	0.8315	0.8081	0.6707	0.019
Mof_C 	C 	0.7956	0.7836	0.7068	-0.136
Mof_H 	H 	0.7872	0.806	0.7174	0.083
Mof_O 	O 	0.03746	0.78078	0.46254	-0.413
Mof_C 	C 	0.0951	0.7819	0.4067	0.062
Mof_H 	H 	0.0872	0.8052	0.4157	0.022
Mof_C 	C 	0.1251	0.7809	0.377	-0.13
Mof_H 	H 	0.1345	0.8041	0.3694	0.075
Mof_C 	C 	0.1785	0.7859	0.3198	0.023
Mof_H 	H 	0.1685	0.8081	0.3293	0.018
Mof_C 	C 	0.2044	0.7836	0.2932	-0.137
Mof_H 	H 	0.2128	0.806	0.2826	0.082
Mof_O 	O 	0.96254	0.21922	0.46254	-0.408
Mof_C 	C 	0.9049	0.2181	0.4067	0.062
Mof_H 	H 	0.9128	0.1948	0.4157	0.023
Mof_C 	C 	0.8749	0.2191	0.377	-0.128
Mof_H 	H 	0.8655	0.1959	0.3694	0.075
Mof_C 	C 	0.8215	0.2141	0.3198	0.022
Mof_H 	H 	0.8315	0.1919	0.3293	0.018
Mof_C 	C 	0.7956	0.2164	0.2932	-0.136
Mof_H 	H 	0.7872	0.194	0.2826	0.082
Mof_O 	O 	0.03746	0.21922	0.53746	-0.414
Mof_C 	C 	0.0951	0.2181	0.5933	0.062
Mof_H 	H 	0.0872	0.1948	0.5843	0.021
Mof_C 	C 	0.1251	0.2191	0.623	-0.13
Mof_H 	H 	0.1345	0.1959	0.6306	0.075
Mof_C 	C 	0.1785	0.2141	0.6802	0.023
Mof_H 	H 	0.1685	0.1919	0.6707	0.017
Mof_C 	C 	0.2044	0.2164	0.7068	-0.137
Mof_H 	H 	0.2128	0.194	0.7174	0.082
Mof_O 	O 	0.46254	0.03746	0.71922	-0.414
Mof_C 	C 	0.4049	0.0933	0.7181	0.062
Mof_H 	H 	0.4128	0.0843	0.6948	0.022
Mof_C 	C 	0.3749	0.123	0.7191	-0.13
Mof_H 	H 	0.3655	0.1306	0.6959	0.075
Mof_C 	C 	0.3215	0.1802	0.7141	0.023
Mof_H 	H 	0.3315	0.1707	0.6919	0.017
Mof_C 	C 	0.2956	0.2068	0.7164	-0.137
Mof_H 	H 	0.2872	0.2174	0.694	0.082
Mof_O 	O 	0.53746	0.96254	0.71922	-0.408
Mof_C 	C 	0.5951	0.9067	0.7181	0.062
Mof_H 	H 	0.5872	0.9157	0.6948	0.024
Mof_C 	C 	0.6251	0.877	0.7191	-0.128
Mof_H 	H 	0.6345	0.8694	0.6959	0.075
Mof_C 	C 	0.6785	0.8198	0.7141	0.023
Mof_H 	H 	0.6685	0.8293	0.6919	0.018
Mof_C 	C 	0.7044	0.7932	0.7164	-0.136
Mof_H 	H 	0.7128	0.7826	0.694	0.082
Mof_O 	O 	0.46254	0.96254	0.28078	-0.408
Mof_C 	C 	0.4049	0.9067	0.2819	0.062
Mof_H 	H 	0.4128	0.9157	0.3052	0.024
Mof_C 	C 	0.3749	0.877	0.2809	-0.128
Mof_H 	H 	0.3655	0.8694	0.3041	0.075
Mof_C 	C 	0.3215	0.8198	0.2859	0.022
Mof_H 	H 	0.3315	0.8293	0.3081	0.018
Mof_C 	C 	0.2956	0.7932	0.2836	-0.136
Mof_H 	H 	0.2872	0.7826	0.306	0.082
Mof_O 	O 	0.53746	0.03746	0.28078	-0.414
Mof_C 	C 	0.5951	0.0933	0.2819	0.062
Mof_H 	H 	0.5872	0.0843	0.3052	0.022
Mof_C 	C 	0.6251	0.123	0.2809	-0.13
Mof_H 	H 	0.6345	0.1306	0.3041	0.075
Mof_C 	C 	0.6785	0.1802	0.2859	0.023
Mof_H 	H 	0.6685	0.1707	0.3081	0.017
Mof_C 	C 	0.7044	0.2068	0.2836	-0.137
Mof_H 	H 	0.7128	0.2174	0.306	0.082
Mof_O 	O 	0.03746	0.28078	0.53746	-0.414
Mof_C 	C 	0.0933	0.2819	0.5951	0.062
Mof_H 	H 	0.0843	0.3052	0.5872	0.022
Mof_C 	C 	0.123	0.2809	0.6251	-0.13
Mof_H 	H 	0.1306	0.3041	0.6345	0.075
Mof_C 	C 	0.1802	0.2859	0.6785	0.023
Mof_H 	H 	0.1707	0.3081	0.6685	0.017
Mof_C 	C 	0.2068	0.2836	0.7044	-0.137
Mof_H 	H 	0.2174	0.306	0.7128	0.082
Mof_O 	O 	0.96254	0.28078	0.46254	-0.408
Mof_C 	C 	0.9067	0.2819	0.4049	0.062
Mof_H 	H 	0.9157	0.3052	0.4128	0.024
Mof_C 	C 	0.877	0.2809	0.3749	-0.128
Mof_H 	H 	0.8694	0.3041	0.3655	0.075
Mof_C 	C 	0.8198	0.2859	0.3215	0.022
Mof_H 	H 	0.8293	0.3081	0.3315	0.018
Mof_C 	C 	0.7932	0.2836	0.2956	-0.136
Mof_H 	H 	0.7826	0.306	0.2872	0.082
Mof_O 	O 	0.96254	0.71922	0.53746	-0.408
Mof_C 	C 	0.9067	0.7181	0.5951	0.062
Mof_H 	H 	0.9157	0.6948	0.5872	0.024
Mof_C 	C 	0.877	0.7191	0.6251	-0.128
Mof_H 	H 	0.8694	0.6959	0.6345	0.075
Mof_C 	C 	0.8198	0.7141	0.6785	0.023
Mof_H 	H 	0.8293	0.6919	0.6685	0.018
Mof_C 	C 	0.7932	0.7164	0.7044	-0.136
Mof_H 	H 	0.7826	0.694	0.7128	0.082
Mof_O 	O 	0.03746	0.71922	0.46254	-0.414
Mof_C 	C 	0.0933	0.7181	0.4049	0.062
Mof_H 	H 	0.0843	0.6948	0.4128	0.022
Mof_C 	C 	0.123	0.7191	0.3749	-0.13
Mof_H 	H 	0.1306	0.6959	0.3655	0.075
Mof_C 	C 	0.1802	0.7141	0.3215	0.023
Mof_H 	H 	0.1707	0.6919	0.3315	0.017
Mof_C 	C 	0.2068	0.7164	0.2956	-0.137
Mof_H 	H 	0.2174	0.694	0.2872	0.082
Mof_O 	O 	0.28078	0.46254	0.96254	-0.408
Mof_C 	C 	0.2819	0.4049	0.9067	0.062
Mof_H 	H 	0.3052	0.4128	0.9157	0.024
Mof_C 	C 	0.2809	0.3749	0.877	-0.128
Mof_H 	H 	0.3041	0.3655	0.8694	0.075
Mof_C 	C 	0.2859	0.3215	0.8198	0.022
Mof_H 	H 	0.3081	0.3315	0.8293	0.018
Mof_C 	C 	0.2836	0.2956	0.7932	-0.136
Mof_H 	H 	0.306	0.2872	0.7826	0.082
Mof_O 	O 	0.28078	0.53746	0.03746	-0.414
Mof_C 	C 	0.2819	0.5951	0.0933	0.062
Mof_H 	H 	0.3052	0.5872	0.0843	0.022
Mof_C 	C 	0.2809	0.6251	0.123	-0.13
Mof_H 	H 	0.3041	0.6345	0.1306	0.075
Mof_C 	C 	0.2859	0.6785	0.1802	0.023
Mof_H 	H 	0.3081	0.6685	0.1707	0.017
Mof_C 	C 	0.2836	0.7044	0.2068	-0.137
Mof_H 	H 	0.306	0.7128	0.2174	0.082
Mof_O 	O 	0.71922	0.46254	0.03746	-0.414
Mof_C 	C 	0.7181	0.4049	0.0933	0.062
Mof_H 	H 	0.6948	0.4128	0.0843	0.022
Mof_C 	C 	0.7191	0.3749	0.123	-0.13
Mof_H 	H 	0.6959	0.3655	0.1306	0.075
Mof_C 	C 	0.7141	0.3215	0.1802	0.023
Mof_H 	H 	0.6919	0.3315	0.1707	0.017
Mof_C 	C 	0.7164	0.2956	0.2068	-0.137
Mof_H 	H 	0.694	0.2872	0.2174	0.082
Mof_O 	O 	0.71922	0.53746	0.96254	-0.408
Mof_C 	C 	0.7181	0.5951	0.9067	0.062
Mof_H 	H 	0.6948	0.5872	0.9157	0.024
Mof_C 	C 	0.7191	0.6251	0.877	-0.128
Mof_H 	H 	0.6959	0.6345	0.8694	0.075
Mof_C 	C 	0.7141	0.6785	0.8198	0.023
Mof_H 	H 	0.6919	0.6685	0.8293	0.018
Mof_C 	C 	0.7164	0.7044	0.7932	-0.136
Mof_H 	H 	0.694	0.7128	0.7826	0.082
Mof_Cu	Cu	0.5	0	0.21279	0.923
Mof_Cu	Cu	0.5	0	0.78721	0.923
Mof_Cu	Cu	0.21279	0.5	-0	0.923
Mof_Cu	Cu	0.78721	0.5	-0	0.923
Mof_Cu	Cu	6.39245e-33	0.21279	0.5	0.923
Mof_Cu	Cu	1.99457e-32	0.78721	0.5	0.923
Mof_Cu	Cu	0.5	0	0.28721	0.923
Mof_Cu	Cu	0.5	9.0355e-33	0.71279	0.923
Mof_Cu	Cu	1.09102e-32	0.71279	0.5	0.923
Mof_Cu	Cu	6.39245e-33	0.28721	0.5	0.923
Mof_Cu	Cu	0.71279	0.5	-0	0.923
Mof_Cu	Cu	0.28721	0.5	-0	0.923
Mof_N 	N 	0.25	0.25	0.25	-0.158
Mof_N 	N 	0.75	0.75	0.25	-0.158
Mof_N 	N 	0.75	0.25	0.75	-0.158
Mof_N 	N 	0.25	0.75	0.75	-0.158
Mof_N 	N 	0.75	0.75	0.75	-0.158
Mof_N 	N 	0.25	0.25	0.75	-0.158
Mof_N 	N 	0.25	0.75	0.25	-0.158
Mof_N 	N 	0.75	0.25	0.25	-0.158
Mof_C 	C 	0.4492	0.0508	0.25	0.385
Mof_C 	C 	0.421	0.079	0.25	-0.156
Mof_C 	C 	0.3596	0.1404	0.25	0.087
Mof_C 	C 	0.3313	0.1687	0.25	-0.054
Mof_C 	C 	0.27945	0.22055	0.25	0.115
Mof_C 	C 	0.5508	0.9492	0.25	0.384
Mof_C 	C 	0.579	0.921	0.25	-0.153
Mof_C 	C 	0.6404	0.8596	0.25	0.086
Mof_C 	C 	0.6687	0.8313	0.25	-0.053
Mof_C 	C 	0.72055	0.77945	0.25	0.115
Mof_C 	C 	0.5508	0.0508	0.75	0.385
Mof_C 	C 	0.579	0.079	0.75	-0.155
Mof_C 	C 	0.6404	0.1404	0.75	0.087
Mof_C 	C 	0.6687	0.1687	0.75	-0.054
Mof_C 	C 	0.72055	0.22055	0.75	0.116
Mof_C 	C 	0.4492	0.9492	0.75	0.384
Mof_C 	C 	0.421	0.921	0.75	-0.152
Mof_C 	C 	0.3596	0.8596	0.75	0.086
Mof_C 	C 	0.3313	0.8313	0.75	-0.052
Mof_C 	C 	0.27945	0.77945	0.75	0.115
Mof_C 	C 	0.25	0.4492	0.0508	0.385
Mof_C 	C 	0.25	0.421	0.079	-0.156
Mof_C 	C 	0.25	0.3596	0.1404	0.087
Mof_C 	C 	0.25	0.3313	0.1687	-0.054
Mof_C 	C 	0.25	0.27945	0.22055	0.115
Mof_C 	C 	0.25	0.5508	0.9492	0.384
Mof_C 	C 	0.25	0.579	0.921	-0.153
Mof_C 	C 	0.25	0.6404	0.8596	0.086
Mof_C 	C 	0.25	0.6687	0.8313	-0.053
Mof_C 	C 	0.25	0.72055	0.77945	0.115
Mof_C 	C 	0.75	0.5508	0.0508	0.385
Mof_C 	C 	0.75	0.579	0.079	-0.155
Mof_C 	C 	0.75	0.6404	0.1404	0.087
Mof_C 	C 	0.75	0.6687	0.1687	-0.054
Mof_C 	C 	0.75	0.72055	0.22055	0.116
Mof_C 	C 	0.75	0.4492	0.9492	0.384
Mof_C 	C 	0.75	0.421	0.921	-0.152
Mof_C 	C 	0.75	0.3596	0.8596	0.086
Mof_C 	C 	0.75	0.3313	0.8313	-0.052
Mof_C 	C 	0.75	0.27945	0.77945	0.115
Mof_C 	C 	0.0508	0.25	0.4492	0.385
Mof_C 	C 	0.079	0.25	0.421	-0.156
Mof_C 	C 	0.1404	0.25	0.3596	0.087
Mof_C 	C 	0.1687	0.25	0.3313	-0.054
Mof_C 	C 	0.22055	0.25	0.27945	0.115
Mof_C 	C 	0.9492	0.25	0.5508	0.384
Mof_C 	C 	0.921	0.25	0.579	-0.153
Mof_C 	C 	0.8596	0.25	0.6404	0.086
Mof_C 	C 	0.8313	0.25	0.6687	-0.053
Mof_C 	C 	0.77945	0.25	0.72055	0.115
Mof_C 	C 	0.0508	0.75	0.5508	0.385
Mof_C 	C 	0.079	0.75	0.579	-0.155
Mof_C 	C 	0.1404	0.75	0.6404	0.087
Mof_C 	C 	0.1687	0.75	0.6687	-0.054
Mof_C 	C 	0.22055	0.75	0.72055	0.116
Mof_C 	C 	0.9492	0.75	0.4492	0.384
Mof_C 	C 	0.921	0.75	0.421	-0.152
Mof_C 	C 	0.8596	0.75	0.3596	0.086
Mof_C 	C 	0.8313	0.75	0.3313	-0.052
Mof_C 	C 	0.77945	0.75	0.27945	0.115
Mof_C 	C 	0.5508	0.9492	0.75	0.384
Mof_C 	C 	0.579	0.921	0.75	-0.152
Mof_C 	C 	0.6404	0.8596	0.75	0.086
Mof_C 	C 	0.6687	0.8313	0.75	-0.053
Mof_C 	C 	0.72055	0.77945	0.75	0.116
Mof_C 	C 	0.4492	0.0508	0.75	0.385
Mof_C 	C 	0.421	0.079	0.75	-0.155
Mof_C 	C 	0.3596	0.1404	0.75	0.087
Mof_C 	C 	0.3313	0.1687	0.75	-0.054
Mof_C 	C 	0.27945	0.22055	0.75	0.115
Mof_C 	C 	0.4492	0.9492	0.25	0.384
Mof_C 	C 	0.421	0.921	0.25	-0.153
Mof_C 	C 	0.3596	0.8596	0.25	0.086
Mof_C 	C 	0.3313	0.8313	0.25	-0.053
Mof_C 	C 	0.27945	0.77945	0.25	0.115
Mof_C 	C 	0.5508	0.0508	0.25	0.385
Mof_C 	C 	0.579	0.079	0.25	-0.156
Mof_C 	C 	0.6404	0.1404	0.25	0.087
Mof_C 	C 	0.6687	0.1687	0.25	-0.054
Mof_C 	C 	0.72055	0.22055	0.25	0.115
Mof_C 	C 	0.75	0.5508	0.9492	0.384
Mof_C 	C 	0.75	0.579	0.921	-0.152
Mof_C 	C 	0.75	0.6404	0.8596	0.086
Mof_C 	C 	0.75	0.6687	0.8313	-0.053
Mof_C 	C 	0.75	0.72055	0.77945	0.116
Mof_C 	C 	0.75	0.4492	0.0508	0.385
Mof_C 	C 	0.75	0.421	0.079	-0.155
Mof_C 	C 	0.75	0.3596	0.1404	0.087
Mof_C 	C 	0.75	0.3313	0.1687	-0.054
Mof_C 	C 	0.75	0.27945	0.22055	0.115
Mof_C 	C 	0.25	0.4492	0.9492	0.384
Mof_C 	C 	0.25	0.421	0.921	-0.153
Mof_C 	C 	0.25	0.3596	0.8596	0.086
Mof_C 	C 	0.25	0.3313	0.8313	-0.053
Mof_C 	C 	0.25	0.27945	0.77945	0.115
Mof_C 	C 	0.25	0.5508	0.0508	0.385
Mof_C 	C 	0.25	0.579	0.079	-0.156
Mof_C 	C 	0.25	0.6404	0.1404	0.087
Mof_C 	C 	0.25	0.6687	0.1687	-0.054
Mof_C 	C 	0.25	0.72055	0.22055	0.115
Mof_C 	C 	0.9492	0.75	0.5508	0.384
Mof_C 	C 	0.921	0.75	0.579	-0.152
Mof_C 	C 	0.8596	0.75	0.6404	0.086
Mof_C 	C 	0.8313	0.75	0.6687	-0.053
Mof_C 	C 	0.77945	0.75	0.72055	0.116
Mof_C 	C 	0.0508	0.75	0.4492	0.385
Mof_C 	C 	0.079	0.75	0.421	-0.155
Mof_C 	C 	0.1404	0.75	0.3596	0.087
Mof_C 	C 	0.1687	0.75	0.3313	-0.054
Mof_C 	C 	0.22055	0.75	0.27945	0.115
Mof_C 	C 	0.9492	0.25	0.4492	0.384
Mof_C 	C 	0.921	0.25	0.421	-0.153
Mof_C 	C 	0.8596	0.25	0.3596	0.086
Mof_C 	C 	0.8313	0.25	0.3313	-0.053
Mof_C 	C 	0.77945	0.25	0.27945	0.115
Mof_C 	C 	0.0508	0.25	0.5508	0.385
Mof_C 	C 	0.079	0.25	0.579	-0.156
Mof_C 	C 	0.1404	0.25	0.6404	0.087
Mof_C 	C 	0.1687	0.25	0.6687	-0.054
Mof_C 	C 	0.22055	0.25	0.72055	0.115
_end
