data_functionalizedCrystal
_audit_creation_method	'EQeq! by Chris Wilmer'
_symmetry_space_group_name_H-M	'P1'
_symmetry_Int_Tables_number	1
_symmetry_cell_setting	triclinic
loop_
_symmetry_equiv_pos_as_xyz
  x,y,z
_cell_length_a	35.2388
_cell_length_b	35.2388
_cell_length_c	21.1503
_cell_angle_alpha	90
_cell_angle_beta	90
_cell_angle_gamma	120
loop_
_atom_site_label
_atom_site_type_symbol
_atom_site_fract_x
_atom_site_fract_y
_atom_site_fract_z
_atom_site_charge
Mof_O 	O 	0.30403	0.19089	0.23982	-0.403
Mof_O 	O 	0.27808	0.17836	0.13937	-0.408
Mof_C 	C 	0.27891	0.18984	0.19559	0.353
Mof_C 	C 	0.24712	0.2051	0.21448	-0.109
Mof_C 	C 	0.21893	0.20621	0.1681	0.044
Mof_H 	H 	0.2196	0.1972	0.126	0.032
Mof_C 	C 	0.18998	0.22083	0.185	-0.125
Mof_H 	H 	0.1709	0.2216	0.1539	0.085
Mof_C 	C 	0.18871	0.23407	0.2455	0.09
Mof_C 	C 	0.21669	0.23187	0.2918	-0.128
Mof_H 	H 	0.2158	0.2401	0.3343	0.075
Mof_C 	C 	0.24557	0.21748	0.27448	0.05
Mof_H 	H 	0.2645	0.2163	0.3054	0.03
Mof_C 	C 	0.16108	0.25365	0.263	-0.054
Mof_C 	C 	0.17962	0.29193	0.2973	-0.048
Mof_H 	H 	0.2096	0.3049	0.3088	0.047
Mof_H 	H 	0.0559	0.1572	0.2762	0.082
Mof_O 	O 	0.9707	0.52422	0.57315	-0.403
Mof_O 	O 	0.94475	0.51169	0.4727	-0.408
Mof_C 	C 	0.94558	0.52317	0.52892	0.353
Mof_C 	C 	0.91379	0.53843	0.54781	-0.109
Mof_C 	C 	0.8856	0.53954	0.50143	0.044
Mof_H 	H 	0.88627	0.53053	0.45933	0.032
Mof_C 	C 	0.85665	0.55416	0.51833	-0.125
Mof_H 	H 	0.83757	0.55493	0.48723	0.085
Mof_C 	C 	0.85538	0.5674	0.57883	0.09
Mof_C 	C 	0.88336	0.5652	0.62513	-0.128
Mof_H 	H 	0.88247	0.57343	0.66763	0.075
Mof_C 	C 	0.91224	0.55081	0.60781	0.05
Mof_H 	H 	0.93117	0.54963	0.63873	0.03
Mof_C 	C 	0.82775	0.58698	0.59633	-0.054
Mof_C 	C 	0.84629	0.62526	0.63063	-0.048
Mof_H 	H 	0.87627	0.63823	0.64213	0.047
Mof_H 	H 	0.72257	0.49053	0.60953	0.082
Mof_O 	O 	0.63736	0.85756	0.90649	-0.403
Mof_O 	O 	0.61141	0.84503	0.80604	-0.408
Mof_C 	C 	0.61224	0.85651	0.86226	0.353
Mof_C 	C 	0.58045	0.87177	0.88115	-0.109
Mof_C 	C 	0.55226	0.87288	0.83477	0.044
Mof_H 	H 	0.55293	0.86387	0.79267	0.032
Mof_C 	C 	0.52331	0.8875	0.85167	-0.125
Mof_H 	H 	0.50423	0.88827	0.82057	0.085
Mof_C 	C 	0.52204	0.90074	0.91217	0.09
Mof_C 	C 	0.55002	0.89854	0.95847	-0.128
Mof_H 	H 	0.54913	0.90677	0.00097	0.075
Mof_C 	C 	0.5789	0.88415	0.94115	0.05
Mof_H 	H 	0.59783	0.88297	0.97207	0.03
Mof_C 	C 	0.49441	0.92032	0.92967	-0.054
Mof_C 	C 	0.51295	0.9586	0.96397	-0.048
Mof_H 	H 	0.54293	0.97157	0.97547	0.047
Mof_H 	H 	0.38923	0.82387	0.94287	0.082
Mof_O 	O 	0.80911	0.11314	0.23982	-0.403
Mof_O 	O 	0.82164	0.09972	0.13937	-0.408
Mof_C 	C 	0.81016	0.08907	0.19559	0.353
Mof_C 	C 	0.7949	0.04202	0.21448	-0.109
Mof_C 	C 	0.79379	0.01272	0.1681	0.045
Mof_H 	H 	0.8028	0.0224	0.126	0.032
Mof_C 	C 	0.77917	0.96915	0.185	-0.125
Mof_H 	H 	0.7784	0.9493	0.1539	0.085
Mof_C 	C 	0.76593	0.95464	0.2455	0.09
Mof_C 	C 	0.76813	0.98482	0.2918	-0.128
Mof_H 	H 	0.7599	0.9757	0.3343	0.075
Mof_C 	C 	0.78252	0.02809	0.27448	0.05
Mof_H 	H 	0.7837	0.0482	0.3054	0.03
Mof_C 	C 	0.74635	0.90743	0.263	-0.054
Mof_C 	C 	0.70807	0.88769	0.2973	-0.048
Mof_H 	H 	0.6951	0.9047	0.3088	0.047
Mof_H 	H 	0.8428	0.8987	0.2762	0.082
Mof_O 	O 	0.47578	0.44647	0.57315	-0.403
Mof_O 	O 	0.48831	0.43305	0.4727	-0.408
Mof_C 	C 	0.47683	0.4224	0.52892	0.353
Mof_C 	C 	0.46157	0.37535	0.54781	-0.109
Mof_C 	C 	0.46046	0.34605	0.50143	0.044
Mof_H 	H 	0.46947	0.35573	0.45933	0.032
Mof_C 	C 	0.44584	0.30248	0.51833	-0.125
Mof_H 	H 	0.44507	0.28263	0.48723	0.085
Mof_C 	C 	0.4326	0.28797	0.57883	0.09
Mof_C 	C 	0.4348	0.31815	0.62513	-0.128
Mof_H 	H 	0.42657	0.30903	0.66763	0.075
Mof_C 	C 	0.44919	0.36142	0.60781	0.05
Mof_H 	H 	0.45037	0.38153	0.63873	0.03
Mof_C 	C 	0.41302	0.24076	0.59633	-0.054
Mof_C 	C 	0.37474	0.22102	0.63063	-0.048
Mof_H 	H 	0.36177	0.23803	0.64213	0.047
Mof_H 	H 	0.50947	0.23203	0.60953	0.082
Mof_O 	O 	0.14244	0.77981	0.90649	-0.403
Mof_O 	O 	0.15497	0.76639	0.80604	-0.408
Mof_C 	C 	0.14349	0.75574	0.86226	0.353
Mof_C 	C 	0.12823	0.70869	0.88115	-0.109
Mof_C 	C 	0.12712	0.67939	0.83477	0.044
Mof_H 	H 	0.13613	0.68907	0.79267	0.032
Mof_C 	C 	0.1125	0.63582	0.85167	-0.125
Mof_H 	H 	0.11173	0.61597	0.82057	0.085
Mof_C 	C 	0.09926	0.62131	0.91217	0.09
Mof_C 	C 	0.10146	0.65149	0.95847	-0.128
Mof_H 	H 	0.09323	0.64237	0.00097	0.075
Mof_C 	C 	0.11585	0.69476	0.94115	0.05
Mof_H 	H 	0.11703	0.71487	0.97207	0.03
Mof_C 	C 	0.07968	0.5741	0.92967	-0.054
Mof_C 	C 	0.0414	0.55436	0.96397	-0.048
Mof_H 	H 	0.02843	0.57137	0.97547	0.047
Mof_H 	H 	0.17613	0.56537	0.94287	0.082
Mof_O 	O 	0.88686	0.69597	0.23982	-0.403
Mof_O 	O 	0.90028	0.72192	0.13937	-0.408
Mof_C 	C 	0.91093	0.72109	0.19559	0.353
Mof_C 	C 	0.95798	0.75288	0.21448	-0.109
Mof_C 	C 	0.98728	0.78107	0.1681	0.044
Mof_H 	H 	0.9776	0.7804	0.126	0.032
Mof_C 	C 	0.03085	0.81002	0.185	-0.125
Mof_H 	H 	0.0507	0.8291	0.1539	0.085
Mof_C 	C 	0.04536	0.81129	0.2455	0.09
Mof_C 	C 	0.01518	0.78331	0.2918	-0.128
Mof_H 	H 	0.0243	0.7842	0.3343	0.075
Mof_C 	C 	0.97191	0.75443	0.27448	0.05
Mof_H 	H 	0.9518	0.7355	0.3054	0.03
Mof_C 	C 	0.09257	0.83892	0.263	-0.054
Mof_C 	C 	0.11231	0.82038	0.2973	-0.048
Mof_H 	H 	0.0953	0.7904	0.3088	0.047
Mof_H 	H 	0.1013	0.9441	0.2762	0.082
Mof_O 	O 	0.55353	0.0293	0.57315	-0.403
Mof_O 	O 	0.56695	0.05525	0.4727	-0.408
Mof_C 	C 	0.5776	0.05442	0.52892	0.353
Mof_C 	C 	0.62465	0.08621	0.54781	-0.109
Mof_C 	C 	0.65395	0.1144	0.50143	0.044
Mof_H 	H 	0.64427	0.11373	0.45933	0.032
Mof_C 	C 	0.69752	0.14335	0.51833	-0.125
Mof_H 	H 	0.71737	0.16243	0.48723	0.085
Mof_C 	C 	0.71203	0.14462	0.57883	0.09
Mof_C 	C 	0.68185	0.11664	0.62513	-0.128
Mof_H 	H 	0.69097	0.11753	0.66763	0.075
Mof_C 	C 	0.63858	0.08776	0.60781	0.05
Mof_H 	H 	0.61847	0.06883	0.63873	0.03
Mof_C 	C 	0.75924	0.17225	0.59633	-0.054
Mof_C 	C 	0.77898	0.15371	0.63063	-0.048
Mof_H 	H 	0.76197	0.12373	0.64213	0.047
Mof_H 	H 	0.76797	0.27743	0.60953	0.081
Mof_O 	O 	0.22019	0.36264	0.90649	-0.403
Mof_O 	O 	0.23361	0.38859	0.80604	-0.408
Mof_C 	C 	0.24426	0.38776	0.86226	0.353
Mof_C 	C 	0.29131	0.41955	0.88115	-0.109
Mof_C 	C 	0.32061	0.44774	0.83477	0.044
Mof_H 	H 	0.31093	0.44707	0.79267	0.032
Mof_C 	C 	0.36418	0.47669	0.85167	-0.125
Mof_H 	H 	0.38403	0.49577	0.82057	0.085
Mof_C 	C 	0.37869	0.47796	0.91217	0.09
Mof_C 	C 	0.34851	0.44998	0.95847	-0.128
Mof_H 	H 	0.35763	0.45087	0.00097	0.075
Mof_C 	C 	0.30524	0.4211	0.94115	0.05
Mof_H 	H 	0.28513	0.40217	0.97207	0.03
Mof_C 	C 	0.4259	0.50559	0.92967	-0.054
Mof_C 	C 	0.44564	0.48705	0.96397	-0.048
Mof_H 	H 	0.42863	0.45707	0.97547	0.047
Mof_H 	H 	0.43463	0.61077	0.94287	0.082
Mof_O 	O 	0.19089	0.30403	0.76018	-0.403
Mof_O 	O 	0.17836	0.27808	0.86063	-0.408
Mof_C 	C 	0.18984	0.27891	0.80441	0.353
Mof_C 	C 	0.2051	0.24712	0.78552	-0.109
Mof_C 	C 	0.20621	0.21893	0.8319	0.044
Mof_H 	H 	0.1972	0.2196	0.874	0.032
Mof_C 	C 	0.22083	0.18998	0.815	-0.125
Mof_H 	H 	0.2216	0.1709	0.8461	0.085
Mof_C 	C 	0.23407	0.18871	0.7545	0.09
Mof_C 	C 	0.23187	0.21669	0.7082	-0.128
Mof_H 	H 	0.2401	0.2158	0.6657	0.075
Mof_C 	C 	0.21748	0.24557	0.72552	0.05
Mof_H 	H 	0.2163	0.2645	0.6946	0.03
Mof_C 	C 	0.25365	0.16108	0.737	-0.054
Mof_C 	C 	0.29193	0.17962	0.7027	-0.048
Mof_H 	H 	0.3049	0.2096	0.6912	0.047
Mof_H 	H 	0.1572	0.0559	0.7238	0.082
Mof_O 	O 	0.85756	0.63736	0.09351	-0.403
Mof_O 	O 	0.84503	0.61141	0.19396	-0.408
Mof_C 	C 	0.85651	0.61224	0.13774	0.353
Mof_C 	C 	0.87177	0.58045	0.11885	-0.109
Mof_C 	C 	0.87288	0.55226	0.16523	0.044
Mof_H 	H 	0.86387	0.55293	0.20733	0.032
Mof_C 	C 	0.8875	0.52331	0.14833	-0.125
Mof_H 	H 	0.88827	0.50423	0.17943	0.085
Mof_C 	C 	0.90074	0.52204	0.08783	0.09
Mof_C 	C 	0.89854	0.55002	0.04153	-0.128
Mof_H 	H 	0.90677	0.54913	0.99903	0.075
Mof_C 	C 	0.88415	0.5789	0.05885	0.05
Mof_H 	H 	0.88297	0.59783	0.02793	0.03
Mof_C 	C 	0.92032	0.49441	0.07033	-0.054
Mof_C 	C 	0.9586	0.51295	0.03603	-0.048
Mof_H 	H 	0.97157	0.54293	0.02453	0.047
Mof_H 	H 	0.82387	0.38923	0.05713	0.082
Mof_O 	O 	0.52422	0.9707	0.42685	-0.403
Mof_O 	O 	0.51169	0.94475	0.5273	-0.408
Mof_C 	C 	0.52317	0.94558	0.47108	0.353
Mof_C 	C 	0.53843	0.91379	0.45219	-0.109
Mof_C 	C 	0.53954	0.8856	0.49857	0.044
Mof_H 	H 	0.53053	0.88627	0.54067	0.032
Mof_C 	C 	0.55416	0.85665	0.48167	-0.125
Mof_H 	H 	0.55493	0.83757	0.51277	0.085
Mof_C 	C 	0.5674	0.85538	0.42117	0.09
Mof_C 	C 	0.5652	0.88336	0.37487	-0.128
Mof_H 	H 	0.57343	0.88247	0.33237	0.075
Mof_C 	C 	0.55081	0.91224	0.39219	0.05
Mof_H 	H 	0.54963	0.93117	0.36127	0.03
Mof_C 	C 	0.58698	0.82775	0.40367	-0.054
Mof_C 	C 	0.62526	0.84629	0.36937	-0.048
Mof_H 	H 	0.63823	0.87627	0.35787	0.047
Mof_H 	H 	0.49053	0.72257	0.39047	0.082
Mof_O 	O 	0.11314	0.80911	0.76018	-0.403
Mof_O 	O 	0.09972	0.82164	0.86063	-0.408
Mof_C 	C 	0.08907	0.81016	0.80441	0.353
Mof_C 	C 	0.04202	0.7949	0.78552	-0.109
Mof_C 	C 	0.01272	0.79379	0.8319	0.045
Mof_H 	H 	0.0224	0.8028	0.874	0.032
Mof_C 	C 	0.96915	0.77917	0.815	-0.125
Mof_H 	H 	0.9493	0.7784	0.8461	0.085
Mof_C 	C 	0.95464	0.76593	0.7545	0.09
Mof_C 	C 	0.98482	0.76813	0.7082	-0.128
Mof_H 	H 	0.9757	0.7599	0.6657	0.075
Mof_C 	C 	0.02809	0.78252	0.72552	0.05
Mof_H 	H 	0.0482	0.7837	0.6946	0.03
Mof_C 	C 	0.90743	0.74635	0.737	-0.054
Mof_C 	C 	0.88769	0.70807	0.7027	-0.048
Mof_H 	H 	0.9047	0.6951	0.6912	0.047
Mof_H 	H 	0.8987	0.8428	0.7238	0.082
Mof_O 	O 	0.77981	0.14244	0.09351	-0.403
Mof_O 	O 	0.76639	0.15497	0.19396	-0.408
Mof_C 	C 	0.75574	0.14349	0.13774	0.353
Mof_C 	C 	0.70869	0.12823	0.11885	-0.109
Mof_C 	C 	0.67939	0.12712	0.16523	0.044
Mof_H 	H 	0.68907	0.13613	0.20733	0.032
Mof_C 	C 	0.63582	0.1125	0.14833	-0.125
Mof_H 	H 	0.61597	0.11173	0.17943	0.085
Mof_C 	C 	0.62131	0.09926	0.08783	0.09
Mof_C 	C 	0.65149	0.10146	0.04153	-0.128
Mof_H 	H 	0.64237	0.09323	0.99903	0.075
Mof_C 	C 	0.69476	0.11585	0.05885	0.05
Mof_H 	H 	0.71487	0.11703	0.02793	0.03
Mof_C 	C 	0.5741	0.07968	0.07033	-0.054
Mof_C 	C 	0.55436	0.0414	0.03603	-0.048
Mof_H 	H 	0.57137	0.02843	0.02453	0.047
Mof_H 	H 	0.56537	0.17613	0.05713	0.082
Mof_O 	O 	0.44647	0.47578	0.42685	-0.403
Mof_O 	O 	0.43305	0.48831	0.5273	-0.408
Mof_C 	C 	0.4224	0.47683	0.47108	0.353
Mof_C 	C 	0.37535	0.46157	0.45219	-0.109
Mof_C 	C 	0.34605	0.46046	0.49857	0.044
Mof_H 	H 	0.35573	0.46947	0.54067	0.032
Mof_C 	C 	0.30248	0.44584	0.48167	-0.125
Mof_H 	H 	0.28263	0.44507	0.51277	0.085
Mof_C 	C 	0.28797	0.4326	0.42117	0.09
Mof_C 	C 	0.31815	0.4348	0.37487	-0.128
Mof_H 	H 	0.30903	0.42657	0.33237	0.075
Mof_C 	C 	0.36142	0.44919	0.39219	0.05
Mof_H 	H 	0.38153	0.45037	0.36127	0.03
Mof_C 	C 	0.24076	0.41302	0.40367	-0.054
Mof_C 	C 	0.22102	0.37474	0.36937	-0.048
Mof_H 	H 	0.23803	0.36177	0.35787	0.047
Mof_H 	H 	0.23203	0.50947	0.39047	0.082
Mof_O 	O 	0.69597	0.88686	0.76018	-0.403
Mof_O 	O 	0.72192	0.90028	0.86063	-0.408
Mof_C 	C 	0.72109	0.91093	0.80441	0.353
Mof_C 	C 	0.75288	0.95798	0.78552	-0.109
Mof_C 	C 	0.78107	0.98728	0.8319	0.044
Mof_H 	H 	0.7804	0.9776	0.874	0.032
Mof_C 	C 	0.81002	0.03085	0.815	-0.125
Mof_H 	H 	0.8291	0.0507	0.8461	0.085
Mof_C 	C 	0.81129	0.04536	0.7545	0.09
Mof_C 	C 	0.78331	0.01518	0.7082	-0.128
Mof_H 	H 	0.7842	0.0243	0.6657	0.075
Mof_C 	C 	0.75443	0.97191	0.72552	0.05
Mof_H 	H 	0.7355	0.9518	0.6946	0.03
Mof_C 	C 	0.83892	0.09257	0.737	-0.054
Mof_C 	C 	0.82038	0.11231	0.7027	-0.048
Mof_H 	H 	0.7904	0.0953	0.6912	0.047
Mof_H 	H 	0.9441	0.1013	0.7238	0.082
Mof_O 	O 	0.36264	0.22019	0.09351	-0.403
Mof_O 	O 	0.38859	0.23361	0.19396	-0.408
Mof_C 	C 	0.38776	0.24426	0.13774	0.353
Mof_C 	C 	0.41955	0.29131	0.11885	-0.109
Mof_C 	C 	0.44774	0.32061	0.16523	0.044
Mof_H 	H 	0.44707	0.31093	0.20733	0.032
Mof_C 	C 	0.47669	0.36418	0.14833	-0.125
Mof_H 	H 	0.49577	0.38403	0.17943	0.085
Mof_C 	C 	0.47796	0.37869	0.08783	0.09
Mof_C 	C 	0.44998	0.34851	0.04153	-0.128
Mof_H 	H 	0.45087	0.35763	0.99903	0.075
Mof_C 	C 	0.4211	0.30524	0.05885	0.05
Mof_H 	H 	0.40217	0.28513	0.02793	0.03
Mof_C 	C 	0.50559	0.4259	0.07033	-0.054
Mof_C 	C 	0.48705	0.44564	0.03603	-0.048
Mof_H 	H 	0.45707	0.42863	0.02453	0.047
Mof_H 	H 	0.61077	0.43463	0.05713	0.082
Mof_O 	O 	0.0293	0.55353	0.42685	-0.403
Mof_O 	O 	0.05525	0.56695	0.5273	-0.408
Mof_C 	C 	0.05442	0.5776	0.47108	0.353
Mof_C 	C 	0.08621	0.62465	0.45219	-0.109
Mof_C 	C 	0.1144	0.65395	0.49857	0.044
Mof_H 	H 	0.11373	0.64427	0.54067	0.032
Mof_C 	C 	0.14335	0.69752	0.48167	-0.125
Mof_H 	H 	0.16243	0.71737	0.51277	0.085
Mof_C 	C 	0.14462	0.71203	0.42117	0.09
Mof_C 	C 	0.11664	0.68185	0.37487	-0.128
Mof_H 	H 	0.11753	0.69097	0.33237	0.075
Mof_C 	C 	0.08776	0.63858	0.39219	0.05
Mof_H 	H 	0.06883	0.61847	0.36127	0.03
Mof_C 	C 	0.17225	0.75924	0.40367	-0.054
Mof_C 	C 	0.15371	0.77898	0.36937	-0.048
Mof_H 	H 	0.12373	0.76197	0.35787	0.047
Mof_H 	H 	0.27743	0.76797	0.39047	0.081
Mof_O 	O 	0.69597	0.80911	0.76018	-0.403
Mof_O 	O 	0.72192	0.82164	0.86063	-0.408
Mof_C 	C 	0.72109	0.81016	0.80441	0.353
Mof_C 	C 	0.75288	0.7949	0.78552	-0.109
Mof_C 	C 	0.78107	0.79379	0.8319	0.044
Mof_H 	H 	0.7804	0.8028	0.874	0.032
Mof_C 	C 	0.81002	0.77917	0.815	-0.125
Mof_H 	H 	0.8291	0.7784	0.8461	0.085
Mof_C 	C 	0.81129	0.76593	0.7545	0.09
Mof_C 	C 	0.78331	0.76813	0.7082	-0.128
Mof_H 	H 	0.7842	0.7599	0.6657	0.075
Mof_C 	C 	0.75443	0.78252	0.72552	0.05
Mof_H 	H 	0.7355	0.7837	0.6946	0.03
Mof_C 	C 	0.83892	0.74635	0.737	-0.054
Mof_C 	C 	0.82038	0.70807	0.7027	-0.048
Mof_H 	H 	0.7904	0.6951	0.6912	0.047
Mof_H 	H 	0.9441	0.8428	0.7238	0.082
Mof_O 	O 	0.36264	0.14244	0.09351	-0.403
Mof_O 	O 	0.38859	0.15497	0.19396	-0.408
Mof_C 	C 	0.38776	0.14349	0.13774	0.353
Mof_C 	C 	0.41955	0.12823	0.11885	-0.109
Mof_C 	C 	0.44774	0.12712	0.16523	0.044
Mof_H 	H 	0.44707	0.13613	0.20733	0.032
Mof_C 	C 	0.47669	0.1125	0.14833	-0.125
Mof_H 	H 	0.49577	0.11173	0.17943	0.085
Mof_C 	C 	0.47796	0.09926	0.08783	0.09
Mof_C 	C 	0.44998	0.10146	0.04153	-0.128
Mof_H 	H 	0.45087	0.09323	0.99903	0.075
Mof_C 	C 	0.4211	0.11585	0.05885	0.05
Mof_H 	H 	0.40217	0.11703	0.02793	0.03
Mof_C 	C 	0.50559	0.07968	0.07033	-0.054
Mof_C 	C 	0.48705	0.0414	0.03603	-0.048
Mof_H 	H 	0.45707	0.02843	0.02453	0.047
Mof_H 	H 	0.61077	0.17613	0.05713	0.082
Mof_O 	O 	0.0293	0.47578	0.42685	-0.403
Mof_O 	O 	0.05525	0.48831	0.5273	-0.408
Mof_C 	C 	0.05442	0.47683	0.47108	0.353
Mof_C 	C 	0.08621	0.46157	0.45219	-0.109
Mof_C 	C 	0.1144	0.46046	0.49857	0.044
Mof_H 	H 	0.11373	0.46947	0.54067	0.032
Mof_C 	C 	0.14335	0.44584	0.48167	-0.125
Mof_H 	H 	0.16243	0.44507	0.51277	0.085
Mof_C 	C 	0.14462	0.4326	0.42117	0.09
Mof_C 	C 	0.11664	0.4348	0.37487	-0.128
Mof_H 	H 	0.11753	0.42657	0.33237	0.075
Mof_C 	C 	0.08776	0.44919	0.39219	0.05
Mof_H 	H 	0.06883	0.45037	0.36127	0.03
Mof_C 	C 	0.17225	0.41302	0.40367	-0.054
Mof_C 	C 	0.15371	0.37474	0.36937	-0.048
Mof_H 	H 	0.12373	0.36177	0.35787	0.047
Mof_H 	H 	0.27743	0.50947	0.39047	0.082
Mof_O 	O 	0.19089	0.88686	0.76018	-0.403
Mof_O 	O 	0.17836	0.90028	0.86063	-0.408
Mof_C 	C 	0.18984	0.91093	0.80441	0.353
Mof_C 	C 	0.2051	0.95798	0.78552	-0.109
Mof_C 	C 	0.20621	0.98728	0.8319	0.045
Mof_H 	H 	0.1972	0.9776	0.874	0.032
Mof_C 	C 	0.22083	0.03085	0.815	-0.125
Mof_H 	H 	0.2216	0.0507	0.8461	0.085
Mof_C 	C 	0.23407	0.04536	0.7545	0.09
Mof_C 	C 	0.23187	0.01518	0.7082	-0.128
Mof_H 	H 	0.2401	0.0243	0.6657	0.075
Mof_C 	C 	0.21748	0.97191	0.72552	0.05
Mof_H 	H 	0.2163	0.9518	0.6946	0.03
Mof_C 	C 	0.25365	0.09257	0.737	-0.054
Mof_C 	C 	0.29193	0.11231	0.7027	-0.048
Mof_H 	H 	0.3049	0.0953	0.6912	0.047
Mof_H 	H 	0.1572	0.1013	0.7238	0.082
Mof_O 	O 	0.85756	0.22019	0.09351	-0.403
Mof_O 	O 	0.84503	0.23361	0.19396	-0.408
Mof_C 	C 	0.85651	0.24426	0.13774	0.353
Mof_C 	C 	0.87177	0.29131	0.11885	-0.109
Mof_C 	C 	0.87288	0.32061	0.16523	0.044
Mof_H 	H 	0.86387	0.31093	0.20733	0.032
Mof_C 	C 	0.8875	0.36418	0.14833	-0.125
Mof_H 	H 	0.88827	0.38403	0.17943	0.085
Mof_C 	C 	0.90074	0.37869	0.08783	0.09
Mof_C 	C 	0.89854	0.34851	0.04153	-0.128
Mof_H 	H 	0.90677	0.35763	0.99903	0.075
Mof_C 	C 	0.88415	0.30524	0.05885	0.05
Mof_H 	H 	0.88297	0.28513	0.02793	0.03
Mof_C 	C 	0.92032	0.4259	0.07033	-0.054
Mof_C 	C 	0.9586	0.44564	0.03603	-0.048
Mof_H 	H 	0.97157	0.42863	0.02453	0.047
Mof_H 	H 	0.82387	0.43463	0.05713	0.082
Mof_O 	O 	0.52422	0.55353	0.42685	-0.403
Mof_O 	O 	0.51169	0.56695	0.5273	-0.408
Mof_C 	C 	0.52317	0.5776	0.47108	0.353
Mof_C 	C 	0.53843	0.62465	0.45219	-0.109
Mof_C 	C 	0.53954	0.65395	0.49857	0.044
Mof_H 	H 	0.53053	0.64427	0.54067	0.032
Mof_C 	C 	0.55416	0.69752	0.48167	-0.125
Mof_H 	H 	0.55493	0.71737	0.51277	0.085
Mof_C 	C 	0.5674	0.71203	0.42117	0.09
Mof_C 	C 	0.5652	0.68185	0.37487	-0.128
Mof_H 	H 	0.57343	0.69097	0.33237	0.075
Mof_C 	C 	0.55081	0.63858	0.39219	0.05
Mof_H 	H 	0.54963	0.61847	0.36127	0.03
Mof_C 	C 	0.58698	0.75924	0.40367	-0.054
Mof_C 	C 	0.62526	0.77898	0.36937	-0.048
Mof_H 	H 	0.63823	0.76197	0.35787	0.047
Mof_H 	H 	0.49053	0.76797	0.39047	0.082
Mof_O 	O 	0.11314	0.30403	0.76018	-0.403
Mof_O 	O 	0.09972	0.27808	0.86063	-0.408
Mof_C 	C 	0.08907	0.27891	0.80441	0.353
Mof_C 	C 	0.04202	0.24712	0.78552	-0.109
Mof_C 	C 	0.01272	0.21893	0.8319	0.044
Mof_H 	H 	0.0224	0.2196	0.874	0.032
Mof_C 	C 	0.96915	0.18998	0.815	-0.125
Mof_H 	H 	0.9493	0.1709	0.8461	0.085
Mof_C 	C 	0.95464	0.18871	0.7545	0.09
Mof_C 	C 	0.98482	0.21669	0.7082	-0.128
Mof_H 	H 	0.9757	0.2158	0.6657	0.075
Mof_C 	C 	0.02809	0.24557	0.72552	0.05
Mof_H 	H 	0.0482	0.2645	0.6946	0.03
Mof_C 	C 	0.90743	0.16108	0.737	-0.054
Mof_C 	C 	0.88769	0.17962	0.7027	-0.048
Mof_H 	H 	0.9047	0.2096	0.6912	0.047
Mof_H 	H 	0.8987	0.0559	0.7238	0.082
Mof_O 	O 	0.77981	0.63736	0.09351	-0.403
Mof_O 	O 	0.76639	0.61141	0.19396	-0.408
Mof_C 	C 	0.75574	0.61224	0.13774	0.353
Mof_C 	C 	0.70869	0.58045	0.11885	-0.109
Mof_C 	C 	0.67939	0.55226	0.16523	0.044
Mof_H 	H 	0.68907	0.55293	0.20733	0.032
Mof_C 	C 	0.63582	0.52331	0.14833	-0.125
Mof_H 	H 	0.61597	0.50423	0.17943	0.085
Mof_C 	C 	0.62131	0.52204	0.08783	0.09
Mof_C 	C 	0.65149	0.55002	0.04153	-0.128
Mof_H 	H 	0.64237	0.54913	0.99903	0.075
Mof_C 	C 	0.69476	0.5789	0.05885	0.05
Mof_H 	H 	0.71487	0.59783	0.02793	0.03
Mof_C 	C 	0.5741	0.49441	0.07033	-0.054
Mof_C 	C 	0.55436	0.51295	0.03603	-0.048
Mof_H 	H 	0.57137	0.54293	0.02453	0.047
Mof_H 	H 	0.56537	0.38923	0.05713	0.082
Mof_O 	O 	0.44647	0.9707	0.42685	-0.403
Mof_O 	O 	0.43305	0.94475	0.5273	-0.408
Mof_C 	C 	0.4224	0.94558	0.47108	0.353
Mof_C 	C 	0.37535	0.91379	0.45219	-0.109
Mof_C 	C 	0.34605	0.8856	0.49857	0.044
Mof_H 	H 	0.35573	0.88627	0.54067	0.032
Mof_C 	C 	0.30248	0.85665	0.48167	-0.125
Mof_H 	H 	0.28263	0.83757	0.51277	0.085
Mof_C 	C 	0.28797	0.85538	0.42117	0.09
Mof_C 	C 	0.31815	0.88336	0.37487	-0.128
Mof_H 	H 	0.30903	0.88247	0.33237	0.075
Mof_C 	C 	0.36142	0.91224	0.39219	0.05
Mof_H 	H 	0.38153	0.93117	0.36127	0.03
Mof_C 	C 	0.24076	0.82775	0.40367	-0.054
Mof_C 	C 	0.22102	0.84629	0.36937	-0.048
Mof_H 	H 	0.23803	0.87627	0.35787	0.047
Mof_H 	H 	0.23203	0.72257	0.39047	0.081
Mof_O 	O 	0.80911	0.69597	0.23982	-0.403
Mof_O 	O 	0.82164	0.72192	0.13937	-0.408
Mof_C 	C 	0.81016	0.72109	0.19559	0.353
Mof_C 	C 	0.7949	0.75288	0.21448	-0.109
Mof_C 	C 	0.79379	0.78107	0.1681	0.044
Mof_H 	H 	0.8028	0.7804	0.126	0.032
Mof_C 	C 	0.77917	0.81002	0.185	-0.125
Mof_H 	H 	0.7784	0.8291	0.1539	0.085
Mof_C 	C 	0.76593	0.81129	0.2455	0.09
Mof_C 	C 	0.76813	0.78331	0.2918	-0.128
Mof_H 	H 	0.7599	0.7842	0.3343	0.075
Mof_C 	C 	0.78252	0.75443	0.27448	0.05
Mof_H 	H 	0.7837	0.7355	0.3054	0.03
Mof_C 	C 	0.74635	0.83892	0.263	-0.054
Mof_C 	C 	0.70807	0.82038	0.2973	-0.048
Mof_H 	H 	0.6951	0.7904	0.3088	0.047
Mof_H 	H 	0.8428	0.9441	0.2762	0.082
Mof_O 	O 	0.47578	0.0293	0.57315	-0.403
Mof_O 	O 	0.48831	0.05525	0.4727	-0.408
Mof_C 	C 	0.47683	0.05442	0.52892	0.353
Mof_C 	C 	0.46157	0.08621	0.54781	-0.109
Mof_C 	C 	0.46046	0.1144	0.50143	0.044
Mof_H 	H 	0.46947	0.11373	0.45933	0.032
Mof_C 	C 	0.44584	0.14335	0.51833	-0.125
Mof_H 	H 	0.44507	0.16243	0.48723	0.085
Mof_C 	C 	0.4326	0.14462	0.57883	0.09
Mof_C 	C 	0.4348	0.11664	0.62513	-0.128
Mof_H 	H 	0.42657	0.11753	0.66763	0.075
Mof_C 	C 	0.44919	0.08776	0.60781	0.05
Mof_H 	H 	0.45037	0.06883	0.63873	0.03
Mof_C 	C 	0.41302	0.17225	0.59633	-0.054
Mof_C 	C 	0.37474	0.15371	0.63063	-0.048
Mof_H 	H 	0.36177	0.12373	0.64213	0.047
Mof_H 	H 	0.50947	0.27743	0.60953	0.082
Mof_O 	O 	0.14244	0.36264	0.90649	-0.403
Mof_O 	O 	0.15497	0.38859	0.80604	-0.408
Mof_C 	C 	0.14349	0.38776	0.86226	0.353
Mof_C 	C 	0.12823	0.41955	0.88115	-0.109
Mof_C 	C 	0.12712	0.44774	0.83477	0.044
Mof_H 	H 	0.13613	0.44707	0.79267	0.032
Mof_C 	C 	0.1125	0.47669	0.85167	-0.125
Mof_H 	H 	0.11173	0.49577	0.82057	0.085
Mof_C 	C 	0.09926	0.47796	0.91217	0.09
Mof_C 	C 	0.10146	0.44998	0.95847	-0.128
Mof_H 	H 	0.09323	0.45087	0.00097	0.075
Mof_C 	C 	0.11585	0.4211	0.94115	0.05
Mof_H 	H 	0.11703	0.40217	0.97207	0.03
Mof_C 	C 	0.07968	0.50559	0.92967	-0.054
Mof_C 	C 	0.0414	0.48705	0.96397	-0.048
Mof_H 	H 	0.02843	0.45707	0.97547	0.047
Mof_H 	H 	0.17613	0.61077	0.94287	0.082
Mof_O 	O 	0.88686	0.19089	0.23982	-0.403
Mof_O 	O 	0.90028	0.17836	0.13937	-0.408
Mof_C 	C 	0.91093	0.18984	0.19559	0.353
Mof_C 	C 	0.95798	0.2051	0.21448	-0.109
Mof_C 	C 	0.98728	0.20621	0.1681	0.045
Mof_H 	H 	0.9776	0.1972	0.126	0.032
Mof_C 	C 	0.03085	0.22083	0.185	-0.125
Mof_H 	H 	0.0507	0.2216	0.1539	0.085
Mof_C 	C 	0.04536	0.23407	0.2455	0.09
Mof_C 	C 	0.01518	0.23187	0.2918	-0.128
Mof_H 	H 	0.0243	0.2401	0.3343	0.075
Mof_C 	C 	0.97191	0.21748	0.27448	0.05
Mof_H 	H 	0.9518	0.2163	0.3054	0.03
Mof_C 	C 	0.09257	0.25365	0.263	-0.054
Mof_C 	C 	0.11231	0.29193	0.2973	-0.048
Mof_H 	H 	0.0953	0.3049	0.3088	0.047
Mof_H 	H 	0.1013	0.1572	0.2762	0.082
Mof_O 	O 	0.55353	0.52422	0.57315	-0.403
Mof_O 	O 	0.56695	0.51169	0.4727	-0.408
Mof_C 	C 	0.5776	0.52317	0.52892	0.353
Mof_C 	C 	0.62465	0.53843	0.54781	-0.109
Mof_C 	C 	0.65395	0.53954	0.50143	0.044
Mof_H 	H 	0.64427	0.53053	0.45933	0.032
Mof_C 	C 	0.69752	0.55416	0.51833	-0.125
Mof_H 	H 	0.71737	0.55493	0.48723	0.085
Mof_C 	C 	0.71203	0.5674	0.57883	0.09
Mof_C 	C 	0.68185	0.5652	0.62513	-0.128
Mof_H 	H 	0.69097	0.57343	0.66763	0.075
Mof_C 	C 	0.63858	0.55081	0.60781	0.05
Mof_H 	H 	0.61847	0.54963	0.63873	0.03
Mof_C 	C 	0.75924	0.58698	0.59633	-0.054
Mof_C 	C 	0.77898	0.62526	0.63063	-0.048
Mof_H 	H 	0.76197	0.63823	0.64213	0.047
Mof_H 	H 	0.76797	0.49053	0.60953	0.082
Mof_O 	O 	0.22019	0.85756	0.90649	-0.403
Mof_O 	O 	0.23361	0.84503	0.80604	-0.408
Mof_C 	C 	0.24426	0.85651	0.86226	0.353
Mof_C 	C 	0.29131	0.87177	0.88115	-0.109
Mof_C 	C 	0.32061	0.87288	0.83477	0.044
Mof_H 	H 	0.31093	0.86387	0.79267	0.032
Mof_C 	C 	0.36418	0.8875	0.85167	-0.125
Mof_H 	H 	0.38403	0.88827	0.82057	0.085
Mof_C 	C 	0.37869	0.90074	0.91217	0.09
Mof_C 	C 	0.34851	0.89854	0.95847	-0.128
Mof_H 	H 	0.35763	0.90677	0.00097	0.075
Mof_C 	C 	0.30524	0.88415	0.94115	0.05
Mof_H 	H 	0.28513	0.88297	0.97207	0.03
Mof_C 	C 	0.4259	0.92032	0.92967	-0.054
Mof_C 	C 	0.44564	0.9586	0.96397	-0.048
Mof_H 	H 	0.42863	0.97157	0.97547	0.047
Mof_H 	H 	0.43463	0.82387	0.94287	0.082
Mof_O 	O 	0.30403	0.11314	0.23982	-0.403
Mof_O 	O 	0.27808	0.09972	0.13937	-0.408
Mof_C 	C 	0.27891	0.08907	0.19559	0.353
Mof_C 	C 	0.24712	0.04202	0.21448	-0.109
Mof_C 	C 	0.21893	0.01272	0.1681	0.044
Mof_H 	H 	0.2196	0.0224	0.126	0.032
Mof_C 	C 	0.18998	0.96915	0.185	-0.125
Mof_H 	H 	0.1709	0.9493	0.1539	0.085
Mof_C 	C 	0.18871	0.95464	0.2455	0.09
Mof_C 	C 	0.21669	0.98482	0.2918	-0.128
Mof_H 	H 	0.2158	0.9757	0.3343	0.075
Mof_C 	C 	0.24557	0.02809	0.27448	0.05
Mof_H 	H 	0.2645	0.0482	0.3054	0.03
Mof_C 	C 	0.16108	0.90743	0.263	-0.054
Mof_C 	C 	0.17962	0.88769	0.2973	-0.048
Mof_H 	H 	0.2096	0.9047	0.3088	0.047
Mof_H 	H 	0.0559	0.8987	0.2762	0.082
Mof_O 	O 	0.9707	0.44647	0.57315	-0.403
Mof_O 	O 	0.94475	0.43305	0.4727	-0.408
Mof_C 	C 	0.94558	0.4224	0.52892	0.353
Mof_C 	C 	0.91379	0.37535	0.54781	-0.109
Mof_C 	C 	0.8856	0.34605	0.50143	0.044
Mof_H 	H 	0.88627	0.35573	0.45933	0.032
Mof_C 	C 	0.85665	0.30248	0.51833	-0.125
Mof_H 	H 	0.83757	0.28263	0.48723	0.085
Mof_C 	C 	0.85538	0.28797	0.57883	0.09
Mof_C 	C 	0.88336	0.31815	0.62513	-0.128
Mof_H 	H 	0.88247	0.30903	0.66763	0.075
Mof_C 	C 	0.91224	0.36142	0.60781	0.05
Mof_H 	H 	0.93117	0.38153	0.63873	0.03
Mof_C 	C 	0.82775	0.24076	0.59633	-0.054
Mof_C 	C 	0.84629	0.22102	0.63063	-0.048
Mof_H 	H 	0.87627	0.23803	0.64213	0.047
Mof_H 	H 	0.72257	0.23203	0.60953	0.081
Mof_O 	O 	0.63736	0.77981	0.90649	-0.403
Mof_O 	O 	0.61141	0.76639	0.80604	-0.408
Mof_C 	C 	0.61224	0.75574	0.86226	0.353
Mof_C 	C 	0.58045	0.70869	0.88115	-0.109
Mof_C 	C 	0.55226	0.67939	0.83477	0.044
Mof_H 	H 	0.55293	0.68907	0.79267	0.032
Mof_C 	C 	0.52331	0.63582	0.85167	-0.125
Mof_H 	H 	0.50423	0.61597	0.82057	0.085
Mof_C 	C 	0.52204	0.62131	0.91217	0.09
Mof_C 	C 	0.55002	0.65149	0.95847	-0.128
Mof_H 	H 	0.54913	0.64237	0.00097	0.075
Mof_C 	C 	0.5789	0.69476	0.94115	0.05
Mof_H 	H 	0.59783	0.71487	0.97207	0.03
Mof_C 	C 	0.49441	0.5741	0.92967	-0.054
Mof_C 	C 	0.51295	0.55436	0.96397	-0.048
Mof_H 	H 	0.54293	0.57137	0.97547	0.047
Mof_H 	H 	0.38923	0.56537	0.94287	0.082
Mof_Cu	Cu	0.31804	0.15902	0.10835	0.903
Mof_Cu	Cu	0.98471	0.49235	0.44168	0.903
Mof_Cu	Cu	0.65137	0.82569	0.77502	0.903
Mof_Cu	Cu	0.84098	0.15902	0.10835	0.903
Mof_Cu	Cu	0.50765	0.49235	0.44168	0.903
Mof_Cu	Cu	0.17431	0.82569	0.77502	0.903
Mof_Cu	Cu	0.84098	0.68196	0.10835	0.903
Mof_Cu	Cu	0.50765	0.01529	0.44168	0.903
Mof_Cu	Cu	0.17431	0.34863	0.77502	0.903
Mof_Cu	Cu	0.15902	0.31804	0.89165	0.903
Mof_Cu	Cu	0.82569	0.65137	0.22498	0.903
Mof_Cu	Cu	0.49235	0.98471	0.55832	0.903
Mof_Cu	Cu	0.15902	0.84098	0.89165	0.903
Mof_Cu	Cu	0.82569	0.17431	0.22498	0.903
Mof_Cu	Cu	0.49235	0.50765	0.55832	0.903
Mof_Cu	Cu	0.68196	0.84098	0.89165	0.903
Mof_Cu	Cu	0.34863	0.17431	0.22498	0.903
Mof_Cu	Cu	0.01529	0.50765	0.55832	0.903
Mof_O 	O 	0.09784	0.19567	0.2107	-0.178
Mof_C 	C 	0.15634	0.31267	0.3162	0.009
Mof_C 	C 	0.11716	0.23432	0.2455	0.112
Mof_C 	C 	0.07865	0.1573	0.2495	-0.155
Mof_H 	H 	0.06555	0.1311	0.2225	0.083
Mof_O 	O 	0.7645	0.529	0.54403	-0.178
Mof_C 	C 	0.823	0.646	0.64953	0.009
Mof_C 	C 	0.78383	0.56765	0.57883	0.112
Mof_C 	C 	0.74532	0.49063	0.58283	-0.155
Mof_H 	H 	0.73222	0.46443	0.55583	0.083
Mof_O 	O 	0.43117	0.86234	0.87737	-0.178
Mof_C 	C 	0.48967	0.97934	0.98287	0.009
Mof_C 	C 	0.45049	0.90099	0.91217	0.112
Mof_C 	C 	0.41198	0.82397	0.91617	-0.155
Mof_H 	H 	0.39888	0.79777	0.88917	0.083
Mof_O 	O 	0.80433	0.90216	0.2107	-0.178
Mof_C 	C 	0.68733	0.84366	0.3162	0.009
Mof_C 	C 	0.76568	0.88284	0.2455	0.112
Mof_C 	C 	0.8427	0.92135	0.2495	-0.155
Mof_H 	H 	0.8689	0.93445	0.2225	0.083
Mof_O 	O 	0.471	0.2355	0.54403	-0.178
Mof_C 	C 	0.354	0.177	0.64953	0.009
Mof_C 	C 	0.43235	0.21617	0.57883	0.112
Mof_C 	C 	0.50937	0.25468	0.58283	-0.155
Mof_H 	H 	0.53557	0.26778	0.55583	0.083
Mof_O 	O 	0.13766	0.56883	0.87737	-0.178
Mof_C 	C 	0.02066	0.51033	0.98287	0.009
Mof_C 	C 	0.09901	0.54951	0.91217	0.112
Mof_C 	C 	0.17603	0.58802	0.91617	-0.155
Mof_H 	H 	0.20223	0.60112	0.88917	0.083
Mof_O 	O 	0.09784	0.90216	0.2107	-0.178
Mof_C 	C 	0.15634	0.84366	0.3162	0.009
Mof_C 	C 	0.11716	0.88284	0.2455	0.112
Mof_C 	C 	0.07865	0.92135	0.2495	-0.155
Mof_H 	H 	0.06555	0.93445	0.2225	0.083
Mof_O 	O 	0.7645	0.2355	0.54403	-0.178
Mof_C 	C 	0.823	0.177	0.64953	0.009
Mof_C 	C 	0.78383	0.21617	0.57883	0.112
Mof_C 	C 	0.74532	0.25468	0.58283	-0.155
Mof_H 	H 	0.73222	0.26778	0.55583	0.083
Mof_O 	O 	0.43117	0.56883	0.87737	-0.178
Mof_C 	C 	0.48967	0.51033	0.98287	0.009
Mof_C 	C 	0.45049	0.54951	0.91217	0.112
Mof_C 	C 	0.41198	0.58802	0.91617	-0.155
Mof_H 	H 	0.39888	0.60112	0.88917	0.083
Mof_O 	O 	0.19567	0.09784	0.7893	-0.178
Mof_C 	C 	0.31267	0.15634	0.6838	0.009
Mof_C 	C 	0.23432	0.11716	0.7545	0.112
Mof_C 	C 	0.1573	0.07865	0.7505	-0.155
Mof_H 	H 	0.1311	0.06555	0.7775	0.083
Mof_O 	O 	0.86234	0.43117	0.12263	-0.178
Mof_C 	C 	0.97934	0.48967	0.01713	0.009
Mof_C 	C 	0.90099	0.45049	0.08783	0.112
Mof_C 	C 	0.82397	0.41198	0.08383	-0.155
Mof_H 	H 	0.79777	0.39888	0.11083	0.083
Mof_O 	O 	0.529	0.7645	0.45597	-0.178
Mof_C 	C 	0.646	0.823	0.35047	0.009
Mof_C 	C 	0.56765	0.78383	0.42117	0.112
Mof_C 	C 	0.49063	0.74532	0.41717	-0.155
Mof_H 	H 	0.46443	0.73222	0.44417	0.083
Mof_O 	O 	0.90216	0.80433	0.7893	-0.178
Mof_C 	C 	0.84366	0.68733	0.6838	0.009
Mof_C 	C 	0.88284	0.76568	0.7545	0.112
Mof_C 	C 	0.92135	0.8427	0.7505	-0.155
Mof_H 	H 	0.93445	0.8689	0.7775	0.083
Mof_O 	O 	0.56883	0.13766	0.12263	-0.178
Mof_C 	C 	0.51033	0.02066	0.01713	0.009
Mof_C 	C 	0.54951	0.09901	0.08783	0.112
Mof_C 	C 	0.58802	0.17603	0.08383	-0.155
Mof_H 	H 	0.60112	0.20223	0.11083	0.083
Mof_O 	O 	0.2355	0.471	0.45597	-0.178
Mof_C 	C 	0.177	0.354	0.35047	0.009
Mof_C 	C 	0.21617	0.43235	0.42117	0.112
Mof_C 	C 	0.25468	0.50937	0.41717	-0.155
Mof_H 	H 	0.26778	0.53557	0.44417	0.083
Mof_O 	O 	0.90216	0.09784	0.7893	-0.178
Mof_C 	C 	0.84366	0.15634	0.6838	0.009
Mof_C 	C 	0.88284	0.11716	0.7545	0.112
Mof_C 	C 	0.92135	0.07865	0.7505	-0.155
Mof_H 	H 	0.93445	0.06555	0.7775	0.083
Mof_O 	O 	0.56883	0.43117	0.12263	-0.178
Mof_C 	C 	0.51033	0.48967	0.01713	0.009
Mof_C 	C 	0.54951	0.45049	0.08783	0.112
Mof_C 	C 	0.58802	0.41198	0.08383	-0.155
Mof_H 	H 	0.60112	0.39888	0.11083	0.083
Mof_O 	O 	0.2355	0.7645	0.45597	-0.178
Mof_C 	C 	0.177	0.823	0.35047	0.009
Mof_C 	C 	0.21617	0.78383	0.42117	0.112
Mof_C 	C 	0.25468	0.74532	0.41717	-0.155
Mof_H 	H 	0.26778	0.73222	0.44417	0.083
_end
