data_functionalizedCrystal
_audit_creation_method	'EQeq! by Chris Wilmer'
_symmetry_space_group_name_H-M	'P1'
_symmetry_Int_Tables_number	1
_symmetry_cell_setting	triclinic
loop_
_symmetry_equiv_pos_as_xyz
  x,y,z
_cell_length_a	26.772
_cell_length_b	26.772
_cell_length_c	5.0662
_cell_angle_alpha	90
_cell_angle_beta	90
_cell_angle_gamma	90
loop_
_atom_site_label
_atom_site_type_symbol
_atom_site_fract_x
_atom_site_fract_y
_atom_site_fract_z
_atom_site_charge
Mof_Zn	Zn	0.21308	0.22922	0.70829	1.215
Mof_H 	H 	0.1066	0.2077	0.9419	-0.016
Mof_H 	H 	0.1801	0.3126	0.2905	0.026
Mof_H 	H 	0.1724	0.3782	0.9437	0.044
Mof_H 	H 	0.1242	0.4359	0.7122	0.04
Mof_H 	H 	0.0393	0.4474	0.8243	0.031
Mof_H 	H 	0.0024	0.4004	0.1475	0.056
Mof_H 	H 	0.0067	0.3312	0.4791	0.074
Mof_H 	H 	0.0377	0.2225	0.2142	0.091
Mof_H 	H 	0.9595	0.2009	0.3943	0.03
Mof_H 	H 	0.8924	0.2375	0.7076	0.022
Mof_H 	H 	0.9704	0.2567	0.5238	0.086
Mof_C 	C 	0.10368	0.23377	0.8157	0.102
Mof_C 	C 	0.12192	0.28824	0.5146	0.041
Mof_C 	C 	0.14553	0.3167	0.3262	-0.117
Mof_C 	C 	0.11667	0.35218	0.1876	0.029
Mof_C 	C 	0.138	0.38204	0.9859	-0.069
Mof_C 	C 	0.10957	0.41664	0.8494	-0.035
Mof_C 	C 	0.05856	0.4231	0.9156	-0.025
Mof_C 	C 	0.03663	0.39527	0.107	-0.079
Mof_C 	C 	0.06437	0.3582	0.2487	0.044
Mof_C 	C 	0.04126	0.32786	0.4394	-0.123
Mof_C 	C 	0.07051	0.2931	0.5664	0.074
Mof_C 	C 	0.01195	0.24239	0.8606	0.144
Mof_C 	C 	0.91952	0.21381	0.0506	-0.114
Mof_C 	C 	0.86981	0.19891	0.1644	0.322
Mof_C 	C 	0.0085	0.2253	0.1093	-0.157
Mof_C 	C 	0.9622	0.2115	0.2159	0.049
Mof_C 	C 	0.922	0.2328	0.8077	0.067
Mof_C 	C 	0.9681	0.2457	0.7017	-0.158
Mof_N 	N 	0.14148	0.25085	0.6786	-0.277
Mof_N 	N 	0.05991	0.25707	0.7592	-0.157
Mof_O 	O 	0.2508	0.28115	0.8861	-0.669
Mof_O 	O 	0.83166	0.21955	0.0739	-0.467
Mof_O 	O 	0.8685	0.1833	0.4106	-0.3
Mof_H 	H 	0.3185	0.75667	0.1139	0.171
Mof_Zn	Zn	0.71308	0.72922	0.20829	1.215
Mof_H 	H 	0.6066	0.7077	0.4419	-0.015
Mof_H 	H 	0.6801	0.8126	0.7905	0.025
Mof_H 	H 	0.6724	0.8782	0.4437	0.043
Mof_H 	H 	0.6242	0.9359	0.2122	0.042
Mof_H 	H 	0.5393	0.9474	0.3243	0.029
Mof_H 	H 	0.5024	0.9004	0.6475	0.06
Mof_H 	H 	0.5067	0.8312	0.9791	0.075
Mof_H 	H 	0.5377	0.7225	0.7142	0.095
Mof_H 	H 	0.4595	0.7009	0.8943	0.028
Mof_H 	H 	0.3924	0.7375	0.2076	0.019
Mof_H 	H 	0.4704	0.7567	0.0238	0.087
Mof_C 	C 	0.60368	0.73377	0.3157	0.102
Mof_C 	C 	0.62192	0.78824	0.0146	0.032
Mof_C 	C 	0.64553	0.8167	0.8262	-0.106
Mof_C 	C 	0.61667	0.85218	0.6876	0.024
Mof_C 	C 	0.638	0.88204	0.4859	-0.063
Mof_C 	C 	0.60957	0.91664	0.3494	-0.041
Mof_C 	C 	0.55856	0.9231	0.4156	-0.015
Mof_C 	C 	0.53663	0.89527	0.607	-0.087
Mof_C 	C 	0.56437	0.8582	0.7487	0.048
Mof_C 	C 	0.54126	0.82786	0.9394	-0.12
Mof_C 	C 	0.57051	0.7931	0.0664	0.072
Mof_C 	C 	0.51195	0.74239	0.3606	0.151
Mof_C 	C 	0.41952	0.71381	0.5506	-0.125
Mof_C 	C 	0.36981	0.69891	0.6644	0.326
Mof_C 	C 	0.5085	0.7253	0.6093	-0.166
Mof_C 	C 	0.4622	0.7115	0.7159	0.057
Mof_C 	C 	0.422	0.7328	0.3077	0.081
Mof_C 	C 	0.4681	0.7457	0.2017	-0.165
Mof_N 	N 	0.64148	0.75085	0.1786	-0.277
Mof_N 	N 	0.55991	0.75707	0.2592	-0.158
Mof_O 	O 	0.7508	0.78115	0.3861	-0.672
Mof_O 	O 	0.33166	0.71955	0.5739	-0.47
Mof_O 	O 	0.3685	0.6833	0.9106	-0.302
Mof_H 	H 	0.8185	0.25667	0.6139	0.17
Mof_Zn	Zn	0.78692	0.77078	0.70829	1.216
Mof_H 	H 	0.8934	0.7923	0.9419	-0.015
Mof_H 	H 	0.8199	0.6874	0.2905	0.027
Mof_H 	H 	0.8276	0.6218	0.9437	0.045
Mof_H 	H 	0.8758	0.5641	0.7122	0.041
Mof_H 	H 	0.9607	0.5526	0.8243	0.032
Mof_H 	H 	0.9976	0.5996	0.1475	0.057
Mof_H 	H 	0.9933	0.6688	0.4791	0.075
Mof_H 	H 	0.9623	0.7775	0.2142	0.091
Mof_H 	H 	0.0405	0.7991	0.3943	0.03
Mof_H 	H 	0.1076	0.7625	0.7076	0.022
Mof_H 	H 	0.0296	0.7433	0.5238	0.086
Mof_C 	C 	0.89632	0.76623	0.8157	0.102
Mof_C 	C 	0.87808	0.71176	0.5146	0.041
Mof_C 	C 	0.85447	0.6833	0.3262	-0.117
Mof_C 	C 	0.88333	0.64782	0.1876	0.029
Mof_C 	C 	0.862	0.61796	0.9859	-0.069
Mof_C 	C 	0.89043	0.58336	0.8494	-0.035
Mof_C 	C 	0.94144	0.5769	0.9156	-0.025
Mof_C 	C 	0.96337	0.60473	0.107	-0.079
Mof_C 	C 	0.93563	0.6418	0.2487	0.044
Mof_C 	C 	0.95874	0.67214	0.4394	-0.123
Mof_C 	C 	0.92949	0.7069	0.5664	0.074
Mof_C 	C 	0.98805	0.75761	0.8606	0.144
Mof_C 	C 	0.08048	0.78619	0.0506	-0.114
Mof_C 	C 	0.13019	0.80109	0.1644	0.322
Mof_C 	C 	0.9915	0.7747	0.1093	-0.157
Mof_C 	C 	0.0378	0.7885	0.2159	0.049
Mof_C 	C 	0.078	0.7672	0.8077	0.067
Mof_C 	C 	0.0319	0.7543	0.7017	-0.158
Mof_N 	N 	0.85852	0.74915	0.6786	-0.277
Mof_N 	N 	0.94009	0.74293	0.7592	-0.157
Mof_O 	O 	0.7492	0.71885	0.8861	-0.669
Mof_O 	O 	0.16834	0.78045	0.0739	-0.467
Mof_O 	O 	0.1315	0.8167	0.4106	-0.3
Mof_H 	H 	0.6815	0.24333	0.1139	0.171
Mof_Zn	Zn	0.28692	0.27078	0.20829	1.215
Mof_H 	H 	0.3934	0.2923	0.4419	-0.015
Mof_H 	H 	0.3199	0.1874	0.7905	0.025
Mof_H 	H 	0.3276	0.1218	0.4437	0.043
Mof_H 	H 	0.3758	0.0641	0.2122	0.042
Mof_H 	H 	0.4607	0.0526	0.3243	0.029
Mof_H 	H 	0.4976	0.0996	0.6475	0.06
Mof_H 	H 	0.4933	0.1688	0.9791	0.075
Mof_H 	H 	0.4623	0.2775	0.7142	0.095
Mof_H 	H 	0.5405	0.2991	0.8943	0.028
Mof_H 	H 	0.6076	0.2625	0.2076	0.019
Mof_H 	H 	0.5296	0.2433	0.0238	0.087
Mof_C 	C 	0.39632	0.26623	0.3157	0.102
Mof_C 	C 	0.37808	0.21176	0.0146	0.032
Mof_C 	C 	0.35447	0.1833	0.8262	-0.106
Mof_C 	C 	0.38333	0.14782	0.6876	0.024
Mof_C 	C 	0.362	0.11796	0.4859	-0.063
Mof_C 	C 	0.39043	0.08336	0.3494	-0.041
Mof_C 	C 	0.44144	0.0769	0.4156	-0.015
Mof_C 	C 	0.46337	0.10473	0.607	-0.087
Mof_C 	C 	0.43563	0.1418	0.7487	0.048
Mof_C 	C 	0.45874	0.17214	0.9394	-0.12
Mof_C 	C 	0.42949	0.2069	0.0664	0.072
Mof_C 	C 	0.48805	0.25761	0.3606	0.151
Mof_C 	C 	0.58048	0.28619	0.5506	-0.125
Mof_C 	C 	0.63019	0.30109	0.6644	0.326
Mof_C 	C 	0.4915	0.2747	0.6093	-0.166
Mof_C 	C 	0.5378	0.2885	0.7159	0.057
Mof_C 	C 	0.578	0.2672	0.3077	0.081
Mof_C 	C 	0.5319	0.2543	0.2017	-0.165
Mof_N 	N 	0.35852	0.24915	0.1786	-0.277
Mof_N 	N 	0.44009	0.24293	0.2592	-0.158
Mof_O 	O 	0.2492	0.21885	0.3861	-0.672
Mof_O 	O 	0.66834	0.28045	0.5739	-0.47
Mof_O 	O 	0.6315	0.3167	0.9106	-0.302
Mof_H 	H 	0.1815	0.74333	0.6139	0.17
Mof_Zn	Zn	0.22922	0.78692	0.29171	1.216
Mof_H 	H 	0.2077	0.8934	0.0581	-0.015
Mof_H 	H 	0.3126	0.8199	0.7095	0.027
Mof_H 	H 	0.3782	0.8276	0.0563	0.045
Mof_H 	H 	0.4359	0.8758	0.2878	0.041
Mof_H 	H 	0.4474	0.9607	0.1757	0.032
Mof_H 	H 	0.4004	0.9976	0.8525	0.057
Mof_H 	H 	0.3312	0.9933	0.5209	0.075
Mof_H 	H 	0.2225	0.9623	0.7858	0.091
Mof_H 	H 	0.2009	0.0405	0.6057	0.03
Mof_H 	H 	0.2375	0.1076	0.2924	0.022
Mof_H 	H 	0.2567	0.0296	0.4762	0.086
Mof_C 	C 	0.23377	0.89632	0.1843	0.102
Mof_C 	C 	0.28824	0.87808	0.4854	0.041
Mof_C 	C 	0.3167	0.85447	0.6738	-0.117
Mof_C 	C 	0.35218	0.88333	0.8124	0.029
Mof_C 	C 	0.38204	0.862	0.0141	-0.069
Mof_C 	C 	0.41664	0.89043	0.1506	-0.035
Mof_C 	C 	0.4231	0.94144	0.0844	-0.025
Mof_C 	C 	0.39527	0.96337	0.893	-0.079
Mof_C 	C 	0.3582	0.93563	0.7513	0.044
Mof_C 	C 	0.32786	0.95874	0.5606	-0.123
Mof_C 	C 	0.2931	0.92949	0.4336	0.074
Mof_C 	C 	0.24239	0.98805	0.1394	0.144
Mof_C 	C 	0.21381	0.08048	0.9494	-0.114
Mof_C 	C 	0.19891	0.13019	0.8356	0.322
Mof_C 	C 	0.2253	0.9915	0.8907	-0.157
Mof_C 	C 	0.2115	0.0378	0.7841	0.049
Mof_C 	C 	0.2328	0.078	0.1923	0.067
Mof_C 	C 	0.2457	0.0319	0.2983	-0.158
Mof_N 	N 	0.25085	0.85852	0.3214	-0.277
Mof_N 	N 	0.25707	0.94009	0.2408	-0.157
Mof_O 	O 	0.28115	0.7492	0.1139	-0.669
Mof_O 	O 	0.21955	0.16834	0.9261	-0.467
Mof_O 	O 	0.1833	0.1315	0.5894	-0.3
Mof_H 	H 	0.75667	0.6815	0.8861	0.171
Mof_Zn	Zn	0.72922	0.28692	0.79171	1.215
Mof_H 	H 	0.7077	0.3934	0.5581	-0.015
Mof_H 	H 	0.8126	0.3199	0.2095	0.025
Mof_H 	H 	0.8782	0.3276	0.5563	0.043
Mof_H 	H 	0.9359	0.3758	0.7878	0.042
Mof_H 	H 	0.9474	0.4607	0.6757	0.029
Mof_H 	H 	0.9004	0.4976	0.3525	0.06
Mof_H 	H 	0.8312	0.4933	0.0209	0.075
Mof_H 	H 	0.7225	0.4623	0.2858	0.095
Mof_H 	H 	0.7009	0.5405	0.1057	0.028
Mof_H 	H 	0.7375	0.6076	0.7924	0.019
Mof_H 	H 	0.7567	0.5296	0.9762	0.087
Mof_C 	C 	0.73377	0.39632	0.6843	0.102
Mof_C 	C 	0.78824	0.37808	0.9854	0.032
Mof_C 	C 	0.8167	0.35447	0.1738	-0.106
Mof_C 	C 	0.85218	0.38333	0.3124	0.024
Mof_C 	C 	0.88204	0.362	0.5141	-0.063
Mof_C 	C 	0.91664	0.39043	0.6506	-0.041
Mof_C 	C 	0.9231	0.44144	0.5844	-0.015
Mof_C 	C 	0.89527	0.46337	0.393	-0.087
Mof_C 	C 	0.8582	0.43563	0.2513	0.048
Mof_C 	C 	0.82786	0.45874	0.0606	-0.12
Mof_C 	C 	0.7931	0.42949	0.9336	0.072
Mof_C 	C 	0.74239	0.48805	0.6394	0.151
Mof_C 	C 	0.71381	0.58048	0.4494	-0.125
Mof_C 	C 	0.69891	0.63019	0.3356	0.326
Mof_C 	C 	0.7253	0.4915	0.3907	-0.166
Mof_C 	C 	0.7115	0.5378	0.2841	0.057
Mof_C 	C 	0.7328	0.578	0.6923	0.081
Mof_C 	C 	0.7457	0.5319	0.7983	-0.165
Mof_N 	N 	0.75085	0.35852	0.8214	-0.277
Mof_N 	N 	0.75707	0.44009	0.7408	-0.158
Mof_O 	O 	0.78115	0.2492	0.6139	-0.672
Mof_O 	O 	0.71955	0.66834	0.4261	-0.47
Mof_O 	O 	0.6833	0.6315	0.0894	-0.302
Mof_H 	H 	0.25667	0.1815	0.3861	0.17
Mof_Zn	Zn	0.77078	0.21308	0.29171	1.216
Mof_H 	H 	0.7923	0.1066	0.0581	-0.015
Mof_H 	H 	0.6874	0.1801	0.7095	0.027
Mof_H 	H 	0.6218	0.1724	0.0563	0.045
Mof_H 	H 	0.5641	0.1242	0.2878	0.041
Mof_H 	H 	0.5526	0.0393	0.1757	0.032
Mof_H 	H 	0.5996	0.0024	0.8525	0.057
Mof_H 	H 	0.6688	0.0067	0.5209	0.075
Mof_H 	H 	0.7775	0.0377	0.7858	0.091
Mof_H 	H 	0.7991	0.9595	0.6057	0.03
Mof_H 	H 	0.7625	0.8924	0.2924	0.022
Mof_H 	H 	0.7433	0.9704	0.4762	0.086
Mof_C 	C 	0.76623	0.10368	0.1843	0.102
Mof_C 	C 	0.71176	0.12192	0.4854	0.041
Mof_C 	C 	0.6833	0.14553	0.6738	-0.117
Mof_C 	C 	0.64782	0.11667	0.8124	0.029
Mof_C 	C 	0.61796	0.138	0.0141	-0.069
Mof_C 	C 	0.58336	0.10957	0.1506	-0.035
Mof_C 	C 	0.5769	0.05856	0.0844	-0.025
Mof_C 	C 	0.60473	0.03663	0.893	-0.079
Mof_C 	C 	0.6418	0.06437	0.7513	0.044
Mof_C 	C 	0.67214	0.04126	0.5606	-0.123
Mof_C 	C 	0.7069	0.07051	0.4336	0.074
Mof_C 	C 	0.75761	0.01195	0.1394	0.144
Mof_C 	C 	0.78619	0.91952	0.9494	-0.114
Mof_C 	C 	0.80109	0.86981	0.8356	0.322
Mof_C 	C 	0.7747	0.0085	0.8907	-0.157
Mof_C 	C 	0.7885	0.9622	0.7841	0.049
Mof_C 	C 	0.7672	0.922	0.1923	0.067
Mof_C 	C 	0.7543	0.9681	0.2983	-0.158
Mof_N 	N 	0.74915	0.14148	0.3214	-0.277
Mof_N 	N 	0.74293	0.05991	0.2408	-0.157
Mof_O 	O 	0.71885	0.2508	0.1139	-0.669
Mof_O 	O 	0.78045	0.83166	0.9261	-0.467
Mof_O 	O 	0.8167	0.8685	0.5894	-0.3
Mof_H 	H 	0.24333	0.3185	0.8861	0.171
Mof_Zn	Zn	0.27078	0.71308	0.79171	1.215
Mof_H 	H 	0.2923	0.6066	0.5581	-0.015
Mof_H 	H 	0.1874	0.6801	0.2095	0.025
Mof_H 	H 	0.1218	0.6724	0.5563	0.043
Mof_H 	H 	0.0641	0.6242	0.7878	0.042
Mof_H 	H 	0.0526	0.5393	0.6757	0.029
Mof_H 	H 	0.0996	0.5024	0.3525	0.06
Mof_H 	H 	0.1688	0.5067	0.0209	0.075
Mof_H 	H 	0.2775	0.5377	0.2858	0.095
Mof_H 	H 	0.2991	0.4595	0.1057	0.028
Mof_H 	H 	0.2625	0.3924	0.7924	0.019
Mof_H 	H 	0.2433	0.4704	0.9762	0.087
Mof_C 	C 	0.26623	0.60368	0.6843	0.102
Mof_C 	C 	0.21176	0.62192	0.9854	0.032
Mof_C 	C 	0.1833	0.64553	0.1738	-0.106
Mof_C 	C 	0.14782	0.61667	0.3124	0.024
Mof_C 	C 	0.11796	0.638	0.5141	-0.063
Mof_C 	C 	0.08336	0.60957	0.6506	-0.041
Mof_C 	C 	0.0769	0.55856	0.5844	-0.015
Mof_C 	C 	0.10473	0.53663	0.393	-0.087
Mof_C 	C 	0.1418	0.56437	0.2513	0.048
Mof_C 	C 	0.17214	0.54126	0.0606	-0.12
Mof_C 	C 	0.2069	0.57051	0.9336	0.072
Mof_C 	C 	0.25761	0.51195	0.6394	0.151
Mof_C 	C 	0.28619	0.41952	0.4494	-0.125
Mof_C 	C 	0.30109	0.36981	0.3356	0.326
Mof_C 	C 	0.2747	0.5085	0.3907	-0.166
Mof_C 	C 	0.2885	0.4622	0.2841	0.057
Mof_C 	C 	0.2672	0.422	0.6923	0.081
Mof_C 	C 	0.2543	0.4681	0.7983	-0.165
Mof_N 	N 	0.24915	0.64148	0.8214	-0.277
Mof_N 	N 	0.24293	0.55991	0.7408	-0.158
Mof_O 	O 	0.21885	0.7508	0.6139	-0.672
Mof_O 	O 	0.28045	0.33166	0.4261	-0.47
Mof_O 	O 	0.3167	0.3685	0.0894	-0.302
Mof_H 	H 	0.74333	0.8185	0.3861	0.17
_end
