data_functionalizedCrystal
_audit_creation_method	'EQeq! by Chris Wilmer'
_symmetry_space_group_name_H-M	'P1'
_symmetry_Int_Tables_number	1
_symmetry_cell_setting	triclinic
loop_
_symmetry_equiv_pos_as_xyz
  x,y,z
_cell_length_a	15.4488
_cell_length_b	18.1141
_cell_length_c	17.5541
_cell_angle_alpha	90
_cell_angle_beta	103.171
_cell_angle_gamma	90
loop_
_atom_site_label
_atom_site_type_symbol
_atom_site_fract_x
_atom_site_fract_y
_atom_site_fract_z
_atom_site_charge
Mof_C 	C 	0.9618	0.9346	0.6686	0.4
Mof_C 	C 	0.9729	0.8626	0.712	-0.183
Mof_C 	C 	0.0606	0.8388	0.7412	0.05
Mof_H 	H 	0.1086	0.8677	0.7324	0.014
Mof_C 	C 	0.0774	0.774	0.7825	-0.075
Mof_H 	H 	0.137	0.7583	0.8021	0.055
Mof_C 	C 	0.0081	0.7316	0.7956	-0.027
Mof_C 	C 	0.92	0.7538	0.7649	-0.136
Mof_H 	H 	0.8726	0.7233	0.7723	0.108
Mof_C 	C 	0.9014	0.8187	0.7245	0.176
Mof_C 	C 	0.734	0.8079	0.6962	0.265
Mof_C 	C 	0.6528	0.849	0.661	-0.188
Mof_H 	H 	0.6567	0.8652	0.608	0.086
Mof_H 	H 	0.6507	0.894	0.6926	0.093
Mof_C 	C 	0.5667	0.8071	0.6544	-0.222
Mof_H 	H 	0.5171	0.8369	0.6255	0.069
Mof_H 	H 	0.5579	0.7966	0.7068	0.109
Mof_H 	H 	0.5695	0.7606	0.6265	0.099
Mof_C 	C 	0.024	0.6602	0.8406	0.373
Mof_C 	C 	0.6913	0.996	0.5236	0.247
Mof_C 	C 	0.5924	0.9956	0.5192	0.011
Mof_C 	C 	0.5487	0.0567	0.5404	-0.969
Mof_C 	C 	0.4568	0.0558	0.5301	-0.04
Mof_H 	H 	0.427	0.0976	0.5446	-0.186
Mof_C 	C 	0.4086	0.9938	0.4988	0.102
Mof_C 	C 	0.4522	0.9327	0.4776	0.128
Mof_H 	H 	0.4193	0.8903	0.4562	1.881
Mof_C 	C 	0.5441	0.9336	0.4879	0.276
Mof_H 	H 	0.574	0.8918	0.4735	0.173
Mof_C 	C 	0.5676	0.1957	0.5945	0.906
Mof_C 	C 	0.6455	0.2475	0.6254	-0.733
Mof_H 	H 	0.6943	0.22	0.6602	0.246
Mof_H 	H 	0.6681	0.2676	0.5812	0.221
Mof_C 	C 	0.6169	0.3066	0.6677	0.31
Mof_H 	H 	0.6665	0.3407	0.6861	-0.073
Mof_H 	H 	0.5969	0.2866	0.7127	-0.057
Mof_H 	H 	0.5678	0.333	0.6333	-0.055
Mof_N 	N 	0.811	0.84	0.693	-0.259
Mof_H 	H 	0.8051	0.8818	0.6669	0.158
Mof_N 	N 	0.5952	0.1278	0.5682	-2.138
Mof_H 	H 	0.6521	0.1271	0.568	0.525
Mof_O 	O 	0.02718	0.96178	0.64968	-0.504
Mof_O 	O 	0.88355	0.96327	0.65241	-0.49
Mof_O 	O 	0.729	0.747	0.7264	-0.242
Mof_O 	O 	0.95937	0.62947	0.85842	-0.5
Mof_O 	O 	0.10329	0.63753	0.85696	-0.49
Mof_O 	O 	0.72708	0.93789	0.5121	-0.316
Mof_O 	O 	0.73328	0.05633	0.5467	-0.504
Mof_O 	O 	0.4967	0.2066	0.6009	-0.47
Mof_O 	O 	0.9303	0.045	0.50296	-0.971
Mof_Zn	Zn	0.06087	0.04038	0.57324	1.187
Mof_Zn	Zn	0.86111	0.04729	0.58156	1.226
Mof_H 	H 	0.922	0.085	0.483	0.332
Mof_C 	C 	0.0382	0.4346	0.8314	0.406
Mof_C 	C 	0.0271	0.3626	0.788	-0.175
Mof_C 	C 	0.9394	0.3388	0.7588	0.039
Mof_H 	H 	0.8914	0.3677	0.7676	0.017
Mof_C 	C 	0.9226	0.274	0.7175	-0.068
Mof_H 	H 	0.863	0.2583	0.6979	0.052
Mof_C 	C 	0.9919	0.2316	0.7044	-0.035
Mof_C 	C 	0.08	0.2538	0.7351	-0.126
Mof_H 	H 	0.1274	0.2233	0.7277	0.106
Mof_C 	C 	0.0986	0.3187	0.7755	0.172
Mof_C 	C 	0.266	0.3079	0.8038	0.265
Mof_C 	C 	0.3472	0.349	0.839	-0.188
Mof_H 	H 	0.3433	0.3652	0.892	0.087
Mof_H 	H 	0.3493	0.394	0.8074	0.093
Mof_C 	C 	0.4333	0.3071	0.8456	-0.222
Mof_H 	H 	0.4829	0.3369	0.8745	0.068
Mof_H 	H 	0.4421	0.2966	0.7932	0.109
Mof_H 	H 	0.4305	0.2606	0.8735	0.099
Mof_C 	C 	0.976	0.1602	0.6594	0.372
Mof_C 	C 	0.3087	0.496	0.9764	0.249
Mof_C 	C 	0.4076	0.4956	0.9808	0.009
Mof_C 	C 	0.4513	0.5567	0.9596	-0.969
Mof_C 	C 	0.5432	0.5558	0.9699	-0.04
Mof_H 	H 	0.573	0.5976	0.9554	-0.186
Mof_C 	C 	0.5914	0.4938	0.0012	0.104
Mof_C 	C 	0.5478	0.4327	0.0224	0.128
Mof_H 	H 	0.5807	0.3903	0.0438	1.882
Mof_C 	C 	0.4559	0.4336	0.0121	0.276
Mof_H 	H 	0.426	0.3918	0.0265	0.172
Mof_C 	C 	0.4324	0.6957	0.9055	0.906
Mof_C 	C 	0.3545	0.7475	0.8746	-0.733
Mof_H 	H 	0.3057	0.72	0.8398	0.246
Mof_H 	H 	0.3319	0.7676	0.9188	0.221
Mof_C 	C 	0.3831	0.8066	0.8323	0.31
Mof_H 	H 	0.3335	0.8407	0.8139	-0.072
Mof_H 	H 	0.4031	0.7866	0.7873	-0.057
Mof_H 	H 	0.4322	0.833	0.8667	-0.054
Mof_N 	N 	0.189	0.34	0.807	-0.258
Mof_H 	H 	0.1949	0.3818	0.8331	0.158
Mof_N 	N 	0.4048	0.6278	0.9318	-2.138
Mof_H 	H 	0.3479	0.6271	0.932	0.525
Mof_O 	O 	0.97282	0.46178	0.85032	-0.512
Mof_O 	O 	0.11645	0.46327	0.84759	-0.49
Mof_O 	O 	0.271	0.247	0.7736	-0.242
Mof_O 	O 	0.04063	0.12947	0.64158	-0.498
Mof_O 	O 	0.89671	0.13753	0.64304	-0.491
Mof_O 	O 	0.27292	0.43789	0.9879	-0.315
Mof_O 	O 	0.26672	0.55633	0.9533	-0.504
Mof_O 	O 	0.5033	0.7066	0.8991	-0.47
Mof_O 	O 	0.0697	0.545	0.99704	-0.965
Mof_Zn	Zn	0.93913	0.54038	0.92676	1.187
Mof_Zn	Zn	0.13889	0.54729	0.91844	1.226
Mof_H 	H 	0.078	0.585	0.017	0.326
Mof_C 	C 	0.0382	0.0654	0.3314	0.4
Mof_C 	C 	0.0271	0.1374	0.288	-0.183
Mof_C 	C 	0.9394	0.1612	0.2588	0.05
Mof_H 	H 	0.8914	0.1323	0.2676	0.014
Mof_C 	C 	0.9226	0.226	0.2175	-0.075
Mof_H 	H 	0.863	0.2417	0.1979	0.055
Mof_C 	C 	0.9919	0.2684	0.2044	-0.027
Mof_C 	C 	0.08	0.2462	0.2351	-0.136
Mof_H 	H 	0.1274	0.2767	0.2277	0.108
Mof_C 	C 	0.0986	0.1813	0.2755	0.176
Mof_C 	C 	0.266	0.1921	0.3038	0.265
Mof_C 	C 	0.3472	0.151	0.339	-0.188
Mof_H 	H 	0.3433	0.1348	0.392	0.086
Mof_H 	H 	0.3493	0.106	0.3074	0.093
Mof_C 	C 	0.4333	0.1929	0.3456	-0.222
Mof_H 	H 	0.4829	0.1631	0.3745	0.069
Mof_H 	H 	0.4421	0.2034	0.2932	0.109
Mof_H 	H 	0.4305	0.2394	0.3735	0.099
Mof_C 	C 	0.976	0.3398	0.1594	0.373
Mof_C 	C 	0.3087	0.004	0.4764	0.247
Mof_C 	C 	0.4076	0.0044	0.4808	0.011
Mof_C 	C 	0.4513	0.9433	0.4596	-0.969
Mof_C 	C 	0.5432	0.9442	0.4699	-0.04
Mof_H 	H 	0.573	0.9024	0.4554	-0.186
Mof_C 	C 	0.5914	0.0062	0.5012	0.102
Mof_C 	C 	0.5478	0.0673	0.5224	0.128
Mof_H 	H 	0.5807	0.1097	0.5438	1.881
Mof_C 	C 	0.4559	0.0664	0.5121	0.276
Mof_H 	H 	0.426	0.1082	0.5265	0.173
Mof_C 	C 	0.4324	0.8043	0.4055	0.906
Mof_C 	C 	0.3545	0.7525	0.3746	-0.733
Mof_H 	H 	0.3057	0.78	0.3398	0.246
Mof_H 	H 	0.3319	0.7324	0.4188	0.221
Mof_C 	C 	0.3831	0.6934	0.3323	0.31
Mof_H 	H 	0.3335	0.6593	0.3139	-0.073
Mof_H 	H 	0.4031	0.7134	0.2873	-0.057
Mof_H 	H 	0.4322	0.667	0.3667	-0.055
Mof_N 	N 	0.189	0.16	0.307	-0.259
Mof_H 	H 	0.1949	0.1182	0.3331	0.158
Mof_N 	N 	0.4048	0.8722	0.4318	-2.138
Mof_H 	H 	0.3479	0.8729	0.432	0.525
Mof_O 	O 	0.97282	0.03822	0.35032	-0.504
Mof_O 	O 	0.11645	0.03673	0.34759	-0.49
Mof_O 	O 	0.271	0.253	0.2736	-0.242
Mof_O 	O 	0.04063	0.37053	0.14158	-0.5
Mof_O 	O 	0.89671	0.36247	0.14304	-0.49
Mof_O 	O 	0.27292	0.06211	0.4879	-0.316
Mof_O 	O 	0.26672	0.94367	0.4533	-0.504
Mof_O 	O 	0.5033	0.7934	0.3991	-0.47
Mof_O 	O 	0.0697	0.955	0.49704	-0.971
Mof_Zn	Zn	0.93913	0.95962	0.42676	1.187
Mof_Zn	Zn	0.13889	0.95271	0.41844	1.226
Mof_H 	H 	0.078	0.915	0.517	0.332
Mof_C 	C 	0.9618	0.5654	0.1686	0.406
Mof_C 	C 	0.9729	0.6374	0.212	-0.175
Mof_C 	C 	0.0606	0.6612	0.2412	0.039
Mof_H 	H 	0.1086	0.6323	0.2324	0.017
Mof_C 	C 	0.0774	0.726	0.2825	-0.068
Mof_H 	H 	0.137	0.7417	0.3021	0.052
Mof_C 	C 	0.0081	0.7684	0.2956	-0.035
Mof_C 	C 	0.92	0.7462	0.2649	-0.126
Mof_H 	H 	0.8726	0.7767	0.2723	0.106
Mof_C 	C 	0.9014	0.6813	0.2245	0.172
Mof_C 	C 	0.734	0.6921	0.1962	0.265
Mof_C 	C 	0.6528	0.651	0.161	-0.188
Mof_H 	H 	0.6567	0.6348	0.108	0.087
Mof_H 	H 	0.6507	0.606	0.1926	0.093
Mof_C 	C 	0.5667	0.6929	0.1544	-0.222
Mof_H 	H 	0.5171	0.6631	0.1255	0.068
Mof_H 	H 	0.5579	0.7034	0.2068	0.109
Mof_H 	H 	0.5695	0.7394	0.1265	0.099
Mof_C 	C 	0.024	0.8398	0.3406	0.372
Mof_C 	C 	0.6913	0.504	0.0236	0.249
Mof_C 	C 	0.5924	0.5044	0.0192	0.009
Mof_C 	C 	0.5487	0.4433	0.0404	-0.969
Mof_C 	C 	0.4568	0.4442	0.0301	-0.04
Mof_H 	H 	0.427	0.4024	0.0446	-0.186
Mof_C 	C 	0.4086	0.5062	0.9988	0.104
Mof_C 	C 	0.4522	0.5673	0.9776	0.128
Mof_H 	H 	0.4193	0.6097	0.9562	1.882
Mof_C 	C 	0.5441	0.5664	0.9879	0.276
Mof_H 	H 	0.574	0.6082	0.9735	0.172
Mof_C 	C 	0.5676	0.3043	0.0945	0.906
Mof_C 	C 	0.6455	0.2525	0.1254	-0.733
Mof_H 	H 	0.6943	0.28	0.1602	0.246
Mof_H 	H 	0.6681	0.2324	0.0812	0.221
Mof_C 	C 	0.6169	0.1934	0.1677	0.31
Mof_H 	H 	0.6665	0.1593	0.1861	-0.072
Mof_H 	H 	0.5969	0.2134	0.2127	-0.057
Mof_H 	H 	0.5678	0.167	0.1333	-0.054
Mof_N 	N 	0.811	0.66	0.193	-0.258
Mof_H 	H 	0.8051	0.6182	0.1669	0.158
Mof_N 	N 	0.5952	0.3722	0.0682	-2.138
Mof_H 	H 	0.6521	0.3729	0.068	0.525
Mof_O 	O 	0.02718	0.53822	0.14968	-0.512
Mof_O 	O 	0.88355	0.53673	0.15241	-0.49
Mof_O 	O 	0.729	0.753	0.2264	-0.242
Mof_O 	O 	0.95937	0.87053	0.35842	-0.498
Mof_O 	O 	0.10329	0.86247	0.35696	-0.491
Mof_O 	O 	0.72708	0.56211	0.0121	-0.315
Mof_O 	O 	0.73328	0.44367	0.0467	-0.504
Mof_O 	O 	0.4967	0.2934	0.1009	-0.47
Mof_O 	O 	0.9303	0.455	0.00296	-0.965
Mof_Zn	Zn	0.06087	0.45962	0.07324	1.187
Mof_Zn	Zn	0.86111	0.45271	0.08156	1.226
Mof_H 	H 	0.922	0.415	0.983	0.326
_end
