# CIF file generated by openbabel 3.1.0, see https://openbabel.org
data_I
_chemical_name_common 'image0'
_cell_length_a 24.408
_cell_length_b 27.827
_cell_length_c 5.1509
_cell_angle_alpha 90
_cell_angle_beta 90
_cell_angle_gamma 90
_space_group_name_H-M_alt 'P 1'
_space_group_name_Hall 'P 1'
loop_
    _symmetry_equiv_pos_as_xyz
    x,y,z
loop_
    _atom_site_label
    _atom_site_type_symbol
    _atom_site_fract_x
    _atom_site_fract_y
    _atom_site_fract_z
    _atom_site_occupancy
    Zn1      Zn       0.46491    0.45070    0.28711    1.000
    P1       P        0.58125    0.50163    0.22400    1.000
    P2       P        0.41671    0.35413    0.07680    1.000
    O1       O        0.57957    0.50970    0.93600    1.000
    O2       O        0.54170    0.46270    0.31870    1.000
    O3       O        0.56970    0.54847    0.37220    1.000
    O4       O        0.46338    0.38250    0.19910    1.000
    O5       O        0.41590    0.36300    0.77570    1.000
    H1       H        0.41360    0.39260    0.74620    1.000
    O6       O        0.42110    0.30120    0.10510    1.000
    C1       C        0.64790    0.48020    0.31420    1.000
    H2       H        0.64900    0.47750    0.50580    1.000
    H3       H        0.65230    0.44740    0.24290    1.000
    C2       C        0.30180    0.35390    0.07120    1.000
    H4       H        0.30170    0.36140    0.88320    1.000
    H5       H        0.30310    0.31860    0.09080    1.000
    C3       C        0.35240    0.37590    0.19570    1.000
    H6       H        0.35080    0.36990    0.38500    1.000
    H7       H        0.35120    0.41110    0.16940    1.000
    C4       C        0.69680    0.50980    0.22940    1.000
    H8       H        0.69710    0.51220    0.03760    1.000
    H9       H        0.69340    0.54280    0.30030    1.000
    Zn2      Zn       0.03509    0.04930    0.28711    1.000
    P3       P        0.91875    0.99837    0.22400    1.000
    P4       P        0.08329    0.14587    0.07680    1.000
    O7       O        0.92043    0.99030    0.93600    1.000
    O8       O        0.95830    0.03730    0.31870    1.000
    O9       O        0.93030    0.95153    0.37220    1.000
    O10      O        0.03662    0.11750    0.19910    1.000
    O11      O        0.08410    0.13700    0.77570    1.000
    H10      H        0.08640    0.10740    0.74620    1.000
    O12      O        0.07890    0.19880    0.10510    1.000
    C5       C        0.85210    0.01980    0.31420    1.000
    H11      H        0.85100    0.02250    0.50580    1.000
    H12      H        0.84770    0.05260    0.24290    1.000
    C6       C        0.19820    0.14610    0.07120    1.000
    H13      H        0.19830    0.13860    0.88320    1.000
    H14      H        0.19690    0.18140    0.09080    1.000
    C7       C        0.14760    0.12410    0.19570    1.000
    H15      H        0.14920    0.13010    0.38500    1.000
    H16      H        0.14880    0.08890    0.16940    1.000
    C8       C        0.80320    0.99020    0.22940    1.000
    H17      H        0.80290    0.98780    0.03760    1.000
    H18      H        0.80660    0.95720    0.30030    1.000
    Zn3      Zn       0.53509    0.95070    0.71289    1.000
    P5       P        0.41875    0.00163    0.77600    1.000
    P6       P        0.58329    0.85413    0.92320    1.000
    O13      O        0.42043    0.00970    0.06400    1.000
    O14      O        0.45830    0.96270    0.68130    1.000
    O15      O        0.43030    0.04847    0.62780    1.000
    O16      O        0.53662    0.88250    0.80090    1.000
    O17      O        0.58410    0.86300    0.22430    1.000
    H19      H        0.58640    0.89260    0.25380    1.000
    O18      O        0.57890    0.80120    0.89490    1.000
    C9       C        0.35210    0.98020    0.68580    1.000
    H20      H        0.35100    0.97750    0.49420    1.000
    H21      H        0.34770    0.94740    0.75710    1.000
    C10      C        0.69820    0.85390    0.92880    1.000
    H22      H        0.69830    0.86140    0.11680    1.000
    H23      H        0.69690    0.81860    0.90920    1.000
    C11      C        0.64760    0.87590    0.80430    1.000
    H24      H        0.64920    0.86990    0.61500    1.000
    H25      H        0.64880    0.91110    0.83060    1.000
    C12      C        0.30320    0.00980    0.77060    1.000
    H26      H        0.30290    0.01220    0.96240    1.000
    H27      H        0.30660    0.04280    0.69970    1.000
    Zn4      Zn       0.96491    0.54930    0.71289    1.000
    P7       P        0.08125    0.49837    0.77600    1.000
    P8       P        0.91671    0.64587    0.92320    1.000
    O19      O        0.07957    0.49030    0.06400    1.000
    O20      O        0.04170    0.53730    0.68130    1.000
    O21      O        0.06970    0.45153    0.62780    1.000
    O22      O        0.96338    0.61750    0.80090    1.000
    O23      O        0.91590    0.63700    0.22430    1.000
    H28      H        0.91360    0.60740    0.25380    1.000
    O24      O        0.92110    0.69880    0.89490    1.000
    C13      C        0.14790    0.51980    0.68580    1.000
    H29      H        0.14900    0.52250    0.49420    1.000
    H30      H        0.15230    0.55260    0.75710    1.000
    C14      C        0.80180    0.64610    0.92880    1.000
    H31      H        0.80170    0.63860    0.11680    1.000
    H32      H        0.80310    0.68140    0.90920    1.000
    C15      C        0.85240    0.62410    0.80430    1.000
    H33      H        0.85080    0.63010    0.61500    1.000
    H34      H        0.85120    0.58890    0.83060    1.000
    C16      C        0.19680    0.49020    0.77060    1.000
    H35      H        0.19710    0.48780    0.96240    1.000
    H36      H        0.19340    0.45720    0.69970    1.000
    Zn5      Zn       0.53509    0.54930    0.71289    1.000
    P9       P        0.41875    0.49837    0.77600    1.000
    P10      P        0.58329    0.64587    0.92320    1.000
    O25      O        0.42043    0.49030    0.06400    1.000
    O26      O        0.45830    0.53730    0.68130    1.000
    O27      O        0.43030    0.45153    0.62780    1.000
    O28      O        0.53662    0.61750    0.80090    1.000
    O29      O        0.58410    0.63700    0.22430    1.000
    H37      H        0.58640    0.60740    0.25380    1.000
    O30      O        0.57890    0.69880    0.89490    1.000
    C17      C        0.35210    0.51980    0.68580    1.000
    H38      H        0.35100    0.52250    0.49420    1.000
    H39      H        0.34770    0.55260    0.75710    1.000
    C18      C        0.69820    0.64610    0.92880    1.000
    H40      H        0.69830    0.63860    0.11680    1.000
    H41      H        0.69690    0.68140    0.90920    1.000
    C19      C        0.64760    0.62410    0.80430    1.000
    H42      H        0.64920    0.63010    0.61500    1.000
    H43      H        0.64880    0.58890    0.83060    1.000
    C20      C        0.30320    0.49020    0.77060    1.000
    H44      H        0.30290    0.48780    0.96240    1.000
    H45      H        0.30660    0.45720    0.69970    1.000
    Zn6      Zn       0.96491    0.95070    0.71289    1.000
    P11      P        0.08125    0.00163    0.77600    1.000
    P12      P        0.91671    0.85413    0.92320    1.000
    O31      O        0.07957    0.00970    0.06400    1.000
    O32      O        0.04170    0.96270    0.68130    1.000
    O33      O        0.06970    0.04847    0.62780    1.000
    O34      O        0.96338    0.88250    0.80090    1.000
    O35      O        0.91590    0.86300    0.22430    1.000
    H46      H        0.91360    0.89260    0.25380    1.000
    O36      O        0.92110    0.80120    0.89490    1.000
    C21      C        0.14790    0.98020    0.68580    1.000
    H47      H        0.14900    0.97750    0.49420    1.000
    H48      H        0.15230    0.94740    0.75710    1.000
    C22      C        0.80180    0.85390    0.92880    1.000
    H49      H        0.80170    0.86140    0.11680    1.000
    H50      H        0.80310    0.81860    0.90920    1.000
    C23      C        0.85240    0.87590    0.80430    1.000
    H51      H        0.85080    0.86990    0.61500    1.000
    H52      H        0.85120    0.91110    0.83060    1.000
    C24      C        0.19680    0.00980    0.77060    1.000
    H53      H        0.19710    0.01220    0.96240    1.000
    H54      H        0.19340    0.04280    0.69970    1.000
    Zn7      Zn       0.46491    0.04930    0.28711    1.000
    P13      P        0.58125    0.99837    0.22400    1.000
    P14      P        0.41671    0.14587    0.07680    1.000
    O37      O        0.57957    0.99030    0.93600    1.000
    O38      O        0.54170    0.03730    0.31870    1.000
    O39      O        0.56970    0.95153    0.37220    1.000
    O40      O        0.46338    0.11750    0.19910    1.000
    O41      O        0.41590    0.13700    0.77570    1.000
    H55      H        0.41360    0.10740    0.74620    1.000
    O42      O        0.42110    0.19880    0.10510    1.000
    C25      C        0.64790    0.01980    0.31420    1.000
    H56      H        0.64900    0.02250    0.50580    1.000
    H57      H        0.65230    0.05260    0.24290    1.000
    C26      C        0.30180    0.14610    0.07120    1.000
    H58      H        0.30170    0.13860    0.88320    1.000
    H59      H        0.30310    0.18140    0.09080    1.000
    C27      C        0.35240    0.12410    0.19570    1.000
    H60      H        0.35080    0.13010    0.38500    1.000
    H61      H        0.35120    0.08890    0.16940    1.000
    C28      C        0.69680    0.99020    0.22940    1.000
    H62      H        0.69710    0.98780    0.03760    1.000
    H63      H        0.69340    0.95720    0.30030    1.000
    Zn8      Zn       0.03509    0.45070    0.28711    1.000
    P15      P        0.91875    0.50163    0.22400    1.000
    P16      P        0.08329    0.35413    0.07680    1.000
    O43      O        0.92043    0.50970    0.93600    1.000
    O44      O        0.95830    0.46270    0.31870    1.000
    O45      O        0.93030    0.54847    0.37220    1.000
    O46      O        0.03662    0.38250    0.19910    1.000
    O47      O        0.08410    0.36300    0.77570    1.000
    H64      H        0.08640    0.39260    0.74620    1.000
    O48      O        0.07890    0.30120    0.10510    1.000
    C29      C        0.85210    0.48020    0.31420    1.000
    H65      H        0.85100    0.47750    0.50580    1.000
    H66      H        0.84770    0.44740    0.24290    1.000
    C30      C        0.19820    0.35390    0.07120    1.000
    H67      H        0.19830    0.36140    0.88320    1.000
    H68      H        0.19690    0.31860    0.09080    1.000
    C31      C        0.14760    0.37590    0.19570    1.000
    H69      H        0.14920    0.36990    0.38500    1.000
    H70      H        0.14880    0.41110    0.16940    1.000
    C32      C        0.80320    0.50980    0.22940    1.000
    H71      H        0.80290    0.51220    0.03760    1.000
    H72      H        0.80660    0.54280    0.30030    1.000
    Zn9      Zn       0.46138    0.25000    0.30610    1.000
    Zn10     Zn       0.03862    0.25000    0.30610    1.000
    Zn11     Zn       0.53862    0.75000    0.69390    1.000
    Zn12     Zn       0.96138    0.75000    0.69390    1.000
    C33      C        0.75000    0.48790    0.32100    1.000
    H73      H        0.75000    0.45370    0.26870    1.000
    H74      H        0.75000    0.48870    0.51320    1.000
    C34      C        0.75000    0.01210    0.32100    1.000
    H75      H        0.75000    0.04630    0.26870    1.000
    H76      H        0.75000    0.01130    0.51320    1.000
    C35      C        0.25000    0.98790    0.67900    1.000
    H77      H        0.25000    0.95370    0.73130    1.000
    H78      H        0.25000    0.98870    0.48680    1.000
    C36      C        0.25000    0.51210    0.67900    1.000
    H79      H        0.25000    0.54630    0.73130    1.000
    H80      H        0.25000    0.51130    0.48680    1.000
    C37      C        0.25000    0.37260    0.19100    1.000
    H81      H        0.25000    0.40810    0.17860    1.000
    H82      H        0.25000    0.36410    0.37780    1.000
    C38      C        0.25000    0.12740    0.19100    1.000
    H83      H        0.25000    0.09190    0.17860    1.000
    H84      H        0.25000    0.13590    0.37780    1.000
    C39      C        0.75000    0.87260    0.80900    1.000
    H85      H        0.75000    0.90810    0.82140    1.000
    H86      H        0.75000    0.86410    0.62220    1.000
    C40      C        0.75000    0.62740    0.80900    1.000
    H87      H        0.75000    0.59190    0.82140    1.000
    H88      H        0.75000    0.63590    0.62220    1.000
