# CIF file generated by openbabel 3.1.0, see https://openbabel.org
data_I
_chemical_name_common 'GAZZIS03_charged'
_cell_length_a 17.3391
_cell_length_b 17.3391
_cell_length_c 26.562
_cell_angle_alpha 93.8464
_cell_angle_beta 93.8464
_cell_angle_gamma 110.679
_space_group_name_H-M_alt 'P 1'
_space_group_name_Hall 'P 1'
loop_
    _symmetry_equiv_pos_as_xyz
    x,y,z
loop_
    _atom_site_label
    _atom_site_type_symbol
    _atom_site_fract_x
    _atom_site_fract_y
    _atom_site_fract_z
    _atom_site_occupancy
    In1      In       0.37054    0.85778    0.88482    1.000
    In2      In       0.85778    0.37054    0.38482    1.000
    H1       H        0.21220    0.76420    0.02360    1.000
    H2       H        0.09560    0.68480    0.06000    1.000
    H3       H        0.96900    0.62300    0.92180    1.000
    H4       H        0.08460    0.70520    0.88620    1.000
    H5       H        0.80230    0.34450    0.21120    1.000
    H6       H        0.79750    0.37610    0.12830    1.000
    H7       H        0.98670    0.59310    0.16700    1.000
    H8       H        0.99090    0.56210    0.24970    1.000
    H9       H        0.38920    0.13980    0.86940    1.000
    H10      H        0.46090    0.28190    0.88320    1.000
    H11      H        0.60050    0.24510    0.00030    1.000
    H12      H        0.53240    0.10420    0.98510    1.000
    H13      H        0.60030    0.76370    0.90340    1.000
    H14      H        0.66480    0.66780    0.92080    1.000
    H15      H        0.44060    0.49560    0.93560    1.000
    H16      H        0.37870    0.58770    0.91260    1.000
    H17      H        0.76010    0.44790    0.07150    1.000
    H18      H        0.86010    0.58530    0.95880    1.000
    H19      H        0.00610    0.57930    0.08260    1.000
    H20      H        0.71030    0.59670    0.97170    1.000
    H21      H        0.69100    0.36040    0.98630    1.000
    H22      H        0.49750    0.40790    0.92140    1.000
    H23      H        0.76420    0.21220    0.52360    1.000
    H24      H        0.68480    0.09560    0.56000    1.000
    H25      H        0.62300    0.96900    0.42180    1.000
    H26      H        0.70520    0.08460    0.38620    1.000
    H27      H        0.34450    0.80230    0.71120    1.000
    H28      H        0.37610    0.79750    0.62830    1.000
    H29      H        0.59310    0.98670    0.66700    1.000
    H30      H        0.56210    0.99090    0.74970    1.000
    H31      H        0.13980    0.38920    0.36940    1.000
    H32      H        0.28190    0.46090    0.38320    1.000
    H33      H        0.24510    0.60050    0.50030    1.000
    H34      H        0.10420    0.53240    0.48510    1.000
    H35      H        0.76370    0.60030    0.40340    1.000
    H36      H        0.66780    0.66480    0.42080    1.000
    H37      H        0.49560    0.44060    0.43560    1.000
    H38      H        0.58770    0.37870    0.41260    1.000
    H39      H        0.44790    0.76010    0.57150    1.000
    H40      H        0.58530    0.86010    0.45880    1.000
    H41      H        0.57930    0.00610    0.58260    1.000
    H42      H        0.59670    0.71030    0.47170    1.000
    H43      H        0.36040    0.69100    0.48630    1.000
    H44      H        0.40790    0.49750    0.42140    1.000
    C1       C        0.16039    0.74349    0.95197    1.000
    C2       C        0.16211    0.73591    0.00258    1.000
    C3       C        0.09290    0.68802    0.02440    1.000
    C4       C        0.01948    0.64470    0.99420    1.000
    C5       C        0.01854    0.65222    0.94311    1.000
    C6       C        0.08727    0.70089    0.92165    1.000
    C7       C        0.89652    0.45060    0.23920    1.000
    C8       C        0.83967    0.39553    0.20231    1.000
    C9       C        0.83705    0.41445    0.15304    1.000
    C10      C        0.89101    0.48841    0.13844    1.000
    C11      C        0.94854    0.54250    0.17581    1.000
    C12      C        0.95111    0.52403    0.22492    1.000
    C13      C        0.45584    0.10764    0.92448    1.000
    C14      C        0.43375    0.16123    0.89542    1.000
    C15      C        0.47599    0.24595    0.90399    1.000
    C16      C        0.53976    0.27888    0.94238    1.000
    C17      C        0.55850    0.22374    0.97283    1.000
    C18      C        0.51797    0.14019    0.96405    1.000
    C19      C        0.48087    0.68511    0.90849    1.000
    C20      C        0.55684    0.57204    0.93149    1.000
    C21      C        0.56780    0.70900    0.90990    1.000
    C22      C        0.60650    0.65250    0.92070    1.000
    C23      C        0.47400    0.54980    0.92880    1.000
    C24      C        0.43750    0.60590    0.91610    1.000
    C25      C        0.88432    0.51110    0.08593    1.000
    C26      C        0.80707    0.48465    0.05792    1.000
    C27      C        0.79801    0.51115    0.01065    1.000
    C28      C        0.86681    0.56527    0.99058    1.000
    C29      C        0.94521    0.59009    0.01691    1.000
    C30      C        0.95283    0.56261    0.06436    1.000
    C31      C        0.59721    0.51227    0.94522    1.000
    C32      C        0.67824    0.53910    0.96729    1.000
    C33      C        0.71306    0.48284    0.98300    1.000
    C34      C        0.66720    0.39872    0.97529    1.000
    C35      C        0.58701    0.36957    0.95172    1.000
    C36      C        0.55259    0.42699    0.93717    1.000
    C37      C        0.23609    0.79171    0.92867    1.000
    C38      C        0.89689    0.43371    0.29389    1.000
    C39      C        0.41641    0.01641    0.91249    1.000
    C40      C        0.43907    0.74525    0.89827    1.000
    C41      C        0.74349    0.16039    0.45197    1.000
    C42      C        0.73591    0.16211    0.50258    1.000
    C43      C        0.68802    0.09290    0.52440    1.000
    C44      C        0.64470    0.01948    0.49420    1.000
    C45      C        0.65222    0.01854    0.44311    1.000
    C46      C        0.70089    0.08727    0.42165    1.000
    C47      C        0.45060    0.89652    0.73920    1.000
    C48      C        0.39553    0.83967    0.70231    1.000
    C49      C        0.41445    0.83705    0.65304    1.000
    C50      C        0.48841    0.89101    0.63844    1.000
    C51      C        0.54250    0.94854    0.67581    1.000
    C52      C        0.52403    0.95111    0.72492    1.000
    C53      C        0.10764    0.45584    0.42448    1.000
    C54      C        0.16123    0.43375    0.39542    1.000
    C55      C        0.24595    0.47599    0.40399    1.000
    C56      C        0.27888    0.53976    0.44238    1.000
    C57      C        0.22374    0.55850    0.47283    1.000
    C58      C        0.14019    0.51797    0.46405    1.000
    C59      C        0.68511    0.48087    0.40849    1.000
    C60      C        0.57204    0.55684    0.43149    1.000
    C61      C        0.70900    0.56780    0.40990    1.000
    C62      C        0.65250    0.60650    0.42070    1.000
    C63      C        0.54980    0.47400    0.42880    1.000
    C64      C        0.60590    0.43750    0.41610    1.000
    C65      C        0.51110    0.88432    0.58593    1.000
    C66      C        0.48465    0.80707    0.55792    1.000
    C67      C        0.51115    0.79801    0.51065    1.000
    C68      C        0.56527    0.86681    0.49058    1.000
    C69      C        0.59009    0.94521    0.51691    1.000
    C70      C        0.56261    0.95283    0.56436    1.000
    C71      C        0.51227    0.59721    0.44522    1.000
    C72      C        0.53910    0.67824    0.46729    1.000
    C73      C        0.48284    0.71306    0.48300    1.000
    C74      C        0.39872    0.66720    0.47529    1.000
    C75      C        0.36957    0.58701    0.45172    1.000
    C76      C        0.42699    0.55259    0.43717    1.000
    C77      C        0.79171    0.23609    0.42867    1.000
    C78      C        0.43371    0.89689    0.79389    1.000
    C79      C        0.01641    0.41641    0.41249    1.000
    C80      C        0.74525    0.43907    0.39827    1.000
    O1       O        0.23302    0.79766    0.88132    1.000
    O2       O        0.30398    0.82548    0.95559    1.000
    O3       O        0.84419    0.36673    0.30492    1.000
    O4       O        0.94714    0.48536    0.32675    1.000
    O5       O        0.35261    0.98397    0.88208    1.000
    O6       O        0.45188    0.97124    0.93216    1.000
    O7       O        0.48029    0.82183    0.90397    1.000
    O8       O        0.36331    0.72037    0.88494    1.000
    O9       O        0.79766    0.23302    0.38132    1.000
    O10      O        0.82548    0.30398    0.45559    1.000
    O11      O        0.36673    0.84419    0.80492    1.000
    O12      O        0.48536    0.94714    0.82675    1.000
    O13      O        0.98397    0.35261    0.38208    1.000
    O14      O        0.97124    0.45188    0.43216    1.000
    O15      O        0.82183    0.48029    0.40397    1.000
    O16      O        0.72037    0.36331    0.38494    1.000
    In3      In       0.14222    0.62946    0.61518    1.000
    In4      In       0.62946    0.14222    0.11518    1.000
    H45      H        0.23580    0.78780    0.47640    1.000
    H46      H        0.31520    0.90440    0.44000    1.000
    H47      H        0.37700    0.03100    0.57820    1.000
    H48      H        0.29480    0.91540    0.61380    1.000
    H49      H        0.65550    0.19770    0.28880    1.000
    H50      H        0.62390    0.20250    0.37170    1.000
    H51      H        0.40690    0.01330    0.33300    1.000
    H52      H        0.43790    0.00910    0.25030    1.000
    H53      H        0.86020    0.61080    0.63060    1.000
    H54      H        0.71810    0.53910    0.61680    1.000
    H55      H        0.75490    0.39950    0.49970    1.000
    H56      H        0.89580    0.46760    0.51490    1.000
    H57      H        0.23630    0.39970    0.59660    1.000
    H58      H        0.33220    0.33520    0.57920    1.000
    H59      H        0.50440    0.55940    0.56440    1.000
    H60      H        0.41230    0.62130    0.58740    1.000
    H61      H        0.55210    0.23990    0.42850    1.000
    H62      H        0.41470    0.13990    0.54120    1.000
    H63      H        0.42070    0.99390    0.41740    1.000
    H64      H        0.40330    0.28970    0.52830    1.000
    H65      H        0.63960    0.30900    0.51370    1.000
    H66      H        0.59210    0.50250    0.57860    1.000
    H67      H        0.78780    0.23580    0.97640    1.000
    H68      H        0.90440    0.31520    0.94000    1.000
    H69      H        0.03100    0.37700    0.07820    1.000
    H70      H        0.91540    0.29480    0.11380    1.000
    H71      H        0.19770    0.65550    0.78880    1.000
    H72      H        0.20250    0.62390    0.87170    1.000
    H73      H        0.01330    0.40690    0.83300    1.000
    H74      H        0.00910    0.43790    0.75030    1.000
    H75      H        0.61080    0.86020    0.13060    1.000
    H76      H        0.53910    0.71810    0.11680    1.000
    H77      H        0.39950    0.75490    0.99970    1.000
    H78      H        0.46760    0.89580    0.01490    1.000
    H79      H        0.39970    0.23630    0.09660    1.000
    H80      H        0.33520    0.33220    0.07920    1.000
    H81      H        0.55940    0.50440    0.06440    1.000
    H82      H        0.62130    0.41230    0.08740    1.000
    H83      H        0.23990    0.55210    0.92850    1.000
    H84      H        0.13990    0.41470    0.04120    1.000
    H85      H        0.99390    0.42070    0.91740    1.000
    H86      H        0.28970    0.40330    0.02830    1.000
    H87      H        0.30900    0.63960    0.01370    1.000
    H88      H        0.50250    0.59210    0.07860    1.000
    C81      C        0.25651    0.83961    0.54803    1.000
    C82      C        0.26409    0.83789    0.49742    1.000
    C83      C        0.31198    0.90710    0.47560    1.000
    C84      C        0.35530    0.98052    0.50580    1.000
    C85      C        0.34778    0.98146    0.55689    1.000
    C86      C        0.29911    0.91273    0.57835    1.000
    C87      C        0.54940    0.10348    0.26080    1.000
    C88      C        0.60447    0.16033    0.29769    1.000
    C89      C        0.58555    0.16295    0.34696    1.000
    C90      C        0.51159    0.10899    0.36156    1.000
    C91      C        0.45750    0.05146    0.32419    1.000
    C92      C        0.47597    0.04889    0.27508    1.000
    C93      C        0.89236    0.54416    0.57552    1.000
    C94      C        0.83877    0.56625    0.60458    1.000
    C95      C        0.75405    0.52401    0.59601    1.000
    C96      C        0.72112    0.46024    0.55762    1.000
    C97      C        0.77626    0.44150    0.52717    1.000
    C98      C        0.85981    0.48203    0.53595    1.000
    C99      C        0.31489    0.51913    0.59151    1.000
    C100     C        0.42796    0.44316    0.56851    1.000
    C101     C        0.29100    0.43220    0.59010    1.000
    C102     C        0.34750    0.39350    0.57930    1.000
    C103     C        0.45020    0.52600    0.57120    1.000
    C104     C        0.39410    0.56250    0.58390    1.000
    C105     C        0.48890    0.11568    0.41407    1.000
    C106     C        0.51535    0.19293    0.44208    1.000
    C107     C        0.48885    0.20199    0.48935    1.000
    C108     C        0.43473    0.13319    0.50942    1.000
    C109     C        0.40991    0.05479    0.48309    1.000
    C110     C        0.43739    0.04717    0.43564    1.000
    C111     C        0.48773    0.40279    0.55478    1.000
    C112     C        0.46090    0.32176    0.53271    1.000
    C113     C        0.51716    0.28694    0.51700    1.000
    C114     C        0.60128    0.33280    0.52471    1.000
    C115     C        0.63043    0.41299    0.54828    1.000
    C116     C        0.57301    0.44741    0.56283    1.000
    C117     C        0.20829    0.76391    0.57133    1.000
    C118     C        0.56629    0.10311    0.20611    1.000
    C119     C        0.98359    0.58359    0.58751    1.000
    C120     C        0.25475    0.56093    0.60173    1.000
    C121     C        0.83961    0.25651    0.04803    1.000
    C122     C        0.83789    0.26409    0.99742    1.000
    C123     C        0.90710    0.31198    0.97560    1.000
    C124     C        0.98052    0.35530    0.00580    1.000
    C125     C        0.98146    0.34778    0.05689    1.000
    C126     C        0.91273    0.29911    0.07835    1.000
    C127     C        0.10348    0.54940    0.76080    1.000
    C128     C        0.16033    0.60447    0.79769    1.000
    C129     C        0.16295    0.58555    0.84696    1.000
    C130     C        0.10899    0.51159    0.86156    1.000
    C131     C        0.05146    0.45750    0.82419    1.000
    C132     C        0.04889    0.47597    0.77508    1.000
    C133     C        0.54416    0.89236    0.07552    1.000
    C134     C        0.56625    0.83877    0.10458    1.000
    C135     C        0.52401    0.75405    0.09601    1.000
    C136     C        0.46024    0.72112    0.05762    1.000
    C137     C        0.44150    0.77626    0.02717    1.000
    C138     C        0.48203    0.85981    0.03595    1.000
    C139     C        0.51913    0.31489    0.09151    1.000
    C140     C        0.44316    0.42796    0.06851    1.000
    C141     C        0.43220    0.29100    0.09010    1.000
    C142     C        0.39350    0.34750    0.07930    1.000
    C143     C        0.52600    0.45020    0.07120    1.000
    C144     C        0.56250    0.39410    0.08390    1.000
    C145     C        0.11568    0.48890    0.91407    1.000
    C146     C        0.19293    0.51535    0.94208    1.000
    C147     C        0.20199    0.48885    0.98935    1.000
    C148     C        0.13319    0.43473    0.00942    1.000
    C149     C        0.05479    0.40991    0.98309    1.000
    C150     C        0.04717    0.43739    0.93564    1.000
    C151     C        0.40279    0.48773    0.05478    1.000
    C152     C        0.32176    0.46090    0.03271    1.000
    C153     C        0.28694    0.51716    0.01700    1.000
    C154     C        0.33280    0.60128    0.02471    1.000
    C155     C        0.41299    0.63043    0.04828    1.000
    C156     C        0.44741    0.57301    0.06283    1.000
    C157     C        0.76391    0.20829    0.07133    1.000
    C158     C        0.10311    0.56629    0.70611    1.000
    C159     C        0.58359    0.98359    0.08751    1.000
    C160     C        0.56093    0.25475    0.10173    1.000
    O17      O        0.20234    0.76698    0.61868    1.000
    O18      O        0.17452    0.69602    0.54441    1.000
    O19      O        0.63327    0.15581    0.19508    1.000
    O20      O        0.51464    0.05286    0.17325    1.000
    O21      O        0.01603    0.64739    0.61792    1.000
    O22      O        0.02876    0.54812    0.56784    1.000
    O23      O        0.17817    0.51971    0.59603    1.000
    O24      O        0.27963    0.63669    0.61506    1.000
    O25      O        0.76698    0.20234    0.11868    1.000
    O26      O        0.69602    0.17452    0.04441    1.000
    O27      O        0.15581    0.63327    0.69508    1.000
    O28      O        0.05286    0.51464    0.67325    1.000
    O29      O        0.64739    0.01603    0.11792    1.000
    O30      O        0.54812    0.02876    0.06784    1.000
    O31      O        0.51971    0.17817    0.09603    1.000
    O32      O        0.63669    0.27963    0.11506    1.000
    H89      H        0.63510    0.95170    0.88580    1.000
    H90      H        0.56490    0.97210    0.90430    1.000
    H91      H        0.62730    0.92830    0.96840    1.000
    H92      H        0.71220    0.00180    0.96190    1.000
    H93      H        0.63600    0.02260    0.98180    1.000
    H94      H        0.63390    0.07310    0.85560    1.000
    H95      H        0.64480    0.11240    0.91310    1.000
    H96      H        0.71790    0.08890    0.89060    1.000
    C161     C        0.65181    0.98499    0.95901    1.000
    C162     C        0.65770    0.07290    0.89010    1.000
    N1       N        0.62171    0.98835    0.90690    1.000
    H97      H        0.04830    0.36490    0.61420    1.000
    H98      H        0.02790    0.43510    0.59570    1.000
    H99      H        0.07170    0.37270    0.53160    1.000
    H100     H        0.99820    0.28780    0.53810    1.000
    H101     H        0.97740    0.36400    0.51820    1.000
    H102     H        0.92690    0.36610    0.64440    1.000
    H103     H        0.88760    0.35520    0.58690    1.000
    H104     H        0.91110    0.28210    0.60940    1.000
    C163     C        0.01501    0.34819    0.54099    1.000
    C164     C        0.92710    0.34230    0.60990    1.000
    N2       N        0.01165    0.37829    0.59310    1.000
    H105     H        0.36490    0.04830    0.11420    1.000
    H106     H        0.43510    0.02790    0.09570    1.000
    H107     H        0.37270    0.07170    0.03160    1.000
    H108     H        0.28780    0.99820    0.03810    1.000
    H109     H        0.36400    0.97740    0.01820    1.000
    H110     H        0.36610    0.92690    0.14440    1.000
    H111     H        0.35520    0.88760    0.08690    1.000
    H112     H        0.28210    0.91110    0.10940    1.000
    C165     C        0.34819    0.01501    0.04099    1.000
    C166     C        0.34230    0.92710    0.10990    1.000
    N3       N        0.37829    0.01165    0.09310    1.000
    H113     H        0.95170    0.63510    0.38580    1.000
    H114     H        0.97210    0.56490    0.40430    1.000
    H115     H        0.92830    0.62730    0.46840    1.000
    H116     H        0.00180    0.71220    0.46190    1.000
    H117     H        0.02260    0.63600    0.48180    1.000
    H118     H        0.07310    0.63390    0.35560    1.000
    H119     H        0.11240    0.64480    0.41310    1.000
    H120     H        0.08890    0.71790    0.39060    1.000
    C167     C        0.98499    0.65181    0.45901    1.000
    C168     C        0.07290    0.65770    0.39010    1.000
    N4       N        0.98835    0.62171    0.40690    1.000
