data_functionalizedCrystal
_audit_creation_method	'EQeq! by Chris Wilmer'
_symmetry_space_group_name_H-M	'P1'
_symmetry_Int_Tables_number	1
_symmetry_cell_setting	triclinic
loop_
_symmetry_equiv_pos_as_xyz
  x,y,z
_cell_length_a	14.2624
_cell_length_b	23.826
_cell_length_c	30.75
_cell_angle_alpha	90
_cell_angle_beta	90
_cell_angle_gamma	90
loop_
_atom_site_label
_atom_site_type_symbol
_atom_site_fract_x
_atom_site_fract_y
_atom_site_fract_z
_atom_site_charge
Mof_O 	O 	0.2828	0.9096	0.9498	-0.38
Mof_Ag	Ag	0.29983	0.93476	0.01929	0.578
Mof_N 	N 	0.2432	0.8732	0.0718	-0.163
Mof_O 	O 	0.3461	0.0042	0.0681	-0.404
Mof_C 	C 	0.1929	0.8266	0.069	0.013
Mof_C 	C 	0.2688	0.8876	0.112	0.012
Mof_C 	C 	0.1651	0.796	0.1049	0.012
Mof_H 	H 	0.1751	0.8136	0.041	0.015
Mof_C 	C 	0.2428	0.8574	0.1483	0.003
Mof_H 	H 	0.3066	0.9201	0.1158	0.026
Mof_N 	N 	0.1896	0.8103	0.1444	-0.156
Mof_H 	H 	0.1271	0.7636	0.1007	0.028
Mof_H 	H 	0.2621	0.8696	0.1763	0.03
Mof_Ag	Ag	0.14891	0.76642	0.21114	0.559
Mof_O 	O 	0.2239	0.8265	0.2534	-0.401
Mof_O 	O 	0.0715	0.695	0.184	-0.383
Mof_C 	C 	0.2089	0.8301	0.2935	0.33
Mof_C 	C 	0.0284	0.6591	0.2057	0.344
Mof_O 	O 	0.1595	0.7975	0.3161	-0.367
Mof_C 	C 	0.2577	0.8792	0.3166	-0.124
Mof_O 	O 	0.019	0.6588	0.2462	-0.391
Mof_C 	C 	0.9855	0.613	0.1797	-0.141
Mof_Ag	Ag	0.08746	0.72217	0.28938	0.55
Mof_C 	C 	0.3153	0.9139	0.2937	0.03
Mof_C 	C 	0.2434	0.8865	0.3607	0.043
Mof_C 	C 	0.9275	0.5713	0.2	0.045
Mof_C 	C 	0.9949	0.6107	0.1349	0.067
Mof_N 	N 	0.0453	0.6833	0.3563	-0.154
Mof_H 	H 	0.3234	0.908	0.2634	0.026
Mof_C 	C 	0.3625	0.9579	0.3136	-0.1
Mof_C 	C 	0.2888	0.931	0.3823	-0.116
Mof_H 	H 	0.2034	0.8618	0.3762	0.034
Mof_C 	C 	0.8856	0.5307	0.1743	-0.122
Mof_H 	H 	0.918	0.5716	0.2305	0.023
Mof_C 	C 	0.9533	0.5692	0.1107	-0.139
Mof_H 	H 	0.0311	0.6386	0.1206	0.027
Mof_Ag	Ag	0.97775	0.55554	0.48556	0.576
Mof_C 	C 	0.9867	0.6399	0.3568	0.014
Mof_C 	C 	0.0831	0.6986	0.396	-0.003
Mof_C 	C 	0.3487	0.9658	0.3589	0.029
Mof_H 	H 	0.4028	0.9819	0.2975	0.064
Mof_C 	C 	0.2733	0.9415	0.4297	0.332
Mof_C 	C 	0.8958	0.5298	0.1306	0.056
Mof_H 	H 	0.8485	0.5025	0.1878	0.072
Mof_C 	C 	0.9694	0.566	0.0629	0.328
Mof_O 	O 	0.9912	0.5841	0.553	-0.37
Mof_C 	C 	0.9622	0.6121	0.395	0.003
Mof_H 	H 	0.9605	0.6274	0.3301	0.029
Mof_C 	C 	0.0608	0.6698	0.4329	0.018
Mof_H 	H 	0.1251	0.7295	0.3976	0.034
Mof_H 	H 	0.3808	0.9953	0.3735	0.029
Mof_O 	O 	0.3153	0.9839	0.4458	-0.389
Mof_H 	H 	0.864	0.5024	0.1137	0.008
Mof_O 	O 	0.0249	0.6023	0.0445	-0.351
Mof_O 	O 	0.929	0.5291	0.0399	-0.435
Mof_C 	C 	0.0392	0.5505	0.5769	0.346
Mof_N 	N 	0.0035	0.6257	0.4323	-0.159
Mof_H 	H 	0.916	0.5834	0.3944	0.034
Mof_H 	H 	0.0868	0.6816	0.4599	0.014
Mof_Ag	Ag	0.25162	0.04887	0.49337	0.557
Mof_Ag	Ag	0.00058	0.56029	0.97117	0.611
Mof_O 	O 	0.0762	0.5069	0.5625	-0.4
Mof_C 	C 	0.0472	0.5632	0.6248	-0.127
Mof_N 	N 	0.9832	0.6272	0.9199	-0.173
Mof_C 	C 	0.1002	0.5283	0.6515	0.044
Mof_C 	C 	0.0028	0.6084	0.6426	0.055
Mof_C 	C 	0.935	0.6742	0.9251	0.02
Mof_C 	C 	0.0076	0.6134	0.8798	0.016
Mof_C 	C 	0.1059	0.5374	0.6951	-0.113
Mof_H 	H 	0.133	0.4976	0.639	0.024
Mof_C 	C 	0.0079	0.6189	0.6871	-0.126
Mof_H 	H 	0.968	0.633	0.6244	0.033
Mof_C 	C 	0.908	0.7065	0.8897	0.003
Mof_H 	H 	0.9184	0.6859	0.9536	0.01
Mof_C 	C 	0.9842	0.6472	0.8446	0.016
Mof_H 	H 	0.0418	0.5797	0.8749	0.016
Mof_C 	C 	0.0594	0.5816	0.7139	0.038
Mof_H 	H 	0.1425	0.5129	0.7126	0.069
Mof_C 	C 	0.9577	0.6693	0.7061	0.335
Mof_N 	N 	0.9364	0.6932	0.8489	-0.155
Mof_H 	H 	0.8693	0.7384	0.8942	0.029
Mof_H 	H 	0.004	0.6363	0.8163	0.033
Mof_H 	H 	0.0616	0.587	0.7445	0.024
Mof_O 	O 	0.9664	0.6763	0.747	-0.398
Mof_O 	O 	0.9158	0.7002	0.6801	-0.376
Mof_Ag	Ag	0.88874	0.73891	0.7835	0.557
Mof_Ag	Ag	0.84176	0.77721	0.70043	0.53
Mof_O 	O 	0.8137	0.8114	0.8057	-0.383
Mof_O 	O 	0.7732	0.8442	0.7394	-0.379
Mof_N 	N 	0.7971	0.8161	0.6326	-0.151
Mof_C 	C 	0.7747	0.8462	0.78	0.319
Mof_C 	C 	0.8274	0.8007	0.5936	0.012
Mof_C 	C 	0.743	0.863	0.6345	0.002
Mof_C 	C 	0.7261	0.8962	0.8017	-0.108
Mof_C 	C 	0.8115	0.8308	0.5568	0.008
Mof_H 	H 	0.8621	0.7669	0.5913	0.028
Mof_C 	C 	0.7259	0.8921	0.597	0.016
Mof_H 	H 	0.7175	0.8754	0.6613	0.038
Mof_C 	C 	0.7355	0.9019	0.8462	0.036
Mof_C 	C 	0.6773	0.9333	0.7774	0.027
Mof_H 	H 	0.8382	0.819	0.53	0.017
Mof_N 	N 	0.7576	0.8775	0.5581	-0.159
Mof_H 	H 	0.6888	0.9251	0.599	0.027
Mof_C 	C 	0.6897	0.9472	0.8673	-0.112
Mof_H 	H 	0.7721	0.876	0.8624	0.037
Mof_C 	C 	0.6297	0.9779	0.7982	-0.099
Mof_H 	H 	0.675	0.9295	0.7467	0.03
Mof_C 	C 	0.6363	0.9839	0.8419	0.029
Mof_C 	C 	0.6993	0.956	0.9156	0.334
Mof_H 	H 	0.5933	0.0036	0.7817	0.063
Mof_O 	O 	0.7545	0.92	0.437	-0.364
Mof_H 	H 	0.6038	0.0138	0.8557	0.028
Mof_O 	O 	0.2172	0.5904	0.9498	-0.379
Mof_Ag	Ag	0.20017	0.56524	0.01929	0.579
Mof_N 	N 	0.2568	0.6268	0.0718	-0.162
Mof_O 	O 	0.1539	0.4958	0.0681	-0.403
Mof_C 	C 	0.3071	0.6734	0.069	0.014
Mof_C 	C 	0.2312	0.6124	0.112	0.013
Mof_C 	C 	0.3349	0.704	0.1049	0.013
Mof_H 	H 	0.3249	0.6864	0.041	0.016
Mof_C 	C 	0.2572	0.6426	0.1483	0.004
Mof_H 	H 	0.1934	0.5799	0.1158	0.027
Mof_N 	N 	0.3104	0.6897	0.1444	-0.155
Mof_H 	H 	0.3729	0.7364	0.1007	0.029
Mof_H 	H 	0.2379	0.6304	0.1763	0.031
Mof_Ag	Ag	0.35109	0.73358	0.21114	0.561
Mof_O 	O 	0.2761	0.6735	0.2534	-0.4
Mof_O 	O 	0.4285	0.805	0.184	-0.382
Mof_C 	C 	0.2911	0.6699	0.2935	0.331
Mof_C 	C 	0.4716	0.8409	0.2057	0.345
Mof_O 	O 	0.3405	0.7025	0.3161	-0.365
Mof_C 	C 	0.2423	0.6208	0.3166	-0.123
Mof_O 	O 	0.481	0.8412	0.2462	-0.391
Mof_C 	C 	0.5145	0.887	0.1797	-0.141
Mof_Ag	Ag	0.41254	0.77783	0.28938	0.55
Mof_C 	C 	0.1847	0.5861	0.2937	0.03
Mof_C 	C 	0.2566	0.6135	0.3607	0.043
Mof_C 	C 	0.5725	0.9287	0.2	0.045
Mof_C 	C 	0.5051	0.8893	0.1349	0.066
Mof_N 	N 	0.4547	0.8167	0.3563	-0.154
Mof_H 	H 	0.1766	0.592	0.2634	0.026
Mof_C 	C 	0.1375	0.5421	0.3136	-0.1
Mof_C 	C 	0.2112	0.569	0.3823	-0.116
Mof_H 	H 	0.2966	0.6382	0.3762	0.034
Mof_C 	C 	0.6144	0.9693	0.1743	-0.122
Mof_H 	H 	0.582	0.9284	0.2305	0.023
Mof_C 	C 	0.5467	0.9308	0.1107	-0.139
Mof_H 	H 	0.4689	0.8614	0.1206	0.027
Mof_Ag	Ag	0.52225	0.94446	0.48556	0.576
Mof_C 	C 	0.5133	0.8601	0.3568	0.014
Mof_C 	C 	0.4169	0.8014	0.396	-0.003
Mof_C 	C 	0.1513	0.5342	0.3589	0.029
Mof_H 	H 	0.0972	0.5181	0.2975	0.064
Mof_C 	C 	0.2267	0.5585	0.4297	0.332
Mof_C 	C 	0.6042	0.9702	0.1306	0.056
Mof_H 	H 	0.6515	0.9975	0.1878	0.072
Mof_C 	C 	0.5306	0.934	0.0629	0.328
Mof_O 	O 	0.5088	0.9159	0.553	-0.37
Mof_C 	C 	0.5378	0.8879	0.395	0.003
Mof_H 	H 	0.5395	0.8726	0.3301	0.029
Mof_C 	C 	0.4392	0.8302	0.4329	0.018
Mof_H 	H 	0.3749	0.7705	0.3976	0.034
Mof_H 	H 	0.1192	0.5047	0.3735	0.029
Mof_O 	O 	0.1847	0.5161	0.4458	-0.389
Mof_H 	H 	0.636	0.9976	0.1137	0.008
Mof_O 	O 	0.4751	0.8977	0.0445	-0.351
Mof_O 	O 	0.571	0.9709	0.0399	-0.434
Mof_C 	C 	0.4608	0.9495	0.5769	0.346
Mof_N 	N 	0.4965	0.8743	0.4323	-0.159
Mof_H 	H 	0.584	0.9166	0.3944	0.034
Mof_H 	H 	0.4132	0.8184	0.4599	0.014
Mof_Ag	Ag	0.24838	0.45113	0.49337	0.556
Mof_Ag	Ag	0.49942	0.93971	0.97117	0.61
Mof_O 	O 	0.4238	0.9931	0.5625	-0.4
Mof_C 	C 	0.4528	0.9368	0.6248	-0.126
Mof_N 	N 	0.5168	0.8728	0.9199	-0.173
Mof_C 	C 	0.3998	0.9717	0.6515	0.044
Mof_C 	C 	0.4972	0.8916	0.6426	0.056
Mof_C 	C 	0.565	0.8258	0.9251	0.02
Mof_C 	C 	0.4924	0.8866	0.8798	0.016
Mof_C 	C 	0.3941	0.9626	0.6951	-0.113
Mof_H 	H 	0.367	0.0024	0.639	0.024
Mof_C 	C 	0.4921	0.8811	0.6871	-0.126
Mof_H 	H 	0.532	0.867	0.6244	0.033
Mof_C 	C 	0.592	0.7935	0.8897	0.003
Mof_H 	H 	0.5816	0.8141	0.9536	0.01
Mof_C 	C 	0.5158	0.8528	0.8446	0.016
Mof_H 	H 	0.4582	0.9203	0.8749	0.016
Mof_C 	C 	0.4406	0.9184	0.7139	0.038
Mof_H 	H 	0.3575	0.9871	0.7126	0.069
Mof_C 	C 	0.5423	0.8307	0.7061	0.335
Mof_N 	N 	0.5636	0.8068	0.8489	-0.155
Mof_H 	H 	0.6307	0.7616	0.8942	0.029
Mof_H 	H 	0.496	0.8637	0.8163	0.033
Mof_H 	H 	0.4384	0.913	0.7445	0.024
Mof_O 	O 	0.5336	0.8237	0.747	-0.398
Mof_O 	O 	0.5842	0.7998	0.6801	-0.376
Mof_Ag	Ag	0.61126	0.76109	0.7835	0.557
Mof_Ag	Ag	0.65824	0.72279	0.70043	0.53
Mof_O 	O 	0.6863	0.6886	0.8057	-0.383
Mof_O 	O 	0.7268	0.6558	0.7394	-0.379
Mof_N 	N 	0.7029	0.6839	0.6326	-0.151
Mof_C 	C 	0.7253	0.6538	0.78	0.319
Mof_C 	C 	0.6726	0.6993	0.5936	0.012
Mof_C 	C 	0.757	0.637	0.6345	0.002
Mof_C 	C 	0.7739	0.6038	0.8017	-0.108
Mof_C 	C 	0.6885	0.6692	0.5568	0.008
Mof_H 	H 	0.6379	0.7331	0.5913	0.028
Mof_C 	C 	0.7741	0.6079	0.597	0.016
Mof_H 	H 	0.7825	0.6246	0.6613	0.038
Mof_C 	C 	0.7645	0.5981	0.8462	0.036
Mof_C 	C 	0.8227	0.5667	0.7774	0.027
Mof_H 	H 	0.6618	0.681	0.53	0.017
Mof_N 	N 	0.7424	0.6225	0.5581	-0.159
Mof_H 	H 	0.8112	0.5749	0.599	0.027
Mof_C 	C 	0.8103	0.5528	0.8673	-0.112
Mof_H 	H 	0.7279	0.624	0.8624	0.037
Mof_C 	C 	0.8703	0.5221	0.7982	-0.099
Mof_H 	H 	0.825	0.5705	0.7467	0.03
Mof_C 	C 	0.8637	0.5161	0.8419	0.029
Mof_C 	C 	0.8007	0.544	0.9156	0.334
Mof_H 	H 	0.9067	0.4964	0.7817	0.063
Mof_O 	O 	0.7455	0.58	0.437	-0.364
Mof_H 	H 	0.8962	0.4862	0.8557	0.028
Mof_O 	O 	0.7172	0.4096	0.5502	-0.379
Mof_Ag	Ag	0.70017	0.43476	0.48071	0.579
Mof_N 	N 	0.7568	0.3732	0.4282	-0.162
Mof_O 	O 	0.6539	0.5042	0.4319	-0.402
Mof_C 	C 	0.8071	0.3266	0.431	0.014
Mof_C 	C 	0.7312	0.3876	0.388	0.013
Mof_C 	C 	0.8349	0.296	0.3951	0.013
Mof_H 	H 	0.8249	0.3136	0.459	0.015
Mof_C 	C 	0.7572	0.3574	0.3517	0.004
Mof_H 	H 	0.6934	0.4201	0.3842	0.027
Mof_N 	N 	0.8104	0.3103	0.3556	-0.155
Mof_H 	H 	0.8729	0.2636	0.3993	0.029
Mof_H 	H 	0.7379	0.3696	0.3237	0.031
Mof_Ag	Ag	0.85109	0.26642	0.28886	0.561
Mof_O 	O 	0.7761	0.3265	0.2466	-0.4
Mof_O 	O 	0.9285	0.195	0.316	-0.382
Mof_C 	C 	0.7911	0.3301	0.2065	0.331
Mof_C 	C 	0.9716	0.1591	0.2943	0.345
Mof_O 	O 	0.8405	0.2975	0.1839	-0.365
Mof_C 	C 	0.7423	0.3792	0.1834	-0.123
Mof_O 	O 	0.981	0.1588	0.2538	-0.391
Mof_C 	C 	0.0145	0.113	0.3203	-0.141
Mof_Ag	Ag	0.91254	0.22217	0.21062	0.55
Mof_C 	C 	0.6847	0.4139	0.2063	0.03
Mof_C 	C 	0.7566	0.3865	0.1393	0.043
Mof_C 	C 	0.0725	0.0713	0.3	0.045
Mof_C 	C 	0.0051	0.1107	0.3651	0.067
Mof_N 	N 	0.9547	0.1833	0.1437	-0.154
Mof_H 	H 	0.6766	0.408	0.2366	0.026
Mof_C 	C 	0.6375	0.4579	0.1864	-0.1
Mof_C 	C 	0.7112	0.431	0.1177	-0.116
Mof_H 	H 	0.7966	0.3618	0.1238	0.034
Mof_C 	C 	0.1144	0.0307	0.3257	-0.122
Mof_H 	H 	0.082	0.0716	0.2695	0.023
Mof_C 	C 	0.0467	0.0692	0.3893	-0.139
Mof_H 	H 	0.9689	0.1386	0.3794	0.027
Mof_Ag	Ag	0.02225	0.05554	0.01444	0.576
Mof_C 	C 	0.0133	0.1399	0.1432	0.014
Mof_C 	C 	0.9169	0.1986	0.104	-0.003
Mof_C 	C 	0.6513	0.4658	0.1411	0.029
Mof_H 	H 	0.5972	0.4819	0.2025	0.064
Mof_C 	C 	0.7267	0.4415	0.0703	0.332
Mof_C 	C 	0.1042	0.0298	0.3694	0.056
Mof_H 	H 	0.1515	0.0025	0.3122	0.072
Mof_C 	C 	0.0306	0.066	0.4371	0.328
Mof_O 	O 	0.0088	0.0841	0.947	-0.37
Mof_C 	C 	0.0378	0.1121	0.105	0.004
Mof_H 	H 	0.0395	0.1274	0.1699	0.029
Mof_C 	C 	0.9392	0.1698	0.0671	0.018
Mof_H 	H 	0.8749	0.2295	0.1024	0.034
Mof_H 	H 	0.6192	0.4953	0.1265	0.029
Mof_O 	O 	0.6847	0.4839	0.0542	-0.389
Mof_H 	H 	0.136	0.0024	0.3863	0.008
Mof_O 	O 	0.9751	0.1023	0.4555	-0.351
Mof_O 	O 	0.071	0.0291	0.4601	-0.434
Mof_C 	C 	0.9608	0.0505	0.9231	0.345
Mof_N 	N 	0.9965	0.1257	0.0677	-0.159
Mof_H 	H 	0.084	0.0834	0.1056	0.034
Mof_H 	H 	0.9132	0.1816	0.0401	0.014
Mof_Ag	Ag	0.74838	0.54887	0.00663	0.557
Mof_Ag	Ag	0.99942	0.06029	0.52883	0.61
Mof_O 	O 	0.9238	0.0069	0.9375	-0.4
Mof_C 	C 	0.9528	0.0632	0.8752	-0.126
Mof_N 	N 	0.0168	0.1272	0.5801	-0.173
Mof_C 	C 	0.8998	0.0283	0.8485	0.043
Mof_C 	C 	0.9972	0.1084	0.8574	0.055
Mof_C 	C 	0.065	0.1742	0.5749	0.02
Mof_C 	C 	0.9924	0.1134	0.6202	0.015
Mof_C 	C 	0.8941	0.0374	0.8049	-0.112
Mof_H 	H 	0.867	0.9976	0.861	0.024
Mof_C 	C 	0.9921	0.1189	0.8129	-0.126
Mof_H 	H 	0.032	0.133	0.8756	0.033
Mof_C 	C 	0.092	0.2065	0.6103	0.003
Mof_H 	H 	0.0816	0.1859	0.5464	0.01
Mof_C 	C 	0.0158	0.1472	0.6554	0.018
Mof_H 	H 	0.9582	0.0797	0.6251	0.016
Mof_C 	C 	0.9406	0.0816	0.7861	0.037
Mof_H 	H 	0.8575	0.0129	0.7874	0.068
Mof_C 	C 	0.0423	0.1693	0.7939	0.335
Mof_N 	N 	0.0636	0.1932	0.6511	-0.155
Mof_H 	H 	0.1307	0.2384	0.6058	0.029
Mof_H 	H 	0.996	0.1363	0.6837	0.032
Mof_H 	H 	0.9384	0.087	0.7555	0.024
Mof_O 	O 	0.0336	0.1763	0.753	-0.398
Mof_O 	O 	0.0842	0.2002	0.8199	-0.375
Mof_Ag	Ag	0.11126	0.23891	0.7165	0.557
Mof_Ag	Ag	0.15824	0.27721	0.79957	0.53
Mof_O 	O 	0.1863	0.3114	0.6943	-0.383
Mof_O 	O 	0.2268	0.3442	0.7606	-0.379
Mof_N 	N 	0.2029	0.3161	0.8674	-0.151
Mof_C 	C 	0.2253	0.3462	0.72	0.319
Mof_C 	C 	0.1726	0.3007	0.9064	0.012
Mof_C 	C 	0.257	0.363	0.8655	0.002
Mof_C 	C 	0.2739	0.3962	0.6983	-0.108
Mof_C 	C 	0.1885	0.3308	0.9432	0.008
Mof_H 	H 	0.1379	0.2669	0.9087	0.028
Mof_C 	C 	0.2741	0.3921	0.903	0.016
Mof_H 	H 	0.2825	0.3754	0.8387	0.038
Mof_C 	C 	0.2645	0.4019	0.6538	0.036
Mof_C 	C 	0.3227	0.4333	0.7226	0.027
Mof_H 	H 	0.1618	0.319	0.97	0.017
Mof_N 	N 	0.2424	0.3775	0.9419	-0.159
Mof_H 	H 	0.3112	0.4251	0.901	0.027
Mof_C 	C 	0.3103	0.4472	0.6327	-0.112
Mof_H 	H 	0.2279	0.376	0.6376	0.037
Mof_C 	C 	0.3703	0.4779	0.7018	-0.099
Mof_H 	H 	0.325	0.4295	0.7533	0.03
Mof_C 	C 	0.3637	0.4839	0.6581	0.029
Mof_C 	C 	0.3007	0.456	0.5844	0.334
Mof_H 	H 	0.4067	0.5036	0.7183	0.063
Mof_O 	O 	0.2455	0.42	0.063	-0.364
Mof_H 	H 	0.3962	0.5138	0.6443	0.028
Mof_O 	O 	0.7828	0.0904	0.5502	-0.379
Mof_Ag	Ag	0.79983	0.06524	0.48071	0.578
Mof_N 	N 	0.7432	0.1268	0.4282	-0.162
Mof_O 	O 	0.8461	0.9958	0.4319	-0.402
Mof_C 	C 	0.6929	0.1734	0.431	0.014
Mof_C 	C 	0.7688	0.1124	0.388	0.013
Mof_C 	C 	0.6651	0.204	0.3951	0.013
Mof_H 	H 	0.6751	0.1864	0.459	0.015
Mof_C 	C 	0.7428	0.1426	0.3517	0.004
Mof_H 	H 	0.8066	0.0799	0.3842	0.027
Mof_N 	N 	0.6896	0.1897	0.3556	-0.155
Mof_H 	H 	0.6271	0.2364	0.3993	0.029
Mof_H 	H 	0.7621	0.1304	0.3237	0.031
Mof_Ag	Ag	0.64891	0.23358	0.28886	0.561
Mof_O 	O 	0.7239	0.1735	0.2466	-0.4
Mof_O 	O 	0.5715	0.305	0.316	-0.382
Mof_C 	C 	0.7089	0.1699	0.2065	0.332
Mof_C 	C 	0.5284	0.3409	0.2943	0.345
Mof_O 	O 	0.6595	0.2025	0.1839	-0.365
Mof_C 	C 	0.7577	0.1208	0.1834	-0.123
Mof_O 	O 	0.519	0.3412	0.2538	-0.391
Mof_C 	C 	0.4855	0.387	0.3203	-0.141
Mof_Ag	Ag	0.58746	0.27783	0.21062	0.55
Mof_C 	C 	0.8153	0.0861	0.2063	0.03
Mof_C 	C 	0.7434	0.1135	0.1393	0.043
Mof_C 	C 	0.4275	0.4287	0.3	0.045
Mof_C 	C 	0.4949	0.3893	0.3651	0.066
Mof_N 	N 	0.5453	0.3167	0.1437	-0.154
Mof_H 	H 	0.8234	0.092	0.2366	0.026
Mof_C 	C 	0.8625	0.0421	0.1864	-0.1
Mof_C 	C 	0.7888	0.069	0.1177	-0.116
Mof_H 	H 	0.7034	0.1382	0.1238	0.034
Mof_C 	C 	0.3856	0.4693	0.3257	-0.122
Mof_H 	H 	0.418	0.4284	0.2695	0.023
Mof_C 	C 	0.4533	0.4308	0.3893	-0.139
Mof_H 	H 	0.5311	0.3614	0.3794	0.027
Mof_Ag	Ag	0.47775	0.44446	0.01444	0.576
Mof_C 	C 	0.4867	0.3601	0.1432	0.014
Mof_C 	C 	0.5831	0.3014	0.104	-0.003
Mof_C 	C 	0.8487	0.0342	0.1411	0.029
Mof_H 	H 	0.9028	0.0181	0.2025	0.064
Mof_C 	C 	0.7733	0.0585	0.0703	0.332
Mof_C 	C 	0.3958	0.4702	0.3694	0.056
Mof_H 	H 	0.3485	0.4975	0.3122	0.072
Mof_C 	C 	0.4694	0.434	0.4371	0.328
Mof_O 	O 	0.4912	0.4159	0.947	-0.37
Mof_C 	C 	0.4622	0.3879	0.105	0.003
Mof_H 	H 	0.4605	0.3726	0.1699	0.029
Mof_C 	C 	0.5608	0.3302	0.0671	0.018
Mof_H 	H 	0.6251	0.2705	0.1024	0.034
Mof_H 	H 	0.8808	0.0047	0.1265	0.028
Mof_O 	O 	0.8153	0.0161	0.0542	-0.389
Mof_H 	H 	0.364	0.4976	0.3863	0.008
Mof_O 	O 	0.5249	0.3977	0.4555	-0.351
Mof_O 	O 	0.429	0.4709	0.4601	-0.434
Mof_C 	C 	0.5392	0.4495	0.9231	0.346
Mof_N 	N 	0.5035	0.3743	0.0677	-0.159
Mof_H 	H 	0.416	0.4166	0.1056	0.034
Mof_H 	H 	0.5868	0.3184	0.0401	0.014
Mof_Ag	Ag	0.75162	0.95113	0.00663	0.557
Mof_Ag	Ag	0.50058	0.43971	0.52883	0.61
Mof_O 	O 	0.5762	0.4931	0.9375	-0.4
Mof_C 	C 	0.5472	0.4368	0.8752	-0.127
Mof_N 	N 	0.4832	0.3728	0.5801	-0.173
Mof_C 	C 	0.6002	0.4717	0.8485	0.044
Mof_C 	C 	0.5028	0.3916	0.8574	0.056
Mof_C 	C 	0.435	0.3258	0.5749	0.02
Mof_C 	C 	0.5076	0.3866	0.6202	0.016
Mof_C 	C 	0.6059	0.4626	0.8049	-0.113
Mof_H 	H 	0.633	0.5024	0.861	0.024
Mof_C 	C 	0.5079	0.3811	0.8129	-0.126
Mof_H 	H 	0.468	0.367	0.8756	0.032
Mof_C 	C 	0.408	0.2935	0.6103	0.003
Mof_H 	H 	0.4184	0.3141	0.5464	0.01
Mof_C 	C 	0.4842	0.3528	0.6554	0.016
Mof_H 	H 	0.5418	0.4203	0.6251	0.016
Mof_C 	C 	0.5594	0.4184	0.7861	0.038
Mof_H 	H 	0.6425	0.4871	0.7874	0.069
Mof_C 	C 	0.4577	0.3307	0.7939	0.335
Mof_N 	N 	0.4364	0.3068	0.6511	-0.155
Mof_H 	H 	0.3693	0.2616	0.6058	0.029
Mof_H 	H 	0.504	0.3637	0.6837	0.033
Mof_H 	H 	0.5616	0.413	0.7555	0.024
Mof_O 	O 	0.4664	0.3237	0.753	-0.398
Mof_O 	O 	0.4158	0.2998	0.8199	-0.376
Mof_Ag	Ag	0.38874	0.26109	0.7165	0.557
Mof_Ag	Ag	0.34176	0.22279	0.79957	0.53
Mof_O 	O 	0.3137	0.1886	0.6943	-0.383
Mof_O 	O 	0.2732	0.1558	0.7606	-0.379
Mof_N 	N 	0.2971	0.1839	0.8674	-0.151
Mof_C 	C 	0.2747	0.1538	0.72	0.319
Mof_C 	C 	0.3274	0.1993	0.9064	0.012
Mof_C 	C 	0.243	0.137	0.8655	0.002
Mof_C 	C 	0.2261	0.1038	0.6983	-0.108
Mof_C 	C 	0.3115	0.1692	0.9432	0.008
Mof_H 	H 	0.3621	0.2331	0.9087	0.028
Mof_C 	C 	0.2259	0.1079	0.903	0.016
Mof_H 	H 	0.2175	0.1246	0.8387	0.038
Mof_C 	C 	0.2355	0.0981	0.6538	0.036
Mof_C 	C 	0.1773	0.0667	0.7226	0.027
Mof_H 	H 	0.3382	0.181	0.97	0.017
Mof_N 	N 	0.2576	0.1225	0.9419	-0.159
Mof_H 	H 	0.1888	0.0749	0.901	0.027
Mof_C 	C 	0.1897	0.0528	0.6327	-0.112
Mof_H 	H 	0.2721	0.124	0.6376	0.037
Mof_C 	C 	0.1297	0.0221	0.7018	-0.098
Mof_H 	H 	0.175	0.0705	0.7533	0.031
Mof_C 	C 	0.1363	0.0161	0.6581	0.029
Mof_C 	C 	0.1993	0.044	0.5844	0.334
Mof_H 	H 	0.0933	0.9964	0.7183	0.063
Mof_O 	O 	0.2545	0.08	0.063	-0.364
Mof_H 	H 	0.1038	0.9862	0.6443	0.028
Mof_O 	O 	0.7172	0.0904	0.0502	-0.379
Mof_Ag	Ag	0.70017	0.06524	0.98071	0.579
Mof_N 	N 	0.7568	0.1268	0.9282	-0.162
Mof_O 	O 	0.6539	0.9958	0.9319	-0.403
Mof_C 	C 	0.8071	0.1734	0.931	0.014
Mof_C 	C 	0.7312	0.1124	0.888	0.013
Mof_C 	C 	0.8349	0.204	0.8951	0.013
Mof_H 	H 	0.8249	0.1864	0.959	0.016
Mof_C 	C 	0.7572	0.1426	0.8517	0.004
Mof_H 	H 	0.6934	0.0799	0.8842	0.027
Mof_N 	N 	0.8104	0.1897	0.8556	-0.155
Mof_H 	H 	0.8729	0.2364	0.8993	0.029
Mof_H 	H 	0.7379	0.1304	0.8237	0.031
Mof_Ag	Ag	0.85109	0.23358	0.78886	0.56
Mof_O 	O 	0.7761	0.1735	0.7466	-0.4
Mof_O 	O 	0.9285	0.305	0.816	-0.382
Mof_C 	C 	0.7911	0.1699	0.7065	0.331
Mof_C 	C 	0.9716	0.3409	0.7943	0.345
Mof_O 	O 	0.8405	0.2025	0.6839	-0.366
Mof_C 	C 	0.7423	0.1208	0.6834	-0.123
Mof_O 	O 	0.981	0.3412	0.7538	-0.391
Mof_C 	C 	0.0145	0.387	0.8203	-0.141
Mof_Ag	Ag	0.91254	0.27783	0.71062	0.55
Mof_C 	C 	0.6847	0.0861	0.7063	0.03
Mof_C 	C 	0.7566	0.1135	0.6393	0.043
Mof_C 	C 	0.0725	0.4287	0.8	0.045
Mof_C 	C 	0.0051	0.3893	0.8651	0.067
Mof_N 	N 	0.9547	0.3167	0.6437	-0.154
Mof_H 	H 	0.6766	0.092	0.7366	0.026
Mof_C 	C 	0.6375	0.0421	0.6864	-0.1
Mof_C 	C 	0.7112	0.069	0.6177	-0.116
Mof_H 	H 	0.7966	0.1382	0.6238	0.034
Mof_C 	C 	0.1144	0.4693	0.8257	-0.122
Mof_H 	H 	0.082	0.4284	0.7695	0.023
Mof_C 	C 	0.0467	0.4308	0.8893	-0.139
Mof_H 	H 	0.9689	0.3614	0.8794	0.027
Mof_Ag	Ag	0.02225	0.44446	0.51444	0.576
Mof_C 	C 	0.0133	0.3601	0.6432	0.014
Mof_C 	C 	0.9169	0.3014	0.604	-0.003
Mof_C 	C 	0.6513	0.0342	0.6411	0.029
Mof_H 	H 	0.5972	0.0181	0.7025	0.064
Mof_C 	C 	0.7267	0.0585	0.5703	0.332
Mof_C 	C 	0.1042	0.4702	0.8694	0.056
Mof_H 	H 	0.1515	0.4975	0.8122	0.072
Mof_C 	C 	0.0306	0.434	0.9371	0.328
Mof_O 	O 	0.0088	0.4159	0.447	-0.37
Mof_C 	C 	0.0378	0.3879	0.605	0.003
Mof_H 	H 	0.0395	0.3726	0.6699	0.029
Mof_C 	C 	0.9392	0.3302	0.5671	0.018
Mof_H 	H 	0.8749	0.2705	0.6024	0.034
Mof_H 	H 	0.6192	0.0047	0.6265	0.029
Mof_O 	O 	0.6847	0.0161	0.5542	-0.389
Mof_H 	H 	0.136	0.4976	0.8863	0.008
Mof_O 	O 	0.9751	0.3977	0.9555	-0.351
Mof_O 	O 	0.071	0.4709	0.9601	-0.435
Mof_C 	C 	0.9608	0.4495	0.4231	0.346
Mof_N 	N 	0.9965	0.3743	0.5677	-0.159
Mof_H 	H 	0.084	0.4166	0.6056	0.034
Mof_H 	H 	0.9132	0.3184	0.5401	0.014
Mof_Ag	Ag	0.74838	0.95113	0.50663	0.557
Mof_Ag	Ag	0.99942	0.43971	0.02883	0.611
Mof_O 	O 	0.9238	0.4931	0.4375	-0.4
Mof_C 	C 	0.9528	0.4368	0.3752	-0.127
Mof_N 	N 	0.0168	0.3728	0.0801	-0.173
Mof_C 	C 	0.8998	0.4717	0.3485	0.044
Mof_C 	C 	0.9972	0.3916	0.3574	0.055
Mof_C 	C 	0.065	0.3258	0.0749	0.02
Mof_C 	C 	0.9924	0.3866	0.1202	0.016
Mof_C 	C 	0.8941	0.4626	0.3049	-0.113
Mof_H 	H 	0.867	0.5024	0.361	0.024
Mof_C 	C 	0.9921	0.3811	0.3129	-0.126
Mof_H 	H 	0.032	0.367	0.3756	0.033
Mof_C 	C 	0.092	0.2935	0.1103	0.003
Mof_H 	H 	0.0816	0.3141	0.0464	0.01
Mof_C 	C 	0.0158	0.3528	0.1554	0.016
Mof_H 	H 	0.9582	0.4203	0.1251	0.016
Mof_C 	C 	0.9406	0.4184	0.2861	0.038
Mof_H 	H 	0.8575	0.4871	0.2874	0.069
Mof_C 	C 	0.0423	0.3307	0.2939	0.335
Mof_N 	N 	0.0636	0.3068	0.1511	-0.155
Mof_H 	H 	0.1307	0.2616	0.1058	0.029
Mof_H 	H 	0.996	0.3637	0.1837	0.033
Mof_H 	H 	0.9384	0.413	0.2555	0.024
Mof_O 	O 	0.0336	0.3237	0.253	-0.398
Mof_O 	O 	0.0842	0.2998	0.3199	-0.376
Mof_Ag	Ag	0.11126	0.26109	0.2165	0.557
Mof_Ag	Ag	0.15824	0.22279	0.29957	0.53
Mof_O 	O 	0.1863	0.1886	0.1943	-0.383
Mof_O 	O 	0.2268	0.1558	0.2606	-0.379
Mof_N 	N 	0.2029	0.1839	0.3674	-0.151
Mof_C 	C 	0.2253	0.1538	0.22	0.319
Mof_C 	C 	0.1726	0.1993	0.4064	0.012
Mof_C 	C 	0.257	0.137	0.3655	0.002
Mof_C 	C 	0.2739	0.1038	0.1983	-0.108
Mof_C 	C 	0.1885	0.1692	0.4432	0.008
Mof_H 	H 	0.1379	0.2331	0.4087	0.028
Mof_C 	C 	0.2741	0.1079	0.403	0.016
Mof_H 	H 	0.2825	0.1246	0.3387	0.038
Mof_C 	C 	0.2645	0.0981	0.1538	0.036
Mof_C 	C 	0.3227	0.0667	0.2226	0.027
Mof_H 	H 	0.1618	0.181	0.47	0.017
Mof_N 	N 	0.2424	0.1225	0.4419	-0.159
Mof_H 	H 	0.3112	0.0749	0.401	0.027
Mof_C 	C 	0.3103	0.0528	0.1327	-0.112
Mof_H 	H 	0.2279	0.124	0.1376	0.037
Mof_C 	C 	0.3703	0.0221	0.2018	-0.099
Mof_H 	H 	0.325	0.0705	0.2533	0.03
Mof_C 	C 	0.3637	0.0161	0.1581	0.029
Mof_C 	C 	0.3007	0.044	0.0844	0.334
Mof_H 	H 	0.4067	0.9964	0.2183	0.063
Mof_O 	O 	0.2455	0.08	0.563	-0.364
Mof_H 	H 	0.3962	0.9862	0.1443	0.028
Mof_O 	O 	0.7828	0.4096	0.0502	-0.379
Mof_Ag	Ag	0.79983	0.43476	0.98071	0.579
Mof_N 	N 	0.7432	0.3732	0.9282	-0.162
Mof_O 	O 	0.8461	0.5042	0.9319	-0.403
Mof_C 	C 	0.6929	0.3266	0.931	0.014
Mof_C 	C 	0.7688	0.3876	0.888	0.013
Mof_C 	C 	0.6651	0.296	0.8951	0.013
Mof_H 	H 	0.6751	0.3136	0.959	0.016
Mof_C 	C 	0.7428	0.3574	0.8517	0.004
Mof_H 	H 	0.8066	0.4201	0.8842	0.027
Mof_N 	N 	0.6896	0.3103	0.8556	-0.155
Mof_H 	H 	0.6271	0.2636	0.8993	0.029
Mof_H 	H 	0.7621	0.3696	0.8237	0.031
Mof_Ag	Ag	0.64891	0.26642	0.78886	0.561
Mof_O 	O 	0.7239	0.3265	0.7466	-0.4
Mof_O 	O 	0.5715	0.195	0.816	-0.382
Mof_C 	C 	0.7089	0.3301	0.7065	0.331
Mof_C 	C 	0.5284	0.1591	0.7943	0.345
Mof_O 	O 	0.6595	0.2975	0.6839	-0.365
Mof_C 	C 	0.7577	0.3792	0.6834	-0.123
Mof_O 	O 	0.519	0.1588	0.7538	-0.391
Mof_C 	C 	0.4855	0.113	0.8203	-0.141
Mof_Ag	Ag	0.58746	0.22217	0.71062	0.55
Mof_C 	C 	0.8153	0.4139	0.7063	0.03
Mof_C 	C 	0.7434	0.3865	0.6393	0.043
Mof_C 	C 	0.4275	0.0713	0.8	0.045
Mof_C 	C 	0.4949	0.1107	0.8651	0.066
Mof_N 	N 	0.5453	0.1833	0.6437	-0.154
Mof_H 	H 	0.8234	0.408	0.7366	0.026
Mof_C 	C 	0.8625	0.4579	0.6864	-0.1
Mof_C 	C 	0.7888	0.431	0.6177	-0.116
Mof_H 	H 	0.7034	0.3618	0.6238	0.034
Mof_C 	C 	0.3856	0.0307	0.8257	-0.122
Mof_H 	H 	0.418	0.0716	0.7695	0.023
Mof_C 	C 	0.4533	0.0692	0.8893	-0.139
Mof_H 	H 	0.5311	0.1386	0.8794	0.027
Mof_Ag	Ag	0.47775	0.05554	0.51444	0.576
Mof_C 	C 	0.4867	0.1399	0.6432	0.014
Mof_C 	C 	0.5831	0.1986	0.604	-0.003
Mof_C 	C 	0.8487	0.4658	0.6411	0.029
Mof_H 	H 	0.9028	0.4819	0.7025	0.064
Mof_C 	C 	0.7733	0.4415	0.5703	0.332
Mof_C 	C 	0.3958	0.0298	0.8694	0.056
Mof_H 	H 	0.3485	0.0025	0.8122	0.072
Mof_C 	C 	0.4694	0.066	0.9371	0.328
Mof_O 	O 	0.4912	0.0841	0.447	-0.37
Mof_C 	C 	0.4622	0.1121	0.605	0.003
Mof_H 	H 	0.4605	0.1274	0.6699	0.029
Mof_C 	C 	0.5608	0.1698	0.5671	0.018
Mof_H 	H 	0.6251	0.2295	0.6024	0.034
Mof_H 	H 	0.8808	0.4953	0.6265	0.029
Mof_O 	O 	0.8153	0.4839	0.5542	-0.389
Mof_H 	H 	0.364	0.0024	0.8863	0.008
Mof_O 	O 	0.5249	0.1023	0.9555	-0.351
Mof_O 	O 	0.429	0.0291	0.9601	-0.434
Mof_C 	C 	0.5392	0.0505	0.4231	0.346
Mof_N 	N 	0.5035	0.1257	0.5677	-0.159
Mof_H 	H 	0.416	0.0834	0.6056	0.034
Mof_H 	H 	0.5868	0.1816	0.5401	0.014
Mof_Ag	Ag	0.75162	0.54887	0.50663	0.556
Mof_Ag	Ag	0.50058	0.06029	0.02883	0.61
Mof_O 	O 	0.5762	0.0069	0.4375	-0.4
Mof_C 	C 	0.5472	0.0632	0.3752	-0.126
Mof_N 	N 	0.4832	0.1272	0.0801	-0.173
Mof_C 	C 	0.6002	0.0283	0.3485	0.044
Mof_C 	C 	0.5028	0.1084	0.3574	0.056
Mof_C 	C 	0.435	0.1742	0.0749	0.02
Mof_C 	C 	0.5076	0.1134	0.1202	0.016
Mof_C 	C 	0.6059	0.0374	0.3049	-0.113
Mof_H 	H 	0.633	0.9976	0.361	0.024
Mof_C 	C 	0.5079	0.1189	0.3129	-0.126
Mof_H 	H 	0.468	0.133	0.3756	0.033
Mof_C 	C 	0.408	0.2065	0.1103	0.003
Mof_H 	H 	0.4184	0.1859	0.0464	0.01
Mof_C 	C 	0.4842	0.1472	0.1554	0.016
Mof_H 	H 	0.5418	0.0797	0.1251	0.016
Mof_C 	C 	0.5594	0.0816	0.2861	0.038
Mof_H 	H 	0.6425	0.0129	0.2874	0.069
Mof_C 	C 	0.4577	0.1693	0.2939	0.335
Mof_N 	N 	0.4364	0.1932	0.1511	-0.155
Mof_H 	H 	0.3693	0.2384	0.1058	0.029
Mof_H 	H 	0.504	0.1363	0.1837	0.033
Mof_H 	H 	0.5616	0.087	0.2555	0.024
Mof_O 	O 	0.4664	0.1763	0.253	-0.398
Mof_O 	O 	0.4158	0.2002	0.3199	-0.376
Mof_Ag	Ag	0.38874	0.23891	0.2165	0.557
Mof_Ag	Ag	0.34176	0.27721	0.29957	0.53
Mof_O 	O 	0.3137	0.3114	0.1943	-0.383
Mof_O 	O 	0.2732	0.3442	0.2606	-0.379
Mof_N 	N 	0.2971	0.3161	0.3674	-0.151
Mof_C 	C 	0.2747	0.3462	0.22	0.319
Mof_C 	C 	0.3274	0.3007	0.4064	0.012
Mof_C 	C 	0.243	0.363	0.3655	0.002
Mof_C 	C 	0.2261	0.3962	0.1983	-0.108
Mof_C 	C 	0.3115	0.3308	0.4432	0.008
Mof_H 	H 	0.3621	0.2669	0.4087	0.028
Mof_C 	C 	0.2259	0.3921	0.403	0.016
Mof_H 	H 	0.2175	0.3754	0.3387	0.038
Mof_C 	C 	0.2355	0.4019	0.1538	0.036
Mof_C 	C 	0.1773	0.4333	0.2226	0.027
Mof_H 	H 	0.3382	0.319	0.47	0.017
Mof_N 	N 	0.2576	0.3775	0.4419	-0.159
Mof_H 	H 	0.1888	0.4251	0.401	0.027
Mof_C 	C 	0.1897	0.4472	0.1327	-0.112
Mof_H 	H 	0.2721	0.376	0.1376	0.037
Mof_C 	C 	0.1297	0.4779	0.2018	-0.099
Mof_H 	H 	0.175	0.4295	0.2533	0.03
Mof_C 	C 	0.1363	0.4839	0.1581	0.029
Mof_C 	C 	0.1993	0.456	0.0844	0.334
Mof_H 	H 	0.0933	0.5036	0.2183	0.063
Mof_O 	O 	0.2545	0.42	0.563	-0.364
Mof_H 	H 	0.1038	0.5138	0.1443	0.028
Mof_O 	O 	0.2828	0.5904	0.4498	-0.379
Mof_Ag	Ag	0.29983	0.56524	0.51929	0.579
Mof_N 	N 	0.2432	0.6268	0.5718	-0.162
Mof_O 	O 	0.3461	0.4958	0.5681	-0.402
Mof_C 	C 	0.1929	0.6734	0.569	0.014
Mof_C 	C 	0.2688	0.6124	0.612	0.013
Mof_C 	C 	0.1651	0.704	0.6049	0.013
Mof_H 	H 	0.1751	0.6864	0.541	0.015
Mof_C 	C 	0.2428	0.6426	0.6483	0.004
Mof_H 	H 	0.3066	0.5799	0.6158	0.027
Mof_N 	N 	0.1896	0.6897	0.6444	-0.155
Mof_H 	H 	0.1271	0.7364	0.6007	0.029
Mof_H 	H 	0.2621	0.6304	0.6763	0.031
Mof_Ag	Ag	0.14891	0.73358	0.71114	0.561
Mof_O 	O 	0.2239	0.6735	0.7534	-0.4
Mof_O 	O 	0.0715	0.805	0.684	-0.382
Mof_C 	C 	0.2089	0.6699	0.7935	0.331
Mof_C 	C 	0.0284	0.8409	0.7057	0.345
Mof_O 	O 	0.1595	0.7025	0.8161	-0.365
Mof_C 	C 	0.2577	0.6208	0.8166	-0.123
Mof_O 	O 	0.019	0.8412	0.7462	-0.391
Mof_C 	C 	0.9855	0.887	0.6797	-0.141
Mof_Ag	Ag	0.08746	0.77783	0.78938	0.55
Mof_C 	C 	0.3153	0.5861	0.7937	0.03
Mof_C 	C 	0.2434	0.6135	0.8607	0.043
Mof_C 	C 	0.9275	0.9287	0.7	0.045
Mof_C 	C 	0.9949	0.8893	0.6349	0.067
Mof_N 	N 	0.0453	0.8167	0.8563	-0.154
Mof_H 	H 	0.3234	0.592	0.7634	0.026
Mof_C 	C 	0.3625	0.5421	0.8136	-0.1
Mof_C 	C 	0.2888	0.569	0.8823	-0.116
Mof_H 	H 	0.2034	0.6382	0.8762	0.034
Mof_C 	C 	0.8856	0.9693	0.6743	-0.122
Mof_H 	H 	0.918	0.9284	0.7305	0.023
Mof_C 	C 	0.9533	0.9308	0.6107	-0.139
Mof_H 	H 	0.0311	0.8614	0.6206	0.027
Mof_Ag	Ag	0.97775	0.94446	0.98556	0.576
Mof_C 	C 	0.9867	0.8601	0.8568	0.014
Mof_C 	C 	0.0831	0.8014	0.896	-0.003
Mof_C 	C 	0.3487	0.5342	0.8589	0.029
Mof_H 	H 	0.4028	0.5181	0.7975	0.064
Mof_C 	C 	0.2733	0.5585	0.9297	0.332
Mof_C 	C 	0.8958	0.9702	0.6306	0.056
Mof_H 	H 	0.8485	0.9975	0.6878	0.072
Mof_C 	C 	0.9694	0.934	0.5629	0.328
Mof_O 	O 	0.9912	0.9159	0.053	-0.37
Mof_C 	C 	0.9622	0.8879	0.895	0.004
Mof_H 	H 	0.9605	0.8726	0.8301	0.029
Mof_C 	C 	0.0608	0.8302	0.9329	0.018
Mof_H 	H 	0.1251	0.7705	0.8976	0.034
Mof_H 	H 	0.3808	0.5047	0.8735	0.029
Mof_O 	O 	0.3153	0.5161	0.9458	-0.389
Mof_H 	H 	0.864	0.9976	0.6137	0.008
Mof_O 	O 	0.0249	0.8977	0.5445	-0.351
Mof_O 	O 	0.929	0.9709	0.5399	-0.434
Mof_C 	C 	0.0392	0.9495	0.0769	0.345
Mof_N 	N 	0.0035	0.8743	0.9323	-0.159
Mof_H 	H 	0.916	0.9166	0.8944	0.034
Mof_H 	H 	0.0868	0.8184	0.9599	0.014
Mof_Ag	Ag	0.25162	0.45113	0.99337	0.557
Mof_Ag	Ag	0.00058	0.93971	0.47117	0.61
Mof_O 	O 	0.0762	0.9931	0.0625	-0.4
Mof_C 	C 	0.0472	0.9368	0.1248	-0.126
Mof_N 	N 	0.9832	0.8728	0.4199	-0.173
Mof_C 	C 	0.1002	0.9717	0.1515	0.043
Mof_C 	C 	0.0028	0.8916	0.1426	0.055
Mof_C 	C 	0.935	0.8258	0.4251	0.02
Mof_C 	C 	0.0076	0.8866	0.3798	0.015
Mof_C 	C 	0.1059	0.9626	0.1951	-0.112
Mof_H 	H 	0.133	0.0024	0.139	0.024
Mof_C 	C 	0.0079	0.8811	0.1871	-0.126
Mof_H 	H 	0.968	0.867	0.1244	0.033
Mof_C 	C 	0.908	0.7935	0.3897	0.003
Mof_H 	H 	0.9184	0.8141	0.4536	0.01
Mof_C 	C 	0.9842	0.8528	0.3446	0.018
Mof_H 	H 	0.0418	0.9203	0.3749	0.016
Mof_C 	C 	0.0594	0.9184	0.2139	0.037
Mof_H 	H 	0.1425	0.9871	0.2126	0.068
Mof_C 	C 	0.9577	0.8307	0.2061	0.335
Mof_N 	N 	0.9364	0.8068	0.3489	-0.155
Mof_H 	H 	0.8693	0.7616	0.3942	0.029
Mof_H 	H 	0.004	0.8637	0.3163	0.032
Mof_H 	H 	0.0616	0.913	0.2445	0.024
Mof_O 	O 	0.9664	0.8237	0.247	-0.398
Mof_O 	O 	0.9158	0.7998	0.1801	-0.375
Mof_Ag	Ag	0.88874	0.76109	0.2835	0.557
Mof_Ag	Ag	0.84176	0.72279	0.20043	0.53
Mof_O 	O 	0.8137	0.6886	0.3057	-0.383
Mof_O 	O 	0.7732	0.6558	0.2394	-0.379
Mof_N 	N 	0.7971	0.6839	0.1326	-0.151
Mof_C 	C 	0.7747	0.6538	0.28	0.319
Mof_C 	C 	0.8274	0.6993	0.0936	0.012
Mof_C 	C 	0.743	0.637	0.1345	0.002
Mof_C 	C 	0.7261	0.6038	0.3017	-0.108
Mof_C 	C 	0.8115	0.6692	0.0568	0.008
Mof_H 	H 	0.8621	0.7331	0.0913	0.028
Mof_C 	C 	0.7259	0.6079	0.097	0.016
Mof_H 	H 	0.7175	0.6246	0.1613	0.038
Mof_C 	C 	0.7355	0.5981	0.3462	0.036
Mof_C 	C 	0.6773	0.5667	0.2774	0.027
Mof_H 	H 	0.8382	0.681	0.03	0.017
Mof_N 	N 	0.7576	0.6225	0.0581	-0.159
Mof_H 	H 	0.6888	0.5749	0.099	0.027
Mof_C 	C 	0.6897	0.5528	0.3673	-0.112
Mof_H 	H 	0.7721	0.624	0.3624	0.037
Mof_C 	C 	0.6297	0.5221	0.2982	-0.099
Mof_H 	H 	0.675	0.5705	0.2467	0.03
Mof_C 	C 	0.6363	0.5161	0.3419	0.029
Mof_C 	C 	0.6993	0.544	0.4156	0.334
Mof_H 	H 	0.5933	0.4964	0.2817	0.063
Mof_O 	O 	0.7545	0.58	0.937	-0.364
Mof_H 	H 	0.6038	0.4862	0.3557	0.028
Mof_O 	O 	0.2172	0.9096	0.4498	-0.379
Mof_Ag	Ag	0.20017	0.93476	0.51929	0.578
Mof_N 	N 	0.2568	0.8732	0.5718	-0.162
Mof_O 	O 	0.1539	0.0042	0.5681	-0.402
Mof_C 	C 	0.3071	0.8266	0.569	0.014
Mof_C 	C 	0.2312	0.8876	0.612	0.013
Mof_C 	C 	0.3349	0.796	0.6049	0.013
Mof_H 	H 	0.3249	0.8136	0.541	0.015
Mof_C 	C 	0.2572	0.8574	0.6483	0.004
Mof_H 	H 	0.1934	0.9201	0.6158	0.027
Mof_N 	N 	0.3104	0.8103	0.6444	-0.155
Mof_H 	H 	0.3729	0.7636	0.6007	0.029
Mof_H 	H 	0.2379	0.8696	0.6763	0.031
Mof_Ag	Ag	0.35109	0.76642	0.71114	0.561
Mof_O 	O 	0.2761	0.8265	0.7534	-0.4
Mof_O 	O 	0.4285	0.695	0.684	-0.382
Mof_C 	C 	0.2911	0.8301	0.7935	0.332
Mof_C 	C 	0.4716	0.6591	0.7057	0.345
Mof_O 	O 	0.3405	0.7975	0.8161	-0.365
Mof_C 	C 	0.2423	0.8792	0.8166	-0.123
Mof_O 	O 	0.481	0.6588	0.7462	-0.391
Mof_C 	C 	0.5145	0.613	0.6797	-0.141
Mof_Ag	Ag	0.41254	0.72217	0.78938	0.55
Mof_C 	C 	0.1847	0.9139	0.7937	0.03
Mof_C 	C 	0.2566	0.8865	0.8607	0.043
Mof_C 	C 	0.5725	0.5713	0.7	0.045
Mof_C 	C 	0.5051	0.6107	0.6349	0.066
Mof_N 	N 	0.4547	0.6833	0.8563	-0.154
Mof_H 	H 	0.1766	0.908	0.7634	0.026
Mof_C 	C 	0.1375	0.9579	0.8136	-0.1
Mof_C 	C 	0.2112	0.931	0.8823	-0.116
Mof_H 	H 	0.2966	0.8618	0.8762	0.034
Mof_C 	C 	0.6144	0.5307	0.6743	-0.122
Mof_H 	H 	0.582	0.5716	0.7305	0.023
Mof_C 	C 	0.5467	0.5692	0.6107	-0.139
Mof_H 	H 	0.4689	0.6386	0.6206	0.027
Mof_Ag	Ag	0.52225	0.55554	0.98556	0.576
Mof_C 	C 	0.5133	0.6399	0.8568	0.014
Mof_C 	C 	0.4169	0.6986	0.896	-0.003
Mof_C 	C 	0.1513	0.9658	0.8589	0.029
Mof_H 	H 	0.0972	0.9819	0.7975	0.064
Mof_C 	C 	0.2267	0.9415	0.9297	0.332
Mof_C 	C 	0.6042	0.5298	0.6306	0.056
Mof_H 	H 	0.6515	0.5025	0.6878	0.072
Mof_C 	C 	0.5306	0.566	0.5629	0.328
Mof_O 	O 	0.5088	0.5841	0.053	-0.37
Mof_C 	C 	0.5378	0.6121	0.895	0.003
Mof_H 	H 	0.5395	0.6274	0.8301	0.029
Mof_C 	C 	0.4392	0.6698	0.9329	0.018
Mof_H 	H 	0.3749	0.7295	0.8976	0.034
Mof_H 	H 	0.1192	0.9953	0.8735	0.028
Mof_O 	O 	0.1847	0.9839	0.9458	-0.389
Mof_H 	H 	0.636	0.5024	0.6137	0.008
Mof_O 	O 	0.4751	0.6023	0.5445	-0.351
Mof_O 	O 	0.571	0.5291	0.5399	-0.434
Mof_C 	C 	0.4608	0.5505	0.0769	0.346
Mof_N 	N 	0.4965	0.6257	0.9323	-0.159
Mof_H 	H 	0.584	0.5834	0.8944	0.034
Mof_H 	H 	0.4132	0.6816	0.9599	0.014
Mof_Ag	Ag	0.24838	0.04887	0.99337	0.557
Mof_Ag	Ag	0.49942	0.56029	0.47117	0.61
Mof_O 	O 	0.4238	0.5069	0.0625	-0.4
Mof_C 	C 	0.4528	0.5632	0.1248	-0.127
Mof_N 	N 	0.5168	0.6272	0.4199	-0.173
Mof_C 	C 	0.3998	0.5283	0.1515	0.044
Mof_C 	C 	0.4972	0.6084	0.1426	0.056
Mof_C 	C 	0.565	0.6742	0.4251	0.02
Mof_C 	C 	0.4924	0.6134	0.3798	0.016
Mof_C 	C 	0.3941	0.5374	0.1951	-0.113
Mof_H 	H 	0.367	0.4976	0.139	0.024
Mof_C 	C 	0.4921	0.6189	0.1871	-0.126
Mof_H 	H 	0.532	0.633	0.1244	0.032
Mof_C 	C 	0.592	0.7065	0.3897	0.003
Mof_H 	H 	0.5816	0.6859	0.4536	0.01
Mof_C 	C 	0.5158	0.6472	0.3446	0.016
Mof_H 	H 	0.4582	0.5797	0.3749	0.016
Mof_C 	C 	0.4406	0.5816	0.2139	0.038
Mof_H 	H 	0.3575	0.5129	0.2126	0.069
Mof_C 	C 	0.5423	0.6693	0.2061	0.335
Mof_N 	N 	0.5636	0.6932	0.3489	-0.155
Mof_H 	H 	0.6307	0.7384	0.3942	0.029
Mof_H 	H 	0.496	0.6363	0.3163	0.033
Mof_H 	H 	0.4384	0.587	0.2445	0.024
Mof_O 	O 	0.5336	0.6763	0.247	-0.398
Mof_O 	O 	0.5842	0.7002	0.1801	-0.376
Mof_Ag	Ag	0.61126	0.73891	0.2835	0.557
Mof_Ag	Ag	0.65824	0.77721	0.20043	0.53
Mof_O 	O 	0.6863	0.8114	0.3057	-0.383
Mof_O 	O 	0.7268	0.8442	0.2394	-0.379
Mof_N 	N 	0.7029	0.8161	0.1326	-0.151
Mof_C 	C 	0.7253	0.8462	0.28	0.319
Mof_C 	C 	0.6726	0.8007	0.0936	0.012
Mof_C 	C 	0.757	0.863	0.1345	0.002
Mof_C 	C 	0.7739	0.8962	0.3017	-0.108
Mof_C 	C 	0.6885	0.8308	0.0568	0.008
Mof_H 	H 	0.6379	0.7669	0.0913	0.028
Mof_C 	C 	0.7741	0.8921	0.097	0.016
Mof_H 	H 	0.7825	0.8754	0.1613	0.038
Mof_C 	C 	0.7645	0.9019	0.3462	0.036
Mof_C 	C 	0.8227	0.9333	0.2774	0.027
Mof_H 	H 	0.6618	0.819	0.03	0.017
Mof_N 	N 	0.7424	0.8775	0.0581	-0.159
Mof_H 	H 	0.8112	0.9251	0.099	0.027
Mof_C 	C 	0.8103	0.9472	0.3673	-0.112
Mof_H 	H 	0.7279	0.876	0.3624	0.037
Mof_C 	C 	0.8703	0.9779	0.2982	-0.098
Mof_H 	H 	0.825	0.9295	0.2467	0.031
Mof_C 	C 	0.8637	0.9839	0.3419	0.029
Mof_C 	C 	0.8007	0.956	0.4156	0.334
Mof_H 	H 	0.9067	0.0036	0.2817	0.063
Mof_O 	O 	0.7455	0.92	0.937	-0.364
Mof_H 	H 	0.8962	0.0138	0.3557	0.028
_end
