# CIF file generated by openbabel 3.1.0, see https://openbabel.org
data_I
_chemical_name_common 'image0'
_cell_length_a 20.883
_cell_length_b 20.883
_cell_length_c 32.658
_cell_angle_alpha 90
_cell_angle_beta 90
_cell_angle_gamma 120
_space_group_name_H-M_alt 'P 1'
_space_group_name_Hall 'P 1'
loop_
    _symmetry_equiv_pos_as_xyz
    x,y,z
loop_
    _atom_site_label
    _atom_site_type_symbol
    _atom_site_fract_x
    _atom_site_fract_y
    _atom_site_fract_z
    _atom_site_occupancy
    C1       C        0.01580    0.30630    0.81246    1.000
    C2       C        0.92710    0.31160    0.75931    1.000
    C3       C        0.98420    0.17880    0.78844    1.000
    C4       C        0.11170    0.28950    0.75779    1.000
    N1       N        0.02360    0.32810    0.84550    1.000
    N2       N        0.88720    0.33260    0.76546    1.000
    N3       N        0.96860    0.12810    0.80834    1.000
    N4       N        0.17000    0.29750    0.76018    1.000
    C5       C        0.68247    0.63963    0.14579    1.000
    C6       C        0.59377    0.64493    0.09264    1.000
    C7       C        0.65087    0.51213    0.12177    1.000
    C8       C        0.77837    0.62283    0.09112    1.000
    N5       N        0.69027    0.66143    0.17883    1.000
    N6       N        0.55387    0.66593    0.09879    1.000
    N7       N        0.63527    0.46143    0.14167    1.000
    N8       N        0.83667    0.63083    0.09351    1.000
    C9       C        0.34913    0.97297    0.47913    1.000
    C10      C        0.26043    0.97827    0.42598    1.000
    C11      C        0.31753    0.84547    0.45511    1.000
    C12      C        0.44503    0.95617    0.42446    1.000
    N9       N        0.35693    0.99477    0.51217    1.000
    N10      N        0.22053    0.99927    0.43213    1.000
    N11      N        0.30193    0.79477    0.47501    1.000
    N12      N        0.50333    0.96417    0.42685    1.000
    C13      C        0.69370    0.70950    0.81246    1.000
    C14      C        0.68840    0.61550    0.75931    1.000
    C15      C        0.82120    0.80540    0.78844    1.000
    C16      C        0.71050    0.82220    0.75779    1.000
    N13      N        0.67190    0.69550    0.84550    1.000
    N14      N        0.66740    0.55460    0.76546    1.000
    N15      N        0.87190    0.84050    0.80834    1.000
    N16      N        0.70250    0.87250    0.76018    1.000
    C17      C        0.36037    0.04283    0.14579    1.000
    C18      C        0.35507    0.94883    0.09264    1.000
    C19      C        0.48787    0.13873    0.12177    1.000
    C20      C        0.37717    0.15553    0.09112    1.000
    N17      N        0.33857    0.02883    0.17883    1.000
    N18      N        0.33407    0.88793    0.09879    1.000
    N19      N        0.53857    0.17383    0.14167    1.000
    N20      N        0.36917    0.20583    0.09351    1.000
    C21      C        0.02703    0.37617    0.47913    1.000
    C22      C        0.02173    0.28217    0.42598    1.000
    C23      C        0.15453    0.47207    0.45511    1.000
    C24      C        0.04383    0.48887    0.42446    1.000
    N21      N        0.00523    0.36217    0.51217    1.000
    N22      N        0.00073    0.22127    0.43213    1.000
    N23      N        0.20523    0.50717    0.47501    1.000
    N24      N        0.03583    0.53917    0.42685    1.000
    C25      C        0.29050    0.98420    0.81246    1.000
    C26      C        0.38450    0.07290    0.75931    1.000
    C27      C        0.19460    0.01580    0.78844    1.000
    C28      C        0.17780    0.88830    0.75779    1.000
    N25      N        0.30450    0.97640    0.84550    1.000
    N26      N        0.44540    0.11280    0.76546    1.000
    N27      N        0.15950    0.03140    0.80834    1.000
    N28      N        0.12750    0.83000    0.76018    1.000
    C29      C        0.95717    0.31753    0.14579    1.000
    C30      C        0.05117    0.40623    0.09264    1.000
    C31      C        0.86127    0.34913    0.12177    1.000
    C32      C        0.84447    0.22163    0.09112    1.000
    N29      N        0.97117    0.30973    0.17883    1.000
    N30      N        0.11207    0.44613    0.09879    1.000
    N31      N        0.82617    0.36473    0.14167    1.000
    N32      N        0.79417    0.16333    0.09351    1.000
    C33      C        0.62383    0.65087    0.47913    1.000
    C34      C        0.71783    0.73957    0.42598    1.000
    C35      C        0.52793    0.68247    0.45511    1.000
    C36      C        0.51113    0.55497    0.42446    1.000
    N33      N        0.63783    0.64307    0.51217    1.000
    N34      N        0.77873    0.77947    0.43213    1.000
    N35      N        0.49283    0.69807    0.47501    1.000
    N36      N        0.46083    0.49667    0.42685    1.000
    C37      C        0.30630    0.01580    0.68754    1.000
    C38      C        0.31160    0.92710    0.74069    1.000
    C39      C        0.17880    0.98420    0.71156    1.000
    C40      C        0.28950    0.11170    0.74221    1.000
    N37      N        0.32810    0.02360    0.65450    1.000
    N38      N        0.33260    0.88720    0.73454    1.000
    N39      N        0.12810    0.96860    0.69166    1.000
    N40      N        0.29750    0.17000    0.73982    1.000
    C41      C        0.97297    0.34913    0.02087    1.000
    C42      C        0.97827    0.26043    0.07402    1.000
    C43      C        0.84547    0.31753    0.04489    1.000
    C44      C        0.95617    0.44503    0.07554    1.000
    N41      N        0.99477    0.35693    0.98783    1.000
    N42      N        0.99927    0.22053    0.06787    1.000
    N43      N        0.79477    0.30193    0.02499    1.000
    N44      N        0.96417    0.50333    0.07315    1.000
    C45      C        0.63963    0.68247    0.35421    1.000
    C46      C        0.64493    0.59377    0.40736    1.000
    C47      C        0.51213    0.65087    0.37823    1.000
    C48      C        0.62283    0.77837    0.40888    1.000
    N45      N        0.66143    0.69027    0.32117    1.000
    N46      N        0.66593    0.55387    0.40121    1.000
    N47      N        0.46143    0.63527    0.35833    1.000
    N48      N        0.63083    0.83667    0.40649    1.000
    C49      C        0.70950    0.69370    0.68754    1.000
    C50      C        0.61550    0.68840    0.74069    1.000
    C51      C        0.80540    0.82120    0.71156    1.000
    C52      C        0.82220    0.71050    0.74221    1.000
    N49      N        0.69550    0.67190    0.65450    1.000
    N50      N        0.55460    0.66740    0.73454    1.000
    N51      N        0.84050    0.87190    0.69166    1.000
    N52      N        0.87250    0.70250    0.73982    1.000
    C53      C        0.37617    0.02703    0.02087    1.000
    C54      C        0.28217    0.02173    0.07402    1.000
    C55      C        0.47207    0.15453    0.04489    1.000
    C56      C        0.48887    0.04383    0.07554    1.000
    N53      N        0.36217    0.00523    0.98783    1.000
    N54      N        0.22127    0.00073    0.06787    1.000
    N55      N        0.50717    0.20523    0.02499    1.000
    N56      N        0.53917    0.03583    0.07315    1.000
    C57      C        0.04283    0.36037    0.35421    1.000
    C58      C        0.94883    0.35507    0.40736    1.000
    C59      C        0.13873    0.48787    0.37823    1.000
    C60      C        0.15553    0.37717    0.40888    1.000
    N57      N        0.02883    0.33857    0.32117    1.000
    N58      N        0.88793    0.33407    0.40121    1.000
    N59      N        0.17383    0.53857    0.35833    1.000
    N60      N        0.20583    0.36917    0.40649    1.000
    C61      C        0.98420    0.29050    0.68754    1.000
    C62      C        0.07290    0.38450    0.74069    1.000
    C63      C        0.01580    0.19460    0.71156    1.000
    C64      C        0.88830    0.17780    0.74221    1.000
    N61      N        0.97640    0.30450    0.65450    1.000
    N62      N        0.11280    0.44540    0.73454    1.000
    N63      N        0.03140    0.15950    0.69166    1.000
    N64      N        0.83000    0.12750    0.73982    1.000
    C65      C        0.65087    0.62383    0.02087    1.000
    C66      C        0.73957    0.71783    0.07402    1.000
    C67      C        0.68247    0.52793    0.04489    1.000
    C68      C        0.55497    0.51113    0.07554    1.000
    N65      N        0.64307    0.63783    0.98783    1.000
    N66      N        0.77947    0.77873    0.06787    1.000
    N67      N        0.69807    0.49283    0.02499    1.000
    N68      N        0.49667    0.46083    0.07315    1.000
    C69      C        0.31753    0.95717    0.35421    1.000
    C70      C        0.40623    0.05117    0.40736    1.000
    C71      C        0.34913    0.86127    0.37823    1.000
    C72      C        0.22163    0.84447    0.40888    1.000
    N69      N        0.30973    0.97117    0.32117    1.000
    N70      N        0.44613    0.11207    0.40121    1.000
    N71      N        0.36473    0.82617    0.35833    1.000
    N72      N        0.16333    0.79417    0.40649    1.000
    C73      C        0.98420    0.69370    0.18754    1.000
    C74      C        0.07290    0.68840    0.24069    1.000
    C75      C        0.01580    0.82120    0.21156    1.000
    C76      C        0.88830    0.71050    0.24221    1.000
    N73      N        0.97640    0.67190    0.15450    1.000
    N74      N        0.11280    0.66740    0.23454    1.000
    N75      N        0.03140    0.87190    0.19166    1.000
    N76      N        0.83000    0.70250    0.23982    1.000
    C77      C        0.65087    0.02703    0.52087    1.000
    C78      C        0.73957    0.02173    0.57402    1.000
    C79      C        0.68247    0.15453    0.54489    1.000
    C80      C        0.55497    0.04383    0.57554    1.000
    N77      N        0.64307    0.00523    0.48783    1.000
    N78      N        0.77947    0.00073    0.56787    1.000
    N79      N        0.69807    0.20523    0.52499    1.000
    N80      N        0.49667    0.03583    0.57315    1.000
    C81      C        0.31753    0.36037    0.85421    1.000
    C82      C        0.40623    0.35507    0.90736    1.000
    C83      C        0.34913    0.48787    0.87823    1.000
    C84      C        0.22163    0.37717    0.90888    1.000
    N81      N        0.30973    0.33857    0.82117    1.000
    N82      N        0.44613    0.33407    0.90121    1.000
    N83      N        0.36473    0.53857    0.85833    1.000
    N84      N        0.16333    0.36917    0.90649    1.000
    C85      C        0.30630    0.29050    0.18754    1.000
    C86      C        0.31160    0.38450    0.24069    1.000
    C87      C        0.17880    0.19460    0.21156    1.000
    C88      C        0.28950    0.17780    0.24221    1.000
    N85      N        0.32810    0.30450    0.15450    1.000
    N86      N        0.33260    0.44540    0.23454    1.000
    N87      N        0.12810    0.15950    0.19166    1.000
    N88      N        0.29750    0.12750    0.23982    1.000
    C89      C        0.97297    0.62383    0.52087    1.000
    C90      C        0.97827    0.71783    0.57402    1.000
    C91      C        0.84547    0.52793    0.54489    1.000
    C92      C        0.95617    0.51113    0.57554    1.000
    N89      N        0.99477    0.63783    0.48783    1.000
    N90      N        0.99927    0.77873    0.56787    1.000
    N91      N        0.79477    0.49283    0.52499    1.000
    N92      N        0.96417    0.46083    0.57315    1.000
    C93      C        0.63963    0.95717    0.85421    1.000
    C94      C        0.64493    0.05117    0.90736    1.000
    C95      C        0.51213    0.86127    0.87823    1.000
    C96      C        0.62283    0.84447    0.90888    1.000
    N93      N        0.66143    0.97117    0.82117    1.000
    N94      N        0.66593    0.11207    0.90121    1.000
    N95      N        0.46143    0.82617    0.85833    1.000
    N96      N        0.63083    0.79417    0.90649    1.000
    C97      C        0.70950    0.01580    0.18754    1.000
    C98      C        0.61550    0.92710    0.24069    1.000
    C99      C        0.80540    0.98420    0.21156    1.000
    C100     C        0.82220    0.11170    0.24221    1.000
    N97      N        0.69550    0.02360    0.15450    1.000
    N98      N        0.55460    0.88720    0.23454    1.000
    N99      N        0.84050    0.96860    0.19166    1.000
    N100     N        0.87250    0.17000    0.23982    1.000
    C101     C        0.37617    0.34913    0.52087    1.000
    C102     C        0.28217    0.26043    0.57402    1.000
    C103     C        0.47207    0.31753    0.54489    1.000
    C104     C        0.48887    0.44503    0.57554    1.000
    N101     N        0.36217    0.35693    0.48783    1.000
    N102     N        0.22127    0.22053    0.56787    1.000
    N103     N        0.50717    0.30193    0.52499    1.000
    N104     N        0.53917    0.50333    0.57315    1.000
    C105     C        0.04283    0.68247    0.85421    1.000
    C106     C        0.94883    0.59377    0.90736    1.000
    C107     C        0.13873    0.65087    0.87823    1.000
    C108     C        0.15553    0.77837    0.90888    1.000
    N105     N        0.02883    0.69027    0.82117    1.000
    N106     N        0.88793    0.55387    0.90121    1.000
    N107     N        0.17383    0.63527    0.85833    1.000
    N108     N        0.20583    0.83667    0.90649    1.000
    C109     C        0.69370    0.98420    0.31246    1.000
    C110     C        0.68840    0.07290    0.25931    1.000
    C111     C        0.82120    0.01580    0.28844    1.000
    C112     C        0.71050    0.88830    0.25779    1.000
    N109     N        0.67190    0.97640    0.34550    1.000
    N110     N        0.66740    0.11280    0.26546    1.000
    N111     N        0.87190    0.03140    0.30834    1.000
    N112     N        0.70250    0.83000    0.26018    1.000
    C113     C        0.36037    0.31753    0.64579    1.000
    C114     C        0.35507    0.40623    0.59264    1.000
    C115     C        0.48787    0.34913    0.62177    1.000
    C116     C        0.37717    0.22163    0.59112    1.000
    N113     N        0.33857    0.30973    0.67883    1.000
    N114     N        0.33407    0.44613    0.59879    1.000
    N115     N        0.53857    0.36473    0.64167    1.000
    N116     N        0.36917    0.16333    0.59351    1.000
    C117     C        0.02703    0.65087    0.97913    1.000
    C118     C        0.02173    0.73957    0.92598    1.000
    C119     C        0.15453    0.68247    0.95511    1.000
    C120     C        0.04383    0.55497    0.92446    1.000
    N117     N        0.00523    0.64307    0.01217    1.000
    N118     N        0.00073    0.77947    0.93213    1.000
    N119     N        0.20523    0.69807    0.97501    1.000
    N120     N        0.03583    0.49667    0.92685    1.000
    C121     C        0.29050    0.30630    0.31246    1.000
    C122     C        0.38450    0.31160    0.25931    1.000
    C123     C        0.19460    0.17880    0.28844    1.000
    C124     C        0.17780    0.28950    0.25779    1.000
    N121     N        0.30450    0.32810    0.34550    1.000
    N122     N        0.44540    0.33260    0.26546    1.000
    N123     N        0.15950    0.12810    0.30834    1.000
    N124     N        0.12750    0.29750    0.26018    1.000
    C125     C        0.95717    0.63963    0.64579    1.000
    C126     C        0.05117    0.64493    0.59264    1.000
    C127     C        0.86127    0.51213    0.62177    1.000
    C128     C        0.84447    0.62283    0.59112    1.000
    N125     N        0.97117    0.66143    0.67883    1.000
    N126     N        0.11207    0.66593    0.59879    1.000
    N127     N        0.82617    0.46143    0.64167    1.000
    N128     N        0.79417    0.63083    0.59351    1.000
    C129     C        0.62383    0.97297    0.97913    1.000
    C130     C        0.71783    0.97827    0.92598    1.000
    C131     C        0.52793    0.84547    0.95511    1.000
    C132     C        0.51113    0.95617    0.92446    1.000
    N129     N        0.63783    0.99477    0.01217    1.000
    N130     N        0.77873    0.99927    0.93213    1.000
    N131     N        0.49283    0.79477    0.97501    1.000
    N132     N        0.46083    0.96417    0.92685    1.000
    C133     C        0.01580    0.70950    0.31246    1.000
    C134     C        0.92710    0.61550    0.25931    1.000
    C135     C        0.98420    0.80540    0.28844    1.000
    C136     C        0.11170    0.82220    0.25779    1.000
    N133     N        0.02360    0.69550    0.34550    1.000
    N134     N        0.88720    0.55460    0.26546    1.000
    N135     N        0.96860    0.84050    0.30834    1.000
    N136     N        0.17000    0.87250    0.26018    1.000
    C137     C        0.68247    0.04283    0.64579    1.000
    C138     C        0.59377    0.94883    0.59264    1.000
    C139     C        0.65087    0.13873    0.62177    1.000
    C140     C        0.77837    0.15553    0.59112    1.000
    N137     N        0.69027    0.02883    0.67883    1.000
    N138     N        0.55387    0.88793    0.59879    1.000
    N139     N        0.63527    0.17383    0.64167    1.000
    N140     N        0.83667    0.20583    0.59351    1.000
    C141     C        0.34913    0.37617    0.97913    1.000
    C142     C        0.26043    0.28217    0.92598    1.000
    C143     C        0.31753    0.47207    0.95511    1.000
    C144     C        0.44503    0.48887    0.92446    1.000
    N141     N        0.35693    0.36217    0.01217    1.000
    N142     N        0.22053    0.22127    0.93213    1.000
    N143     N        0.30193    0.50717    0.97501    1.000
    N144     N        0.50333    0.53917    0.92685    1.000
    Mo1      Mo       0.00000    0.26742    0.75000    1.000
    Mo2      Mo       0.66667    0.60075    0.08333    1.000
    Mo3      Mo       0.33333    0.93409    0.41667    1.000
    Mo4      Mo       0.73258    0.73258    0.75000    1.000
    Mo5      Mo       0.39925    0.06591    0.08333    1.000
    Mo6      Mo       0.06591    0.39925    0.41667    1.000
    Mo7      Mo       0.26742    0.00000    0.75000    1.000
    Mo8      Mo       0.93409    0.33333    0.08333    1.000
    Mo9      Mo       0.60075    0.66667    0.41667    1.000
    Mo10     Mo       0.00000    0.73258    0.25000    1.000
    Mo11     Mo       0.66667    0.06591    0.58333    1.000
    Mo12     Mo       0.33333    0.39925    0.91667    1.000
    Mo13     Mo       0.26742    0.26742    0.25000    1.000
    Mo14     Mo       0.93409    0.60075    0.58333    1.000
    Mo15     Mo       0.60075    0.93409    0.91667    1.000
    Mo16     Mo       0.73258    0.00000    0.25000    1.000
    Mo17     Mo       0.39925    0.33333    0.58333    1.000
    Mo18     Mo       0.06591    0.66667    0.91667    1.000
    Nd1      Nd       0.05181    0.38514    0.91667    1.000
    Nd2      Nd       0.71847    0.71847    0.25000    1.000
    Nd3      Nd       0.61486    0.66667    0.91667    1.000
    Nd4      Nd       0.28153    0.00000    0.25000    1.000
    Nd5      Nd       0.33333    0.94819    0.91667    1.000
    Nd6      Nd       0.00000    0.28153    0.25000    1.000
    Nd7      Nd       0.38514    0.05181    0.58333    1.000
    Nd8      Nd       0.66667    0.61486    0.58333    1.000
    Nd9      Nd       0.94819    0.33333    0.58333    1.000
    Nd10     Nd       0.94819    0.61486    0.08333    1.000
    Nd11     Nd       0.38514    0.33333    0.08333    1.000
    Nd12     Nd       0.66667    0.05181    0.08333    1.000
    Nd13     Nd       0.61486    0.94819    0.41667    1.000
    Nd14     Nd       0.28153    0.28153    0.75000    1.000
    Nd15     Nd       0.33333    0.38514    0.41667    1.000
    Nd16     Nd       0.00000    0.71847    0.75000    1.000
    Nd17     Nd       0.05181    0.66667    0.41667    1.000
    Nd18     Nd       0.71847    0.00000    0.75000    1.000
