# CIF file generated by openbabel 3.1.0, see https://openbabel.org
data_I
_chemical_name_common 'image0'
_cell_length_a 13.577
_cell_length_b 13.577
_cell_length_c 15.5394
_cell_angle_alpha 90
_cell_angle_beta 90
_cell_angle_gamma 90
_space_group_name_H-M_alt 'P 1'
_space_group_name_Hall 'P 1'
loop_
    _symmetry_equiv_pos_as_xyz
    x,y,z
loop_
    _atom_site_label
    _atom_site_type_symbol
    _atom_site_fract_x
    _atom_site_fract_y
    _atom_site_fract_z
    _atom_site_occupancy
    S1       S        0.22330    0.28496    0.10754    1.000
    O1       O        0.30670    0.10520    0.29030    1.000
    O2       O        0.35290    0.11490    0.15600    1.000
    O3       O        0.02620    0.49700    0.12330    1.000
    O4       O        0.12070    0.45310    0.01550    1.000
    C1       C        0.23000    0.22490    0.20360    1.000
    C2       C        0.16520    0.26250    0.26270    1.000
    H1       H        0.15540    0.23680    0.31750    1.000
    C3       C        0.11500    0.34570    0.22930    1.000
    H2       H        0.07150    0.38360    0.26150    1.000
    C4       C        0.13660    0.36440    0.14640    1.000
    C5       C        0.29980    0.14320    0.21670    1.000
    C6       C        0.09250    0.44290    0.09130    1.000
    S2       S        0.77670    0.71504    0.60754    1.000
    O5       O        0.69330    0.89480    0.79030    1.000
    O6       O        0.64710    0.88510    0.65600    1.000
    O7       O        0.97380    0.50300    0.62330    1.000
    O8       O        0.87930    0.54690    0.51550    1.000
    C7       C        0.77000    0.77510    0.70360    1.000
    C8       C        0.83480    0.73750    0.76270    1.000
    H3       H        0.84460    0.76320    0.81750    1.000
    C9       C        0.88500    0.65430    0.72930    1.000
    H4       H        0.92850    0.61640    0.76150    1.000
    C10      C        0.86340    0.63560    0.64640    1.000
    C11      C        0.70020    0.85680    0.71670    1.000
    C12      C        0.90750    0.55710    0.59130    1.000
    S3       S        0.71504    0.22330    0.35754    1.000
    O9       O        0.89480    0.30670    0.54030    1.000
    O10      O        0.88510    0.35290    0.40600    1.000
    O11      O        0.50300    0.02620    0.37330    1.000
    O12      O        0.54690    0.12070    0.26550    1.000
    C13      C        0.77510    0.23000    0.45360    1.000
    C14      C        0.73750    0.16520    0.51270    1.000
    H5       H        0.76320    0.15540    0.56750    1.000
    C15      C        0.65430    0.11500    0.47930    1.000
    H6       H        0.61640    0.07150    0.51150    1.000
    C16      C        0.63560    0.13660    0.39640    1.000
    C17      C        0.85680    0.29980    0.46670    1.000
    C18      C        0.55710    0.09250    0.34130    1.000
    S4       S        0.28496    0.77670    0.85754    1.000
    O13      O        0.10520    0.69330    0.04030    1.000
    O14      O        0.11490    0.64710    0.90600    1.000
    O15      O        0.49700    0.97380    0.87330    1.000
    O16      O        0.45310    0.87930    0.76550    1.000
    C19      C        0.22490    0.77000    0.95360    1.000
    C20      C        0.26250    0.83480    0.01270    1.000
    H7       H        0.23680    0.84460    0.06750    1.000
    C21      C        0.34570    0.88500    0.97930    1.000
    H8       H        0.38360    0.92850    0.01150    1.000
    C22      C        0.36440    0.86340    0.89640    1.000
    C23      C        0.14320    0.70020    0.96670    1.000
    C24      C        0.44290    0.90750    0.84130    1.000
    S5       S        0.77670    0.28496    0.89246    1.000
    O17      O        0.69330    0.10520    0.70970    1.000
    O18      O        0.64710    0.11490    0.84400    1.000
    O19      O        0.97380    0.49700    0.87670    1.000
    O20      O        0.87930    0.45310    0.98450    1.000
    C25      C        0.77000    0.22490    0.79640    1.000
    C26      C        0.83480    0.26250    0.73730    1.000
    H9       H        0.84460    0.23680    0.68250    1.000
    C27      C        0.88500    0.34570    0.77070    1.000
    H10      H        0.92850    0.38360    0.73850    1.000
    C28      C        0.86340    0.36440    0.85360    1.000
    C29      C        0.70020    0.14320    0.78330    1.000
    C30      C        0.90750    0.44290    0.90870    1.000
    S6       S        0.22330    0.71504    0.39246    1.000
    O21      O        0.30670    0.89480    0.20970    1.000
    O22      O        0.35290    0.88510    0.34400    1.000
    O23      O        0.02620    0.50300    0.37670    1.000
    O24      O        0.12070    0.54690    0.48450    1.000
    C31      C        0.23000    0.77510    0.29640    1.000
    C32      C        0.16520    0.73750    0.23730    1.000
    H11      H        0.15540    0.76320    0.18250    1.000
    C33      C        0.11500    0.65430    0.27070    1.000
    H12      H        0.07150    0.61640    0.23850    1.000
    C34      C        0.13660    0.63560    0.35360    1.000
    C35      C        0.29980    0.85680    0.28330    1.000
    C36      C        0.09250    0.55710    0.40870    1.000
    S7       S        0.28496    0.22330    0.64246    1.000
    O25      O        0.10520    0.30670    0.45970    1.000
    O26      O        0.11490    0.35290    0.59400    1.000
    O27      O        0.49700    0.02620    0.62670    1.000
    O28      O        0.45310    0.12070    0.73450    1.000
    C37      C        0.22490    0.23000    0.54640    1.000
    C38      C        0.26250    0.16520    0.48730    1.000
    H13      H        0.23680    0.15540    0.43250    1.000
    C39      C        0.34570    0.11500    0.52070    1.000
    H14      H        0.38360    0.07150    0.48850    1.000
    C40      C        0.36440    0.13660    0.60360    1.000
    C41      C        0.14320    0.29980    0.53330    1.000
    C42      C        0.44290    0.09250    0.65870    1.000
    S8       S        0.71504    0.77670    0.14246    1.000
    O29      O        0.89480    0.69330    0.95970    1.000
    O30      O        0.88510    0.64710    0.09400    1.000
    O31      O        0.50300    0.97380    0.12670    1.000
    O32      O        0.54690    0.87930    0.23450    1.000
    C43      C        0.77510    0.77000    0.04640    1.000
    C44      C        0.73750    0.83480    0.98730    1.000
    H15      H        0.76320    0.84460    0.93250    1.000
    C45      C        0.65430    0.88500    0.02070    1.000
    H16      H        0.61640    0.92850    0.98850    1.000
    C46      C        0.63560    0.86340    0.10360    1.000
    C47      C        0.85680    0.70020    0.03330    1.000
    C48      C        0.55710    0.90750    0.15870    1.000
    In1      In       0.42385    0.00000    0.25000    1.000
    In2      In       0.57615    0.00000    0.75000    1.000
    In3      In       0.00000    0.42385    0.50000    1.000
    In4      In       0.00000    0.57615    0.00000    1.000
