data_functionalizedCrystal
_audit_creation_method	'EQeq! by Chris Wilmer'
_symmetry_space_group_name_H-M	'P1'
_symmetry_Int_Tables_number	1
_symmetry_cell_setting	triclinic
loop_
_symmetry_equiv_pos_as_xyz
  x,y,z
_cell_length_a	14.6868
_cell_length_b	14.6868
_cell_length_c	14.6868
_cell_angle_alpha	109.471
_cell_angle_beta	109.471
_cell_angle_gamma	109.471
loop_
_atom_site_label
_atom_site_type_symbol
_atom_site_fract_x
_atom_site_fract_y
_atom_site_fract_z
_atom_site_charge
Mof_Co	Co	0.75	0.25	0.5	1.108
Mof_Co	Co	0.25	0.75	0.5	1.108
Mof_Co	Co	0.5	0.25	0.75	1.108
Mof_Co	Co	0.5	0.75	0.25	1.109
Mof_Co	Co	0.25	0.5	0.75	1.109
Mof_Co	Co	0.75	0.5	0.25	1.109
Mof_H 	H 	0.57397	0.35508	0.47164	0.002
Mof_H 	H 	0.88344	0.10233	0.52836	0.002
Mof_H 	H 	0.11656	0.64492	0.21889	0.003
Mof_H 	H 	0.42603	0.89767	0.78111	0.002
Mof_H 	H 	0.21889	0.11656	0.64492	0.003
Mof_H 	H 	0.78111	0.42603	0.89767	0.003
Mof_H 	H 	0.47164	0.57397	0.35508	0.002
Mof_H 	H 	0.52836	0.88344	0.10233	0.001
Mof_H 	H 	0.10233	0.52836	0.88344	0.001
Mof_H 	H 	0.35508	0.47164	0.57397	0.002
Mof_H 	H 	0.89767	0.78111	0.42603	0.002
Mof_H 	H 	0.64492	0.21889	0.11656	0.004
Mof_H 	H 	0.10233	0.88344	0.52836	0
Mof_H 	H 	0.35508	0.57397	0.47164	0.002
Mof_H 	H 	0.89767	0.42603	0.78111	0.003
Mof_H 	H 	0.64492	0.11656	0.21889	0.003
Mof_H 	H 	0.57397	0.47164	0.35508	0.002
Mof_H 	H 	0.88344	0.52836	0.10233	0.001
Mof_H 	H 	0.11656	0.21889	0.64492	0.003
Mof_H 	H 	0.42603	0.78111	0.89767	0.002
Mof_H 	H 	0.21889	0.64492	0.11656	0.004
Mof_H 	H 	0.78111	0.89767	0.42603	0.002
Mof_H 	H 	0.47164	0.35508	0.57397	0.002
Mof_H 	H 	0.52836	0.10233	0.88344	-0
Mof_C 	C 	0.5855	0.3202	0.5307	-0.011
Mof_C 	C 	0.7895	0.0548	0.4693	-0.006
Mof_C 	C 	0.2105	0.6798	0.2653	-0.011
Mof_C 	C 	0.4145	0.9452	0.7347	-0.016
Mof_C 	C 	0.2653	0.2105	0.6798	-0.011
Mof_C 	C 	0.7347	0.4145	0.9452	-0.022
Mof_C 	C 	0.5307	0.5855	0.3202	-0.011
Mof_C 	C 	0.4693	0.7895	0.0548	-0.001
Mof_C 	C 	0.0548	0.4693	0.7895	-0.007
Mof_C 	C 	0.3202	0.5307	0.5855	-0.012
Mof_C 	C 	0.9452	0.7347	0.4145	-0.015
Mof_C 	C 	0.6798	0.2653	0.2105	-0.01
Mof_C 	C 	0.0548	0.7895	0.4693	-0.007
Mof_C 	C 	0.3202	0.5855	0.5307	-0.011
Mof_C 	C 	0.9452	0.4145	0.7347	-0.015
Mof_C 	C 	0.6798	0.2105	0.2653	-0.01
Mof_C 	C 	0.5855	0.5307	0.3202	-0.011
Mof_C 	C 	0.7895	0.4693	0.0548	-0.001
Mof_C 	C 	0.2105	0.2653	0.6798	-0.011
Mof_C 	C 	0.4145	0.7347	0.9452	-0.022
Mof_C 	C 	0.2653	0.6798	0.2105	-0.011
Mof_C 	C 	0.7347	0.9452	0.4145	-0.016
Mof_C 	C 	0.5307	0.3202	0.5855	-0.011
Mof_C 	C 	0.4693	0.0548	0.7895	-0.007
Mof_C 	C 	0.63	0.2468	0.63	0.136
Mof_C 	C 	0.6786	0.1886	0.6786	-0.238
Mof_C 	C 	0.6168	2.33086e-17	0.37	0.14
Mof_C 	C 	0.51	2.33086e-17	0.3214	-0.237
Mof_C 	C 	0.3832	0.7532	0.3832	0.137
Mof_C 	C 	0.49	0.8114	0.49	-0.24
Mof_C 	C 	0.37	0	0.6168	0.139
Mof_C 	C 	0.3214	-4.66173e-17	0.51	-0.238
Mof_C 	C 	0.3832	0.3832	0.7532	0.137
Mof_C 	C 	0.49	0.49	0.8114	-0.24
Mof_C 	C 	0.6168	0.37	-0	0.141
Mof_C 	C 	0.51	0.3214	-0	-0.224
Mof_C 	C 	0.63	0.63	0.2468	0.137
Mof_C 	C 	0.6786	0.6786	0.1886	-0.241
Mof_C 	C 	0.37	0.6168	-0	0.142
Mof_C 	C 	0.3214	0.51	-0	-0.231
Mof_C 	C 	1.16543e-17	0.37	0.6168	0.139
Mof_C 	C 	-0	0.3214	0.51	-0.236
Mof_C 	C 	0.2468	0.63	0.63	0.136
Mof_C 	C 	0.1886	0.6786	0.6786	-0.24
Mof_C 	C 	3.4963e-17	0.6168	0.37	0.139
Mof_C 	C 	-0	0.51	0.3214	-0.237
Mof_C 	C 	0.7532	0.3832	0.3832	0.138
Mof_C 	C 	0.8114	0.49	0.49	-0.24
Mof_N 	N 	0.6519	0.2735	0.5588	-0.282
Mof_N 	N 	0.7147	0.0931	0.4412	-0.283
Mof_N 	N 	0.2853	0.7265	0.3784	-0.282
Mof_N 	N 	0.3481	0.9069	0.6216	-0.283
Mof_N 	N 	0.3784	0.2853	0.7265	-0.282
Mof_N 	N 	0.6216	0.3481	0.9069	-0.284
Mof_N 	N 	0.5588	0.6519	0.2735	-0.282
Mof_N 	N 	0.4412	0.7147	0.0931	-0.284
Mof_N 	N 	0.0931	0.4412	0.7147	-0.283
Mof_N 	N 	0.2735	0.5588	0.6519	-0.282
Mof_N 	N 	0.9069	0.6216	0.3481	-0.283
Mof_N 	N 	0.7265	0.3784	0.2853	-0.282
Mof_N 	N 	0.0931	0.7147	0.4412	-0.283
Mof_N 	N 	0.2735	0.6519	0.5588	-0.282
Mof_N 	N 	0.9069	0.3481	0.6216	-0.282
Mof_N 	N 	0.7265	0.2853	0.3784	-0.282
Mof_N 	N 	0.6519	0.5588	0.2735	-0.282
Mof_N 	N 	0.7147	0.4412	0.0931	-0.283
Mof_N 	N 	0.2853	0.3784	0.7265	-0.282
Mof_N 	N 	0.3481	0.6216	0.9069	-0.284
Mof_N 	N 	0.3784	0.7265	0.2853	-0.282
Mof_N 	N 	0.6216	0.9069	0.3481	-0.283
Mof_N 	N 	0.5588	0.2735	0.6519	-0.282
Mof_N 	N 	0.4412	0.0931	0.7147	-0.283
Mof_H 	H 	0.73573	0.17368	0.6461	0.032
Mof_H 	H 	0.60859	0.10522	0.65348	0.05
Mof_H 	H 	0.72864	0.2424	0.77337	0.046
Mof_H 	H 	0.43702	0.91427	0.28637	0.033
Mof_H 	H 	0.50257	0.02021	0.25164	0.051
Mof_H 	H 	0.50876	0.06552	0.38904	0.045
Mof_H 	H 	0.55908	0.87359	0.48724	0.042
Mof_H 	H 	0.51259	0.74757	0.50211	0.05
Mof_H 	H 	0.47998	0.85754	0.56231	0.036
Mof_H 	H 	0.30435	0.92212	0.43892	0.038
Mof_H 	H 	0.38268	0.07735	0.51644	0.04
Mof_H 	H 	0.24002	0.00053	0.49299	0.052
Mof_H 	H 	0.49743	0.51764	0.74907	0.049
Mof_H 	H 	0.56298	0.47725	0.84935	0.034
Mof_H 	H 	0.49124	0.55676	0.88028	0.043
Mof_H 	H 	0.48741	0.23498	0.98952	0.043
Mof_H 	H 	0.44092	0.3145	0.92815	0.036
Mof_H 	H 	0.52002	0.37756	0.08233	0.035
Mof_H 	H 	0.61732	0.69468	0.13376	0.041
Mof_H 	H 	0.69565	0.61777	0.13457	0.041
Mof_H 	H 	0.75998	0.76051	0.25297	0.051
Mof_H 	H 	0.39141	0.49663	0.0449	0.05
Mof_H 	H 	0.26427	0.43796	0.91037	0.027
Mof_H 	H 	0.27136	0.51376	0.04473	0.047
Mof_H 	H 	0.05231	0.39141	0.50087	0.048
Mof_H 	H 	0.91082	0.27132	0.4372	0.031
Mof_H 	H 	0.03687	0.26431	0.51028	0.049
Mof_H 	H 	0.1288	0.61477	0.68855	0.041
Mof_H 	H 	0.13978	0.70174	0.62079	0.038
Mof_H 	H 	0.25272	0.75644	0.76362	0.05
Mof_H 	H 	0.02356	0.50415	0.25396	0.051
Mof_H 	H 	0.91333	0.43692	0.28333	0.033
Mof_H 	H 	0.06311	0.50728	0.38975	0.045
Mof_H 	H 	0.86022	0.56196	0.481	0.038
Mof_H 	H 	0.8712	0.48597	0.55975	0.041
Mof_H 	H 	0.74728	0.50372	0.5109	0.05
_end
