# CIF file generated by openbabel 3.1.0, see https://openbabel.org
data_I
_chemical_name_common 'TUTHOG_clean'
_cell_length_a 11.9474
_cell_length_b 11.9474
_cell_length_c 16.246
_cell_angle_alpha 72.2653
_cell_angle_beta 72.2653
_cell_angle_gamma 77.7997
_space_group_name_H-M_alt 'P 1'
_space_group_name_Hall 'P 1'
loop_
    _symmetry_equiv_pos_as_xyz
    x,y,z
loop_
    _atom_site_label
    _atom_site_type_symbol
    _atom_site_fract_x
    _atom_site_fract_y
    _atom_site_fract_z
    _atom_site_occupancy
    Mn1      Mn       0.83314    0.61304    0.04752    1.000
    Mn2      Mn       0.38696    0.16686    0.45248    1.000
    Mn3      Mn       0.16686    0.38696    0.95248    1.000
    Mn4      Mn       0.61304    0.83314    0.54752    1.000
    H1       H        0.19210    0.34790    0.22410    1.000
    H2       H        0.82320    0.53020    0.47470    1.000
    H3       H        0.71090    0.35310    0.48890    1.000
    H4       H        0.85680    0.51000    0.25980    1.000
    H5       H        0.01910    0.42590    0.45810    1.000
    H6       H        0.54350    0.57690    0.32140    1.000
    H7       H        0.73550    0.62110    0.33120    1.000
    H8       H        0.66750    0.63230    0.42800    1.000
    H9       H        0.59280    0.21840    0.50620    1.000
    H10      H        0.43400    0.43220    0.33950    1.000
    H11      H        0.65210    0.80790    0.27590    1.000
    H12      H        0.46980    0.17680    0.02530    1.000
    H13      H        0.64690    0.28910    0.01110    1.000
    H14      H        0.49000    0.14320    0.24020    1.000
    H15      H        0.57410    0.98090    0.04190    1.000
    H16      H        0.42310    0.45650    0.17860    1.000
    H17      H        0.37890    0.26450    0.16880    1.000
    H18      H        0.36770    0.33250    0.07200    1.000
    H19      H        0.78160    0.40720    0.99380    1.000
    H20      H        0.56780    0.56600    0.16050    1.000
    H21      H        0.80790    0.65210    0.77590    1.000
    H22      H        0.17680    0.46980    0.52530    1.000
    H23      H        0.28910    0.64690    0.51110    1.000
    H24      H        0.14320    0.49000    0.74020    1.000
    H25      H        0.98090    0.57410    0.54190    1.000
    H26      H        0.45650    0.42310    0.67860    1.000
    H27      H        0.26450    0.37890    0.66880    1.000
    H28      H        0.33250    0.36770    0.57200    1.000
    H29      H        0.40720    0.78160    0.49380    1.000
    H30      H        0.56600    0.56780    0.66050    1.000
    H31      H        0.34790    0.19210    0.72410    1.000
    H32      H        0.53020    0.82320    0.97470    1.000
    H33      H        0.35310    0.71090    0.98890    1.000
    H34      H        0.51000    0.85680    0.75980    1.000
    H35      H        0.42590    0.01910    0.95810    1.000
    H36      H        0.57690    0.54350    0.82140    1.000
    H37      H        0.62110    0.73550    0.83120    1.000
    H38      H        0.63230    0.66750    0.92800    1.000
    H39      H        0.21840    0.59280    0.00620    1.000
    H40      H        0.43220    0.43400    0.83950    1.000
    C1       C        0.12440    0.38000    0.26030    1.000
    C2       C        0.02550    0.43110    0.22730    1.000
    C3       C        0.92050    0.48030    0.36840    1.000
    C4       C        0.65300    0.37400    0.45750    1.000
    C5       C        0.12230    0.37670    0.34730    1.000
    C6       C        0.92360    0.47880    0.28140    1.000
    C7       C        0.22390    0.31390    0.38540    1.000
    C8       C        0.64090    0.48370    0.40350    1.000
    C9       C        0.02020    0.42740    0.40030    1.000
    C10      C        0.02710    0.42870    0.13500    1.000
    C11      C        0.55710    0.50310    0.36020    1.000
    C12      C        0.71450    0.57710    0.39350    1.000
    C13      C        0.58150    0.29250    0.46710    1.000
    C14      C        0.48990    0.41490    0.37240    1.000
    C15      C        0.62000    0.87560    0.23970    1.000
    C16      C        0.56890    0.97450    0.27270    1.000
    C17      C        0.51970    0.07950    0.13160    1.000
    C18      C        0.62600    0.34700    0.04250    1.000
    C19      C        0.62330    0.87770    0.15270    1.000
    C20      C        0.52120    0.07640    0.21860    1.000
    C21      C        0.68610    0.77610    0.11460    1.000
    C22      C        0.51630    0.35910    0.09650    1.000
    C23      C        0.57260    0.97980    0.09970    1.000
    C24      C        0.57130    0.97290    0.36500    1.000
    C25      C        0.49690    0.44290    0.13980    1.000
    C26      C        0.42290    0.28550    0.10650    1.000
    C27      C        0.70750    0.41850    0.03290    1.000
    C28      C        0.58510    0.51010    0.12760    1.000
    C29      C        0.87560    0.62000    0.73970    1.000
    C30      C        0.97450    0.56890    0.77270    1.000
    C31      C        0.07950    0.51970    0.63160    1.000
    C32      C        0.34700    0.62600    0.54250    1.000
    C33      C        0.87770    0.62330    0.65270    1.000
    C34      C        0.07640    0.52120    0.71860    1.000
    C35      C        0.77610    0.68610    0.61460    1.000
    C36      C        0.35910    0.51630    0.59650    1.000
    C37      C        0.97980    0.57260    0.59970    1.000
    C38      C        0.97290    0.57130    0.86500    1.000
    C39      C        0.44290    0.49690    0.63980    1.000
    C40      C        0.28550    0.42290    0.60650    1.000
    C41      C        0.41850    0.70750    0.53290    1.000
    C42      C        0.51010    0.58510    0.62760    1.000
    C43      C        0.38000    0.12440    0.76030    1.000
    C44      C        0.43110    0.02550    0.72730    1.000
    C45      C        0.48030    0.92050    0.86840    1.000
    C46      C        0.37400    0.65300    0.95750    1.000
    C47      C        0.37670    0.12230    0.84730    1.000
    C48      C        0.47880    0.92360    0.78140    1.000
    C49      C        0.31390    0.22390    0.88540    1.000
    C50      C        0.48370    0.64090    0.90350    1.000
    C51      C        0.42740    0.02020    0.90030    1.000
    C52      C        0.42870    0.02710    0.63500    1.000
    C53      C        0.50310    0.55710    0.86020    1.000
    C54      C        0.57710    0.71450    0.89350    1.000
    C55      C        0.29250    0.58150    0.96710    1.000
    C56      C        0.41490    0.48990    0.87240    1.000
    N1       N        0.82120    0.52880    0.42260    1.000
    N2       N        0.49970    0.31050    0.42610    1.000
    N3       N        0.47120    0.17880    0.07740    1.000
    N4       N        0.68950    0.50030    0.07390    1.000
    N5       N        0.17880    0.47120    0.57740    1.000
    N6       N        0.50030    0.68950    0.57390    1.000
    N7       N        0.52880    0.82120    0.92260    1.000
    N8       N        0.31050    0.49970    0.92610    1.000
    O1       O        0.21920    0.30560    0.46530    1.000
    O2       O        0.31270    0.26530    0.33630    1.000
    O3       O        0.12290    0.38930    0.08810    1.000
    O4       O        0.93260    0.46400    0.11090    1.000
    O5       O        0.69440    0.78080    0.03470    1.000
    O6       O        0.73470    0.68730    0.16370    1.000
    O7       O        0.61070    0.87710    0.41190    1.000
    O8       O        0.53600    0.06740    0.38910    1.000
    O9       O        0.78080    0.69440    0.53470    1.000
    O10      O        0.68730    0.73470    0.66370    1.000
    O11      O        0.87710    0.61070    0.91190    1.000
    O12      O        0.06740    0.53600    0.88910    1.000
    O13      O        0.30560    0.21920    0.96530    1.000
    O14      O        0.26530    0.31270    0.83630    1.000
    O15      O        0.38930    0.12290    0.58810    1.000
    O16      O        0.46400    0.93260    0.61090    1.000
