# CIF file generated by openbabel 3.1.0, see https://openbabel.org
data_I
_chemical_name_common 'image0'
_cell_length_a 29.311
_cell_length_b 29.311
_cell_length_c 29.311
_cell_angle_alpha 90
_cell_angle_beta 90
_cell_angle_gamma 90
_space_group_name_H-M_alt 'P 1'
_space_group_name_Hall 'P 1'
loop_
    _symmetry_equiv_pos_as_xyz
    x,y,z
loop_
    _atom_site_label
    _atom_site_type_symbol
    _atom_site_fract_x
    _atom_site_fract_y
    _atom_site_fract_z
    _atom_site_occupancy
    Yb1      Yb       0.14433    0.24537    0.18293    1.000
    N1       N        0.10760    0.24980    0.81320    1.000
    O1       O        0.81940    0.25010    0.78020    1.000
    O2       O        0.81521    0.29250    0.84260    1.000
    O3       O        0.14366    0.24390    0.10805    1.000
    O4       O        0.20330    0.20330    0.08211    1.000
    O5       O        0.22326    0.24900    0.17526    1.000
    H1       H        0.23210    0.27210    0.16000    1.000
    C1       C        0.84070    0.26280    0.81620    1.000
    C2       C        0.88720    0.26640    0.81950    1.000
    C3       C        0.91410    0.24260    0.78800    1.000
    H2       H        0.90080    0.23110    0.76160    1.000
    C4       C        0.96180    0.23580    0.79580    1.000
    H3       H        0.97910    0.21890    0.77530    1.000
    C5       C        0.98140    0.25420    0.83330    1.000
    C6       C        0.95410    0.27690    0.86400    1.000
    H4       H        0.96720    0.28850    0.89040    1.000
    C7       C        0.90760    0.28310    0.85700    1.000
    H5       H        0.89050    0.29900    0.87850    1.000
    C8       C        0.06220    0.25290    0.80920    1.000
    H6       H        0.05080    0.25800    0.78000    1.000
    C9       C        0.03030    0.24940    0.84420    1.000
    C10      C        0.04780    0.24500    0.88730    1.000
    H7       H        0.02820    0.24430    0.91220    1.000
    C11      C        0.09390    0.24170    0.89430    1.000
    C12      C        0.12280    0.24460    0.85750    1.000
    H8       H        0.15400    0.24280    0.86270    1.000
    C13      C        0.16640    0.22430    0.07810    1.000
    C14      C        0.14870    0.22820    0.02920    1.000
    C15      C        0.17200    0.21050    0.99130    1.000
    H9       H        0.19990    0.19590    0.99550    1.000
    C16      C        0.15440    0.21460    0.94840    1.000
    H10      H        0.17040    0.20250    0.92380    1.000
    C17      C        0.11360    0.23630    0.94080    1.000
    C18      C        0.09050    0.25510    0.97660    1.000
    H11      H        0.06410    0.27200    0.97170    1.000
    C19      C        0.10760    0.24850    0.02120    1.000
    H12      H        0.09020    0.25820    0.04590    1.000
    Yb2      Yb       0.35567    0.75463    0.68293    1.000
    N2       N        0.39240    0.75020    0.31320    1.000
    O6       O        0.68060    0.74990    0.28020    1.000
    O7       O        0.68479    0.70750    0.34260    1.000
    O8       O        0.35634    0.75610    0.60805    1.000
    O9       O        0.29670    0.79670    0.58211    1.000
    O10      O        0.27674    0.75100    0.67526    1.000
    H13      H        0.26790    0.72790    0.66000    1.000
    C20      C        0.65930    0.73720    0.31620    1.000
    C21      C        0.61280    0.73360    0.31950    1.000
    C22      C        0.58590    0.75740    0.28800    1.000
    H14      H        0.59920    0.76890    0.26160    1.000
    C23      C        0.53820    0.76420    0.29580    1.000
    H15      H        0.52090    0.78110    0.27530    1.000
    C24      C        0.51860    0.74580    0.33330    1.000
    C25      C        0.54590    0.72310    0.36400    1.000
    H16      H        0.53280    0.71150    0.39040    1.000
    C26      C        0.59240    0.71690    0.35700    1.000
    H17      H        0.60950    0.70100    0.37850    1.000
    C27      C        0.43780    0.74710    0.30920    1.000
    H18      H        0.44920    0.74200    0.28000    1.000
    C28      C        0.46970    0.75060    0.34420    1.000
    C29      C        0.45220    0.75500    0.38730    1.000
    H19      H        0.47180    0.75570    0.41220    1.000
    C30      C        0.40610    0.75830    0.39430    1.000
    C31      C        0.37720    0.75540    0.35750    1.000
    H20      H        0.34600    0.75720    0.36270    1.000
    C32      C        0.33360    0.77570    0.57810    1.000
    C33      C        0.35130    0.77180    0.52920    1.000
    C34      C        0.32800    0.78950    0.49130    1.000
    H21      H        0.30010    0.80410    0.49550    1.000
    C35      C        0.34560    0.78540    0.44840    1.000
    H22      H        0.32960    0.79750    0.42380    1.000
    C36      C        0.38640    0.76370    0.44080    1.000
    C37      C        0.40950    0.74490    0.47660    1.000
    H23      H        0.43590    0.72800    0.47170    1.000
    C38      C        0.39240    0.75150    0.52120    1.000
    H24      H        0.40980    0.74180    0.54590    1.000
    Yb3      Yb       0.85567    0.74537    0.31707    1.000
    N3       N        0.89240    0.74980    0.68680    1.000
    O11      O        0.18060    0.75010    0.71980    1.000
    O12      O        0.18479    0.79250    0.65740    1.000
    O13      O        0.85634    0.74390    0.39195    1.000
    O14      O        0.79670    0.70330    0.41789    1.000
    O15      O        0.77674    0.74900    0.32474    1.000
    H25      H        0.76790    0.77210    0.34000    1.000
    C39      C        0.15930    0.76280    0.68380    1.000
    C40      C        0.11280    0.76640    0.68050    1.000
    C41      C        0.08590    0.74260    0.71200    1.000
    H26      H        0.09920    0.73110    0.73840    1.000
    C42      C        0.03820    0.73580    0.70420    1.000
    H27      H        0.02090    0.71890    0.72470    1.000
    C43      C        0.01860    0.75420    0.66670    1.000
    C44      C        0.04590    0.77690    0.63600    1.000
    H28      H        0.03280    0.78850    0.60960    1.000
    C45      C        0.09240    0.78310    0.64300    1.000
    H29      H        0.10950    0.79900    0.62150    1.000
    C46      C        0.93780    0.75290    0.69080    1.000
    H30      H        0.94920    0.75800    0.72000    1.000
    C47      C        0.96970    0.74940    0.65580    1.000
    C48      C        0.95220    0.74500    0.61270    1.000
    H31      H        0.97180    0.74430    0.58780    1.000
    C49      C        0.90610    0.74170    0.60570    1.000
    C50      C        0.87720    0.74460    0.64250    1.000
    H32      H        0.84600    0.74280    0.63730    1.000
    C51      C        0.83360    0.72430    0.42190    1.000
    C52      C        0.85130    0.72820    0.47080    1.000
    C53      C        0.82800    0.71050    0.50870    1.000
    H33      H        0.80010    0.69590    0.50450    1.000
    C54      C        0.84560    0.71460    0.55160    1.000
    H34      H        0.82960    0.70250    0.57620    1.000
    C55      C        0.88640    0.73630    0.55920    1.000
    C56      C        0.90950    0.75510    0.52340    1.000
    H35      H        0.93590    0.77200    0.52830    1.000
    C57      C        0.89240    0.74850    0.47880    1.000
    H36      H        0.90980    0.75820    0.45410    1.000
    Yb4      Yb       0.64433    0.25463    0.81707    1.000
    N4       N        0.60760    0.25020    0.18680    1.000
    O16      O        0.31940    0.24990    0.21980    1.000
    O17      O        0.31521    0.20750    0.15740    1.000
    O18      O        0.64366    0.25610    0.89195    1.000
    O19      O        0.70330    0.29670    0.91789    1.000
    O20      O        0.72326    0.25100    0.82474    1.000
    H37      H        0.73210    0.22790    0.84000    1.000
    C58      C        0.34070    0.23720    0.18380    1.000
    C59      C        0.38720    0.23360    0.18050    1.000
    C60      C        0.41410    0.25740    0.21200    1.000
    H38      H        0.40080    0.26890    0.23840    1.000
    C61      C        0.46180    0.26420    0.20420    1.000
    H39      H        0.47910    0.28110    0.22470    1.000
    C62      C        0.48140    0.24580    0.16670    1.000
    C63      C        0.45410    0.22310    0.13600    1.000
    H40      H        0.46720    0.21150    0.10960    1.000
    C64      C        0.40760    0.21690    0.14300    1.000
    H41      H        0.39050    0.20100    0.12150    1.000
    C65      C        0.56220    0.24710    0.19080    1.000
    H42      H        0.55080    0.24200    0.22000    1.000
    C66      C        0.53030    0.25060    0.15580    1.000
    C67      C        0.54780    0.25500    0.11270    1.000
    H43      H        0.52820    0.25570    0.08780    1.000
    C68      C        0.59390    0.25830    0.10570    1.000
    C69      C        0.62280    0.25540    0.14250    1.000
    H44      H        0.65400    0.25720    0.13730    1.000
    C70      C        0.66640    0.27570    0.92190    1.000
    C71      C        0.64870    0.27180    0.97080    1.000
    C72      C        0.67200    0.28950    0.00870    1.000
    H45      H        0.69990    0.30410    0.00450    1.000
    C73      C        0.65440    0.28540    0.05160    1.000
    H46      H        0.67040    0.29750    0.07620    1.000
    C74      C        0.61360    0.26370    0.05920    1.000
    C75      C        0.59050    0.24490    0.02340    1.000
    H47      H        0.56410    0.22800    0.02830    1.000
    C76      C        0.60760    0.25150    0.97880    1.000
    H48      H        0.59020    0.24180    0.95410    1.000
    Yb5      Yb       0.18293    0.14433    0.24537    1.000
    N5       N        0.81320    0.10760    0.24980    1.000
    O21      O        0.78020    0.81940    0.25010    1.000
    O22      O        0.84260    0.81521    0.29250    1.000
    O23      O        0.10805    0.14366    0.24390    1.000
    O24      O        0.08211    0.20330    0.20330    1.000
    O25      O        0.17526    0.22326    0.24900    1.000
    H49      H        0.16000    0.23210    0.27210    1.000
    C77      C        0.81620    0.84070    0.26280    1.000
    C78      C        0.81950    0.88720    0.26640    1.000
    C79      C        0.78800    0.91410    0.24260    1.000
    H50      H        0.76160    0.90080    0.23110    1.000
    C80      C        0.79580    0.96180    0.23580    1.000
    H51      H        0.77530    0.97910    0.21890    1.000
    C81      C        0.83330    0.98140    0.25420    1.000
    C82      C        0.86400    0.95410    0.27690    1.000
    H52      H        0.89040    0.96720    0.28850    1.000
    C83      C        0.85700    0.90760    0.28310    1.000
    H53      H        0.87850    0.89050    0.29900    1.000
    C84      C        0.80920    0.06220    0.25290    1.000
    H54      H        0.78000    0.05080    0.25800    1.000
    C85      C        0.84420    0.03030    0.24940    1.000
    C86      C        0.88730    0.04780    0.24500    1.000
    H55      H        0.91220    0.02820    0.24430    1.000
    C87      C        0.89430    0.09390    0.24170    1.000
    C88      C        0.85750    0.12280    0.24460    1.000
    H56      H        0.86270    0.15400    0.24280    1.000
    C89      C        0.07810    0.16640    0.22430    1.000
    C90      C        0.02920    0.14870    0.22820    1.000
    C91      C        0.99130    0.17200    0.21050    1.000
    H57      H        0.99550    0.19990    0.19590    1.000
    C92      C        0.94840    0.15440    0.21460    1.000
    H58      H        0.92380    0.17040    0.20250    1.000
    C93      C        0.94080    0.11360    0.23630    1.000
    C94      C        0.97660    0.09050    0.25510    1.000
    H59      H        0.97170    0.06410    0.27200    1.000
    C95      C        0.02120    0.10760    0.24850    1.000
    H60      H        0.04590    0.09020    0.25820    1.000
    Yb6      Yb       0.68293    0.35567    0.75463    1.000
    N6       N        0.31320    0.39240    0.75020    1.000
    O26      O        0.28020    0.68060    0.74990    1.000
    O27      O        0.34260    0.68479    0.70750    1.000
    O28      O        0.60805    0.35634    0.75610    1.000
    O29      O        0.58211    0.29670    0.79670    1.000
    O30      O        0.67526    0.27674    0.75100    1.000
    H61      H        0.66000    0.26790    0.72790    1.000
    C96      C        0.31620    0.65930    0.73720    1.000
    C97      C        0.31950    0.61280    0.73360    1.000
    C98      C        0.28800    0.58590    0.75740    1.000
    H62      H        0.26160    0.59920    0.76890    1.000
    C99      C        0.29580    0.53820    0.76420    1.000
    H63      H        0.27530    0.52090    0.78110    1.000
    C100     C        0.33330    0.51860    0.74580    1.000
    C101     C        0.36400    0.54590    0.72310    1.000
    H64      H        0.39040    0.53280    0.71150    1.000
    C102     C        0.35700    0.59240    0.71690    1.000
    H65      H        0.37850    0.60950    0.70100    1.000
    C103     C        0.30920    0.43780    0.74710    1.000
    H66      H        0.28000    0.44920    0.74200    1.000
    C104     C        0.34420    0.46970    0.75060    1.000
    C105     C        0.38730    0.45220    0.75500    1.000
    H67      H        0.41220    0.47180    0.75570    1.000
    C106     C        0.39430    0.40610    0.75830    1.000
    C107     C        0.35750    0.37720    0.75540    1.000
    H68      H        0.36270    0.34600    0.75720    1.000
    C108     C        0.57810    0.33360    0.77570    1.000
    C109     C        0.52920    0.35130    0.77180    1.000
    C110     C        0.49130    0.32800    0.78950    1.000
    H69      H        0.49550    0.30010    0.80410    1.000
    C111     C        0.44840    0.34560    0.78540    1.000
    H70      H        0.42380    0.32960    0.79750    1.000
    C112     C        0.44080    0.38640    0.76370    1.000
    C113     C        0.47660    0.40950    0.74490    1.000
    H71      H        0.47170    0.43590    0.72800    1.000
    C114     C        0.52120    0.39240    0.75150    1.000
    H72      H        0.54590    0.40980    0.74180    1.000
    Yb7      Yb       0.31707    0.85567    0.74537    1.000
    N7       N        0.68680    0.89240    0.74980    1.000
    O31      O        0.71980    0.18060    0.75010    1.000
    O32      O        0.65740    0.18479    0.79250    1.000
    O33      O        0.39195    0.85634    0.74390    1.000
    O34      O        0.41789    0.79670    0.70330    1.000
    O35      O        0.32474    0.77674    0.74900    1.000
    H73      H        0.34000    0.76790    0.77210    1.000
    C115     C        0.68380    0.15930    0.76280    1.000
    C116     C        0.68050    0.11280    0.76640    1.000
    C117     C        0.71200    0.08590    0.74260    1.000
    H74      H        0.73840    0.09920    0.73110    1.000
    C118     C        0.70420    0.03820    0.73580    1.000
    H75      H        0.72470    0.02090    0.71890    1.000
    C119     C        0.66670    0.01860    0.75420    1.000
    C120     C        0.63600    0.04590    0.77690    1.000
    H76      H        0.60960    0.03280    0.78850    1.000
    C121     C        0.64300    0.09240    0.78310    1.000
    H77      H        0.62150    0.10950    0.79900    1.000
    C122     C        0.69080    0.93780    0.75290    1.000
    H78      H        0.72000    0.94920    0.75800    1.000
    C123     C        0.65580    0.96970    0.74940    1.000
    C124     C        0.61270    0.95220    0.74500    1.000
    H79      H        0.58780    0.97180    0.74430    1.000
    C125     C        0.60570    0.90610    0.74170    1.000
    C126     C        0.64250    0.87720    0.74460    1.000
    H80      H        0.63730    0.84600    0.74280    1.000
    C127     C        0.42190    0.83360    0.72430    1.000
    C128     C        0.47080    0.85130    0.72820    1.000
    C129     C        0.50870    0.82800    0.71050    1.000
    H81      H        0.50450    0.80010    0.69590    1.000
    C130     C        0.55160    0.84560    0.71460    1.000
    H82      H        0.57620    0.82960    0.70250    1.000
    C131     C        0.55920    0.88640    0.73630    1.000
    C132     C        0.52340    0.90950    0.75510    1.000
    H83      H        0.52830    0.93590    0.77200    1.000
    C133     C        0.47880    0.89240    0.74850    1.000
    H84      H        0.45410    0.90980    0.75820    1.000
    Yb8      Yb       0.81707    0.64433    0.25463    1.000
    N8       N        0.18680    0.60760    0.25020    1.000
    O36      O        0.21980    0.31940    0.24990    1.000
    O37      O        0.15740    0.31521    0.20750    1.000
    O38      O        0.89195    0.64366    0.25610    1.000
    O39      O        0.91789    0.70330    0.29670    1.000
    O40      O        0.82474    0.72326    0.25100    1.000
    H85      H        0.84000    0.73210    0.22790    1.000
    C134     C        0.18380    0.34070    0.23720    1.000
    C135     C        0.18050    0.38720    0.23360    1.000
    C136     C        0.21200    0.41410    0.25740    1.000
    H86      H        0.23840    0.40080    0.26890    1.000
    C137     C        0.20420    0.46180    0.26420    1.000
    H87      H        0.22470    0.47910    0.28110    1.000
    C138     C        0.16670    0.48140    0.24580    1.000
    C139     C        0.13600    0.45410    0.22310    1.000
    H88      H        0.10960    0.46720    0.21150    1.000
    C140     C        0.14300    0.40760    0.21690    1.000
    H89      H        0.12150    0.39050    0.20100    1.000
    C141     C        0.19080    0.56220    0.24710    1.000
    H90      H        0.22000    0.55080    0.24200    1.000
    C142     C        0.15580    0.53030    0.25060    1.000
    C143     C        0.11270    0.54780    0.25500    1.000
    H91      H        0.08780    0.52820    0.25570    1.000
    C144     C        0.10570    0.59390    0.25830    1.000
    C145     C        0.14250    0.62280    0.25540    1.000
    H92      H        0.13730    0.65400    0.25720    1.000
    C146     C        0.92190    0.66640    0.27570    1.000
    C147     C        0.97080    0.64870    0.27180    1.000
    C148     C        0.00870    0.67200    0.28950    1.000
    H93      H        0.00450    0.69990    0.30410    1.000
    C149     C        0.05160    0.65440    0.28540    1.000
    H94      H        0.07620    0.67040    0.29750    1.000
    C150     C        0.05920    0.61360    0.26370    1.000
    C151     C        0.02340    0.59050    0.24490    1.000
    H95      H        0.02830    0.56410    0.22800    1.000
    C152     C        0.97880    0.60760    0.25150    1.000
    H96      H        0.95410    0.59020    0.24180    1.000
    Yb9      Yb       0.24537    0.18293    0.14433    1.000
    N9       N        0.24980    0.81320    0.10760    1.000
    O41      O        0.25010    0.78020    0.81940    1.000
    O42      O        0.29250    0.84260    0.81521    1.000
    O43      O        0.24390    0.10805    0.14366    1.000
    O44      O        0.20330    0.08211    0.20330    1.000
    O45      O        0.24900    0.17526    0.22326    1.000
    H97      H        0.27210    0.16000    0.23210    1.000
    C153     C        0.26280    0.81620    0.84070    1.000
    C154     C        0.26640    0.81950    0.88720    1.000
    C155     C        0.24260    0.78800    0.91410    1.000
    H98      H        0.23110    0.76160    0.90080    1.000
    C156     C        0.23580    0.79580    0.96180    1.000
    H99      H        0.21890    0.77530    0.97910    1.000
    C157     C        0.25420    0.83330    0.98140    1.000
    C158     C        0.27690    0.86400    0.95410    1.000
    H100     H        0.28850    0.89040    0.96720    1.000
    C159     C        0.28310    0.85700    0.90760    1.000
    H101     H        0.29900    0.87850    0.89050    1.000
    C160     C        0.25290    0.80920    0.06220    1.000
    H102     H        0.25800    0.78000    0.05080    1.000
    C161     C        0.24940    0.84420    0.03030    1.000
    C162     C        0.24500    0.88730    0.04780    1.000
    H103     H        0.24430    0.91220    0.02820    1.000
    C163     C        0.24170    0.89430    0.09390    1.000
    C164     C        0.24460    0.85750    0.12280    1.000
    H104     H        0.24280    0.86270    0.15400    1.000
    C165     C        0.22430    0.07810    0.16640    1.000
    C166     C        0.22820    0.02920    0.14870    1.000
    C167     C        0.21050    0.99130    0.17200    1.000
    H105     H        0.19590    0.99550    0.19990    1.000
    C168     C        0.21460    0.94840    0.15440    1.000
    H106     H        0.20250    0.92380    0.17040    1.000
    C169     C        0.23630    0.94080    0.11360    1.000
    C170     C        0.25510    0.97660    0.09050    1.000
    H107     H        0.27200    0.97170    0.06410    1.000
    C171     C        0.24850    0.02120    0.10760    1.000
    H108     H        0.25820    0.04590    0.09020    1.000
    Yb10     Yb       0.75463    0.68293    0.35567    1.000
    N10      N        0.75020    0.31320    0.39240    1.000
    O46      O        0.74990    0.28020    0.68060    1.000
    O47      O        0.70750    0.34260    0.68479    1.000
    O48      O        0.75610    0.60805    0.35634    1.000
    O49      O        0.79670    0.58211    0.29670    1.000
    O50      O        0.75100    0.67526    0.27674    1.000
    H109     H        0.72790    0.66000    0.26790    1.000
    C172     C        0.73720    0.31620    0.65930    1.000
    C173     C        0.73360    0.31950    0.61280    1.000
    C174     C        0.75740    0.28800    0.58590    1.000
    H110     H        0.76890    0.26160    0.59920    1.000
    C175     C        0.76420    0.29580    0.53820    1.000
    H111     H        0.78110    0.27530    0.52090    1.000
    C176     C        0.74580    0.33330    0.51860    1.000
    C177     C        0.72310    0.36400    0.54590    1.000
    H112     H        0.71150    0.39040    0.53280    1.000
    C178     C        0.71690    0.35700    0.59240    1.000
    H113     H        0.70100    0.37850    0.60950    1.000
    C179     C        0.74710    0.30920    0.43780    1.000
    H114     H        0.74200    0.28000    0.44920    1.000
    C180     C        0.75060    0.34420    0.46970    1.000
    C181     C        0.75500    0.38730    0.45220    1.000
    H115     H        0.75570    0.41220    0.47180    1.000
    C182     C        0.75830    0.39430    0.40610    1.000
    C183     C        0.75540    0.35750    0.37720    1.000
    H116     H        0.75720    0.36270    0.34600    1.000
    C184     C        0.77570    0.57810    0.33360    1.000
    C185     C        0.77180    0.52920    0.35130    1.000
    C186     C        0.78950    0.49130    0.32800    1.000
    H117     H        0.80410    0.49550    0.30010    1.000
    C187     C        0.78540    0.44840    0.34560    1.000
    H118     H        0.79750    0.42380    0.32960    1.000
    C188     C        0.76370    0.44080    0.38640    1.000
    C189     C        0.74490    0.47660    0.40950    1.000
    H119     H        0.72800    0.47170    0.43590    1.000
    C190     C        0.75150    0.52120    0.39240    1.000
    H120     H        0.74180    0.54590    0.40980    1.000
    Yb11     Yb       0.74537    0.31707    0.85567    1.000
    N11      N        0.74980    0.68680    0.89240    1.000
    O51      O        0.75010    0.71980    0.18060    1.000
    O52      O        0.79250    0.65740    0.18479    1.000
    O53      O        0.74390    0.39195    0.85634    1.000
    O54      O        0.70330    0.41789    0.79670    1.000
    O55      O        0.74900    0.32474    0.77674    1.000
    H121     H        0.77210    0.34000    0.76790    1.000
    C191     C        0.76280    0.68380    0.15930    1.000
    C192     C        0.76640    0.68050    0.11280    1.000
    C193     C        0.74260    0.71200    0.08590    1.000
    H122     H        0.73110    0.73840    0.09920    1.000
    C194     C        0.73580    0.70420    0.03820    1.000
    H123     H        0.71890    0.72470    0.02090    1.000
    C195     C        0.75420    0.66670    0.01860    1.000
    C196     C        0.77690    0.63600    0.04590    1.000
    H124     H        0.78850    0.60960    0.03280    1.000
    C197     C        0.78310    0.64300    0.09240    1.000
    H125     H        0.79900    0.62150    0.10950    1.000
    C198     C        0.75290    0.69080    0.93780    1.000
    H126     H        0.75800    0.72000    0.94920    1.000
    C199     C        0.74940    0.65580    0.96970    1.000
    C200     C        0.74500    0.61270    0.95220    1.000
    H127     H        0.74430    0.58780    0.97180    1.000
    C201     C        0.74170    0.60570    0.90610    1.000
    C202     C        0.74460    0.64250    0.87720    1.000
    H128     H        0.74280    0.63730    0.84600    1.000
    C203     C        0.72430    0.42190    0.83360    1.000
    C204     C        0.72820    0.47080    0.85130    1.000
    C205     C        0.71050    0.50870    0.82800    1.000
    H129     H        0.69590    0.50450    0.80010    1.000
    C206     C        0.71460    0.55160    0.84560    1.000
    H130     H        0.70250    0.57620    0.82960    1.000
    C207     C        0.73630    0.55920    0.88640    1.000
    C208     C        0.75510    0.52340    0.90950    1.000
    H131     H        0.77200    0.52830    0.93590    1.000
    C209     C        0.74850    0.47880    0.89240    1.000
    H132     H        0.75820    0.45410    0.90980    1.000
    Yb12     Yb       0.25463    0.81707    0.64433    1.000
    N12      N        0.25020    0.18680    0.60760    1.000
    O56      O        0.24990    0.21980    0.31940    1.000
    O57      O        0.20750    0.15740    0.31521    1.000
    O58      O        0.25610    0.89195    0.64366    1.000
    O59      O        0.29670    0.91789    0.70330    1.000
    O60      O        0.25100    0.82474    0.72326    1.000
    H133     H        0.22790    0.84000    0.73210    1.000
    C210     C        0.23720    0.18380    0.34070    1.000
    C211     C        0.23360    0.18050    0.38720    1.000
    C212     C        0.25740    0.21200    0.41410    1.000
    H134     H        0.26890    0.23840    0.40080    1.000
    C213     C        0.26420    0.20420    0.46180    1.000
    H135     H        0.28110    0.22470    0.47910    1.000
    C214     C        0.24580    0.16670    0.48140    1.000
    C215     C        0.22310    0.13600    0.45410    1.000
    H136     H        0.21150    0.10960    0.46720    1.000
    C216     C        0.21690    0.14300    0.40760    1.000
    H137     H        0.20100    0.12150    0.39050    1.000
    C217     C        0.24710    0.19080    0.56220    1.000
    H138     H        0.24200    0.22000    0.55080    1.000
    C218     C        0.25060    0.15580    0.53030    1.000
    C219     C        0.25500    0.11270    0.54780    1.000
    H139     H        0.25570    0.08780    0.52820    1.000
    C220     C        0.25830    0.10570    0.59390    1.000
    C221     C        0.25540    0.14250    0.62280    1.000
    H140     H        0.25720    0.13730    0.65400    1.000
    C222     C        0.27570    0.92190    0.66640    1.000
    C223     C        0.27180    0.97080    0.64870    1.000
    C224     C        0.28950    0.00870    0.67200    1.000
    H141     H        0.30410    0.00450    0.69990    1.000
    C225     C        0.28540    0.05160    0.65440    1.000
    H142     H        0.29750    0.07620    0.67040    1.000
    C226     C        0.26370    0.05920    0.61360    1.000
    C227     C        0.24490    0.02340    0.59050    1.000
    H143     H        0.22800    0.02830    0.56410    1.000
    C228     C        0.25150    0.97880    0.60760    1.000
    H144     H        0.24180    0.95410    0.59020    1.000
    Yb13     Yb       0.74954    0.25046    0.75046    1.000
    Yb14     Yb       0.75046    0.74954    0.25046    1.000
    Yb15     Yb       0.25046    0.75046    0.74954    1.000
    Yb16     Yb       0.24954    0.24954    0.24954    1.000
    O61      O        0.17257    0.17257    0.17257    1.000
    H145     H        0.15587    0.15587    0.15587    1.000
    O62      O        0.32743    0.82743    0.67257    1.000
    H146     H        0.34413    0.84413    0.65587    1.000
    O63      O        0.82743    0.67257    0.32743    1.000
    H147     H        0.84413    0.65587    0.34413    1.000
    O64      O        0.67257    0.32743    0.82743    1.000
    H148     H        0.65587    0.34413    0.84413    1.000
    Yb17     Yb       0.85567    0.75463    0.81707    1.000
    N13      N        0.89240    0.75020    0.18680    1.000
    O65      O        0.18060    0.74990    0.21980    1.000
    O66      O        0.18479    0.70750    0.15740    1.000
    O67      O        0.85634    0.75610    0.89195    1.000
    O68      O        0.79670    0.79670    0.91789    1.000
    O69      O        0.77674    0.75100    0.82474    1.000
    H149     H        0.76790    0.72790    0.84000    1.000
    C229     C        0.15930    0.73720    0.18380    1.000
    C230     C        0.11280    0.73360    0.18050    1.000
    C231     C        0.08590    0.75740    0.21200    1.000
    H150     H        0.09920    0.76890    0.23840    1.000
    C232     C        0.03820    0.76420    0.20420    1.000
    H151     H        0.02090    0.78110    0.22470    1.000
    C233     C        0.01860    0.74580    0.16670    1.000
    C234     C        0.04590    0.72310    0.13600    1.000
    H152     H        0.03280    0.71150    0.10960    1.000
    C235     C        0.09240    0.71690    0.14300    1.000
    H153     H        0.10950    0.70100    0.12150    1.000
    C236     C        0.93780    0.74710    0.19080    1.000
    H154     H        0.94920    0.74200    0.22000    1.000
    C237     C        0.96970    0.75060    0.15580    1.000
    C238     C        0.95220    0.75500    0.11270    1.000
    H155     H        0.97180    0.75570    0.08780    1.000
    C239     C        0.90610    0.75830    0.10570    1.000
    C240     C        0.87720    0.75540    0.14250    1.000
    H156     H        0.84600    0.75720    0.13730    1.000
    C241     C        0.83360    0.77570    0.92190    1.000
    C242     C        0.85130    0.77180    0.97080    1.000
    C243     C        0.82800    0.78950    0.00870    1.000
    H157     H        0.80010    0.80410    0.00450    1.000
    C244     C        0.84560    0.78540    0.05160    1.000
    H158     H        0.82960    0.79750    0.07620    1.000
    C245     C        0.88640    0.76370    0.05920    1.000
    C246     C        0.90950    0.74490    0.02340    1.000
    H159     H        0.93590    0.72800    0.02830    1.000
    C247     C        0.89240    0.75150    0.97880    1.000
    H160     H        0.90980    0.74180    0.95410    1.000
    Yb18     Yb       0.64433    0.24537    0.31707    1.000
    N14      N        0.60760    0.24980    0.68680    1.000
    O70      O        0.31940    0.25010    0.71980    1.000
    O71      O        0.31521    0.29250    0.65740    1.000
    O72      O        0.64366    0.24390    0.39195    1.000
    O73      O        0.70330    0.20330    0.41789    1.000
    O74      O        0.72326    0.24900    0.32474    1.000
    H161     H        0.73210    0.27210    0.34000    1.000
    C248     C        0.34070    0.26280    0.68380    1.000
    C249     C        0.38720    0.26640    0.68050    1.000
    C250     C        0.41410    0.24260    0.71200    1.000
    H162     H        0.40080    0.23110    0.73840    1.000
    C251     C        0.46180    0.23580    0.70420    1.000
    H163     H        0.47910    0.21890    0.72470    1.000
    C252     C        0.48140    0.25420    0.66670    1.000
    C253     C        0.45410    0.27690    0.63600    1.000
    H164     H        0.46720    0.28850    0.60960    1.000
    C254     C        0.40760    0.28310    0.64300    1.000
    H165     H        0.39050    0.29900    0.62150    1.000
    C255     C        0.56220    0.25290    0.69080    1.000
    H166     H        0.55080    0.25800    0.72000    1.000
    C256     C        0.53030    0.24940    0.65580    1.000
    C257     C        0.54780    0.24500    0.61270    1.000
    H167     H        0.52820    0.24430    0.58780    1.000
    C258     C        0.59390    0.24170    0.60570    1.000
    C259     C        0.62280    0.24460    0.64250    1.000
    H168     H        0.65400    0.24280    0.63730    1.000
    C260     C        0.66640    0.22430    0.42190    1.000
    C261     C        0.64870    0.22820    0.47080    1.000
    C262     C        0.67200    0.21050    0.50870    1.000
    H169     H        0.69990    0.19590    0.50450    1.000
    C263     C        0.65440    0.21460    0.55160    1.000
    H170     H        0.67040    0.20250    0.57620    1.000
    C264     C        0.61360    0.23630    0.55920    1.000
    C265     C        0.59050    0.25510    0.52340    1.000
    H171     H        0.56410    0.27200    0.52830    1.000
    C266     C        0.60760    0.24850    0.47880    1.000
    H172     H        0.59020    0.25820    0.45410    1.000
    Yb19     Yb       0.14433    0.25463    0.68293    1.000
    N15      N        0.10760    0.25020    0.31320    1.000
    O75      O        0.81940    0.24990    0.28020    1.000
    O76      O        0.81521    0.20750    0.34260    1.000
    O77      O        0.14366    0.25610    0.60805    1.000
    O78      O        0.20330    0.29670    0.58211    1.000
    O79      O        0.22326    0.25100    0.67526    1.000
    H173     H        0.23210    0.22790    0.66000    1.000
    C267     C        0.84070    0.23720    0.31620    1.000
    C268     C        0.88720    0.23360    0.31950    1.000
    C269     C        0.91410    0.25740    0.28800    1.000
    H174     H        0.90080    0.26890    0.26160    1.000
    C270     C        0.96180    0.26420    0.29580    1.000
    H175     H        0.97910    0.28110    0.27530    1.000
    C271     C        0.98140    0.24580    0.33330    1.000
    C272     C        0.95410    0.22310    0.36400    1.000
    H176     H        0.96720    0.21150    0.39040    1.000
    C273     C        0.90760    0.21690    0.35700    1.000
    H177     H        0.89050    0.20100    0.37850    1.000
    C274     C        0.06220    0.24710    0.30920    1.000
    H178     H        0.05080    0.24200    0.28000    1.000
    C275     C        0.03030    0.25060    0.34420    1.000
    C276     C        0.04780    0.25500    0.38730    1.000
    H179     H        0.02820    0.25570    0.41220    1.000
    C277     C        0.09390    0.25830    0.39430    1.000
    C278     C        0.12280    0.25540    0.35750    1.000
    H180     H        0.15400    0.25720    0.36270    1.000
    C279     C        0.16640    0.27570    0.57810    1.000
    C280     C        0.14870    0.27180    0.52920    1.000
    C281     C        0.17200    0.28950    0.49130    1.000
    H181     H        0.19990    0.30410    0.49550    1.000
    C282     C        0.15440    0.28540    0.44840    1.000
    H182     H        0.17040    0.29750    0.42380    1.000
    C283     C        0.11360    0.26370    0.44080    1.000
    C284     C        0.09050    0.24490    0.47660    1.000
    H183     H        0.06410    0.22800    0.47170    1.000
    C285     C        0.10760    0.25150    0.52120    1.000
    H184     H        0.09020    0.24180    0.54590    1.000
    Yb20     Yb       0.35567    0.74537    0.18293    1.000
    N16      N        0.39240    0.74980    0.81320    1.000
    O80      O        0.68060    0.75010    0.78020    1.000
    O81      O        0.68479    0.79250    0.84260    1.000
    O82      O        0.35634    0.74390    0.10805    1.000
    O83      O        0.29670    0.70330    0.08211    1.000
    O84      O        0.27674    0.74900    0.17526    1.000
    H185     H        0.26790    0.77210    0.16000    1.000
    C286     C        0.65930    0.76280    0.81620    1.000
    C287     C        0.61280    0.76640    0.81950    1.000
    C288     C        0.58590    0.74260    0.78800    1.000
    H186     H        0.59920    0.73110    0.76160    1.000
    C289     C        0.53820    0.73580    0.79580    1.000
    H187     H        0.52090    0.71890    0.77530    1.000
    C290     C        0.51860    0.75420    0.83330    1.000
    C291     C        0.54590    0.77690    0.86400    1.000
    H188     H        0.53280    0.78850    0.89040    1.000
    C292     C        0.59240    0.78310    0.85700    1.000
    H189     H        0.60950    0.79900    0.87850    1.000
    C293     C        0.43780    0.75290    0.80920    1.000
    H190     H        0.44920    0.75800    0.78000    1.000
    C294     C        0.46970    0.74940    0.84420    1.000
    C295     C        0.45220    0.74500    0.88730    1.000
    H191     H        0.47180    0.74430    0.91220    1.000
    C296     C        0.40610    0.74170    0.89430    1.000
    C297     C        0.37720    0.74460    0.85750    1.000
    H192     H        0.34600    0.74280    0.86270    1.000
    C298     C        0.33360    0.72430    0.07810    1.000
    C299     C        0.35130    0.72820    0.02920    1.000
    C300     C        0.32800    0.71050    0.99130    1.000
    H193     H        0.30010    0.69590    0.99550    1.000
    C301     C        0.34560    0.71460    0.94840    1.000
    H194     H        0.32960    0.70250    0.92380    1.000
    C302     C        0.38640    0.73630    0.94080    1.000
    C303     C        0.40950    0.75510    0.97660    1.000
    H195     H        0.43590    0.77200    0.97170    1.000
    C304     C        0.39240    0.74850    0.02120    1.000
    H196     H        0.40980    0.75820    0.04590    1.000
    Yb21     Yb       0.81707    0.85567    0.75463    1.000
    N17      N        0.18680    0.89240    0.75020    1.000
    O85      O        0.21980    0.18060    0.74990    1.000
    O86      O        0.15740    0.18479    0.70750    1.000
    O87      O        0.89195    0.85634    0.75610    1.000
    O88      O        0.91789    0.79670    0.79670    1.000
    O89      O        0.82474    0.77674    0.75100    1.000
    H197     H        0.84000    0.76790    0.72790    1.000
    C305     C        0.18380    0.15930    0.73720    1.000
    C306     C        0.18050    0.11280    0.73360    1.000
    C307     C        0.21200    0.08590    0.75740    1.000
    H198     H        0.23840    0.09920    0.76890    1.000
    C308     C        0.20420    0.03820    0.76420    1.000
    H199     H        0.22470    0.02090    0.78110    1.000
    C309     C        0.16670    0.01860    0.74580    1.000
    C310     C        0.13600    0.04590    0.72310    1.000
    H200     H        0.10960    0.03280    0.71150    1.000
    C311     C        0.14300    0.09240    0.71690    1.000
    H201     H        0.12150    0.10950    0.70100    1.000
    C312     C        0.19080    0.93780    0.74710    1.000
    H202     H        0.22000    0.94920    0.74200    1.000
    C313     C        0.15580    0.96970    0.75060    1.000
    C314     C        0.11270    0.95220    0.75500    1.000
    H203     H        0.08780    0.97180    0.75570    1.000
    C315     C        0.10570    0.90610    0.75830    1.000
    C316     C        0.14250    0.87720    0.75540    1.000
    H204     H        0.13730    0.84600    0.75720    1.000
    C317     C        0.92190    0.83360    0.77570    1.000
    C318     C        0.97080    0.85130    0.77180    1.000
    C319     C        0.00870    0.82800    0.78950    1.000
    H205     H        0.00450    0.80010    0.80410    1.000
    C320     C        0.05160    0.84560    0.78540    1.000
    H206     H        0.07620    0.82960    0.79750    1.000
    C321     C        0.05920    0.88640    0.76370    1.000
    C322     C        0.02340    0.90950    0.74490    1.000
    H207     H        0.02830    0.93590    0.72800    1.000
    C323     C        0.97880    0.89240    0.75150    1.000
    H208     H        0.95410    0.90980    0.74180    1.000
    Yb22     Yb       0.31707    0.64433    0.24537    1.000
    N18      N        0.68680    0.60760    0.24980    1.000
    O90      O        0.71980    0.31940    0.25010    1.000
    O91      O        0.65740    0.31521    0.29250    1.000
    O92      O        0.39195    0.64366    0.24390    1.000
    O93      O        0.41789    0.70330    0.20330    1.000
    O94      O        0.32474    0.72326    0.24900    1.000
    H209     H        0.34000    0.73210    0.27210    1.000
    C324     C        0.68380    0.34070    0.26280    1.000
    C325     C        0.68050    0.38720    0.26640    1.000
    C326     C        0.71200    0.41410    0.24260    1.000
    H210     H        0.73840    0.40080    0.23110    1.000
    C327     C        0.70420    0.46180    0.23580    1.000
    H211     H        0.72470    0.47910    0.21890    1.000
    C328     C        0.66670    0.48140    0.25420    1.000
    C329     C        0.63600    0.45410    0.27690    1.000
    H212     H        0.60960    0.46720    0.28850    1.000
    C330     C        0.64300    0.40760    0.28310    1.000
    H213     H        0.62150    0.39050    0.29900    1.000
    C331     C        0.69080    0.56220    0.25290    1.000
    H214     H        0.72000    0.55080    0.25800    1.000
    C332     C        0.65580    0.53030    0.24940    1.000
    C333     C        0.61270    0.54780    0.24500    1.000
    H215     H        0.58780    0.52820    0.24430    1.000
    C334     C        0.60570    0.59390    0.24170    1.000
    C335     C        0.64250    0.62280    0.24460    1.000
    H216     H        0.63730    0.65400    0.24280    1.000
    C336     C        0.42190    0.66640    0.22430    1.000
    C337     C        0.47080    0.64870    0.22820    1.000
    C338     C        0.50870    0.67200    0.21050    1.000
    H217     H        0.50450    0.69990    0.19590    1.000
    C339     C        0.55160    0.65440    0.21460    1.000
    H218     H        0.57620    0.67040    0.20250    1.000
    C340     C        0.55920    0.61360    0.23630    1.000
    C341     C        0.52340    0.59050    0.25510    1.000
    H219     H        0.52830    0.56410    0.27200    1.000
    C342     C        0.47880    0.60760    0.24850    1.000
    H220     H        0.45410    0.59020    0.25820    1.000
    Yb23     Yb       0.68293    0.14433    0.25463    1.000
    N19      N        0.31320    0.10760    0.25020    1.000
    O95      O        0.28020    0.81940    0.24990    1.000
    O96      O        0.34260    0.81521    0.20750    1.000
    O97      O        0.60805    0.14366    0.25610    1.000
    O98      O        0.58211    0.20330    0.29670    1.000
    O99      O        0.67526    0.22326    0.25100    1.000
    H221     H        0.66000    0.23210    0.22790    1.000
    C343     C        0.31620    0.84070    0.23720    1.000
    C344     C        0.31950    0.88720    0.23360    1.000
    C345     C        0.28800    0.91410    0.25740    1.000
    H222     H        0.26160    0.90080    0.26890    1.000
    C346     C        0.29580    0.96180    0.26420    1.000
    H223     H        0.27530    0.97910    0.28110    1.000
    C347     C        0.33330    0.98140    0.24580    1.000
    C348     C        0.36400    0.95410    0.22310    1.000
    H224     H        0.39040    0.96720    0.21150    1.000
    C349     C        0.35700    0.90760    0.21690    1.000
    H225     H        0.37850    0.89050    0.20100    1.000
    C350     C        0.30920    0.06220    0.24710    1.000
    H226     H        0.28000    0.05080    0.24200    1.000
    C351     C        0.34420    0.03030    0.25060    1.000
    C352     C        0.38730    0.04780    0.25500    1.000
    H227     H        0.41220    0.02820    0.25570    1.000
    C353     C        0.39430    0.09390    0.25830    1.000
    C354     C        0.35750    0.12280    0.25540    1.000
    H228     H        0.36270    0.15400    0.25720    1.000
    C355     C        0.57810    0.16640    0.27570    1.000
    C356     C        0.52920    0.14870    0.27180    1.000
    C357     C        0.49130    0.17200    0.28950    1.000
    H229     H        0.49550    0.19990    0.30410    1.000
    C358     C        0.44840    0.15440    0.28540    1.000
    H230     H        0.42380    0.17040    0.29750    1.000
    C359     C        0.44080    0.11360    0.26370    1.000
    C360     C        0.47660    0.09050    0.24490    1.000
    H231     H        0.47170    0.06410    0.22800    1.000
    C361     C        0.52120    0.10760    0.25150    1.000
    H232     H        0.54590    0.09020    0.24180    1.000
    Yb24     Yb       0.18293    0.35567    0.74537    1.000
    N20      N        0.81320    0.39240    0.74980    1.000
    O100     O        0.78020    0.68060    0.75010    1.000
    O101     O        0.84260    0.68479    0.79250    1.000
    O102     O        0.10805    0.35634    0.74390    1.000
    O103     O        0.08211    0.29670    0.70330    1.000
    O104     O        0.17526    0.27674    0.74900    1.000
    H233     H        0.16000    0.26790    0.77210    1.000
    C362     C        0.81620    0.65930    0.76280    1.000
    C363     C        0.81950    0.61280    0.76640    1.000
    C364     C        0.78800    0.58590    0.74260    1.000
    H234     H        0.76160    0.59920    0.73110    1.000
    C365     C        0.79580    0.53820    0.73580    1.000
    H235     H        0.77530    0.52090    0.71890    1.000
    C366     C        0.83330    0.51860    0.75420    1.000
    C367     C        0.86400    0.54590    0.77690    1.000
    H236     H        0.89040    0.53280    0.78850    1.000
    C368     C        0.85700    0.59240    0.78310    1.000
    H237     H        0.87850    0.60950    0.79900    1.000
    C369     C        0.80920    0.43780    0.75290    1.000
    H238     H        0.78000    0.44920    0.75800    1.000
    C370     C        0.84420    0.46970    0.74940    1.000
    C371     C        0.88730    0.45220    0.74500    1.000
    H239     H        0.91220    0.47180    0.74430    1.000
    C372     C        0.89430    0.40610    0.74170    1.000
    C373     C        0.85750    0.37720    0.74460    1.000
    H240     H        0.86270    0.34600    0.74280    1.000
    C374     C        0.07810    0.33360    0.72430    1.000
    C375     C        0.02920    0.35130    0.72820    1.000
    C376     C        0.99130    0.32800    0.71050    1.000
    H241     H        0.99550    0.30010    0.69590    1.000
    C377     C        0.94840    0.34560    0.71460    1.000
    H242     H        0.92380    0.32960    0.70250    1.000
    C378     C        0.94080    0.38640    0.73630    1.000
    C379     C        0.97660    0.40950    0.75510    1.000
    H243     H        0.97170    0.43590    0.77200    1.000
    C380     C        0.02120    0.39240    0.74850    1.000
    H244     H        0.04590    0.40980    0.75820    1.000
    Yb25     Yb       0.75463    0.81707    0.85567    1.000
    N21      N        0.75020    0.18680    0.89240    1.000
    O105     O        0.74990    0.21980    0.18060    1.000
    O106     O        0.70750    0.15740    0.18479    1.000
    O107     O        0.75610    0.89195    0.85634    1.000
    O108     O        0.79670    0.91789    0.79670    1.000
    O109     O        0.75100    0.82474    0.77674    1.000
    H245     H        0.72790    0.84000    0.76790    1.000
    C381     C        0.73720    0.18380    0.15930    1.000
    C382     C        0.73360    0.18050    0.11280    1.000
    C383     C        0.75740    0.21200    0.08590    1.000
    H246     H        0.76890    0.23840    0.09920    1.000
    C384     C        0.76420    0.20420    0.03820    1.000
    H247     H        0.78110    0.22470    0.02090    1.000
    C385     C        0.74580    0.16670    0.01860    1.000
    C386     C        0.72310    0.13600    0.04590    1.000
    H248     H        0.71150    0.10960    0.03280    1.000
    C387     C        0.71690    0.14300    0.09240    1.000
    H249     H        0.70100    0.12150    0.10950    1.000
    C388     C        0.74710    0.19080    0.93780    1.000
    H250     H        0.74200    0.22000    0.94920    1.000
    C389     C        0.75060    0.15580    0.96970    1.000
    C390     C        0.75500    0.11270    0.95220    1.000
    H251     H        0.75570    0.08780    0.97180    1.000
    C391     C        0.75830    0.10570    0.90610    1.000
    C392     C        0.75540    0.14250    0.87720    1.000
    H252     H        0.75720    0.13730    0.84600    1.000
    C393     C        0.77570    0.92190    0.83360    1.000
    C394     C        0.77180    0.97080    0.85130    1.000
    C395     C        0.78950    0.00870    0.82800    1.000
    H253     H        0.80410    0.00450    0.80010    1.000
    C396     C        0.78540    0.05160    0.84560    1.000
    H254     H        0.79750    0.07620    0.82960    1.000
    C397     C        0.76370    0.05920    0.88640    1.000
    C398     C        0.74490    0.02340    0.90950    1.000
    H255     H        0.72800    0.02830    0.93590    1.000
    C399     C        0.75150    0.97880    0.89240    1.000
    H256     H        0.74180    0.95410    0.90980    1.000
    Yb26     Yb       0.24537    0.31707    0.64433    1.000
    N22      N        0.24980    0.68680    0.60760    1.000
    O110     O        0.25010    0.71980    0.31940    1.000
    O111     O        0.29250    0.65740    0.31521    1.000
    O112     O        0.24390    0.39195    0.64366    1.000
    O113     O        0.20330    0.41789    0.70330    1.000
    O114     O        0.24900    0.32474    0.72326    1.000
    H257     H        0.27210    0.34000    0.73210    1.000
    C400     C        0.26280    0.68380    0.34070    1.000
    C401     C        0.26640    0.68050    0.38720    1.000
    C402     C        0.24260    0.71200    0.41410    1.000
    H258     H        0.23110    0.73840    0.40080    1.000
    C403     C        0.23580    0.70420    0.46180    1.000
    H259     H        0.21890    0.72470    0.47910    1.000
    C404     C        0.25420    0.66670    0.48140    1.000
    C405     C        0.27690    0.63600    0.45410    1.000
    H260     H        0.28850    0.60960    0.46720    1.000
    C406     C        0.28310    0.64300    0.40760    1.000
    H261     H        0.29900    0.62150    0.39050    1.000
    C407     C        0.25290    0.69080    0.56220    1.000
    H262     H        0.25800    0.72000    0.55080    1.000
    C408     C        0.24940    0.65580    0.53030    1.000
    C409     C        0.24500    0.61270    0.54780    1.000
    H263     H        0.24430    0.58780    0.52820    1.000
    C410     C        0.24170    0.60570    0.59390    1.000
    C411     C        0.24460    0.64250    0.62280    1.000
    H264     H        0.24280    0.63730    0.65400    1.000
    C412     C        0.22430    0.42190    0.66640    1.000
    C413     C        0.22820    0.47080    0.64870    1.000
    C414     C        0.21050    0.50870    0.67200    1.000
    H265     H        0.19590    0.50450    0.69990    1.000
    C415     C        0.21460    0.55160    0.65440    1.000
    H266     H        0.20250    0.57620    0.67040    1.000
    C416     C        0.23630    0.55920    0.61360    1.000
    C417     C        0.25510    0.52340    0.59050    1.000
    H267     H        0.27200    0.52830    0.56410    1.000
    C418     C        0.24850    0.47880    0.60760    1.000
    H268     H        0.25820    0.45410    0.59020    1.000
    Yb27     Yb       0.25463    0.68293    0.14433    1.000
    N23      N        0.25020    0.31320    0.10760    1.000
    O115     O        0.24990    0.28020    0.81940    1.000
    O116     O        0.20750    0.34260    0.81521    1.000
    O117     O        0.25610    0.60805    0.14366    1.000
    O118     O        0.29670    0.58211    0.20330    1.000
    O119     O        0.25100    0.67526    0.22326    1.000
    H269     H        0.22790    0.66000    0.23210    1.000
    C419     C        0.23720    0.31620    0.84070    1.000
    C420     C        0.23360    0.31950    0.88720    1.000
    C421     C        0.25740    0.28800    0.91410    1.000
    H270     H        0.26890    0.26160    0.90080    1.000
    C422     C        0.26420    0.29580    0.96180    1.000
    H271     H        0.28110    0.27530    0.97910    1.000
    C423     C        0.24580    0.33330    0.98140    1.000
    C424     C        0.22310    0.36400    0.95410    1.000
    H272     H        0.21150    0.39040    0.96720    1.000
    C425     C        0.21690    0.35700    0.90760    1.000
    H273     H        0.20100    0.37850    0.89050    1.000
    C426     C        0.24710    0.30920    0.06220    1.000
    H274     H        0.24200    0.28000    0.05080    1.000
    C427     C        0.25060    0.34420    0.03030    1.000
    C428     C        0.25500    0.38730    0.04780    1.000
    H275     H        0.25570    0.41220    0.02820    1.000
    C429     C        0.25830    0.39430    0.09390    1.000
    C430     C        0.25540    0.35750    0.12280    1.000
    H276     H        0.25720    0.36270    0.15400    1.000
    C431     C        0.27570    0.57810    0.16640    1.000
    C432     C        0.27180    0.52920    0.14870    1.000
    C433     C        0.28950    0.49130    0.17200    1.000
    H277     H        0.30410    0.49550    0.19990    1.000
    C434     C        0.28540    0.44840    0.15440    1.000
    H278     H        0.29750    0.42380    0.17040    1.000
    C435     C        0.26370    0.44080    0.11360    1.000
    C436     C        0.24490    0.47660    0.09050    1.000
    H279     H        0.22800    0.47170    0.06410    1.000
    C437     C        0.25150    0.52120    0.10760    1.000
    H280     H        0.24180    0.54590    0.09020    1.000
    Yb28     Yb       0.74537    0.18293    0.35567    1.000
    N24      N        0.74980    0.81320    0.39240    1.000
    O120     O        0.75010    0.78020    0.68060    1.000
    O121     O        0.79250    0.84260    0.68479    1.000
    O122     O        0.74390    0.10805    0.35634    1.000
    O123     O        0.70330    0.08211    0.29670    1.000
    O124     O        0.74900    0.17526    0.27674    1.000
    H281     H        0.77210    0.16000    0.26790    1.000
    C438     C        0.76280    0.81620    0.65930    1.000
    C439     C        0.76640    0.81950    0.61280    1.000
    C440     C        0.74260    0.78800    0.58590    1.000
    H282     H        0.73110    0.76160    0.59920    1.000
    C441     C        0.73580    0.79580    0.53820    1.000
    H283     H        0.71890    0.77530    0.52090    1.000
    C442     C        0.75420    0.83330    0.51860    1.000
    C443     C        0.77690    0.86400    0.54590    1.000
    H284     H        0.78850    0.89040    0.53280    1.000
    C444     C        0.78310    0.85700    0.59240    1.000
    H285     H        0.79900    0.87850    0.60950    1.000
    C445     C        0.75290    0.80920    0.43780    1.000
    H286     H        0.75800    0.78000    0.44920    1.000
    C446     C        0.74940    0.84420    0.46970    1.000
    C447     C        0.74500    0.88730    0.45220    1.000
    H287     H        0.74430    0.91220    0.47180    1.000
    C448     C        0.74170    0.89430    0.40610    1.000
    C449     C        0.74460    0.85750    0.37720    1.000
    H288     H        0.74280    0.86270    0.34600    1.000
    C450     C        0.72430    0.07810    0.33360    1.000
    C451     C        0.72820    0.02920    0.35130    1.000
    C452     C        0.71050    0.99130    0.32800    1.000
    H289     H        0.69590    0.99550    0.30010    1.000
    C453     C        0.71460    0.94840    0.34560    1.000
    H290     H        0.70250    0.92380    0.32960    1.000
    C454     C        0.73630    0.94080    0.38640    1.000
    C455     C        0.75510    0.97660    0.40950    1.000
    H291     H        0.77200    0.97170    0.43590    1.000
    C456     C        0.74850    0.02120    0.39240    1.000
    H292     H        0.75820    0.04590    0.40980    1.000
    Yb29     Yb       0.25046    0.74954    0.24954    1.000
    Yb30     Yb       0.24954    0.25046    0.74954    1.000
    Yb31     Yb       0.74954    0.24954    0.25046    1.000
    Yb32     Yb       0.75046    0.75046    0.75046    1.000
    O125     O        0.82743    0.82743    0.82743    1.000
    H293     H        0.84413    0.84413    0.84413    1.000
    O126     O        0.67257    0.17257    0.32743    1.000
    H294     H        0.65587    0.15587    0.34413    1.000
    O127     O        0.17257    0.32743    0.67257    1.000
    H295     H        0.15587    0.34413    0.65587    1.000
    O128     O        0.32743    0.67257    0.17257    1.000
    H296     H        0.34413    0.65587    0.15587    1.000
