data_functionalizedCrystal
_audit_creation_method	'EQeq! by Chris Wilmer'
_symmetry_space_group_name_H-M	'P1'
_symmetry_Int_Tables_number	1
_symmetry_cell_setting	triclinic
loop_
_symmetry_equiv_pos_as_xyz
  x,y,z
_cell_length_a	47.02
_cell_length_b	10.77
_cell_length_c	23.78
_cell_angle_alpha	90
_cell_angle_beta	94.87
_cell_angle_gamma	90
loop_
_atom_site_label
_atom_site_type_symbol
_atom_site_fract_x
_atom_site_fract_y
_atom_site_fract_z
_atom_site_charge
Mof_Co	Co	0.78453	0.34792	0.42515	1.137
Mof_Co	Co	0.49162	0.16544	0.43025	1.134
Mof_O 	O 	0.7519	0.2021	0.4189	-0.396
Mof_O 	O 	0.98184	0.1849	0.5431	-0.39
Mof_O 	O 	0.52262	0.1274	0.3769	-0.407
Mof_O 	O 	0.9187	0.0004	0.7572	-0.244
Mof_O 	O 	0.51211	0.9439	0.336	-0.282
Mof_O 	O 	0.90361	0.7945	0.6081	-0.232
Mof_O 	O 	0.87741	0.9972	0.3773	-0.315
Mof_O 	O 	0.74668	0.3664	0.3645	-0.38
Mof_O 	O 	0.85324	0.9094	0.7424	-0.247
Mof_N 	N 	0.80606	0.7331	0.8583	-0.259
Mof_O 	O 	0.87379	0.0856	0.5998	-0.243
Mof_O 	O 	0.80834	0.5058	0.4182	-0.433
Mof_O 	O 	0.63826	0.0569	0.2606	-0.31
Mof_N 	N 	0.96259	0.6889	0.4951	-0.268
Mof_O 	O 	0.97147	0.3601	0.5002	-0.389
Mof_C 	C 	0.66182	0.1068	0.2925	0.289
Mof_C 	C 	0.86233	0.2328	0.5293	-0.26
Mof_H 	H 	0.8812	0.2595	0.5325	0.135
Mof_O 	O 	0.7994	0.6096	0.4962	-0.295
Mof_C 	C 	0.82497	0.1041	0.5568	-0.27
Mof_H 	H 	0.8183	0.0404	0.5785	0.13
Mof_C 	C 	0.91191	0.002	0.4593	-0.3
Mof_H 	H 	0.9072	0.9216	0.4693	0.146
Mof_C 	C 	0.6761	0.0437	0.3362	-0.269
Mof_H 	H 	0.6695	0.9665	0.3468	0.137
Mof_N 	N 	0.96597	0.2285	0.8711	-0.277
Mof_C 	C 	0.88743	0.9425	0.6763	0.034
Mof_C 	C 	0.52855	0.0322	0.3473	0.351
Mof_N 	N 	0.81458	0.2584	0.4843	-0.266
Mof_C 	C 	0.89752	0.059	0.4133	0.316
Mof_C 	C 	0.6721	0.2217	0.2769	-0.268
Mof_H 	H 	0.6625	0.2655	0.2474	0.137
Mof_C 	C 	0.90351	0.1794	0.3991	-0.296
Mof_H 	H 	0.8935	0.2175	0.3684	0.149
Mof_C 	C 	0.9149	0.6828	0.5273	-0.247
Mof_H 	H 	0.8962	0.6537	0.522	0.13
Mof_C 	C 	0.8235	0.6678	0.8263	0.163
Mof_H 	H 	0.8248	0.5824	0.8318	-0.014
Mof_C 	C 	0.89941	0.0524	0.7127	0.001
Mof_H 	H 	0.9095	0.1097	0.69	0.046
Mof_H 	H 	0.884	0.0968	0.7286	0.052
Mof_C 	C 	0.85338	0.1359	0.5633	0.273
Mof_C 	C 	0.93361	0.0799	0.7931	0.306
Mof_C 	C 	0.7009	0.0949	0.3652	0.138
Mof_H 	H 	0.7103	0.052	0.3952	0.001
Mof_C 	C 	0.55843	0.0354	0.3257	-0.167
Mof_C 	C 	0.9352	0.6538	0.4898	0.135
Mof_H 	H 	0.9292	0.6061	0.4584	-0.035
Mof_C 	C 	0.591	0.977	0.2577	-0.261
Mof_H 	H 	0.5947	0.934	0.2252	0.128
Mof_C 	C 	0.93259	0.2074	0.7883	-0.295
Mof_H 	H 	0.9214	0.2462	0.7594	0.144
Mof_C 	C 	0.96548	0.2474	0.5087	0.354
Mof_C 	C 	0.73765	0.2629	0.3798	0.321
Mof_C 	C 	0.84237	0.2877	0.4907	0.142
Mof_H 	H 	0.8488	0.3495	0.4676	-0.024
Mof_C 	C 	0.86339	0.985	0.6334	-0.012
Mof_H 	H 	0.8571	0.9163	0.609	0.054
Mof_H 	H 	0.8473	0.0133	0.6528	0.052
Mof_C 	C 	0.8628	0.897	0.3986	0.339
Mof_C 	C 	0.94906	0.2755	0.8287	0.166
Mof_H 	H 	0.9482	0.3616	0.8258	-0.044
Mof_C 	C 	0.8301	0.8165	0.4605	0.185
Mof_H 	H 	0.8192	0.8283	0.4909	-0.018
Mof_C 	C 	0.83925	0.7191	0.7868	-0.298
Mof_H 	H 	0.8507	0.6698	0.7659	0.149
Mof_C 	C 	0.8464	0.9131	0.442	-0.33
Mof_H 	H 	0.8459	0.9901	0.4596	0.157
Mof_C 	C 	0.93354	0.0659	0.4904	0.166
Mof_H 	H 	0.9433	0.0275	0.5214	-0.007
Mof_C 	C 	0.92419	0.7586	0.5738	0.259
Mof_C 	C 	0.56397	0.9687	0.2779	0.131
Mof_H 	H 	0.5499	0.9191	0.2595	0.003
Mof_C 	C 	0.60688	0.1121	0.3345	-0.277
Mof_H 	H 	0.6212	0.1576	0.3543	0.139
Mof_C 	C 	0.57997	0.1061	0.3527	0.147
Mof_H 	H 	0.5761	0.1515	0.3844	-0.003
Mof_C 	C 	0.8301	0.7006	0.4333	-0.212
Mof_C 	C 	0.92478	0.2431	0.4314	0.164
Mof_H 	H 	0.9283	0.3257	0.4229	-0.022
Mof_C 	C 	0.94099	0.1868	0.4761	-0.201
Mof_C 	C 	0.8046	0.8541	0.848	0.162
Mof_H 	H 	0.7926	0.9016	0.8686	-0.026
Mof_C 	C 	0.87441	0.8457	0.7122	0.001
Mof_H 	H 	0.8655	0.7805	0.6887	0.043
Mof_H 	H 	0.8889	0.8089	0.7385	0.051
Mof_C 	C 	0.80598	0.1663	0.5178	0.136
Mof_H 	H 	0.7868	0.1436	0.5148	-0.037
Mof_C 	C 	0.61212	0.0479	0.2852	0.276
Mof_C 	C 	0.9132	0.8898	0.6489	-0.015
Mof_H 	H 	0.9228	0.9558	0.6302	0.054
Mof_H 	H 	0.9267	0.8543	0.6777	0.054
Mof_C 	C 	0.951	0.028	0.8357	-0.282
Mof_H 	H 	0.9524	0.9421	0.839	0.147
Mof_C 	C 	0.8636	0.7846	0.3723	-0.329
Mof_H 	H 	0.8752	0.7735	0.3429	0.159
Mof_C 	C 	0.95297	0.7919	0.5817	-0.258
Mof_H 	H 	0.9599	0.8374	0.6131	0.133
Mof_C 	C 	0.8196	0.9138	0.8088	-0.276
Mof_H 	H 	0.8174	0.9987	0.8029	0.146
Mof_C 	C 	0.7111	0.2076	0.3491	-0.17
Mof_C 	C 	0.84731	0.6878	0.3893	0.19
Mof_H 	H 	0.8479	0.6119	0.3708	-0.018
Mof_C 	C 	0.83794	0.8456	0.7785	0.307
Mof_C 	C 	0.69636	0.2714	0.3047	0.144
Mof_H 	H 	0.703	0.3483	0.2938	-0.001
Mof_C 	C 	0.8109	0.5985	0.451	0.376
Mof_C 	C 	0.9705	0.7556	0.5419	0.145
Mof_H 	H 	0.9896	0.7788	0.5475	-0.02
Mof_C 	C 	0.9664	0.1043	0.874	0.157
Mof_H 	H 	0.9777	0.0673	0.9034	-0.022
Mof_Co	Co	0.28453	0.84792	0.42515	1.136
Mof_Co	Co	0.99162	0.66544	0.43025	1.133
Mof_O 	O 	0.2519	0.7021	0.4189	-0.397
Mof_O 	O 	0.48184	0.6849	0.5431	-0.391
Mof_O 	O 	0.02262	0.6274	0.3769	-0.408
Mof_O 	O 	0.4187	0.5004	0.7572	-0.245
Mof_O 	O 	0.01211	0.4439	0.336	-0.282
Mof_O 	O 	0.40361	0.2945	0.6081	-0.232
Mof_O 	O 	0.37741	0.4972	0.3773	-0.315
Mof_O 	O 	0.24668	0.8664	0.3645	-0.38
Mof_O 	O 	0.35324	0.4094	0.7424	-0.247
Mof_N 	N 	0.30606	0.2331	0.8583	-0.259
Mof_O 	O 	0.37379	0.5856	0.5998	-0.243
Mof_O 	O 	0.30834	0.0058	0.4182	-0.433
Mof_O 	O 	0.13826	0.5569	0.2606	-0.31
Mof_N 	N 	0.46259	0.1889	0.4951	-0.268
Mof_O 	O 	0.47147	0.8601	0.5002	-0.389
Mof_C 	C 	0.16182	0.6068	0.2925	0.289
Mof_C 	C 	0.36233	0.7328	0.5293	-0.26
Mof_H 	H 	0.3812	0.7595	0.5325	0.135
Mof_O 	O 	0.2994	0.1096	0.4962	-0.295
Mof_C 	C 	0.32497	0.6041	0.5568	-0.27
Mof_H 	H 	0.3183	0.5404	0.5785	0.13
Mof_C 	C 	0.41191	0.502	0.4593	-0.299
Mof_H 	H 	0.4072	0.4216	0.4693	0.146
Mof_C 	C 	0.1761	0.5437	0.3362	-0.269
Mof_H 	H 	0.1695	0.4665	0.3468	0.137
Mof_N 	N 	0.46597	0.7285	0.8711	-0.277
Mof_C 	C 	0.38743	0.4425	0.6763	0.034
Mof_C 	C 	0.02855	0.5322	0.3473	0.351
Mof_N 	N 	0.31458	0.7584	0.4843	-0.266
Mof_C 	C 	0.39752	0.559	0.4133	0.316
Mof_C 	C 	0.1721	0.7217	0.2769	-0.268
Mof_H 	H 	0.1625	0.7655	0.2474	0.137
Mof_C 	C 	0.40351	0.6794	0.3991	-0.296
Mof_H 	H 	0.3935	0.7175	0.3684	0.149
Mof_C 	C 	0.4149	0.1828	0.5273	-0.247
Mof_H 	H 	0.3962	0.1537	0.522	0.13
Mof_C 	C 	0.3235	0.1678	0.8263	0.164
Mof_H 	H 	0.3248	0.0824	0.8318	-0.014
Mof_C 	C 	0.39941	0.5524	0.7127	0.001
Mof_H 	H 	0.4095	0.6097	0.69	0.046
Mof_H 	H 	0.384	0.5968	0.7286	0.052
Mof_C 	C 	0.35338	0.6359	0.5633	0.273
Mof_C 	C 	0.43361	0.5799	0.7931	0.307
Mof_C 	C 	0.2009	0.5949	0.3652	0.138
Mof_H 	H 	0.2103	0.552	0.3952	0.001
Mof_C 	C 	0.05843	0.5354	0.3257	-0.167
Mof_C 	C 	0.4352	0.1538	0.4898	0.135
Mof_H 	H 	0.4292	0.1061	0.4584	-0.035
Mof_C 	C 	0.091	0.477	0.2577	-0.262
Mof_H 	H 	0.0947	0.434	0.2252	0.128
Mof_C 	C 	0.43259	0.7074	0.7883	-0.295
Mof_H 	H 	0.4214	0.7462	0.7594	0.144
Mof_C 	C 	0.46548	0.7474	0.5087	0.354
Mof_C 	C 	0.23765	0.7629	0.3798	0.321
Mof_C 	C 	0.34237	0.7877	0.4907	0.143
Mof_H 	H 	0.3488	0.8495	0.4676	-0.024
Mof_C 	C 	0.36339	0.485	0.6334	-0.012
Mof_H 	H 	0.3571	0.4163	0.609	0.054
Mof_H 	H 	0.3473	0.5133	0.6528	0.051
Mof_C 	C 	0.3628	0.397	0.3986	0.339
Mof_C 	C 	0.44906	0.7755	0.8287	0.166
Mof_H 	H 	0.4482	0.8616	0.8258	-0.044
Mof_C 	C 	0.3301	0.3165	0.4605	0.185
Mof_H 	H 	0.3192	0.3283	0.4909	-0.018
Mof_C 	C 	0.33925	0.2191	0.7868	-0.298
Mof_H 	H 	0.3507	0.1698	0.7659	0.149
Mof_C 	C 	0.3464	0.4131	0.442	-0.33
Mof_H 	H 	0.3459	0.4901	0.4596	0.157
Mof_C 	C 	0.43354	0.5659	0.4904	0.166
Mof_H 	H 	0.4433	0.5275	0.5214	-0.007
Mof_C 	C 	0.42419	0.2586	0.5738	0.259
Mof_C 	C 	0.06397	0.4687	0.2779	0.131
Mof_H 	H 	0.0499	0.4191	0.2595	0.003
Mof_C 	C 	0.10688	0.6121	0.3345	-0.277
Mof_H 	H 	0.1212	0.6576	0.3543	0.139
Mof_C 	C 	0.07997	0.6061	0.3527	0.147
Mof_H 	H 	0.0761	0.6515	0.3844	-0.003
Mof_C 	C 	0.3301	0.2006	0.4333	-0.212
Mof_C 	C 	0.42478	0.7431	0.4314	0.164
Mof_H 	H 	0.4283	0.8257	0.4229	-0.022
Mof_C 	C 	0.44099	0.6868	0.4761	-0.2
Mof_C 	C 	0.3046	0.3541	0.848	0.162
Mof_H 	H 	0.2926	0.4016	0.8686	-0.026
Mof_C 	C 	0.37441	0.3457	0.7122	0.001
Mof_H 	H 	0.3655	0.2805	0.6887	0.043
Mof_H 	H 	0.3889	0.3089	0.7385	0.051
Mof_C 	C 	0.30598	0.6663	0.5178	0.137
Mof_H 	H 	0.2868	0.6436	0.5148	-0.037
Mof_C 	C 	0.11212	0.5479	0.2852	0.276
Mof_C 	C 	0.4132	0.3898	0.6489	-0.015
Mof_H 	H 	0.4228	0.4558	0.6302	0.054
Mof_H 	H 	0.4267	0.3543	0.6777	0.054
Mof_C 	C 	0.451	0.528	0.8357	-0.282
Mof_H 	H 	0.4524	0.4421	0.839	0.148
Mof_C 	C 	0.3636	0.2846	0.3723	-0.329
Mof_H 	H 	0.3752	0.2735	0.3429	0.159
Mof_C 	C 	0.45297	0.2919	0.5817	-0.258
Mof_H 	H 	0.4599	0.3374	0.6131	0.133
Mof_C 	C 	0.3196	0.4138	0.8088	-0.276
Mof_H 	H 	0.3174	0.4987	0.8029	0.146
Mof_C 	C 	0.2111	0.7076	0.3491	-0.17
Mof_C 	C 	0.34731	0.1878	0.3893	0.19
Mof_H 	H 	0.3479	0.1119	0.3708	-0.018
Mof_C 	C 	0.33794	0.3456	0.7785	0.307
Mof_C 	C 	0.19636	0.7714	0.3047	0.143
Mof_H 	H 	0.203	0.8483	0.2938	-0.001
Mof_C 	C 	0.3109	0.0985	0.451	0.376
Mof_C 	C 	0.4705	0.2556	0.5419	0.145
Mof_H 	H 	0.4896	0.2788	0.5475	-0.02
Mof_C 	C 	0.4664	0.6043	0.874	0.157
Mof_H 	H 	0.4777	0.5673	0.9034	-0.022
Mof_Co	Co	0.21547	0.34792	0.07485	1.136
Mof_Co	Co	0.50838	0.16544	0.06975	1.133
Mof_O 	O 	0.2481	0.2021	0.0811	-0.397
Mof_O 	O 	0.01816	0.1849	0.9569	-0.391
Mof_O 	O 	0.47738	0.1274	0.1231	-0.408
Mof_O 	O 	0.0813	0.0004	0.7428	-0.245
Mof_O 	O 	0.48789	0.9439	0.164	-0.282
Mof_O 	O 	0.09639	0.7945	0.8919	-0.232
Mof_O 	O 	0.12259	0.9972	0.1227	-0.315
Mof_O 	O 	0.25332	0.3664	0.1355	-0.38
Mof_O 	O 	0.14676	0.9094	0.7576	-0.247
Mof_N 	N 	0.19394	0.7331	0.6417	-0.259
Mof_O 	O 	0.12621	0.0856	0.9002	-0.243
Mof_O 	O 	0.19166	0.5058	0.0818	-0.433
Mof_O 	O 	0.36174	0.0569	0.2394	-0.31
Mof_N 	N 	0.03741	0.6889	0.0049	-0.269
Mof_O 	O 	0.02853	0.3601	0.9998	-0.389
Mof_C 	C 	0.33818	0.1068	0.2075	0.289
Mof_C 	C 	0.13767	0.2328	0.9707	-0.26
Mof_H 	H 	0.1188	0.2595	0.9675	0.135
Mof_O 	O 	0.2006	0.6096	0.0038	-0.295
Mof_C 	C 	0.17503	0.1041	0.9432	-0.27
Mof_H 	H 	0.1817	0.0404	0.9215	0.13
Mof_C 	C 	0.08809	0.002	0.0407	-0.3
Mof_H 	H 	0.0928	0.9216	0.0307	0.146
Mof_C 	C 	0.3239	0.0437	0.1638	-0.269
Mof_H 	H 	0.3305	0.9665	0.1532	0.137
Mof_N 	N 	0.03403	0.2285	0.6289	-0.277
Mof_C 	C 	0.11257	0.9425	0.8237	0.034
Mof_C 	C 	0.47145	0.0322	0.1527	0.351
Mof_N 	N 	0.18542	0.2584	0.0157	-0.266
Mof_C 	C 	0.10248	0.059	0.0867	0.316
Mof_C 	C 	0.3279	0.2217	0.2231	-0.268
Mof_H 	H 	0.3375	0.2655	0.2526	0.137
Mof_C 	C 	0.09649	0.1794	0.1009	-0.296
Mof_H 	H 	0.1065	0.2175	0.1316	0.149
Mof_C 	C 	0.0851	0.6828	0.9727	-0.247
Mof_H 	H 	0.1038	0.6537	0.978	0.13
Mof_C 	C 	0.1765	0.6678	0.6737	0.163
Mof_H 	H 	0.1752	0.5824	0.6682	-0.014
Mof_C 	C 	0.10059	0.0524	0.7873	0.001
Mof_H 	H 	0.0905	0.1097	0.81	0.046
Mof_H 	H 	0.116	0.0968	0.7714	0.052
Mof_C 	C 	0.14662	0.1359	0.9367	0.273
Mof_C 	C 	0.06639	0.0799	0.7069	0.306
Mof_C 	C 	0.2991	0.0949	0.1348	0.138
Mof_H 	H 	0.2897	0.052	0.1048	0.001
Mof_C 	C 	0.44157	0.0354	0.1743	-0.167
Mof_C 	C 	0.0648	0.6538	0.0102	0.135
Mof_H 	H 	0.0708	0.6061	0.0416	-0.035
Mof_C 	C 	0.409	0.977	0.2423	-0.261
Mof_H 	H 	0.4053	0.934	0.2748	0.128
Mof_C 	C 	0.06741	0.2074	0.7117	-0.295
Mof_H 	H 	0.0786	0.2462	0.7406	0.144
Mof_C 	C 	0.03452	0.2474	0.9913	0.354
Mof_C 	C 	0.26235	0.2629	0.1202	0.321
Mof_C 	C 	0.15763	0.2877	0.0093	0.142
Mof_H 	H 	0.1512	0.3495	0.0324	-0.024
Mof_C 	C 	0.13661	0.985	0.8666	-0.012
Mof_H 	H 	0.1429	0.9163	0.891	0.054
Mof_H 	H 	0.1527	0.0133	0.8472	0.052
Mof_C 	C 	0.1372	0.897	0.1014	0.339
Mof_C 	C 	0.05094	0.2755	0.6713	0.166
Mof_H 	H 	0.0518	0.3616	0.6742	-0.044
Mof_C 	C 	0.1699	0.8165	0.0395	0.185
Mof_H 	H 	0.1808	0.8283	0.0091	-0.018
Mof_C 	C 	0.16075	0.7191	0.7132	-0.298
Mof_H 	H 	0.1493	0.6698	0.7341	0.149
Mof_C 	C 	0.1536	0.9131	0.058	-0.33
Mof_H 	H 	0.1541	0.9901	0.0404	0.157
Mof_C 	C 	0.06646	0.0659	0.0096	0.166
Mof_H 	H 	0.0567	0.0275	0.9786	-0.007
Mof_C 	C 	0.07581	0.7586	0.9262	0.259
Mof_C 	C 	0.43603	0.9687	0.2221	0.131
Mof_H 	H 	0.4501	0.9191	0.2405	0.003
Mof_C 	C 	0.39312	0.1121	0.1655	-0.277
Mof_H 	H 	0.3788	0.1576	0.1457	0.139
Mof_C 	C 	0.42003	0.1061	0.1473	0.147
Mof_H 	H 	0.4239	0.1515	0.1156	-0.003
Mof_C 	C 	0.1699	0.7006	0.0667	-0.212
Mof_C 	C 	0.07522	0.2431	0.0686	0.164
Mof_H 	H 	0.0717	0.3257	0.0771	-0.022
Mof_C 	C 	0.05901	0.1868	0.0239	-0.201
Mof_C 	C 	0.1954	0.8541	0.652	0.162
Mof_H 	H 	0.2074	0.9016	0.6314	-0.026
Mof_C 	C 	0.12559	0.8457	0.7878	0.001
Mof_H 	H 	0.1345	0.7805	0.8113	0.043
Mof_H 	H 	0.1111	0.8089	0.7615	0.051
Mof_C 	C 	0.19402	0.1663	0.9822	0.136
Mof_H 	H 	0.2132	0.1436	0.9852	-0.037
Mof_C 	C 	0.38788	0.0479	0.2148	0.276
Mof_C 	C 	0.0868	0.8898	0.8511	-0.015
Mof_H 	H 	0.0772	0.9558	0.8698	0.054
Mof_H 	H 	0.0733	0.8543	0.8223	0.054
Mof_C 	C 	0.049	0.028	0.6643	-0.282
Mof_H 	H 	0.0476	0.9421	0.661	0.147
Mof_C 	C 	0.1364	0.7846	0.1277	-0.329
Mof_H 	H 	0.1248	0.7735	0.1571	0.159
Mof_C 	C 	0.04703	0.7919	0.9183	-0.258
Mof_H 	H 	0.0401	0.8374	0.8869	0.133
Mof_C 	C 	0.1804	0.9138	0.6912	-0.276
Mof_H 	H 	0.1826	0.9987	0.6971	0.146
Mof_C 	C 	0.2889	0.2076	0.1509	-0.17
Mof_C 	C 	0.15269	0.6878	0.1107	0.19
Mof_H 	H 	0.1521	0.6119	0.1292	-0.018
Mof_C 	C 	0.16206	0.8456	0.7215	0.307
Mof_C 	C 	0.30364	0.2714	0.1953	0.144
Mof_H 	H 	0.297	0.3483	0.2062	-0.001
Mof_C 	C 	0.1891	0.5985	0.049	0.376
Mof_C 	C 	0.0295	0.7556	0.9581	0.145
Mof_H 	H 	0.0104	0.7788	0.9525	-0.02
Mof_C 	C 	0.0336	0.1043	0.626	0.157
Mof_H 	H 	0.0223	0.0673	0.5966	-0.022
Mof_Co	Co	0.71547	0.84792	0.07485	1.136
Mof_Co	Co	0.00838	0.66544	0.06975	1.133
Mof_O 	O 	0.7481	0.7021	0.0811	-0.397
Mof_O 	O 	0.51816	0.6849	0.9569	-0.391
Mof_O 	O 	0.97738	0.6274	0.1231	-0.408
Mof_O 	O 	0.5813	0.5004	0.7428	-0.245
Mof_O 	O 	0.98789	0.4439	0.164	-0.282
Mof_O 	O 	0.59639	0.2945	0.8919	-0.232
Mof_O 	O 	0.62259	0.4972	0.1227	-0.315
Mof_O 	O 	0.75332	0.8664	0.1355	-0.38
Mof_O 	O 	0.64676	0.4094	0.7576	-0.247
Mof_N 	N 	0.69394	0.2331	0.6417	-0.259
Mof_O 	O 	0.62621	0.5856	0.9002	-0.243
Mof_O 	O 	0.69166	0.0058	0.0818	-0.433
Mof_O 	O 	0.86174	0.5569	0.2394	-0.31
Mof_N 	N 	0.53741	0.1889	0.0049	-0.268
Mof_O 	O 	0.52853	0.8601	0.9998	-0.389
Mof_C 	C 	0.83818	0.6068	0.2075	0.289
Mof_C 	C 	0.63767	0.7328	0.9707	-0.26
Mof_H 	H 	0.6188	0.7595	0.9675	0.135
Mof_O 	O 	0.7006	0.1096	0.0038	-0.295
Mof_C 	C 	0.67503	0.6041	0.9432	-0.27
Mof_H 	H 	0.6817	0.5404	0.9215	0.13
Mof_C 	C 	0.58809	0.502	0.0407	-0.299
Mof_H 	H 	0.5928	0.4216	0.0307	0.146
Mof_C 	C 	0.8239	0.5437	0.1638	-0.269
Mof_H 	H 	0.8305	0.4665	0.1532	0.137
Mof_N 	N 	0.53403	0.7285	0.6289	-0.277
Mof_C 	C 	0.61257	0.4425	0.8237	0.034
Mof_C 	C 	0.97145	0.5322	0.1527	0.351
Mof_N 	N 	0.68542	0.7584	0.0157	-0.266
Mof_C 	C 	0.60248	0.559	0.0867	0.316
Mof_C 	C 	0.8279	0.7217	0.2231	-0.268
Mof_H 	H 	0.8375	0.7655	0.2526	0.137
Mof_C 	C 	0.59649	0.6794	0.1009	-0.296
Mof_H 	H 	0.6065	0.7175	0.1316	0.149
Mof_C 	C 	0.5851	0.1828	0.9727	-0.247
Mof_H 	H 	0.6038	0.1537	0.978	0.13
Mof_C 	C 	0.6765	0.1678	0.6737	0.164
Mof_H 	H 	0.6752	0.0824	0.6682	-0.014
Mof_C 	C 	0.60059	0.5524	0.7873	0.001
Mof_H 	H 	0.5905	0.6097	0.81	0.046
Mof_H 	H 	0.616	0.5968	0.7714	0.052
Mof_C 	C 	0.64662	0.6359	0.9367	0.273
Mof_C 	C 	0.56639	0.5799	0.7069	0.307
Mof_C 	C 	0.7991	0.5949	0.1348	0.138
Mof_H 	H 	0.7897	0.552	0.1048	0.001
Mof_C 	C 	0.94157	0.5354	0.1743	-0.167
Mof_C 	C 	0.5648	0.1538	0.0102	0.135
Mof_H 	H 	0.5708	0.1061	0.0416	-0.035
Mof_C 	C 	0.909	0.477	0.2423	-0.262
Mof_H 	H 	0.9053	0.434	0.2748	0.128
Mof_C 	C 	0.56741	0.7074	0.7117	-0.295
Mof_H 	H 	0.5786	0.7462	0.7406	0.144
Mof_C 	C 	0.53452	0.7474	0.9913	0.354
Mof_C 	C 	0.76235	0.7629	0.1202	0.321
Mof_C 	C 	0.65763	0.7877	0.0093	0.142
Mof_H 	H 	0.6512	0.8495	0.0324	-0.024
Mof_C 	C 	0.63661	0.485	0.8666	-0.012
Mof_H 	H 	0.6429	0.4163	0.891	0.054
Mof_H 	H 	0.6527	0.5133	0.8472	0.051
Mof_C 	C 	0.6372	0.397	0.1014	0.339
Mof_C 	C 	0.55094	0.7755	0.6713	0.166
Mof_H 	H 	0.5518	0.8616	0.6742	-0.044
Mof_C 	C 	0.6699	0.3165	0.0395	0.185
Mof_H 	H 	0.6808	0.3283	0.0091	-0.018
Mof_C 	C 	0.66075	0.2191	0.7132	-0.298
Mof_H 	H 	0.6493	0.1698	0.7341	0.149
Mof_C 	C 	0.6536	0.4131	0.058	-0.33
Mof_H 	H 	0.6541	0.4901	0.0404	0.157
Mof_C 	C 	0.56646	0.5659	0.0096	0.166
Mof_H 	H 	0.5567	0.5275	0.9786	-0.007
Mof_C 	C 	0.57581	0.2586	0.9262	0.259
Mof_C 	C 	0.93603	0.4687	0.2221	0.131
Mof_H 	H 	0.9501	0.4191	0.2405	0.003
Mof_C 	C 	0.89312	0.6121	0.1655	-0.277
Mof_H 	H 	0.8788	0.6576	0.1457	0.139
Mof_C 	C 	0.92003	0.6061	0.1473	0.147
Mof_H 	H 	0.9239	0.6515	0.1156	-0.003
Mof_C 	C 	0.6699	0.2006	0.0667	-0.212
Mof_C 	C 	0.57522	0.7431	0.0686	0.164
Mof_H 	H 	0.5717	0.8257	0.0771	-0.022
Mof_C 	C 	0.55901	0.6868	0.0239	-0.201
Mof_C 	C 	0.6954	0.3541	0.652	0.162
Mof_H 	H 	0.7074	0.4016	0.6314	-0.026
Mof_C 	C 	0.62559	0.3457	0.7878	0.001
Mof_H 	H 	0.6345	0.2805	0.8113	0.043
Mof_H 	H 	0.6111	0.3089	0.7615	0.051
Mof_C 	C 	0.69402	0.6663	0.9822	0.137
Mof_H 	H 	0.7132	0.6436	0.9852	-0.037
Mof_C 	C 	0.88788	0.5479	0.2148	0.276
Mof_C 	C 	0.5868	0.3898	0.8511	-0.015
Mof_H 	H 	0.5772	0.4558	0.8698	0.054
Mof_H 	H 	0.5733	0.3543	0.8223	0.054
Mof_C 	C 	0.549	0.528	0.6643	-0.282
Mof_H 	H 	0.5476	0.4421	0.661	0.148
Mof_C 	C 	0.6364	0.2846	0.1277	-0.329
Mof_H 	H 	0.6248	0.2735	0.1571	0.159
Mof_C 	C 	0.54703	0.2919	0.9183	-0.258
Mof_H 	H 	0.5401	0.3374	0.8869	0.133
Mof_C 	C 	0.6804	0.4138	0.6912	-0.276
Mof_H 	H 	0.6826	0.4987	0.6971	0.146
Mof_C 	C 	0.7889	0.7076	0.1509	-0.17
Mof_C 	C 	0.65269	0.1878	0.1107	0.19
Mof_H 	H 	0.6521	0.1119	0.1292	-0.018
Mof_C 	C 	0.66206	0.3456	0.7215	0.307
Mof_C 	C 	0.80364	0.7714	0.1953	0.143
Mof_H 	H 	0.797	0.8483	0.2062	-0.001
Mof_C 	C 	0.6891	0.0985	0.049	0.376
Mof_C 	C 	0.5295	0.2556	0.9581	0.145
Mof_H 	H 	0.5104	0.2788	0.9525	-0.02
Mof_C 	C 	0.5336	0.6043	0.626	0.157
Mof_H 	H 	0.5223	0.5673	0.5966	-0.022
Mof_Co	Co	0.21547	0.65208	0.57485	1.136
Mof_Co	Co	0.50838	0.83456	0.56975	1.133
Mof_O 	O 	0.2481	0.7979	0.5811	-0.397
Mof_O 	O 	0.01816	0.8151	0.4569	-0.391
Mof_O 	O 	0.47738	0.8726	0.6231	-0.408
Mof_O 	O 	0.0813	0.9996	0.2428	-0.245
Mof_O 	O 	0.48789	0.0561	0.664	-0.282
Mof_O 	O 	0.09639	0.2055	0.3919	-0.232
Mof_O 	O 	0.12259	0.0028	0.6227	-0.315
Mof_O 	O 	0.25332	0.6336	0.6355	-0.38
Mof_O 	O 	0.14676	0.0906	0.2576	-0.247
Mof_N 	N 	0.19394	0.2669	0.1417	-0.259
Mof_O 	O 	0.12621	0.9144	0.4002	-0.243
Mof_O 	O 	0.19166	0.4942	0.5818	-0.433
Mof_O 	O 	0.36174	0.9431	0.7394	-0.31
Mof_N 	N 	0.03741	0.3111	0.5049	-0.268
Mof_O 	O 	0.02853	0.6399	0.4998	-0.389
Mof_C 	C 	0.33818	0.8932	0.7075	0.289
Mof_C 	C 	0.13767	0.7672	0.4707	-0.26
Mof_H 	H 	0.1188	0.7405	0.4675	0.135
Mof_O 	O 	0.2006	0.3904	0.5038	-0.295
Mof_C 	C 	0.17503	0.8959	0.4432	-0.27
Mof_H 	H 	0.1817	0.9596	0.4215	0.13
Mof_C 	C 	0.08809	0.998	0.5407	-0.3
Mof_H 	H 	0.0928	0.0784	0.5307	0.146
Mof_C 	C 	0.3239	0.9563	0.6638	-0.269
Mof_H 	H 	0.3305	0.0335	0.6532	0.137
Mof_N 	N 	0.03403	0.7715	0.1289	-0.277
Mof_C 	C 	0.11257	0.0575	0.3237	0.034
Mof_C 	C 	0.47145	0.9678	0.6527	0.351
Mof_N 	N 	0.18542	0.7416	0.5157	-0.266
Mof_C 	C 	0.10248	0.941	0.5867	0.316
Mof_C 	C 	0.3279	0.7783	0.7231	-0.268
Mof_H 	H 	0.3375	0.7345	0.7526	0.137
Mof_C 	C 	0.09649	0.8206	0.6009	-0.296
Mof_H 	H 	0.1065	0.7825	0.6316	0.149
Mof_C 	C 	0.0851	0.3172	0.4727	-0.247
Mof_H 	H 	0.1038	0.3463	0.478	0.13
Mof_C 	C 	0.1765	0.3322	0.1737	0.163
Mof_H 	H 	0.1752	0.4176	0.1682	-0.014
Mof_C 	C 	0.10059	0.9476	0.2873	0.001
Mof_H 	H 	0.0905	0.8903	0.31	0.046
Mof_H 	H 	0.116	0.9032	0.2714	0.052
Mof_C 	C 	0.14662	0.8641	0.4367	0.273
Mof_C 	C 	0.06639	0.9201	0.2069	0.306
Mof_C 	C 	0.2991	0.9051	0.6348	0.138
Mof_H 	H 	0.2897	0.948	0.6048	0.001
Mof_C 	C 	0.44157	0.9646	0.6743	-0.167
Mof_C 	C 	0.0648	0.3462	0.5102	0.135
Mof_H 	H 	0.0708	0.3939	0.5416	-0.035
Mof_C 	C 	0.409	0.023	0.7423	-0.261
Mof_H 	H 	0.4053	0.066	0.7748	0.128
Mof_C 	C 	0.06741	0.7926	0.2117	-0.295
Mof_H 	H 	0.0786	0.7538	0.2406	0.144
Mof_C 	C 	0.03452	0.7526	0.4913	0.354
Mof_C 	C 	0.26235	0.7371	0.6202	0.321
Mof_C 	C 	0.15763	0.7123	0.5093	0.142
Mof_H 	H 	0.1512	0.6505	0.5324	-0.024
Mof_C 	C 	0.13661	0.015	0.3666	-0.012
Mof_H 	H 	0.1429	0.0837	0.391	0.054
Mof_H 	H 	0.1527	0.9867	0.3472	0.052
Mof_C 	C 	0.1372	0.103	0.6014	0.339
Mof_C 	C 	0.05094	0.7245	0.1713	0.166
Mof_H 	H 	0.0518	0.6384	0.1742	-0.044
Mof_C 	C 	0.1699	0.1835	0.5395	0.185
Mof_H 	H 	0.1808	0.1717	0.5091	-0.018
Mof_C 	C 	0.16075	0.2809	0.2132	-0.298
Mof_H 	H 	0.1493	0.3302	0.2341	0.149
Mof_C 	C 	0.1536	0.0869	0.558	-0.33
Mof_H 	H 	0.1541	0.0099	0.5404	0.157
Mof_C 	C 	0.06646	0.9341	0.5096	0.166
Mof_H 	H 	0.0567	0.9725	0.4786	-0.007
Mof_C 	C 	0.07581	0.2414	0.4262	0.259
Mof_C 	C 	0.43603	0.0313	0.7221	0.131
Mof_H 	H 	0.4501	0.0809	0.7405	0.003
Mof_C 	C 	0.39312	0.8879	0.6655	-0.277
Mof_H 	H 	0.3788	0.8424	0.6457	0.139
Mof_C 	C 	0.42003	0.8939	0.6473	0.147
Mof_H 	H 	0.4239	0.8485	0.6156	-0.003
Mof_C 	C 	0.1699	0.2994	0.5667	-0.212
Mof_C 	C 	0.07522	0.7569	0.5686	0.164
Mof_H 	H 	0.0717	0.6743	0.5771	-0.022
Mof_C 	C 	0.05901	0.8132	0.5239	-0.201
Mof_C 	C 	0.1954	0.1459	0.152	0.162
Mof_H 	H 	0.2074	0.0984	0.1314	-0.026
Mof_C 	C 	0.12559	0.1543	0.2878	0.001
Mof_H 	H 	0.1345	0.2195	0.3113	0.043
Mof_H 	H 	0.1111	0.1911	0.2615	0.051
Mof_C 	C 	0.19402	0.8337	0.4822	0.136
Mof_H 	H 	0.2132	0.8564	0.4852	-0.037
Mof_C 	C 	0.38788	0.9521	0.7148	0.276
Mof_C 	C 	0.0868	0.1102	0.3511	-0.015
Mof_H 	H 	0.0772	0.0442	0.3698	0.054
Mof_H 	H 	0.0733	0.1457	0.3223	0.054
Mof_C 	C 	0.049	0.972	0.1643	-0.282
Mof_H 	H 	0.0476	0.0579	0.161	0.147
Mof_C 	C 	0.1364	0.2154	0.6277	-0.329
Mof_H 	H 	0.1248	0.2265	0.6571	0.159
Mof_C 	C 	0.04703	0.2081	0.4183	-0.258
Mof_H 	H 	0.0401	0.1626	0.3869	0.133
Mof_C 	C 	0.1804	0.0862	0.1912	-0.276
Mof_H 	H 	0.1826	0.0013	0.1971	0.146
Mof_C 	C 	0.2889	0.7924	0.6509	-0.17
Mof_C 	C 	0.15269	0.3122	0.6107	0.19
Mof_H 	H 	0.1521	0.3881	0.6292	-0.018
Mof_C 	C 	0.16206	0.1544	0.2215	0.307
Mof_C 	C 	0.30364	0.7286	0.6953	0.144
Mof_H 	H 	0.297	0.6517	0.7062	-0.001
Mof_C 	C 	0.1891	0.4015	0.549	0.376
Mof_C 	C 	0.0295	0.2444	0.4581	0.145
Mof_H 	H 	0.0104	0.2212	0.4525	-0.02
Mof_C 	C 	0.0336	0.8957	0.126	0.157
Mof_H 	H 	0.0223	0.9327	0.0966	-0.022
Mof_Co	Co	0.71547	0.15208	0.57485	1.136
Mof_Co	Co	0.00838	0.33456	0.56975	1.133
Mof_O 	O 	0.7481	0.2979	0.5811	-0.397
Mof_O 	O 	0.51816	0.3151	0.4569	-0.391
Mof_O 	O 	0.97738	0.3726	0.6231	-0.408
Mof_O 	O 	0.5813	0.4996	0.2428	-0.245
Mof_O 	O 	0.98789	0.5561	0.664	-0.282
Mof_O 	O 	0.59639	0.7055	0.3919	-0.232
Mof_O 	O 	0.62259	0.5028	0.6227	-0.315
Mof_O 	O 	0.75332	0.1336	0.6355	-0.38
Mof_O 	O 	0.64676	0.5906	0.2576	-0.247
Mof_N 	N 	0.69394	0.7669	0.1417	-0.259
Mof_O 	O 	0.62621	0.4144	0.4002	-0.243
Mof_O 	O 	0.69166	0.9942	0.5818	-0.433
Mof_O 	O 	0.86174	0.4431	0.7394	-0.31
Mof_N 	N 	0.53741	0.8111	0.5049	-0.268
Mof_O 	O 	0.52853	0.1399	0.4998	-0.389
Mof_C 	C 	0.83818	0.3932	0.7075	0.289
Mof_C 	C 	0.63767	0.2672	0.4707	-0.26
Mof_H 	H 	0.6188	0.2405	0.4675	0.135
Mof_O 	O 	0.7006	0.8904	0.5038	-0.295
Mof_C 	C 	0.67503	0.3959	0.4432	-0.27
Mof_H 	H 	0.6817	0.4596	0.4215	0.13
Mof_C 	C 	0.58809	0.498	0.5407	-0.299
Mof_H 	H 	0.5928	0.5784	0.5307	0.146
Mof_C 	C 	0.8239	0.4563	0.6638	-0.269
Mof_H 	H 	0.8305	0.5335	0.6532	0.137
Mof_N 	N 	0.53403	0.2715	0.1289	-0.277
Mof_C 	C 	0.61257	0.5575	0.3237	0.034
Mof_C 	C 	0.97145	0.4678	0.6527	0.351
Mof_N 	N 	0.68542	0.2416	0.5157	-0.266
Mof_C 	C 	0.60248	0.441	0.5867	0.316
Mof_C 	C 	0.8279	0.2783	0.7231	-0.268
Mof_H 	H 	0.8375	0.2345	0.7526	0.137
Mof_C 	C 	0.59649	0.3206	0.6009	-0.296
Mof_H 	H 	0.6065	0.2825	0.6316	0.149
Mof_C 	C 	0.5851	0.8172	0.4727	-0.247
Mof_H 	H 	0.6038	0.8463	0.478	0.13
Mof_C 	C 	0.6765	0.8322	0.1737	0.164
Mof_H 	H 	0.6752	0.9176	0.1682	-0.014
Mof_C 	C 	0.60059	0.4476	0.2873	0.001
Mof_H 	H 	0.5905	0.3903	0.31	0.046
Mof_H 	H 	0.616	0.4032	0.2714	0.052
Mof_C 	C 	0.64662	0.3641	0.4367	0.273
Mof_C 	C 	0.56639	0.4201	0.2069	0.307
Mof_C 	C 	0.7991	0.4051	0.6348	0.138
Mof_H 	H 	0.7897	0.448	0.6048	0.001
Mof_C 	C 	0.94157	0.4646	0.6743	-0.167
Mof_C 	C 	0.5648	0.8462	0.5102	0.135
Mof_H 	H 	0.5708	0.8939	0.5416	-0.035
Mof_C 	C 	0.909	0.523	0.7423	-0.262
Mof_H 	H 	0.9053	0.566	0.7748	0.128
Mof_C 	C 	0.56741	0.2926	0.2117	-0.295
Mof_H 	H 	0.5786	0.2538	0.2406	0.144
Mof_C 	C 	0.53452	0.2526	0.4913	0.354
Mof_C 	C 	0.76235	0.2371	0.6202	0.321
Mof_C 	C 	0.65763	0.2123	0.5093	0.143
Mof_H 	H 	0.6512	0.1505	0.5324	-0.024
Mof_C 	C 	0.63661	0.515	0.3666	-0.012
Mof_H 	H 	0.6429	0.5837	0.391	0.054
Mof_H 	H 	0.6527	0.4867	0.3472	0.051
Mof_C 	C 	0.6372	0.603	0.6014	0.339
Mof_C 	C 	0.55094	0.2245	0.1713	0.166
Mof_H 	H 	0.5518	0.1384	0.1742	-0.044
Mof_C 	C 	0.6699	0.6835	0.5395	0.185
Mof_H 	H 	0.6808	0.6717	0.5091	-0.018
Mof_C 	C 	0.66075	0.7809	0.2132	-0.298
Mof_H 	H 	0.6493	0.8302	0.2341	0.149
Mof_C 	C 	0.6536	0.5869	0.558	-0.33
Mof_H 	H 	0.6541	0.5099	0.5404	0.157
Mof_C 	C 	0.56646	0.4341	0.5096	0.166
Mof_H 	H 	0.5567	0.4725	0.4786	-0.007
Mof_C 	C 	0.57581	0.7414	0.4262	0.259
Mof_C 	C 	0.93603	0.5313	0.7221	0.131
Mof_H 	H 	0.9501	0.5809	0.7405	0.003
Mof_C 	C 	0.89312	0.3879	0.6655	-0.277
Mof_H 	H 	0.8788	0.3424	0.6457	0.139
Mof_C 	C 	0.92003	0.3939	0.6473	0.147
Mof_H 	H 	0.9239	0.3485	0.6156	-0.003
Mof_C 	C 	0.6699	0.7994	0.5667	-0.212
Mof_C 	C 	0.57522	0.2569	0.5686	0.164
Mof_H 	H 	0.5717	0.1743	0.5771	-0.022
Mof_C 	C 	0.55901	0.3132	0.5239	-0.2
Mof_C 	C 	0.6954	0.6459	0.152	0.162
Mof_H 	H 	0.7074	0.5984	0.1314	-0.026
Mof_C 	C 	0.62559	0.6543	0.2878	0.001
Mof_H 	H 	0.6345	0.7195	0.3113	0.043
Mof_H 	H 	0.6111	0.6911	0.2615	0.051
Mof_C 	C 	0.69402	0.3337	0.4822	0.137
Mof_H 	H 	0.7132	0.3564	0.4852	-0.037
Mof_C 	C 	0.88788	0.4521	0.7148	0.276
Mof_C 	C 	0.5868	0.6102	0.3511	-0.015
Mof_H 	H 	0.5772	0.5442	0.3698	0.054
Mof_H 	H 	0.5733	0.6457	0.3223	0.054
Mof_C 	C 	0.549	0.472	0.1643	-0.282
Mof_H 	H 	0.5476	0.5579	0.161	0.148
Mof_C 	C 	0.6364	0.7154	0.6277	-0.329
Mof_H 	H 	0.6248	0.7265	0.6571	0.159
Mof_C 	C 	0.54703	0.7081	0.4183	-0.258
Mof_H 	H 	0.5401	0.6626	0.3869	0.133
Mof_C 	C 	0.6804	0.5862	0.1912	-0.276
Mof_H 	H 	0.6826	0.5013	0.1971	0.146
Mof_C 	C 	0.7889	0.2924	0.6509	-0.17
Mof_C 	C 	0.65269	0.8122	0.6107	0.19
Mof_H 	H 	0.6521	0.8881	0.6292	-0.018
Mof_C 	C 	0.66206	0.6544	0.2215	0.307
Mof_C 	C 	0.80364	0.2286	0.6953	0.143
Mof_H 	H 	0.797	0.1517	0.7062	-0.001
Mof_C 	C 	0.6891	0.9015	0.549	0.376
Mof_C 	C 	0.5295	0.7444	0.4581	0.145
Mof_H 	H 	0.5104	0.7212	0.4525	-0.02
Mof_C 	C 	0.5336	0.3957	0.126	0.157
Mof_H 	H 	0.5223	0.4327	0.0966	-0.022
Mof_Co	Co	0.78453	0.65208	0.92515	1.136
Mof_Co	Co	0.49162	0.83456	0.93025	1.133
Mof_O 	O 	0.7519	0.7979	0.9189	-0.397
Mof_O 	O 	0.98184	0.8151	0.0431	-0.391
Mof_O 	O 	0.52262	0.8726	0.8769	-0.408
Mof_O 	O 	0.9187	0.9996	0.2572	-0.245
Mof_O 	O 	0.51211	0.0561	0.836	-0.282
Mof_O 	O 	0.90361	0.2055	0.1081	-0.232
Mof_O 	O 	0.87741	0.0028	0.8773	-0.315
Mof_O 	O 	0.74668	0.6336	0.8645	-0.38
Mof_O 	O 	0.85324	0.0906	0.2424	-0.247
Mof_N 	N 	0.80606	0.2669	0.3583	-0.259
Mof_O 	O 	0.87379	0.9144	0.0998	-0.243
Mof_O 	O 	0.80834	0.4942	0.9182	-0.433
Mof_O 	O 	0.63826	0.9431	0.7606	-0.31
Mof_N 	N 	0.96259	0.3111	0.9951	-0.269
Mof_O 	O 	0.97147	0.6399	0.0002	-0.389
Mof_C 	C 	0.66182	0.8932	0.7925	0.289
Mof_C 	C 	0.86233	0.7672	0.0293	-0.26
Mof_H 	H 	0.8812	0.7405	0.0325	0.135
Mof_O 	O 	0.7994	0.3904	0.9962	-0.295
Mof_C 	C 	0.82497	0.8959	0.0568	-0.27
Mof_H 	H 	0.8183	0.9596	0.0785	0.13
Mof_C 	C 	0.91191	0.998	0.9593	-0.3
Mof_H 	H 	0.9072	0.0784	0.9693	0.146
Mof_C 	C 	0.6761	0.9563	0.8362	-0.269
Mof_H 	H 	0.6695	0.0335	0.8468	0.137
Mof_N 	N 	0.96597	0.7715	0.3711	-0.277
Mof_C 	C 	0.88743	0.0575	0.1763	0.034
Mof_C 	C 	0.52855	0.9678	0.8473	0.351
Mof_N 	N 	0.81458	0.7416	0.9843	-0.266
Mof_C 	C 	0.89752	0.941	0.9133	0.316
Mof_C 	C 	0.6721	0.7783	0.7769	-0.268
Mof_H 	H 	0.6625	0.7345	0.7474	0.137
Mof_C 	C 	0.90351	0.8206	0.8991	-0.296
Mof_H 	H 	0.8935	0.7825	0.8684	0.149
Mof_C 	C 	0.9149	0.3172	0.0273	-0.247
Mof_H 	H 	0.8962	0.3463	0.022	0.13
Mof_C 	C 	0.8235	0.3322	0.3263	0.163
Mof_H 	H 	0.8248	0.4176	0.3318	-0.014
Mof_C 	C 	0.89941	0.9476	0.2127	0.001
Mof_H 	H 	0.9095	0.8903	0.19	0.046
Mof_H 	H 	0.884	0.9032	0.2286	0.052
Mof_C 	C 	0.85338	0.8641	0.0633	0.273
Mof_C 	C 	0.93361	0.9201	0.2931	0.306
Mof_C 	C 	0.7009	0.9051	0.8652	0.138
Mof_H 	H 	0.7103	0.948	0.8952	0.001
Mof_C 	C 	0.55843	0.9646	0.8257	-0.167
Mof_C 	C 	0.9352	0.3462	0.9898	0.135
Mof_H 	H 	0.9292	0.3939	0.9584	-0.035
Mof_C 	C 	0.591	0.023	0.7577	-0.261
Mof_H 	H 	0.5947	0.066	0.7252	0.128
Mof_C 	C 	0.93259	0.7926	0.2883	-0.295
Mof_H 	H 	0.9214	0.7538	0.2594	0.144
Mof_C 	C 	0.96548	0.7526	0.0087	0.354
Mof_C 	C 	0.73765	0.7371	0.8798	0.321
Mof_C 	C 	0.84237	0.7123	0.9907	0.142
Mof_H 	H 	0.8488	0.6505	0.9676	-0.024
Mof_C 	C 	0.86339	0.015	0.1334	-0.012
Mof_H 	H 	0.8571	0.0837	0.109	0.054
Mof_H 	H 	0.8473	0.9867	0.1528	0.052
Mof_C 	C 	0.8628	0.103	0.8986	0.339
Mof_C 	C 	0.94906	0.7245	0.3287	0.166
Mof_H 	H 	0.9482	0.6384	0.3258	-0.044
Mof_C 	C 	0.8301	0.1835	0.9605	0.185
Mof_H 	H 	0.8192	0.1717	0.9909	-0.018
Mof_C 	C 	0.83925	0.2809	0.2868	-0.298
Mof_H 	H 	0.8507	0.3302	0.2659	0.149
Mof_C 	C 	0.8464	0.0869	0.942	-0.33
Mof_H 	H 	0.8459	0.0099	0.9596	0.157
Mof_C 	C 	0.93354	0.9341	0.9904	0.166
Mof_H 	H 	0.9433	0.9725	0.0214	-0.007
Mof_C 	C 	0.92419	0.2414	0.0738	0.259
Mof_C 	C 	0.56397	0.0313	0.7779	0.131
Mof_H 	H 	0.5499	0.0809	0.7595	0.003
Mof_C 	C 	0.60688	0.8879	0.8345	-0.277
Mof_H 	H 	0.6212	0.8424	0.8543	0.139
Mof_C 	C 	0.57997	0.8939	0.8527	0.147
Mof_H 	H 	0.5761	0.8485	0.8844	-0.003
Mof_C 	C 	0.8301	0.2994	0.9333	-0.212
Mof_C 	C 	0.92478	0.7569	0.9314	0.164
Mof_H 	H 	0.9283	0.6743	0.9229	-0.022
Mof_C 	C 	0.94099	0.8132	0.9761	-0.201
Mof_C 	C 	0.8046	0.1459	0.348	0.162
Mof_H 	H 	0.7926	0.0984	0.3686	-0.026
Mof_C 	C 	0.87441	0.1543	0.2122	0.001
Mof_H 	H 	0.8655	0.2195	0.1887	0.043
Mof_H 	H 	0.8889	0.1911	0.2385	0.051
Mof_C 	C 	0.80598	0.8337	0.0178	0.136
Mof_H 	H 	0.7868	0.8564	0.0148	-0.037
Mof_C 	C 	0.61212	0.9521	0.7852	0.276
Mof_C 	C 	0.9132	0.1102	0.1489	-0.015
Mof_H 	H 	0.9228	0.0442	0.1302	0.054
Mof_H 	H 	0.9267	0.1457	0.1777	0.054
Mof_C 	C 	0.951	0.972	0.3357	-0.282
Mof_H 	H 	0.9524	0.0579	0.339	0.147
Mof_C 	C 	0.8636	0.2154	0.8723	-0.329
Mof_H 	H 	0.8752	0.2265	0.8429	0.159
Mof_C 	C 	0.95297	0.2081	0.0817	-0.258
Mof_H 	H 	0.9599	0.1626	0.1131	0.133
Mof_C 	C 	0.8196	0.0862	0.3088	-0.276
Mof_H 	H 	0.8174	0.0013	0.3029	0.146
Mof_C 	C 	0.7111	0.7924	0.8491	-0.17
Mof_C 	C 	0.84731	0.3122	0.8893	0.19
Mof_H 	H 	0.8479	0.3881	0.8708	-0.018
Mof_C 	C 	0.83794	0.1544	0.2785	0.307
Mof_C 	C 	0.69636	0.7286	0.8047	0.144
Mof_H 	H 	0.703	0.6517	0.7938	-0.001
Mof_C 	C 	0.8109	0.4015	0.951	0.376
Mof_C 	C 	0.9705	0.2444	0.0419	0.145
Mof_H 	H 	0.9896	0.2212	0.0475	-0.02
Mof_C 	C 	0.9664	0.8957	0.374	0.157
Mof_H 	H 	0.9777	0.9327	0.4034	-0.022
Mof_Co	Co	0.28453	0.15208	0.92515	1.136
Mof_Co	Co	0.99162	0.33456	0.93025	1.133
Mof_O 	O 	0.2519	0.2979	0.9189	-0.397
Mof_O 	O 	0.48184	0.3151	0.0431	-0.391
Mof_O 	O 	0.02262	0.3726	0.8769	-0.408
Mof_O 	O 	0.4187	0.4996	0.2572	-0.245
Mof_O 	O 	0.01211	0.5561	0.836	-0.282
Mof_O 	O 	0.40361	0.7055	0.1081	-0.232
Mof_O 	O 	0.37741	0.5028	0.8773	-0.315
Mof_O 	O 	0.24668	0.1336	0.8645	-0.38
Mof_O 	O 	0.35324	0.5906	0.2424	-0.247
Mof_N 	N 	0.30606	0.7669	0.3583	-0.259
Mof_O 	O 	0.37379	0.4144	0.0998	-0.243
Mof_O 	O 	0.30834	0.9942	0.9182	-0.433
Mof_O 	O 	0.13826	0.4431	0.7606	-0.31
Mof_N 	N 	0.46259	0.8111	0.9951	-0.268
Mof_O 	O 	0.47147	0.1399	0.0002	-0.389
Mof_C 	C 	0.16182	0.3932	0.7925	0.289
Mof_C 	C 	0.36233	0.2672	0.0293	-0.26
Mof_H 	H 	0.3812	0.2405	0.0325	0.135
Mof_O 	O 	0.2994	0.8904	0.9962	-0.295
Mof_C 	C 	0.32497	0.3959	0.0568	-0.27
Mof_H 	H 	0.3183	0.4596	0.0785	0.13
Mof_C 	C 	0.41191	0.498	0.9593	-0.299
Mof_H 	H 	0.4072	0.5784	0.9693	0.146
Mof_C 	C 	0.1761	0.4563	0.8362	-0.269
Mof_H 	H 	0.1695	0.5335	0.8468	0.137
Mof_N 	N 	0.46597	0.2715	0.3711	-0.277
Mof_C 	C 	0.38743	0.5575	0.1763	0.034
Mof_C 	C 	0.02855	0.4678	0.8473	0.351
Mof_N 	N 	0.31458	0.2416	0.9843	-0.266
Mof_C 	C 	0.39752	0.441	0.9133	0.316
Mof_C 	C 	0.1721	0.2783	0.7769	-0.268
Mof_H 	H 	0.1625	0.2345	0.7474	0.137
Mof_C 	C 	0.40351	0.3206	0.8991	-0.296
Mof_H 	H 	0.3935	0.2825	0.8684	0.149
Mof_C 	C 	0.4149	0.8172	0.0273	-0.247
Mof_H 	H 	0.3962	0.8463	0.022	0.13
Mof_C 	C 	0.3235	0.8322	0.3263	0.164
Mof_H 	H 	0.3248	0.9176	0.3318	-0.014
Mof_C 	C 	0.39941	0.4476	0.2127	0.001
Mof_H 	H 	0.4095	0.3903	0.19	0.046
Mof_H 	H 	0.384	0.4032	0.2286	0.052
Mof_C 	C 	0.35338	0.3641	0.0633	0.273
Mof_C 	C 	0.43361	0.4201	0.2931	0.307
Mof_C 	C 	0.2009	0.4051	0.8652	0.138
Mof_H 	H 	0.2103	0.448	0.8952	0.001
Mof_C 	C 	0.05843	0.4646	0.8257	-0.167
Mof_C 	C 	0.4352	0.8462	0.9898	0.135
Mof_H 	H 	0.4292	0.8939	0.9584	-0.035
Mof_C 	C 	0.091	0.523	0.7577	-0.262
Mof_H 	H 	0.0947	0.566	0.7252	0.128
Mof_C 	C 	0.43259	0.2926	0.2883	-0.295
Mof_H 	H 	0.4214	0.2538	0.2594	0.144
Mof_C 	C 	0.46548	0.2526	0.0087	0.354
Mof_C 	C 	0.23765	0.2371	0.8798	0.321
Mof_C 	C 	0.34237	0.2123	0.9907	0.142
Mof_H 	H 	0.3488	0.1505	0.9676	-0.024
Mof_C 	C 	0.36339	0.515	0.1334	-0.012
Mof_H 	H 	0.3571	0.5837	0.109	0.054
Mof_H 	H 	0.3473	0.4867	0.1528	0.051
Mof_C 	C 	0.3628	0.603	0.8986	0.339
Mof_C 	C 	0.44906	0.2245	0.3287	0.166
Mof_H 	H 	0.4482	0.1384	0.3258	-0.044
Mof_C 	C 	0.3301	0.6835	0.9605	0.185
Mof_H 	H 	0.3192	0.6717	0.9909	-0.018
Mof_C 	C 	0.33925	0.7809	0.2868	-0.298
Mof_H 	H 	0.3507	0.8302	0.2659	0.149
Mof_C 	C 	0.3464	0.5869	0.942	-0.33
Mof_H 	H 	0.3459	0.5099	0.9596	0.157
Mof_C 	C 	0.43354	0.4341	0.9904	0.166
Mof_H 	H 	0.4433	0.4725	0.0214	-0.007
Mof_C 	C 	0.42419	0.7414	0.0738	0.259
Mof_C 	C 	0.06397	0.5313	0.7779	0.131
Mof_H 	H 	0.0499	0.5809	0.7595	0.003
Mof_C 	C 	0.10688	0.3879	0.8345	-0.277
Mof_H 	H 	0.1212	0.3424	0.8543	0.139
Mof_C 	C 	0.07997	0.3939	0.8527	0.147
Mof_H 	H 	0.0761	0.3485	0.8844	-0.003
Mof_C 	C 	0.3301	0.7994	0.9333	-0.212
Mof_C 	C 	0.42478	0.2569	0.9314	0.164
Mof_H 	H 	0.4283	0.1743	0.9229	-0.022
Mof_C 	C 	0.44099	0.3132	0.9761	-0.201
Mof_C 	C 	0.3046	0.6459	0.348	0.162
Mof_H 	H 	0.2926	0.5984	0.3686	-0.026
Mof_C 	C 	0.37441	0.6543	0.2122	0.001
Mof_H 	H 	0.3655	0.7195	0.1887	0.043
Mof_H 	H 	0.3889	0.6911	0.2385	0.051
Mof_C 	C 	0.30598	0.3337	0.0178	0.137
Mof_H 	H 	0.2868	0.3564	0.0148	-0.037
Mof_C 	C 	0.11212	0.4521	0.7852	0.276
Mof_C 	C 	0.4132	0.6102	0.1489	-0.015
Mof_H 	H 	0.4228	0.5442	0.1302	0.054
Mof_H 	H 	0.4267	0.6457	0.1777	0.054
Mof_C 	C 	0.451	0.472	0.3357	-0.282
Mof_H 	H 	0.4524	0.5579	0.339	0.148
Mof_C 	C 	0.3636	0.7154	0.8723	-0.329
Mof_H 	H 	0.3752	0.7265	0.8429	0.159
Mof_C 	C 	0.45297	0.7081	0.0817	-0.258
Mof_H 	H 	0.4599	0.6626	0.1131	0.133
Mof_C 	C 	0.3196	0.5862	0.3088	-0.276
Mof_H 	H 	0.3174	0.5013	0.3029	0.146
Mof_C 	C 	0.2111	0.2924	0.8491	-0.17
Mof_C 	C 	0.34731	0.8122	0.8893	0.19
Mof_H 	H 	0.3479	0.8881	0.8708	-0.018
Mof_C 	C 	0.33794	0.6544	0.2785	0.307
Mof_C 	C 	0.19636	0.2286	0.8047	0.143
Mof_H 	H 	0.203	0.1517	0.7938	-0.001
Mof_C 	C 	0.3109	0.9015	0.951	0.376
Mof_C 	C 	0.4705	0.7444	0.0419	0.145
Mof_H 	H 	0.4896	0.7212	0.0475	-0.02
Mof_C 	C 	0.4664	0.3957	0.374	0.157
Mof_H 	H 	0.4777	0.4327	0.4034	-0.022
_end
