# CIF file generated by openbabel 3.1.0, see https://openbabel.org
data_I
_chemical_name_common 'image0'
_cell_length_a 9.3278
_cell_length_b 15.5529
_cell_length_c 9.6474
_cell_angle_alpha 90
_cell_angle_beta 93.266
_cell_angle_gamma 90
_space_group_name_H-M_alt 'P 1'
_space_group_name_Hall 'P 1'
loop_
    _symmetry_equiv_pos_as_xyz
    x,y,z
loop_
    _atom_site_label
    _atom_site_type_symbol
    _atom_site_fract_x
    _atom_site_fract_y
    _atom_site_fract_z
    _atom_site_occupancy
    U1       U        0.14200    0.01700    0.02900    1.000
    U2       U        0.23850    0.02280    0.63490    1.000
    U3       U        0.13370    0.48920    0.00130    1.000
    U4       U        0.22850    0.47070    0.60550    1.000
    U5       U        0.71660    0.25120    0.81120    1.000
    P1       P        0.48000    0.43690    0.83830    1.000
    P2       P        0.87860    0.47390    0.77500    1.000
    P3       P        0.48880    0.06380    0.86220    1.000
    P4       P        0.88640    0.03000    0.79920    1.000
    O1       O        0.32420    0.05630    0.87800    1.000
    O2       O        0.04970    0.04250    0.78350    1.000
    O3       O        0.04010    0.46060    0.75520    1.000
    O4       O        0.31400    0.44450    0.85370    1.000
    O5       O        0.48860    0.46060    0.68150    1.000
    O6       O        0.55790    0.50470    0.92800    1.000
    O7       O        0.81510    0.53930    0.66500    1.000
    O8       O        0.88100    0.51750    0.92020    1.000
    O9       O        0.82400    0.96030    0.69860    1.000
    O10      O        0.56730    0.00080    0.95690    1.000
    O11      O        0.79700    0.39140    0.76890    1.000
    O12      O        0.88900    0.99300    0.94930    1.000
    O13      O        0.80660    0.11260    0.78290    1.000
    O14      O        0.49850    0.03270    0.71050    1.000
    O15      O        0.52930    0.34740    0.86810    1.000
    O16      O        0.53740    0.15380    0.88350    1.000
    U6       U        0.64200    0.98300    0.52900    1.000
    U7       U        0.73850    0.97720    0.13490    1.000
    U8       U        0.63370    0.51080    0.50130    1.000
    U9       U        0.72850    0.52930    0.10550    1.000
    U10      U        0.21660    0.74880    0.31120    1.000
    P5       P        0.98000    0.56310    0.33830    1.000
    P6       P        0.37860    0.52610    0.27500    1.000
    P7       P        0.98880    0.93620    0.36220    1.000
    P8       P        0.38640    0.97000    0.29920    1.000
    O17      O        0.82420    0.94370    0.37800    1.000
    O18      O        0.54970    0.95750    0.28350    1.000
    O19      O        0.54010    0.53940    0.25520    1.000
    O20      O        0.81400    0.55550    0.35370    1.000
    O21      O        0.98860    0.53940    0.18150    1.000
    O22      O        0.05790    0.49530    0.42800    1.000
    O23      O        0.31510    0.46070    0.16500    1.000
    O24      O        0.38100    0.48250    0.42020    1.000
    O25      O        0.32400    0.03970    0.19860    1.000
    O26      O        0.06730    0.99920    0.45690    1.000
    O27      O        0.29700    0.60860    0.26890    1.000
    O28      O        0.38900    0.00700    0.44930    1.000
    O29      O        0.30660    0.88740    0.28290    1.000
    O30      O        0.99850    0.96730    0.21050    1.000
    O31      O        0.02930    0.65260    0.36810    1.000
    O32      O        0.03740    0.84620    0.38350    1.000
