# CIF file generated by openbabel 3.1.0, see https://openbabel.org
data_I
_chemical_name_common 'image0'
_cell_length_a 26.3797
_cell_length_b 14.4378
_cell_length_c 25.4231
_cell_angle_alpha 90
_cell_angle_beta 113.631
_cell_angle_gamma 90
_space_group_name_H-M_alt 'P 1'
_space_group_name_Hall 'P 1'
loop_
    _symmetry_equiv_pos_as_xyz
    x,y,z
loop_
    _atom_site_label
    _atom_site_type_symbol
    _atom_site_fract_x
    _atom_site_fract_y
    _atom_site_fract_z
    _atom_site_occupancy
    Sm1      Sm       0.21376    0.63500    0.31006    1.000
    Sm2      Sm       0.16496    0.41439    0.19794    1.000
    C1       C        0.30690    0.35630    0.22580    1.000
    C2       C        0.34280    0.43940    0.24030    1.000
    C3       C        0.39060    0.44390    0.23050    1.000
    H1       H        0.40300    0.39160    0.21780    1.000
    C4       C        0.41980    0.52440    0.23930    1.000
    H2       H        0.45130    0.52680    0.23140    1.000
    C5       C        0.40350    0.60250    0.25950    1.000
    H3       H        0.42340    0.65730    0.26480    1.000
    C6       C        0.35670    0.59810    0.27210    1.000
    C7       C        0.32740    0.51590    0.26220    1.000
    H4       H        0.29630    0.51250    0.27080    1.000
    C8       C        0.33650    0.68160    0.29480    1.000
    C9       C        0.25110    0.44630    0.35230    1.000
    C10      C        0.27450    0.35510    0.37970    1.000
    C11      C        0.29910    0.34750    0.43870    1.000
    H5       H        0.29990    0.39750    0.46200    1.000
    C12      C        0.32290    0.26300    0.46250    1.000
    H6       H        0.33820    0.25670    0.50220    1.000
    C13      C        0.32460    0.18850    0.42940    1.000
    H7       H        0.34170    0.13360    0.44650    1.000
    C14      C        0.30020    0.19710    0.37010    1.000
    C15      C        0.27520    0.28040    0.34550    1.000
    H8       H        0.25890    0.28610    0.30570    1.000
    C16      C        0.29990    0.11730    0.33280    1.000
    C17      C        0.15320    0.65230    0.40340    1.000
    C18      C        0.12170    0.60100    0.43220    1.000
    C19      C        0.08330    0.53030    0.40440    1.000
    H9       H        0.07690    0.51360    0.36700    1.000
    C20      C        0.05530    0.48630    0.43250    1.000
    H10      H        0.02990    0.44010    0.41380    1.000
    C21      C        0.06450    0.50960    0.48820    1.000
    H11      H        0.04500    0.47950    0.50670    1.000
    C22      C        0.10230    0.57760    0.51670    1.000
    C23      C        0.12950    0.62450    0.48730    1.000
    H12      H        0.15340    0.67280    0.50550    1.000
    C24      C        0.11590    0.60040    0.57860    1.000
    C25      C        0.08760    0.51700    0.23400    1.000
    C26      C        0.04280    0.56860    0.24370    1.000
    C27      C        0.04230    0.66490    0.24470    1.000
    H13      H        0.07150    0.69740    0.24180    1.000
    O1       O        0.32800    0.28020    0.22200    1.000
    O2       O        0.25580    0.36550    0.21690    1.000
    O3       O        0.30430    0.66840    0.31920    1.000
    O4       O        0.35380    0.76040    0.28650    1.000
    O5       O        0.21760    0.45000    0.29950    1.000
    O6       O        0.26520    0.51790    0.38190    1.000
    O7       O        0.31630    0.04050    0.35450    1.000
    O8       O        0.28220    0.13260    0.27980    1.000
    O9       O        0.15550    0.61480    0.35860    1.000
    O10      O        0.17570    0.72590    0.42510    1.000
    O11      O        0.15950    0.64580    0.60600    1.000
    O12      O        0.08680    0.57000    0.60300    1.000
    O13      O        0.12970    0.56300    0.23400    1.000
    O14      O        0.08380    0.43240    0.22500    1.000
    Sm3      Sm       0.71376    0.13500    0.31006    1.000
    Sm4      Sm       0.66496    0.91439    0.19794    1.000
    C28      C        0.80690    0.85630    0.22580    1.000
    C29      C        0.84280    0.93940    0.24030    1.000
    C30      C        0.89060    0.94390    0.23050    1.000
    H14      H        0.90300    0.89160    0.21780    1.000
    C31      C        0.91980    0.02440    0.23930    1.000
    H15      H        0.95130    0.02680    0.23140    1.000
    C32      C        0.90350    0.10250    0.25950    1.000
    H16      H        0.92340    0.15730    0.26480    1.000
    C33      C        0.85670    0.09810    0.27210    1.000
    C34      C        0.82740    0.01590    0.26220    1.000
    H17      H        0.79630    0.01250    0.27080    1.000
    C35      C        0.83650    0.18160    0.29480    1.000
    C36      C        0.75110    0.94630    0.35230    1.000
    C37      C        0.77450    0.85510    0.37970    1.000
    C38      C        0.79910    0.84750    0.43870    1.000
    H18      H        0.79990    0.89750    0.46200    1.000
    C39      C        0.82290    0.76300    0.46250    1.000
    H19      H        0.83820    0.75670    0.50220    1.000
    C40      C        0.82460    0.68850    0.42940    1.000
    H20      H        0.84170    0.63360    0.44650    1.000
    C41      C        0.80020    0.69710    0.37010    1.000
    C42      C        0.77520    0.78040    0.34550    1.000
    H21      H        0.75890    0.78610    0.30570    1.000
    C43      C        0.79990    0.61730    0.33280    1.000
    C44      C        0.65320    0.15230    0.40340    1.000
    C45      C        0.62170    0.10100    0.43220    1.000
    C46      C        0.58330    0.03030    0.40440    1.000
    H22      H        0.57690    0.01360    0.36700    1.000
    C47      C        0.55530    0.98630    0.43250    1.000
    H23      H        0.52990    0.94010    0.41380    1.000
    C48      C        0.56450    0.00960    0.48820    1.000
    H24      H        0.54500    0.97950    0.50670    1.000
    C49      C        0.60230    0.07760    0.51670    1.000
    C50      C        0.62950    0.12450    0.48730    1.000
    H25      H        0.65340    0.17280    0.50550    1.000
    C51      C        0.61590    0.10040    0.57860    1.000
    C52      C        0.58760    0.01700    0.23400    1.000
    C53      C        0.54280    0.06860    0.24370    1.000
    C54      C        0.54230    0.16490    0.24470    1.000
    H26      H        0.57150    0.19740    0.24180    1.000
    O15      O        0.82800    0.78020    0.22200    1.000
    O16      O        0.75580    0.86550    0.21690    1.000
    O17      O        0.80430    0.16840    0.31920    1.000
    O18      O        0.85380    0.26040    0.28650    1.000
    O19      O        0.71760    0.95000    0.29950    1.000
    O20      O        0.76520    0.01790    0.38190    1.000
    O21      O        0.81630    0.54050    0.35450    1.000
    O22      O        0.78220    0.63260    0.27980    1.000
    O23      O        0.65550    0.11480    0.35860    1.000
    O24      O        0.67570    0.22590    0.42510    1.000
    O25      O        0.65950    0.14580    0.60600    1.000
    O26      O        0.58680    0.07000    0.60300    1.000
    O27      O        0.62970    0.06300    0.23400    1.000
    O28      O        0.58380    0.93240    0.22500    1.000
    Sm5      Sm       0.78624    0.63500    0.18994    1.000
    Sm6      Sm       0.83504    0.41439    0.30206    1.000
    C55      C        0.69310    0.35630    0.27420    1.000
    C56      C        0.65720    0.43940    0.25970    1.000
    C57      C        0.60940    0.44390    0.26950    1.000
    H27      H        0.59700    0.39160    0.28220    1.000
    C58      C        0.58020    0.52440    0.26070    1.000
    H28      H        0.54870    0.52680    0.26860    1.000
    C59      C        0.59650    0.60250    0.24050    1.000
    H29      H        0.57660    0.65730    0.23520    1.000
    C60      C        0.64330    0.59810    0.22790    1.000
    C61      C        0.67260    0.51590    0.23780    1.000
    H30      H        0.70370    0.51250    0.22920    1.000
    C62      C        0.66350    0.68160    0.20520    1.000
    C63      C        0.74890    0.44630    0.14770    1.000
    C64      C        0.72550    0.35510    0.12030    1.000
    C65      C        0.70090    0.34750    0.06130    1.000
    H31      H        0.70010    0.39750    0.03800    1.000
    C66      C        0.67710    0.26300    0.03750    1.000
    H32      H        0.66180    0.25670    0.99780    1.000
    C67      C        0.67540    0.18850    0.07060    1.000
    H33      H        0.65830    0.13360    0.05350    1.000
    C68      C        0.69980    0.19710    0.12990    1.000
    C69      C        0.72480    0.28040    0.15450    1.000
    H34      H        0.74110    0.28610    0.19430    1.000
    C70      C        0.70010    0.11730    0.16720    1.000
    C71      C        0.84680    0.65230    0.09660    1.000
    C72      C        0.87830    0.60100    0.06780    1.000
    C73      C        0.91670    0.53030    0.09560    1.000
    H35      H        0.92310    0.51360    0.13300    1.000
    C74      C        0.94470    0.48630    0.06750    1.000
    H36      H        0.97010    0.44010    0.08620    1.000
    C75      C        0.93550    0.50960    0.01180    1.000
    H37      H        0.95500    0.47950    0.99330    1.000
    C76      C        0.89770    0.57760    0.98330    1.000
    C77      C        0.87050    0.62450    0.01270    1.000
    H38      H        0.84660    0.67280    0.99450    1.000
    C78      C        0.88410    0.60040    0.92140    1.000
    C79      C        0.91240    0.51700    0.26600    1.000
    C80      C        0.95720    0.56860    0.25630    1.000
    C81      C        0.95770    0.66490    0.25530    1.000
    H39      H        0.92850    0.69740    0.25820    1.000
    O29      O        0.67200    0.28020    0.27800    1.000
    O30      O        0.74420    0.36550    0.28310    1.000
    O31      O        0.69570    0.66840    0.18080    1.000
    O32      O        0.64620    0.76040    0.21350    1.000
    O33      O        0.78240    0.45000    0.20050    1.000
    O34      O        0.73480    0.51790    0.11810    1.000
    O35      O        0.68370    0.04050    0.14550    1.000
    O36      O        0.71780    0.13260    0.22020    1.000
    O37      O        0.84450    0.61480    0.14140    1.000
    O38      O        0.82430    0.72590    0.07490    1.000
    O39      O        0.84050    0.64580    0.89400    1.000
    O40      O        0.91320    0.57000    0.89700    1.000
    O41      O        0.87030    0.56300    0.26600    1.000
    O42      O        0.91620    0.43240    0.27500    1.000
    Sm7      Sm       0.28624    0.13500    0.18994    1.000
    Sm8      Sm       0.33504    0.91439    0.30206    1.000
    C82      C        0.19310    0.85630    0.27420    1.000
    C83      C        0.15720    0.93940    0.25970    1.000
    C84      C        0.10940    0.94390    0.26950    1.000
    H40      H        0.09700    0.89160    0.28220    1.000
    C85      C        0.08020    0.02440    0.26070    1.000
    H41      H        0.04870    0.02680    0.26860    1.000
    C86      C        0.09650    0.10250    0.24050    1.000
    H42      H        0.07660    0.15730    0.23520    1.000
    C87      C        0.14330    0.09810    0.22790    1.000
    C88      C        0.17260    0.01590    0.23780    1.000
    H43      H        0.20370    0.01250    0.22920    1.000
    C89      C        0.16350    0.18160    0.20520    1.000
    C90      C        0.24890    0.94630    0.14770    1.000
    C91      C        0.22550    0.85510    0.12030    1.000
    C92      C        0.20090    0.84750    0.06130    1.000
    H44      H        0.20010    0.89750    0.03800    1.000
    C93      C        0.17710    0.76300    0.03750    1.000
    H45      H        0.16180    0.75670    0.99780    1.000
    C94      C        0.17540    0.68850    0.07060    1.000
    H46      H        0.15830    0.63360    0.05350    1.000
    C95      C        0.19980    0.69710    0.12990    1.000
    C96      C        0.22480    0.78040    0.15450    1.000
    H47      H        0.24110    0.78610    0.19430    1.000
    C97      C        0.20010    0.61730    0.16720    1.000
    C98      C        0.34680    0.15230    0.09660    1.000
    C99      C        0.37830    0.10100    0.06780    1.000
    C100     C        0.41670    0.03030    0.09560    1.000
    H48      H        0.42310    0.01360    0.13300    1.000
    C101     C        0.44470    0.98630    0.06750    1.000
    H49      H        0.47010    0.94010    0.08620    1.000
    C102     C        0.43550    0.00960    0.01180    1.000
    H50      H        0.45500    0.97950    0.99330    1.000
    C103     C        0.39770    0.07760    0.98330    1.000
    C104     C        0.37050    0.12450    0.01270    1.000
    H51      H        0.34660    0.17280    0.99450    1.000
    C105     C        0.38410    0.10040    0.92140    1.000
    C106     C        0.41240    0.01700    0.26600    1.000
    C107     C        0.45720    0.06860    0.25630    1.000
    C108     C        0.45770    0.16490    0.25530    1.000
    H52      H        0.42850    0.19740    0.25820    1.000
    O43      O        0.17200    0.78020    0.27800    1.000
    O44      O        0.24420    0.86550    0.28310    1.000
    O45      O        0.19570    0.16840    0.18080    1.000
    O46      O        0.14620    0.26040    0.21350    1.000
    O47      O        0.28240    0.95000    0.20050    1.000
    O48      O        0.23480    0.01790    0.11810    1.000
    O49      O        0.18370    0.54050    0.14550    1.000
    O50      O        0.21780    0.63260    0.22020    1.000
    O51      O        0.34450    0.11480    0.14140    1.000
    O52      O        0.32430    0.22590    0.07490    1.000
    O53      O        0.34050    0.14580    0.89400    1.000
    O54      O        0.41320    0.07000    0.89700    1.000
    O55      O        0.37030    0.06300    0.26600    1.000
    O56      O        0.41620    0.93240    0.27500    1.000
    Sm9      Sm       0.78624    0.36500    0.68994    1.000
    Sm10     Sm       0.83504    0.58561    0.80206    1.000
    C109     C        0.69310    0.64370    0.77420    1.000
    C110     C        0.65720    0.56060    0.75970    1.000
    C111     C        0.60940    0.55610    0.76950    1.000
    H53      H        0.59700    0.60840    0.78220    1.000
    C112     C        0.58020    0.47560    0.76070    1.000
    H54      H        0.54870    0.47320    0.76860    1.000
    C113     C        0.59650    0.39750    0.74050    1.000
    H55      H        0.57660    0.34270    0.73520    1.000
    C114     C        0.64330    0.40190    0.72790    1.000
    C115     C        0.67260    0.48410    0.73780    1.000
    H56      H        0.70370    0.48750    0.72920    1.000
    C116     C        0.66350    0.31840    0.70520    1.000
    C117     C        0.74890    0.55370    0.64770    1.000
    C118     C        0.72550    0.64490    0.62030    1.000
    C119     C        0.70090    0.65250    0.56130    1.000
    H57      H        0.70010    0.60250    0.53800    1.000
    C120     C        0.67710    0.73700    0.53750    1.000
    H58      H        0.66180    0.74330    0.49780    1.000
    C121     C        0.67540    0.81150    0.57060    1.000
    H59      H        0.65830    0.86640    0.55350    1.000
    C122     C        0.69980    0.80290    0.62990    1.000
    C123     C        0.72480    0.71960    0.65450    1.000
    H60      H        0.74110    0.71390    0.69430    1.000
    C124     C        0.70010    0.88270    0.66720    1.000
    C125     C        0.84680    0.34770    0.59660    1.000
    C126     C        0.87830    0.39900    0.56780    1.000
    C127     C        0.91670    0.46970    0.59560    1.000
    H61      H        0.92310    0.48640    0.63300    1.000
    C128     C        0.94470    0.51370    0.56750    1.000
    H62      H        0.97010    0.55990    0.58620    1.000
    C129     C        0.93550    0.49040    0.51180    1.000
    H63      H        0.95500    0.52050    0.49330    1.000
    C130     C        0.89770    0.42240    0.48330    1.000
    C131     C        0.87050    0.37550    0.51270    1.000
    H64      H        0.84660    0.32720    0.49450    1.000
    C132     C        0.88410    0.39960    0.42140    1.000
    C133     C        0.91240    0.48300    0.76600    1.000
    C134     C        0.95720    0.43140    0.75630    1.000
    C135     C        0.95770    0.33510    0.75530    1.000
    H65      H        0.92850    0.30260    0.75820    1.000
    O57      O        0.67200    0.71980    0.77800    1.000
    O58      O        0.74420    0.63450    0.78310    1.000
    O59      O        0.69570    0.33160    0.68080    1.000
    O60      O        0.64620    0.23960    0.71350    1.000
    O61      O        0.78240    0.55000    0.70050    1.000
    O62      O        0.73480    0.48210    0.61810    1.000
    O63      O        0.68370    0.95950    0.64550    1.000
    O64      O        0.71780    0.86740    0.72020    1.000
    O65      O        0.84450    0.38520    0.64140    1.000
    O66      O        0.82430    0.27410    0.57490    1.000
    O67      O        0.84050    0.35420    0.39400    1.000
    O68      O        0.91320    0.43000    0.39700    1.000
    O69      O        0.87030    0.43700    0.76600    1.000
    O70      O        0.91620    0.56760    0.77500    1.000
    Sm11     Sm       0.28624    0.86500    0.68994    1.000
    Sm12     Sm       0.33504    0.08561    0.80206    1.000
    C136     C        0.19310    0.14370    0.77420    1.000
    C137     C        0.15720    0.06060    0.75970    1.000
    C138     C        0.10940    0.05610    0.76950    1.000
    H66      H        0.09700    0.10840    0.78220    1.000
    C139     C        0.08020    0.97560    0.76070    1.000
    H67      H        0.04870    0.97320    0.76860    1.000
    C140     C        0.09650    0.89750    0.74050    1.000
    H68      H        0.07660    0.84270    0.73520    1.000
    C141     C        0.14330    0.90190    0.72790    1.000
    C142     C        0.17260    0.98410    0.73780    1.000
    H69      H        0.20370    0.98750    0.72920    1.000
    C143     C        0.16350    0.81840    0.70520    1.000
    C144     C        0.24890    0.05370    0.64770    1.000
    C145     C        0.22550    0.14490    0.62030    1.000
    C146     C        0.20090    0.15250    0.56130    1.000
    H70      H        0.20010    0.10250    0.53800    1.000
    C147     C        0.17710    0.23700    0.53750    1.000
    H71      H        0.16180    0.24330    0.49780    1.000
    C148     C        0.17540    0.31150    0.57060    1.000
    H72      H        0.15830    0.36640    0.55350    1.000
    C149     C        0.19980    0.30290    0.62990    1.000
    C150     C        0.22480    0.21960    0.65450    1.000
    H73      H        0.24110    0.21390    0.69430    1.000
    C151     C        0.20010    0.38270    0.66720    1.000
    C152     C        0.34680    0.84770    0.59660    1.000
    C153     C        0.37830    0.89900    0.56780    1.000
    C154     C        0.41670    0.96970    0.59560    1.000
    H74      H        0.42310    0.98640    0.63300    1.000
    C155     C        0.44470    0.01370    0.56750    1.000
    H75      H        0.47010    0.05990    0.58620    1.000
    C156     C        0.43550    0.99040    0.51180    1.000
    H76      H        0.45500    0.02050    0.49330    1.000
    C157     C        0.39770    0.92240    0.48330    1.000
    C158     C        0.37050    0.87550    0.51270    1.000
    H77      H        0.34660    0.82720    0.49450    1.000
    C159     C        0.38410    0.89960    0.42140    1.000
    C160     C        0.41240    0.98300    0.76600    1.000
    C161     C        0.45720    0.93140    0.75630    1.000
    C162     C        0.45770    0.83510    0.75530    1.000
    H78      H        0.42850    0.80260    0.75820    1.000
    O71      O        0.17200    0.21980    0.77800    1.000
    O72      O        0.24420    0.13450    0.78310    1.000
    O73      O        0.19570    0.83160    0.68080    1.000
    O74      O        0.14620    0.73960    0.71350    1.000
    O75      O        0.28240    0.05000    0.70050    1.000
    O76      O        0.23480    0.98210    0.61810    1.000
    O77      O        0.18370    0.45950    0.64550    1.000
    O78      O        0.21780    0.36740    0.72020    1.000
    O79      O        0.34450    0.88520    0.64140    1.000
    O80      O        0.32430    0.77410    0.57490    1.000
    O81      O        0.34050    0.85420    0.39400    1.000
    O82      O        0.41320    0.93000    0.39700    1.000
    O83      O        0.37030    0.93700    0.76600    1.000
    O84      O        0.41620    0.06760    0.77500    1.000
    Sm13     Sm       0.21376    0.36500    0.81006    1.000
    Sm14     Sm       0.16496    0.58561    0.69794    1.000
    C163     C        0.30690    0.64370    0.72580    1.000
    C164     C        0.34280    0.56060    0.74030    1.000
    C165     C        0.39060    0.55610    0.73050    1.000
    H79      H        0.40300    0.60840    0.71780    1.000
    C166     C        0.41980    0.47560    0.73930    1.000
    H80      H        0.45130    0.47320    0.73140    1.000
    C167     C        0.40350    0.39750    0.75950    1.000
    H81      H        0.42340    0.34270    0.76480    1.000
    C168     C        0.35670    0.40190    0.77210    1.000
    C169     C        0.32740    0.48410    0.76220    1.000
    H82      H        0.29630    0.48750    0.77080    1.000
    C170     C        0.33650    0.31840    0.79480    1.000
    C171     C        0.25110    0.55370    0.85230    1.000
    C172     C        0.27450    0.64490    0.87970    1.000
    C173     C        0.29910    0.65250    0.93870    1.000
    H83      H        0.29990    0.60250    0.96200    1.000
    C174     C        0.32290    0.73700    0.96250    1.000
    H84      H        0.33820    0.74330    0.00220    1.000
    C175     C        0.32460    0.81150    0.92940    1.000
    H85      H        0.34170    0.86640    0.94650    1.000
    C176     C        0.30020    0.80290    0.87010    1.000
    C177     C        0.27520    0.71960    0.84550    1.000
    H86      H        0.25890    0.71390    0.80570    1.000
    C178     C        0.29990    0.88270    0.83280    1.000
    C179     C        0.15320    0.34770    0.90340    1.000
    C180     C        0.12170    0.39900    0.93220    1.000
    C181     C        0.08330    0.46970    0.90440    1.000
    H87      H        0.07690    0.48640    0.86700    1.000
    C182     C        0.05530    0.51370    0.93250    1.000
    H88      H        0.02990    0.55990    0.91380    1.000
    C183     C        0.06450    0.49040    0.98820    1.000
    H89      H        0.04500    0.52050    0.00670    1.000
    C184     C        0.10230    0.42240    0.01670    1.000
    C185     C        0.12950    0.37550    0.98730    1.000
    H90      H        0.15340    0.32720    0.00550    1.000
    C186     C        0.11590    0.39960    0.07860    1.000
    C187     C        0.08760    0.48300    0.73400    1.000
    C188     C        0.04280    0.43140    0.74370    1.000
    C189     C        0.04230    0.33510    0.74470    1.000
    H91      H        0.07150    0.30260    0.74180    1.000
    O85      O        0.32800    0.71980    0.72200    1.000
    O86      O        0.25580    0.63450    0.71690    1.000
    O87      O        0.30430    0.33160    0.81920    1.000
    O88      O        0.35380    0.23960    0.78650    1.000
    O89      O        0.21760    0.55000    0.79950    1.000
    O90      O        0.26520    0.48210    0.88190    1.000
    O91      O        0.31630    0.95950    0.85450    1.000
    O92      O        0.28220    0.86740    0.77980    1.000
    O93      O        0.15550    0.38520    0.85860    1.000
    O94      O        0.17570    0.27410    0.92510    1.000
    O95      O        0.15950    0.35420    0.10600    1.000
    O96      O        0.08680    0.43000    0.10300    1.000
    O97      O        0.12970    0.43700    0.73400    1.000
    O98      O        0.08380    0.56760    0.72500    1.000
    Sm15     Sm       0.71376    0.86500    0.81006    1.000
    Sm16     Sm       0.66496    0.08561    0.69794    1.000
    C190     C        0.80690    0.14370    0.72580    1.000
    C191     C        0.84280    0.06060    0.74030    1.000
    C192     C        0.89060    0.05610    0.73050    1.000
    H92      H        0.90300    0.10840    0.71780    1.000
    C193     C        0.91980    0.97560    0.73930    1.000
    H93      H        0.95130    0.97320    0.73140    1.000
    C194     C        0.90350    0.89750    0.75950    1.000
    H94      H        0.92340    0.84270    0.76480    1.000
    C195     C        0.85670    0.90190    0.77210    1.000
    C196     C        0.82740    0.98410    0.76220    1.000
    H95      H        0.79630    0.98750    0.77080    1.000
    C197     C        0.83650    0.81840    0.79480    1.000
    C198     C        0.75110    0.05370    0.85230    1.000
    C199     C        0.77450    0.14490    0.87970    1.000
    C200     C        0.79910    0.15250    0.93870    1.000
    H96      H        0.79990    0.10250    0.96200    1.000
    C201     C        0.82290    0.23700    0.96250    1.000
    H97      H        0.83820    0.24330    0.00220    1.000
    C202     C        0.82460    0.31150    0.92940    1.000
    H98      H        0.84170    0.36640    0.94650    1.000
    C203     C        0.80020    0.30290    0.87010    1.000
    C204     C        0.77520    0.21960    0.84550    1.000
    H99      H        0.75890    0.21390    0.80570    1.000
    C205     C        0.79990    0.38270    0.83280    1.000
    C206     C        0.65320    0.84770    0.90340    1.000
    C207     C        0.62170    0.89900    0.93220    1.000
    C208     C        0.58330    0.96970    0.90440    1.000
    H100     H        0.57690    0.98640    0.86700    1.000
    C209     C        0.55530    0.01370    0.93250    1.000
    H101     H        0.52990    0.05990    0.91380    1.000
    C210     C        0.56450    0.99040    0.98820    1.000
    H102     H        0.54500    0.02050    0.00670    1.000
    C211     C        0.60230    0.92240    0.01670    1.000
    C212     C        0.62950    0.87550    0.98730    1.000
    H103     H        0.65340    0.82720    0.00550    1.000
    C213     C        0.61590    0.89960    0.07860    1.000
    C214     C        0.58760    0.98300    0.73400    1.000
    C215     C        0.54280    0.93140    0.74370    1.000
    C216     C        0.54230    0.83510    0.74470    1.000
    H104     H        0.57150    0.80260    0.74180    1.000
    O99      O        0.82800    0.21980    0.72200    1.000
    O100     O        0.75580    0.13450    0.71690    1.000
    O101     O        0.80430    0.83160    0.81920    1.000
    O102     O        0.85380    0.73960    0.78650    1.000
    O103     O        0.71760    0.05000    0.79950    1.000
    O104     O        0.76520    0.98210    0.88190    1.000
    O105     O        0.81630    0.45950    0.85450    1.000
    O106     O        0.78220    0.36740    0.77980    1.000
    O107     O        0.65550    0.88520    0.85860    1.000
    O108     O        0.67570    0.77410    0.92510    1.000
    O109     O        0.65950    0.85420    0.10600    1.000
    O110     O        0.58680    0.93000    0.10300    1.000
    O111     O        0.62970    0.93700    0.73400    1.000
    O112     O        0.58380    0.06760    0.72500    1.000
    C217     C        0.00000    0.71290    0.25000    1.000
    H105     H        0.00000    0.77730    0.25000    1.000
    C218     C        0.00000    0.52200    0.25000    1.000
    H106     H        0.00000    0.45760    0.25000    1.000
    C219     C        0.50000    0.21290    0.25000    1.000
    H107     H        0.50000    0.27730    0.25000    1.000
    C220     C        0.50000    0.02200    0.25000    1.000
    H108     H        0.50000    0.95760    0.25000    1.000
    C221     C        0.00000    0.28710    0.75000    1.000
    H109     H        0.00000    0.22270    0.75000    1.000
    C222     C        0.00000    0.47800    0.75000    1.000
    H110     H        0.00000    0.54240    0.75000    1.000
    C223     C        0.50000    0.78710    0.75000    1.000
    H111     H        0.50000    0.72270    0.75000    1.000
    C224     C        0.50000    0.97800    0.75000    1.000
    H112     H        0.50000    0.04240    0.75000    1.000
