data_functionalizedCrystal
_audit_creation_method	'EQeq! by Chris Wilmer'
_symmetry_space_group_name_H-M	'P1'
_symmetry_Int_Tables_number	1
_symmetry_cell_setting	triclinic
loop_
_symmetry_equiv_pos_as_xyz
  x,y,z
_cell_length_a	10.0524
_cell_length_b	12.5076
_cell_length_c	19.2083
_cell_angle_alpha	90.337
_cell_angle_beta	103.343
_cell_angle_gamma	99.926
loop_
_atom_site_label
_atom_site_type_symbol
_atom_site_fract_x
_atom_site_fract_y
_atom_site_fract_z
_atom_site_charge
Mof_Ni	Ni	0.26404	0.22151	0.32137	1.108
Mof_Ni	Ni	0.34251	0.30888	0.14792	1.091
Mof_N 	N 	0.267	0.7755	0.3141	-0.079
Mof_O 	O 	0.1022	0.10079	0.26317	-0.421
Mof_O 	O 	0.2278	0.21211	0.20715	-0.536
Mof_O 	O 	0.7642	0.76929	0.94883	-0.426
Mof_O 	O 	0.4603	0.39004	0.24404	-0.462
Mof_O 	O 	0.422	0.34922	0.35214	-0.449
Mof_O 	O 	0.7831	0.8407	0.58724	-0.439
Mof_O 	O 	0.8358	0.86597	0.48204	-0.431
Mof_N 	N 	0.1196	0.3279	0.31703	-0.222
Mof_N 	N 	0.2391	0.6611	0.3123	-0.088
Mof_C 	C 	0.1311	0.1294	0.20564	0.431
Mof_N 	N 	0.4803	0.1989	0.15378	-0.219
Mof_N 	N 	0.1964	0.4138	0.13514	-0.2
Mof_C 	C 	0.6731	0.6594	0.43147	0.042
Mof_H 	H 	0.7219	0.698	0.4012	0.029
Mof_C 	C 	0.5864	0.5553	0.40465	0.035
Mof_H 	H 	0.54	0.5157	0.4355	0.029
Mof_C 	C 	0.9884	0.2891	0.3179	0.088
Mof_H 	H 	0.961	0.2145	0.3199	-0.002
Mof_C 	C 	0.8919	0.3551	0.3159	-0.12
Mof_H 	H 	0.8009	0.3252	0.3165	0.074
Mof_C 	C 	0.9301	0.4656	0.313	0.026
Mof_H 	H 	0.8657	0.5112	0.3117	0.027
Mof_C 	C 	0.0649	0.5073	0.3121	-0.04
Mof_C 	C 	0.1557	0.4352	0.314	0.034
Mof_H 	H 	0.2471	0.4632	0.3131	0.024
Mof_C 	C 	0.1157	0.6251	0.3123	0.032
Mof_H 	H 	0.0547	0.6731	0.3124	0.032
Mof_C 	C 	0.7538	0.7412	0.00865	0.39
Mof_C 	C 	0.4771	0.409	0.30939	0.435
Mof_C 	C 	0.5694	0.5133	0.33923	-0.252
Mof_H 	H 	0.6191	0.552	0.3094	0.127
Mof_C 	C 	0.2356	0.5212	0.1394	-0.003
Mof_H 	H 	0.3299	0.5503	0.1528	0.03
Mof_C 	C 	0.1405	0.5918	0.1245	0.039
Mof_C 	C 	0.002	0.5488	0.1067	-0.115
Mof_H 	H 	0.9363	0.5941	0.0979	0.09
Mof_C 	C 	0.9606	0.4374	0.1018	0.007
Mof_H 	H 	0.8669	0.4063	0.0893	0.036
Mof_C 	C 	0.0611	0.3734	0.1158	0.002
Mof_H 	H 	0.0332	0.2983	0.1115	0.024
Mof_C 	C 	0.1895	0.7108	0.1281	0.001
Mof_H 	H 	0.1275	0.7575	0.1298	0.048
Mof_N 	N 	0.3122	0.7489	0.1288	-0.08
Mof_N 	N 	0.3385	0.8633	0.1325	-0.086
Mof_C 	C 	0.4644	0.8995	0.1353	0.051
Mof_H 	H 	0.5241	0.8511	0.1329	0.033
Mof_C 	C 	0.5194	0.0172	0.1424	-0.045
Mof_C 	C 	0.66	0.0551	0.1507	0
Mof_H 	H 	0.7206	0.0069	0.15	0.028
Mof_C 	C 	0.7084	0.1642	0.16	-0.101
Mof_H 	H 	0.8025	0.1912	0.1653	0.071
Mof_C 	C 	0.6172	0.2345	0.1616	0.055
Mof_H 	H 	0.6515	0.3087	0.1682	-0.002
Mof_C 	C 	0.4342	0.0928	0.1437	0.042
Mof_H 	H 	0.3393	0.0678	0.1372	0.022
Mof_C 	C 	0.0594	0.0699	0.13698	-0.367
Mof_H 	H 	0.0707	0.0999	0.0941	0.168
Mof_C 	C 	0.9797	0.9746	0.13617	0.156
Mof_H 	H 	0.9692	0.9477	0.18	0.003
Mof_C 	C 	0.9061	0.9079	0.07143	-0.035
Mof_H 	H 	0.9137	0.9347	0.0272	0.063
Mof_C 	C 	0.8303	0.8125	0.07287	-0.194
Mof_H 	H 	0.8235	0.7869	0.1175	0.109
Mof_O 	O 	0.6893	0.6516	0.02103	-0.305
Mof_N 	N 	0.4041	0.1122	0.3252	-0.195
Mof_C 	C 	0.5395	0.1469	0.32889	0.053
Mof_H 	H 	0.5722	0.2213	0.3305	0.009
Mof_C 	C 	0.6319	0.0777	0.3304	-0.102
Mof_H 	H 	0.7251	0.1053	0.3332	0.059
Mof_C 	C 	0.5859	0.9676	0.3278	-0.014
Mof_H 	H 	0.6476	0.9196	0.3294	0.04
Mof_C 	C 	0.4468	0.9293	0.3226	0.038
Mof_C 	C 	0.3588	0.0044	0.32235	-0.058
Mof_H 	H 	0.2653	0.9789	0.3201	0.079
Mof_C 	C 	0.3927	0.8121	0.3176	0.002
Mof_H 	H 	0.4532	0.7638	0.317	0.047
Mof_C 	C 	0.7751	0.8099	0.52317	0.427
Mof_C 	C 	0.6869	0.7027	0.49676	-0.265
Mof_H 	H 	0.639	0.664	0.5274	0.125
Mof_N 	N 	0.1404	0.8906	0.49409	-0.214
Mof_C 	C 	0.1009	0.7834	0.4959	0.008
Mof_H 	H 	0.0091	0.7569	0.497	0.029
Mof_C 	C 	0.1887	0.7094	0.4962	-0
Mof_C 	C 	0.324	0.7478	0.4941	-0.028
Mof_H 	H 	0.3858	0.7003	0.4945	0.047
Mof_C 	C 	0.3665	0.8582	0.4913	-0.073
Mof_H 	H 	0.4574	0.8865	0.4894	0.064
Mof_C 	C 	0.2725	0.9257	0.4912	0.044
Mof_H 	H 	0.3022	0.9999	0.489	0.026
Mof_C 	C 	0.1376	0.5929	0.4968	0.011
Mof_H 	H 	0.1971	0.5442	0.4949	0.042
Mof_N 	N 	0.014	0.5575	0.4997	-0.091
Mof_Ni	Ni	0.73596	0.77849	0.67863	1.109
Mof_Ni	Ni	0.65749	0.69112	0.85208	1.09
Mof_N 	N 	0.733	0.2245	0.6859	-0.086
Mof_O 	O 	0.8978	0.89921	0.73683	-0.38
Mof_O 	O 	0.7722	0.78789	0.79285	-0.518
Mof_O 	O 	0.2358	0.23071	0.05117	-0.439
Mof_O 	O 	0.5397	0.60996	0.75596	-0.462
Mof_O 	O 	0.578	0.65078	0.64786	-0.448
Mof_O 	O 	0.2169	0.1593	0.41276	-0.454
Mof_O 	O 	0.1642	0.13403	0.51796	-0.455
Mof_N 	N 	0.8804	0.6721	0.68297	-0.196
Mof_N 	N 	0.7609	0.3389	0.6877	-0.082
Mof_C 	C 	0.8689	0.8706	0.79436	0.365
Mof_N 	N 	0.5197	0.8011	0.84622	-0.209
Mof_N 	N 	0.8036	0.5862	0.86486	-0.23
Mof_C 	C 	0.3269	0.3406	0.56853	0.049
Mof_H 	H 	0.2781	0.302	0.5988	0.022
Mof_C 	C 	0.4136	0.4447	0.59535	0.027
Mof_H 	H 	0.46	0.4843	0.5645	0.032
Mof_C 	C 	0.0116	0.7109	0.6821	0.024
Mof_H 	H 	0.039	0.7855	0.6801	0.015
Mof_C 	C 	0.1081	0.6449	0.6841	-0.058
Mof_H 	H 	0.1991	0.6748	0.6835	0.052
Mof_C 	C 	0.0699	0.5344	0.687	-0.059
Mof_H 	H 	0.1343	0.4888	0.6883	0.05
Mof_C 	C 	0.9351	0.4927	0.6879	0.024
Mof_C 	C 	0.8443	0.5648	0.686	0.007
Mof_H 	H 	0.7529	0.5368	0.6869	0.034
Mof_C 	C 	0.8843	0.3749	0.6877	0.006
Mof_H 	H 	0.9453	0.3269	0.6876	0.046
Mof_C 	C 	0.2462	0.2588	0.99135	0.42
Mof_C 	C 	0.5229	0.591	0.69061	0.432
Mof_C 	C 	0.4306	0.4867	0.66077	-0.247
Mof_H 	H 	0.3809	0.448	0.6906	0.123
Mof_C 	C 	0.7644	0.4788	0.8606	0.048
Mof_H 	H 	0.6701	0.4497	0.8472	0.013
Mof_C 	C 	0.8595	0.4082	0.8755	-0.048
Mof_C 	C 	0.998	0.4512	0.8933	0.075
Mof_H 	H 	0.0637	0.4059	0.9021	0.008
Mof_C 	C 	0.0394	0.5626	0.8982	-0.182
Mof_H 	H 	0.1331	0.5937	0.9107	0.098
Mof_C 	C 	0.9389	0.6266	0.8842	0.119
Mof_H 	H 	0.9668	0.7017	0.8885	-0.009
Mof_C 	C 	0.8105	0.2892	0.8719	0.043
Mof_H 	H 	0.8725	0.2425	0.8702	0.038
Mof_N 	N 	0.6878	0.2511	0.8712	-0.089
Mof_N 	N 	0.6615	0.1367	0.8675	-0.078
Mof_C 	C 	0.5356	0.1005	0.8647	-0.022
Mof_H 	H 	0.4759	0.1489	0.8671	0.05
Mof_C 	C 	0.4806	0.9828	0.8576	0.036
Mof_C 	C 	0.34	0.9449	0.8493	-0.051
Mof_H 	H 	0.2794	0.9931	0.85	0.06
Mof_C 	C 	0.2916	0.8358	0.84	-0.061
Mof_H 	H 	0.1975	0.8088	0.8347	0.054
Mof_C 	C 	0.3828	0.7655	0.8384	0.034
Mof_H 	H 	0.3485	0.6913	0.8318	0.003
Mof_C 	C 	0.5658	0.9072	0.8563	0.008
Mof_H 	H 	0.6607	0.9322	0.8628	0.043
Mof_C 	C 	0.9406	0.9301	0.86302	-0.161
Mof_H 	H 	0.9293	0.9001	0.9059	0.109
Mof_C 	C 	0.0203	0.0254	0.86383	-0.071
Mof_H 	H 	0.0308	0.0523	0.82	0.056
Mof_C 	C 	0.0939	0.0921	0.92857	0.089
Mof_H 	H 	0.0863	0.0653	0.9728	0.001
Mof_C 	C 	0.1697	0.1875	0.92713	-0.281
Mof_H 	H 	0.1765	0.2131	0.8825	0.133
Mof_O 	O 	0.3107	0.3484	0.97897	-0.313
Mof_N 	N 	0.5959	0.8878	0.6748	-0.211
Mof_C 	C 	0.4605	0.8531	0.67111	0.034
Mof_H 	H 	0.4278	0.7787	0.6695	0.017
Mof_C 	C 	0.3681	0.9223	0.6696	-0.041
Mof_H 	H 	0.2749	0.8947	0.6668	0.042
Mof_C 	C 	0.4141	0.0324	0.6722	-0.059
Mof_H 	H 	0.3524	0.0804	0.6706	0.044
Mof_C 	C 	0.5532	0.0707	0.6774	-0.032
Mof_C 	C 	0.6412	0.9956	0.67765	0.083
Mof_H 	H 	0.7347	0.0211	0.6799	0.002
Mof_C 	C 	0.6073	0.1879	0.6824	0.029
Mof_H 	H 	0.5468	0.2362	0.683	0.037
Mof_C 	C 	0.2249	0.1901	0.47683	0.429
Mof_C 	C 	0.3131	0.2973	0.50324	-0.276
Mof_H 	H 	0.361	0.336	0.4726	0.128
Mof_N 	N 	0.8596	0.1094	0.50591	-0.217
Mof_C 	C 	0.8991	0.2166	0.5041	0.006
Mof_H 	H 	0.9909	0.2431	0.503	0.037
Mof_C 	C 	0.8113	0.2906	0.5038	0.003
Mof_C 	C 	0.676	0.2522	0.5059	-0.03
Mof_H 	H 	0.6142	0.2997	0.5055	0.047
Mof_C 	C 	0.6335	0.1418	0.5087	-0.074
Mof_H 	H 	0.5426	0.1135	0.5106	0.056
Mof_C 	C 	0.7275	0.0743	0.5088	0.043
Mof_H 	H 	0.6978	0.0001	0.511	0.007
Mof_C 	C 	0.8624	0.4071	0.5032	0.01
Mof_H 	H 	0.8029	0.4558	0.5051	0.046
Mof_N 	N 	0.986	0.4425	0.5003	-0.077
Mof_Ni	Ni	7.68291e-18	6.14632e-18	0.5	1.038
_end
