data_functionalizedCrystal
_audit_creation_method	'EQeq! by Chris Wilmer'
_symmetry_space_group_name_H-M	'P1'
_symmetry_Int_Tables_number	1
_symmetry_cell_setting	triclinic
loop_
_symmetry_equiv_pos_as_xyz
  x,y,z
_cell_length_a	12.7981
_cell_length_b	12.7981
_cell_length_c	12.7981
_cell_angle_alpha	90
_cell_angle_beta	90
_cell_angle_gamma	90
loop_
_atom_site_label
_atom_site_type_symbol
_atom_site_fract_x
_atom_site_fract_y
_atom_site_fract_z
_atom_site_charge
Mof_N 	N 	0.06006	0.04328	0.35892	-0.209
Mof_N 	N 	0.0194	0.034	0.276	-0.164
Mof_N 	N 	0.9834	0.0284	0.19332	-0.073
Mof_N 	N 	0.43994	0.95672	0.85892	-0.037
Mof_N 	N 	0.4806	0.966	0.776	0.007
Mof_N 	N 	0.5166	0.9716	0.69332	-0.166
Mof_N 	N 	0.93994	0.54328	0.14108	-0.144
Mof_N 	N 	0.9806	0.534	0.224	0.084
Mof_N 	N 	0.0166	0.5284	0.30668	-0.353
Mof_N 	N 	0.56006	0.45672	0.64108	-0.228
Mof_N 	N 	0.5194	0.466	0.724	-0.023
Mof_N 	N 	0.4834	0.4716	0.80668	-0.203
Mof_N 	N 	0.35892	0.06006	0.04328	-0.21
Mof_N 	N 	0.276	0.0194	0.034	-0.165
Mof_N 	N 	0.19332	0.9834	0.0284	-0.074
Mof_N 	N 	0.85892	0.43994	0.95672	-0.038
Mof_N 	N 	0.776	0.4806	0.966	0.006
Mof_N 	N 	0.69332	0.5166	0.9716	-0.166
Mof_N 	N 	0.14108	0.93994	0.54328	-0.144
Mof_N 	N 	0.224	0.9806	0.534	0.084
Mof_N 	N 	0.30668	0.0166	0.5284	-0.353
Mof_N 	N 	0.64108	0.56006	0.45672	-0.228
Mof_N 	N 	0.724	0.5194	0.466	-0.023
Mof_N 	N 	0.80668	0.4834	0.4716	-0.203
Mof_N 	N 	0.04328	0.35892	0.06006	-0.21
Mof_N 	N 	0.034	0.276	0.0194	-0.165
Mof_N 	N 	0.0284	0.19332	0.9834	-0.074
Mof_N 	N 	0.95672	0.85892	0.43994	-0.038
Mof_N 	N 	0.966	0.776	0.4806	0.006
Mof_N 	N 	0.9716	0.69332	0.5166	-0.166
Mof_N 	N 	0.54328	0.14108	0.93994	-0.144
Mof_N 	N 	0.534	0.224	0.9806	0.084
Mof_N 	N 	0.5284	0.30668	0.0166	-0.353
Mof_N 	N 	0.45672	0.64108	0.56006	-0.228
Mof_N 	N 	0.466	0.724	0.5194	-0.023
Mof_N 	N 	0.4716	0.80668	0.4834	-0.203
Mof_N 	N 	0.93994	0.95672	0.64108	-0.042
Mof_N 	N 	0.9806	0.966	0.724	0.111
Mof_N 	N 	0.0166	0.9716	0.80668	-0.158
Mof_N 	N 	0.56006	0.04328	0.14108	-0.222
Mof_N 	N 	0.5194	0.034	0.224	-0.054
Mof_N 	N 	0.4834	0.0284	0.30668	-0.282
Mof_N 	N 	0.06006	0.45672	0.85892	-0.116
Mof_N 	N 	0.0194	0.466	0.776	-0.129
Mof_N 	N 	0.9834	0.4716	0.69332	-0.096
Mof_N 	N 	0.43994	0.54328	0.35892	-0.241
Mof_N 	N 	0.4806	0.534	0.276	-0.031
Mof_N 	N 	0.5166	0.5284	0.19332	-0.26
Mof_N 	N 	0.64108	0.93994	0.95672	-0.042
Mof_N 	N 	0.724	0.9806	0.966	0.111
Mof_N 	N 	0.80668	0.0166	0.9716	-0.158
Mof_N 	N 	0.14108	0.56006	0.04328	-0.222
Mof_N 	N 	0.224	0.5194	0.034	-0.054
Mof_N 	N 	0.30668	0.4834	0.0284	-0.282
Mof_N 	N 	0.85892	0.06006	0.45672	-0.116
Mof_N 	N 	0.776	0.0194	0.466	-0.129
Mof_N 	N 	0.69332	0.9834	0.4716	-0.096
Mof_N 	N 	0.35892	0.43994	0.54328	-0.241
Mof_N 	N 	0.276	0.4806	0.534	-0.031
Mof_N 	N 	0.19332	0.5166	0.5284	-0.26
Mof_N 	N 	0.95672	0.64108	0.93994	-0.042
Mof_N 	N 	0.966	0.724	0.9806	0.111
Mof_N 	N 	0.9716	0.80668	0.0166	-0.158
Mof_N 	N 	0.04328	0.14108	0.56006	-0.222
Mof_N 	N 	0.034	0.224	0.5194	-0.054
Mof_N 	N 	0.0284	0.30668	0.4834	-0.282
Mof_N 	N 	0.45672	0.85892	0.06006	-0.116
Mof_N 	N 	0.466	0.776	0.0194	-0.129
Mof_N 	N 	0.4716	0.69332	0.9834	-0.096
Mof_N 	N 	0.54328	0.35892	0.43994	-0.241
Mof_N 	N 	0.534	0.276	0.4806	-0.031
Mof_N 	N 	0.5284	0.19332	0.5166	-0.26
Mof_Cr	Cr	1.8747e-33	0	0.5	0.628
Mof_Cr	Cr	0.5	0	-0	0.628
Mof_Cr	Cr	-0	0.5	-0	0.628
Mof_Cr	Cr	0.5	0.5	0.5	1.385
Mof_Na	Na	-0	0	-0	0.722
Mof_Na	Na	0.5	0	0.5	1.702
Mof_Na	Na	1.8747e-33	0.5	0.5	1.702
Mof_Na	Na	0.5	0.5	-0	1.702
_end
