data_functionalizedCrystal
_audit_creation_method	'EQeq! by Chris Wilmer'
_symmetry_space_group_name_H-M	'P1'
_symmetry_Int_Tables_number	1
_symmetry_cell_setting	triclinic
loop_
_symmetry_equiv_pos_as_xyz
  x,y,z
_cell_length_a	46.618
_cell_length_b	15.159
_cell_length_c	27.704
_cell_angle_alpha	90
_cell_angle_beta	107.721
_cell_angle_gamma	90
loop_
_atom_site_label
_atom_site_type_symbol
_atom_site_fract_x
_atom_site_fract_y
_atom_site_fract_z
_atom_site_charge
Mof_C 	C 	0.90772	0.8338	0.28694	0.093
Mof_O 	O 	0.99577	0.12378	0.03396	-0.494
Mof_H 	H 	0.9917	0.1153	0.0603	0.239
Mof_Ni	Ni	0.8792	0.40998	0.44657	1.056
Mof_N 	N 	0.91938	0.9101	0.26992	-0.156
Mof_N 	N 	0.84191	0.5782	0.53387	-0.134
Mof_N 	N 	0.20169	0.803	0.13328	-0.148
Mof_N 	N 	0.24013	0.5224	0.03403	-0.149
Mof_N 	N 	0.98708	0.8937	0.13315	-0.131
Mof_N 	N 	0.91849	0.2382	0.36549	-0.13
Mof_N 	N 	0.89138	0.3136	0.50235	-0.231
Mof_N 	N 	0.87264	0.6084	0.33833	-0.137
Mof_N 	N 	0.04677	0.0176	0.0227	-0.229
Mof_O 	O 	0.91732	0.48417	0.48672	-0.487
Mof_H 	H 	0.9126	0.5361	0.4874	0.241
Mof_O 	O 	0.20647	0.7651	0.50797	-0.487
Mof_H 	H 	0.2079	0.7715	0.538	0.231
Mof_C 	C 	0.8602	0.8077	0.58072	-0.085
Mof_H 	H 	0.8751	0.8498	0.5829	0.065
Mof_C 	C 	0.00889	0.8338	0.13004	-0.007
Mof_H 	H 	0.0166	0.7871	0.152	0.034
Mof_N 	N 	0.22853	0.7334	0.42301	-0.226
Mof_C 	C 	0.85355	0.0715	0.53308	-0.043
Mof_H 	H 	0.8493	0.0812	0.4985	0.05
Mof_C 	C 	0.89709	0.7521	0.35443	-0.075
Mof_H 	H 	0.8976	0.748	0.3882	0.059
Mof_N 	N 	0.00087	0.9302	0.06551	-0.225
Mof_N 	N 	0.85449	0.4745	0.48757	-0.237
Mof_N 	N 	0.86757	0.5018	0.38932	-0.248
Mof_N 	N 	0.24771	0.3875	0.00899	-0.236
Mof_N 	N 	0.90471	0.345	0.40844	-0.234
Mof_C 	C 	0.1272	0.8678	0.04339	-0.067
Mof_H 	H 	0.112	0.845	0.0162	0.048
Mof_C 	C 	0.91778	0.3022	0.54193	0.007
Mof_H 	H 	0.9349	0.3371	0.5477	0.037
Mof_C 	C 	0.91491	0.2327	0.57089	0.001
Mof_H 	H 	0.9294	0.2118	0.5996	0.037
Mof_N 	N 	0.7648	0.9643	0.7535	-0.143
Mof_N 	N 	0.74702	0.9559	0.8178	-0.103
Mof_C 	C 	0.7712	0.9267	0.80084	0.069
Mof_H 	H 	0.7874	0.8909	0.8176	0.002
Mof_C 	C 	0.8734	0.2504	0.50829	0.086
Mof_H 	H 	0.854	0.2414	0.4869	-0.02
Mof_C 	C 	0.94255	0.2959	0.3819	-0.002
Mof_H 	H 	0.9612	0.291	0.3763	0.036
Mof_C 	C 	0.74129	0.0056	0.74473	0.06
Mof_H 	H 	0.7332	0.0355	0.7143	0.004
Mof_C 	C 	0.94132	0.9788	0.21079	-0.079
Mof_H 	H 	0.9323	0.0316	0.2152	0.059
Mof_C 	C 	0.25444	0.5325	0.99823	0.023
Mof_H 	H 	0.2601	0.5852	0.9865	0.027
Mof_C 	C 	0.23492	0.7621	0.3821	0.096
Mof_H 	H 	0.2524	0.7926	0.3828	-0.022
Mof_C 	C 	0.83763	0.4381	0.51582	-0.004
Mof_H 	H 	0.8322	0.3789	0.515	0.025
Mof_C 	C 	0.2239	0.7457	0.0707	-0.078
Mof_H 	H 	0.2262	0.8034	0.0611	0.057
Mof_C 	C 	0.89127	0.1161	0.31307	-0.051
Mof_H 	H 	0.8731	0.1447	0.3097	0.047
Mof_C 	C 	0.81961	0.8686	0.69394	-0.075
Mof_H 	H 	0.8328	0.8212	0.6988	0.059
Mof_C 	C 	0.20143	0.6911	0.40468	0.009
Mof_H 	H 	0.1914	0.6633	0.4248	0.029
Mof_C 	C 	0.84707	0.5624	0.313	-0.006
Mof_H 	H 	0.8342	0.5735	0.2806	0.035
Mof_C 	C 	0.93362	0.3609	0.40791	0.013
Mof_H 	H 	0.9453	0.409	0.423	0.033
Mof_C 	C 	0.23615	0.759	0.27165	-0.076
Mof_H 	H 	0.255	0.7464	0.2944	0.055
Mof_C 	C 	0.81447	0.7636	0.59618	-0.092
Mof_H 	H 	0.7985	0.7754	0.6086	0.069
Mof_C 	C 	0.17604	0.8539	0.10452	0.098
Mof_C 	C 	0.01687	0.8569	0.08832	0.013
Mof_H 	H 	0.0311	0.8275	0.0769	0.024
Mof_C 	C 	0.89619	0.2719	0.3822	0.089
Mof_H 	H 	0.8772	0.2465	0.3759	-0.029
Mof_C 	C 	0.95844	0.9756	0.17765	-0.059
Mof_H 	H 	0.9611	0.0264	0.1606	0.045
Mof_C 	C 	0.8838	0.5689	0.3836	0.104
Mof_H 	H 	0.9012	0.5874	0.4082	-0.018
Mof_C 	C 	0.85648	0.5597	0.49913	0.095
Mof_H 	H 	0.8664	0.6013	0.4854	-0.021
Mof_C 	C 	0.23001	0.5916	0.05947	0.09
Mof_C 	C 	0.21087	0.7293	0.1087	0.087
Mof_C 	C 	0.84026	0.662	0.55609	0.081
Mof_C 	C 	0.23653	0.4349	0.03945	0.096
Mof_H 	H 	0.2273	0.4107	0.0618	-0.02
Mof_C 	C 	0.8622	0.7261	0.55962	-0.069
Mof_H 	H 	0.8784	0.7139	0.5477	0.053
Mof_C 	C 	0.87312	0.1277	0.56782	0.073
Mof_C 	C 	0.90847	0.8272	0.33734	-0.084
Mof_H 	H 	0.9166	0.8729	0.3598	0.066
Mof_C 	C 	0.89538	0.7654	0.25399	-0.087
Mof_H 	H 	0.8944	0.7699	0.2201	0.061
Mof_C 	C 	0.14736	0.9872	0.09974	-0.051
Mof_H 	H 	0.1455	0.0439	0.1111	0.043
Mof_C 	C 	0.23344	0.6762	0.0472	-0.08
Mof_H 	H 	0.2425	0.6881	0.0223	0.051
Mof_C 	C 	0.94548	0.1119	0.34594	-0.05
Mof_H 	H 	0.9635	0.1371	0.3652	0.048
Mof_C 	C 	0.217	0.5742	0.09631	-0.073
Mof_H 	H 	0.2145	0.5162	0.1052	0.05
Mof_C 	C 	0.84683	0.9862	0.60213	0.12
Mof_C 	C 	0.84445	0.4977	0.345	0.004
Mof_H 	H 	0.829	0.4562	0.3378	0.002
Mof_C 	C 	0.88448	0.6909	0.27096	-0.073
Mof_H 	H 	0.8767	0.645	0.2486	0.058
Mof_C 	C 	0.191	0.6949	0.35253	0.004
Mof_H 	H 	0.1732	0.6713	0.3312	0.03
Mof_C 	C 	0.94543	0.0319	0.32219	-0.115
Mof_H 	H 	0.9636	0.0039	0.3247	0.075
Mof_C 	C 	0.78383	0.9515	0.72014	0.096
Mof_C 	C 	0.17366	0.9392	0.12039	-0.1
Mof_H 	H 	0.1897	0.9647	0.145	0.076
Mof_C 	C 	0.233	0.7743	0.22069	-0.073
Mof_H 	H 	0.2498	0.7722	0.2093	0.061
Mof_C 	C 	0.83589	0.8273	0.59876	0.096
Mof_C 	C 	0.81663	0.6811	0.57497	-0.067
Mof_H 	H 	0.802	0.6385	0.5735	0.058
Mof_C 	C 	0.87921	0.1135	0.619	-0.053
Mof_H 	H 	0.8921	0.1513	0.6421	0.055
Mof_C 	C 	0.2588	0.4485	0.98301	0.024
Mof_H 	H 	0.268	0.4351	0.9585	0.019
Mof_C 	C 	0.84036	0.0008	0.55058	-0.121
Mof_H 	H 	0.8272	0.9634	0.5276	0.083
Mof_C 	C 	0.20746	0.6433	0.12054	-0.084
Mof_H 	H 	0.1985	0.6307	0.1455	0.066
Mof_C 	C 	0.79886	0.999	0.64897	-0.05
Mof_H 	H 	0.7977	0.0395	0.6232	0.054
Mof_C 	C 	0.18009	0.8007	0.20533	-0.072
Mof_H 	H 	0.1613	0.8159	0.1834	0.066
Mof_C 	C 	0.78209	0.0119	0.68174	-0.099
Mof_H 	H 	0.7697	0.0611	0.6781	0.067
Mof_C 	C 	0.81736	0.9263	0.65424	0.081
Mof_C 	C 	0.21097	0.7627	0.28798	0.089
Mof_C 	C 	0.728	0.006	0.78018	-0.041
Mof_H 	H 	0.7101	0.0333	0.7799	0.044
Mof_C 	C 	0.91836	0.1546	0.34086	0.067
Mof_C 	C 	0.86614	0.0428	0.6361	-0.108
Mof_H 	H 	0.8704	0.0332	0.6707	0.073
Mof_C 	C 	0.83001	0.5003	0.54486	0.008
Mof_H 	H 	0.819	0.4921	0.5675	0.03
Mof_C 	C 	0.8026	0.88	0.72644	-0.083
Mof_H 	H 	0.8039	0.8397	0.7523	0.055
Mof_C 	C 	0.18349	0.7861	0.25556	-0.079
Mof_H 	H 	0.1671	0.7922	0.2677	0.067
Mof_C 	C 	0.15331	0.8191	0.06541	-0.097
Mof_H 	H 	0.1553	0.7628	0.0535	0.064
Mof_C 	C 	0.20467	0.7927	0.18678	0.083
Mof_C 	C 	0.89157	0.0346	0.29043	-0.112
Mof_H 	H 	0.8735	0.008	0.2723	0.072
Mof_N 	N 	0.21262	0.7411	0.339	-0.136
Mof_N 	N 	0.83418	0.9118	0.61985	-0.155
Mof_C 	C 	0.88509	0.6841	0.32144	0.083
Mof_C 	C 	0.93756	0.9046	0.23734	0.092
Mof_C 	C 	0.96832	0.8236	0.19704	-0.069
Mof_H 	H 	0.9774	0.771	0.1925	0.056
Mof_C 	C 	0.91859	0.9931	0.29476	0.117
Mof_C 	C 	0.97137	0.898	0.16997	0.078
Mof_C 	C 	0.06115	0.0985	0.02863	-0
Mof_H 	H 	0.0515	0.1531	0.0241	0.034
Mof_C 	C 	0.95172	0.8273	0.231	-0.088
Mof_H 	H 	0.9501	0.7775	0.2496	0.063
Mof_C 	C 	0.98281	0.9498	0.09372	0.085
Mof_H 	H 	0.9691	0.9961	0.0869	-0.016
Mof_N 	N 	0.88686	0.1993	0.55001	-0.131
Mof_N 	N 	0.09595	0.9954	0.0445	-0.132
Mof_C 	C 	0.0682	0.9576	0.0321	0.099
Mof_H 	H 	0.0648	0.897	0.0305	-0.012
Mof_C 	C 	0.09159	0.0861	0.04215	-0
Mof_H 	H 	0.1064	0.1295	0.0485	0.025
Mof_C 	C 	0.1243	0.9498	0.06243	0.072
Mof_C 	C 	0.40772	0.3338	0.28694	0.091
Mof_O 	O 	0.49577	0.62378	0.03396	-0.495
Mof_H 	H 	0.4917	0.6153	0.0603	0.239
Mof_Ni	Ni	0.3792	0.90998	0.44657	1.056
Mof_N 	N 	0.41938	0.4101	0.26992	-0.155
Mof_N 	N 	0.34191	0.0782	0.53387	-0.131
Mof_N 	N 	0.70169	0.303	0.13328	-0.148
Mof_N 	N 	0.74013	0.0224	0.03403	-0.152
Mof_N 	N 	0.48708	0.3937	0.13315	-0.134
Mof_N 	N 	0.41849	0.7382	0.36549	-0.133
Mof_N 	N 	0.39138	0.8136	0.50235	-0.232
Mof_N 	N 	0.37264	0.1084	0.33833	-0.136
Mof_N 	N 	0.54677	0.5176	0.0227	-0.224
Mof_O 	O 	0.41732	0.98417	0.48672	-0.481
Mof_H 	H 	0.4126	0.0361	0.4874	0.235
Mof_O 	O 	0.70647	0.2651	0.50797	-0.488
Mof_H 	H 	0.7079	0.2715	0.538	0.23
Mof_C 	C 	0.3602	0.3077	0.58072	-0.085
Mof_H 	H 	0.3751	0.3498	0.5829	0.064
Mof_C 	C 	0.50889	0.3338	0.13004	-0.005
Mof_H 	H 	0.5166	0.2871	0.152	0.033
Mof_N 	N 	0.72853	0.2334	0.42301	-0.226
Mof_C 	C 	0.35355	0.5715	0.53308	-0.066
Mof_H 	H 	0.3493	0.5812	0.4985	0.059
Mof_C 	C 	0.39709	0.2521	0.35443	-0.075
Mof_H 	H 	0.3976	0.248	0.3882	0.059
Mof_N 	N 	0.50087	0.4302	0.06551	-0.225
Mof_N 	N 	0.35449	0.9745	0.48757	-0.236
Mof_N 	N 	0.36757	0.0018	0.38932	-0.253
Mof_N 	N 	0.74771	0.8875	0.00899	-0.238
Mof_N 	N 	0.40471	0.845	0.40844	-0.234
Mof_C 	C 	0.6272	0.3678	0.04339	-0.075
Mof_H 	H 	0.612	0.345	0.0162	0.05
Mof_C 	C 	0.41778	0.8022	0.54193	0.007
Mof_H 	H 	0.4349	0.8371	0.5477	0.037
Mof_C 	C 	0.41491	0.7327	0.57089	0.002
Mof_H 	H 	0.4294	0.7118	0.5996	0.037
Mof_N 	N 	0.2648	0.4643	0.7535	-0.143
Mof_N 	N 	0.24702	0.4559	0.8178	-0.106
Mof_C 	C 	0.2712	0.4267	0.80084	0.067
Mof_H 	H 	0.2874	0.3909	0.8176	0.003
Mof_C 	C 	0.3734	0.7504	0.50829	0.087
Mof_H 	H 	0.354	0.7414	0.4869	-0.02
Mof_C 	C 	0.44255	0.7959	0.3819	-0.001
Mof_H 	H 	0.4612	0.791	0.3763	0.036
Mof_C 	C 	0.24129	0.5056	0.74473	0.064
Mof_H 	H 	0.2332	0.5355	0.7143	0.004
Mof_C 	C 	0.44132	0.4788	0.21079	-0.086
Mof_H 	H 	0.4323	0.5316	0.2152	0.066
Mof_C 	C 	0.75444	0.0325	0.99823	0.015
Mof_H 	H 	0.7601	0.0852	0.9865	0.03
Mof_C 	C 	0.73492	0.2621	0.3821	0.096
Mof_H 	H 	0.7524	0.2926	0.3828	-0.022
Mof_C 	C 	0.33763	0.9381	0.51582	0.011
Mof_H 	H 	0.3322	0.8789	0.515	0.02
Mof_C 	C 	0.7239	0.2457	0.0707	-0.078
Mof_H 	H 	0.7262	0.3034	0.0611	0.056
Mof_C 	C 	0.39127	0.6161	0.31307	-0.066
Mof_H 	H 	0.3731	0.6447	0.3097	0.052
Mof_C 	C 	0.31961	0.3686	0.69394	-0.093
Mof_H 	H 	0.3328	0.3212	0.6988	0.065
Mof_C 	C 	0.70143	0.1911	0.40468	0.009
Mof_H 	H 	0.6914	0.1633	0.4248	0.028
Mof_C 	C 	0.34707	0.0624	0.313	-0.017
Mof_H 	H 	0.3342	0.0735	0.2806	0.038
Mof_C 	C 	0.43362	0.8609	0.40791	0.013
Mof_H 	H 	0.4453	0.909	0.423	0.034
Mof_C 	C 	0.73615	0.259	0.27165	-0.077
Mof_H 	H 	0.755	0.2464	0.2944	0.055
Mof_C 	C 	0.31447	0.2636	0.59618	-0.093
Mof_H 	H 	0.2985	0.2754	0.6086	0.069
Mof_C 	C 	0.67604	0.3539	0.10452	0.091
Mof_C 	C 	0.51687	0.3569	0.08832	0.011
Mof_H 	H 	0.5311	0.3275	0.0769	0.024
Mof_C 	C 	0.39619	0.7719	0.3822	0.09
Mof_H 	H 	0.3772	0.7465	0.3759	-0.03
Mof_C 	C 	0.45844	0.4756	0.17765	-0.069
Mof_H 	H 	0.4611	0.5264	0.1606	0.053
Mof_C 	C 	0.3838	0.0689	0.3836	0.103
Mof_H 	H 	0.4012	0.0874	0.4082	-0.018
Mof_C 	C 	0.35648	0.0597	0.49913	0.09
Mof_H 	H 	0.3664	0.1013	0.4854	-0.019
Mof_C 	C 	0.73001	0.0916	0.05947	0.089
Mof_C 	C 	0.71087	0.2293	0.1087	0.087
Mof_C 	C 	0.34026	0.162	0.55609	0.08
Mof_C 	C 	0.73653	0.9349	0.03945	0.102
Mof_H 	H 	0.7273	0.9107	0.0618	-0.021
Mof_C 	C 	0.3622	0.2261	0.55962	-0.069
Mof_H 	H 	0.3784	0.2139	0.5477	0.053
Mof_C 	C 	0.37312	0.6277	0.56782	0.088
Mof_C 	C 	0.40847	0.3272	0.33734	-0.084
Mof_H 	H 	0.4166	0.3729	0.3598	0.065
Mof_C 	C 	0.39538	0.2654	0.25399	-0.088
Mof_H 	H 	0.3944	0.2699	0.2201	0.061
Mof_C 	C 	0.64736	0.4872	0.09974	-0.073
Mof_H 	H 	0.6455	0.5439	0.1111	0.055
Mof_C 	C 	0.73344	0.1762	0.0472	-0.08
Mof_H 	H 	0.7425	0.1881	0.0223	0.05
Mof_C 	C 	0.44548	0.6119	0.34594	-0.064
Mof_H 	H 	0.4635	0.6371	0.3652	0.053
Mof_C 	C 	0.717	0.0742	0.09631	-0.073
Mof_H 	H 	0.7145	0.0162	0.1052	0.048
Mof_C 	C 	0.34683	0.4862	0.60213	0.091
Mof_C 	C 	0.34445	0.9977	0.345	0.019
Mof_H 	H 	0.329	0.9562	0.3378	-0.002
Mof_C 	C 	0.38448	0.1909	0.27096	-0.073
Mof_H 	H 	0.3767	0.145	0.2486	0.057
Mof_C 	C 	0.691	0.1949	0.35253	0.004
Mof_H 	H 	0.6732	0.1713	0.3312	0.03
Mof_C 	C 	0.44543	0.5319	0.32219	-0.092
Mof_H 	H 	0.4636	0.5039	0.3247	0.07
Mof_C 	C 	0.28383	0.4515	0.72014	0.075
Mof_C 	C 	0.67366	0.4392	0.12039	-0.088
Mof_H 	H 	0.6897	0.4647	0.145	0.069
Mof_C 	C 	0.733	0.2743	0.22069	-0.073
Mof_H 	H 	0.7498	0.2722	0.2093	0.061
Mof_C 	C 	0.33589	0.3273	0.59876	0.096
Mof_C 	C 	0.31663	0.1811	0.57497	-0.067
Mof_H 	H 	0.302	0.1385	0.5735	0.057
Mof_C 	C 	0.37921	0.6135	0.619	-0.072
Mof_H 	H 	0.3921	0.6513	0.6421	0.061
Mof_C 	C 	0.7588	0.9485	0.98301	0.032
Mof_H 	H 	0.768	0.9351	0.9585	0.017
Mof_C 	C 	0.34036	0.5008	0.55058	-0.083
Mof_H 	H 	0.3272	0.4634	0.5276	0.066
Mof_C 	C 	0.70746	0.1433	0.12054	-0.084
Mof_H 	H 	0.6985	0.1307	0.1455	0.065
Mof_C 	C 	0.29886	0.499	0.64897	-0.089
Mof_H 	H 	0.2977	0.5395	0.6232	0.071
Mof_C 	C 	0.68009	0.3007	0.20533	-0.072
Mof_H 	H 	0.6613	0.3159	0.1834	0.066
Mof_C 	C 	0.28209	0.5119	0.68174	-0.061
Mof_H 	H 	0.2697	0.5611	0.6781	0.055
Mof_C 	C 	0.31736	0.4263	0.65424	0.098
Mof_C 	C 	0.71097	0.2627	0.28798	0.089
Mof_C 	C 	0.228	0.506	0.78018	-0.037
Mof_H 	H 	0.2101	0.5333	0.7799	0.044
Mof_C 	C 	0.41836	0.6546	0.34086	0.077
Mof_C 	C 	0.36614	0.5428	0.6361	-0.082
Mof_H 	H 	0.3704	0.5332	0.6707	0.065
Mof_C 	C 	0.33001	0.0003	0.54486	-0.013
Mof_H 	H 	0.319	0.9921	0.5675	0.041
Mof_C 	C 	0.3026	0.38	0.72644	-0.065
Mof_H 	H 	0.3039	0.3397	0.7523	0.049
Mof_C 	C 	0.68349	0.2861	0.25556	-0.08
Mof_H 	H 	0.6671	0.2922	0.2677	0.066
Mof_C 	C 	0.65331	0.3191	0.06541	-0.09
Mof_H 	H 	0.6553	0.2628	0.0535	0.062
Mof_C 	C 	0.70467	0.2927	0.18678	0.082
Mof_C 	C 	0.39157	0.5346	0.29043	-0.089
Mof_H 	H 	0.3735	0.508	0.2723	0.067
Mof_N 	N 	0.71262	0.2411	0.339	-0.136
Mof_N 	N 	0.33418	0.4118	0.61985	-0.154
Mof_C 	C 	0.38509	0.1841	0.32144	0.082
Mof_C 	C 	0.43756	0.4046	0.23734	0.094
Mof_C 	C 	0.46832	0.3236	0.19704	-0.07
Mof_H 	H 	0.4774	0.271	0.1925	0.056
Mof_C 	C 	0.41859	0.4931	0.29476	0.093
Mof_C 	C 	0.47137	0.398	0.16997	0.08
Mof_C 	C 	0.56115	0.5985	0.02863	-0.003
Mof_H 	H 	0.5515	0.6531	0.0241	0.035
Mof_C 	C 	0.45172	0.3273	0.231	-0.088
Mof_H 	H 	0.4501	0.2775	0.2496	0.063
Mof_C 	C 	0.48281	0.4498	0.09372	0.082
Mof_H 	H 	0.4691	0.4961	0.0869	-0.018
Mof_N 	N 	0.38686	0.6993	0.55001	-0.133
Mof_N 	N 	0.59595	0.4954	0.0445	-0.137
Mof_C 	C 	0.5682	0.4576	0.0321	0.091
Mof_H 	H 	0.5648	0.397	0.0305	-0.01
Mof_C 	C 	0.59159	0.5861	0.04215	0.008
Mof_H 	H 	0.6064	0.6295	0.0485	0.023
Mof_C 	C 	0.6243	0.4498	0.06243	0.08
Mof_C 	C 	0.09228	0.8338	0.21306	0.092
Mof_O 	O 	0.00423	0.12378	0.46604	-0.487
Mof_H 	H 	0.0083	0.1153	0.4397	0.237
Mof_Ni	Ni	0.1208	0.40998	0.05343	1.051
Mof_N 	N 	0.08062	0.9101	0.23008	-0.157
Mof_N 	N 	0.15809	0.5782	0.96613	-0.121
Mof_N 	N 	0.79831	0.803	0.36672	-0.148
Mof_N 	N 	0.75987	0.5224	0.46597	-0.139
Mof_N 	N 	0.01292	0.8937	0.36685	-0.134
Mof_N 	N 	0.08151	0.2382	0.13451	-0.131
Mof_N 	N 	0.10862	0.3136	0.99765	-0.23
Mof_N 	N 	0.12736	0.6084	0.16167	-0.137
Mof_N 	N 	0.95323	0.0176	0.4773	-0.225
Mof_O 	O 	0.08268	0.48417	0.01328	-0.496
Mof_H 	H 	0.0874	0.5361	0.0126	0.239
Mof_O 	O 	0.79353	0.7651	0.99203	-0.471
Mof_H 	H 	0.7921	0.7715	0.962	0.228
Mof_C 	C 	0.1398	0.8077	0.91928	-0.084
Mof_H 	H 	0.1249	0.8498	0.9171	0.068
Mof_C 	C 	0.99111	0.8338	0.36996	-0.002
Mof_H 	H 	0.9834	0.7871	0.348	0.034
Mof_N 	N 	0.77147	0.7334	0.07699	-0.229
Mof_C 	C 	0.14645	0.0715	0.96692	0.03
Mof_H 	H 	0.1507	0.0812	0.0015	0.009
Mof_C 	C 	0.10291	0.7521	0.14557	-0.074
Mof_H 	H 	0.1024	0.748	0.1118	0.058
Mof_N 	N 	0.99913	0.9302	0.43449	-0.218
Mof_N 	N 	0.14551	0.4745	0.01243	-0.247
Mof_N 	N 	0.13243	0.5018	0.11068	-0.248
Mof_N 	N 	0.75229	0.3875	0.49101	-0.222
Mof_N 	N 	0.09529	0.345	0.09156	-0.236
Mof_C 	C 	0.8728	0.8678	0.45661	-0.068
Mof_H 	H 	0.888	0.845	0.4838	0.054
Mof_C 	C 	0.08222	0.3022	0.95807	0.011
Mof_H 	H 	0.0651	0.3371	0.9523	0.042
Mof_C 	C 	0.08509	0.2327	0.92911	0.002
Mof_H 	H 	0.0706	0.2118	0.9004	0.039
Mof_N 	N 	0.2352	0.9643	0.7465	-0.143
Mof_N 	N 	0.25298	0.9559	0.6822	-0.103
Mof_C 	C 	0.2288	0.9267	0.69916	0.069
Mof_H 	H 	0.2126	0.8909	0.6824	0.002
Mof_C 	C 	0.1266	0.2504	0.99171	0.132
Mof_H 	H 	0.146	0.2414	0.0131	-0.051
Mof_C 	C 	0.05745	0.2959	0.1181	-0.003
Mof_H 	H 	0.0388	0.291	0.1237	0.034
Mof_C 	C 	0.25871	0.0056	0.75527	0.06
Mof_H 	H 	0.2668	0.0355	0.7857	0.004
Mof_C 	C 	0.05868	0.9788	0.28921	-0.078
Mof_H 	H 	0.0677	0.0316	0.2848	0.058
Mof_C 	C 	0.74556	0.5325	0.50177	0.004
Mof_H 	H 	0.7399	0.5852	0.5135	0.027
Mof_C 	C 	0.76508	0.7621	0.1179	0.096
Mof_H 	H 	0.7476	0.7926	0.1172	-0.022
Mof_C 	C 	0.16237	0.4381	0.98418	0.025
Mof_H 	H 	0.1678	0.3789	0.985	0.023
Mof_C 	C 	0.7761	0.7457	0.4293	-0.073
Mof_H 	H 	0.7738	0.8034	0.4389	0.059
Mof_C 	C 	0.10873	0.1161	0.18693	-0.05
Mof_H 	H 	0.1269	0.1447	0.1903	0.047
Mof_C 	C 	0.18039	0.8686	0.80606	-0.077
Mof_H 	H 	0.1672	0.8212	0.8012	0.06
Mof_C 	C 	0.79857	0.6911	0.09532	0.008
Mof_H 	H 	0.8086	0.6633	0.0752	0.026
Mof_C 	C 	0.15293	0.5624	0.187	-0.006
Mof_H 	H 	0.1658	0.5735	0.2194	0.035
Mof_C 	C 	0.06638	0.3609	0.09209	0.011
Mof_H 	H 	0.0547	0.409	0.077	0.03
Mof_C 	C 	0.76385	0.759	0.22835	-0.076
Mof_H 	H 	0.745	0.7464	0.2056	0.055
Mof_C 	C 	0.18553	0.7636	0.90382	-0.09
Mof_H 	H 	0.2015	0.7754	0.8914	0.069
Mof_C 	C 	0.82396	0.8539	0.39548	0.098
Mof_C 	C 	0.98313	0.8569	0.41168	0.013
Mof_H 	H 	0.9689	0.8275	0.4231	0.028
Mof_C 	C 	0.10381	0.2719	0.1178	0.088
Mof_H 	H 	0.1228	0.2465	0.1241	-0.03
Mof_C 	C 	0.04156	0.9756	0.32235	-0.06
Mof_H 	H 	0.0389	0.0264	0.3394	0.046
Mof_C 	C 	0.1162	0.5689	0.1164	0.104
Mof_H 	H 	0.0988	0.5874	0.0918	-0.019
Mof_C 	C 	0.14352	0.5597	0.00087	0.069
Mof_H 	H 	0.1336	0.6013	0.0146	-0.017
Mof_C 	C 	0.76999	0.5916	0.44053	0.095
Mof_C 	C 	0.78913	0.7293	0.3913	0.086
Mof_C 	C 	0.15974	0.662	0.94391	0.085
Mof_C 	C 	0.76347	0.4349	0.46055	0.102
Mof_H 	H 	0.7727	0.4107	0.4382	-0.02
Mof_C 	C 	0.1378	0.7261	0.94038	-0.067
Mof_H 	H 	0.1216	0.7139	0.9523	0.06
Mof_C 	C 	0.12688	0.1277	0.93218	0.049
Mof_C 	C 	0.09153	0.8272	0.16266	-0.085
Mof_H 	H 	0.0834	0.8729	0.1402	0.066
Mof_C 	C 	0.10462	0.7654	0.24601	-0.088
Mof_H 	H 	0.1056	0.7699	0.2799	0.062
Mof_C 	C 	0.85264	0.9872	0.40026	-0.054
Mof_H 	H 	0.8545	0.0439	0.3889	0.045
Mof_C 	C 	0.76656	0.6762	0.4528	-0.082
Mof_H 	H 	0.7575	0.6881	0.4777	0.06
Mof_C 	C 	0.05452	0.1119	0.15406	-0.049
Mof_H 	H 	0.0365	0.1371	0.1348	0.046
Mof_C 	C 	0.783	0.5742	0.40369	-0.074
Mof_H 	H 	0.7855	0.5162	0.3948	0.051
Mof_C 	C 	0.15317	0.9862	0.89787	0.141
Mof_C 	C 	0.15555	0.4977	0.155	0.004
Mof_H 	H 	0.171	0.4562	0.1622	0.001
Mof_C 	C 	0.11552	0.6909	0.22904	-0.072
Mof_H 	H 	0.1233	0.645	0.2514	0.057
Mof_C 	C 	0.809	0.6949	0.14747	0.004
Mof_H 	H 	0.8268	0.6713	0.1688	0.03
Mof_C 	C 	0.05457	0.0319	0.17781	-0.116
Mof_H 	H 	0.0364	0.0039	0.1753	0.074
Mof_C 	C 	0.21617	0.9515	0.77986	0.095
Mof_C 	C 	0.82634	0.9392	0.37961	-0.098
Mof_H 	H 	0.8103	0.9647	0.355	0.075
Mof_C 	C 	0.767	0.7743	0.27931	-0.073
Mof_H 	H 	0.7502	0.7722	0.2907	0.061
Mof_C 	C 	0.16411	0.8273	0.90124	0.098
Mof_C 	C 	0.18337	0.6811	0.92503	-0.066
Mof_H 	H 	0.198	0.6385	0.9265	0.06
Mof_C 	C 	0.12079	0.1135	0.881	-0.031
Mof_H 	H 	0.1079	0.1513	0.8579	0.047
Mof_C 	C 	0.7412	0.4485	0.51699	0.005
Mof_H 	H 	0.732	0.4351	0.5415	0.022
Mof_C 	C 	0.15964	0.0008	0.94942	-0.16
Mof_H 	H 	0.1728	0.9634	0.9724	0.105
Mof_C 	C 	0.79254	0.6433	0.37946	-0.081
Mof_H 	H 	0.8015	0.6307	0.3545	0.065
Mof_C 	C 	0.20114	0.999	0.85103	-0.053
Mof_H 	H 	0.2023	0.0395	0.8768	0.057
Mof_C 	C 	0.81991	0.8007	0.29467	-0.072
Mof_H 	H 	0.8387	0.8159	0.3166	0.066
Mof_C 	C 	0.21791	0.0119	0.81826	-0.097
Mof_H 	H 	0.2303	0.0611	0.8219	0.066
Mof_C 	C 	0.18264	0.9263	0.84576	0.083
Mof_C 	C 	0.78903	0.7627	0.21202	0.089
Mof_C 	C 	0.272	0.006	0.71982	-0.041
Mof_H 	H 	0.2899	0.0333	0.7201	0.044
Mof_C 	C 	0.08164	0.1546	0.15914	0.066
Mof_C 	C 	0.13386	0.0428	0.8639	-0.128
Mof_H 	H 	0.1296	0.0332	0.8293	0.079
Mof_C 	C 	0.16999	0.5003	0.95514	0.001
Mof_H 	H 	0.181	0.4921	0.9325	0.035
Mof_C 	C 	0.1974	0.88	0.77356	-0.082
Mof_H 	H 	0.1961	0.8397	0.7477	0.055
Mof_C 	C 	0.81651	0.7861	0.24444	-0.079
Mof_H 	H 	0.8329	0.7922	0.2323	0.066
Mof_C 	C 	0.84669	0.8191	0.43459	-0.093
Mof_H 	H 	0.8447	0.7628	0.4465	0.067
Mof_C 	C 	0.79533	0.7927	0.31322	0.083
Mof_C 	C 	0.10843	0.0346	0.20957	-0.113
Mof_H 	H 	0.1265	0.008	0.2277	0.073
Mof_N 	N 	0.78738	0.7411	0.161	-0.136
Mof_N 	N 	0.16582	0.9118	0.88015	-0.159
Mof_C 	C 	0.11491	0.6841	0.17856	0.082
Mof_C 	C 	0.06244	0.9046	0.26266	0.092
Mof_C 	C 	0.03168	0.8236	0.30296	-0.069
Mof_H 	H 	0.0226	0.771	0.3075	0.056
Mof_C 	C 	0.08141	0.9931	0.20524	0.118
Mof_C 	C 	0.02863	0.898	0.33003	0.078
Mof_C 	C 	0.93885	0.0985	0.47137	0.003
Mof_H 	H 	0.9485	0.1531	0.4759	0.039
Mof_C 	C 	0.04828	0.8273	0.269	-0.088
Mof_H 	H 	0.0499	0.7775	0.2504	0.063
Mof_C 	C 	0.01719	0.9498	0.40628	0.082
Mof_H 	H 	0.0309	0.9961	0.4131	-0.012
Mof_N 	N 	0.11314	0.1993	0.94999	-0.131
Mof_N 	N 	0.90405	0.9954	0.4555	-0.132
Mof_C 	C 	0.9318	0.9576	0.4679	0.101
Mof_H 	H 	0.9352	0.897	0.4695	-0.008
Mof_C 	C 	0.90841	0.0861	0.45785	0.003
Mof_H 	H 	0.8936	0.1295	0.4515	0.028
Mof_C 	C 	0.8757	0.9498	0.43757	0.076
Mof_C 	C 	0.59228	0.3338	0.21306	0.091
Mof_O 	O 	0.50423	0.62378	0.46604	-0.485
Mof_H 	H 	0.5083	0.6153	0.4397	0.238
Mof_Ni	Ni	0.6208	0.90998	0.05343	1.052
Mof_N 	N 	0.58062	0.4101	0.23008	-0.155
Mof_N 	N 	0.65809	0.0782	0.96613	-0.117
Mof_N 	N 	0.29831	0.303	0.36672	-0.147
Mof_N 	N 	0.25987	0.0224	0.46597	-0.141
Mof_N 	N 	0.51292	0.3937	0.36685	-0.134
Mof_N 	N 	0.58151	0.7382	0.13451	-0.133
Mof_N 	N 	0.60862	0.8136	0.99765	-0.231
Mof_N 	N 	0.62736	0.1084	0.16167	-0.136
Mof_N 	N 	0.45323	0.5176	0.4773	-0.22
Mof_O 	O 	0.58268	0.98417	0.01328	-0.488
Mof_H 	H 	0.5874	0.0361	0.0126	0.233
Mof_O 	O 	0.29353	0.2651	0.99203	-0.471
Mof_H 	H 	0.2921	0.2715	0.962	0.227
Mof_C 	C 	0.6398	0.3077	0.91928	-0.083
Mof_H 	H 	0.6249	0.3498	0.9171	0.067
Mof_C 	C 	0.49111	0.3338	0.36996	-0.004
Mof_H 	H 	0.4834	0.2871	0.348	0.034
Mof_N 	N 	0.27147	0.2334	0.07699	-0.229
Mof_C 	C 	0.64645	0.5715	0.96692	0.008
Mof_H 	H 	0.6507	0.5812	0.0015	0.018
Mof_C 	C 	0.60291	0.2521	0.14557	-0.075
Mof_H 	H 	0.6024	0.248	0.1118	0.058
Mof_N 	N 	0.49913	0.4302	0.43449	-0.222
Mof_N 	N 	0.64551	0.9745	0.01243	-0.245
Mof_N 	N 	0.63243	0.0018	0.11068	-0.253
Mof_N 	N 	0.25229	0.8875	0.49101	-0.224
Mof_N 	N 	0.59529	0.845	0.09156	-0.236
Mof_C 	C 	0.3728	0.3678	0.45661	-0.075
Mof_H 	H 	0.388	0.345	0.4838	0.056
Mof_C 	C 	0.58222	0.8022	0.95807	0.01
Mof_H 	H 	0.5651	0.8371	0.9523	0.042
Mof_C 	C 	0.58509	0.7327	0.92911	0.003
Mof_H 	H 	0.5706	0.7118	0.9004	0.038
Mof_N 	N 	0.7352	0.4643	0.7465	-0.143
Mof_N 	N 	0.75298	0.4559	0.6822	-0.106
Mof_C 	C 	0.7288	0.4267	0.69916	0.067
Mof_H 	H 	0.7126	0.3909	0.6824	0.002
Mof_C 	C 	0.6266	0.7504	0.99171	0.132
Mof_H 	H 	0.646	0.7414	0.0131	-0.05
Mof_C 	C 	0.55745	0.7959	0.1181	-0.002
Mof_H 	H 	0.5388	0.791	0.1237	0.034
Mof_C 	C 	0.75871	0.5056	0.75527	0.064
Mof_H 	H 	0.7668	0.5355	0.7857	0.004
Mof_C 	C 	0.55868	0.4788	0.28921	-0.086
Mof_H 	H 	0.5677	0.5316	0.2848	0.066
Mof_C 	C 	0.24556	0.0325	0.50177	-0.006
Mof_H 	H 	0.2399	0.0852	0.5135	0.03
Mof_C 	C 	0.26508	0.2621	0.1179	0.096
Mof_H 	H 	0.2476	0.2926	0.1172	-0.023
Mof_C 	C 	0.66237	0.9381	0.98418	0.037
Mof_H 	H 	0.6678	0.8789	0.985	0.019
Mof_C 	C 	0.2761	0.2457	0.4293	-0.073
Mof_H 	H 	0.2738	0.3034	0.4389	0.058
Mof_C 	C 	0.60873	0.6161	0.18693	-0.065
Mof_H 	H 	0.6269	0.6447	0.1903	0.052
Mof_C 	C 	0.68039	0.3686	0.80606	-0.094
Mof_H 	H 	0.6672	0.3212	0.8012	0.065
Mof_C 	C 	0.29857	0.1911	0.09532	0.008
Mof_H 	H 	0.3086	0.1633	0.0752	0.025
Mof_C 	C 	0.65293	0.0624	0.187	-0.018
Mof_H 	H 	0.6658	0.0735	0.2194	0.038
Mof_C 	C 	0.56638	0.8609	0.09209	0.011
Mof_H 	H 	0.5547	0.909	0.077	0.031
Mof_C 	C 	0.26385	0.259	0.22835	-0.076
Mof_H 	H 	0.245	0.2464	0.2056	0.055
Mof_C 	C 	0.68553	0.2636	0.90382	-0.091
Mof_H 	H 	0.7015	0.2754	0.8914	0.069
Mof_C 	C 	0.32396	0.3539	0.39548	0.091
Mof_C 	C 	0.48313	0.3569	0.41168	0.013
Mof_H 	H 	0.4689	0.3275	0.4231	0.027
Mof_C 	C 	0.60381	0.7719	0.1178	0.089
Mof_H 	H 	0.6228	0.7465	0.1241	-0.03
Mof_C 	C 	0.54156	0.4756	0.32235	-0.069
Mof_H 	H 	0.5389	0.5264	0.3394	0.054
Mof_C 	C 	0.6162	0.0689	0.1164	0.103
Mof_H 	H 	0.5988	0.0874	0.0918	-0.02
Mof_C 	C 	0.64352	0.0597	0.00087	0.063
Mof_H 	H 	0.6336	0.1013	0.0146	-0.016
Mof_C 	C 	0.26999	0.0916	0.44053	0.094
Mof_C 	C 	0.28913	0.2293	0.3913	0.086
Mof_C 	C 	0.65974	0.162	0.94391	0.084
Mof_C 	C 	0.26347	0.9349	0.46055	0.107
Mof_H 	H 	0.2727	0.9107	0.4382	-0.02
Mof_C 	C 	0.6378	0.2261	0.94038	-0.066
Mof_H 	H 	0.6216	0.2139	0.9523	0.06
Mof_C 	C 	0.62688	0.6277	0.93218	0.063
Mof_C 	C 	0.59153	0.3272	0.16266	-0.084
Mof_H 	H 	0.5834	0.3729	0.1402	0.066
Mof_C 	C 	0.60462	0.2654	0.24601	-0.088
Mof_H 	H 	0.6056	0.2699	0.2799	0.061
Mof_C 	C 	0.35264	0.4872	0.40026	-0.074
Mof_H 	H 	0.3545	0.5439	0.3889	0.055
Mof_C 	C 	0.26656	0.1762	0.4528	-0.081
Mof_H 	H 	0.2575	0.1881	0.4777	0.06
Mof_C 	C 	0.55452	0.6119	0.15406	-0.064
Mof_H 	H 	0.5365	0.6371	0.1348	0.052
Mof_C 	C 	0.283	0.0742	0.40369	-0.074
Mof_H 	H 	0.2855	0.0162	0.3948	0.049
Mof_C 	C 	0.65317	0.4862	0.89787	0.113
Mof_C 	C 	0.65555	0.9977	0.155	0.019
Mof_H 	H 	0.671	0.9562	0.1622	-0.003
Mof_C 	C 	0.61552	0.1909	0.22904	-0.072
Mof_H 	H 	0.6233	0.145	0.2514	0.057
Mof_C 	C 	0.309	0.1949	0.14747	0.004
Mof_H 	H 	0.3268	0.1713	0.1688	0.03
Mof_C 	C 	0.55457	0.5319	0.17781	-0.093
Mof_H 	H 	0.5364	0.5039	0.1753	0.07
Mof_C 	C 	0.71617	0.4515	0.77986	0.074
Mof_C 	C 	0.32634	0.4392	0.37961	-0.086
Mof_H 	H 	0.3103	0.4647	0.355	0.069
Mof_C 	C 	0.267	0.2743	0.27931	-0.073
Mof_H 	H 	0.2502	0.2722	0.2907	0.061
Mof_C 	C 	0.66411	0.3273	0.90124	0.097
Mof_C 	C 	0.68337	0.1811	0.92503	-0.065
Mof_H 	H 	0.698	0.1385	0.9265	0.059
Mof_C 	C 	0.62079	0.6135	0.881	-0.048
Mof_H 	H 	0.6079	0.6513	0.8579	0.054
Mof_C 	C 	0.2412	0.9485	0.51699	0.015
Mof_H 	H 	0.232	0.9351	0.5415	0.02
Mof_C 	C 	0.65964	0.5008	0.94942	-0.124
Mof_H 	H 	0.6728	0.4634	0.9724	0.089
Mof_C 	C 	0.29254	0.1433	0.37946	-0.082
Mof_H 	H 	0.3015	0.1307	0.3545	0.064
Mof_C 	C 	0.70114	0.499	0.85103	-0.091
Mof_H 	H 	0.7023	0.5395	0.8768	0.073
Mof_C 	C 	0.31991	0.3007	0.29467	-0.072
Mof_H 	H 	0.3387	0.3159	0.3166	0.066
Mof_C 	C 	0.71791	0.5119	0.81826	-0.06
Mof_H 	H 	0.7303	0.5611	0.8219	0.055
Mof_C 	C 	0.68264	0.4263	0.84576	0.1
Mof_C 	C 	0.28903	0.2627	0.21202	0.089
Mof_C 	C 	0.772	0.506	0.71982	-0.037
Mof_H 	H 	0.7899	0.5333	0.7201	0.044
Mof_C 	C 	0.58164	0.6546	0.15914	0.077
Mof_C 	C 	0.63386	0.5428	0.8639	-0.103
Mof_H 	H 	0.6296	0.5332	0.8293	0.073
Mof_C 	C 	0.66999	0.0003	0.95514	-0.017
Mof_H 	H 	0.681	0.9921	0.9325	0.044
Mof_C 	C 	0.6974	0.38	0.77356	-0.064
Mof_H 	H 	0.6961	0.3397	0.7477	0.049
Mof_C 	C 	0.31651	0.2861	0.24444	-0.08
Mof_H 	H 	0.3329	0.2922	0.2323	0.066
Mof_C 	C 	0.34669	0.3191	0.43459	-0.087
Mof_H 	H 	0.3447	0.2628	0.4465	0.065
Mof_C 	C 	0.29533	0.2927	0.31322	0.082
Mof_C 	C 	0.60843	0.5346	0.20957	-0.089
Mof_H 	H 	0.6265	0.508	0.2277	0.067
Mof_N 	N 	0.28738	0.2411	0.161	-0.136
Mof_N 	N 	0.66582	0.4118	0.88015	-0.158
Mof_C 	C 	0.61491	0.1841	0.17856	0.081
Mof_C 	C 	0.56244	0.4046	0.26266	0.093
Mof_C 	C 	0.53168	0.3236	0.30296	-0.071
Mof_H 	H 	0.5226	0.271	0.3075	0.057
Mof_C 	C 	0.58141	0.4931	0.20524	0.093
Mof_C 	C 	0.52863	0.398	0.33003	0.082
Mof_C 	C 	0.43885	0.5985	0.47137	0
Mof_H 	H 	0.4485	0.6531	0.4759	0.04
Mof_C 	C 	0.54828	0.3273	0.269	-0.087
Mof_H 	H 	0.5499	0.2775	0.2504	0.062
Mof_C 	C 	0.51719	0.4498	0.40628	0.084
Mof_H 	H 	0.5309	0.4961	0.4131	-0.015
Mof_N 	N 	0.61314	0.6993	0.94999	-0.133
Mof_N 	N 	0.40405	0.4954	0.4555	-0.136
Mof_C 	C 	0.4318	0.4576	0.4679	0.094
Mof_H 	H 	0.4352	0.397	0.4695	-0.007
Mof_C 	C 	0.40841	0.5861	0.45785	0.011
Mof_H 	H 	0.3936	0.6295	0.4515	0.026
Mof_C 	C 	0.3757	0.4498	0.43757	0.083
Mof_C 	C 	0.09228	0.1662	0.71306	0.089
Mof_O 	O 	0.00423	0.87622	0.96604	-0.472
Mof_H 	H 	0.0083	0.8847	0.9397	0.237
Mof_Ni	Ni	0.1208	0.59002	0.55343	1.055
Mof_N 	N 	0.08062	0.0899	0.73008	-0.152
Mof_N 	N 	0.15809	0.4218	0.46613	-0.135
Mof_N 	N 	0.79831	0.197	0.86672	-0.146
Mof_N 	N 	0.75987	0.4776	0.96597	-0.128
Mof_N 	N 	0.01292	0.1063	0.86685	-0.136
Mof_N 	N 	0.08151	0.7618	0.63451	-0.134
Mof_N 	N 	0.10862	0.6864	0.49765	-0.232
Mof_N 	N 	0.12736	0.3916	0.66167	-0.138
Mof_N 	N 	0.95323	0.9824	0.9773	-0.209
Mof_O 	O 	0.08268	0.51583	0.51328	-0.488
Mof_H 	H 	0.0874	0.4639	0.5126	0.24
Mof_O 	O 	0.79353	0.2349	0.49203	-0.487
Mof_H 	H 	0.7921	0.2285	0.462	0.23
Mof_C 	C 	0.1398	0.1923	0.41928	-0.083
Mof_H 	H 	0.1249	0.1502	0.4171	0.063
Mof_C 	C 	0.99111	0.1662	0.86996	-0.001
Mof_H 	H 	0.9834	0.2129	0.848	0.034
Mof_N 	N 	0.77147	0.2666	0.57699	-0.226
Mof_C 	C 	0.14645	0.9285	0.46692	-0.09
Mof_H 	H 	0.1507	0.9188	0.5015	0.069
Mof_C 	C 	0.10291	0.2479	0.64557	-0.076
Mof_H 	H 	0.1024	0.252	0.6118	0.059
Mof_N 	N 	0.99913	0.0698	0.93449	-0.215
Mof_N 	N 	0.14551	0.5255	0.51243	-0.237
Mof_N 	N 	0.13243	0.4982	0.61068	-0.248
Mof_N 	N 	0.75229	0.6125	0.99101	-0.205
Mof_N 	N 	0.09529	0.655	0.59156	-0.235
Mof_C 	C 	0.8728	0.1322	0.95661	-0.082
Mof_H 	H 	0.888	0.155	0.9838	0.065
Mof_C 	C 	0.08222	0.6978	0.45807	0.006
Mof_H 	H 	0.0651	0.6629	0.4523	0.037
Mof_C 	C 	0.08509	0.7673	0.42911	0.003
Mof_H 	H 	0.0706	0.7882	0.4004	0.036
Mof_N 	N 	0.2352	0.0357	0.2465	-0.143
Mof_N 	N 	0.25298	0.0441	0.1822	-0.109
Mof_C 	C 	0.2288	0.0733	0.19916	0.064
Mof_H 	H 	0.2126	0.1091	0.1824	0.002
Mof_C 	C 	0.1266	0.7496	0.49171	0.088
Mof_H 	H 	0.146	0.7586	0.5131	-0.02
Mof_C 	C 	0.05745	0.7041	0.6181	-0.001
Mof_H 	H 	0.0388	0.709	0.6237	0.035
Mof_C 	C 	0.25871	0.9944	0.25527	0.069
Mof_H 	H 	0.2668	0.9645	0.2857	0.005
Mof_C 	C 	0.05868	0.0212	0.78921	-0.092
Mof_H 	H 	0.0677	0.9684	0.7848	0.072
Mof_C 	C 	0.74556	0.4675	0.00177	-0.015
Mof_H 	H 	0.7399	0.4148	0.0135	0.026
Mof_C 	C 	0.76508	0.2379	0.6179	0.096
Mof_H 	H 	0.7476	0.2074	0.6172	-0.023
Mof_C 	C 	0.16237	0.5619	0.48418	-0.005
Mof_H 	H 	0.1678	0.6211	0.485	0.025
Mof_C 	C 	0.7761	0.2543	0.9293	-0.068
Mof_H 	H 	0.7738	0.1966	0.9389	0.06
Mof_C 	C 	0.10873	0.8839	0.68693	-0.079
Mof_H 	H 	0.1269	0.8553	0.6903	0.057
Mof_C 	C 	0.18039	0.1314	0.30606	-0.112
Mof_H 	H 	0.1672	0.1788	0.3012	0.071
Mof_C 	C 	0.79857	0.3089	0.59532	0.009
Mof_H 	H 	0.8086	0.3367	0.5752	0.029
Mof_C 	C 	0.15293	0.4376	0.687	-0.005
Mof_H 	H 	0.1658	0.4265	0.7194	0.035
Mof_C 	C 	0.06638	0.6391	0.59209	0.012
Mof_H 	H 	0.0547	0.591	0.577	0.033
Mof_C 	C 	0.76385	0.241	0.72835	-0.077
Mof_H 	H 	0.745	0.2536	0.7056	0.055
Mof_C 	C 	0.18553	0.2364	0.40382	-0.091
Mof_H 	H 	0.2015	0.2246	0.3914	0.068
Mof_C 	C 	0.82396	0.1461	0.89548	0.085
Mof_C 	C 	0.98313	0.1431	0.91168	0.014
Mof_H 	H 	0.9689	0.1725	0.9231	0.031
Mof_C 	C 	0.10381	0.7281	0.6178	0.09
Mof_H 	H 	0.1228	0.7535	0.6241	-0.03
Mof_C 	C 	0.04156	0.0244	0.82235	-0.079
Mof_H 	H 	0.0389	0.9736	0.8394	0.063
Mof_C 	C 	0.1162	0.4311	0.6164	0.104
Mof_H 	H 	0.0988	0.4126	0.5918	-0.018
Mof_C 	C 	0.14352	0.4403	0.50087	0.095
Mof_H 	H 	0.1336	0.3987	0.5146	-0.021
Mof_C 	C 	0.76999	0.4084	0.94053	0.101
Mof_C 	C 	0.78913	0.2707	0.8913	0.085
Mof_C 	C 	0.15974	0.338	0.44391	0.082
Mof_C 	C 	0.76347	0.5651	0.96055	0.107
Mof_H 	H 	0.7727	0.5893	0.9382	-0.019
Mof_C 	C 	0.1378	0.2739	0.44038	-0.071
Mof_H 	H 	0.1216	0.2861	0.4523	0.053
Mof_C 	C 	0.12688	0.8723	0.43218	0.103
Mof_C 	C 	0.09153	0.1728	0.66266	-0.082
Mof_H 	H 	0.0834	0.1271	0.6402	0.064
Mof_C 	C 	0.10462	0.2346	0.74601	-0.087
Mof_H 	H 	0.1056	0.2301	0.7799	0.062
Mof_C 	C 	0.85264	0.0128	0.90026	-0.096
Mof_H 	H 	0.8545	0.9561	0.8889	0.066
Mof_C 	C 	0.76656	0.3238	0.9528	-0.084
Mof_H 	H 	0.7575	0.3119	0.9777	0.07
Mof_C 	C 	0.05452	0.8881	0.65406	-0.078
Mof_H 	H 	0.0365	0.8629	0.6348	0.058
Mof_C 	C 	0.783	0.4258	0.90369	-0.077
Mof_H 	H 	0.7855	0.4838	0.8948	0.053
Mof_C 	C 	0.15317	0.0138	0.39787	0.061
Mof_C 	C 	0.15555	0.5023	0.655	0.004
Mof_H 	H 	0.171	0.5438	0.6622	0.002
Mof_C 	C 	0.11552	0.3091	0.72904	-0.073
Mof_H 	H 	0.1233	0.355	0.7514	0.058
Mof_C 	C 	0.809	0.3051	0.64747	0.004
Mof_H 	H 	0.8268	0.3287	0.6688	0.03
Mof_C 	C 	0.05457	0.9681	0.67781	-0.07
Mof_H 	H 	0.0364	0.9961	0.6753	0.065
Mof_C 	C 	0.21617	0.0485	0.27986	0.051
Mof_C 	C 	0.82634	0.0608	0.87961	-0.073
Mof_H 	H 	0.8103	0.0353	0.855	0.062
Mof_C 	C 	0.767	0.2257	0.77931	-0.072
Mof_H 	H 	0.7502	0.2278	0.7907	0.061
Mof_C 	C 	0.16411	0.1727	0.40124	0.094
Mof_C 	C 	0.18337	0.3189	0.42503	-0.068
Mof_H 	H 	0.198	0.3615	0.4265	0.058
Mof_C 	C 	0.12079	0.8865	0.381	-0.091
Mof_H 	H 	0.1079	0.8487	0.3579	0.068
Mof_C 	C 	0.7412	0.5515	0.01699	-0.014
Mof_H 	H 	0.732	0.5649	0.0415	0.025
Mof_C 	C 	0.15964	0.9992	0.44942	-0.043
Mof_H 	H 	0.1728	0.0366	0.4724	0.049
Mof_C 	C 	0.79254	0.3567	0.87946	-0.078
Mof_H 	H 	0.8015	0.3693	0.8545	0.064
Mof_C 	C 	0.20114	0.001	0.35103	-0.13
Mof_H 	H 	0.2023	0.9605	0.3768	0.089
Mof_C 	C 	0.81991	0.1993	0.79467	-0.072
Mof_H 	H 	0.8387	0.1841	0.8166	0.065
Mof_C 	C 	0.21791	0.9881	0.31826	-0.021
Mof_H 	H 	0.2303	0.9389	0.3219	0.042
Mof_C 	C 	0.18264	0.0737	0.34576	0.116
Mof_C 	C 	0.78903	0.2373	0.71202	0.089
Mof_C 	C 	0.272	0.994	0.21982	-0.033
Mof_H 	H 	0.2899	0.9667	0.2201	0.044
Mof_C 	C 	0.08164	0.8454	0.65914	0.087
Mof_C 	C 	0.13386	0.9572	0.3639	-0.054
Mof_H 	H 	0.1296	0.9668	0.3293	0.058
Mof_C 	C 	0.16999	0.4997	0.45514	0.008
Mof_H 	H 	0.181	0.5079	0.4325	0.03
Mof_C 	C 	0.1974	0.12	0.27356	-0.045
Mof_H 	H 	0.1961	0.1603	0.2477	0.042
Mof_C 	C 	0.81651	0.2139	0.74444	-0.08
Mof_H 	H 	0.8329	0.2078	0.7323	0.066
Mof_C 	C 	0.84669	0.1809	0.93459	-0.077
Mof_H 	H 	0.8447	0.2372	0.9465	0.066
Mof_C 	C 	0.79533	0.2073	0.81322	0.082
Mof_C 	C 	0.10843	0.9654	0.70957	-0.067
Mof_H 	H 	0.1265	0.992	0.7277	0.061
Mof_N 	N 	0.78738	0.2589	0.661	-0.136
Mof_N 	N 	0.16582	0.0882	0.38015	-0.153
Mof_C 	C 	0.11491	0.3159	0.67856	0.084
Mof_C 	C 	0.06244	0.0954	0.76266	0.094
Mof_C 	C 	0.03168	0.1764	0.80296	-0.072
Mof_H 	H 	0.0226	0.229	0.8075	0.058
Mof_C 	C 	0.08141	0.0069	0.70524	0.07
Mof_C 	C 	0.02863	0.102	0.83003	0.085
Mof_C 	C 	0.93885	0.9015	0.97137	0.001
Mof_H 	H 	0.9485	0.8469	0.9759	0.046
Mof_C 	C 	0.04828	0.1727	0.769	-0.086
Mof_H 	H 	0.0499	0.2225	0.7504	0.063
Mof_C 	C 	0.01719	0.0502	0.90628	0.083
Mof_H 	H 	0.0309	0.0039	0.9131	-0.013
Mof_N 	N 	0.11314	0.8007	0.44999	-0.136
Mof_N 	N 	0.90405	0.0046	0.9555	-0.139
Mof_C 	C 	0.9318	0.0424	0.9679	0.091
Mof_H 	H 	0.9352	0.103	0.9695	-0.001
Mof_C 	C 	0.90841	0.9139	0.95785	0.021
Mof_H 	H 	0.8936	0.8705	0.9515	0.027
Mof_C 	C 	0.8757	0.0502	0.93757	0.094
Mof_C 	C 	0.59228	0.6662	0.71306	0.09
Mof_O 	O 	0.50423	0.37622	0.96604	-0.472
Mof_H 	H 	0.5083	0.3847	0.9397	0.237
Mof_Ni	Ni	0.6208	0.09002	0.55343	1.054
Mof_N 	N 	0.58062	0.5899	0.73008	-0.154
Mof_N 	N 	0.65809	0.9218	0.46613	-0.139
Mof_N 	N 	0.29831	0.697	0.86672	-0.147
Mof_N 	N 	0.25987	0.9776	0.96597	-0.128
Mof_N 	N 	0.51292	0.6063	0.86685	-0.134
Mof_N 	N 	0.58151	0.2618	0.63451	-0.133
Mof_N 	N 	0.60862	0.1864	0.49765	-0.232
Mof_N 	N 	0.62736	0.8916	0.66167	-0.139
Mof_N 	N 	0.45323	0.4824	0.9773	-0.215
Mof_O 	O 	0.58268	0.01583	0.51328	-0.494
Mof_H 	H 	0.5874	0.9639	0.5126	0.246
Mof_O 	O 	0.29353	0.7349	0.49203	-0.487
Mof_H 	H 	0.2921	0.7285	0.462	0.231
Mof_C 	C 	0.6398	0.6923	0.41928	-0.083
Mof_H 	H 	0.6249	0.6502	0.4171	0.064
Mof_C 	C 	0.49111	0.6662	0.86996	-0.003
Mof_H 	H 	0.4834	0.7129	0.848	0.035
Mof_N 	N 	0.27147	0.7666	0.57699	-0.226
Mof_C 	C 	0.64645	0.4285	0.46692	-0.066
Mof_H 	H 	0.6507	0.4188	0.5015	0.059
Mof_C 	C 	0.60291	0.7479	0.64557	-0.076
Mof_H 	H 	0.6024	0.752	0.6118	0.059
Mof_N 	N 	0.49913	0.5698	0.93449	-0.216
Mof_N 	N 	0.64551	0.0255	0.51243	-0.238
Mof_N 	N 	0.63243	0.9982	0.61068	-0.243
Mof_N 	N 	0.25229	0.1125	0.99101	-0.203
Mof_N 	N 	0.59529	0.155	0.59156	-0.235
Mof_C 	C 	0.3728	0.6322	0.95661	-0.075
Mof_H 	H 	0.388	0.655	0.9838	0.063
Mof_C 	C 	0.58222	0.1978	0.45807	0.007
Mof_H 	H 	0.5651	0.1629	0.4523	0.036
Mof_C 	C 	0.58509	0.2673	0.42911	0.002
Mof_H 	H 	0.5706	0.2882	0.4004	0.037
Mof_N 	N 	0.7352	0.5357	0.2465	-0.143
Mof_N 	N 	0.75298	0.5441	0.1822	-0.106
Mof_C 	C 	0.7288	0.5733	0.19916	0.067
Mof_H 	H 	0.7126	0.6091	0.1824	0.002
Mof_C 	C 	0.6266	0.2496	0.49171	0.087
Mof_H 	H 	0.646	0.2586	0.5131	-0.02
Mof_C 	C 	0.55745	0.2041	0.6181	-0.002
Mof_H 	H 	0.5388	0.209	0.6237	0.035
Mof_C 	C 	0.75871	0.4944	0.25527	0.064
Mof_H 	H 	0.7668	0.4645	0.2857	0.004
Mof_C 	C 	0.55868	0.5212	0.78921	-0.085
Mof_H 	H 	0.5677	0.4684	0.7848	0.066
Mof_C 	C 	0.24556	0.9675	0.00177	-0.003
Mof_H 	H 	0.2399	0.9148	0.0135	0.022
Mof_C 	C 	0.26508	0.7379	0.6179	0.096
Mof_H 	H 	0.2476	0.7074	0.6172	-0.022
Mof_C 	C 	0.66237	0.0619	0.48418	-0.02
Mof_H 	H 	0.6678	0.1211	0.485	0.03
Mof_C 	C 	0.2761	0.7543	0.9293	-0.068
Mof_H 	H 	0.2738	0.6966	0.9389	0.06
Mof_C 	C 	0.60873	0.3839	0.68693	-0.066
Mof_H 	H 	0.6269	0.3553	0.6903	0.052
Mof_C 	C 	0.68039	0.6314	0.30606	-0.093
Mof_H 	H 	0.6672	0.6788	0.3012	0.065
Mof_C 	C 	0.29857	0.8089	0.59532	0.009
Mof_H 	H 	0.3086	0.8367	0.5752	0.029
Mof_C 	C 	0.65293	0.9376	0.687	0.006
Mof_H 	H 	0.6658	0.9265	0.7194	0.032
Mof_C 	C 	0.56638	0.1391	0.59209	0.012
Mof_H 	H 	0.5547	0.091	0.577	0.032
Mof_C 	C 	0.26385	0.741	0.72835	-0.076
Mof_H 	H 	0.245	0.7536	0.7056	0.055
Mof_C 	C 	0.68553	0.7364	0.40382	-0.091
Mof_H 	H 	0.7015	0.7246	0.3914	0.068
Mof_C 	C 	0.32396	0.6461	0.89548	0.091
Mof_C 	C 	0.48313	0.6431	0.91168	0.015
Mof_H 	H 	0.4689	0.6725	0.9231	0.03
Mof_C 	C 	0.60381	0.2281	0.6178	0.09
Mof_H 	H 	0.6228	0.2535	0.6241	-0.03
Mof_C 	C 	0.54156	0.5244	0.82235	-0.07
Mof_H 	H 	0.5389	0.4736	0.8394	0.055
Mof_C 	C 	0.6162	0.9311	0.6164	0.105
Mof_H 	H 	0.5988	0.9126	0.5918	-0.017
Mof_C 	C 	0.64352	0.9403	0.50087	0.1
Mof_H 	H 	0.6336	0.8987	0.5146	-0.023
Mof_C 	C 	0.26999	0.9084	0.94053	0.102
Mof_C 	C 	0.28913	0.7707	0.8913	0.085
Mof_C 	C 	0.65974	0.838	0.44391	0.084
Mof_C 	C 	0.26347	0.0651	0.96055	0.102
Mof_H 	H 	0.2727	0.0893	0.9382	-0.018
Mof_C 	C 	0.6378	0.7739	0.44038	-0.071
Mof_H 	H 	0.6216	0.7861	0.4523	0.054
Mof_C 	C 	0.62688	0.3723	0.43218	0.087
Mof_C 	C 	0.59153	0.6728	0.66266	-0.083
Mof_H 	H 	0.5834	0.6271	0.6402	0.065
Mof_C 	C 	0.60462	0.7346	0.74601	-0.087
Mof_H 	H 	0.6056	0.7301	0.7799	0.062
Mof_C 	C 	0.35264	0.5128	0.90026	-0.076
Mof_H 	H 	0.3545	0.4561	0.8889	0.056
Mof_C 	C 	0.26656	0.8238	0.9528	-0.084
Mof_H 	H 	0.2575	0.8119	0.9777	0.07
Mof_C 	C 	0.55452	0.3881	0.65406	-0.064
Mof_H 	H 	0.5365	0.3629	0.6348	0.053
Mof_C 	C 	0.283	0.9258	0.90369	-0.077
Mof_H 	H 	0.2855	0.9838	0.8948	0.055
Mof_C 	C 	0.65317	0.5138	0.39787	0.091
Mof_C 	C 	0.65555	0.0023	0.655	-0.011
Mof_H 	H 	0.671	0.0438	0.6622	0.005
Mof_C 	C 	0.61552	0.8091	0.72904	-0.073
Mof_H 	H 	0.6233	0.855	0.7514	0.059
Mof_C 	C 	0.309	0.8051	0.64747	0.004
Mof_H 	H 	0.3268	0.8287	0.6688	0.031
Mof_C 	C 	0.55457	0.4681	0.67781	-0.092
Mof_H 	H 	0.5364	0.4961	0.6753	0.07
Mof_C 	C 	0.71617	0.5485	0.27986	0.075
Mof_C 	C 	0.32634	0.5608	0.87961	-0.084
Mof_H 	H 	0.3103	0.5353	0.855	0.068
Mof_C 	C 	0.267	0.7257	0.77931	-0.072
Mof_H 	H 	0.2502	0.7278	0.7907	0.061
Mof_C 	C 	0.66411	0.6727	0.40124	0.095
Mof_C 	C 	0.68337	0.8189	0.42503	-0.069
Mof_H 	H 	0.698	0.8615	0.4265	0.059
Mof_C 	C 	0.62079	0.3865	0.381	-0.071
Mof_H 	H 	0.6079	0.3487	0.3579	0.061
Mof_C 	C 	0.2412	0.0515	0.01699	-0.025
Mof_H 	H 	0.232	0.0649	0.0415	0.028
Mof_C 	C 	0.65964	0.4992	0.44942	-0.083
Mof_H 	H 	0.6728	0.5366	0.4724	0.066
Mof_C 	C 	0.29254	0.8567	0.87946	-0.078
Mof_H 	H 	0.3015	0.8693	0.8545	0.065
Mof_C 	C 	0.70114	0.501	0.35103	-0.089
Mof_H 	H 	0.7023	0.4605	0.3768	0.071
Mof_C 	C 	0.31991	0.6993	0.79467	-0.072
Mof_H 	H 	0.3387	0.6841	0.8166	0.066
Mof_C 	C 	0.71791	0.4881	0.31826	-0.061
Mof_H 	H 	0.7303	0.4389	0.3219	0.055
Mof_C 	C 	0.68264	0.5737	0.34576	0.098
Mof_C 	C 	0.28903	0.7373	0.71202	0.09
Mof_C 	C 	0.772	0.494	0.21982	-0.037
Mof_H 	H 	0.7899	0.4667	0.2201	0.044
Mof_C 	C 	0.58164	0.3454	0.65914	0.077
Mof_C 	C 	0.63386	0.4572	0.3639	-0.082
Mof_H 	H 	0.6296	0.4668	0.3293	0.066
Mof_C 	C 	0.66999	0.9997	0.45514	0.029
Mof_H 	H 	0.681	0.0079	0.4325	0.019
Mof_C 	C 	0.6974	0.62	0.27356	-0.065
Mof_H 	H 	0.6961	0.6603	0.2477	0.049
Mof_C 	C 	0.31651	0.7139	0.74444	-0.08
Mof_H 	H 	0.3329	0.7078	0.7323	0.066
Mof_C 	C 	0.34669	0.6809	0.93459	-0.083
Mof_H 	H 	0.3447	0.7372	0.9465	0.068
Mof_C 	C 	0.29533	0.7073	0.81322	0.082
Mof_C 	C 	0.60843	0.4654	0.70957	-0.089
Mof_H 	H 	0.6265	0.492	0.7277	0.066
Mof_N 	N 	0.28738	0.7589	0.661	-0.136
Mof_N 	N 	0.66582	0.5882	0.38015	-0.154
Mof_C 	C 	0.61491	0.8159	0.67856	0.084
Mof_C 	C 	0.56244	0.5954	0.76266	0.093
Mof_C 	C 	0.53168	0.6764	0.80296	-0.071
Mof_H 	H 	0.5226	0.729	0.8075	0.058
Mof_C 	C 	0.58141	0.5069	0.70524	0.093
Mof_C 	C 	0.52863	0.602	0.83003	0.083
Mof_C 	C 	0.43885	0.4015	0.97137	0.004
Mof_H 	H 	0.4485	0.3469	0.9759	0.045
Mof_C 	C 	0.54828	0.6727	0.769	-0.086
Mof_H 	H 	0.5499	0.7225	0.7504	0.063
Mof_C 	C 	0.51719	0.5502	0.90628	0.086
Mof_H 	H 	0.5309	0.5039	0.9131	-0.012
Mof_N 	N 	0.61314	0.3007	0.44999	-0.133
Mof_N 	N 	0.40405	0.5046	0.9555	-0.135
Mof_C 	C 	0.4318	0.5424	0.9679	0.097
Mof_H 	H 	0.4352	0.603	0.9695	-0.003
Mof_C 	C 	0.40841	0.4139	0.95785	0.014
Mof_H 	H 	0.3936	0.3705	0.9515	0.029
Mof_C 	C 	0.3757	0.5502	0.93757	0.087
Mof_C 	C 	0.90772	0.1662	0.78694	0.089
Mof_O 	O 	0.99577	0.87622	0.53396	-0.483
Mof_H 	H 	0.9917	0.8847	0.5603	0.239
Mof_Ni	Ni	0.8792	0.59002	0.94657	1.058
Mof_N 	N 	0.91938	0.0899	0.76992	-0.152
Mof_N 	N 	0.84191	0.4218	0.03387	-0.149
Mof_N 	N 	0.20169	0.197	0.63328	-0.146
Mof_N 	N 	0.24013	0.4776	0.53403	-0.139
Mof_N 	N 	0.98708	0.1063	0.63315	-0.134
Mof_N 	N 	0.91849	0.7618	0.86549	-0.135
Mof_N 	N 	0.89138	0.6864	0.00235	-0.233
Mof_N 	N 	0.87264	0.3916	0.83833	-0.137
Mof_N 	N 	0.04677	0.9824	0.5227	-0.215
Mof_O 	O 	0.91732	0.51583	0.98672	-0.478
Mof_H 	H 	0.9126	0.4639	0.9874	0.242
Mof_O 	O 	0.20647	0.2349	0.00797	-0.501
Mof_H 	H 	0.2079	0.2285	0.038	0.233
Mof_C 	C 	0.8602	0.1923	0.08072	-0.085
Mof_H 	H 	0.8751	0.1502	0.0829	0.06
Mof_C 	C 	0.00889	0.1662	0.63004	-0.007
Mof_H 	H 	0.0166	0.2129	0.652	0.035
Mof_N 	N 	0.22853	0.2666	0.92301	-0.221
Mof_C 	C 	0.85355	0.9285	0.03308	-0.162
Mof_H 	H 	0.8493	0.9188	0.9985	0.108
Mof_C 	C 	0.89709	0.2479	0.85443	-0.077
Mof_H 	H 	0.8976	0.252	0.8882	0.061
Mof_N 	N 	0.00087	0.0698	0.56551	-0.224
Mof_N 	N 	0.85449	0.5255	0.98757	-0.226
Mof_N 	N 	0.86757	0.4982	0.88932	-0.247
Mof_N 	N 	0.24771	0.6125	0.50899	-0.222
Mof_N 	N 	0.90471	0.655	0.90844	-0.233
Mof_C 	C 	0.1272	0.1322	0.54339	-0.082
Mof_H 	H 	0.112	0.155	0.5162	0.058
Mof_C 	C 	0.91778	0.6978	0.04193	0.003
Mof_H 	H 	0.9349	0.6629	0.0477	0.032
Mof_C 	C 	0.91491	0.7673	0.07089	0.002
Mof_H 	H 	0.9294	0.7882	0.0996	0.035
Mof_N 	N 	0.7648	0.0357	0.2535	-0.143
Mof_N 	N 	0.74702	0.0441	0.3178	-0.109
Mof_C 	C 	0.7712	0.0733	0.30084	0.064
Mof_H 	H 	0.7874	0.1091	0.3176	0.003
Mof_C 	C 	0.8734	0.7496	0.00829	0.042
Mof_H 	H 	0.854	0.7586	0.9869	0.01
Mof_C 	C 	0.94255	0.7041	0.8819	-0
Mof_H 	H 	0.9612	0.709	0.8763	0.037
Mof_C 	C 	0.74129	0.9944	0.24473	0.069
Mof_H 	H 	0.7332	0.9645	0.2143	0.004
Mof_C 	C 	0.94132	0.0212	0.71079	-0.092
Mof_H 	H 	0.9323	0.9684	0.7152	0.072
Mof_C 	C 	0.25444	0.4675	0.49823	0.004
Mof_H 	H 	0.2601	0.4148	0.4865	0.027
Mof_C 	C 	0.23492	0.2379	0.8821	0.096
Mof_H 	H 	0.2524	0.2074	0.8828	-0.022
Mof_C 	C 	0.83763	0.5619	0.01582	-0.033
Mof_H 	H 	0.8322	0.6211	0.015	0.027
Mof_C 	C 	0.2239	0.2543	0.5707	-0.072
Mof_H 	H 	0.2262	0.1966	0.5611	0.058
Mof_C 	C 	0.89127	0.8839	0.81307	-0.079
Mof_H 	H 	0.8731	0.8553	0.8097	0.057
Mof_C 	C 	0.81961	0.1314	0.19394	-0.111
Mof_H 	H 	0.8328	0.1788	0.1988	0.071
Mof_C 	C 	0.20143	0.3089	0.90468	0.011
Mof_H 	H 	0.1914	0.3367	0.9248	0.032
Mof_C 	C 	0.84707	0.4376	0.813	-0.005
Mof_H 	H 	0.8342	0.4265	0.7806	0.035
Mof_C 	C 	0.93362	0.6391	0.90791	0.014
Mof_H 	H 	0.9453	0.591	0.923	0.036
Mof_C 	C 	0.23615	0.241	0.77165	-0.077
Mof_H 	H 	0.255	0.2536	0.7944	0.055
Mof_C 	C 	0.81447	0.2364	0.09618	-0.093
Mof_H 	H 	0.7985	0.2246	0.1086	0.068
Mof_C 	C 	0.17604	0.1461	0.60452	0.085
Mof_C 	C 	0.01687	0.1431	0.58832	0.013
Mof_H 	H 	0.0311	0.1725	0.5769	0.027
Mof_C 	C 	0.89619	0.7281	0.8822	0.092
Mof_H 	H 	0.8772	0.7535	0.8759	-0.03
Mof_C 	C 	0.95844	0.0244	0.67765	-0.079
Mof_H 	H 	0.9611	0.9736	0.6606	0.062
Mof_C 	C 	0.8838	0.4311	0.8836	0.104
Mof_H 	H 	0.9012	0.4126	0.9082	-0.016
Mof_C 	C 	0.85648	0.4403	0.99913	0.121
Mof_H 	H 	0.8664	0.3987	0.9854	-0.025
Mof_C 	C 	0.23001	0.4084	0.55947	0.096
Mof_C 	C 	0.21087	0.2707	0.6087	0.086
Mof_C 	C 	0.84026	0.338	0.05609	0.078
Mof_C 	C 	0.23653	0.5651	0.53945	0.102
Mof_H 	H 	0.2273	0.5893	0.5618	-0.02
Mof_C 	C 	0.8622	0.2739	0.05962	-0.073
Mof_H 	H 	0.8784	0.2861	0.0477	0.047
Mof_C 	C 	0.87312	0.8723	0.06782	0.127
Mof_C 	C 	0.90847	0.1728	0.83734	-0.081
Mof_H 	H 	0.9166	0.1271	0.8598	0.064
Mof_C 	C 	0.89538	0.2346	0.75399	-0.086
Mof_H 	H 	0.8944	0.2301	0.7201	0.061
Mof_C 	C 	0.14736	0.0128	0.59974	-0.095
Mof_H 	H 	0.1455	0.9561	0.6111	0.066
Mof_C 	C 	0.23344	0.3238	0.5472	-0.082
Mof_H 	H 	0.2425	0.3119	0.5223	0.06
Mof_C 	C 	0.94548	0.8881	0.84594	-0.078
Mof_H 	H 	0.9635	0.8629	0.8652	0.059
Mof_C 	C 	0.217	0.4258	0.59631	-0.075
Mof_H 	H 	0.2145	0.4838	0.6052	0.052
Mof_C 	C 	0.84683	0.0138	0.10213	0.038
Mof_C 	C 	0.84445	0.5023	0.845	0.004
Mof_H 	H 	0.829	0.5438	0.8378	0.002
Mof_C 	C 	0.88448	0.3091	0.77096	-0.074
Mof_H 	H 	0.8767	0.355	0.7486	0.058
Mof_C 	C 	0.191	0.3051	0.85253	0.004
Mof_H 	H 	0.1732	0.3287	0.8312	0.031
Mof_C 	C 	0.94543	0.9681	0.82219	-0.07
Mof_H 	H 	0.9636	0.9961	0.8247	0.065
Mof_C 	C 	0.78383	0.0485	0.22014	0.052
Mof_C 	C 	0.17366	0.0608	0.62039	-0.074
Mof_H 	H 	0.1897	0.0353	0.645	0.063
Mof_C 	C 	0.233	0.2257	0.72069	-0.072
Mof_H 	H 	0.2498	0.2278	0.7093	0.061
Mof_C 	C 	0.83589	0.1727	0.09876	0.092
Mof_C 	C 	0.81663	0.3189	0.07497	-0.07
Mof_H 	H 	0.802	0.3615	0.0735	0.056
Mof_C 	C 	0.87921	0.8865	0.119	-0.114
Mof_H 	H 	0.8921	0.8487	0.1421	0.075
Mof_C 	C 	0.2588	0.5515	0.48301	0.005
Mof_H 	H 	0.268	0.5649	0.4585	0.022
Mof_C 	C 	0.84036	0.9992	0.05058	-0.002
Mof_H 	H 	0.8272	0.0366	0.0276	0.026
Mof_C 	C 	0.20746	0.3567	0.62054	-0.081
Mof_H 	H 	0.1985	0.3693	0.6455	0.065
Mof_C 	C 	0.79886	0.001	0.14897	-0.129
Mof_H 	H 	0.7977	0.9605	0.1232	0.088
Mof_C 	C 	0.18009	0.1993	0.70533	-0.072
Mof_H 	H 	0.1613	0.1841	0.6834	0.066
Mof_C 	C 	0.78209	0.9881	0.18174	-0.022
Mof_H 	H 	0.7697	0.9389	0.1781	0.043
Mof_C 	C 	0.81736	0.0737	0.15424	0.114
Mof_C 	C 	0.21097	0.2373	0.78798	0.089
Mof_C 	C 	0.728	0.994	0.28018	-0.033
Mof_H 	H 	0.7101	0.9667	0.2799	0.044
Mof_C 	C 	0.91836	0.8454	0.84086	0.087
Mof_C 	C 	0.86614	0.9572	0.1361	-0.033
Mof_H 	H 	0.8704	0.9668	0.1707	0.051
Mof_C 	C 	0.83001	0.4997	0.04486	0.015
Mof_H 	H 	0.819	0.5079	0.0675	0.026
Mof_C 	C 	0.8026	0.12	0.22644	-0.046
Mof_H 	H 	0.8039	0.1603	0.2523	0.043
Mof_C 	C 	0.18349	0.2139	0.75556	-0.08
Mof_H 	H 	0.1671	0.2078	0.7677	0.066
Mof_C 	C 	0.15331	0.1809	0.56541	-0.08
Mof_H 	H 	0.1553	0.2372	0.5535	0.063
Mof_C 	C 	0.20467	0.2073	0.68678	0.082
Mof_C 	C 	0.89157	0.9654	0.79043	-0.067
Mof_H 	H 	0.8735	0.992	0.7723	0.061
Mof_N 	N 	0.21262	0.2589	0.839	-0.136
Mof_N 	N 	0.83418	0.0882	0.11985	-0.15
Mof_C 	C 	0.88509	0.3159	0.82144	0.084
Mof_C 	C 	0.93756	0.0954	0.73734	0.094
Mof_C 	C 	0.96832	0.1764	0.69704	-0.072
Mof_H 	H 	0.9774	0.229	0.6925	0.058
Mof_C 	C 	0.91859	0.0069	0.79476	0.071
Mof_C 	C 	0.97137	0.102	0.66997	0.085
Mof_C 	C 	0.06115	0.9015	0.52863	-0.002
Mof_H 	H 	0.0515	0.8469	0.5241	0.04
Mof_C 	C 	0.95172	0.1727	0.731	-0.086
Mof_H 	H 	0.9501	0.2225	0.7496	0.063
Mof_C 	C 	0.98281	0.0502	0.59372	0.086
Mof_H 	H 	0.9691	0.0039	0.5869	-0.018
Mof_N 	N 	0.88686	0.8007	0.05001	-0.136
Mof_N 	N 	0.09595	0.0046	0.5445	-0.14
Mof_C 	C 	0.0682	0.0424	0.5321	0.087
Mof_H 	H 	0.0648	0.103	0.5305	-0.005
Mof_C 	C 	0.09159	0.9139	0.54215	0.018
Mof_H 	H 	0.1064	0.8705	0.5485	0.024
Mof_C 	C 	0.1243	0.0502	0.56243	0.091
Mof_C 	C 	0.40772	0.6662	0.78694	0.09
Mof_O 	O 	0.49577	0.37622	0.53396	-0.486
Mof_H 	H 	0.4917	0.3847	0.5603	0.238
Mof_Ni	Ni	0.3792	0.09002	0.94657	1.058
Mof_N 	N 	0.41938	0.5899	0.76992	-0.154
Mof_N 	N 	0.34191	0.9218	0.03387	-0.153
Mof_N 	N 	0.70169	0.697	0.63328	-0.147
Mof_N 	N 	0.74013	0.9776	0.53403	-0.138
Mof_N 	N 	0.48708	0.6063	0.63315	-0.134
Mof_N 	N 	0.41849	0.2618	0.86549	-0.133
Mof_N 	N 	0.39138	0.1864	0.00235	-0.233
Mof_N 	N 	0.37264	0.8916	0.83833	-0.139
Mof_N 	N 	0.54677	0.4824	0.5227	-0.22
Mof_O 	O 	0.41732	0.01583	0.98672	-0.485
Mof_H 	H 	0.4126	0.9639	0.9874	0.247
Mof_O 	O 	0.70647	0.7349	0.00797	-0.5
Mof_H 	H 	0.7079	0.7285	0.038	0.233
Mof_C 	C 	0.3602	0.6923	0.08072	-0.085
Mof_H 	H 	0.3751	0.6502	0.0829	0.061
Mof_C 	C 	0.50889	0.6662	0.63004	-0.004
Mof_H 	H 	0.5166	0.7129	0.652	0.035
Mof_N 	N 	0.72853	0.7666	0.92301	-0.221
Mof_C 	C 	0.35355	0.4285	0.03308	-0.14
Mof_H 	H 	0.3493	0.4188	0.9985	0.1
Mof_C 	C 	0.39709	0.7479	0.85443	-0.077
Mof_H 	H 	0.3976	0.752	0.8882	0.061
Mof_N 	N 	0.50087	0.5698	0.56551	-0.222
Mof_N 	N 	0.35449	0.0255	0.98757	-0.227
Mof_N 	N 	0.36757	0.9982	0.88932	-0.243
Mof_N 	N 	0.74771	0.1125	0.50899	-0.22
Mof_N 	N 	0.40471	0.155	0.90844	-0.233
Mof_C 	C 	0.6272	0.6322	0.54339	-0.075
Mof_H 	H 	0.612	0.655	0.5162	0.056
Mof_C 	C 	0.41778	0.1978	0.04193	0.003
Mof_H 	H 	0.4349	0.1629	0.0477	0.031
Mof_C 	C 	0.41491	0.2673	0.07089	0.001
Mof_H 	H 	0.4294	0.2882	0.0996	0.035
Mof_N 	N 	0.2648	0.5357	0.2535	-0.143
Mof_N 	N 	0.24702	0.5441	0.3178	-0.106
Mof_C 	C 	0.2712	0.5733	0.30084	0.067
Mof_H 	H 	0.2874	0.6091	0.3176	0.002
Mof_C 	C 	0.3734	0.2496	0.00829	0.04
Mof_H 	H 	0.354	0.2586	0.9869	0.011
Mof_C 	C 	0.44255	0.2041	0.8819	-0.001
Mof_H 	H 	0.4612	0.209	0.8763	0.036
Mof_C 	C 	0.24129	0.4944	0.24473	0.064
Mof_H 	H 	0.2332	0.4645	0.2143	0.004
Mof_C 	C 	0.44132	0.5212	0.71079	-0.086
Mof_H 	H 	0.4323	0.4684	0.7152	0.066
Mof_C 	C 	0.75444	0.9675	0.49823	0.014
Mof_H 	H 	0.7601	0.9148	0.4865	0.024
Mof_C 	C 	0.73492	0.7379	0.8821	0.096
Mof_H 	H 	0.7524	0.7074	0.8828	-0.021
Mof_C 	C 	0.33763	0.0619	0.01582	-0.05
Mof_H 	H 	0.3322	0.1211	0.015	0.033
Mof_C 	C 	0.7239	0.7543	0.5707	-0.072
Mof_H 	H 	0.7262	0.6966	0.5611	0.058
Mof_C 	C 	0.39127	0.3839	0.81307	-0.066
Mof_H 	H 	0.3731	0.3553	0.8097	0.052
Mof_C 	C 	0.31961	0.6314	0.19394	-0.092
Mof_H 	H 	0.3328	0.6788	0.1988	0.065
Mof_C 	C 	0.70143	0.8089	0.90468	0.011
Mof_H 	H 	0.6914	0.8367	0.9248	0.032
Mof_C 	C 	0.34707	0.9376	0.813	0.005
Mof_H 	H 	0.3342	0.9265	0.7806	0.032
Mof_C 	C 	0.43362	0.1391	0.90791	0.014
Mof_H 	H 	0.4453	0.091	0.923	0.035
Mof_C 	C 	0.73615	0.741	0.77165	-0.077
Mof_H 	H 	0.755	0.7536	0.7944	0.055
Mof_C 	C 	0.31447	0.7364	0.09618	-0.092
Mof_H 	H 	0.2985	0.7246	0.1086	0.068
Mof_C 	C 	0.67604	0.6461	0.60452	0.091
Mof_C 	C 	0.51687	0.6431	0.58832	0.013
Mof_H 	H 	0.5311	0.6725	0.5769	0.027
Mof_C 	C 	0.39619	0.2281	0.8822	0.091
Mof_H 	H 	0.3772	0.2535	0.8759	-0.029
Mof_C 	C 	0.45844	0.5244	0.67765	-0.069
Mof_H 	H 	0.4611	0.4736	0.6606	0.054
Mof_C 	C 	0.3838	0.9311	0.8836	0.105
Mof_H 	H 	0.4012	0.9126	0.9082	-0.016
Mof_C 	C 	0.35648	0.9403	0.99913	0.125
Mof_H 	H 	0.3664	0.8987	0.9854	-0.026
Mof_C 	C 	0.73001	0.9084	0.55947	0.097
Mof_C 	C 	0.71087	0.7707	0.6087	0.086
Mof_C 	C 	0.34026	0.838	0.05609	0.08
Mof_C 	C 	0.73653	0.0651	0.53945	0.097
Mof_H 	H 	0.7273	0.0893	0.5618	-0.019
Mof_C 	C 	0.3622	0.7739	0.05962	-0.074
Mof_H 	H 	0.3784	0.7861	0.0477	0.047
Mof_C 	C 	0.37312	0.3723	0.06782	0.112
Mof_C 	C 	0.40847	0.6728	0.83734	-0.082
Mof_H 	H 	0.4166	0.6271	0.8598	0.065
Mof_C 	C 	0.39538	0.7346	0.75399	-0.086
Mof_H 	H 	0.3944	0.7301	0.7201	0.061
Mof_C 	C 	0.64736	0.5128	0.59974	-0.075
Mof_H 	H 	0.6455	0.4561	0.6111	0.055
Mof_C 	C 	0.73344	0.8238	0.5472	-0.083
Mof_H 	H 	0.7425	0.8119	0.5223	0.06
Mof_C 	C 	0.44548	0.3881	0.84594	-0.065
Mof_H 	H 	0.4635	0.3629	0.8652	0.054
Mof_C 	C 	0.717	0.9258	0.59631	-0.075
Mof_H 	H 	0.7145	0.9838	0.6052	0.054
Mof_C 	C 	0.34683	0.5138	0.10213	0.069
Mof_C 	C 	0.34445	0.0023	0.845	-0.01
Mof_H 	H 	0.329	0.0438	0.8378	0.005
Mof_C 	C 	0.38448	0.8091	0.77096	-0.074
Mof_H 	H 	0.3767	0.855	0.7486	0.059
Mof_C 	C 	0.691	0.8051	0.85253	0.004
Mof_H 	H 	0.6732	0.8287	0.8312	0.031
Mof_C 	C 	0.44543	0.4681	0.82219	-0.092
Mof_H 	H 	0.4636	0.4961	0.8247	0.069
Mof_C 	C 	0.28383	0.5485	0.22014	0.076
Mof_C 	C 	0.67366	0.5608	0.62039	-0.086
Mof_H 	H 	0.6897	0.5353	0.645	0.069
Mof_C 	C 	0.733	0.7257	0.72069	-0.072
Mof_H 	H 	0.7498	0.7278	0.7093	0.061
Mof_C 	C 	0.33589	0.6727	0.09876	0.093
Mof_C 	C 	0.31663	0.8189	0.07497	-0.071
Mof_H 	H 	0.302	0.8615	0.0735	0.057
Mof_C 	C 	0.37921	0.3865	0.119	-0.095
Mof_H 	H 	0.3921	0.3487	0.1421	0.068
Mof_C 	C 	0.7588	0.0515	0.48301	-0.004
Mof_H 	H 	0.768	0.0649	0.4585	0.024
Mof_C 	C 	0.34036	0.4992	0.05058	-0.042
Mof_H 	H 	0.3272	0.5366	0.0276	0.043
Mof_C 	C 	0.70746	0.8567	0.62054	-0.08
Mof_H 	H 	0.6985	0.8693	0.6455	0.065
Mof_C 	C 	0.29886	0.501	0.14897	-0.087
Mof_H 	H 	0.2977	0.4605	0.1232	0.069
Mof_C 	C 	0.68009	0.6993	0.70533	-0.072
Mof_H 	H 	0.6613	0.6841	0.6834	0.066
Mof_C 	C 	0.28209	0.4881	0.18174	-0.063
Mof_H 	H 	0.2697	0.4389	0.1781	0.055
Mof_C 	C 	0.31736	0.5737	0.15424	0.096
Mof_C 	C 	0.71097	0.7373	0.78798	0.09
Mof_C 	C 	0.228	0.494	0.28018	-0.037
Mof_H 	H 	0.2101	0.4667	0.2799	0.044
Mof_C 	C 	0.41836	0.3454	0.84086	0.078
Mof_C 	C 	0.36614	0.4572	0.1361	-0.061
Mof_H 	H 	0.3704	0.4668	0.1707	0.058
Mof_C 	C 	0.33001	0.9997	0.04486	0.038
Mof_H 	H 	0.319	0.0079	0.0675	0.014
Mof_C 	C 	0.3026	0.62	0.22644	-0.066
Mof_H 	H 	0.3039	0.6603	0.2523	0.05
Mof_C 	C 	0.68349	0.7139	0.75556	-0.08
Mof_H 	H 	0.6671	0.7078	0.7677	0.066
Mof_C 	C 	0.65331	0.6809	0.56541	-0.087
Mof_H 	H 	0.6553	0.7372	0.5535	0.065
Mof_C 	C 	0.70467	0.7073	0.68678	0.082
Mof_C 	C 	0.39157	0.4654	0.79043	-0.089
Mof_H 	H 	0.3735	0.492	0.7723	0.066
Mof_N 	N 	0.71262	0.7589	0.839	-0.136
Mof_N 	N 	0.33418	0.5882	0.11985	-0.151
Mof_C 	C 	0.38509	0.8159	0.82144	0.085
Mof_C 	C 	0.43756	0.5954	0.73734	0.093
Mof_C 	C 	0.46832	0.6764	0.69704	-0.071
Mof_H 	H 	0.4774	0.729	0.6925	0.057
Mof_C 	C 	0.41859	0.5069	0.79476	0.093
Mof_C 	C 	0.47137	0.602	0.66997	0.082
Mof_C 	C 	0.56115	0.4015	0.52863	0
Mof_H 	H 	0.5515	0.3469	0.5241	0.04
Mof_C 	C 	0.45172	0.6727	0.731	-0.087
Mof_H 	H 	0.4501	0.7225	0.7496	0.063
Mof_C 	C 	0.48281	0.5502	0.59372	0.084
Mof_H 	H 	0.4691	0.5039	0.5869	-0.015
Mof_N 	N 	0.38686	0.3007	0.05001	-0.133
Mof_N 	N 	0.59595	0.5046	0.5445	-0.136
Mof_C 	C 	0.5682	0.5424	0.5321	0.094
Mof_H 	H 	0.5648	0.603	0.5305	-0.006
Mof_C 	C 	0.59159	0.4139	0.54215	0.011
Mof_H 	H 	0.6064	0.3705	0.5485	0.026
Mof_C 	C 	0.6243	0.5502	0.56243	0.083
Mof_Ni	Ni	-0	0	-0	1.071
Mof_Ni	Ni	0.5	0.5	-0	1.075
Mof_Ni	Ni	1.21923e-17	0	0.5	1.081
Mof_Ni	Ni	0.5	0.5	0.5	1.085
Mof_Ni	Ni	0.25	0.75	0.5	1.086
Mof_Ni	Ni	0.75	0.75	-0	1.076
Mof_Ni	Ni	0.75	0.25	0.5	1.086
Mof_Ni	Ni	0.25	0.25	-0	1.076
_end
