# CIF file generated by openbabel 3.1.0, see https://openbabel.org
data_I
_chemical_name_common 'image0'
_cell_length_a 18.443
_cell_length_b 18.443
_cell_length_c 15.166
_cell_angle_alpha 90
_cell_angle_beta 90
_cell_angle_gamma 90
_space_group_name_H-M_alt 'P 1'
_space_group_name_Hall 'P 1'
loop_
    _symmetry_equiv_pos_as_xyz
    x,y,z
loop_
    _atom_site_label
    _atom_site_type_symbol
    _atom_site_fract_x
    _atom_site_fract_y
    _atom_site_fract_z
    _atom_site_occupancy
    C1       C        0.68590    0.94700    0.36260    1.000
    C2       C        0.69580    0.96060    0.27380    1.000
    H1       H        0.73210    0.93660    0.24280    1.000
    C3       C        0.65120    0.01020    0.23120    1.000
    H2       H        0.65800    0.01820    0.17120    1.000
    C4       C        0.59830    0.04750    0.27350    1.000
    C5       C        0.58860    0.03360    0.36450    1.000
    H3       H        0.55230    0.05800    0.39500    1.000
    C6       C        0.63130    0.98540    0.40860    1.000
    H4       H        0.62450    0.97770    0.46870    1.000
    C7       C        0.73200    0.89090    0.40870    1.000
    H5       H        0.70170    0.86210    0.44750    1.000
    H6       H        0.75310    0.85870    0.36510    1.000
    C8       C        0.84780    0.96440    0.56870    1.000
    H7       H        0.85970    0.97840    0.62580    1.000
    C9       C        0.85640    0.94140    0.43460    1.000
    H8       H        0.87370    0.93490    0.37750    1.000
    N1       N        0.79080    0.92500    0.46080    1.000
    N2       N        0.78440    0.93940    0.54710    1.000
    N3       N        0.89460    0.96840    0.50070    1.000
    C10      C        0.31410    0.05300    0.36260    1.000
    C11      C        0.30420    0.03940    0.27380    1.000
    H9       H        0.26790    0.06340    0.24280    1.000
    C12      C        0.34880    0.98980    0.23120    1.000
    H10      H        0.34200    0.98180    0.17120    1.000
    C13      C        0.40170    0.95250    0.27350    1.000
    C14      C        0.41140    0.96640    0.36450    1.000
    H11      H        0.44770    0.94200    0.39500    1.000
    C15      C        0.36870    0.01460    0.40860    1.000
    H12      H        0.37550    0.02230    0.46870    1.000
    C16      C        0.26800    0.10910    0.40870    1.000
    H13      H        0.29830    0.13790    0.44750    1.000
    H14      H        0.24690    0.14130    0.36510    1.000
    C17      C        0.15220    0.03560    0.56870    1.000
    H15      H        0.14030    0.02160    0.62580    1.000
    C18      C        0.14360    0.05860    0.43460    1.000
    H16      H        0.12630    0.06510    0.37750    1.000
    N4       N        0.20920    0.07500    0.46080    1.000
    N5       N        0.21560    0.06060    0.54710    1.000
    N6       N        0.10540    0.03160    0.50070    1.000
    C19      C        0.94700    0.31410    0.63740    1.000
    C20      C        0.96060    0.30420    0.72620    1.000
    H17      H        0.93660    0.26790    0.75720    1.000
    C21      C        0.01020    0.34880    0.76880    1.000
    H18      H        0.01820    0.34200    0.82880    1.000
    C22      C        0.04750    0.40170    0.72650    1.000
    C23      C        0.03360    0.41140    0.63550    1.000
    H19      H        0.05800    0.44770    0.60500    1.000
    C24      C        0.98540    0.36870    0.59140    1.000
    H20      H        0.97770    0.37550    0.53130    1.000
    C25      C        0.89090    0.26800    0.59130    1.000
    H21      H        0.86210    0.29830    0.55250    1.000
    H22      H        0.85870    0.24690    0.63490    1.000
    C26      C        0.96440    0.15220    0.43130    1.000
    H23      H        0.97840    0.14030    0.37420    1.000
    C27      C        0.94140    0.14360    0.56540    1.000
    H24      H        0.93490    0.12630    0.62250    1.000
    N7       N        0.92500    0.20920    0.53920    1.000
    N8       N        0.93940    0.21560    0.45290    1.000
    N9       N        0.96840    0.10540    0.49930    1.000
    C28      C        0.05300    0.68590    0.63740    1.000
    C29      C        0.03940    0.69580    0.72620    1.000
    H25      H        0.06340    0.73210    0.75720    1.000
    C30      C        0.98980    0.65120    0.76880    1.000
    H26      H        0.98180    0.65800    0.82880    1.000
    C31      C        0.95250    0.59830    0.72650    1.000
    C32      C        0.96640    0.58860    0.63550    1.000
    H27      H        0.94200    0.55230    0.60500    1.000
    C33      C        0.01460    0.63130    0.59140    1.000
    H28      H        0.02230    0.62450    0.53130    1.000
    C34      C        0.10910    0.73200    0.59130    1.000
    H29      H        0.13790    0.70170    0.55250    1.000
    H30      H        0.14130    0.75310    0.63490    1.000
    C35      C        0.03560    0.84780    0.43130    1.000
    H31      H        0.02160    0.85970    0.37420    1.000
    C36      C        0.05860    0.85640    0.56540    1.000
    H32      H        0.06510    0.87370    0.62250    1.000
    N10      N        0.07500    0.79080    0.53920    1.000
    N11      N        0.06060    0.78440    0.45290    1.000
    N12      N        0.03160    0.89460    0.49930    1.000
    C37      C        0.18590    0.55300    0.86260    1.000
    C38      C        0.19580    0.53940    0.77380    1.000
    H33      H        0.23210    0.56340    0.74280    1.000
    C39      C        0.15120    0.48980    0.73120    1.000
    H34      H        0.15800    0.48180    0.67120    1.000
    C40      C        0.09830    0.45250    0.77350    1.000
    C41      C        0.08860    0.46640    0.86450    1.000
    H35      H        0.05230    0.44200    0.89500    1.000
    C42      C        0.13130    0.51460    0.90860    1.000
    H36      H        0.12450    0.52230    0.96870    1.000
    C43      C        0.23200    0.60910    0.90870    1.000
    H37      H        0.20170    0.63790    0.94750    1.000
    H38      H        0.25310    0.64130    0.86510    1.000
    C44      C        0.34780    0.53560    0.06870    1.000
    H39      H        0.35970    0.52160    0.12580    1.000
    C45      C        0.35640    0.55860    0.93460    1.000
    H40      H        0.37370    0.56510    0.87750    1.000
    N13      N        0.29080    0.57500    0.96080    1.000
    N14      N        0.28440    0.56060    0.04710    1.000
    N15      N        0.39460    0.53160    0.00070    1.000
    C46      C        0.81410    0.44700    0.86260    1.000
    C47      C        0.80420    0.46060    0.77380    1.000
    H41      H        0.76790    0.43660    0.74280    1.000
    C48      C        0.84880    0.51020    0.73120    1.000
    H42      H        0.84200    0.51820    0.67120    1.000
    C49      C        0.90170    0.54750    0.77350    1.000
    C50      C        0.91140    0.53360    0.86450    1.000
    H43      H        0.94770    0.55800    0.89500    1.000
    C51      C        0.86870    0.48540    0.90860    1.000
    H44      H        0.87550    0.47770    0.96870    1.000
    C52      C        0.76800    0.39090    0.90870    1.000
    H45      H        0.79830    0.36210    0.94750    1.000
    H46      H        0.74690    0.35870    0.86510    1.000
    C53      C        0.65220    0.46440    0.06870    1.000
    H47      H        0.64030    0.47840    0.12580    1.000
    C54      C        0.64360    0.44140    0.93460    1.000
    H48      H        0.62630    0.43490    0.87750    1.000
    N16      N        0.70920    0.42500    0.96080    1.000
    N17      N        0.71560    0.43940    0.04710    1.000
    N18      N        0.60540    0.46840    0.00070    1.000
    C55      C        0.44700    0.18590    0.13740    1.000
    C56      C        0.46060    0.19580    0.22620    1.000
    H49      H        0.43660    0.23210    0.25720    1.000
    C57      C        0.51020    0.15120    0.26880    1.000
    H50      H        0.51820    0.15800    0.32880    1.000
    C58      C        0.54750    0.09830    0.22650    1.000
    C59      C        0.53360    0.08860    0.13550    1.000
    H51      H        0.55800    0.05230    0.10500    1.000
    C60      C        0.48540    0.13130    0.09140    1.000
    H52      H        0.47770    0.12450    0.03130    1.000
    C61      C        0.39090    0.23200    0.09130    1.000
    H53      H        0.36210    0.20170    0.05250    1.000
    H54      H        0.35870    0.25310    0.13490    1.000
    C62      C        0.46440    0.34780    0.93130    1.000
    H55      H        0.47840    0.35970    0.87420    1.000
    C63      C        0.44140    0.35640    0.06540    1.000
    H56      H        0.43490    0.37370    0.12250    1.000
    N19      N        0.42500    0.29080    0.03920    1.000
    N20      N        0.43940    0.28440    0.95290    1.000
    N21      N        0.46840    0.39460    0.99930    1.000
    C64      C        0.55300    0.81410    0.13740    1.000
    C65      C        0.53940    0.80420    0.22620    1.000
    H57      H        0.56340    0.76790    0.25720    1.000
    C66      C        0.48980    0.84880    0.26880    1.000
    H58      H        0.48180    0.84200    0.32880    1.000
    C67      C        0.45250    0.90170    0.22650    1.000
    C68      C        0.46640    0.91140    0.13550    1.000
    H59      H        0.44200    0.94770    0.10500    1.000
    C69      C        0.51460    0.86870    0.09140    1.000
    H60      H        0.52230    0.87550    0.03130    1.000
    C70      C        0.60910    0.76800    0.09130    1.000
    H61      H        0.63790    0.79830    0.05250    1.000
    H62      H        0.64130    0.74690    0.13490    1.000
    C71      C        0.53560    0.65220    0.93130    1.000
    H63      H        0.52160    0.64030    0.87420    1.000
    C72      C        0.55860    0.64360    0.06540    1.000
    H64      H        0.56510    0.62630    0.12250    1.000
    N22      N        0.57500    0.70920    0.03920    1.000
    N23      N        0.56060    0.71560    0.95290    1.000
    N24      N        0.53160    0.60540    0.99930    1.000
    Cu1      Cu       0.00000    0.00000    0.50000    1.000
    Cu2      Cu       0.50000    0.50000    0.00000    1.000
