data_functionalizedCrystal
_audit_creation_method	'EQeq! by Chris Wilmer'
_symmetry_space_group_name_H-M	'P1'
_symmetry_Int_Tables_number	1
_symmetry_cell_setting	triclinic
loop_
_symmetry_equiv_pos_as_xyz
  x,y,z
_cell_length_a	6.975
_cell_length_b	12.901
_cell_length_c	13.551
_cell_angle_alpha	90
_cell_angle_beta	100.729
_cell_angle_gamma	90
loop_
_atom_site_label
_atom_site_type_symbol
_atom_site_fract_x
_atom_site_fract_y
_atom_site_fract_z
_atom_site_charge
Mof_Ce	Ce	0.20663	0.96012	0.04123	2.698
Mof_Ce	Ce	0.41472	0.03765	0.55864	2.891
Mof_S 	S 	0.7417	0.9414	0.8117	0.062
Mof_S 	S 	0.3671	0.7082	0.201	0.109
Mof_S 	S 	0.4031	0.6926	0.9477	0.141
Mof_O 	O 	0.346	0.0043	0.8904	-0.535
Mof_O 	O 	0.3603	0.0055	0.7299	-0.614
Mof_O 	O 	0.078	0.0928	0.573	-0.566
Mof_O 	O 	0.757	0.0887	0.5353	-0.514
Mof_O 	O 	0.2596	0.0289	0.2148	-0.44
Mof_O 	O 	0.329	0.0249	0.3799	-0.532
Mof_O 	O 	0.585	0.888	0.5075	-0.646
Mof_O 	O 	0.615	0.7172	0.5094	-0.562
Mof_O 	O 	0.578	0.9727	0.097	-0.563
Mof_O 	O 	0.8874	0.9411	0.0918	-0.617
Mof_O 	O 	0.073	0.7801	0.0052	-0.549
Mof_O 	O 	7.68995e-35	0.6154	0.0089	-0.512
Mof_N 	N 	0.975	0.9525	0.8496	-0.244
Mof_N 	N 	0.731	0.9893	0.7002	-0.282
Mof_N 	N 	0.314	0.8321	0.1988	-0.245
Mof_N 	N 	0.463	0.7017	0.3154	-0.232
Mof_N 	N 	0.453	0.8063	0.9949	-0.229
Mof_N 	N 	0.625	0.6564	0.9538	-0.213
Mof_C 	C 	0.045	0.9869	0.7739	-0.137
Mof_C 	C 	0.909	0.0137	0.6893	-0.001
Mof_C 	C 	0.262	0.002	0.7973	0.522
Mof_C 	C 	0.928	0.0691	0.5928	0.397
Mof_C 	C 	0.373	0.8715	0.2873	-0.044
Mof_C 	C 	0.459	0.7955	0.3578	-0.107
Mof_C 	C 	0.323	0.9806	0.2967	0.317
Mof_C 	C 	0.557	0.8004	0.4659	0.457
Mof_C 	C 	0.644	0.8201	0.0156	-0.07
Mof_C 	C 	0.746	0.7331	0.9924	-0.085
Mof_C 	C 	0.713	0.9201	0.0721	0.485
Mof_C 	C 	0.959	0.7113	0.0058	0.43
Mof_Ce	Ce	0.79337	0.46012	0.95877	2.735
Mof_Ce	Ce	0.58528	0.53765	0.44136	2.783
Mof_S 	S 	0.2583	0.4414	0.1883	0.116
Mof_S 	S 	0.6329	0.2082	0.799	0.108
Mof_S 	S 	0.5969	0.1926	0.0523	0.157
Mof_O 	O 	0.654	0.5043	0.1096	-0.564
Mof_O 	O 	0.6397	0.5055	0.2701	-0.622
Mof_O 	O 	0.922	0.5928	0.427	-0.666
Mof_O 	O 	0.243	0.5887	0.4647	-0.532
Mof_O 	O 	0.7404	0.5289	0.7852	-0.556
Mof_O 	O 	0.671	0.5249	0.6201	-0.615
Mof_O 	O 	0.415	0.388	0.4925	-0.599
Mof_O 	O 	0.385	0.2172	0.4906	-0.56
Mof_O 	O 	0.422	0.4727	0.903	-0.53
Mof_O 	O 	0.1126	0.4411	0.9082	-0.559
Mof_O 	O 	0.927	0.2801	0.9948	-0.662
Mof_O 	O 	8.56349e-33	0.1154	0.9911	-0.536
Mof_N 	N 	0.025	0.4525	0.1504	-0.185
Mof_N 	N 	0.269	0.4893	0.2998	-0.239
Mof_N 	N 	0.686	0.3321	0.8012	-0.241
Mof_N 	N 	0.537	0.2017	0.6846	-0.238
Mof_N 	N 	0.547	0.3063	0.0051	-0.225
Mof_N 	N 	0.375	0.1564	0.0462	-0.194
Mof_C 	C 	0.955	0.4869	0.2261	-0.157
Mof_C 	C 	0.091	0.5137	0.3107	-0.031
Mof_C 	C 	0.738	0.502	0.2027	0.475
Mof_C 	C 	0.072	0.5691	0.4072	0.52
Mof_C 	C 	0.627	0.3715	0.7127	-0.087
Mof_C 	C 	0.541	0.2955	0.6422	-0.081
Mof_C 	C 	0.677	0.4806	0.7033	0.472
Mof_C 	C 	0.443	0.3004	0.5341	0.446
Mof_C 	C 	0.356	0.3201	0.9844	-0.062
Mof_C 	C 	0.254	0.2331	0.0076	-0.096
Mof_C 	C 	0.287	0.4201	0.9279	0.478
Mof_C 	C 	0.041	0.2113	0.9942	0.577
_end
