data_functionalizedCrystal
_audit_creation_method	'EQeq! by Chris Wilmer'
_symmetry_space_group_name_H-M	'P1'
_symmetry_Int_Tables_number	1
_symmetry_cell_setting	triclinic
loop_
_symmetry_equiv_pos_as_xyz
  x,y,z
_cell_length_a	40.9779
_cell_length_b	40.9779
_cell_length_c	40.9779
_cell_angle_alpha	90
_cell_angle_beta	90
_cell_angle_gamma	90
loop_
_atom_site_label
_atom_site_type_symbol
_atom_site_fract_x
_atom_site_fract_y
_atom_site_fract_z
_atom_site_charge
Mof_O 	O 	0.18638	0.43533	0.0103	-0.293
Mof_H 	H 	0.2046	0.323	0.0744	0.189
Mof_O 	O 	0.2468	0.4893	0.0394	-0.277
Mof_O 	O 	0.18638	0.93533	0.5103	-0.293
Mof_H 	H 	0.2046	0.823	0.5744	0.189
Mof_O 	O 	0.2468	0.9893	0.5394	-0.277
Mof_O 	O 	0.68638	0.43533	0.5103	-0.293
Mof_H 	H 	0.7046	0.323	0.5744	0.189
Mof_O 	O 	0.7468	0.4893	0.5394	-0.277
Mof_O 	O 	0.68638	0.93533	0.0103	-0.293
Mof_H 	H 	0.7046	0.823	0.0744	0.189
Mof_O 	O 	0.7468	0.9893	0.0394	-0.277
Mof_O 	O 	0.81362	0.56467	0.0103	-0.293
Mof_H 	H 	0.7954	0.677	0.0744	0.189
Mof_O 	O 	0.7532	0.5107	0.0394	-0.277
Mof_O 	O 	0.81362	0.06467	0.5103	-0.293
Mof_H 	H 	0.7954	0.177	0.5744	0.189
Mof_O 	O 	0.7532	0.0107	0.5394	-0.278
Mof_O 	O 	0.31362	0.56467	0.5103	-0.293
Mof_H 	H 	0.2954	0.677	0.5744	0.189
Mof_O 	O 	0.2532	0.5107	0.5394	-0.277
Mof_O 	O 	0.31362	0.06467	0.0103	-0.293
Mof_H 	H 	0.2954	0.177	0.0744	0.189
Mof_O 	O 	0.2532	0.0107	0.0394	-0.278
Mof_O 	O 	0.81362	0.43533	0.9897	-0.292
Mof_H 	H 	0.7954	0.323	0.9256	0.189
Mof_O 	O 	0.7532	0.4893	0.9606	-0.277
Mof_O 	O 	0.81362	0.93533	0.4897	-0.293
Mof_H 	H 	0.7954	0.823	0.4256	0.189
Mof_O 	O 	0.7532	0.9893	0.4606	-0.277
Mof_O 	O 	0.31362	0.43533	0.4897	-0.293
Mof_H 	H 	0.2954	0.323	0.4256	0.189
Mof_O 	O 	0.2532	0.4893	0.4606	-0.277
Mof_O 	O 	0.31362	0.93533	0.9897	-0.292
Mof_H 	H 	0.2954	0.823	0.9256	0.189
Mof_O 	O 	0.2532	0.9893	0.9606	-0.277
Mof_O 	O 	0.18638	0.56467	0.9897	-0.292
Mof_H 	H 	0.2046	0.677	0.9256	0.189
Mof_O 	O 	0.2468	0.5107	0.9606	-0.277
Mof_O 	O 	0.18638	0.06467	0.4897	-0.293
Mof_H 	H 	0.2046	0.177	0.4256	0.189
Mof_O 	O 	0.2468	0.0107	0.4606	-0.278
Mof_O 	O 	0.68638	0.56467	0.4897	-0.293
Mof_H 	H 	0.7046	0.677	0.4256	0.189
Mof_O 	O 	0.7468	0.5107	0.4606	-0.277
Mof_O 	O 	0.68638	0.06467	0.9897	-0.292
Mof_H 	H 	0.7046	0.177	0.9256	0.189
Mof_O 	O 	0.7468	0.0107	0.9606	-0.278
Mof_O 	O 	0.0103	0.18638	0.43533	-0.293
Mof_H 	H 	0.0744	0.2046	0.323	0.189
Mof_O 	O 	0.0394	0.2468	0.4893	-0.277
Mof_O 	O 	0.0103	0.68638	0.93533	-0.293
Mof_H 	H 	0.0744	0.7046	0.823	0.189
Mof_O 	O 	0.0394	0.7468	0.9893	-0.277
Mof_O 	O 	0.5103	0.18638	0.93533	-0.293
Mof_H 	H 	0.5744	0.2046	0.823	0.189
Mof_O 	O 	0.5394	0.2468	0.9893	-0.277
Mof_O 	O 	0.5103	0.68638	0.43533	-0.293
Mof_H 	H 	0.5744	0.7046	0.323	0.189
Mof_O 	O 	0.5394	0.7468	0.4893	-0.277
Mof_O 	O 	0.0103	0.81362	0.56467	-0.293
Mof_H 	H 	0.0744	0.7954	0.677	0.189
Mof_O 	O 	0.0394	0.7532	0.5107	-0.277
Mof_O 	O 	0.0103	0.31362	0.06467	-0.293
Mof_H 	H 	0.0744	0.2954	0.177	0.189
Mof_O 	O 	0.0394	0.2532	0.0107	-0.278
Mof_O 	O 	0.5103	0.81362	0.06467	-0.293
Mof_H 	H 	0.5744	0.7954	0.177	0.189
Mof_O 	O 	0.5394	0.7532	0.0107	-0.278
Mof_O 	O 	0.5103	0.31362	0.56467	-0.293
Mof_H 	H 	0.5744	0.2954	0.677	0.189
Mof_O 	O 	0.5394	0.2532	0.5107	-0.277
Mof_O 	O 	0.9897	0.81362	0.43533	-0.292
Mof_H 	H 	0.9256	0.7954	0.323	0.189
Mof_O 	O 	0.9606	0.7532	0.4893	-0.277
Mof_O 	O 	0.9897	0.31362	0.93533	-0.292
Mof_H 	H 	0.9256	0.2954	0.823	0.189
Mof_O 	O 	0.9606	0.2532	0.9893	-0.277
Mof_O 	O 	0.4897	0.81362	0.93533	-0.293
Mof_H 	H 	0.4256	0.7954	0.823	0.189
Mof_O 	O 	0.4606	0.7532	0.9893	-0.277
Mof_O 	O 	0.4897	0.31362	0.43533	-0.293
Mof_H 	H 	0.4256	0.2954	0.323	0.189
Mof_O 	O 	0.4606	0.2532	0.4893	-0.277
Mof_O 	O 	0.9897	0.18638	0.56467	-0.292
Mof_H 	H 	0.9256	0.2046	0.677	0.189
Mof_O 	O 	0.9606	0.2468	0.5107	-0.277
Mof_O 	O 	0.9897	0.68638	0.06467	-0.292
Mof_H 	H 	0.9256	0.7046	0.177	0.189
Mof_O 	O 	0.9606	0.7468	0.0107	-0.278
Mof_O 	O 	0.4897	0.18638	0.06467	-0.293
Mof_H 	H 	0.4256	0.2046	0.177	0.189
Mof_O 	O 	0.4606	0.2468	0.0107	-0.278
Mof_O 	O 	0.4897	0.68638	0.56467	-0.293
Mof_H 	H 	0.4256	0.7046	0.677	0.189
Mof_O 	O 	0.4606	0.7468	0.5107	-0.277
Mof_O 	O 	0.43533	0.0103	0.18638	-0.293
Mof_H 	H 	0.323	0.0744	0.2046	0.189
Mof_O 	O 	0.4893	0.0394	0.2468	-0.277
Mof_O 	O 	0.43533	0.5103	0.68638	-0.293
Mof_H 	H 	0.323	0.5744	0.7046	0.189
Mof_O 	O 	0.4893	0.5394	0.7468	-0.277
Mof_O 	O 	0.93533	0.0103	0.68638	-0.293
Mof_H 	H 	0.823	0.0744	0.7046	0.189
Mof_O 	O 	0.9893	0.0394	0.7468	-0.277
Mof_O 	O 	0.93533	0.5103	0.18638	-0.293
Mof_H 	H 	0.823	0.5744	0.2046	0.189
Mof_O 	O 	0.9893	0.5394	0.2468	-0.277
Mof_O 	O 	0.56467	0.0103	0.81362	-0.293
Mof_H 	H 	0.677	0.0744	0.7954	0.189
Mof_O 	O 	0.5107	0.0394	0.7532	-0.277
Mof_O 	O 	0.56467	0.5103	0.31362	-0.293
Mof_H 	H 	0.677	0.5744	0.2954	0.189
Mof_O 	O 	0.5107	0.5394	0.2532	-0.277
Mof_O 	O 	0.06467	0.0103	0.31362	-0.293
Mof_H 	H 	0.177	0.0744	0.2954	0.189
Mof_O 	O 	0.0107	0.0394	0.2532	-0.278
Mof_O 	O 	0.06467	0.5103	0.81362	-0.293
Mof_H 	H 	0.177	0.5744	0.7954	0.189
Mof_O 	O 	0.0107	0.5394	0.7532	-0.278
Mof_O 	O 	0.43533	0.9897	0.81362	-0.292
Mof_H 	H 	0.323	0.9256	0.7954	0.189
Mof_O 	O 	0.4893	0.9606	0.7532	-0.277
Mof_O 	O 	0.43533	0.4897	0.31362	-0.293
Mof_H 	H 	0.323	0.4256	0.2954	0.189
Mof_O 	O 	0.4893	0.4606	0.2532	-0.277
Mof_O 	O 	0.93533	0.9897	0.31362	-0.292
Mof_H 	H 	0.823	0.9256	0.2954	0.189
Mof_O 	O 	0.9893	0.9606	0.2532	-0.277
Mof_O 	O 	0.93533	0.4897	0.81362	-0.293
Mof_H 	H 	0.823	0.4256	0.7954	0.189
Mof_O 	O 	0.9893	0.4606	0.7532	-0.277
Mof_O 	O 	0.56467	0.9897	0.18638	-0.292
Mof_H 	H 	0.677	0.9256	0.2046	0.189
Mof_O 	O 	0.5107	0.9606	0.2468	-0.277
Mof_O 	O 	0.56467	0.4897	0.68638	-0.293
Mof_H 	H 	0.677	0.4256	0.7046	0.189
Mof_O 	O 	0.5107	0.4606	0.7468	-0.277
Mof_O 	O 	0.06467	0.9897	0.68638	-0.292
Mof_H 	H 	0.177	0.9256	0.7046	0.189
Mof_O 	O 	0.0107	0.9606	0.7468	-0.278
Mof_O 	O 	0.06467	0.4897	0.18638	-0.293
Mof_H 	H 	0.177	0.4256	0.2046	0.189
Mof_O 	O 	0.0107	0.4606	0.2468	-0.278
Mof_O 	O 	0.43533	0.18638	0.9897	-0.292
Mof_H 	H 	0.323	0.2046	0.9256	0.189
Mof_O 	O 	0.4893	0.2468	0.9606	-0.277
Mof_O 	O 	0.43533	0.68638	0.4897	-0.293
Mof_H 	H 	0.323	0.7046	0.4256	0.189
Mof_O 	O 	0.4893	0.7468	0.4606	-0.277
Mof_O 	O 	0.93533	0.18638	0.4897	-0.293
Mof_H 	H 	0.823	0.2046	0.4256	0.189
Mof_O 	O 	0.9893	0.2468	0.4606	-0.277
Mof_O 	O 	0.93533	0.68638	0.9897	-0.292
Mof_H 	H 	0.823	0.7046	0.9256	0.189
Mof_O 	O 	0.9893	0.7468	0.9606	-0.277
Mof_O 	O 	0.56467	0.81362	0.9897	-0.292
Mof_H 	H 	0.677	0.7954	0.9256	0.189
Mof_O 	O 	0.5107	0.7532	0.9606	-0.277
Mof_O 	O 	0.56467	0.31362	0.4897	-0.293
Mof_H 	H 	0.677	0.2954	0.4256	0.189
Mof_O 	O 	0.5107	0.2532	0.4606	-0.277
Mof_O 	O 	0.06467	0.81362	0.4897	-0.293
Mof_H 	H 	0.177	0.7954	0.4256	0.189
Mof_O 	O 	0.0107	0.7532	0.4606	-0.278
Mof_O 	O 	0.06467	0.31362	0.9897	-0.292
Mof_H 	H 	0.177	0.2954	0.9256	0.189
Mof_O 	O 	0.0107	0.2532	0.9606	-0.278
Mof_O 	O 	0.43533	0.81362	0.0103	-0.293
Mof_H 	H 	0.323	0.7954	0.0744	0.189
Mof_O 	O 	0.4893	0.7532	0.0394	-0.277
Mof_O 	O 	0.43533	0.31362	0.5103	-0.293
Mof_H 	H 	0.323	0.2954	0.5744	0.189
Mof_O 	O 	0.4893	0.2532	0.5394	-0.277
Mof_O 	O 	0.93533	0.81362	0.5103	-0.293
Mof_H 	H 	0.823	0.7954	0.5744	0.189
Mof_O 	O 	0.9893	0.7532	0.5394	-0.277
Mof_O 	O 	0.93533	0.31362	0.0103	-0.293
Mof_H 	H 	0.823	0.2954	0.0744	0.189
Mof_O 	O 	0.9893	0.2532	0.0394	-0.277
Mof_O 	O 	0.56467	0.18638	0.0103	-0.293
Mof_H 	H 	0.677	0.2046	0.0744	0.189
Mof_O 	O 	0.5107	0.2468	0.0394	-0.277
Mof_O 	O 	0.56467	0.68638	0.5103	-0.293
Mof_H 	H 	0.677	0.7046	0.5744	0.189
Mof_O 	O 	0.5107	0.7468	0.5394	-0.277
Mof_O 	O 	0.06467	0.18638	0.5103	-0.293
Mof_H 	H 	0.177	0.2046	0.5744	0.189
Mof_O 	O 	0.0107	0.2468	0.5394	-0.278
Mof_O 	O 	0.06467	0.68638	0.0103	-0.293
Mof_H 	H 	0.177	0.7046	0.0744	0.189
Mof_O 	O 	0.0107	0.7468	0.0394	-0.278
Mof_O 	O 	0.18638	0.0103	0.56467	-0.293
Mof_H 	H 	0.2046	0.0744	0.677	0.189
Mof_O 	O 	0.2468	0.0394	0.5107	-0.277
Mof_O 	O 	0.18638	0.5103	0.06467	-0.293
Mof_H 	H 	0.2046	0.5744	0.177	0.189
Mof_O 	O 	0.2468	0.5394	0.0107	-0.278
Mof_O 	O 	0.68638	0.0103	0.06467	-0.292
Mof_H 	H 	0.7046	0.0744	0.177	0.19
Mof_O 	O 	0.7468	0.0394	0.0107	-0.277
Mof_O 	O 	0.68638	0.5103	0.56467	-0.292
Mof_H 	H 	0.7046	0.5744	0.677	0.19
Mof_O 	O 	0.7468	0.5394	0.5107	-0.276
Mof_O 	O 	0.81362	0.0103	0.43533	-0.292
Mof_H 	H 	0.7954	0.0744	0.323	0.19
Mof_O 	O 	0.7532	0.0394	0.4893	-0.276
Mof_O 	O 	0.81362	0.5103	0.93533	-0.292
Mof_H 	H 	0.7954	0.5744	0.823	0.19
Mof_O 	O 	0.7532	0.5394	0.9893	-0.276
Mof_O 	O 	0.31362	0.0103	0.93533	-0.292
Mof_H 	H 	0.2954	0.0744	0.823	0.19
Mof_O 	O 	0.2532	0.0394	0.9893	-0.276
Mof_O 	O 	0.31362	0.5103	0.43533	-0.292
Mof_H 	H 	0.2954	0.5744	0.323	0.19
Mof_O 	O 	0.2532	0.5394	0.4893	-0.276
Mof_O 	O 	0.81362	0.9897	0.56467	-0.291
Mof_H 	H 	0.7954	0.9256	0.677	0.19
Mof_O 	O 	0.7532	0.9606	0.5107	-0.276
Mof_O 	O 	0.81362	0.4897	0.06467	-0.292
Mof_H 	H 	0.7954	0.4256	0.177	0.19
Mof_O 	O 	0.7532	0.4606	0.0107	-0.277
Mof_O 	O 	0.31362	0.9897	0.06467	-0.291
Mof_H 	H 	0.2954	0.9256	0.177	0.19
Mof_O 	O 	0.2532	0.9606	0.0107	-0.277
Mof_O 	O 	0.31362	0.4897	0.56467	-0.292
Mof_H 	H 	0.2954	0.4256	0.677	0.19
Mof_O 	O 	0.2532	0.4606	0.5107	-0.276
Mof_O 	O 	0.18638	0.9897	0.43533	-0.291
Mof_H 	H 	0.2046	0.9256	0.323	0.19
Mof_O 	O 	0.2468	0.9606	0.4893	-0.276
Mof_O 	O 	0.18638	0.4897	0.93533	-0.292
Mof_H 	H 	0.2046	0.4256	0.823	0.19
Mof_O 	O 	0.2468	0.4606	0.9893	-0.276
Mof_O 	O 	0.68638	0.9897	0.93533	-0.291
Mof_H 	H 	0.7046	0.9256	0.823	0.19
Mof_O 	O 	0.7468	0.9606	0.9893	-0.276
Mof_O 	O 	0.68638	0.4897	0.43533	-0.292
Mof_H 	H 	0.7046	0.4256	0.323	0.19
Mof_O 	O 	0.7468	0.4606	0.4893	-0.276
Mof_O 	O 	0.0103	0.43533	0.81362	-0.292
Mof_H 	H 	0.0744	0.323	0.7954	0.19
Mof_O 	O 	0.0394	0.4893	0.7532	-0.276
Mof_O 	O 	0.0103	0.93533	0.31362	-0.292
Mof_H 	H 	0.0744	0.823	0.2954	0.19
Mof_O 	O 	0.0394	0.9893	0.2532	-0.276
Mof_O 	O 	0.5103	0.43533	0.31362	-0.292
Mof_H 	H 	0.5744	0.323	0.2954	0.19
Mof_O 	O 	0.5394	0.4893	0.2532	-0.276
Mof_O 	O 	0.5103	0.93533	0.81362	-0.292
Mof_H 	H 	0.5744	0.823	0.7954	0.19
Mof_O 	O 	0.5394	0.9893	0.7532	-0.276
Mof_O 	O 	0.0103	0.56467	0.18638	-0.292
Mof_H 	H 	0.0744	0.677	0.2046	0.19
Mof_O 	O 	0.0394	0.5107	0.2468	-0.276
Mof_O 	O 	0.0103	0.06467	0.68638	-0.292
Mof_H 	H 	0.0744	0.177	0.7046	0.19
Mof_O 	O 	0.0394	0.0107	0.7468	-0.277
Mof_O 	O 	0.5103	0.56467	0.68638	-0.292
Mof_H 	H 	0.5744	0.677	0.7046	0.19
Mof_O 	O 	0.5394	0.5107	0.7468	-0.276
Mof_O 	O 	0.5103	0.06467	0.18638	-0.292
Mof_H 	H 	0.5744	0.177	0.2046	0.19
Mof_O 	O 	0.5394	0.0107	0.2468	-0.277
Mof_O 	O 	0.9897	0.43533	0.18638	-0.291
Mof_H 	H 	0.9256	0.323	0.2046	0.19
Mof_O 	O 	0.9606	0.4893	0.2468	-0.276
Mof_O 	O 	0.9897	0.93533	0.68638	-0.291
Mof_H 	H 	0.9256	0.823	0.7046	0.19
Mof_O 	O 	0.9606	0.9893	0.7468	-0.276
Mof_O 	O 	0.4897	0.43533	0.68638	-0.292
Mof_H 	H 	0.4256	0.323	0.7046	0.19
Mof_O 	O 	0.4606	0.4893	0.7468	-0.276
Mof_O 	O 	0.4897	0.93533	0.18638	-0.292
Mof_H 	H 	0.4256	0.823	0.2046	0.19
Mof_O 	O 	0.4606	0.9893	0.2468	-0.276
Mof_O 	O 	0.9897	0.56467	0.81362	-0.291
Mof_H 	H 	0.9256	0.677	0.7954	0.19
Mof_O 	O 	0.9606	0.5107	0.7532	-0.276
Mof_O 	O 	0.9897	0.06467	0.31362	-0.291
Mof_H 	H 	0.9256	0.177	0.2954	0.19
Mof_O 	O 	0.9606	0.0107	0.2532	-0.277
Mof_O 	O 	0.4897	0.56467	0.31362	-0.292
Mof_H 	H 	0.4256	0.677	0.2954	0.19
Mof_O 	O 	0.4606	0.5107	0.2532	-0.276
Mof_O 	O 	0.4897	0.06467	0.81362	-0.292
Mof_H 	H 	0.4256	0.177	0.7954	0.19
Mof_O 	O 	0.4606	0.0107	0.7532	-0.277
Mof_O 	O 	0.81362	0.56467	0.9897	-0.291
Mof_H 	H 	0.7954	0.677	0.9256	0.19
Mof_O 	O 	0.7532	0.5107	0.9606	-0.276
Mof_O 	O 	0.81362	0.06467	0.4897	-0.292
Mof_H 	H 	0.7954	0.177	0.4256	0.19
Mof_O 	O 	0.7532	0.0107	0.4606	-0.277
Mof_O 	O 	0.31362	0.56467	0.4897	-0.292
Mof_H 	H 	0.2954	0.677	0.4256	0.19
Mof_O 	O 	0.2532	0.5107	0.4606	-0.276
Mof_O 	O 	0.31362	0.06467	0.9897	-0.291
Mof_H 	H 	0.2954	0.177	0.9256	0.19
Mof_O 	O 	0.2532	0.0107	0.9606	-0.277
Mof_O 	O 	0.18638	0.43533	0.9897	-0.291
Mof_H 	H 	0.2046	0.323	0.9256	0.19
Mof_O 	O 	0.2468	0.4893	0.9606	-0.276
Mof_O 	O 	0.18638	0.93533	0.4897	-0.292
Mof_H 	H 	0.2046	0.823	0.4256	0.19
Mof_O 	O 	0.2468	0.9893	0.4606	-0.276
Mof_O 	O 	0.68638	0.43533	0.4897	-0.292
Mof_H 	H 	0.7046	0.323	0.4256	0.19
Mof_O 	O 	0.7468	0.4893	0.4606	-0.276
Mof_O 	O 	0.68638	0.93533	0.9897	-0.291
Mof_H 	H 	0.7046	0.823	0.9256	0.19
Mof_O 	O 	0.7468	0.9893	0.9606	-0.276
Mof_O 	O 	0.18638	0.56467	0.0103	-0.292
Mof_H 	H 	0.2046	0.677	0.0744	0.19
Mof_O 	O 	0.2468	0.5107	0.0394	-0.276
Mof_O 	O 	0.18638	0.06467	0.5103	-0.292
Mof_H 	H 	0.2046	0.177	0.5744	0.19
Mof_O 	O 	0.2468	0.0107	0.5394	-0.277
Mof_O 	O 	0.68638	0.56467	0.5103	-0.292
Mof_H 	H 	0.7046	0.677	0.5744	0.19
Mof_O 	O 	0.7468	0.5107	0.5394	-0.276
Mof_O 	O 	0.68638	0.06467	0.0103	-0.292
Mof_H 	H 	0.7046	0.177	0.0744	0.19
Mof_O 	O 	0.7468	0.0107	0.0394	-0.277
Mof_O 	O 	0.81362	0.43533	0.0103	-0.292
Mof_H 	H 	0.7954	0.323	0.0744	0.19
Mof_O 	O 	0.7532	0.4893	0.0394	-0.276
Mof_O 	O 	0.81362	0.93533	0.5103	-0.292
Mof_H 	H 	0.7954	0.823	0.5744	0.19
Mof_O 	O 	0.7532	0.9893	0.5394	-0.276
Mof_O 	O 	0.31362	0.43533	0.5103	-0.292
Mof_H 	H 	0.2954	0.323	0.5744	0.19
Mof_O 	O 	0.2532	0.4893	0.5394	-0.276
Mof_O 	O 	0.31362	0.93533	0.0103	-0.292
Mof_H 	H 	0.2954	0.823	0.0744	0.19
Mof_O 	O 	0.2532	0.9893	0.0394	-0.276
Mof_O 	O 	0.9897	0.81362	0.56467	-0.291
Mof_H 	H 	0.9256	0.7954	0.677	0.19
Mof_O 	O 	0.9606	0.7532	0.5107	-0.276
Mof_O 	O 	0.9897	0.31362	0.06467	-0.291
Mof_H 	H 	0.9256	0.2954	0.177	0.19
Mof_O 	O 	0.9606	0.2532	0.0107	-0.277
Mof_O 	O 	0.4897	0.81362	0.06467	-0.292
Mof_H 	H 	0.4256	0.7954	0.177	0.19
Mof_O 	O 	0.4606	0.7532	0.0107	-0.277
Mof_O 	O 	0.4897	0.31362	0.56467	-0.292
Mof_H 	H 	0.4256	0.2954	0.677	0.19
Mof_O 	O 	0.4606	0.2532	0.5107	-0.276
Mof_O 	O 	0.9897	0.18638	0.43533	-0.291
Mof_H 	H 	0.9256	0.2046	0.323	0.19
Mof_O 	O 	0.9606	0.2468	0.4893	-0.276
Mof_O 	O 	0.9897	0.68638	0.93533	-0.291
Mof_H 	H 	0.9256	0.7046	0.823	0.19
Mof_O 	O 	0.9606	0.7468	0.9893	-0.276
Mof_O 	O 	0.4897	0.18638	0.93533	-0.292
Mof_H 	H 	0.4256	0.2046	0.823	0.19
Mof_O 	O 	0.4606	0.2468	0.9893	-0.276
Mof_O 	O 	0.4897	0.68638	0.43533	-0.292
Mof_H 	H 	0.4256	0.7046	0.323	0.19
Mof_O 	O 	0.4606	0.7468	0.4893	-0.276
Mof_O 	O 	0.0103	0.18638	0.56467	-0.292
Mof_H 	H 	0.0744	0.2046	0.677	0.19
Mof_O 	O 	0.0394	0.2468	0.5107	-0.276
Mof_O 	O 	0.0103	0.68638	0.06467	-0.292
Mof_H 	H 	0.0744	0.7046	0.177	0.19
Mof_O 	O 	0.0394	0.7468	0.0107	-0.277
Mof_O 	O 	0.5103	0.18638	0.06467	-0.292
Mof_H 	H 	0.5744	0.2046	0.177	0.19
Mof_O 	O 	0.5394	0.2468	0.0107	-0.277
Mof_O 	O 	0.5103	0.68638	0.56467	-0.292
Mof_H 	H 	0.5744	0.7046	0.677	0.19
Mof_O 	O 	0.5394	0.7468	0.5107	-0.276
Mof_O 	O 	0.0103	0.81362	0.43533	-0.292
Mof_H 	H 	0.0744	0.7954	0.323	0.19
Mof_O 	O 	0.0394	0.7532	0.4893	-0.276
Mof_O 	O 	0.0103	0.31362	0.93533	-0.292
Mof_H 	H 	0.0744	0.2954	0.823	0.19
Mof_O 	O 	0.0394	0.2532	0.9893	-0.276
Mof_O 	O 	0.5103	0.81362	0.93533	-0.292
Mof_H 	H 	0.5744	0.7954	0.823	0.19
Mof_O 	O 	0.5394	0.7532	0.9893	-0.276
Mof_O 	O 	0.5103	0.31362	0.43533	-0.292
Mof_H 	H 	0.5744	0.2954	0.323	0.19
Mof_O 	O 	0.5394	0.2532	0.4893	-0.276
Mof_O 	O 	0.56467	0.9897	0.81362	-0.291
Mof_H 	H 	0.677	0.9256	0.7954	0.19
Mof_O 	O 	0.5107	0.9606	0.7532	-0.276
Mof_O 	O 	0.56467	0.4897	0.31362	-0.292
Mof_H 	H 	0.677	0.4256	0.2954	0.19
Mof_O 	O 	0.5107	0.4606	0.2532	-0.276
Mof_O 	O 	0.06467	0.9897	0.31362	-0.291
Mof_H 	H 	0.177	0.9256	0.2954	0.19
Mof_O 	O 	0.0107	0.9606	0.2532	-0.277
Mof_O 	O 	0.06467	0.4897	0.81362	-0.292
Mof_H 	H 	0.177	0.4256	0.7954	0.19
Mof_O 	O 	0.0107	0.4606	0.7532	-0.277
Mof_O 	O 	0.43533	0.9897	0.18638	-0.291
Mof_H 	H 	0.323	0.9256	0.2046	0.19
Mof_O 	O 	0.4893	0.9606	0.2468	-0.276
Mof_O 	O 	0.43533	0.4897	0.68638	-0.292
Mof_H 	H 	0.323	0.4256	0.7046	0.19
Mof_O 	O 	0.4893	0.4606	0.7468	-0.276
Mof_O 	O 	0.93533	0.9897	0.68638	-0.291
Mof_H 	H 	0.823	0.9256	0.7046	0.19
Mof_O 	O 	0.9893	0.9606	0.7468	-0.276
Mof_O 	O 	0.93533	0.4897	0.18638	-0.292
Mof_H 	H 	0.823	0.4256	0.2046	0.19
Mof_O 	O 	0.9893	0.4606	0.2468	-0.276
Mof_O 	O 	0.56467	0.0103	0.18638	-0.292
Mof_H 	H 	0.677	0.0744	0.2046	0.19
Mof_O 	O 	0.5107	0.0394	0.2468	-0.276
Mof_O 	O 	0.56467	0.5103	0.68638	-0.292
Mof_H 	H 	0.677	0.5744	0.7046	0.19
Mof_O 	O 	0.5107	0.5394	0.7468	-0.276
Mof_O 	O 	0.06467	0.0103	0.68638	-0.292
Mof_H 	H 	0.177	0.0744	0.7046	0.19
Mof_O 	O 	0.0107	0.0394	0.7468	-0.277
Mof_O 	O 	0.06467	0.5103	0.18638	-0.292
Mof_H 	H 	0.177	0.5744	0.2046	0.19
Mof_O 	O 	0.0107	0.5394	0.2468	-0.277
Mof_O 	O 	0.43533	0.0103	0.81362	-0.292
Mof_H 	H 	0.323	0.0744	0.7954	0.19
Mof_O 	O 	0.4893	0.0394	0.7532	-0.276
Mof_O 	O 	0.43533	0.5103	0.31362	-0.292
Mof_H 	H 	0.323	0.5744	0.2954	0.19
Mof_O 	O 	0.4893	0.5394	0.2532	-0.276
Mof_O 	O 	0.93533	0.0103	0.31362	-0.292
Mof_H 	H 	0.823	0.0744	0.2954	0.19
Mof_O 	O 	0.9893	0.0394	0.2532	-0.276
Mof_O 	O 	0.93533	0.5103	0.81362	-0.292
Mof_H 	H 	0.823	0.5744	0.7954	0.19
Mof_O 	O 	0.9893	0.5394	0.7532	-0.276
Mof_O 	O 	0.56467	0.81362	0.0103	-0.292
Mof_H 	H 	0.677	0.7954	0.0744	0.19
Mof_O 	O 	0.5107	0.7532	0.0394	-0.276
Mof_O 	O 	0.56467	0.31362	0.5103	-0.292
Mof_H 	H 	0.677	0.2954	0.5744	0.19
Mof_O 	O 	0.5107	0.2532	0.5394	-0.276
Mof_O 	O 	0.06467	0.81362	0.5103	-0.292
Mof_H 	H 	0.177	0.7954	0.5744	0.19
Mof_O 	O 	0.0107	0.7532	0.5394	-0.277
Mof_O 	O 	0.06467	0.31362	0.0103	-0.292
Mof_H 	H 	0.177	0.2954	0.0744	0.19
Mof_O 	O 	0.0107	0.2532	0.0394	-0.277
Mof_O 	O 	0.43533	0.18638	0.0103	-0.292
Mof_H 	H 	0.323	0.2046	0.0744	0.19
Mof_O 	O 	0.4893	0.2468	0.0394	-0.276
Mof_O 	O 	0.43533	0.68638	0.5103	-0.292
Mof_H 	H 	0.323	0.7046	0.5744	0.19
Mof_O 	O 	0.4893	0.7468	0.5394	-0.276
Mof_O 	O 	0.93533	0.18638	0.5103	-0.292
Mof_H 	H 	0.823	0.2046	0.5744	0.19
Mof_O 	O 	0.9893	0.2468	0.5394	-0.276
Mof_O 	O 	0.93533	0.68638	0.0103	-0.292
Mof_H 	H 	0.823	0.7046	0.0744	0.19
Mof_O 	O 	0.9893	0.7468	0.0394	-0.276
Mof_O 	O 	0.56467	0.18638	0.9897	-0.291
Mof_H 	H 	0.677	0.2046	0.9256	0.19
Mof_O 	O 	0.5107	0.2468	0.9606	-0.276
Mof_O 	O 	0.56467	0.68638	0.4897	-0.292
Mof_H 	H 	0.677	0.7046	0.4256	0.19
Mof_O 	O 	0.5107	0.7468	0.4606	-0.276
Mof_O 	O 	0.06467	0.18638	0.4897	-0.292
Mof_H 	H 	0.177	0.2046	0.4256	0.19
Mof_O 	O 	0.0107	0.2468	0.4606	-0.277
Mof_O 	O 	0.06467	0.68638	0.9897	-0.291
Mof_H 	H 	0.177	0.7046	0.9256	0.19
Mof_O 	O 	0.0107	0.7468	0.9606	-0.277
Mof_O 	O 	0.43533	0.81362	0.9897	-0.291
Mof_H 	H 	0.323	0.7954	0.9256	0.19
Mof_O 	O 	0.4893	0.7532	0.9606	-0.276
Mof_O 	O 	0.43533	0.31362	0.4897	-0.292
Mof_H 	H 	0.323	0.2954	0.4256	0.19
Mof_O 	O 	0.4893	0.2532	0.4606	-0.276
Mof_O 	O 	0.93533	0.81362	0.4897	-0.292
Mof_H 	H 	0.823	0.7954	0.4256	0.19
Mof_O 	O 	0.9893	0.7532	0.4606	-0.276
Mof_O 	O 	0.93533	0.31362	0.9897	-0.291
Mof_H 	H 	0.823	0.2954	0.9256	0.19
Mof_O 	O 	0.9893	0.2532	0.9606	-0.276
Mof_O 	O 	0.81362	0.9897	0.43533	-0.291
Mof_H 	H 	0.7954	0.9256	0.323	0.19
Mof_O 	O 	0.7532	0.9606	0.4893	-0.276
Mof_O 	O 	0.81362	0.4897	0.93533	-0.292
Mof_H 	H 	0.7954	0.4256	0.823	0.19
Mof_O 	O 	0.7532	0.4606	0.9893	-0.276
Mof_O 	O 	0.31362	0.9897	0.93533	-0.291
Mof_H 	H 	0.2954	0.9256	0.823	0.19
Mof_O 	O 	0.2532	0.9606	0.9893	-0.276
Mof_O 	O 	0.31362	0.4897	0.43533	-0.292
Mof_H 	H 	0.2954	0.4256	0.323	0.19
Mof_O 	O 	0.2532	0.4606	0.4893	-0.276
Mof_O 	O 	0.18638	0.9897	0.56467	-0.291
Mof_H 	H 	0.2046	0.9256	0.677	0.19
Mof_O 	O 	0.2468	0.9606	0.5107	-0.276
Mof_O 	O 	0.18638	0.4897	0.06467	-0.292
Mof_H 	H 	0.2046	0.4256	0.177	0.19
Mof_O 	O 	0.2468	0.4606	0.0107	-0.277
Mof_O 	O 	0.68638	0.9897	0.06467	-0.291
Mof_H 	H 	0.7046	0.9256	0.177	0.19
Mof_O 	O 	0.7468	0.9606	0.0107	-0.277
Mof_O 	O 	0.68638	0.4897	0.56467	-0.292
Mof_H 	H 	0.7046	0.4256	0.677	0.19
Mof_O 	O 	0.7468	0.4606	0.5107	-0.276
Mof_O 	O 	0.18638	0.0103	0.43533	-0.292
Mof_H 	H 	0.2046	0.0744	0.323	0.19
Mof_O 	O 	0.2468	0.0394	0.4893	-0.276
Mof_O 	O 	0.18638	0.5103	0.93533	-0.292
Mof_H 	H 	0.2046	0.5744	0.823	0.19
Mof_O 	O 	0.2468	0.5394	0.9893	-0.276
Mof_O 	O 	0.68638	0.0103	0.93533	-0.292
Mof_H 	H 	0.7046	0.0744	0.823	0.19
Mof_O 	O 	0.7468	0.0394	0.9893	-0.276
Mof_O 	O 	0.68638	0.5103	0.43533	-0.292
Mof_H 	H 	0.7046	0.5744	0.323	0.19
Mof_O 	O 	0.7468	0.5394	0.4893	-0.276
Mof_O 	O 	0.81362	0.0103	0.56467	-0.292
Mof_H 	H 	0.7954	0.0744	0.677	0.19
Mof_O 	O 	0.7532	0.0394	0.5107	-0.276
Mof_O 	O 	0.81362	0.5103	0.06467	-0.292
Mof_H 	H 	0.7954	0.5744	0.177	0.19
Mof_O 	O 	0.7532	0.5394	0.0107	-0.277
Mof_O 	O 	0.31362	0.0103	0.06467	-0.292
Mof_H 	H 	0.2954	0.0744	0.177	0.19
Mof_O 	O 	0.2532	0.0394	0.0107	-0.277
Mof_O 	O 	0.31362	0.5103	0.56467	-0.292
Mof_H 	H 	0.2954	0.5744	0.677	0.19
Mof_O 	O 	0.2532	0.5394	0.5107	-0.276
Mof_O 	O 	0.9897	0.56467	0.18638	-0.291
Mof_H 	H 	0.9256	0.677	0.2046	0.19
Mof_O 	O 	0.9606	0.5107	0.2468	-0.276
Mof_O 	O 	0.9897	0.06467	0.68638	-0.291
Mof_H 	H 	0.9256	0.177	0.7046	0.19
Mof_O 	O 	0.9606	0.0107	0.7468	-0.277
Mof_O 	O 	0.4897	0.56467	0.68638	-0.292
Mof_H 	H 	0.4256	0.677	0.7046	0.19
Mof_O 	O 	0.4606	0.5107	0.7468	-0.276
Mof_O 	O 	0.4897	0.06467	0.18638	-0.292
Mof_H 	H 	0.4256	0.177	0.2046	0.19
Mof_O 	O 	0.4606	0.0107	0.2468	-0.277
Mof_O 	O 	0.9897	0.43533	0.81362	-0.291
Mof_H 	H 	0.9256	0.323	0.7954	0.19
Mof_O 	O 	0.9606	0.4893	0.7532	-0.276
Mof_O 	O 	0.9897	0.93533	0.31362	-0.291
Mof_H 	H 	0.9256	0.823	0.2954	0.19
Mof_O 	O 	0.9606	0.9893	0.2532	-0.276
Mof_O 	O 	0.4897	0.43533	0.31362	-0.292
Mof_H 	H 	0.4256	0.323	0.2954	0.19
Mof_O 	O 	0.4606	0.4893	0.2532	-0.276
Mof_O 	O 	0.4897	0.93533	0.81362	-0.292
Mof_H 	H 	0.4256	0.823	0.7954	0.19
Mof_O 	O 	0.4606	0.9893	0.7532	-0.276
Mof_O 	O 	0.0103	0.56467	0.81362	-0.292
Mof_H 	H 	0.0744	0.677	0.7954	0.19
Mof_O 	O 	0.0394	0.5107	0.7532	-0.276
Mof_O 	O 	0.0103	0.06467	0.31362	-0.292
Mof_H 	H 	0.0744	0.177	0.2954	0.19
Mof_O 	O 	0.0394	0.0107	0.2532	-0.277
Mof_O 	O 	0.5103	0.56467	0.31362	-0.292
Mof_H 	H 	0.5744	0.677	0.2954	0.19
Mof_O 	O 	0.5394	0.5107	0.2532	-0.276
Mof_O 	O 	0.5103	0.06467	0.81362	-0.292
Mof_H 	H 	0.5744	0.177	0.7954	0.19
Mof_O 	O 	0.5394	0.0107	0.7532	-0.277
Mof_O 	O 	0.0103	0.43533	0.18638	-0.292
Mof_H 	H 	0.0744	0.323	0.2046	0.19
Mof_O 	O 	0.0394	0.4893	0.2468	-0.276
Mof_O 	O 	0.0103	0.93533	0.68638	-0.292
Mof_H 	H 	0.0744	0.823	0.7046	0.19
Mof_O 	O 	0.0394	0.9893	0.7468	-0.276
Mof_O 	O 	0.5103	0.43533	0.68638	-0.292
Mof_H 	H 	0.5744	0.323	0.7046	0.19
Mof_O 	O 	0.5394	0.4893	0.7468	-0.276
Mof_O 	O 	0.5103	0.93533	0.18638	-0.292
Mof_H 	H 	0.5744	0.823	0.2046	0.19
Mof_O 	O 	0.5394	0.9893	0.2468	-0.276
Mof_Ni	Ni	0.13785	0.5	-0	1.12
Mof_O 	O 	0.1884	0.5	-0	-0.889
Mof_Ni	Ni	0.63785	0.5	0.5	1.12
Mof_O 	O 	0.6884	0.5	0.5	-0.889
Mof_Ni	Ni	0.86215	0.5	-0	1.12
Mof_O 	O 	0.8116	0.5	-0	-0.889
Mof_Ni	Ni	0.86215	-5.86977e-33	0.5	1.12
Mof_O 	O 	0.8116	-5.86977e-33	0.5	-0.889
Mof_Ni	Ni	0.36215	0.5	0.5	1.12
Mof_O 	O 	0.3116	0.5	0.5	-0.889
Mof_Ni	Ni	0.63785	0	-0	1.12
Mof_O 	O 	0.6884	0	-0	-0.889
Mof_Ni	Ni	-3.99507e-33	0.13785	0.5	1.12
Mof_O 	O 	-3.99507e-33	0.1884	0.5	-0.889
Mof_Ni	Ni	-5.86977e-33	0.63785	-0	1.12
Mof_O 	O 	-1.17395e-32	0.6884	-0	-0.889
Mof_Ni	Ni	0.5	0.63785	0.5	1.12
Mof_O 	O 	0.5	0.6884	0.5	-0.889
Mof_Ni	Ni	7.74447e-33	0.86215	0.5	1.12
Mof_O 	O 	-3.99507e-33	0.8116	0.5	-0.889
Mof_Ni	Ni	-0	0.36215	-0	1.12
Mof_O 	O 	-2.93489e-33	0.3116	-0	-0.889
Mof_Ni	Ni	0.5	0.13785	-0	1.12
Mof_O 	O 	0.5	0.1884	-0	-0.889
Mof_Ni	Ni	0.5	-1.46744e-33	0.13785	1.12
Mof_O 	O 	0.5	-1.46744e-33	0.1884	-0.889
Mof_Ni	Ni	0.5	0.5	0.63785	1.12
Mof_O 	O 	0.5	0.5	0.6884	-0.889
Mof_Ni	Ni	0.5	5.86977e-33	0.86215	1.12
Mof_O 	O 	0.5	-5.86977e-33	0.8116	-0.889
Mof_Ni	Ni	0.5	0.5	0.36215	1.12
Mof_O 	O 	0.5	0.5	0.3116	-0.889
Mof_Ni	Ni	3.23254e-33	0.5	0.86215	1.12
Mof_O 	O 	-8.69653e-33	0.5	0.8116	-0.889
Mof_Ni	Ni	-3.47822e-33	-5.86977e-33	0.63785	1.12
Mof_O 	O 	-9.15846e-33	-1.17395e-32	0.6884	-0.889
Mof_Ni	Ni	0.5	0.86215	-0	1.12
Mof_O 	O 	0.5	0.8116	-0	-0.889
Mof_Ni	Ni	0.5	0.36215	0.5	1.12
Mof_O 	O 	0.5	0.3116	0.5	-0.889
Mof_Ni	Ni	0.13785	-5.86977e-33	0.5	1.12
Mof_O 	O 	0.1884	-5.86977e-33	0.5	-0.889
Mof_Ni	Ni	0.36215	0	-0	1.12
Mof_O 	O 	0.3116	0	-0	-0.889
Mof_Ni	Ni	1.35785e-33	0	0.36215	1.12
Mof_O 	O 	-1.76657e-33	-2.93489e-33	0.3116	-0.889
Mof_Ni	Ni	-2.41803e-33	0.5	0.13785	1.12
Mof_O 	O 	-3.69594e-33	0.5	0.1884	-0.889
Mof_O 	O 	0.1355	0.44979	-0	-0.454
Mof_C 	C 	0.17144	0.37011	-0	-0.051
Mof_H 	H 	0.1938	0.3761	-0	0.061
Mof_C 	C 	0.14746	0.3941	-0	-0.112
Mof_C 	C 	0.15693	0.42959	-0	0.443
Mof_O 	O 	0.1355	0.94979	0.5	-0.453
Mof_C 	C 	0.17144	0.87011	0.5	-0.051
Mof_H 	H 	0.1938	0.8761	0.5	0.061
Mof_C 	C 	0.14746	0.8941	0.5	-0.112
Mof_C 	C 	0.15693	0.92959	0.5	0.443
Mof_O 	O 	0.6355	0.44979	0.5	-0.453
Mof_C 	C 	0.67144	0.37011	0.5	-0.051
Mof_H 	H 	0.6938	0.3761	0.5	0.061
Mof_C 	C 	0.64746	0.3941	0.5	-0.112
Mof_C 	C 	0.65693	0.42959	0.5	0.443
Mof_O 	O 	0.6355	0.94979	-0	-0.453
Mof_C 	C 	0.67144	0.87011	-0	-0.051
Mof_H 	H 	0.6938	0.8761	-0	0.061
Mof_C 	C 	0.64746	0.8941	-0	-0.112
Mof_C 	C 	0.65693	0.92959	-0	0.443
Mof_O 	O 	0.8645	0.55021	-0	-0.454
Mof_C 	C 	0.82856	0.62989	-0	-0.051
Mof_H 	H 	0.8062	0.6239	-0	0.061
Mof_C 	C 	0.85254	0.6059	-0	-0.112
Mof_C 	C 	0.84307	0.57041	-0	0.443
Mof_O 	O 	0.8645	0.05021	0.5	-0.453
Mof_C 	C 	0.82856	0.12989	0.5	-0.051
Mof_H 	H 	0.8062	0.1239	0.5	0.061
Mof_C 	C 	0.85254	0.1059	0.5	-0.112
Mof_C 	C 	0.84307	0.07041	0.5	0.443
Mof_O 	O 	0.3645	0.55021	0.5	-0.453
Mof_C 	C 	0.32856	0.62989	0.5	-0.051
Mof_H 	H 	0.3062	0.6239	0.5	0.061
Mof_C 	C 	0.35254	0.6059	0.5	-0.112
Mof_C 	C 	0.34307	0.57041	0.5	0.443
Mof_O 	O 	0.3645	0.05021	-0	-0.454
Mof_C 	C 	0.32856	0.12989	-0	-0.051
Mof_H 	H 	0.3062	0.1239	-0	0.061
Mof_C 	C 	0.35254	0.1059	-0	-0.112
Mof_C 	C 	0.34307	0.07041	-0	0.443
Mof_O 	O 	0.8645	0.44979	-0	-0.454
Mof_C 	C 	0.82856	0.37011	-0	-0.051
Mof_H 	H 	0.8062	0.3761	-0	0.061
Mof_C 	C 	0.85254	0.3941	-0	-0.112
Mof_C 	C 	0.84307	0.42959	-0	0.443
Mof_O 	O 	0.8645	0.94979	0.5	-0.453
Mof_C 	C 	0.82856	0.87011	0.5	-0.051
Mof_H 	H 	0.8062	0.8761	0.5	0.061
Mof_C 	C 	0.85254	0.8941	0.5	-0.112
Mof_C 	C 	0.84307	0.92959	0.5	0.443
Mof_O 	O 	0.3645	0.44979	0.5	-0.453
Mof_C 	C 	0.32856	0.37011	0.5	-0.051
Mof_H 	H 	0.3062	0.3761	0.5	0.061
Mof_C 	C 	0.35254	0.3941	0.5	-0.112
Mof_C 	C 	0.34307	0.42959	0.5	0.443
Mof_O 	O 	0.3645	0.94979	-0	-0.453
Mof_C 	C 	0.32856	0.87011	-0	-0.051
Mof_H 	H 	0.3062	0.8761	-0	0.061
Mof_C 	C 	0.35254	0.8941	-0	-0.112
Mof_C 	C 	0.34307	0.92959	-0	0.443
Mof_O 	O 	0.1355	0.55021	-0	-0.454
Mof_C 	C 	0.17144	0.62989	-0	-0.051
Mof_H 	H 	0.1938	0.6239	-0	0.061
Mof_C 	C 	0.14746	0.6059	-0	-0.112
Mof_C 	C 	0.15693	0.57041	-0	0.443
Mof_O 	O 	0.1355	0.05021	0.5	-0.454
Mof_C 	C 	0.17144	0.12989	0.5	-0.051
Mof_H 	H 	0.1938	0.1239	0.5	0.061
Mof_C 	C 	0.14746	0.1059	0.5	-0.112
Mof_C 	C 	0.15693	0.07041	0.5	0.443
Mof_O 	O 	0.6355	0.55021	0.5	-0.453
Mof_C 	C 	0.67144	0.62989	0.5	-0.051
Mof_H 	H 	0.6938	0.6239	0.5	0.061
Mof_C 	C 	0.64746	0.6059	0.5	-0.112
Mof_C 	C 	0.65693	0.57041	0.5	0.443
Mof_O 	O 	0.6355	0.05021	-0	-0.454
Mof_C 	C 	0.67144	0.12989	-0	-0.051
Mof_H 	H 	0.6938	0.1239	-0	0.061
Mof_C 	C 	0.64746	0.1059	-0	-0.112
Mof_C 	C 	0.65693	0.07041	-0	0.443
Mof_O 	O 	-4.18333e-33	0.1355	0.44979	-0.454
Mof_C 	C 	-1.5472e-33	0.17144	0.37011	-0.051
Mof_H 	H 	-4.45962e-33	0.1938	0.3761	0.061
Mof_C 	C 	-7.32702e-33	0.14746	0.3941	-0.112
Mof_C 	C 	-4.25907e-33	0.15693	0.42959	0.443
Mof_O 	O 	3.56114e-33	0.6355	0.94979	-0.453
Mof_C 	C 	3.26239e-33	0.67144	0.87011	-0.051
Mof_H 	H 	-8.4547e-33	0.6938	0.8761	0.061
Mof_C 	C 	-8.38721e-33	0.64746	0.8941	-0.112
Mof_C 	C 	-8.25414e-33	0.65693	0.92959	0.443
Mof_O 	O 	0.5	0.1355	0.94979	-0.453
Mof_C 	C 	0.5	0.17144	0.87011	-0.051
Mof_H 	H 	0.5	0.1938	0.8761	0.061
Mof_C 	C 	0.5	0.14746	0.8941	-0.112
Mof_C 	C 	0.5	0.15693	0.92959	0.443
Mof_O 	O 	0.5	0.6355	0.44979	-0.453
Mof_C 	C 	0.5	0.67144	0.37011	-0.051
Mof_H 	H 	0.5	0.6938	0.3761	0.061
Mof_C 	C 	0.5	0.64746	0.3941	-0.112
Mof_C 	C 	0.5	0.65693	0.42959	0.443
Mof_O 	O 	-3.80682e-33	0.8645	0.55021	-0.454
Mof_C 	C 	-3.50806e-33	0.82856	0.62989	-0.051
Mof_H 	H 	2.33925e-33	0.8062	0.6239	0.061
Mof_C 	C 	-9.46778e-33	0.85254	0.6059	-0.112
Mof_C 	C 	-3.73108e-33	0.84307	0.57041	0.443
Mof_O 	O 	-4.21407e-33	0.3645	0.05021	-0.454
Mof_C 	C 	4.87009e-34	0.32856	0.12989	-0.051
Mof_H 	H 	1.93199e-33	0.3062	0.1239	0.061
Mof_C 	C 	-1.07038e-33	0.35254	0.1059	-0.112
Mof_C 	C 	-4.69726e-34	0.34307	0.07041	0.443
Mof_O 	O 	0.5	0.8645	0.05021	-0.453
Mof_C 	C 	0.5	0.82856	0.12989	-0.051
Mof_H 	H 	0.5	0.8062	0.1239	0.061
Mof_C 	C 	0.5	0.85254	0.1059	-0.112
Mof_C 	C 	0.5	0.84307	0.07041	0.443
Mof_O 	O 	0.5	0.3645	0.55021	-0.453
Mof_C 	C 	0.5	0.32856	0.62989	-0.051
Mof_H 	H 	0.5	0.3062	0.6239	0.061
Mof_C 	C 	0.5	0.35254	0.6059	-0.112
Mof_C 	C 	0.5	0.34307	0.57041	0.443
Mof_O 	O 	7.55622e-33	0.8645	0.44979	-0.454
Mof_C 	C 	1.38769e-33	0.82856	0.37011	-0.051
Mof_H 	H 	-1.03294e-32	0.8062	0.3761	0.061
Mof_C 	C 	-7.32702e-33	0.85254	0.3941	-0.112
Mof_C 	C 	7.48048e-33	0.84307	0.42959	0.443
Mof_O 	O 	-8.1784e-33	0.3645	0.94979	-0.453
Mof_C 	C 	3.26239e-33	0.32856	0.87011	-0.051
Mof_H 	H 	3.28485e-33	0.3062	0.8761	0.061
Mof_C 	C 	-8.38721e-33	0.35254	0.8941	-0.112
Mof_C 	C 	3.4854e-33	0.34307	0.92959	0.443
Mof_O 	O 	0.5	0.8645	0.94979	-0.453
Mof_C 	C 	0.5	0.82856	0.87011	-0.051
Mof_H 	H 	0.5	0.8062	0.8761	0.061
Mof_C 	C 	0.5	0.85254	0.8941	-0.112
Mof_C 	C 	0.5	0.84307	0.92959	0.443
Mof_O 	O 	0.5	0.3645	0.44979	-0.453
Mof_C 	C 	0.5	0.32856	0.37011	-0.051
Mof_H 	H 	0.5	0.3062	0.3761	0.061
Mof_C 	C 	0.5	0.35254	0.3941	-0.112
Mof_C 	C 	0.5	0.34307	0.42959	0.443
Mof_O 	O 	-3.80682e-33	0.1355	0.55021	-0.454
Mof_C 	C 	-3.50806e-33	0.17144	0.62989	-0.051
Mof_H 	H 	2.33925e-33	0.1938	0.6239	0.061
Mof_C 	C 	-3.59801e-33	0.14746	0.6059	-0.112
Mof_C 	C 	-3.73108e-33	0.15693	0.57041	0.443
Mof_O 	O 	-1.27919e-33	0.6355	0.05021	-0.454
Mof_C 	C 	4.87009e-34	0.67144	0.12989	-0.051
Mof_H 	H 	-3.93778e-33	0.6938	0.1239	0.061
Mof_C 	C 	-9.87504e-33	0.64746	0.1059	-0.112
Mof_C 	C 	-4.69726e-34	0.65693	0.07041	0.443
Mof_O 	O 	0.5	0.1355	0.05021	-0.454
Mof_C 	C 	0.5	0.17144	0.12989	-0.051
Mof_H 	H 	0.5	0.1938	0.1239	0.061
Mof_C 	C 	0.5	0.14746	0.1059	-0.112
Mof_C 	C 	0.5	0.15693	0.07041	0.443
Mof_O 	O 	0.5	0.6355	0.55021	-0.453
Mof_C 	C 	0.5	0.67144	0.62989	-0.051
Mof_H 	H 	0.5	0.6938	0.6239	0.061
Mof_C 	C 	0.5	0.64746	0.6059	-0.112
Mof_C 	C 	0.5	0.65693	0.57041	0.443
Mof_O 	O 	0.44979	-1.46744e-33	0.1355	-0.454
Mof_C 	C 	0.37011	0	0.17144	-0.051
Mof_H 	H 	0.3761	-1.46744e-33	0.1938	0.061
Mof_C 	C 	0.3941	-1.46744e-33	0.14746	-0.112
Mof_C 	C 	0.42959	0	0.15693	0.443
Mof_O 	O 	0.44979	0.5	0.6355	-0.453
Mof_C 	C 	0.37011	0.5	0.67144	-0.051
Mof_H 	H 	0.3761	0.5	0.6938	0.061
Mof_C 	C 	0.3941	0.5	0.64746	-0.112
Mof_C 	C 	0.42959	0.5	0.65693	0.443
Mof_O 	O 	0.94979	0	0.6355	-0.453
Mof_C 	C 	0.87011	0	0.67144	-0.051
Mof_H 	H 	0.8761	-1.17395e-32	0.6938	0.061
Mof_C 	C 	0.8941	-5.86977e-33	0.64746	-0.112
Mof_C 	C 	0.92959	0	0.65693	0.443
Mof_O 	O 	0.94979	0.5	0.1355	-0.453
Mof_C 	C 	0.87011	0.5	0.17144	-0.051
Mof_H 	H 	0.8761	0.5	0.1938	0.061
Mof_C 	C 	0.8941	0.5	0.14746	-0.112
Mof_C 	C 	0.92959	0.5	0.15693	0.443
Mof_O 	O 	0.55021	0	0.8645	-0.454
Mof_C 	C 	0.62989	0	0.82856	-0.051
Mof_H 	H 	0.6239	-5.86977e-33	0.8062	0.061
Mof_C 	C 	0.6059	-5.86977e-33	0.85254	-0.112
Mof_C 	C 	0.57041	0	0.84307	0.443
Mof_O 	O 	0.55021	0.5	0.3645	-0.453
Mof_C 	C 	0.62989	0.5	0.32856	-0.051
Mof_H 	H 	0.6239	0.5	0.3062	0.061
Mof_C 	C 	0.6059	0.5	0.35254	-0.112
Mof_C 	C 	0.57041	0.5	0.34307	0.443
Mof_O 	O 	0.05021	-2.93489e-33	0.3645	-0.454
Mof_C 	C 	0.12989	-2.93489e-33	0.32856	-0.051
Mof_H 	H 	0.1239	0	0.3062	0.061
Mof_C 	C 	0.1059	-2.93489e-33	0.35254	-0.112
Mof_C 	C 	0.07041	0	0.34307	0.443
Mof_O 	O 	0.05021	0.5	0.8645	-0.453
Mof_C 	C 	0.12989	0.5	0.82856	-0.051
Mof_H 	H 	0.1239	0.5	0.8062	0.061
Mof_C 	C 	0.1059	0.5	0.85254	-0.112
Mof_C 	C 	0.07041	0.5	0.84307	0.443
Mof_O 	O 	0.44979	0	0.8645	-0.454
Mof_C 	C 	0.37011	0	0.82856	-0.051
Mof_H 	H 	0.3761	-5.86977e-33	0.8062	0.061
Mof_C 	C 	0.3941	-5.86977e-33	0.85254	-0.112
Mof_C 	C 	0.42959	0	0.84307	0.443
Mof_O 	O 	0.44979	0.5	0.3645	-0.453
Mof_C 	C 	0.37011	0.5	0.32856	-0.051
Mof_H 	H 	0.3761	0.5	0.3062	0.061
Mof_C 	C 	0.3941	0.5	0.35254	-0.112
Mof_C 	C 	0.42959	0.5	0.34307	0.443
Mof_O 	O 	0.94979	-2.93489e-33	0.3645	-0.453
Mof_C 	C 	0.87011	-2.93489e-33	0.32856	-0.051
Mof_H 	H 	0.8761	0	0.3062	0.061
Mof_C 	C 	0.8941	-2.93489e-33	0.35254	-0.112
Mof_C 	C 	0.92959	0	0.34307	0.443
Mof_O 	O 	0.94979	0.5	0.8645	-0.453
Mof_C 	C 	0.87011	0.5	0.82856	-0.051
Mof_H 	H 	0.8761	0.5	0.8062	0.061
Mof_C 	C 	0.8941	0.5	0.85254	-0.112
Mof_C 	C 	0.92959	0.5	0.84307	0.443
Mof_O 	O 	0.55021	-1.46744e-33	0.1355	-0.454
Mof_C 	C 	0.62989	0	0.17144	-0.051
Mof_H 	H 	0.6239	-1.46744e-33	0.1938	0.061
Mof_C 	C 	0.6059	-1.46744e-33	0.14746	-0.112
Mof_C 	C 	0.57041	0	0.15693	0.443
Mof_O 	O 	0.55021	0.5	0.6355	-0.453
Mof_C 	C 	0.62989	0.5	0.67144	-0.051
Mof_H 	H 	0.6239	0.5	0.6938	0.061
Mof_C 	C 	0.6059	0.5	0.64746	-0.112
Mof_C 	C 	0.57041	0.5	0.65693	0.443
Mof_O 	O 	0.05021	0	0.6355	-0.454
Mof_C 	C 	0.12989	0	0.67144	-0.051
Mof_H 	H 	0.1239	-1.17395e-32	0.6938	0.061
Mof_C 	C 	0.1059	-5.86977e-33	0.64746	-0.112
Mof_C 	C 	0.07041	0	0.65693	0.443
Mof_O 	O 	0.05021	0.5	0.1355	-0.454
Mof_C 	C 	0.12989	0.5	0.17144	-0.051
Mof_H 	H 	0.1239	0.5	0.1938	0.061
Mof_C 	C 	0.1059	0.5	0.14746	-0.112
Mof_C 	C 	0.07041	0.5	0.15693	0.443
Mof_O 	O 	0.44979	0.1355	-0	-0.454
Mof_C 	C 	0.37011	0.17144	-0	-0.051
Mof_H 	H 	0.3761	0.1938	-0	0.061
Mof_C 	C 	0.3941	0.14746	-0	-0.112
Mof_C 	C 	0.42959	0.15693	-0	0.443
Mof_O 	O 	0.44979	0.6355	0.5	-0.453
Mof_C 	C 	0.37011	0.67144	0.5	-0.051
Mof_H 	H 	0.3761	0.6938	0.5	0.061
Mof_C 	C 	0.3941	0.64746	0.5	-0.112
Mof_C 	C 	0.42959	0.65693	0.5	0.443
Mof_O 	O 	0.94979	0.1355	0.5	-0.453
Mof_C 	C 	0.87011	0.17144	0.5	-0.051
Mof_H 	H 	0.8761	0.1938	0.5	0.061
Mof_C 	C 	0.8941	0.14746	0.5	-0.112
Mof_C 	C 	0.92959	0.15693	0.5	0.443
Mof_O 	O 	0.94979	0.6355	-0	-0.453
Mof_C 	C 	0.87011	0.67144	-0	-0.051
Mof_H 	H 	0.8761	0.6938	-0	0.061
Mof_C 	C 	0.8941	0.64746	-0	-0.112
Mof_C 	C 	0.92959	0.65693	-0	0.443
Mof_O 	O 	0.55021	0.8645	-0	-0.454
Mof_C 	C 	0.62989	0.82856	-0	-0.051
Mof_H 	H 	0.6239	0.8062	-0	0.061
Mof_C 	C 	0.6059	0.85254	-0	-0.112
Mof_C 	C 	0.57041	0.84307	-0	0.443
Mof_O 	O 	0.55021	0.3645	0.5	-0.453
Mof_C 	C 	0.62989	0.32856	0.5	-0.051
Mof_H 	H 	0.6239	0.3062	0.5	0.061
Mof_C 	C 	0.6059	0.35254	0.5	-0.112
Mof_C 	C 	0.57041	0.34307	0.5	0.443
Mof_O 	O 	0.05021	0.8645	0.5	-0.453
Mof_C 	C 	0.12989	0.82856	0.5	-0.051
Mof_H 	H 	0.1239	0.8062	0.5	0.061
Mof_C 	C 	0.1059	0.85254	0.5	-0.112
Mof_C 	C 	0.07041	0.84307	0.5	0.443
Mof_O 	O 	0.05021	0.3645	-0	-0.454
Mof_C 	C 	0.12989	0.32856	-0	-0.051
Mof_H 	H 	0.1239	0.3062	-0	0.061
Mof_C 	C 	0.1059	0.35254	-0	-0.112
Mof_C 	C 	0.07041	0.34307	-0	0.443
Mof_O 	O 	0.44979	0.8645	-0	-0.454
Mof_C 	C 	0.37011	0.82856	-0	-0.051
Mof_H 	H 	0.3761	0.8062	-0	0.061
Mof_C 	C 	0.3941	0.85254	-0	-0.112
Mof_C 	C 	0.42959	0.84307	-0	0.443
Mof_O 	O 	0.44979	0.3645	0.5	-0.453
Mof_C 	C 	0.37011	0.32856	0.5	-0.051
Mof_H 	H 	0.3761	0.3062	0.5	0.061
Mof_C 	C 	0.3941	0.35254	0.5	-0.112
Mof_C 	C 	0.42959	0.34307	0.5	0.443
Mof_O 	O 	0.94979	0.8645	0.5	-0.453
Mof_C 	C 	0.87011	0.82856	0.5	-0.051
Mof_H 	H 	0.8761	0.8062	0.5	0.061
Mof_C 	C 	0.8941	0.85254	0.5	-0.112
Mof_C 	C 	0.92959	0.84307	0.5	0.443
Mof_O 	O 	0.94979	0.3645	-0	-0.453
Mof_C 	C 	0.87011	0.32856	-0	-0.051
Mof_H 	H 	0.8761	0.3062	-0	0.061
Mof_C 	C 	0.8941	0.35254	-0	-0.112
Mof_C 	C 	0.92959	0.34307	-0	0.443
Mof_O 	O 	0.55021	0.1355	-0	-0.454
Mof_C 	C 	0.62989	0.17144	-0	-0.051
Mof_H 	H 	0.6239	0.1938	-0	0.061
Mof_C 	C 	0.6059	0.14746	-0	-0.112
Mof_C 	C 	0.57041	0.15693	-0	0.443
Mof_O 	O 	0.55021	0.6355	0.5	-0.453
Mof_C 	C 	0.62989	0.67144	0.5	-0.051
Mof_H 	H 	0.6239	0.6938	0.5	0.061
Mof_C 	C 	0.6059	0.64746	0.5	-0.112
Mof_C 	C 	0.57041	0.65693	0.5	0.443
Mof_O 	O 	0.05021	0.1355	0.5	-0.454
Mof_C 	C 	0.12989	0.17144	0.5	-0.051
Mof_H 	H 	0.1239	0.1938	0.5	0.061
Mof_C 	C 	0.1059	0.14746	0.5	-0.112
Mof_C 	C 	0.07041	0.15693	0.5	0.443
Mof_O 	O 	0.05021	0.6355	-0	-0.454
Mof_C 	C 	0.12989	0.67144	-0	-0.051
Mof_H 	H 	0.1239	0.6938	-0	0.061
Mof_C 	C 	0.1059	0.64746	-0	-0.112
Mof_C 	C 	0.07041	0.65693	-0	0.443
Mof_O 	O 	0.1355	-5.86977e-33	0.55021	-0.454
Mof_C 	C 	0.17144	0	0.62989	-0.051
Mof_H 	H 	0.1938	0	0.6239	0.061
Mof_C 	C 	0.14746	0	0.6059	-0.112
Mof_C 	C 	0.15693	-5.86977e-33	0.57041	0.443
Mof_O 	O 	0.1355	0.5	0.05021	-0.454
Mof_C 	C 	0.17144	0.5	0.12989	-0.051
Mof_H 	H 	0.1938	0.5	0.1239	0.061
Mof_C 	C 	0.14746	0.5	0.1059	-0.112
Mof_C 	C 	0.15693	0.5	0.07041	0.443
Mof_O 	O 	0.6355	0	0.05021	-0.454
Mof_C 	C 	0.67144	0	0.12989	-0.051
Mof_H 	H 	0.6938	-1.46744e-33	0.1239	0.061
Mof_C 	C 	0.64746	0	0.1059	-0.112
Mof_C 	C 	0.65693	-7.33722e-34	0.07041	0.443
Mof_O 	O 	0.6355	0.5	0.55021	-0.453
Mof_C 	C 	0.67144	0.5	0.62989	-0.051
Mof_H 	H 	0.6938	0.5	0.6239	0.061
Mof_C 	C 	0.64746	0.5	0.6059	-0.112
Mof_C 	C 	0.65693	0.5	0.57041	0.443
Mof_O 	O 	0.8645	-5.86977e-33	0.44979	-0.454
Mof_C 	C 	0.82856	-2.93489e-33	0.37011	-0.051
Mof_H 	H 	0.8062	-2.93489e-33	0.3761	0.061
Mof_C 	C 	0.85254	-5.86977e-33	0.3941	-0.112
Mof_C 	C 	0.84307	-2.93489e-33	0.42959	0.443
Mof_O 	O 	0.8645	0.5	0.94979	-0.453
Mof_C 	C 	0.82856	0.5	0.87011	-0.051
Mof_H 	H 	0.8062	0.5	0.8761	0.061
Mof_C 	C 	0.85254	0.5	0.8941	-0.112
Mof_C 	C 	0.84307	0.5	0.92959	0.443
Mof_O 	O 	0.3645	0	0.94979	-0.453
Mof_C 	C 	0.32856	0	0.87011	-0.051
Mof_H 	H 	0.3062	0	0.8761	0.061
Mof_C 	C 	0.35254	0	0.8941	-0.112
Mof_C 	C 	0.34307	0	0.92959	0.443
Mof_O 	O 	0.3645	0.5	0.44979	-0.453
Mof_C 	C 	0.32856	0.5	0.37011	-0.051
Mof_H 	H 	0.3062	0.5	0.3761	0.061
Mof_C 	C 	0.35254	0.5	0.3941	-0.112
Mof_C 	C 	0.34307	0.5	0.42959	0.443
Mof_O 	O 	0.8645	-5.86977e-33	0.55021	-0.454
Mof_C 	C 	0.82856	0	0.62989	-0.051
Mof_H 	H 	0.8062	0	0.6239	0.061
Mof_C 	C 	0.85254	0	0.6059	-0.112
Mof_C 	C 	0.84307	-5.86977e-33	0.57041	0.443
Mof_O 	O 	0.8645	0.5	0.05021	-0.453
Mof_C 	C 	0.82856	0.5	0.12989	-0.051
Mof_H 	H 	0.8062	0.5	0.1239	0.061
Mof_C 	C 	0.85254	0.5	0.1059	-0.112
Mof_C 	C 	0.84307	0.5	0.07041	0.443
Mof_O 	O 	0.3645	0	0.05021	-0.454
Mof_C 	C 	0.32856	0	0.12989	-0.051
Mof_H 	H 	0.3062	-1.46744e-33	0.1239	0.061
Mof_C 	C 	0.35254	0	0.1059	-0.112
Mof_C 	C 	0.34307	-7.33722e-34	0.07041	0.443
Mof_O 	O 	0.3645	0.5	0.55021	-0.453
Mof_C 	C 	0.32856	0.5	0.62989	-0.051
Mof_H 	H 	0.3062	0.5	0.6239	0.061
Mof_C 	C 	0.35254	0.5	0.6059	-0.112
Mof_C 	C 	0.34307	0.5	0.57041	0.443
Mof_O 	O 	0.1355	-5.86977e-33	0.44979	-0.454
Mof_C 	C 	0.17144	-2.93489e-33	0.37011	-0.051
Mof_H 	H 	0.1938	-2.93489e-33	0.3761	0.061
Mof_C 	C 	0.14746	-5.86977e-33	0.3941	-0.112
Mof_C 	C 	0.15693	-2.93489e-33	0.42959	0.443
Mof_O 	O 	0.1355	0.5	0.94979	-0.453
Mof_C 	C 	0.17144	0.5	0.87011	-0.051
Mof_H 	H 	0.1938	0.5	0.8761	0.061
Mof_C 	C 	0.14746	0.5	0.8941	-0.112
Mof_C 	C 	0.15693	0.5	0.92959	0.443
Mof_O 	O 	0.6355	0	0.94979	-0.453
Mof_C 	C 	0.67144	0	0.87011	-0.051
Mof_H 	H 	0.6938	0	0.8761	0.061
Mof_C 	C 	0.64746	0	0.8941	-0.112
Mof_C 	C 	0.65693	0	0.92959	0.443
Mof_O 	O 	0.6355	0.5	0.44979	-0.453
Mof_C 	C 	0.67144	0.5	0.37011	-0.051
Mof_H 	H 	0.6938	0.5	0.3761	0.061
Mof_C 	C 	0.64746	0.5	0.3941	-0.112
Mof_C 	C 	0.65693	0.5	0.42959	0.443
Mof_O 	O 	3.24136e-33	0.44979	0.8645	-0.454
Mof_C 	C 	-2.76317e-33	0.37011	0.82856	-0.051
Mof_H 	H 	-8.71678e-33	0.3761	0.8062	0.061
Mof_C 	C 	-1.44128e-32	0.3941	0.85254	-0.112
Mof_C 	C 	3.16101e-33	0.42959	0.84307	0.443
Mof_O 	O 	-4.50312e-33	0.94979	0.3645	-0.453
Mof_C 	C 	1.2319e-33	0.87011	0.32856	-0.051
Mof_H 	H 	7.01784e-33	0.8761	0.3062	0.061
Mof_C 	C 	-1.61307e-33	0.8941	0.35254	-0.112
Mof_C 	C 	1.28631e-33	0.92959	0.34307	0.443
Mof_O 	O 	0.5	0.44979	0.3645	-0.453
Mof_C 	C 	0.5	0.37011	0.32856	-0.051
Mof_H 	H 	0.5	0.3761	0.3062	0.061
Mof_C 	C 	0.5	0.3941	0.35254	-0.112
Mof_C 	C 	0.5	0.42959	0.34307	0.443
Mof_O 	O 	0.5	0.94979	0.8645	-0.453
Mof_C 	C 	0.5	0.87011	0.82856	-0.051
Mof_H 	H 	0.5	0.8761	0.8062	0.061
Mof_C 	C 	0.5	0.8941	0.85254	-0.112
Mof_C 	C 	0.5	0.92959	0.84307	0.443
Mof_O 	O 	-3.89429e-33	0.55021	0.1355	-0.454
Mof_C 	C 	-8.24646e-34	0.62989	0.17144	-0.051
Mof_H 	H 	7.26634e-34	0.6239	0.1938	0.061
Mof_C 	C 	-3.84944e-33	0.6059	0.14746	-0.112
Mof_C 	C 	-2.34649e-33	0.57041	0.15693	0.443
Mof_O 	O 	-3.48703e-33	0.05021	0.6355	-0.454
Mof_C 	C 	2.5175e-33	0.12989	0.67144	-0.051
Mof_H 	H 	-3.26844e-33	0.1239	0.6938	0.061
Mof_C 	C 	-9.31196e-33	0.1059	0.64746	-0.112
Mof_C 	C 	-3.40668e-33	0.07041	0.65693	0.443
Mof_O 	O 	0.5	0.55021	0.6355	-0.453
Mof_C 	C 	0.5	0.62989	0.67144	-0.051
Mof_H 	H 	0.5	0.6239	0.6938	0.061
Mof_C 	C 	0.5	0.6059	0.64746	-0.112
Mof_C 	C 	0.5	0.57041	0.65693	0.443
Mof_O 	O 	0.5	0.05021	0.1355	-0.454
Mof_C 	C 	0.5	0.12989	0.17144	-0.051
Mof_H 	H 	0.5	0.1239	0.1938	0.061
Mof_C 	C 	0.5	0.1059	0.14746	-0.112
Mof_C 	C 	0.5	0.07041	0.15693	0.443
Mof_O 	O 	-3.89429e-33	0.44979	0.1355	-0.454
Mof_C 	C 	-8.24646e-34	0.37011	0.17144	-0.051
Mof_H 	H 	-5.14314e-33	0.3761	0.1938	0.061
Mof_C 	C 	-6.78433e-33	0.3941	0.14746	-0.112
Mof_C 	C 	-2.34649e-33	0.42959	0.15693	0.443
Mof_O 	O 	2.38274e-33	0.94979	0.6355	-0.453
Mof_C 	C 	2.5175e-33	0.87011	0.67144	-0.051
Mof_H 	H 	-3.26844e-33	0.8761	0.6938	0.061
Mof_C 	C 	2.42759e-33	0.8941	0.64746	-0.112
Mof_C 	C 	2.46309e-33	0.92959	0.65693	0.443
Mof_O 	O 	0.5	0.44979	0.6355	-0.453
Mof_C 	C 	0.5	0.37011	0.67144	-0.051
Mof_H 	H 	0.5	0.3761	0.6938	0.061
Mof_C 	C 	0.5	0.3941	0.64746	-0.112
Mof_C 	C 	0.5	0.42959	0.65693	0.443
Mof_O 	O 	0.5	0.94979	0.1355	-0.453
Mof_C 	C 	0.5	0.87011	0.17144	-0.051
Mof_H 	H 	0.5	0.8761	0.1938	0.061
Mof_C 	C 	0.5	0.8941	0.14746	-0.112
Mof_C 	C 	0.5	0.92959	0.15693	0.443
Mof_O 	O 	-8.49819e-33	0.55021	0.8645	-0.454
Mof_C 	C 	-8.63294e-33	0.62989	0.82856	-0.051
Mof_H 	H 	-2.84701e-33	0.6239	0.8062	0.061
Mof_C 	C 	-1.44128e-32	0.6059	0.85254	-0.112
Mof_C 	C 	-8.57854e-33	0.57041	0.84307	0.443
Mof_O 	O 	-4.50312e-33	0.05021	0.3645	-0.454
Mof_C 	C 	1.2319e-33	0.12989	0.32856	-0.051
Mof_H 	H 	1.14807e-33	0.1239	0.3062	0.061
Mof_C 	C 	-1.61307e-33	0.1059	0.35254	-0.112
Mof_C 	C 	-1.64858e-33	0.07041	0.34307	0.443
Mof_O 	O 	0.5	0.55021	0.3645	-0.453
Mof_C 	C 	0.5	0.62989	0.32856	-0.051
Mof_H 	H 	0.5	0.6239	0.3062	0.061
Mof_C 	C 	0.5	0.6059	0.35254	-0.112
Mof_C 	C 	0.5	0.57041	0.34307	0.443
Mof_O 	O 	0.5	0.05021	0.8645	-0.453
Mof_C 	C 	0.5	0.12989	0.82856	-0.051
Mof_H 	H 	0.5	0.1239	0.8062	0.061
Mof_C 	C 	0.5	0.1059	0.85254	-0.112
Mof_C 	C 	0.5	0.07041	0.84307	0.443
Mof_C 	C 	0.16267	0.33733	-0	0.056
Mof_C 	C 	0.11468	0.38532	-0	0.041
Mof_H 	H 	0.0983	0.4017	-0	0.039
Mof_C 	C 	0.18881	0.31119	-0	-0.198
Mof_C 	C 	0.23679	0.26321	-0	0.105
Mof_C 	C 	0.16267	0.83733	0.5	0.056
Mof_C 	C 	0.11468	0.88532	0.5	0.042
Mof_H 	H 	0.0983	0.9017	0.5	0.039
Mof_C 	C 	0.18881	0.81119	0.5	-0.198
Mof_C 	C 	0.23679	0.76321	0.5	0.105
Mof_C 	C 	0.83733	0.66267	-0	0.056
Mof_C 	C 	0.88532	0.61468	-0	0.041
Mof_H 	H 	0.9017	0.5983	-0	0.039
Mof_C 	C 	0.81119	0.68881	-0	-0.198
Mof_C 	C 	0.76321	0.73679	-0	0.105
Mof_C 	C 	0.83733	0.16267	0.5	0.056
Mof_C 	C 	0.88532	0.11468	0.5	0.042
Mof_H 	H 	0.9017	0.0983	0.5	0.039
Mof_C 	C 	0.81119	0.18881	0.5	-0.198
Mof_C 	C 	0.76321	0.23679	0.5	0.105
Mof_C 	C 	0.33733	0.16267	-0	0.056
Mof_C 	C 	0.38532	0.11468	-0	0.041
Mof_H 	H 	0.4017	0.0983	-0	0.039
Mof_C 	C 	0.31119	0.18881	-0	-0.198
Mof_C 	C 	0.26321	0.23679	-0	0.105
Mof_C 	C 	0.83733	0.33733	-0	0.056
Mof_C 	C 	0.88532	0.38532	-0	0.041
Mof_H 	H 	0.9017	0.4017	-0	0.039
Mof_C 	C 	0.81119	0.31119	-0	-0.198
Mof_C 	C 	0.76321	0.26321	-0	0.105
Mof_C 	C 	0.83733	0.83733	0.5	0.056
Mof_C 	C 	0.88532	0.88532	0.5	0.042
Mof_H 	H 	0.9017	0.9017	0.5	0.039
Mof_C 	C 	0.81119	0.81119	0.5	-0.198
Mof_C 	C 	0.76321	0.76321	0.5	0.105
Mof_C 	C 	0.33733	0.33733	0.5	0.056
Mof_C 	C 	0.38532	0.38532	0.5	0.042
Mof_H 	H 	0.4017	0.4017	0.5	0.039
Mof_C 	C 	0.31119	0.31119	0.5	-0.198
Mof_C 	C 	0.26321	0.26321	0.5	0.105
Mof_C 	C 	0.16267	0.66267	-0	0.056
Mof_C 	C 	0.11468	0.61468	-0	0.041
Mof_H 	H 	0.0983	0.5983	-0	0.039
Mof_C 	C 	0.18881	0.68881	-0	-0.198
Mof_C 	C 	0.23679	0.73679	-0	0.105
Mof_C 	C 	0.16267	0.16267	0.5	0.056
Mof_C 	C 	0.11468	0.11468	0.5	0.042
Mof_H 	H 	0.0983	0.0983	0.5	0.039
Mof_C 	C 	0.18881	0.18881	0.5	-0.198
Mof_C 	C 	0.23679	0.23679	0.5	0.105
Mof_C 	C 	-4.60499e-33	0.16267	0.33733	0.056
Mof_C 	C 	-4.42505e-33	0.11468	0.38532	0.041
Mof_H 	H 	-7.29853e-33	0.0983	0.4017	0.039
Mof_C 	C 	-7.63788e-33	0.18881	0.31119	-0.198
Mof_C 	C 	-4.88289e-33	0.23679	0.26321	0.105
Mof_C 	C 	0.5	0.16267	0.83733	0.056
Mof_C 	C 	0.5	0.11468	0.88532	0.042
Mof_H 	H 	0.5	0.0983	0.9017	0.039
Mof_C 	C 	0.5	0.18881	0.81119	-0.198
Mof_C 	C 	0.5	0.23679	0.76321	0.105
Mof_C 	C 	-2.09945e-32	0.83733	0.66267	0.056
Mof_C 	C 	-1.53046e-32	0.88532	0.61468	0.041
Mof_H 	H 	1.39828e-32	0.9017	0.5983	0.039
Mof_C 	C 	-9.15692e-33	0.81119	0.68881	-0.198
Mof_C 	C 	-2.07166e-32	0.76321	0.73679	0.105
Mof_C 	C 	-5.25986e-33	0.33733	0.16267	0.056
Mof_C 	C 	-5.43979e-33	0.38532	0.11468	0.041
Mof_H 	H 	-6.23493e-33	0.4017	0.0983	0.039
Mof_C 	C 	-6.62929e-33	0.31119	0.18881	-0.198
Mof_C 	C 	-4.98195e-33	0.26321	0.23679	0.105
Mof_C 	C 	0.5	0.83733	0.16267	0.056
Mof_C 	C 	0.5	0.88532	0.11468	0.042
Mof_H 	H 	0.5	0.9017	0.0983	0.039
Mof_C 	C 	0.5	0.81119	0.18881	-0.198
Mof_C 	C 	0.5	0.76321	0.23679	0.105
Mof_C 	C 	-1.04748e-32	0.83733	0.33733	0.056
Mof_C 	C 	-1.02948e-32	0.88532	0.38532	0.041
Mof_H 	H 	-1.42875e-33	0.9017	0.4017	0.039
Mof_C 	C 	1.16678e-33	0.81119	0.31119	-0.198
Mof_C 	C 	-1.36876e-32	0.76321	0.26321	0.105
Mof_C 	C 	0.5	0.83733	0.83733	0.056
Mof_C 	C 	0.5	0.88532	0.88532	0.042
Mof_H 	H 	0.5	0.9017	0.9017	0.039
Mof_C 	C 	0.5	0.81119	0.81119	-0.198
Mof_C 	C 	0.5	0.76321	0.76321	0.105
Mof_C 	C 	0.5	0.33733	0.33733	0.056
Mof_C 	C 	0.5	0.38532	0.38532	0.042
Mof_H 	H 	0.5	0.4017	0.4017	0.039
Mof_C 	C 	0.5	0.31119	0.31119	-0.198
Mof_C 	C 	0.5	0.26321	0.26321	0.105
Mof_C 	C 	-3.38516e-33	0.16267	0.66267	0.056
Mof_C 	C 	-3.56509e-33	0.11468	0.61468	0.041
Mof_H 	H 	-3.62651e-33	0.0983	0.5983	0.039
Mof_C 	C 	-9.15692e-33	0.18881	0.68881	-0.198
Mof_C 	C 	2.76252e-33	0.23679	0.73679	0.105
Mof_C 	C 	0.5	0.16267	0.16267	0.056
Mof_C 	C 	0.5	0.11468	0.11468	0.042
Mof_H 	H 	0.5	0.0983	0.0983	0.039
Mof_C 	C 	0.5	0.18881	0.18881	-0.198
Mof_C 	C 	0.5	0.23679	0.23679	0.105
Mof_C 	C 	0.33733	-1.46744e-33	0.16267	0.056
Mof_C 	C 	0.38532	-1.46744e-33	0.11468	0.041
Mof_H 	H 	0.4017	-7.33722e-34	0.0983	0.039
Mof_C 	C 	0.31119	-1.46744e-33	0.18881	-0.198
Mof_C 	C 	0.26321	0	0.23679	0.105
Mof_C 	C 	0.33733	0.5	0.66267	0.056
Mof_C 	C 	0.38532	0.5	0.61468	0.042
Mof_H 	H 	0.4017	0.5	0.5983	0.039
Mof_C 	C 	0.31119	0.5	0.68881	-0.198
Mof_C 	C 	0.26321	0.5	0.73679	0.105
Mof_C 	C 	0.66267	-1.17395e-32	0.83733	0.056
Mof_C 	C 	0.61468	-1.17395e-32	0.88532	0.041
Mof_H 	H 	0.5983	0	0.9017	0.039
Mof_C 	C 	0.68881	0	0.81119	-0.198
Mof_C 	C 	0.73679	-5.86977e-33	0.76321	0.105
Mof_C 	C 	0.66267	0.5	0.33733	0.056
Mof_C 	C 	0.61468	0.5	0.38532	0.042
Mof_H 	H 	0.5983	0.5	0.4017	0.039
Mof_C 	C 	0.68881	0.5	0.31119	-0.198
Mof_C 	C 	0.73679	0.5	0.26321	0.105
Mof_C 	C 	0.16267	0	0.33733	0.056
Mof_C 	C 	0.11468	0	0.38532	0.041
Mof_H 	H 	0.0983	-2.93489e-33	0.4017	0.039
Mof_C 	C 	0.18881	-2.93489e-33	0.31119	-0.198
Mof_C 	C 	0.23679	-2.93489e-33	0.26321	0.105
Mof_C 	C 	0.33733	-1.17395e-32	0.83733	0.056
Mof_C 	C 	0.38532	-1.17395e-32	0.88532	0.041
Mof_H 	H 	0.4017	0	0.9017	0.039
Mof_C 	C 	0.31119	0	0.81119	-0.198
Mof_C 	C 	0.26321	-5.86977e-33	0.76321	0.105
Mof_C 	C 	0.33733	0.5	0.33733	0.056
Mof_C 	C 	0.38532	0.5	0.38532	0.042
Mof_H 	H 	0.4017	0.5	0.4017	0.039
Mof_C 	C 	0.31119	0.5	0.31119	-0.198
Mof_C 	C 	0.26321	0.5	0.26321	0.105
Mof_C 	C 	0.66267	-1.46744e-33	0.16267	0.056
Mof_C 	C 	0.61468	-1.46744e-33	0.11468	0.041
Mof_H 	H 	0.5983	-7.33722e-34	0.0983	0.039
Mof_C 	C 	0.68881	-1.46744e-33	0.18881	-0.198
Mof_C 	C 	0.73679	0	0.23679	0.105
Mof_C 	C 	0.66267	0.5	0.66267	0.056
Mof_C 	C 	0.61468	0.5	0.61468	0.042
Mof_H 	H 	0.5983	0.5	0.5983	0.039
Mof_C 	C 	0.68881	0.5	0.68881	-0.198
Mof_C 	C 	0.73679	0.5	0.73679	0.105
Mof_C 	C 	0.16267	0.5	0.16267	0.056
Mof_C 	C 	0.11468	0.5	0.11468	0.042
Mof_H 	H 	0.0983	0.5	0.0983	0.039
Mof_C 	C 	0.18881	0.5	0.18881	-0.198
Mof_C 	C 	0.23679	0.5	0.23679	0.105
Mof_C 	C 	0.33733	0.66267	0.5	0.056
Mof_C 	C 	0.38532	0.61468	0.5	0.042
Mof_H 	H 	0.4017	0.5983	0.5	0.039
Mof_C 	C 	0.31119	0.68881	0.5	-0.198
Mof_C 	C 	0.26321	0.73679	0.5	0.105
Mof_C 	C 	0.66267	0.83733	-0	0.056
Mof_C 	C 	0.61468	0.88532	-0	0.041
Mof_H 	H 	0.5983	0.9017	-0	0.039
Mof_C 	C 	0.68881	0.81119	-0	-0.198
Mof_C 	C 	0.73679	0.76321	-0	0.105
Mof_C 	C 	0.66267	0.33733	0.5	0.056
Mof_C 	C 	0.61468	0.38532	0.5	0.042
Mof_H 	H 	0.5983	0.4017	0.5	0.039
Mof_C 	C 	0.68881	0.31119	0.5	-0.198
Mof_C 	C 	0.73679	0.26321	0.5	0.105
Mof_C 	C 	0.33733	0.83733	-0	0.056
Mof_C 	C 	0.38532	0.88532	-0	0.041
Mof_H 	H 	0.4017	0.9017	-0	0.039
Mof_C 	C 	0.31119	0.81119	-0	-0.198
Mof_C 	C 	0.26321	0.76321	-0	0.105
Mof_C 	C 	0.66267	0.16267	-0	0.056
Mof_C 	C 	0.61468	0.11468	-0	0.041
Mof_H 	H 	0.5983	0.0983	-0	0.039
Mof_C 	C 	0.68881	0.18881	-0	-0.198
Mof_C 	C 	0.73679	0.23679	-0	0.105
Mof_C 	C 	0.66267	0.66267	0.5	0.056
Mof_C 	C 	0.61468	0.61468	0.5	0.042
Mof_H 	H 	0.5983	0.5983	0.5	0.039
Mof_C 	C 	0.68881	0.68881	0.5	-0.198
Mof_C 	C 	0.73679	0.73679	0.5	0.105
Mof_C 	C 	0.16267	-5.86977e-33	0.66267	0.056
Mof_C 	C 	0.11468	0	0.61468	0.041
Mof_H 	H 	0.0983	0	0.5983	0.039
Mof_C 	C 	0.18881	0	0.68881	-0.198
Mof_C 	C 	0.23679	-5.86977e-33	0.73679	0.105
Mof_C 	C 	0.83733	0	0.33733	0.056
Mof_C 	C 	0.88532	0	0.38532	0.041
Mof_H 	H 	0.9017	-2.93489e-33	0.4017	0.039
Mof_C 	C 	0.81119	-2.93489e-33	0.31119	-0.198
Mof_C 	C 	0.76321	-2.93489e-33	0.26321	0.105
Mof_C 	C 	0.83733	0.5	0.83733	0.056
Mof_C 	C 	0.88532	0.5	0.88532	0.042
Mof_H 	H 	0.9017	0.5	0.9017	0.039
Mof_C 	C 	0.81119	0.5	0.81119	-0.198
Mof_C 	C 	0.76321	0.5	0.76321	0.105
Mof_C 	C 	0.83733	-5.86977e-33	0.66267	0.056
Mof_C 	C 	0.88532	0	0.61468	0.041
Mof_H 	H 	0.9017	0	0.5983	0.039
Mof_C 	C 	0.81119	0	0.68881	-0.198
Mof_C 	C 	0.76321	-5.86977e-33	0.73679	0.105
Mof_C 	C 	0.83733	0.5	0.16267	0.056
Mof_C 	C 	0.88532	0.5	0.11468	0.042
Mof_H 	H 	0.9017	0.5	0.0983	0.039
Mof_C 	C 	0.81119	0.5	0.18881	-0.198
Mof_C 	C 	0.76321	0.5	0.23679	0.105
Mof_C 	C 	0.16267	0.5	0.83733	0.056
Mof_C 	C 	0.11468	0.5	0.88532	0.042
Mof_H 	H 	0.0983	0.5	0.9017	0.039
Mof_C 	C 	0.18881	0.5	0.81119	-0.198
Mof_C 	C 	0.23679	0.5	0.76321	0.105
Mof_C 	C 	-1.44698e-32	0.33733	0.83733	0.056
Mof_C 	C 	-8.42013e-33	0.38532	0.88532	0.041
Mof_H 	H 	-8.35871e-33	0.4017	0.9017	0.039
Mof_C 	C 	3.04148e-33	0.31119	0.81119	-0.198
Mof_C 	C 	-1.47477e-32	0.26321	0.76321	0.105
Mof_C 	C 	-5.25986e-33	0.66267	0.16267	0.056
Mof_C 	C 	4.29981e-34	0.61468	0.11468	0.041
Mof_H 	H 	-3.30004e-33	0.5983	0.0983	0.039
Mof_C 	C 	-6.62929e-33	0.68881	0.18881	-0.198
Mof_C 	C 	3.82271e-33	0.73679	0.23679	0.105
Mof_C 	C 	0.5	0.66267	0.66267	0.056
Mof_C 	C 	0.5	0.61468	0.61468	0.042
Mof_H 	H 	0.5	0.5983	0.5983	0.039
Mof_C 	C 	0.5	0.68881	0.68881	-0.198
Mof_C 	C 	0.5	0.73679	0.73679	0.105
Mof_C 	C 	0.5	0.33733	0.66267	0.056
Mof_C 	C 	0.5	0.38532	0.61468	0.042
Mof_H 	H 	0.5	0.4017	0.5983	0.039
Mof_C 	C 	0.5	0.31119	0.68881	-0.198
Mof_C 	C 	0.5	0.26321	0.73679	0.105
Mof_C 	C 	-2.62094e-32	0.66267	0.83733	0.056
Mof_C 	C 	-2.01597e-32	0.61468	0.88532	0.041
Mof_H 	H 	1.51204e-32	0.5983	0.9017	0.039
Mof_C 	C 	-1.45678e-32	0.68881	0.81119	-0.198
Mof_C 	C 	-1.47477e-32	0.73679	0.76321	0.105
Mof_C 	C 	0.5	0.66267	0.33733	0.056
Mof_C 	C 	0.5	0.61468	0.38532	0.042
Mof_H 	H 	0.5	0.5983	0.4017	0.039
Mof_C 	C 	0.5	0.68881	0.31119	-0.198
Mof_C 	C 	0.5	0.73679	0.26321	0.105
Mof_C 	C 	0.20081	0.29919	0.02938	0.245
Mof_C 	C 	0.2248	0.2752	0.02938	-0.237
Mof_H 	H 	0.233	0.267	0.0495	0.101
Mof_C 	C 	0.18689	0.31311	0.0618	-0.587
Mof_H 	H 	0.17035	0.32965	0.0569	0.199
Mof_C 	C 	0.20081	0.79919	0.52938	0.245
Mof_C 	C 	0.2248	0.7752	0.52938	-0.237
Mof_H 	H 	0.233	0.767	0.5495	0.101
Mof_C 	C 	0.18689	0.81311	0.5618	-0.587
Mof_H 	H 	0.17035	0.82965	0.5569	0.199
Mof_C 	C 	0.79919	0.70081	0.02938	0.245
Mof_C 	C 	0.7752	0.7248	0.02938	-0.237
Mof_H 	H 	0.767	0.733	0.0495	0.101
Mof_C 	C 	0.81311	0.68689	0.0618	-0.587
Mof_H 	H 	0.82965	0.67035	0.0569	0.199
Mof_C 	C 	0.79919	0.20081	0.52938	0.245
Mof_C 	C 	0.7752	0.2248	0.52938	-0.237
Mof_H 	H 	0.767	0.233	0.5495	0.101
Mof_C 	C 	0.81311	0.18689	0.5618	-0.587
Mof_H 	H 	0.82965	0.17035	0.5569	0.199
Mof_C 	C 	0.29919	0.20081	0.02938	0.245
Mof_C 	C 	0.2752	0.2248	0.02938	-0.237
Mof_H 	H 	0.267	0.233	0.0495	0.101
Mof_C 	C 	0.31311	0.18689	0.0618	-0.587
Mof_H 	H 	0.32965	0.17035	0.0569	0.199
Mof_C 	C 	0.79919	0.29919	0.97062	0.245
Mof_C 	C 	0.7752	0.2752	0.97062	-0.237
Mof_H 	H 	0.767	0.267	0.9505	0.101
Mof_C 	C 	0.81311	0.31311	0.9382	-0.587
Mof_H 	H 	0.82965	0.32965	0.9431	0.199
Mof_C 	C 	0.79919	0.79919	0.47062	0.245
Mof_C 	C 	0.7752	0.7752	0.47062	-0.237
Mof_H 	H 	0.767	0.767	0.4505	0.101
Mof_C 	C 	0.81311	0.81311	0.4382	-0.587
Mof_H 	H 	0.82965	0.82965	0.4431	0.199
Mof_C 	C 	0.29919	0.29919	0.47062	0.245
Mof_C 	C 	0.2752	0.2752	0.47062	-0.237
Mof_H 	H 	0.267	0.267	0.4505	0.101
Mof_C 	C 	0.31311	0.31311	0.4382	-0.587
Mof_H 	H 	0.32965	0.32965	0.4431	0.199
Mof_C 	C 	0.20081	0.70081	0.97062	0.245
Mof_C 	C 	0.2248	0.7248	0.97062	-0.237
Mof_H 	H 	0.233	0.733	0.9505	0.101
Mof_C 	C 	0.18689	0.68689	0.9382	-0.587
Mof_H 	H 	0.17035	0.67035	0.9431	0.199
Mof_C 	C 	0.20081	0.20081	0.47062	0.245
Mof_C 	C 	0.2248	0.2248	0.47062	-0.237
Mof_H 	H 	0.233	0.233	0.4505	0.101
Mof_C 	C 	0.18689	0.18689	0.4382	-0.587
Mof_H 	H 	0.17035	0.17035	0.4431	0.199
Mof_C 	C 	0.02938	0.20081	0.29919	0.245
Mof_C 	C 	0.02938	0.2248	0.2752	-0.237
Mof_H 	H 	0.0495	0.233	0.267	0.101
Mof_C 	C 	0.0618	0.18689	0.31311	-0.587
Mof_H 	H 	0.0569	0.17035	0.32965	0.199
Mof_C 	C 	0.52938	0.20081	0.79919	0.245
Mof_C 	C 	0.52938	0.2248	0.7752	-0.237
Mof_H 	H 	0.5495	0.233	0.767	0.101
Mof_C 	C 	0.5618	0.18689	0.81311	-0.587
Mof_H 	H 	0.5569	0.17035	0.82965	0.199
Mof_C 	C 	0.02938	0.79919	0.70081	0.245
Mof_C 	C 	0.02938	0.7752	0.7248	-0.237
Mof_H 	H 	0.0495	0.767	0.733	0.101
Mof_C 	C 	0.0618	0.81311	0.68689	-0.587
Mof_H 	H 	0.0569	0.82965	0.67035	0.199
Mof_C 	C 	0.02938	0.29919	0.20081	0.245
Mof_C 	C 	0.02938	0.2752	0.2248	-0.237
Mof_H 	H 	0.0495	0.267	0.233	0.101
Mof_C 	C 	0.0618	0.31311	0.18689	-0.587
Mof_H 	H 	0.0569	0.32965	0.17035	0.199
Mof_C 	C 	0.52938	0.79919	0.20081	0.245
Mof_C 	C 	0.52938	0.7752	0.2248	-0.237
Mof_H 	H 	0.5495	0.767	0.233	0.101
Mof_C 	C 	0.5618	0.81311	0.18689	-0.587
Mof_H 	H 	0.5569	0.82965	0.17035	0.199
Mof_C 	C 	0.97062	0.79919	0.29919	0.245
Mof_C 	C 	0.97062	0.7752	0.2752	-0.237
Mof_H 	H 	0.9505	0.767	0.267	0.101
Mof_C 	C 	0.9382	0.81311	0.31311	-0.587
Mof_H 	H 	0.9431	0.82965	0.32965	0.199
Mof_C 	C 	0.47062	0.79919	0.79919	0.245
Mof_C 	C 	0.47062	0.7752	0.7752	-0.237
Mof_H 	H 	0.4505	0.767	0.767	0.101
Mof_C 	C 	0.4382	0.81311	0.81311	-0.587
Mof_H 	H 	0.4431	0.82965	0.82965	0.199
Mof_C 	C 	0.47062	0.29919	0.29919	0.245
Mof_C 	C 	0.47062	0.2752	0.2752	-0.237
Mof_H 	H 	0.4505	0.267	0.267	0.101
Mof_C 	C 	0.4382	0.31311	0.31311	-0.587
Mof_H 	H 	0.4431	0.32965	0.32965	0.199
Mof_C 	C 	0.97062	0.20081	0.70081	0.245
Mof_C 	C 	0.97062	0.2248	0.7248	-0.237
Mof_H 	H 	0.9505	0.233	0.733	0.101
Mof_C 	C 	0.9382	0.18689	0.68689	-0.587
Mof_H 	H 	0.9431	0.17035	0.67035	0.199
Mof_C 	C 	0.47062	0.20081	0.20081	0.245
Mof_C 	C 	0.47062	0.2248	0.2248	-0.237
Mof_H 	H 	0.4505	0.233	0.233	0.101
Mof_C 	C 	0.4382	0.18689	0.18689	-0.587
Mof_H 	H 	0.4431	0.17035	0.17035	0.199
Mof_C 	C 	0.29919	0.02938	0.20081	0.245
Mof_C 	C 	0.2752	0.02938	0.2248	-0.237
Mof_H 	H 	0.267	0.0495	0.233	0.101
Mof_C 	C 	0.31311	0.0618	0.18689	-0.587
Mof_H 	H 	0.32965	0.0569	0.17035	0.199
Mof_C 	C 	0.29919	0.52938	0.70081	0.245
Mof_C 	C 	0.2752	0.52938	0.7248	-0.237
Mof_H 	H 	0.267	0.5495	0.733	0.101
Mof_C 	C 	0.31311	0.5618	0.68689	-0.587
Mof_H 	H 	0.32965	0.5569	0.67035	0.199
Mof_C 	C 	0.70081	0.02938	0.79919	0.245
Mof_C 	C 	0.7248	0.02938	0.7752	-0.237
Mof_H 	H 	0.733	0.0495	0.767	0.101
Mof_C 	C 	0.68689	0.0618	0.81311	-0.587
Mof_H 	H 	0.67035	0.0569	0.82965	0.199
Mof_C 	C 	0.70081	0.52938	0.29919	0.245
Mof_C 	C 	0.7248	0.52938	0.2752	-0.237
Mof_H 	H 	0.733	0.5495	0.267	0.101
Mof_C 	C 	0.68689	0.5618	0.31311	-0.587
Mof_H 	H 	0.67035	0.5569	0.32965	0.199
Mof_C 	C 	0.20081	0.02938	0.29919	0.245
Mof_C 	C 	0.2248	0.02938	0.2752	-0.237
Mof_H 	H 	0.233	0.0495	0.267	0.101
Mof_C 	C 	0.18689	0.0618	0.31311	-0.587
Mof_H 	H 	0.17035	0.0569	0.32965	0.199
Mof_C 	C 	0.29919	0.97062	0.79919	0.245
Mof_C 	C 	0.2752	0.97062	0.7752	-0.237
Mof_H 	H 	0.267	0.9505	0.767	0.101
Mof_C 	C 	0.31311	0.9382	0.81311	-0.587
Mof_H 	H 	0.32965	0.9431	0.82965	0.199
Mof_C 	C 	0.29919	0.47062	0.29919	0.245
Mof_C 	C 	0.2752	0.47062	0.2752	-0.237
Mof_H 	H 	0.267	0.4505	0.267	0.101
Mof_C 	C 	0.31311	0.4382	0.31311	-0.587
Mof_H 	H 	0.32965	0.4431	0.32965	0.199
Mof_C 	C 	0.70081	0.97062	0.20081	0.245
Mof_C 	C 	0.7248	0.97062	0.2248	-0.237
Mof_H 	H 	0.733	0.9505	0.233	0.101
Mof_C 	C 	0.68689	0.9382	0.18689	-0.587
Mof_H 	H 	0.67035	0.9431	0.17035	0.199
Mof_C 	C 	0.70081	0.47062	0.70081	0.245
Mof_C 	C 	0.7248	0.47062	0.7248	-0.237
Mof_H 	H 	0.733	0.4505	0.733	0.101
Mof_C 	C 	0.68689	0.4382	0.68689	-0.587
Mof_H 	H 	0.67035	0.4431	0.67035	0.199
Mof_C 	C 	0.20081	0.47062	0.20081	0.245
Mof_C 	C 	0.2248	0.47062	0.2248	-0.237
Mof_H 	H 	0.233	0.4505	0.233	0.101
Mof_C 	C 	0.18689	0.4382	0.18689	-0.587
Mof_H 	H 	0.17035	0.4431	0.17035	0.199
Mof_C 	C 	0.29919	0.20081	0.97062	0.245
Mof_C 	C 	0.2752	0.2248	0.97062	-0.237
Mof_H 	H 	0.267	0.233	0.9505	0.101
Mof_C 	C 	0.31311	0.18689	0.9382	-0.587
Mof_H 	H 	0.32965	0.17035	0.9431	0.199
Mof_C 	C 	0.29919	0.70081	0.47062	0.245
Mof_C 	C 	0.2752	0.7248	0.47062	-0.237
Mof_H 	H 	0.267	0.733	0.4505	0.101
Mof_C 	C 	0.31311	0.68689	0.4382	-0.587
Mof_H 	H 	0.32965	0.67035	0.4431	0.199
Mof_C 	C 	0.70081	0.79919	0.97062	0.245
Mof_C 	C 	0.7248	0.7752	0.97062	-0.237
Mof_H 	H 	0.733	0.767	0.9505	0.101
Mof_C 	C 	0.68689	0.81311	0.9382	-0.587
Mof_H 	H 	0.67035	0.82965	0.9431	0.199
Mof_C 	C 	0.70081	0.29919	0.47062	0.245
Mof_C 	C 	0.7248	0.2752	0.47062	-0.237
Mof_H 	H 	0.733	0.267	0.4505	0.101
Mof_C 	C 	0.68689	0.31311	0.4382	-0.587
Mof_H 	H 	0.67035	0.32965	0.4431	0.199
Mof_C 	C 	0.20081	0.29919	0.97062	0.245
Mof_C 	C 	0.2248	0.2752	0.97062	-0.237
Mof_H 	H 	0.233	0.267	0.9505	0.101
Mof_C 	C 	0.18689	0.31311	0.9382	-0.587
Mof_H 	H 	0.17035	0.32965	0.9431	0.199
Mof_C 	C 	0.29919	0.79919	0.02938	0.245
Mof_C 	C 	0.2752	0.7752	0.02938	-0.237
Mof_H 	H 	0.267	0.767	0.0495	0.101
Mof_C 	C 	0.31311	0.81311	0.0618	-0.587
Mof_H 	H 	0.32965	0.82965	0.0569	0.199
Mof_C 	C 	0.29919	0.29919	0.52938	0.245
Mof_C 	C 	0.2752	0.2752	0.52938	-0.237
Mof_H 	H 	0.267	0.267	0.5495	0.101
Mof_C 	C 	0.31311	0.31311	0.5618	-0.587
Mof_H 	H 	0.32965	0.32965	0.5569	0.199
Mof_C 	C 	0.70081	0.20081	0.02938	0.245
Mof_C 	C 	0.7248	0.2248	0.02938	-0.237
Mof_H 	H 	0.733	0.233	0.0495	0.101
Mof_C 	C 	0.68689	0.18689	0.0618	-0.587
Mof_H 	H 	0.67035	0.17035	0.0569	0.199
Mof_C 	C 	0.70081	0.70081	0.52938	0.245
Mof_C 	C 	0.7248	0.7248	0.52938	-0.237
Mof_H 	H 	0.733	0.733	0.5495	0.101
Mof_C 	C 	0.68689	0.68689	0.5618	-0.587
Mof_H 	H 	0.67035	0.67035	0.5569	0.199
Mof_C 	C 	0.20081	0.20081	0.52938	0.245
Mof_C 	C 	0.2248	0.2248	0.52938	-0.237
Mof_H 	H 	0.233	0.233	0.5495	0.101
Mof_C 	C 	0.18689	0.18689	0.5618	-0.587
Mof_H 	H 	0.17035	0.17035	0.5569	0.199
Mof_C 	C 	0.20081	0.02938	0.70081	0.245
Mof_C 	C 	0.2248	0.02938	0.7248	-0.237
Mof_H 	H 	0.233	0.0495	0.733	0.101
Mof_C 	C 	0.18689	0.0618	0.68689	-0.587
Mof_H 	H 	0.17035	0.0569	0.67035	0.199
Mof_C 	C 	0.20081	0.52938	0.20081	0.245
Mof_C 	C 	0.2248	0.52938	0.2248	-0.237
Mof_H 	H 	0.233	0.5495	0.233	0.101
Mof_C 	C 	0.18689	0.5618	0.18689	-0.587
Mof_H 	H 	0.17035	0.5569	0.17035	0.199
Mof_C 	C 	0.79919	0.02938	0.29919	0.245
Mof_C 	C 	0.7752	0.02938	0.2752	-0.237
Mof_H 	H 	0.767	0.0495	0.267	0.101
Mof_C 	C 	0.81311	0.0618	0.31311	-0.587
Mof_H 	H 	0.82965	0.0569	0.32965	0.199
Mof_C 	C 	0.79919	0.52938	0.79919	0.245
Mof_C 	C 	0.7752	0.52938	0.7752	-0.237
Mof_H 	H 	0.767	0.5495	0.767	0.101
Mof_C 	C 	0.81311	0.5618	0.81311	-0.587
Mof_H 	H 	0.82965	0.5569	0.82965	0.199
Mof_C 	C 	0.29919	0.52938	0.29919	0.245
Mof_C 	C 	0.2752	0.52938	0.2752	-0.237
Mof_H 	H 	0.267	0.5495	0.267	0.101
Mof_C 	C 	0.31311	0.5618	0.31311	-0.587
Mof_H 	H 	0.32965	0.5569	0.32965	0.199
Mof_C 	C 	0.79919	0.97062	0.70081	0.245
Mof_C 	C 	0.7752	0.97062	0.7248	-0.237
Mof_H 	H 	0.767	0.9505	0.733	0.101
Mof_C 	C 	0.81311	0.9382	0.68689	-0.587
Mof_H 	H 	0.82965	0.9431	0.67035	0.199
Mof_C 	C 	0.79919	0.47062	0.20081	0.245
Mof_C 	C 	0.7752	0.47062	0.2248	-0.237
Mof_H 	H 	0.767	0.4505	0.233	0.101
Mof_C 	C 	0.81311	0.4382	0.18689	-0.587
Mof_H 	H 	0.82965	0.4431	0.17035	0.199
Mof_C 	C 	0.29919	0.97062	0.20081	0.245
Mof_C 	C 	0.2752	0.97062	0.2248	-0.237
Mof_H 	H 	0.267	0.9505	0.233	0.101
Mof_C 	C 	0.31311	0.9382	0.18689	-0.587
Mof_H 	H 	0.32965	0.9431	0.17035	0.199
Mof_C 	C 	0.20081	0.97062	0.29919	0.245
Mof_C 	C 	0.2248	0.97062	0.2752	-0.237
Mof_H 	H 	0.233	0.9505	0.267	0.101
Mof_C 	C 	0.18689	0.9382	0.31311	-0.587
Mof_H 	H 	0.17035	0.9431	0.32965	0.199
Mof_C 	C 	0.20081	0.47062	0.79919	0.245
Mof_C 	C 	0.2248	0.47062	0.7752	-0.237
Mof_H 	H 	0.233	0.4505	0.767	0.101
Mof_C 	C 	0.18689	0.4382	0.81311	-0.587
Mof_H 	H 	0.17035	0.4431	0.82965	0.199
Mof_C 	C 	0.02938	0.29919	0.79919	0.245
Mof_C 	C 	0.02938	0.2752	0.7752	-0.237
Mof_H 	H 	0.0495	0.267	0.767	0.101
Mof_C 	C 	0.0618	0.31311	0.81311	-0.587
Mof_H 	H 	0.0569	0.32965	0.82965	0.199
Mof_C 	C 	0.52938	0.29919	0.29919	0.245
Mof_C 	C 	0.52938	0.2752	0.2752	-0.237
Mof_H 	H 	0.5495	0.267	0.267	0.101
Mof_C 	C 	0.5618	0.31311	0.31311	-0.587
Mof_H 	H 	0.5569	0.32965	0.32965	0.199
Mof_C 	C 	0.02938	0.70081	0.20081	0.245
Mof_C 	C 	0.02938	0.7248	0.2248	-0.237
Mof_H 	H 	0.0495	0.733	0.233	0.101
Mof_C 	C 	0.0618	0.68689	0.18689	-0.587
Mof_H 	H 	0.0569	0.67035	0.17035	0.199
Mof_C 	C 	0.52938	0.70081	0.70081	0.245
Mof_C 	C 	0.52938	0.7248	0.7248	-0.237
Mof_H 	H 	0.5495	0.733	0.733	0.101
Mof_C 	C 	0.5618	0.68689	0.68689	-0.587
Mof_H 	H 	0.5569	0.67035	0.67035	0.199
Mof_C 	C 	0.52938	0.20081	0.20081	0.245
Mof_C 	C 	0.52938	0.2248	0.2248	-0.237
Mof_H 	H 	0.5495	0.233	0.233	0.101
Mof_C 	C 	0.5618	0.18689	0.18689	-0.587
Mof_H 	H 	0.5569	0.17035	0.17035	0.199
Mof_C 	C 	0.97062	0.29919	0.20081	0.245
Mof_C 	C 	0.97062	0.2752	0.2248	-0.237
Mof_H 	H 	0.9505	0.267	0.233	0.101
Mof_C 	C 	0.9382	0.31311	0.18689	-0.587
Mof_H 	H 	0.9431	0.32965	0.17035	0.199
Mof_C 	C 	0.47062	0.29919	0.70081	0.245
Mof_C 	C 	0.47062	0.2752	0.7248	-0.237
Mof_H 	H 	0.4505	0.267	0.733	0.101
Mof_C 	C 	0.4382	0.31311	0.68689	-0.587
Mof_H 	H 	0.4431	0.32965	0.67035	0.199
Mof_C 	C 	0.97062	0.70081	0.79919	0.245
Mof_C 	C 	0.97062	0.7248	0.7752	-0.237
Mof_H 	H 	0.9505	0.733	0.767	0.101
Mof_C 	C 	0.9382	0.68689	0.81311	-0.587
Mof_H 	H 	0.9431	0.67035	0.82965	0.199
Mof_C 	C 	0.97062	0.20081	0.29919	0.245
Mof_C 	C 	0.97062	0.2248	0.2752	-0.237
Mof_H 	H 	0.9505	0.233	0.267	0.101
Mof_C 	C 	0.9382	0.18689	0.31311	-0.587
Mof_H 	H 	0.9431	0.17035	0.32965	0.199
Mof_C 	C 	0.47062	0.70081	0.29919	0.245
Mof_C 	C 	0.47062	0.7248	0.2752	-0.237
Mof_H 	H 	0.4505	0.733	0.267	0.101
Mof_C 	C 	0.4382	0.68689	0.31311	-0.587
Mof_H 	H 	0.4431	0.67035	0.32965	0.199
Mof_C 	C 	0.79919	0.70081	0.97062	0.245
Mof_C 	C 	0.7752	0.7248	0.97062	-0.237
Mof_H 	H 	0.767	0.733	0.9505	0.101
Mof_C 	C 	0.81311	0.68689	0.9382	-0.587
Mof_H 	H 	0.82965	0.67035	0.9431	0.199
Mof_C 	C 	0.79919	0.20081	0.47062	0.245
Mof_C 	C 	0.7752	0.2248	0.47062	-0.237
Mof_H 	H 	0.767	0.233	0.4505	0.101
Mof_C 	C 	0.81311	0.18689	0.4382	-0.587
Mof_H 	H 	0.82965	0.17035	0.4431	0.199
Mof_C 	C 	0.20081	0.79919	0.47062	0.245
Mof_C 	C 	0.2248	0.7752	0.47062	-0.237
Mof_H 	H 	0.233	0.767	0.4505	0.101
Mof_C 	C 	0.18689	0.81311	0.4382	-0.587
Mof_H 	H 	0.17035	0.82965	0.4431	0.199
Mof_C 	C 	0.20081	0.70081	0.02938	0.245
Mof_C 	C 	0.2248	0.7248	0.02938	-0.237
Mof_H 	H 	0.233	0.733	0.0495	0.101
Mof_C 	C 	0.18689	0.68689	0.0618	-0.587
Mof_H 	H 	0.17035	0.67035	0.0569	0.199
Mof_C 	C 	0.79919	0.29919	0.02938	0.245
Mof_C 	C 	0.7752	0.2752	0.02938	-0.237
Mof_H 	H 	0.767	0.267	0.0495	0.101
Mof_C 	C 	0.81311	0.31311	0.0618	-0.587
Mof_H 	H 	0.82965	0.32965	0.0569	0.199
Mof_C 	C 	0.79919	0.79919	0.52938	0.245
Mof_C 	C 	0.7752	0.7752	0.52938	-0.237
Mof_H 	H 	0.767	0.767	0.5495	0.101
Mof_C 	C 	0.81311	0.81311	0.5618	-0.587
Mof_H 	H 	0.82965	0.82965	0.5569	0.199
Mof_C 	C 	0.97062	0.79919	0.70081	0.245
Mof_C 	C 	0.97062	0.7752	0.7248	-0.237
Mof_H 	H 	0.9505	0.767	0.733	0.101
Mof_C 	C 	0.9382	0.81311	0.68689	-0.587
Mof_H 	H 	0.9431	0.82965	0.67035	0.199
Mof_C 	C 	0.47062	0.79919	0.20081	0.245
Mof_C 	C 	0.47062	0.7752	0.2248	-0.237
Mof_H 	H 	0.4505	0.767	0.233	0.101
Mof_C 	C 	0.4382	0.81311	0.18689	-0.587
Mof_H 	H 	0.4431	0.82965	0.17035	0.199
Mof_C 	C 	0.47062	0.20081	0.79919	0.245
Mof_C 	C 	0.47062	0.2248	0.7752	-0.237
Mof_H 	H 	0.4505	0.233	0.767	0.101
Mof_C 	C 	0.4382	0.18689	0.81311	-0.587
Mof_H 	H 	0.4431	0.17035	0.82965	0.199
Mof_C 	C 	0.02938	0.20081	0.70081	0.245
Mof_C 	C 	0.02938	0.2248	0.7248	-0.237
Mof_H 	H 	0.0495	0.233	0.733	0.101
Mof_C 	C 	0.0618	0.18689	0.68689	-0.587
Mof_H 	H 	0.0569	0.17035	0.67035	0.199
Mof_C 	C 	0.02938	0.79919	0.29919	0.245
Mof_C 	C 	0.02938	0.7752	0.2752	-0.237
Mof_H 	H 	0.0495	0.767	0.267	0.101
Mof_C 	C 	0.0618	0.81311	0.31311	-0.587
Mof_H 	H 	0.0569	0.82965	0.32965	0.199
Mof_C 	C 	0.52938	0.79919	0.79919	0.245
Mof_C 	C 	0.52938	0.7752	0.7752	-0.237
Mof_H 	H 	0.5495	0.767	0.767	0.101
Mof_C 	C 	0.5618	0.81311	0.81311	-0.587
Mof_H 	H 	0.5569	0.82965	0.82965	0.199
Mof_C 	C 	0.70081	0.97062	0.79919	0.245
Mof_C 	C 	0.7248	0.97062	0.7752	-0.237
Mof_H 	H 	0.733	0.9505	0.767	0.101
Mof_C 	C 	0.68689	0.9382	0.81311	-0.587
Mof_H 	H 	0.67035	0.9431	0.82965	0.199
Mof_C 	C 	0.70081	0.47062	0.29919	0.245
Mof_C 	C 	0.7248	0.47062	0.2752	-0.237
Mof_H 	H 	0.733	0.4505	0.267	0.101
Mof_C 	C 	0.68689	0.4382	0.31311	-0.587
Mof_H 	H 	0.67035	0.4431	0.32965	0.199
Mof_C 	C 	0.29919	0.47062	0.70081	0.245
Mof_C 	C 	0.2752	0.47062	0.7248	-0.237
Mof_H 	H 	0.267	0.4505	0.733	0.101
Mof_C 	C 	0.31311	0.4382	0.68689	-0.587
Mof_H 	H 	0.32965	0.4431	0.67035	0.199
Mof_C 	C 	0.70081	0.02938	0.20081	0.245
Mof_C 	C 	0.7248	0.02938	0.2248	-0.237
Mof_H 	H 	0.733	0.0495	0.233	0.101
Mof_C 	C 	0.68689	0.0618	0.18689	-0.587
Mof_H 	H 	0.67035	0.0569	0.17035	0.199
Mof_C 	C 	0.70081	0.52938	0.70081	0.245
Mof_C 	C 	0.7248	0.52938	0.7248	-0.237
Mof_H 	H 	0.733	0.5495	0.733	0.101
Mof_C 	C 	0.68689	0.5618	0.68689	-0.587
Mof_H 	H 	0.67035	0.5569	0.67035	0.199
Mof_C 	C 	0.29919	0.02938	0.79919	0.245
Mof_C 	C 	0.2752	0.02938	0.7752	-0.237
Mof_H 	H 	0.267	0.0495	0.767	0.101
Mof_C 	C 	0.31311	0.0618	0.81311	-0.587
Mof_H 	H 	0.32965	0.0569	0.82965	0.199
Mof_C 	C 	0.70081	0.79919	0.02938	0.245
Mof_C 	C 	0.7248	0.7752	0.02938	-0.237
Mof_H 	H 	0.733	0.767	0.0495	0.101
Mof_C 	C 	0.68689	0.81311	0.0618	-0.587
Mof_H 	H 	0.67035	0.82965	0.0569	0.199
Mof_C 	C 	0.70081	0.29919	0.52938	0.245
Mof_C 	C 	0.7248	0.2752	0.52938	-0.237
Mof_H 	H 	0.733	0.267	0.5495	0.101
Mof_C 	C 	0.68689	0.31311	0.5618	-0.587
Mof_H 	H 	0.67035	0.32965	0.5569	0.199
Mof_C 	C 	0.29919	0.70081	0.52938	0.245
Mof_C 	C 	0.2752	0.7248	0.52938	-0.237
Mof_H 	H 	0.267	0.733	0.5495	0.101
Mof_C 	C 	0.31311	0.68689	0.5618	-0.587
Mof_H 	H 	0.32965	0.67035	0.5569	0.199
Mof_C 	C 	0.70081	0.20081	0.97062	0.245
Mof_C 	C 	0.7248	0.2248	0.97062	-0.237
Mof_H 	H 	0.733	0.233	0.9505	0.101
Mof_C 	C 	0.68689	0.18689	0.9382	-0.587
Mof_H 	H 	0.67035	0.17035	0.9431	0.199
Mof_C 	C 	0.70081	0.70081	0.47062	0.245
Mof_C 	C 	0.7248	0.7248	0.47062	-0.237
Mof_H 	H 	0.733	0.733	0.4505	0.101
Mof_C 	C 	0.68689	0.68689	0.4382	-0.587
Mof_H 	H 	0.67035	0.67035	0.4431	0.199
Mof_C 	C 	0.29919	0.79919	0.97062	0.245
Mof_C 	C 	0.2752	0.7752	0.97062	-0.237
Mof_H 	H 	0.267	0.767	0.9505	0.101
Mof_C 	C 	0.31311	0.81311	0.9382	-0.587
Mof_H 	H 	0.32965	0.82965	0.9431	0.199
Mof_C 	C 	0.79919	0.97062	0.29919	0.245
Mof_C 	C 	0.7752	0.97062	0.2752	-0.237
Mof_H 	H 	0.767	0.9505	0.267	0.101
Mof_C 	C 	0.81311	0.9382	0.31311	-0.587
Mof_H 	H 	0.82965	0.9431	0.32965	0.199
Mof_C 	C 	0.79919	0.47062	0.79919	0.245
Mof_C 	C 	0.7752	0.47062	0.7752	-0.237
Mof_H 	H 	0.767	0.4505	0.767	0.101
Mof_C 	C 	0.81311	0.4382	0.81311	-0.587
Mof_H 	H 	0.82965	0.4431	0.82965	0.199
Mof_C 	C 	0.20081	0.97062	0.70081	0.245
Mof_C 	C 	0.2248	0.97062	0.7248	-0.237
Mof_H 	H 	0.233	0.9505	0.733	0.101
Mof_C 	C 	0.18689	0.9382	0.68689	-0.587
Mof_H 	H 	0.17035	0.9431	0.67035	0.199
Mof_C 	C 	0.20081	0.52938	0.79919	0.245
Mof_C 	C 	0.2248	0.52938	0.7752	-0.237
Mof_H 	H 	0.233	0.5495	0.767	0.101
Mof_C 	C 	0.18689	0.5618	0.81311	-0.587
Mof_H 	H 	0.17035	0.5569	0.82965	0.199
Mof_C 	C 	0.79919	0.02938	0.70081	0.245
Mof_C 	C 	0.7752	0.02938	0.7248	-0.237
Mof_H 	H 	0.767	0.0495	0.733	0.101
Mof_C 	C 	0.81311	0.0618	0.68689	-0.587
Mof_H 	H 	0.82965	0.0569	0.67035	0.199
Mof_C 	C 	0.79919	0.52938	0.20081	0.245
Mof_C 	C 	0.7752	0.52938	0.2248	-0.237
Mof_H 	H 	0.767	0.5495	0.233	0.101
Mof_C 	C 	0.81311	0.5618	0.18689	-0.587
Mof_H 	H 	0.82965	0.5569	0.17035	0.199
Mof_C 	C 	0.97062	0.70081	0.20081	0.245
Mof_C 	C 	0.97062	0.7248	0.2248	-0.237
Mof_H 	H 	0.9505	0.733	0.233	0.101
Mof_C 	C 	0.9382	0.68689	0.18689	-0.587
Mof_H 	H 	0.9431	0.67035	0.17035	0.199
Mof_C 	C 	0.47062	0.70081	0.70081	0.245
Mof_C 	C 	0.47062	0.7248	0.7248	-0.237
Mof_H 	H 	0.4505	0.733	0.733	0.101
Mof_C 	C 	0.4382	0.68689	0.68689	-0.587
Mof_H 	H 	0.4431	0.67035	0.67035	0.199
Mof_C 	C 	0.97062	0.29919	0.79919	0.245
Mof_C 	C 	0.97062	0.2752	0.7752	-0.237
Mof_H 	H 	0.9505	0.267	0.767	0.101
Mof_C 	C 	0.9382	0.31311	0.81311	-0.587
Mof_H 	H 	0.9431	0.32965	0.82965	0.199
Mof_C 	C 	0.02938	0.70081	0.79919	0.245
Mof_C 	C 	0.02938	0.7248	0.7752	-0.237
Mof_H 	H 	0.0495	0.733	0.767	0.101
Mof_C 	C 	0.0618	0.68689	0.81311	-0.587
Mof_H 	H 	0.0569	0.67035	0.82965	0.199
Mof_C 	C 	0.52938	0.70081	0.29919	0.245
Mof_C 	C 	0.52938	0.7248	0.2752	-0.237
Mof_H 	H 	0.5495	0.733	0.267	0.101
Mof_C 	C 	0.5618	0.68689	0.31311	-0.587
Mof_H 	H 	0.5569	0.67035	0.32965	0.199
Mof_C 	C 	0.52938	0.29919	0.70081	0.245
Mof_C 	C 	0.52938	0.2752	0.7248	-0.237
Mof_H 	H 	0.5495	0.267	0.733	0.101
Mof_C 	C 	0.5618	0.31311	0.68689	-0.587
Mof_H 	H 	0.5569	0.32965	0.67035	0.199
Mof_Ni	Ni	0.21488	0.47337	0.02663	1.07
Mof_Ni	Ni	0.71488	0.47337	0.52663	1.07
Mof_Ni	Ni	0.78512	0.52663	0.02663	1.07
Mof_Ni	Ni	0.28512	0.52663	0.52663	1.07
Mof_Ni	Ni	0.28512	0.02663	0.02663	1.07
Mof_Ni	Ni	0.78512	0.47337	0.97337	1.07
Mof_Ni	Ni	0.28512	0.47337	0.47337	1.07
Mof_Ni	Ni	0.21488	0.52663	0.97337	1.07
Mof_Ni	Ni	0.21488	0.02663	0.47337	1.07
Mof_Ni	Ni	0.71488	0.52663	0.47337	1.07
Mof_Ni	Ni	0.02663	0.21488	0.47337	1.07
Mof_Ni	Ni	0.02663	0.71488	0.97337	1.07
Mof_Ni	Ni	0.02663	0.78512	0.52663	1.07
Mof_Ni	Ni	0.02663	0.28512	0.02663	1.07
Mof_Ni	Ni	0.97337	0.78512	0.47337	1.07
Mof_Ni	Ni	0.97337	0.28512	0.97337	1.07
Mof_Ni	Ni	0.47337	0.28512	0.47337	1.07
Mof_Ni	Ni	0.97337	0.21488	0.52663	1.07
Mof_Ni	Ni	0.97337	0.71488	0.02663	1.07
Mof_Ni	Ni	0.47337	0.21488	0.02663	1.07
Mof_Ni	Ni	0.47337	0.02663	0.21488	1.07
Mof_Ni	Ni	0.47337	0.52663	0.71488	1.07
Mof_Ni	Ni	0.52663	0.02663	0.78512	1.07
Mof_Ni	Ni	0.52663	0.52663	0.28512	1.07
Mof_Ni	Ni	0.02663	0.02663	0.28512	1.07
Mof_Ni	Ni	0.47337	0.97337	0.78512	1.07
Mof_Ni	Ni	0.47337	0.47337	0.28512	1.07
Mof_Ni	Ni	0.52663	0.97337	0.21488	1.07
Mof_Ni	Ni	0.52663	0.47337	0.71488	1.07
Mof_Ni	Ni	0.02663	0.47337	0.21488	1.07
Mof_Ni	Ni	0.47337	0.21488	0.97337	1.07
Mof_Ni	Ni	0.47337	0.71488	0.47337	1.07
Mof_Ni	Ni	0.52663	0.78512	0.97337	1.07
Mof_Ni	Ni	0.52663	0.28512	0.47337	1.07
Mof_Ni	Ni	0.02663	0.78512	0.47337	1.07
Mof_Ni	Ni	0.47337	0.78512	0.02663	1.07
Mof_Ni	Ni	0.47337	0.28512	0.52663	1.07
Mof_Ni	Ni	0.52663	0.21488	0.02663	1.07
Mof_Ni	Ni	0.52663	0.71488	0.52663	1.07
Mof_Ni	Ni	0.02663	0.71488	0.02663	1.07
Mof_Ni	Ni	0.21488	0.02663	0.52663	1.07
Mof_Ni	Ni	0.71488	0.02663	0.02663	1.07
Mof_Ni	Ni	0.78512	0.02663	0.47337	1.07
Mof_Ni	Ni	0.28512	0.02663	0.97337	1.07
Mof_Ni	Ni	0.78512	0.97337	0.52663	1.07
Mof_Ni	Ni	0.78512	0.47337	0.02663	1.07
Mof_Ni	Ni	0.28512	0.97337	0.02663	1.07
Mof_Ni	Ni	0.21488	0.97337	0.47337	1.07
Mof_Ni	Ni	0.71488	0.97337	0.97337	1.07
Mof_Ni	Ni	0.71488	0.47337	0.47337	1.07
Mof_Ni	Ni	0.02663	0.47337	0.78512	1.07
Mof_Ni	Ni	0.02663	0.97337	0.28512	1.07
Mof_Ni	Ni	0.02663	0.52663	0.21488	1.07
Mof_Ni	Ni	0.02663	0.02663	0.71488	1.07
Mof_Ni	Ni	0.97337	0.47337	0.21488	1.07
Mof_Ni	Ni	0.97337	0.97337	0.71488	1.07
Mof_Ni	Ni	0.47337	0.47337	0.71488	1.07
Mof_Ni	Ni	0.97337	0.52663	0.78512	1.07
Mof_Ni	Ni	0.97337	0.02663	0.28512	1.07
Mof_Ni	Ni	0.47337	0.02663	0.78512	1.07
Mof_Ni	Ni	0.78512	0.52663	0.97337	1.07
Mof_Ni	Ni	0.28512	0.52663	0.47337	1.07
Mof_Ni	Ni	0.21488	0.47337	0.97337	1.07
Mof_Ni	Ni	0.21488	0.52663	0.02663	1.07
Mof_Ni	Ni	0.71488	0.52663	0.52663	1.07
Mof_Ni	Ni	0.28512	0.47337	0.52663	1.07
Mof_Ni	Ni	0.97337	0.78512	0.52663	1.07
Mof_Ni	Ni	0.97337	0.28512	0.02663	1.07
Mof_Ni	Ni	0.97337	0.21488	0.47337	1.07
Mof_Ni	Ni	0.97337	0.71488	0.97337	1.07
Mof_Ni	Ni	0.02663	0.21488	0.52663	1.07
Mof_Ni	Ni	0.02663	0.28512	0.97337	1.07
Mof_Ni	Ni	0.52663	0.97337	0.78512	1.07
Mof_Ni	Ni	0.52663	0.47337	0.28512	1.07
Mof_Ni	Ni	0.47337	0.97337	0.21488	1.07
Mof_Ni	Ni	0.52663	0.02663	0.21488	1.07
Mof_Ni	Ni	0.52663	0.52663	0.71488	1.07
Mof_Ni	Ni	0.47337	0.52663	0.28512	1.07
Mof_Ni	Ni	0.52663	0.78512	0.02663	1.07
Mof_Ni	Ni	0.52663	0.28512	0.52663	1.07
Mof_Ni	Ni	0.47337	0.71488	0.52663	1.07
Mof_Ni	Ni	0.52663	0.21488	0.97337	1.07
Mof_Ni	Ni	0.52663	0.71488	0.47337	1.07
Mof_Ni	Ni	0.47337	0.78512	0.97337	1.07
Mof_Ni	Ni	0.78512	0.97337	0.47337	1.07
Mof_Ni	Ni	0.28512	0.97337	0.97337	1.07
Mof_Ni	Ni	0.21488	0.97337	0.52663	1.07
Mof_Ni	Ni	0.71488	0.97337	0.02663	1.07
Mof_Ni	Ni	0.71488	0.02663	0.97337	1.07
Mof_Ni	Ni	0.78512	0.02663	0.52663	1.07
Mof_Ni	Ni	0.97337	0.52663	0.21488	1.07
Mof_Ni	Ni	0.97337	0.02663	0.71488	1.07
Mof_Ni	Ni	0.97337	0.47337	0.78512	1.07
Mof_Ni	Ni	0.97337	0.97337	0.28512	1.07
Mof_Ni	Ni	0.02663	0.52663	0.78512	1.07
Mof_Ni	Ni	0.02663	0.97337	0.71488	1.07
_end
