data_functionalizedCrystal
_audit_creation_method	'EQeq! by Chris Wilmer'
_symmetry_space_group_name_H-M	'P1'
_symmetry_Int_Tables_number	1
_symmetry_cell_setting	triclinic
loop_
_symmetry_equiv_pos_as_xyz
  x,y,z
_cell_length_a	7.271
_cell_length_b	10.212
_cell_length_c	18.061
_cell_angle_alpha	90
_cell_angle_beta	90
_cell_angle_gamma	94.234
loop_
_atom_site_label
_atom_site_type_symbol
_atom_site_fract_x
_atom_site_fract_y
_atom_site_fract_z
_atom_site_charge
Mof_Cu	Cu	0.86315	0.21454	0.90555	0.921
Mof_Cu	Cu	0.03655	0.92917	0.9316	0.937
Mof_Cu	Cu	0.63685	0.28546	0.40555	0.92
Mof_Cu	Cu	0.46345	0.57083	0.4316	0.942
Mof_Cu	Cu	0.13685	0.78546	0.09445	0.922
Mof_Cu	Cu	0.96345	0.07083	0.0684	0.938
Mof_Cu	Cu	0.36315	0.71454	0.59445	0.921
Mof_Cu	Cu	0.53655	0.42917	0.5684	0.943
Mof_H 	H 	0.7776	0.1648	0.6916	0.04
Mof_H 	H 	0.9335	0.7984	0.7065	0.027
Mof_H 	H 	0.7729	0.9375	0.5113	0.021
Mof_H 	H 	0.7224	0.3352	0.1916	0.037
Mof_H 	H 	0.5665	0.7016	0.2065	0.024
Mof_H 	H 	0.7271	0.5625	0.0113	0.021
Mof_H 	H 	0.2224	0.8352	0.3084	0.04
Mof_H 	H 	0.0665	0.2016	0.2935	0.027
Mof_H 	H 	0.2271	0.0625	0.4887	0.021
Mof_H 	H 	0.2776	0.6648	0.8084	0.037
Mof_H 	H 	0.4335	0.2984	0.7935	0.024
Mof_H 	H 	0.2729	0.4375	0.9887	0.021
Mof_C 	C 	0.8547	0.8495	0.6041	-0.173
Mof_C 	C 	0.7654	0.0693	0.5949	-0.155
Mof_C 	C 	0.7983	0.0849	0.6695	0.089
Mof_C 	C 	0.8612	0.9857	0.7126	-0.147
Mof_C 	C 	0.8965	0.0083	0.7922	0.401
Mof_C 	C 	0.8903	0.8665	0.6789	0.089
Mof_C 	C 	0.7943	0.9496	0.5617	0.092
Mof_C 	C 	0.6915	0.1791	0.5532	0.408
Mof_C 	C 	0.6453	0.6505	0.1041	-0.175
Mof_C 	C 	0.7346	0.4307	0.0949	-0.154
Mof_C 	C 	0.7017	0.4151	0.1695	0.097
Mof_C 	C 	0.6388	0.5143	0.2126	-0.158
Mof_C 	C 	0.6035	0.4917	0.2922	0.412
Mof_C 	C 	0.6097	0.6335	0.1789	0.094
Mof_C 	C 	0.7057	0.5504	0.0617	0.089
Mof_C 	C 	0.8085	0.3209	0.0532	0.404
Mof_C 	C 	0.1453	0.1505	0.3959	-0.173
Mof_C 	C 	0.2346	0.9307	0.4051	-0.155
Mof_C 	C 	0.2017	0.9151	0.3305	0.089
Mof_C 	C 	0.1388	0.0143	0.2874	-0.147
Mof_C 	C 	0.1035	0.9917	0.2078	0.401
Mof_C 	C 	0.1097	0.1335	0.3211	0.089
Mof_C 	C 	0.2057	0.0504	0.4383	0.092
Mof_C 	C 	0.3085	0.8209	0.4468	0.408
Mof_C 	C 	0.3547	0.3495	0.8959	-0.175
Mof_C 	C 	0.2654	0.5693	0.9051	-0.154
Mof_C 	C 	0.2983	0.5849	0.8305	0.097
Mof_C 	C 	0.3612	0.4857	0.7874	-0.158
Mof_C 	C 	0.3965	0.5083	0.7078	0.412
Mof_C 	C 	0.3903	0.3665	0.8211	0.094
Mof_C 	C 	0.2943	0.4496	0.9383	0.089
Mof_C 	C 	0.1915	0.6791	0.9468	0.404
Mof_S 	S 	0.8722	0.69189	0.56484	0.581
Mof_S 	S 	0.6278	0.80811	0.06484	0.579
Mof_S 	S 	0.1278	0.30811	0.43516	0.581
Mof_S 	S 	0.3722	0.19189	0.93516	0.579
Mof_O 	O 	0.9429	0.9156	0.832	-0.384
Mof_O 	O 	0.8689	0.0573	0.9658	-0.487
Mof_O 	O 	0.655	0.1625	0.4858	-0.433
Mof_O 	O 	0.8739	0.1229	0.8139	-0.418
Mof_O 	O 	0.8527	0.702	0.4868	-0.297
Mof_O 	O 	0.672	0.2822	0.5894	-0.4
Mof_O 	O 	0.7244	0.6133	0.5985	-0.384
Mof_O 	O 	0.045	0.6491	0.5895	-0.328
Mof_O 	O 	0.5571	0.5844	0.332	-0.391
Mof_O 	O 	0.6311	0.4427	0.4658	-0.488
Mof_O 	O 	0.845	0.3375	0.9858	-0.428
Mof_O 	O 	0.6261	0.3771	0.3139	-0.421
Mof_O 	O 	0.6473	0.798	0.9868	-0.297
Mof_O 	O 	0.828	0.2178	0.0894	-0.402
Mof_O 	O 	0.7756	0.8867	0.0985	-0.382
Mof_O 	O 	0.455	0.8509	0.0895	-0.325
Mof_O 	O 	0.0571	0.0844	0.168	-0.384
Mof_O 	O 	0.1311	0.9427	0.0342	-0.487
Mof_O 	O 	0.345	0.8375	0.5142	-0.433
Mof_O 	O 	0.1261	0.8771	0.1861	-0.418
Mof_O 	O 	0.1473	0.298	0.5132	-0.297
Mof_O 	O 	0.328	0.7178	0.4106	-0.4
Mof_O 	O 	0.2756	0.3867	0.4015	-0.384
Mof_O 	O 	0.955	0.3509	0.4105	-0.328
Mof_O 	O 	0.4429	0.4156	0.668	-0.391
Mof_O 	O 	0.3689	0.5573	0.5342	-0.488
Mof_O 	O 	0.155	0.6625	0.0142	-0.428
Mof_O 	O 	0.3739	0.6229	0.6861	-0.421
Mof_O 	O 	0.3527	0.202	0.0132	-0.297
Mof_O 	O 	0.172	0.7822	0.9106	-0.402
Mof_O 	O 	0.2244	0.1133	0.9015	-0.382
Mof_O 	O 	0.545	0.1491	0.9105	-0.325
_end
