data_functionalizedCrystal
_audit_creation_method	'EQeq! by Chris Wilmer'
_symmetry_space_group_name_H-M	'P1'
_symmetry_Int_Tables_number	1
_symmetry_cell_setting	triclinic
loop_
_symmetry_equiv_pos_as_xyz
  x,y,z
_cell_length_a	35.2696
_cell_length_b	35.2696
_cell_length_c	20.7424
_cell_angle_alpha	90
_cell_angle_beta	90
_cell_angle_gamma	120
loop_
_atom_site_label
_atom_site_type_symbol
_atom_site_fract_x
_atom_site_fract_y
_atom_site_fract_z
_atom_site_charge
Mof_O 	O 	0.52471	0.97113	0.92496	-0.411
Mof_O 	O 	0.51141	0.94471	0.02638	-0.409
Mof_C 	C 	0.52306	0.94561	0.96826	0.362
Mof_C 	C 	0.53742	0.91322	0.95031	-0.123
Mof_C 	C 	0.53814	0.88528	0.99669	0.057
Mof_H 	H 	0.5287	0.8858	0.0394	0.024
Mof_C 	C 	0.55287	0.85623	0.98052	-0.141
Mof_H 	H 	0.5537	0.8374	0.0125	0.088
Mof_C 	C 	0.56607	0.85484	0.91869	0.107
Mof_C 	C 	0.56325	0.88197	0.87108	-0.141
Mof_H 	H 	0.5706	0.88	0.8276	0.078
Mof_C 	C 	0.54978	0.91145	0.88776	0.059
Mof_H 	H 	0.549	0.9305	0.856	0.025
Mof_C 	C 	0.58495	0.82677	0.90141	-0.078
Mof_C 	C 	0.6244	0.84576	0.86712	-0.038
Mof_H 	H 	0.6375	0.8758	0.8555	0.043
Mof_H 	H 	0.4928	0.7236	0.89	-0.041
Mof_H 	H 	0.451	0.7481	0.9935	0.179
Mof_O 	O 	0.19138	0.30446	0.25829	-0.411
Mof_O 	O 	0.17808	0.27804	0.35971	-0.408
Mof_C 	C 	0.18973	0.27894	0.30159	0.362
Mof_C 	C 	0.20409	0.24655	0.28364	-0.123
Mof_C 	C 	0.20481	0.21861	0.33002	0.056
Mof_H 	H 	0.19537	0.21913	0.37273	0.024
Mof_C 	C 	0.21954	0.18956	0.31385	-0.141
Mof_H 	H 	0.22037	0.17073	0.34583	0.088
Mof_C 	C 	0.23274	0.18817	0.25202	0.107
Mof_C 	C 	0.22992	0.2153	0.20441	-0.141
Mof_H 	H 	0.23727	0.21333	0.16093	0.078
Mof_C 	C 	0.21645	0.24478	0.22109	0.058
Mof_H 	H 	0.21567	0.26383	0.18933	0.026
Mof_C 	C 	0.25162	0.1601	0.23474	-0.078
Mof_C 	C 	0.29107	0.17909	0.20045	-0.037
Mof_H 	H 	0.30417	0.20913	0.18883	0.044
Mof_H 	H 	0.15947	0.05693	0.22333	-0.04
Mof_H 	H 	0.11767	0.08143	0.32683	0.18
Mof_O 	O 	0.85804	0.6378	0.59163	-0.41
Mof_O 	O 	0.84474	0.61138	0.69305	-0.407
Mof_C 	C 	0.85639	0.61228	0.63493	0.363
Mof_C 	C 	0.87075	0.57989	0.61698	-0.122
Mof_C 	C 	0.87147	0.55195	0.66336	0.057
Mof_H 	H 	0.86203	0.55247	0.70607	0.025
Mof_C 	C 	0.8862	0.5229	0.64719	-0.14
Mof_H 	H 	0.88703	0.50407	0.67917	0.089
Mof_C 	C 	0.8994	0.52151	0.58536	0.108
Mof_C 	C 	0.89658	0.54864	0.53775	-0.14
Mof_H 	H 	0.90393	0.54667	0.49427	0.079
Mof_C 	C 	0.88311	0.57812	0.55443	0.059
Mof_H 	H 	0.88233	0.59717	0.52267	0.026
Mof_C 	C 	0.91828	0.49344	0.56808	-0.077
Mof_C 	C 	0.95773	0.51243	0.53379	-0.037
Mof_H 	H 	0.97083	0.54247	0.52217	0.044
Mof_H 	H 	0.82613	0.39027	0.55667	-0.04
Mof_H 	H 	0.78433	0.41477	0.66017	0.18
Mof_O 	O 	0.02887	0.55358	0.92496	-0.41
Mof_O 	O 	0.05529	0.5667	0.02638	-0.408
Mof_C 	C 	0.05439	0.57745	0.96826	0.363
Mof_C 	C 	0.08678	0.6242	0.95031	-0.122
Mof_C 	C 	0.11472	0.65286	0.99669	0.058
Mof_H 	H 	0.1142	0.6429	0.0394	0.024
Mof_C 	C 	0.14377	0.69664	0.98052	-0.14
Mof_H 	H 	0.1626	0.7163	0.0125	0.089
Mof_C 	C 	0.14516	0.71123	0.91869	0.108
Mof_C 	C 	0.11803	0.68128	0.87108	-0.14
Mof_H 	H 	0.12	0.6906	0.8276	0.079
Mof_C 	C 	0.08855	0.63833	0.88776	0.059
Mof_H 	H 	0.0695	0.6185	0.856	0.026
Mof_C 	C 	0.17323	0.75818	0.90141	-0.077
Mof_C 	C 	0.15424	0.77864	0.86712	-0.037
Mof_H 	H 	0.1242	0.7617	0.8555	0.044
Mof_H 	H 	0.2764	0.7692	0.89	-0.04
Mof_H 	H 	0.2519	0.7029	0.9935	0.18
Mof_O 	O 	0.69554	0.88691	0.25829	-0.41
Mof_O 	O 	0.72196	0.90003	0.35971	-0.407
Mof_C 	C 	0.72106	0.91078	0.30159	0.363
Mof_C 	C 	0.75345	0.95753	0.28364	-0.122
Mof_C 	C 	0.78139	0.98619	0.33002	0.057
Mof_H 	H 	0.78087	0.97623	0.37273	0.025
Mof_C 	C 	0.81044	0.02997	0.31385	-0.14
Mof_H 	H 	0.82927	0.04963	0.34583	0.089
Mof_C 	C 	0.81183	0.04456	0.25202	0.108
Mof_C 	C 	0.7847	0.01461	0.20441	-0.14
Mof_H 	H 	0.78667	0.02393	0.16093	0.079
Mof_C 	C 	0.75522	0.97166	0.22109	0.059
Mof_H 	H 	0.73617	0.95183	0.18933	0.026
Mof_C 	C 	0.8399	0.09151	0.23474	-0.077
Mof_C 	C 	0.82091	0.11197	0.20045	-0.037
Mof_H 	H 	0.79087	0.09503	0.18883	0.044
Mof_H 	H 	0.94307	0.10253	0.22333	-0.039
Mof_H 	H 	0.91857	0.03623	0.32683	0.18
Mof_O 	O 	0.3622	0.22025	0.59163	-0.41
Mof_O 	O 	0.38862	0.23337	0.69305	-0.407
Mof_C 	C 	0.38772	0.24412	0.63493	0.363
Mof_C 	C 	0.42011	0.29087	0.61698	-0.122
Mof_C 	C 	0.44805	0.31953	0.66336	0.057
Mof_H 	H 	0.44753	0.30957	0.70607	0.025
Mof_C 	C 	0.4771	0.36331	0.64719	-0.14
Mof_H 	H 	0.49593	0.38297	0.67917	0.089
Mof_C 	C 	0.47849	0.3779	0.58536	0.108
Mof_C 	C 	0.45136	0.34795	0.53775	-0.14
Mof_H 	H 	0.45333	0.35727	0.49427	0.079
Mof_C 	C 	0.42188	0.305	0.55443	0.059
Mof_H 	H 	0.40283	0.28517	0.52267	0.026
Mof_C 	C 	0.50656	0.42485	0.56808	-0.077
Mof_C 	C 	0.48757	0.44531	0.53379	-0.037
Mof_H 	H 	0.45753	0.42837	0.52217	0.044
Mof_H 	H 	0.60973	0.43587	0.55667	-0.04
Mof_H 	H 	0.58523	0.36957	0.66017	0.18
Mof_O 	O 	0.44642	0.47529	0.92496	-0.41
Mof_O 	O 	0.4333	0.48859	0.02638	-0.407
Mof_C 	C 	0.42255	0.47694	0.96826	0.363
Mof_C 	C 	0.3758	0.46258	0.95031	-0.122
Mof_C 	C 	0.34714	0.46186	0.99669	0.057
Mof_H 	H 	0.3571	0.4713	0.0394	0.025
Mof_C 	C 	0.30336	0.44713	0.98052	-0.14
Mof_H 	H 	0.2837	0.4463	0.0125	0.089
Mof_C 	C 	0.28877	0.43393	0.91869	0.108
Mof_C 	C 	0.31872	0.43675	0.87108	-0.14
Mof_H 	H 	0.3094	0.4294	0.8276	0.079
Mof_C 	C 	0.36167	0.45022	0.88776	0.059
Mof_H 	H 	0.3815	0.451	0.856	0.026
Mof_C 	C 	0.24182	0.41505	0.90141	-0.077
Mof_C 	C 	0.22136	0.3756	0.86712	-0.037
Mof_H 	H 	0.2383	0.3625	0.8555	0.044
Mof_H 	H 	0.2308	0.5072	0.89	-0.04
Mof_H 	H 	0.2971	0.549	0.9935	0.18
Mof_O 	O 	0.11309	0.80862	0.25829	-0.41
Mof_O 	O 	0.09997	0.82192	0.35971	-0.407
Mof_C 	C 	0.08922	0.81027	0.30159	0.363
Mof_C 	C 	0.04247	0.79591	0.28364	-0.122
Mof_C 	C 	0.01381	0.79519	0.33002	0.057
Mof_H 	H 	0.02377	0.80463	0.37273	0.025
Mof_C 	C 	0.97003	0.78046	0.31385	-0.14
Mof_H 	H 	0.95037	0.77963	0.34583	0.089
Mof_C 	C 	0.95544	0.76726	0.25202	0.108
Mof_C 	C 	0.98539	0.77008	0.20441	-0.14
Mof_H 	H 	0.97607	0.76273	0.16093	0.079
Mof_C 	C 	0.02834	0.78355	0.22109	0.059
Mof_H 	H 	0.04817	0.78433	0.18933	0.026
Mof_C 	C 	0.90849	0.74838	0.23474	-0.077
Mof_C 	C 	0.88803	0.70893	0.20045	-0.037
Mof_H 	H 	0.90497	0.69583	0.18883	0.044
Mof_H 	H 	0.89747	0.84053	0.22333	-0.04
Mof_H 	H 	0.96377	0.88233	0.32683	0.18
Mof_O 	O 	0.77975	0.14196	0.59163	-0.41
Mof_O 	O 	0.76663	0.15526	0.69305	-0.407
Mof_C 	C 	0.75588	0.14361	0.63493	0.363
Mof_C 	C 	0.70913	0.12925	0.61698	-0.122
Mof_C 	C 	0.68047	0.12853	0.66336	0.057
Mof_H 	H 	0.69043	0.13797	0.70607	0.025
Mof_C 	C 	0.63669	0.1138	0.64719	-0.14
Mof_H 	H 	0.61703	0.11297	0.67917	0.089
Mof_C 	C 	0.6221	0.1006	0.58536	0.108
Mof_C 	C 	0.65205	0.10342	0.53775	-0.14
Mof_H 	H 	0.64273	0.09607	0.49427	0.079
Mof_C 	C 	0.695	0.11689	0.55443	0.059
Mof_H 	H 	0.71483	0.11767	0.52267	0.026
Mof_C 	C 	0.57515	0.08172	0.56808	-0.078
Mof_C 	C 	0.55469	0.04227	0.53379	-0.037
Mof_H 	H 	0.57163	0.02917	0.52217	0.044
Mof_H 	H 	0.56413	0.17387	0.55667	-0.04
Mof_H 	H 	0.63043	0.21567	0.66017	0.18
Mof_O 	O 	0.97113	0.52471	0.07504	-0.41
Mof_O 	O 	0.94471	0.51141	0.97362	-0.408
Mof_C 	C 	0.94561	0.52306	0.03174	0.363
Mof_C 	C 	0.91322	0.53742	0.04969	-0.122
Mof_C 	C 	0.88528	0.53814	0.00331	0.058
Mof_H 	H 	0.8858	0.5287	0.9606	0.025
Mof_C 	C 	0.85623	0.55287	0.01948	-0.14
Mof_H 	H 	0.8374	0.5537	0.9875	0.089
Mof_C 	C 	0.85484	0.56607	0.08131	0.108
Mof_C 	C 	0.88197	0.56325	0.12892	-0.14
Mof_H 	H 	0.88	0.5706	0.1724	0.079
Mof_C 	C 	0.91145	0.54978	0.11224	0.06
Mof_H 	H 	0.9305	0.549	0.144	0.026
Mof_C 	C 	0.82677	0.58495	0.09859	-0.077
Mof_C 	C 	0.84576	0.6244	0.13288	-0.037
Mof_H 	H 	0.8758	0.6375	0.1445	0.044
Mof_H 	H 	0.7236	0.4928	0.11	-0.04
Mof_H 	H 	0.7481	0.451	0.0065	0.18
Mof_O 	O 	0.6378	0.85804	0.40837	-0.41
Mof_O 	O 	0.61138	0.84474	0.30695	-0.407
Mof_C 	C 	0.61228	0.85639	0.36507	0.363
Mof_C 	C 	0.57989	0.87075	0.38302	-0.122
Mof_C 	C 	0.55195	0.87147	0.33664	0.057
Mof_H 	H 	0.55247	0.86203	0.29393	0.025
Mof_C 	C 	0.5229	0.8862	0.35281	-0.14
Mof_H 	H 	0.50407	0.88703	0.32083	0.089
Mof_C 	C 	0.52151	0.8994	0.41464	0.108
Mof_C 	C 	0.54864	0.89658	0.46225	-0.14
Mof_H 	H 	0.54667	0.90393	0.50573	0.079
Mof_C 	C 	0.57812	0.88311	0.44557	0.059
Mof_H 	H 	0.59717	0.88233	0.47733	0.026
Mof_C 	C 	0.49344	0.91828	0.43192	-0.077
Mof_C 	C 	0.51243	0.95773	0.46621	-0.037
Mof_H 	H 	0.54247	0.97083	0.47783	0.044
Mof_H 	H 	0.39027	0.82613	0.44333	-0.04
Mof_H 	H 	0.41477	0.78433	0.33983	0.18
Mof_O 	O 	0.30446	0.19138	0.74171	-0.41
Mof_O 	O 	0.27804	0.17808	0.64029	-0.407
Mof_C 	C 	0.27894	0.18973	0.69841	0.363
Mof_C 	C 	0.24655	0.20409	0.71636	-0.122
Mof_C 	C 	0.21861	0.20481	0.66998	0.057
Mof_H 	H 	0.21913	0.19537	0.62727	0.025
Mof_C 	C 	0.18956	0.21954	0.68615	-0.14
Mof_H 	H 	0.17073	0.22037	0.65417	0.089
Mof_C 	C 	0.18817	0.23274	0.74798	0.108
Mof_C 	C 	0.2153	0.22992	0.79559	-0.14
Mof_H 	H 	0.21333	0.23727	0.83907	0.079
Mof_C 	C 	0.24478	0.21645	0.77891	0.059
Mof_H 	H 	0.26383	0.21567	0.81067	0.026
Mof_C 	C 	0.1601	0.25162	0.76526	-0.078
Mof_C 	C 	0.17909	0.29107	0.79955	-0.037
Mof_H 	H 	0.20913	0.30417	0.81117	0.044
Mof_H 	H 	0.05693	0.15947	0.77667	-0.04
Mof_H 	H 	0.08143	0.11767	0.67317	0.18
Mof_O 	O 	0.55358	0.02887	0.07504	-0.41
Mof_O 	O 	0.5667	0.05529	0.97362	-0.408
Mof_C 	C 	0.57745	0.05439	0.03174	0.363
Mof_C 	C 	0.6242	0.08678	0.04969	-0.122
Mof_C 	C 	0.65286	0.11472	0.00331	0.058
Mof_H 	H 	0.6429	0.1142	0.9606	0.024
Mof_C 	C 	0.69664	0.14377	0.01948	-0.14
Mof_H 	H 	0.7163	0.1626	0.9875	0.089
Mof_C 	C 	0.71123	0.14516	0.08131	0.108
Mof_C 	C 	0.68128	0.11803	0.12892	-0.14
Mof_H 	H 	0.6906	0.12	0.1724	0.079
Mof_C 	C 	0.63833	0.08855	0.11224	0.059
Mof_H 	H 	0.6185	0.0695	0.144	0.026
Mof_C 	C 	0.75818	0.17323	0.09859	-0.077
Mof_C 	C 	0.77864	0.15424	0.13288	-0.037
Mof_H 	H 	0.7617	0.1242	0.1445	0.044
Mof_H 	H 	0.7692	0.2764	0.11	-0.04
Mof_H 	H 	0.7029	0.2519	0.0065	0.18
Mof_O 	O 	0.22025	0.3622	0.40837	-0.41
Mof_O 	O 	0.23337	0.38862	0.30695	-0.407
Mof_C 	C 	0.24412	0.38772	0.36507	0.363
Mof_C 	C 	0.29087	0.42011	0.38302	-0.122
Mof_C 	C 	0.31953	0.44805	0.33664	0.057
Mof_H 	H 	0.30957	0.44753	0.29393	0.025
Mof_C 	C 	0.36331	0.4771	0.35281	-0.14
Mof_H 	H 	0.38297	0.49593	0.32083	0.089
Mof_C 	C 	0.3779	0.47849	0.41464	0.108
Mof_C 	C 	0.34795	0.45136	0.46225	-0.14
Mof_H 	H 	0.35727	0.45333	0.50573	0.079
Mof_C 	C 	0.305	0.42188	0.44557	0.059
Mof_H 	H 	0.28517	0.40283	0.47733	0.026
Mof_C 	C 	0.42485	0.50656	0.43192	-0.077
Mof_C 	C 	0.44531	0.48757	0.46621	-0.037
Mof_H 	H 	0.42837	0.45753	0.47783	0.044
Mof_H 	H 	0.43587	0.60973	0.44333	-0.04
Mof_H 	H 	0.36957	0.58523	0.33983	0.18
Mof_O 	O 	0.88691	0.69554	0.74171	-0.41
Mof_O 	O 	0.90003	0.72196	0.64029	-0.407
Mof_C 	C 	0.91078	0.72106	0.69841	0.363
Mof_C 	C 	0.95753	0.75345	0.71636	-0.122
Mof_C 	C 	0.98619	0.78139	0.66998	0.057
Mof_H 	H 	0.97623	0.78087	0.62727	0.025
Mof_C 	C 	0.02997	0.81044	0.68615	-0.14
Mof_H 	H 	0.04963	0.82927	0.65417	0.089
Mof_C 	C 	0.04456	0.81183	0.74798	0.108
Mof_C 	C 	0.01461	0.7847	0.79559	-0.14
Mof_H 	H 	0.02393	0.78667	0.83907	0.079
Mof_C 	C 	0.97166	0.75522	0.77891	0.059
Mof_H 	H 	0.95183	0.73617	0.81067	0.026
Mof_C 	C 	0.09151	0.8399	0.76526	-0.077
Mof_C 	C 	0.11197	0.82091	0.79955	-0.037
Mof_H 	H 	0.09503	0.79087	0.81117	0.044
Mof_H 	H 	0.10253	0.94307	0.77667	-0.039
Mof_H 	H 	0.03623	0.91857	0.67317	0.18
Mof_O 	O 	0.47529	0.44642	0.07504	-0.41
Mof_O 	O 	0.48859	0.4333	0.97362	-0.407
Mof_C 	C 	0.47694	0.42255	0.03174	0.363
Mof_C 	C 	0.46258	0.3758	0.04969	-0.122
Mof_C 	C 	0.46186	0.34714	0.00331	0.057
Mof_H 	H 	0.4713	0.3571	0.9606	0.025
Mof_C 	C 	0.44713	0.30336	0.01948	-0.14
Mof_H 	H 	0.4463	0.2837	0.9875	0.089
Mof_C 	C 	0.43393	0.28877	0.08131	0.108
Mof_C 	C 	0.43675	0.31872	0.12892	-0.14
Mof_H 	H 	0.4294	0.3094	0.1724	0.079
Mof_C 	C 	0.45022	0.36167	0.11224	0.059
Mof_H 	H 	0.451	0.3815	0.144	0.026
Mof_C 	C 	0.41505	0.24182	0.09859	-0.077
Mof_C 	C 	0.3756	0.22136	0.13288	-0.037
Mof_H 	H 	0.3625	0.2383	0.1445	0.044
Mof_H 	H 	0.5072	0.2308	0.11	-0.04
Mof_H 	H 	0.549	0.2971	0.0065	0.18
Mof_O 	O 	0.14196	0.77975	0.40837	-0.41
Mof_O 	O 	0.15526	0.76663	0.30695	-0.407
Mof_C 	C 	0.14361	0.75588	0.36507	0.363
Mof_C 	C 	0.12925	0.70913	0.38302	-0.122
Mof_C 	C 	0.12853	0.68047	0.33664	0.057
Mof_H 	H 	0.13797	0.69043	0.29393	0.025
Mof_C 	C 	0.1138	0.63669	0.35281	-0.14
Mof_H 	H 	0.11297	0.61703	0.32083	0.089
Mof_C 	C 	0.1006	0.6221	0.41464	0.108
Mof_C 	C 	0.10342	0.65205	0.46225	-0.14
Mof_H 	H 	0.09607	0.64273	0.50573	0.079
Mof_C 	C 	0.11689	0.695	0.44557	0.059
Mof_H 	H 	0.11767	0.71483	0.47733	0.026
Mof_C 	C 	0.08172	0.57515	0.43192	-0.078
Mof_C 	C 	0.04227	0.55469	0.46621	-0.037
Mof_H 	H 	0.02917	0.57163	0.47783	0.044
Mof_H 	H 	0.17387	0.56413	0.44333	-0.04
Mof_H 	H 	0.21567	0.63043	0.33983	0.18
Mof_O 	O 	0.80862	0.11309	0.74171	-0.41
Mof_O 	O 	0.82192	0.09997	0.64029	-0.407
Mof_C 	C 	0.81027	0.08922	0.69841	0.363
Mof_C 	C 	0.79591	0.04247	0.71636	-0.122
Mof_C 	C 	0.79519	0.01381	0.66998	0.057
Mof_H 	H 	0.80463	0.02377	0.62727	0.025
Mof_C 	C 	0.78046	0.97003	0.68615	-0.14
Mof_H 	H 	0.77963	0.95037	0.65417	0.089
Mof_C 	C 	0.76726	0.95544	0.74798	0.108
Mof_C 	C 	0.77008	0.98539	0.79559	-0.14
Mof_H 	H 	0.76273	0.97607	0.83907	0.079
Mof_C 	C 	0.78355	0.02834	0.77891	0.059
Mof_H 	H 	0.78433	0.04817	0.81067	0.026
Mof_C 	C 	0.74838	0.90849	0.76526	-0.077
Mof_C 	C 	0.70893	0.88803	0.79955	-0.037
Mof_H 	H 	0.69583	0.90497	0.81117	0.044
Mof_H 	H 	0.84053	0.89747	0.77667	-0.04
Mof_H 	H 	0.88233	0.96377	0.67317	0.18
Mof_O 	O 	0.47529	0.02887	0.07504	-0.41
Mof_O 	O 	0.48859	0.05529	0.97362	-0.408
Mof_C 	C 	0.47694	0.05439	0.03174	0.363
Mof_C 	C 	0.46258	0.08678	0.04969	-0.122
Mof_C 	C 	0.46186	0.11472	0.00331	0.058
Mof_H 	H 	0.4713	0.1142	0.9606	0.025
Mof_C 	C 	0.44713	0.14377	0.01948	-0.14
Mof_H 	H 	0.4463	0.1626	0.9875	0.089
Mof_C 	C 	0.43393	0.14516	0.08131	0.108
Mof_C 	C 	0.43675	0.11803	0.12892	-0.14
Mof_H 	H 	0.4294	0.12	0.1724	0.079
Mof_C 	C 	0.45022	0.08855	0.11224	0.06
Mof_H 	H 	0.451	0.0695	0.144	0.026
Mof_C 	C 	0.41505	0.17323	0.09859	-0.077
Mof_C 	C 	0.3756	0.15424	0.13288	-0.037
Mof_H 	H 	0.3625	0.1242	0.1445	0.044
Mof_H 	H 	0.5072	0.2764	0.11	-0.04
Mof_H 	H 	0.549	0.2519	0.0065	0.18
Mof_O 	O 	0.14196	0.3622	0.40837	-0.41
Mof_O 	O 	0.15526	0.38862	0.30695	-0.407
Mof_C 	C 	0.14361	0.38772	0.36507	0.363
Mof_C 	C 	0.12925	0.42011	0.38302	-0.122
Mof_C 	C 	0.12853	0.44805	0.33664	0.057
Mof_H 	H 	0.13797	0.44753	0.29393	0.025
Mof_C 	C 	0.1138	0.4771	0.35281	-0.14
Mof_H 	H 	0.11297	0.49593	0.32083	0.089
Mof_C 	C 	0.1006	0.47849	0.41464	0.108
Mof_C 	C 	0.10342	0.45136	0.46225	-0.14
Mof_H 	H 	0.09607	0.45333	0.50573	0.079
Mof_C 	C 	0.11689	0.42188	0.44557	0.059
Mof_H 	H 	0.11767	0.40283	0.47733	0.026
Mof_C 	C 	0.08172	0.50656	0.43192	-0.077
Mof_C 	C 	0.04227	0.48757	0.46621	-0.037
Mof_H 	H 	0.02917	0.45753	0.47783	0.044
Mof_H 	H 	0.17387	0.60973	0.44333	-0.04
Mof_H 	H 	0.21567	0.58523	0.33983	0.18
Mof_O 	O 	0.80862	0.69554	0.74171	-0.41
Mof_O 	O 	0.82192	0.72196	0.64029	-0.407
Mof_C 	C 	0.81027	0.72106	0.69841	0.363
Mof_C 	C 	0.79591	0.75345	0.71636	-0.122
Mof_C 	C 	0.79519	0.78139	0.66998	0.057
Mof_H 	H 	0.80463	0.78087	0.62727	0.025
Mof_C 	C 	0.78046	0.81044	0.68615	-0.14
Mof_H 	H 	0.77963	0.82927	0.65417	0.089
Mof_C 	C 	0.76726	0.81183	0.74798	0.108
Mof_C 	C 	0.77008	0.7847	0.79559	-0.14
Mof_H 	H 	0.76273	0.78667	0.83907	0.079
Mof_C 	C 	0.78355	0.75522	0.77891	0.059
Mof_H 	H 	0.78433	0.73617	0.81067	0.026
Mof_C 	C 	0.74838	0.8399	0.76526	-0.078
Mof_C 	C 	0.70893	0.82091	0.79955	-0.037
Mof_H 	H 	0.69583	0.79087	0.81117	0.044
Mof_H 	H 	0.84053	0.94307	0.77667	-0.04
Mof_H 	H 	0.88233	0.91857	0.67317	0.18
Mof_O 	O 	0.97113	0.44642	0.07504	-0.41
Mof_O 	O 	0.94471	0.4333	0.97362	-0.408
Mof_C 	C 	0.94561	0.42255	0.03174	0.363
Mof_C 	C 	0.91322	0.3758	0.04969	-0.122
Mof_C 	C 	0.88528	0.34714	0.00331	0.058
Mof_H 	H 	0.8858	0.3571	0.9606	0.024
Mof_C 	C 	0.85623	0.30336	0.01948	-0.14
Mof_H 	H 	0.8374	0.2837	0.9875	0.089
Mof_C 	C 	0.85484	0.28877	0.08131	0.108
Mof_C 	C 	0.88197	0.31872	0.12892	-0.14
Mof_H 	H 	0.88	0.3094	0.1724	0.079
Mof_C 	C 	0.91145	0.36167	0.11224	0.059
Mof_H 	H 	0.9305	0.3815	0.144	0.026
Mof_C 	C 	0.82677	0.24182	0.09859	-0.077
Mof_C 	C 	0.84576	0.22136	0.13288	-0.037
Mof_H 	H 	0.8758	0.2383	0.1445	0.044
Mof_H 	H 	0.7236	0.2308	0.11	-0.04
Mof_H 	H 	0.7481	0.2971	0.0065	0.18
Mof_O 	O 	0.6378	0.77975	0.40837	-0.41
Mof_O 	O 	0.61138	0.76663	0.30695	-0.407
Mof_C 	C 	0.61228	0.75588	0.36507	0.363
Mof_C 	C 	0.57989	0.70913	0.38302	-0.122
Mof_C 	C 	0.55195	0.68047	0.33664	0.057
Mof_H 	H 	0.55247	0.69043	0.29393	0.025
Mof_C 	C 	0.5229	0.63669	0.35281	-0.14
Mof_H 	H 	0.50407	0.61703	0.32083	0.089
Mof_C 	C 	0.52151	0.6221	0.41464	0.108
Mof_C 	C 	0.54864	0.65205	0.46225	-0.14
Mof_H 	H 	0.54667	0.64273	0.50573	0.079
Mof_C 	C 	0.57812	0.695	0.44557	0.059
Mof_H 	H 	0.59717	0.71483	0.47733	0.026
Mof_C 	C 	0.49344	0.57515	0.43192	-0.077
Mof_C 	C 	0.51243	0.55469	0.46621	-0.037
Mof_H 	H 	0.54247	0.57163	0.47783	0.044
Mof_H 	H 	0.39027	0.56413	0.44333	-0.04
Mof_H 	H 	0.41477	0.63043	0.33983	0.18
Mof_O 	O 	0.30446	0.11309	0.74171	-0.41
Mof_O 	O 	0.27804	0.09997	0.64029	-0.407
Mof_C 	C 	0.27894	0.08922	0.69841	0.363
Mof_C 	C 	0.24655	0.04247	0.71636	-0.122
Mof_C 	C 	0.21861	0.01381	0.66998	0.057
Mof_H 	H 	0.21913	0.02377	0.62727	0.025
Mof_C 	C 	0.18956	0.97003	0.68615	-0.14
Mof_H 	H 	0.17073	0.95037	0.65417	0.089
Mof_C 	C 	0.18817	0.95544	0.74798	0.108
Mof_C 	C 	0.2153	0.98539	0.79559	-0.14
Mof_H 	H 	0.21333	0.97607	0.83907	0.079
Mof_C 	C 	0.24478	0.02834	0.77891	0.059
Mof_H 	H 	0.26383	0.04817	0.81067	0.026
Mof_C 	C 	0.1601	0.90849	0.76526	-0.077
Mof_C 	C 	0.17909	0.88803	0.79955	-0.037
Mof_H 	H 	0.20913	0.90497	0.81117	0.044
Mof_H 	H 	0.05693	0.89747	0.77667	-0.039
Mof_H 	H 	0.08143	0.96377	0.67317	0.18
Mof_O 	O 	0.55358	0.52471	0.07504	-0.41
Mof_O 	O 	0.5667	0.51141	0.97362	-0.407
Mof_C 	C 	0.57745	0.52306	0.03174	0.363
Mof_C 	C 	0.6242	0.53742	0.04969	-0.122
Mof_C 	C 	0.65286	0.53814	0.00331	0.057
Mof_H 	H 	0.6429	0.5287	0.9606	0.025
Mof_C 	C 	0.69664	0.55287	0.01948	-0.14
Mof_H 	H 	0.7163	0.5537	0.9875	0.089
Mof_C 	C 	0.71123	0.56607	0.08131	0.108
Mof_C 	C 	0.68128	0.56325	0.12892	-0.14
Mof_H 	H 	0.6906	0.5706	0.1724	0.079
Mof_C 	C 	0.63833	0.54978	0.11224	0.059
Mof_H 	H 	0.6185	0.549	0.144	0.026
Mof_C 	C 	0.75818	0.58495	0.09859	-0.077
Mof_C 	C 	0.77864	0.6244	0.13288	-0.037
Mof_H 	H 	0.7617	0.6375	0.1445	0.044
Mof_H 	H 	0.7692	0.4928	0.11	-0.04
Mof_H 	H 	0.7029	0.451	0.0065	0.18
Mof_O 	O 	0.22025	0.85804	0.40837	-0.41
Mof_O 	O 	0.23337	0.84474	0.30695	-0.407
Mof_C 	C 	0.24412	0.85639	0.36507	0.363
Mof_C 	C 	0.29087	0.87075	0.38302	-0.122
Mof_C 	C 	0.31953	0.87147	0.33664	0.057
Mof_H 	H 	0.30957	0.86203	0.29393	0.025
Mof_C 	C 	0.36331	0.8862	0.35281	-0.14
Mof_H 	H 	0.38297	0.88703	0.32083	0.089
Mof_C 	C 	0.3779	0.8994	0.41464	0.108
Mof_C 	C 	0.34795	0.89658	0.46225	-0.14
Mof_H 	H 	0.35727	0.90393	0.50573	0.079
Mof_C 	C 	0.305	0.88311	0.44557	0.059
Mof_H 	H 	0.28517	0.88233	0.47733	0.026
Mof_C 	C 	0.42485	0.91828	0.43192	-0.078
Mof_C 	C 	0.44531	0.95773	0.46621	-0.037
Mof_H 	H 	0.42837	0.97083	0.47783	0.044
Mof_H 	H 	0.43587	0.82613	0.44333	-0.04
Mof_H 	H 	0.36957	0.78433	0.33983	0.18
Mof_O 	O 	0.88691	0.19138	0.74171	-0.41
Mof_O 	O 	0.90003	0.17808	0.64029	-0.407
Mof_C 	C 	0.91078	0.18973	0.69841	0.363
Mof_C 	C 	0.95753	0.20409	0.71636	-0.122
Mof_C 	C 	0.98619	0.20481	0.66998	0.057
Mof_H 	H 	0.97623	0.19537	0.62727	0.025
Mof_C 	C 	0.02997	0.21954	0.68615	-0.14
Mof_H 	H 	0.04963	0.22037	0.65417	0.089
Mof_C 	C 	0.04456	0.23274	0.74798	0.108
Mof_C 	C 	0.01461	0.22992	0.79559	-0.14
Mof_H 	H 	0.02393	0.23727	0.83907	0.079
Mof_C 	C 	0.97166	0.21645	0.77891	0.059
Mof_H 	H 	0.95183	0.21567	0.81067	0.026
Mof_C 	C 	0.09151	0.25162	0.76526	-0.077
Mof_C 	C 	0.11197	0.29107	0.79955	-0.037
Mof_H 	H 	0.09503	0.30417	0.81117	0.044
Mof_H 	H 	0.10253	0.15947	0.77667	-0.04
Mof_H 	H 	0.03623	0.11767	0.67317	0.18
Mof_O 	O 	0.02887	0.47529	0.92496	-0.41
Mof_O 	O 	0.05529	0.48859	0.02638	-0.408
Mof_C 	C 	0.05439	0.47694	0.96826	0.363
Mof_C 	C 	0.08678	0.46258	0.95031	-0.122
Mof_C 	C 	0.11472	0.46186	0.99669	0.058
Mof_H 	H 	0.1142	0.4713	0.0394	0.025
Mof_C 	C 	0.14377	0.44713	0.98052	-0.14
Mof_H 	H 	0.1626	0.4463	0.0125	0.089
Mof_C 	C 	0.14516	0.43393	0.91869	0.108
Mof_C 	C 	0.11803	0.43675	0.87108	-0.14
Mof_H 	H 	0.12	0.4294	0.8276	0.079
Mof_C 	C 	0.08855	0.45022	0.88776	0.06
Mof_H 	H 	0.0695	0.451	0.856	0.026
Mof_C 	C 	0.17323	0.41505	0.90141	-0.077
Mof_C 	C 	0.15424	0.3756	0.86712	-0.037
Mof_H 	H 	0.1242	0.3625	0.8555	0.044
Mof_H 	H 	0.2764	0.5072	0.89	-0.04
Mof_H 	H 	0.2519	0.549	0.9935	0.18
Mof_O 	O 	0.69554	0.80862	0.25829	-0.41
Mof_O 	O 	0.72196	0.82192	0.35971	-0.407
Mof_C 	C 	0.72106	0.81027	0.30159	0.363
Mof_C 	C 	0.75345	0.79591	0.28364	-0.122
Mof_C 	C 	0.78139	0.79519	0.33002	0.057
Mof_H 	H 	0.78087	0.80463	0.37273	0.025
Mof_C 	C 	0.81044	0.78046	0.31385	-0.14
Mof_H 	H 	0.82927	0.77963	0.34583	0.089
Mof_C 	C 	0.81183	0.76726	0.25202	0.108
Mof_C 	C 	0.7847	0.77008	0.20441	-0.14
Mof_H 	H 	0.78667	0.76273	0.16093	0.079
Mof_C 	C 	0.75522	0.78355	0.22109	0.059
Mof_H 	H 	0.73617	0.78433	0.18933	0.026
Mof_C 	C 	0.8399	0.74838	0.23474	-0.078
Mof_C 	C 	0.82091	0.70893	0.20045	-0.037
Mof_H 	H 	0.79087	0.69583	0.18883	0.044
Mof_H 	H 	0.94307	0.84053	0.22333	-0.04
Mof_H 	H 	0.91857	0.88233	0.32683	0.18
Mof_O 	O 	0.3622	0.14196	0.59163	-0.41
Mof_O 	O 	0.38862	0.15526	0.69305	-0.407
Mof_C 	C 	0.38772	0.14361	0.63493	0.363
Mof_C 	C 	0.42011	0.12925	0.61698	-0.122
Mof_C 	C 	0.44805	0.12853	0.66336	0.057
Mof_H 	H 	0.44753	0.13797	0.70607	0.025
Mof_C 	C 	0.4771	0.1138	0.64719	-0.14
Mof_H 	H 	0.49593	0.11297	0.67917	0.089
Mof_C 	C 	0.47849	0.1006	0.58536	0.108
Mof_C 	C 	0.45136	0.10342	0.53775	-0.14
Mof_H 	H 	0.45333	0.09607	0.49427	0.079
Mof_C 	C 	0.42188	0.11689	0.55443	0.059
Mof_H 	H 	0.40283	0.11767	0.52267	0.026
Mof_C 	C 	0.50656	0.08172	0.56808	-0.077
Mof_C 	C 	0.48757	0.04227	0.53379	-0.037
Mof_H 	H 	0.45753	0.02917	0.52217	0.044
Mof_H 	H 	0.60973	0.17387	0.55667	-0.04
Mof_H 	H 	0.58523	0.21567	0.66017	0.18
Mof_O 	O 	0.44642	0.97113	0.92496	-0.41
Mof_O 	O 	0.4333	0.94471	0.02638	-0.408
Mof_C 	C 	0.42255	0.94561	0.96826	0.363
Mof_C 	C 	0.3758	0.91322	0.95031	-0.122
Mof_C 	C 	0.34714	0.88528	0.99669	0.058
Mof_H 	H 	0.3571	0.8858	0.0394	0.024
Mof_C 	C 	0.30336	0.85623	0.98052	-0.14
Mof_H 	H 	0.2837	0.8374	0.0125	0.089
Mof_C 	C 	0.28877	0.85484	0.91869	0.108
Mof_C 	C 	0.31872	0.88197	0.87108	-0.14
Mof_H 	H 	0.3094	0.88	0.8276	0.079
Mof_C 	C 	0.36167	0.91145	0.88776	0.059
Mof_H 	H 	0.3815	0.9305	0.856	0.026
Mof_C 	C 	0.24182	0.82677	0.90141	-0.077
Mof_C 	C 	0.22136	0.84576	0.86712	-0.037
Mof_H 	H 	0.2383	0.8758	0.8555	0.044
Mof_H 	H 	0.2308	0.7236	0.89	-0.04
Mof_H 	H 	0.2971	0.7481	0.9935	0.18
Mof_O 	O 	0.11309	0.30446	0.25829	-0.41
Mof_O 	O 	0.09997	0.27804	0.35971	-0.407
Mof_C 	C 	0.08922	0.27894	0.30159	0.363
Mof_C 	C 	0.04247	0.24655	0.28364	-0.122
Mof_C 	C 	0.01381	0.21861	0.33002	0.057
Mof_H 	H 	0.02377	0.21913	0.37273	0.025
Mof_C 	C 	0.97003	0.18956	0.31385	-0.14
Mof_H 	H 	0.95037	0.17073	0.34583	0.089
Mof_C 	C 	0.95544	0.18817	0.25202	0.108
Mof_C 	C 	0.98539	0.2153	0.20441	-0.14
Mof_H 	H 	0.97607	0.21333	0.16093	0.079
Mof_C 	C 	0.02834	0.24478	0.22109	0.059
Mof_H 	H 	0.04817	0.26383	0.18933	0.026
Mof_C 	C 	0.90849	0.1601	0.23474	-0.077
Mof_C 	C 	0.88803	0.17909	0.20045	-0.037
Mof_H 	H 	0.90497	0.20913	0.18883	0.044
Mof_H 	H 	0.89747	0.05693	0.22333	-0.039
Mof_H 	H 	0.96377	0.08143	0.32683	0.18
Mof_O 	O 	0.77975	0.6378	0.59163	-0.41
Mof_O 	O 	0.76663	0.61138	0.69305	-0.407
Mof_C 	C 	0.75588	0.61228	0.63493	0.363
Mof_C 	C 	0.70913	0.57989	0.61698	-0.122
Mof_C 	C 	0.68047	0.55195	0.66336	0.057
Mof_H 	H 	0.69043	0.55247	0.70607	0.025
Mof_C 	C 	0.63669	0.5229	0.64719	-0.14
Mof_H 	H 	0.61703	0.50407	0.67917	0.089
Mof_C 	C 	0.6221	0.52151	0.58536	0.108
Mof_C 	C 	0.65205	0.54864	0.53775	-0.14
Mof_H 	H 	0.64273	0.54667	0.49427	0.079
Mof_C 	C 	0.695	0.57812	0.55443	0.059
Mof_H 	H 	0.71483	0.59717	0.52267	0.026
Mof_C 	C 	0.57515	0.49344	0.56808	-0.077
Mof_C 	C 	0.55469	0.51243	0.53379	-0.037
Mof_H 	H 	0.57163	0.54247	0.52217	0.044
Mof_H 	H 	0.56413	0.39027	0.55667	-0.04
Mof_H 	H 	0.63043	0.41477	0.66017	0.18
Mof_O 	O 	0.52471	0.55358	0.92496	-0.41
Mof_O 	O 	0.51141	0.5667	0.02638	-0.407
Mof_C 	C 	0.52306	0.57745	0.96826	0.363
Mof_C 	C 	0.53742	0.6242	0.95031	-0.122
Mof_C 	C 	0.53814	0.65286	0.99669	0.057
Mof_H 	H 	0.5287	0.6429	0.0394	0.025
Mof_C 	C 	0.55287	0.69664	0.98052	-0.14
Mof_H 	H 	0.5537	0.7163	0.0125	0.089
Mof_C 	C 	0.56607	0.71123	0.91869	0.108
Mof_C 	C 	0.56325	0.68128	0.87108	-0.14
Mof_H 	H 	0.5706	0.6906	0.8276	0.079
Mof_C 	C 	0.54978	0.63833	0.88776	0.059
Mof_H 	H 	0.549	0.6185	0.856	0.026
Mof_C 	C 	0.58495	0.75818	0.90141	-0.077
Mof_C 	C 	0.6244	0.77864	0.86712	-0.037
Mof_H 	H 	0.6375	0.7617	0.8555	0.044
Mof_H 	H 	0.4928	0.7692	0.89	-0.04
Mof_H 	H 	0.451	0.7029	0.9935	0.18
Mof_O 	O 	0.19138	0.88691	0.25829	-0.41
Mof_O 	O 	0.17808	0.90003	0.35971	-0.407
Mof_C 	C 	0.18973	0.91078	0.30159	0.363
Mof_C 	C 	0.20409	0.95753	0.28364	-0.122
Mof_C 	C 	0.20481	0.98619	0.33002	0.057
Mof_H 	H 	0.19537	0.97623	0.37273	0.025
Mof_C 	C 	0.21954	0.02997	0.31385	-0.14
Mof_H 	H 	0.22037	0.04963	0.34583	0.089
Mof_C 	C 	0.23274	0.04456	0.25202	0.108
Mof_C 	C 	0.22992	0.01461	0.20441	-0.14
Mof_H 	H 	0.23727	0.02393	0.16093	0.079
Mof_C 	C 	0.21645	0.97166	0.22109	0.059
Mof_H 	H 	0.21567	0.95183	0.18933	0.026
Mof_C 	C 	0.25162	0.09151	0.23474	-0.077
Mof_C 	C 	0.29107	0.11197	0.20045	-0.037
Mof_H 	H 	0.30417	0.09503	0.18883	0.044
Mof_H 	H 	0.15947	0.10253	0.22333	-0.04
Mof_H 	H 	0.11767	0.03623	0.32683	0.18
Mof_O 	O 	0.85804	0.22025	0.59163	-0.41
Mof_O 	O 	0.84474	0.23337	0.69305	-0.407
Mof_C 	C 	0.85639	0.24412	0.63493	0.363
Mof_C 	C 	0.87075	0.29087	0.61698	-0.122
Mof_C 	C 	0.87147	0.31953	0.66336	0.057
Mof_H 	H 	0.86203	0.30957	0.70607	0.025
Mof_C 	C 	0.8862	0.36331	0.64719	-0.14
Mof_H 	H 	0.88703	0.38297	0.67917	0.089
Mof_C 	C 	0.8994	0.3779	0.58536	0.108
Mof_C 	C 	0.89658	0.34795	0.53775	-0.14
Mof_H 	H 	0.90393	0.35727	0.49427	0.079
Mof_C 	C 	0.88311	0.305	0.55443	0.059
Mof_H 	H 	0.88233	0.28517	0.52267	0.026
Mof_C 	C 	0.91828	0.42485	0.56808	-0.078
Mof_C 	C 	0.95773	0.44531	0.53379	-0.037
Mof_H 	H 	0.97083	0.42837	0.52217	0.044
Mof_H 	H 	0.82613	0.43587	0.55667	-0.04
Mof_H 	H 	0.78433	0.36957	0.66017	0.18
Mof_Cu	Cu	0.50768	0.01536	0.94049	0.903
Mof_Cu	Cu	0.17435	0.34869	0.27382	0.903
Mof_Cu	Cu	0.84101	0.68203	0.60716	0.903
Mof_Cu	Cu	0.98464	0.49232	0.94049	0.903
Mof_Cu	Cu	0.65131	0.82565	0.27382	0.903
Mof_Cu	Cu	0.31797	0.15899	0.60716	0.903
Mof_Cu	Cu	0.50768	0.49232	0.94049	0.903
Mof_Cu	Cu	0.17435	0.82565	0.27382	0.903
Mof_Cu	Cu	0.84101	0.15899	0.60716	0.903
Mof_Cu	Cu	0.01536	0.50768	0.05951	0.903
Mof_Cu	Cu	0.68203	0.84101	0.39284	0.903
Mof_Cu	Cu	0.34869	0.17435	0.72618	0.903
Mof_Cu	Cu	0.49232	0.98464	0.05951	0.903
Mof_Cu	Cu	0.15899	0.31797	0.39284	0.903
Mof_Cu	Cu	0.82565	0.65131	0.72618	0.903
Mof_Cu	Cu	0.49232	0.50768	0.05951	0.903
Mof_Cu	Cu	0.15899	0.84101	0.39284	0.903
Mof_Cu	Cu	0.82565	0.17435	0.72618	0.903
Mof_O 	O 	0.52773	0.76386	0.95385	-0.288
Mof_C 	C 	0.64541	0.8227	0.8492	0.003
Mof_C 	C 	0.56507	0.78253	0.9182	0.16
Mof_C 	C 	0.4932	0.7466	0.9179	0.26
Mof_C 	C 	0.4503	0.72515	0.9661	-0.518
Mof_H 	H 	0.4234	0.7117	0.9402	0.168
Mof_O 	O 	0.1944	0.0972	0.28718	-0.288
Mof_C 	C 	0.31208	0.15604	0.18253	0.003
Mof_C 	C 	0.23174	0.11587	0.25153	0.16
Mof_C 	C 	0.15987	0.07993	0.25123	0.26
Mof_C 	C 	0.11697	0.05848	0.29943	-0.518
Mof_H 	H 	0.09007	0.04503	0.27353	0.168
Mof_O 	O 	0.86106	0.43053	0.62052	-0.288
Mof_C 	C 	0.97874	0.48937	0.51587	0.003
Mof_C 	C 	0.8984	0.4492	0.58487	0.16
Mof_C 	C 	0.82653	0.41327	0.58457	0.26
Mof_C 	C 	0.78363	0.39182	0.63277	-0.518
Mof_H 	H 	0.75673	0.37837	0.60687	0.168
Mof_O 	O 	0.23614	0.76386	0.95385	-0.288
Mof_C 	C 	0.1773	0.8227	0.8492	0.003
Mof_C 	C 	0.21747	0.78253	0.9182	0.16
Mof_C 	C 	0.2534	0.7466	0.9179	0.26
Mof_C 	C 	0.27485	0.72515	0.9661	-0.518
Mof_H 	H 	0.2883	0.7117	0.9402	0.168
Mof_O 	O 	0.9028	0.0972	0.28718	-0.288
Mof_C 	C 	0.84396	0.15604	0.18253	0.003
Mof_C 	C 	0.88413	0.11587	0.25153	0.16
Mof_C 	C 	0.92007	0.07993	0.25123	0.26
Mof_C 	C 	0.94152	0.05848	0.29943	-0.518
Mof_H 	H 	0.95497	0.04503	0.27353	0.168
Mof_O 	O 	0.56947	0.43053	0.62052	-0.289
Mof_C 	C 	0.51063	0.48937	0.51587	0.003
Mof_C 	C 	0.5508	0.4492	0.58487	0.16
Mof_C 	C 	0.58673	0.41327	0.58457	0.26
Mof_C 	C 	0.60818	0.39182	0.63277	-0.518
Mof_H 	H 	0.62163	0.37837	0.60687	0.168
Mof_O 	O 	0.23614	0.47227	0.95385	-0.288
Mof_C 	C 	0.1773	0.35459	0.8492	0.003
Mof_C 	C 	0.21747	0.43493	0.9182	0.16
Mof_C 	C 	0.2534	0.5068	0.9179	0.26
Mof_C 	C 	0.27485	0.5497	0.9661	-0.518
Mof_H 	H 	0.2883	0.5766	0.9402	0.168
Mof_O 	O 	0.9028	0.8056	0.28718	-0.288
Mof_C 	C 	0.84396	0.68792	0.18253	0.003
Mof_C 	C 	0.88413	0.76826	0.25153	0.16
Mof_C 	C 	0.92007	0.84013	0.25123	0.26
Mof_C 	C 	0.94152	0.88303	0.29943	-0.518
Mof_H 	H 	0.95497	0.90993	0.27353	0.168
Mof_O 	O 	0.56947	0.13894	0.62052	-0.288
Mof_C 	C 	0.51063	0.02126	0.51587	0.003
Mof_C 	C 	0.5508	0.1016	0.58487	0.16
Mof_C 	C 	0.58673	0.17347	0.58457	0.26
Mof_C 	C 	0.60818	0.21637	0.63277	-0.518
Mof_H 	H 	0.62163	0.24327	0.60687	0.168
Mof_O 	O 	0.76386	0.52773	0.04615	-0.288
Mof_C 	C 	0.8227	0.64541	0.1508	0.003
Mof_C 	C 	0.78253	0.56507	0.0818	0.16
Mof_C 	C 	0.7466	0.4932	0.0821	0.26
Mof_C 	C 	0.72515	0.4503	0.0339	-0.518
Mof_H 	H 	0.7117	0.4234	0.0598	0.168
Mof_O 	O 	0.43053	0.86106	0.37948	-0.288
Mof_C 	C 	0.48937	0.97874	0.48413	0.003
Mof_C 	C 	0.4492	0.8984	0.41513	0.16
Mof_C 	C 	0.41327	0.82653	0.41543	0.26
Mof_C 	C 	0.39182	0.78363	0.36723	-0.518
Mof_H 	H 	0.37837	0.75673	0.39313	0.168
Mof_O 	O 	0.0972	0.1944	0.71282	-0.288
Mof_C 	C 	0.15604	0.31208	0.81747	0.003
Mof_C 	C 	0.11587	0.23174	0.74847	0.16
Mof_C 	C 	0.07993	0.15987	0.74877	0.26
Mof_C 	C 	0.05848	0.11697	0.70057	-0.518
Mof_H 	H 	0.04503	0.09007	0.72647	0.168
Mof_O 	O 	0.76386	0.23614	0.04615	-0.288
Mof_C 	C 	0.8227	0.1773	0.1508	0.003
Mof_C 	C 	0.78253	0.21747	0.0818	0.16
Mof_C 	C 	0.7466	0.2534	0.0821	0.26
Mof_C 	C 	0.72515	0.27485	0.0339	-0.518
Mof_H 	H 	0.7117	0.2883	0.0598	0.168
Mof_O 	O 	0.43053	0.56947	0.37948	-0.289
Mof_C 	C 	0.48937	0.51063	0.48413	0.003
Mof_C 	C 	0.4492	0.5508	0.41513	0.16
Mof_C 	C 	0.41327	0.58673	0.41543	0.26
Mof_C 	C 	0.39182	0.60818	0.36723	-0.518
Mof_H 	H 	0.37837	0.62163	0.39313	0.168
Mof_O 	O 	0.0972	0.9028	0.71282	-0.288
Mof_C 	C 	0.15604	0.84396	0.81747	0.003
Mof_C 	C 	0.11587	0.88413	0.74847	0.16
Mof_C 	C 	0.07993	0.92007	0.74877	0.26
Mof_C 	C 	0.05848	0.94152	0.70057	-0.518
Mof_H 	H 	0.04503	0.95497	0.72647	0.168
Mof_O 	O 	0.47227	0.23614	0.04615	-0.288
Mof_C 	C 	0.35459	0.1773	0.1508	0.003
Mof_C 	C 	0.43493	0.21747	0.0818	0.16
Mof_C 	C 	0.5068	0.2534	0.0821	0.26
Mof_C 	C 	0.5497	0.27485	0.0339	-0.518
Mof_H 	H 	0.5766	0.2883	0.0598	0.168
Mof_O 	O 	0.13894	0.56947	0.37948	-0.288
Mof_C 	C 	0.02126	0.51063	0.48413	0.003
Mof_C 	C 	0.1016	0.5508	0.41513	0.16
Mof_C 	C 	0.17347	0.58673	0.41543	0.26
Mof_C 	C 	0.21637	0.60818	0.36723	-0.518
Mof_H 	H 	0.24327	0.62163	0.39313	0.168
Mof_O 	O 	0.8056	0.9028	0.71282	-0.288
Mof_C 	C 	0.68792	0.84396	0.81747	0.003
Mof_C 	C 	0.76826	0.88413	0.74847	0.16
Mof_C 	C 	0.84013	0.92007	0.74877	0.26
Mof_C 	C 	0.88303	0.94152	0.70057	-0.518
Mof_H 	H 	0.90993	0.95497	0.72647	0.168
_end
