data_functionalizedCrystal
_audit_creation_method	'EQeq! by Chris Wilmer'
_symmetry_space_group_name_H-M	'P1'
_symmetry_Int_Tables_number	1
_symmetry_cell_setting	triclinic
loop_
_symmetry_equiv_pos_as_xyz
  x,y,z
_cell_length_a	13.838
_cell_length_b	12.784
_cell_length_c	16.885
_cell_angle_alpha	90
_cell_angle_beta	90
_cell_angle_gamma	90
loop_
_atom_site_label
_atom_site_type_symbol
_atom_site_fract_x
_atom_site_fract_y
_atom_site_fract_z
_atom_site_charge
Mof_Zn	Zn	0.59354	0.97602	0.92413	1.183
Mof_Zn	Zn	0.47753	0.43198	0.90213	1.184
Mof_C 	C 	0.5896	0.9782	0.7546	0.236
Mof_C 	C 	0.4938	0.9258	0.7779	0.201
Mof_C 	C 	0.5481	0.2053	0.9124	0.186
Mof_C 	C 	0.4178	0.2247	0.9766	0.168
Mof_C 	C 	0.7799	0.0214	0.0222	0.178
Mof_C 	C 	0.812	0.9757	0.9054	0.09
Mof_H 	H 	0.8052	0.9552	0.8528	-0.012
Mof_N 	N 	0.4789	0.2771	0.9274	-0.313
Mof_N 	N 	0.5326	0.1156	0.9491	-0.27
Mof_N 	N 	0.4473	0.1282	0.9906	-0.262
Mof_N 	N 	0.6278	0.225	0.8655	-0.34
Mof_H 	H 	0.671	0.1774	0.8588	0.146
Mof_H 	H 	0.6343	0.2849	0.8429	0.154
Mof_N 	N 	0.8959	0.9887	0.9398	-0.261
Mof_N 	N 	0.8756	0.018	0.0176	-0.271
Mof_N 	N 	0.737	0.9947	0.9534	-0.293
Mof_N 	N 	0.7298	0.0517	0.0873	-0.341
Mof_H 	H 	0.7602	0.0706	0.1294	0.16
Mof_H 	H 	0.6677	0.0522	0.0865	0.141
Mof_O 	O 	0.6438	0.0071	0.8094	-0.405
Mof_O 	O 	0.4784	0.9162	0.8503	-0.4
Mof_O 	O 	0.6063	0.992	0.6823	-0.437
Mof_O 	O 	0.4416	0.8973	0.7209	-0.348
Mof_H 	H 	0.2922	0.2097	0.0297	0.116
Mof_H 	H 	0.3063	0.3163	0.996	0.138
Mof_N 	N 	0.327	0.254	0.004	-0.331
Mof_Zn	Zn	0.90646	0.02398	0.42413	1.182
Mof_Zn	Zn	0.02247	0.56802	0.40213	1.184
Mof_C 	C 	0.9104	0.0218	0.2546	0.218
Mof_C 	C 	0.0062	0.0742	0.2779	0.215
Mof_C 	C 	0.9519	0.7947	0.4124	0.191
Mof_C 	C 	0.0822	0.7753	0.4766	0.164
Mof_C 	C 	0.7201	0.9786	0.5222	0.19
Mof_C 	C 	0.688	0.0243	0.4054	0.088
Mof_H 	H 	0.6948	0.0448	0.3528	-0.014
Mof_N 	N 	0.0211	0.7229	0.4274	-0.316
Mof_N 	N 	0.9674	0.8844	0.4491	-0.268
Mof_N 	N 	0.0527	0.8718	0.4906	-0.268
Mof_N 	N 	0.8722	0.775	0.3655	-0.341
Mof_H 	H 	0.829	0.8226	0.3588	0.147
Mof_H 	H 	0.8657	0.7151	0.3429	0.155
Mof_N 	N 	0.6041	0.0113	0.4398	-0.266
Mof_N 	N 	0.6244	0.982	0.5176	-0.267
Mof_N 	N 	0.763	0.0053	0.4534	-0.299
Mof_N 	N 	0.7702	0.9483	0.5873	-0.343
Mof_H 	H 	0.7398	0.9294	0.6294	0.162
Mof_H 	H 	0.8323	0.9478	0.5865	0.145
Mof_O 	O 	0.8562	0.9929	0.3094	-0.392
Mof_O 	O 	0.0216	0.0838	0.3503	-0.399
Mof_O 	O 	0.8937	0.008	0.1823	-0.436
Mof_O 	O 	0.0584	0.1027	0.2209	-0.348
Mof_H 	H 	0.2078	0.7903	0.5297	0.114
Mof_H 	H 	0.1937	0.6837	0.496	0.134
Mof_N 	N 	0.173	0.746	0.504	-0.327
Mof_Zn	Zn	0.40646	0.47602	0.57587	1.185
Mof_Zn	Zn	0.52247	0.93198	0.59787	1.185
Mof_C 	C 	0.4104	0.4782	0.7454	0.24
Mof_C 	C 	0.5062	0.4258	0.7221	0.202
Mof_C 	C 	0.4519	0.7053	0.5876	0.186
Mof_C 	C 	0.5822	0.7247	0.5234	0.165
Mof_C 	C 	0.2201	0.5214	0.4778	0.185
Mof_C 	C 	0.188	0.4757	0.5946	0.089
Mof_H 	H 	0.1948	0.4552	0.6472	-0.012
Mof_N 	N 	0.5211	0.7771	0.5726	-0.313
Mof_N 	N 	0.4674	0.6156	0.5509	-0.271
Mof_N 	N 	0.5527	0.6282	0.5094	-0.264
Mof_N 	N 	0.3722	0.725	0.6345	-0.34
Mof_H 	H 	0.329	0.6774	0.6412	0.145
Mof_H 	H 	0.3657	0.7849	0.6571	0.153
Mof_N 	N 	0.1041	0.4887	0.5602	-0.265
Mof_N 	N 	0.1244	0.518	0.4824	-0.267
Mof_N 	N 	0.263	0.4947	0.5466	-0.295
Mof_N 	N 	0.2702	0.5517	0.4127	-0.342
Mof_H 	H 	0.2398	0.5706	0.3706	0.161
Mof_H 	H 	0.3323	0.5522	0.4135	0.143
Mof_O 	O 	0.3562	0.5071	0.6906	-0.407
Mof_O 	O 	0.5216	0.4162	0.6497	-0.399
Mof_O 	O 	0.3937	0.492	0.8177	-0.438
Mof_O 	O 	0.5584	0.3973	0.7791	-0.348
Mof_H 	H 	0.7078	0.7097	0.4703	0.115
Mof_H 	H 	0.6937	0.8163	0.504	0.135
Mof_N 	N 	0.673	0.754	0.496	-0.327
Mof_Zn	Zn	0.09354	0.52398	0.07587	1.185
Mof_Zn	Zn	0.97753	0.06802	0.09787	1.182
Mof_C 	C 	0.0896	0.5218	0.2454	0.239
Mof_C 	C 	0.9938	0.5742	0.2221	0.202
Mof_C 	C 	0.0481	0.2947	0.0876	0.191
Mof_C 	C 	0.9178	0.2753	0.0234	0.16
Mof_C 	C 	0.2799	0.4786	0.9778	0.184
Mof_C 	C 	0.312	0.5243	0.0946	0.089
Mof_H 	H 	0.3052	0.5448	0.1472	-0.013
Mof_N 	N 	0.9789	0.2229	0.0726	-0.316
Mof_N 	N 	0.0326	0.3844	0.0509	-0.271
Mof_N 	N 	0.9473	0.3718	0.0094	-0.265
Mof_N 	N 	0.1278	0.275	0.1345	-0.341
Mof_H 	H 	0.171	0.3226	0.1412	0.146
Mof_H 	H 	0.1343	0.2151	0.1571	0.154
Mof_N 	N 	0.3959	0.5113	0.0602	-0.266
Mof_N 	N 	0.3756	0.482	0.9824	-0.268
Mof_N 	N 	0.237	0.5053	0.0466	-0.295
Mof_N 	N 	0.2298	0.4483	0.9127	-0.342
Mof_H 	H 	0.2602	0.4294	0.8706	0.161
Mof_H 	H 	0.1677	0.4478	0.9135	0.143
Mof_O 	O 	0.1438	0.4929	0.1906	-0.407
Mof_O 	O 	0.9784	0.5838	0.1497	-0.397
Mof_O 	O 	0.1063	0.508	0.3177	-0.438
Mof_O 	O 	0.9416	0.6027	0.2791	-0.347
Mof_H 	H 	0.7922	0.2903	0.9703	0.114
Mof_H 	H 	0.8063	0.1837	0.004	0.13
Mof_N 	N 	0.827	0.246	0.996	-0.32
Mof_Zn	Zn	0.40646	0.02398	0.07587	1.184
Mof_Zn	Zn	0.52247	0.56802	0.09787	1.185
Mof_C 	C 	0.4104	0.0218	0.2454	0.237
Mof_C 	C 	0.5062	0.0742	0.2221	0.202
Mof_C 	C 	0.4519	0.7947	0.0876	0.187
Mof_C 	C 	0.5822	0.7753	0.0234	0.169
Mof_C 	C 	0.2201	0.9786	0.9778	0.178
Mof_C 	C 	0.188	0.0243	0.0946	0.09
Mof_H 	H 	0.1948	0.0448	0.1472	-0.012
Mof_N 	N 	0.5211	0.7229	0.0726	-0.313
Mof_N 	N 	0.4674	0.8844	0.0509	-0.27
Mof_N 	N 	0.5527	0.8718	0.0094	-0.262
Mof_N 	N 	0.3722	0.775	0.1345	-0.34
Mof_H 	H 	0.329	0.8226	0.1412	0.146
Mof_H 	H 	0.3657	0.7151	0.1571	0.154
Mof_N 	N 	0.1041	0.0113	0.0602	-0.261
Mof_N 	N 	0.1244	0.982	0.9824	-0.271
Mof_N 	N 	0.263	0.0053	0.0466	-0.293
Mof_N 	N 	0.2702	0.9483	0.9127	-0.341
Mof_H 	H 	0.2398	0.9294	0.8706	0.16
Mof_H 	H 	0.3323	0.9478	0.9135	0.141
Mof_O 	O 	0.3562	0.9929	0.1906	-0.405
Mof_O 	O 	0.5216	0.0838	0.1497	-0.4
Mof_O 	O 	0.3937	0.008	0.3177	-0.437
Mof_O 	O 	0.5584	0.1027	0.2791	-0.348
Mof_H 	H 	0.7078	0.7903	0.9703	0.116
Mof_H 	H 	0.6937	0.6837	0.004	0.138
Mof_N 	N 	0.673	0.746	0.996	-0.331
Mof_Zn	Zn	0.09354	0.97602	0.57587	1.182
Mof_Zn	Zn	0.97753	0.43198	0.59787	1.184
Mof_C 	C 	0.0896	0.9782	0.7454	0.218
Mof_C 	C 	0.9938	0.9258	0.7221	0.215
Mof_C 	C 	0.0481	0.2053	0.5876	0.191
Mof_C 	C 	0.9178	0.2247	0.5234	0.164
Mof_C 	C 	0.2799	0.0214	0.4778	0.19
Mof_C 	C 	0.312	0.9757	0.5946	0.088
Mof_H 	H 	0.3052	0.9552	0.6472	-0.014
Mof_N 	N 	0.9789	0.2771	0.5726	-0.316
Mof_N 	N 	0.0326	0.1156	0.5509	-0.268
Mof_N 	N 	0.9473	0.1282	0.5094	-0.268
Mof_N 	N 	0.1278	0.225	0.6345	-0.341
Mof_H 	H 	0.171	0.1774	0.6412	0.147
Mof_H 	H 	0.1343	0.2849	0.6571	0.155
Mof_N 	N 	0.3959	0.9887	0.5602	-0.266
Mof_N 	N 	0.3756	0.018	0.4824	-0.267
Mof_N 	N 	0.237	0.9947	0.5466	-0.299
Mof_N 	N 	0.2298	0.0517	0.4127	-0.343
Mof_H 	H 	0.2602	0.0706	0.3706	0.162
Mof_H 	H 	0.1677	0.0522	0.4135	0.145
Mof_O 	O 	0.1438	0.0071	0.6906	-0.392
Mof_O 	O 	0.9784	0.9162	0.6497	-0.399
Mof_O 	O 	0.1063	0.992	0.8177	-0.436
Mof_O 	O 	0.9416	0.8973	0.7791	-0.348
Mof_H 	H 	0.7922	0.2097	0.4703	0.114
Mof_H 	H 	0.8063	0.3163	0.504	0.134
Mof_N 	N 	0.827	0.254	0.496	-0.327
Mof_Zn	Zn	0.59354	0.52398	0.42413	1.185
Mof_Zn	Zn	0.47753	0.06802	0.40213	1.185
Mof_C 	C 	0.5896	0.5218	0.2546	0.24
Mof_C 	C 	0.4938	0.5742	0.2779	0.202
Mof_C 	C 	0.5481	0.2947	0.4124	0.186
Mof_C 	C 	0.4178	0.2753	0.4766	0.165
Mof_C 	C 	0.7799	0.4786	0.5222	0.185
Mof_C 	C 	0.812	0.5243	0.4054	0.089
Mof_H 	H 	0.8052	0.5448	0.3528	-0.012
Mof_N 	N 	0.4789	0.2229	0.4274	-0.313
Mof_N 	N 	0.5326	0.3844	0.4491	-0.271
Mof_N 	N 	0.4473	0.3718	0.4906	-0.264
Mof_N 	N 	0.6278	0.275	0.3655	-0.34
Mof_H 	H 	0.671	0.3226	0.3588	0.145
Mof_H 	H 	0.6343	0.2151	0.3429	0.153
Mof_N 	N 	0.8959	0.5113	0.4398	-0.265
Mof_N 	N 	0.8756	0.482	0.5176	-0.267
Mof_N 	N 	0.737	0.5053	0.4534	-0.295
Mof_N 	N 	0.7298	0.4483	0.5873	-0.342
Mof_H 	H 	0.7602	0.4294	0.6294	0.161
Mof_H 	H 	0.6677	0.4478	0.5865	0.143
Mof_O 	O 	0.6438	0.4929	0.3094	-0.407
Mof_O 	O 	0.4784	0.5838	0.3503	-0.399
Mof_O 	O 	0.6063	0.508	0.1823	-0.438
Mof_O 	O 	0.4416	0.6027	0.2209	-0.348
Mof_H 	H 	0.2922	0.2903	0.5297	0.115
Mof_H 	H 	0.3063	0.1837	0.496	0.135
Mof_N 	N 	0.327	0.246	0.504	-0.327
Mof_Zn	Zn	0.90646	0.47602	0.92413	1.185
Mof_Zn	Zn	0.02247	0.93198	0.90213	1.182
Mof_C 	C 	0.9104	0.4782	0.7546	0.239
Mof_C 	C 	0.0062	0.4258	0.7779	0.202
Mof_C 	C 	0.9519	0.7053	0.9124	0.191
Mof_C 	C 	0.0822	0.7247	0.9766	0.16
Mof_C 	C 	0.7201	0.5214	0.0222	0.184
Mof_C 	C 	0.688	0.4757	0.9054	0.089
Mof_H 	H 	0.6948	0.4552	0.8528	-0.013
Mof_N 	N 	0.0211	0.7771	0.9274	-0.316
Mof_N 	N 	0.9674	0.6156	0.9491	-0.271
Mof_N 	N 	0.0527	0.6282	0.9906	-0.265
Mof_N 	N 	0.8722	0.725	0.8655	-0.341
Mof_H 	H 	0.829	0.6774	0.8588	0.146
Mof_H 	H 	0.8657	0.7849	0.8429	0.154
Mof_N 	N 	0.6041	0.4887	0.9398	-0.266
Mof_N 	N 	0.6244	0.518	0.0176	-0.268
Mof_N 	N 	0.763	0.4947	0.9534	-0.295
Mof_N 	N 	0.7702	0.5517	0.0873	-0.342
Mof_H 	H 	0.7398	0.5706	0.1294	0.161
Mof_H 	H 	0.8323	0.5522	0.0865	0.143
Mof_O 	O 	0.8562	0.5071	0.8094	-0.407
Mof_O 	O 	0.0216	0.4162	0.8503	-0.397
Mof_O 	O 	0.8937	0.492	0.6823	-0.438
Mof_O 	O 	0.0584	0.3973	0.7209	-0.347
Mof_H 	H 	0.2078	0.7097	0.0297	0.114
Mof_H 	H 	0.1937	0.8163	0.996	0.13
Mof_N 	N 	0.173	0.754	0.004	-0.32
_end
