# CIF file generated by openbabel 3.1.0, see https://openbabel.org
data_I
_chemical_name_common 'image0'
_cell_length_a 9.53
_cell_length_b 12.5401
_cell_length_c 18.8719
_cell_angle_alpha 105.932
_cell_angle_beta 98.86
_cell_angle_gamma 100.482
_space_group_name_H-M_alt 'P 1'
_space_group_name_Hall 'P 1'
loop_
    _symmetry_equiv_pos_as_xyz
    x,y,z
loop_
    _atom_site_label
    _atom_site_type_symbol
    _atom_site_fract_x
    _atom_site_fract_y
    _atom_site_fract_z
    _atom_site_occupancy
    Pr1      Pr       0.76582    0.48222    0.49636    1.000
    O1       O        0.45630    0.52980    0.58667    1.000
    O2       O        0.68670    0.51980    0.61744    1.000
    N1       N        0.00350    0.65190    0.18160    1.000
    N2       N        0.56730    0.66290    0.86630    1.000
    N3       N        0.95700    0.11000    0.17410    1.000
    O3       O        0.76680    0.31980    0.38560    1.000
    C1       C        0.90540    0.92010    0.07330    1.000
    C2       C        0.97990    0.84920    0.10160    1.000
    C3       C        0.56810    0.53810    0.63270    1.000
    O4       O        0.00630    0.39130    0.42490    1.000
    C4       C        0.92260    0.73190    0.07800    1.000
    O5       O        0.86120    0.56940    0.40500    1.000
    C5       C        0.77260    0.87580    0.02250    1.000
    C6       C        0.92070    0.24340    0.30740    1.000
    C7       C        0.71020    0.75570    0.00130    1.000
    C8       C        0.69140    0.59820    0.77070    1.000
    H1       H        0.77840    0.58200    0.75630    1.000
    C9       C        0.43950    0.59790    0.74000    1.000
    H2       H        0.35100    0.58280    0.70410    1.000
    C10      C        0.56570    0.57860    0.71630    1.000
    C11      C        0.89580    0.32390    0.37850    1.000
    C12      C        0.44290    0.63900    0.81560    1.000
    H3       H        0.35590    0.65050    0.83200    1.000
    C13      C        0.78650    0.68450    0.02840    1.000
    C14      C        0.12440    0.89950    0.15880    1.000
    H4       H        0.16240    0.83790    0.17140    1.000
    H5       H        0.10910    0.95180    0.20470    1.000
    H6       H        0.19470    0.94140    0.13740    1.000
    C15      C        0.86910    0.63430    0.27360    1.000
    H7       H        0.77950    0.63140    0.28990    1.000
    C16      C        0.98960    0.62520    0.31870    1.000
    C17      C        0.00910    0.65450    0.10110    1.000
    H8       H        0.11200    0.68020    0.09830    1.000
    H9       H        0.97040    0.57630    0.06540    1.000
    C18      C        0.05790    0.23680    0.29660    1.000
    H10      H        0.14120    0.27750    0.33570    1.000
    C19      C        0.68900    0.64150    0.84590    1.000
    H11      H        0.77500    0.65600    0.88340    1.000
    C20      C        0.07380    0.17080    0.22880    1.000
    H12      H        0.16910    0.16820    0.22030    1.000
    C21      C        0.97550    0.04580    0.09710    1.000
    H13      H        0.93210    0.07890    0.05950    1.000
    H14      H        0.08110    0.05600    0.09750    1.000
    C22      C        0.12070    0.63120    0.29400    1.000
    H15      H        0.20610    0.62630    0.32520    1.000
    C23      C        0.12540    0.64420    0.22430    1.000
    H16      H        0.21360    0.64760    0.20660    1.000
    C24      C        0.87730    0.64770    0.20390    1.000
    H17      H        0.79360    0.65400    0.17220    1.000
    C25      C        0.79930    0.17710    0.25160    1.000
    H18      H        0.70330    0.17780    0.25940    1.000
    C26      C        0.68670    0.94800    0.98880    1.000
    H19      H        0.60120    0.95440    0.01120    1.000
    H20      H        0.65450    0.91180    0.93410    1.000
    H21      H        0.74920    0.02430    0.99940    1.000
    C27      C        0.82150    0.10950    0.18400    1.000
    H22      H        0.74020    0.06320    0.14510    1.000
    C28      C        0.56170    0.70720    0.95030    1.000
    H23      H        0.50530    0.76690    0.95710    1.000
    H24      H        0.50960    0.64370    0.96510    1.000
    C29      C        0.72370    0.55680    0.00330    1.000
    H25      H        0.79640    0.51720    0.98420    1.000
    H26      H        0.63590    0.53680    0.96320    1.000
    H27      H        0.69830    0.53390    0.04620    1.000
    O6       O        0.10670    0.62550    0.43860    1.000
    C30      C        0.98450    0.60590    0.39510    1.000
    Pr2      Pr       0.23418    0.51778    0.50364    1.000
    O7       O        0.54370    0.47020    0.41333    1.000
    O8       O        0.31330    0.48020    0.38256    1.000
    N4       N        0.99650    0.34810    0.81840    1.000
    N5       N        0.43270    0.33710    0.13370    1.000
    N6       N        0.04300    0.89000    0.82590    1.000
    O9       O        0.23320    0.68020    0.61440    1.000
    C31      C        0.09460    0.07990    0.92670    1.000
    C32      C        0.02010    0.15080    0.89840    1.000
    C33      C        0.43190    0.46190    0.36730    1.000
    O10      O        0.99370    0.60870    0.57510    1.000
    C34      C        0.07740    0.26810    0.92200    1.000
    O11      O        0.13880    0.43060    0.59500    1.000
    C35      C        0.22740    0.12420    0.97750    1.000
    C36      C        0.07930    0.75660    0.69260    1.000
    C37      C        0.28980    0.24430    0.99870    1.000
    C38      C        0.30860    0.40180    0.22930    1.000
    H28      H        0.22160    0.41800    0.24370    1.000
    C39      C        0.56050    0.40210    0.26000    1.000
    H29      H        0.64900    0.41720    0.29590    1.000
    C40      C        0.43430    0.42140    0.28370    1.000
    C41      C        0.10420    0.67610    0.62150    1.000
    C42      C        0.55710    0.36100    0.18440    1.000
    H30      H        0.64410    0.34950    0.16800    1.000
    C43      C        0.21350    0.31550    0.97160    1.000
    C44      C        0.87560    0.10050    0.84120    1.000
    H31      H        0.83760    0.16210    0.82860    1.000
    H32      H        0.89090    0.04820    0.79530    1.000
    H33      H        0.80530    0.05860    0.86260    1.000
    C45      C        0.13090    0.36570    0.72640    1.000
    H34      H        0.22050    0.36860    0.71010    1.000
    C46      C        0.01040    0.37480    0.68130    1.000
    C47      C        0.99090    0.34550    0.89890    1.000
    H35      H        0.88800    0.31980    0.90170    1.000
    H36      H        0.02960    0.42370    0.93460    1.000
    C48      C        0.94210    0.76320    0.70340    1.000
    H37      H        0.85880    0.72250    0.66430    1.000
    C49      C        0.31100    0.35850    0.15410    1.000
    H38      H        0.22500    0.34400    0.11660    1.000
    C50      C        0.92620    0.82920    0.77120    1.000
    H39      H        0.83090    0.83180    0.77970    1.000
    C51      C        0.02450    0.95420    0.90290    1.000
    H40      H        0.06790    0.92110    0.94050    1.000
    H41      H        0.91890    0.94400    0.90250    1.000
    C52      C        0.87930    0.36880    0.70600    1.000
    H42      H        0.79390    0.37370    0.67480    1.000
    C53      C        0.87460    0.35580    0.77570    1.000
    H43      H        0.78640    0.35240    0.79340    1.000
    C54      C        0.12270    0.35230    0.79610    1.000
    H44      H        0.20640    0.34600    0.82780    1.000
    C55      C        0.20070    0.82290    0.74840    1.000
    H45      H        0.29670    0.82220    0.74060    1.000
    C56      C        0.31330    0.05200    0.01120    1.000
    H46      H        0.39880    0.04560    0.98880    1.000
    H47      H        0.34550    0.08820    0.06590    1.000
    H48      H        0.25080    0.97570    0.00060    1.000
    C57      C        0.17850    0.89050    0.81600    1.000
    H49      H        0.25980    0.93680    0.85490    1.000
    C58      C        0.43830    0.29280    0.04970    1.000
    H50      H        0.49470    0.23310    0.04290    1.000
    H51      H        0.49040    0.35630    0.03490    1.000
    C59      C        0.27630    0.44320    0.99670    1.000
    H52      H        0.20360    0.48280    0.01580    1.000
    H53      H        0.36410    0.46320    0.03680    1.000
    H54      H        0.30170    0.46610    0.95380    1.000
    O12      O        0.89330    0.37450    0.56140    1.000
    C60      C        0.01550    0.39410    0.60490    1.000
