data_functionalizedCrystal
_audit_creation_method	'EQeq! by Chris Wilmer'
_symmetry_space_group_name_H-M	'P1'
_symmetry_Int_Tables_number	1
_symmetry_cell_setting	triclinic
loop_
_symmetry_equiv_pos_as_xyz
  x,y,z
_cell_length_a	8.5879
_cell_length_b	8.5879
_cell_length_c	20.8637
_cell_angle_alpha	100.897
_cell_angle_beta	100.897
_cell_angle_gamma	94.6714
loop_
_atom_site_label
_atom_site_type_symbol
_atom_site_fract_x
_atom_site_fract_y
_atom_site_fract_z
_atom_site_charge
Mof_Mg	Mg	0.58313	0.71035	0.33266	1.465
Mof_Mg	Mg	0.28965	0.41687	0.66734	1.465
Mof_Mg	Mg	0.37231	0.99953	0.83266	1.466
Mof_Mg	Mg	0.00047	0.62769	0.16734	1.465
Mof_Mg	Mg	0.70273	0.29727	0.5	1.464
Mof_Mg	Mg	0.95273	0.04727	-0	1.455
Mof_H 	H 	0.0331	0.0413	0.3796	0.274
Mof_H 	H 	0.9702	0.2114	0.3976	0.273
Mof_H 	H 	0.0318	0.119	0.4556	0.278
Mof_H 	H 	0.9893	0.7221	0.421	0.269
Mof_H 	H 	0.0608	0.555	0.4166	0.276
Mof_H 	H 	0.9506	0.5934	0.352	0.272
Mof_H 	H 	0.5519	0.3533	0.2536	0.266
Mof_H 	H 	0.6393	0.2511	0.2016	0.25
Mof_H 	H 	0.7247	0.3033	0.2788	0.256
Mof_H 	H 	0.9587	0.9669	0.6204	0.25
Mof_H 	H 	0.7886	0.0298	0.6024	0.258
Mof_H 	H 	0.881	0.9682	0.5444	0.254
Mof_H 	H 	0.2779	0.0107	0.579	0.265
Mof_H 	H 	0.445	0.9392	0.5834	0.265
Mof_H 	H 	0.4066	0.0494	0.648	0.269
Mof_H 	H 	0.6467	0.4481	0.7464	0.269
Mof_H 	H 	0.7489	0.3607	0.7984	0.259
Mof_H 	H 	0.6967	0.2753	0.7212	0.26
Mof_H 	H 	0.0883	0.5965	0.8796	0.26
Mof_H 	H 	0.9362	0.6774	0.8976	0.257
Mof_H 	H 	0.0866	0.6738	0.9556	0.281
Mof_H 	H 	0.4489	0.6817	0.921	0.282
Mof_H 	H 	0.6116	0.6058	0.9166	0.279
Mof_H 	H 	0.5086	0.6514	0.852	0.273
Mof_H 	H 	0.6503	0.9517	0.7536	0.269
Mof_H 	H 	0.7005	0.8123	0.7016	0.256
Mof_H 	H 	0.7255	0.8041	0.7788	0.26
Mof_H 	H 	0.4035	0.9117	0.1204	0.234
Mof_H 	H 	0.3226	0.0638	0.1024	0.236
Mof_H 	H 	0.3262	0.9134	0.0444	0.219
Mof_H 	H 	0.3183	0.5511	0.079	0.244
Mof_H 	H 	0.3942	0.3884	0.0834	0.245
Mof_H 	H 	0.3486	0.4914	0.148	0.259
Mof_H 	H 	0.0483	0.3497	0.2464	0.272
Mof_H 	H 	0.1877	0.2995	0.2984	0.258
Mof_H 	H 	0.1959	0.2745	0.2212	0.26
Mof_C 	C 	0.8077	0.02364	0.40032	0.641
Mof_C 	C 	0.97546	0.10608	0.40902	-0.961
Mof_C 	C 	0.82178	0.53506	0.41984	0.64
Mof_C 	C 	0.96856	0.60782	0.4007	-0.946
Mof_C 	C 	0.73258	0.48882	0.22908	0.628
Mof_C 	C 	0.65529	0.33561	0.24192	-0.909
Mof_C 	C 	0.97636	0.1923	0.59968	0.616
Mof_C 	C 	0.89392	0.02454	0.59098	-0.899
Mof_C 	C 	0.46494	0.17822	0.58016	0.634
Mof_C 	C 	0.39218	0.03144	0.5993	-0.923
Mof_C 	C 	0.51118	0.26742	0.77092	0.631
Mof_C 	C 	0.66439	0.34471	0.75808	-0.915
Mof_C 	C 	0.12668	0.84262	0.90032	0.631
Mof_C 	C 	0.05294	0.68356	0.90902	-0.895
Mof_C 	C 	0.63478	0.84806	0.91984	0.641
Mof_C 	C 	0.54288	0.68214	0.9007	-0.935
Mof_C 	C 	0.49026	0.7465	0.72908	0.63
Mof_C 	C 	0.65631	0.83663	0.74192	-0.914
Mof_C 	C 	0.15738	0.87332	0.09968	0.611
Mof_C 	C 	0.31644	0.94706	0.09098	-0.853
Mof_C 	C 	0.15194	0.36522	0.08016	0.624
Mof_C 	C 	0.31786	0.45712	0.0993	-0.898
Mof_C 	C 	0.2535	0.50974	0.27092	0.632
Mof_C 	C 	0.16337	0.34369	0.25808	-0.917
Mof_O 	O 	0.76853	0.89297	0.3592	-0.62
Mof_O 	O 	0.71622	0.0887	0.43534	-0.621
Mof_O 	O 	0.68645	0.56903	0.3941	-0.617
Mof_O 	O 	0.84196	0.44478	0.46068	-0.622
Mof_O 	O 	0.83084	0.47794	0.19172	-0.632
Mof_O 	O 	0.69507	0.62037	0.25764	-0.62
Mof_O 	O 	0.10703	0.23147	0.6408	-0.606
Mof_O 	O 	0.9113	0.28378	0.56466	-0.615
Mof_O 	O 	0.43097	0.31355	0.6059	-0.615
Mof_O 	O 	0.55522	0.15804	0.53932	-0.618
Mof_O 	O 	0.52206	0.16916	0.80828	-0.615
Mof_O 	O 	0.37963	0.30493	0.74236	-0.615
Mof_O 	O 	0.21623	0.84067	0.8592	-0.608
Mof_O 	O 	0.09664	0.96912	0.93534	-0.58
Mof_O 	O 	0.57507	0.95765	0.8941	-0.603
Mof_O 	O 	0.7659	0.86872	0.96068	-0.59
Mof_O 	O 	0.46378	0.61088	0.69172	-0.62
Mof_O 	O 	0.38727	0.81257	0.75764	-0.616
Mof_O 	O 	0.15933	0.78377	0.1408	-0.614
Mof_O 	O 	0.03088	0.90336	0.06466	-0.632
Mof_O 	O 	0.04235	0.42493	0.1059	-0.621
Mof_O 	O 	0.13128	0.2341	0.03932	-0.643
Mof_O 	O 	0.38912	0.53622	0.30828	-0.621
Mof_O 	O 	0.18743	0.61273	0.24236	-0.617
_end
