# CIF file generated by openbabel 3.1.0, see https://openbabel.org
data_I
_chemical_name_common 'image0'
_cell_length_a 38.226
_cell_length_b 13.456
_cell_length_c 33.945
_cell_angle_alpha 90
_cell_angle_beta 110.132
_cell_angle_gamma 90
_space_group_name_H-M_alt 'P 1'
_space_group_name_Hall 'P 1'
loop_
    _symmetry_equiv_pos_as_xyz
    x,y,z
loop_
    _atom_site_label
    _atom_site_type_symbol
    _atom_site_fract_x
    _atom_site_fract_y
    _atom_site_fract_z
    _atom_site_occupancy
    Co1      Co       0.00961    0.31545    0.04214    1.000
    Co2      Co       0.28975    0.38202    0.46733    1.000
    O1       O        0.26213    0.36890    0.40031    1.000
    O2       O        0.21829    0.33570    0.98424    1.000
    O3       O        0.11850    0.28590    0.04194    1.000
    H1       H        0.09820    0.29880    0.04400    1.000
    O4       O        0.22392    0.38050    0.32096    1.000
    H2       H        0.24050    0.39340    0.34320    1.000
    O5       O        0.02423    0.37610    0.09889    1.000
    O6       O        0.04867    0.32150    0.01738    1.000
    N1       N        0.95600    0.41940    0.96868    1.000
    H3       H        0.97090    0.41320    0.95480    1.000
    O7       O        0.01632    0.34530    0.94995    1.000
    O8       O        0.06344    0.25830    0.10729    1.000
    O9       O        0.23739    0.29820    0.44170    1.000
    C1       C        0.20679    0.27420    0.36923    1.000
    N2       N        0.96571    0.39830    0.00986    1.000
    O10      O        0.12198    0.24730    0.17259    1.000
    H4       H        0.10730    0.23280    0.14930    1.000
    C2       C        0.93528    0.41900    0.01960    1.000
    C3       C        0.18163    0.23210    0.02820    1.000
    H5       H        0.19740    0.18890    0.01870    1.000
    H6       H        0.17620    0.19790    0.05060    1.000
    C4       C        0.22082    0.37390    0.02170    1.000
    C5       C        0.23677    0.31730    0.40486    1.000
    C6       C        0.16667    0.31650    0.25040    1.000
    H7       H        0.17070    0.26400    0.23290    1.000
    H8       H        0.18570    0.36650    0.25330    1.000
    N3       N        0.98970    0.17680    0.04049    1.000
    C7       C        0.14530    0.24750    0.99210    1.000
    C8       C        0.04568    0.32400    0.97860    1.000
    C9       C        0.07974    0.29630    0.96900    1.000
    C10      C        0.11463    0.27670    0.00120    1.000
    C11      C        0.05190    0.32940    0.12150    1.000
    C12      C        0.93292    0.95270    0.99950    1.000
    H9       H        0.94300    0.92770    0.97880    1.000
    H10      H        0.93320    0.89830    0.01840    1.000
    C13      C        0.95828    0.03370    0.02430    1.000
    C14      C        0.20161    0.30860    0.32730    1.000
    C15      C        0.14134    0.22720    0.94990    1.000
    C16      C        0.20357    0.32680    0.04630    1.000
    C17      C        0.22706    0.45700    0.09900    1.000
    N4       N        0.99661    0.11840    0.07430    1.000
    H11      H        0.01150    0.13450    0.09890    1.000
    C18      C        0.15010    0.19460    0.29930    1.000
    C19      C        0.96667    0.12370    0.00950    1.000
    C20      C        0.20718    0.36790    0.08620    1.000
    C21      C        0.24482    0.50180    0.07370    1.000
    H12      H        0.25850    0.55960    0.08280    1.000
    C22      C        0.07356    0.36700    0.16410    1.000
    C23      C        0.12920    0.36300    0.22740    1.000
    C24      C        0.17271    0.27330    0.29326    1.000
    C25      C        0.10680    0.24920    0.91620    1.000
    C26      C        0.92140    0.45040    0.95200    1.000
    C27      C        0.19001    0.32420    0.11310    1.000
    H13      H        0.17630    0.26600    0.10500    1.000
    C28      C        0.17010    0.18260    0.93730    1.000
    H14      H        0.19280    0.16600    0.95770    1.000
    C29      C        0.10813    0.32640    0.18830    1.000
    C30      C        0.89342    0.98320    0.97740    1.000
    C31      C        0.24231    0.46190    0.03590    1.000
    C32      C        0.90380    0.47680    0.90680    1.000
    H15      H        0.92140    0.46670    0.89270    1.000
    H16      H        0.89620    0.54520    0.90440    1.000
    H17      H        0.88240    0.43540    0.89420    1.000
    C33      C        0.10140    0.23030    0.87380    1.000
    H18      H        0.07890    0.24450    0.85260    1.000
    C34      C        0.07717    0.28520    0.92810    1.000
    H19      H        0.05490    0.30220    0.90720    1.000
    C35      C        0.15570    0.15880    0.33980    1.000
    C36      C        0.13320    0.08420    0.34740    1.000
    H20      H        0.13730    0.06160    0.37450    1.000
    C37      C        0.90676    0.45280    0.98440    1.000
    C38      C        0.95240    0.16070    0.96430    1.000
    H21      H        0.96280    0.22500    0.96290    1.000
    H22      H        0.92570    0.16540    0.95480    1.000
    H23      H        0.95970    0.11510    0.94680    1.000
    C39      C        0.23110    0.49840    0.13830    1.000
    H24      H        0.24500    0.55610    0.14710    1.000
    C40      C        0.97810    0.03330    0.06600    1.000
    C41      C        0.13110    0.18960    0.86490    1.000
    H25      H        0.12870    0.17860    0.83700    1.000
    C42      C        0.12120    0.15200    0.26600    1.000
    H26      H        0.11690    0.17350    0.23870    1.000
    C43      C        0.19370    0.36790    0.15100    1.000
    H27      H        0.18190    0.33920    0.16800    1.000
    C44      C        0.18320    0.20170    0.37390    1.000
    H28      H        0.18570    0.18060    0.40080    1.000
    C45      C        0.16470    0.16440    0.89650    1.000
    H29      H        0.18350    0.13470    0.88920    1.000
    C46      C        0.09930    0.07960    0.27320    1.000
    H30      H        0.08020    0.05270    0.25070    1.000
    C47      C        0.93480    0.40700    0.06310    1.000
    H31      H        0.95850    0.38240    0.08100    1.000
    H32      H        0.91560    0.36070    0.06290    1.000
    H33      H        0.92990    0.47000    0.07340    1.000
    C48      C        0.07940    0.48110    0.22160    1.000
    C49      C        0.05950    0.44260    0.18050    1.000
    H34      H        0.03660    0.47010    0.16480    1.000
    C50      C        0.21420    0.45280    0.16410    1.000
    H35      H        0.21690    0.47990    0.19020    1.000
    C51      C        0.11510    0.44340    0.24370    1.000
    C52      C        0.06470    0.56050    0.23860    1.000
    H36      H        0.04110    0.58500    0.22390    1.000
    C53      C        0.98100    0.96040    0.10080    1.000
    H37      H        0.99810    0.98550    0.12680    1.000
    H38      H        0.98990    0.89770    0.09450    1.000
    H39      H        0.95690    0.95150    0.10320    1.000
    C54      C        0.10460    0.04460    0.31350    1.000
    H40      H        0.08930    0.99530    0.31770    1.000
    C55      C        0.13450    0.48760    0.28310    1.000
    H41      H        0.15800    0.46450    0.29910    1.000
    C56      C        0.11880    0.56370    0.29760    1.000
    H42      H        0.13190    0.59130    0.32370    1.000
    C57      C        0.08470    0.60040    0.27550    1.000
    H43      H        0.07520    0.65370    0.28600    1.000
    C58      C        0.86909    0.02500    0.99550    1.000
    C59      C        0.87331    0.97270    0.93610    1.000
    N5       N        0.83849    0.00750    0.92972    1.000
    H44      H        0.82090    0.00880    0.90570    1.000
    N6       N        0.83500    0.04010    0.96607    1.000
    C60      C        0.87526    0.05470    0.03860    1.000
    H45      H        0.85260    0.08110    0.04060    1.000
    H46      H        0.89430    0.10460    0.04700    1.000
    H47      H        0.88290    0.99800    0.05670    1.000
    C61      C        0.88300    0.93000    0.90040    1.000
    H48      H        0.86190    0.93550    0.87490    1.000
    H49      H        0.88970    0.86130    0.90590    1.000
    H50      H        0.90370    0.96590    0.89740    1.000
    C62      C        0.26144    0.51360    0.00900    1.000
    O11      O        0.28146    0.58910    0.02358    1.000
    O12      O        0.25726    0.47930    0.97330    1.000
    C63      C        0.86751    0.48100    0.98160    1.000
    H51      H        0.86890    0.53450    0.00120    1.000
    H52      H        0.85410    0.50570    0.95360    1.000
    C64      C        0.84646    0.39740    0.99070    1.000
    C65      C        0.83318    0.38960    0.02350    1.000
    C66      C        0.83437    0.31080    0.96670    1.000
    N7       N        0.81483    0.30080    0.01855    1.000
    H53      H        0.80420    0.27870    0.03540    1.000
    N8       N        0.81531    0.25220    0.98428    1.000
    C67      C        0.83652    0.45560    0.06000    1.000
    H54      H        0.85010    0.51440    0.05830    1.000
    H55      H        0.84950    0.42100    0.08560    1.000
    H56      H        0.81210    0.47380    0.05950    1.000
    C68      C        0.84120    0.28180    0.92730    1.000
    H57      H        0.82960    0.21900    0.91760    1.000
    H58      H        0.86760    0.27640    0.93300    1.000
    H59      H        0.83100    0.33140    0.90620    1.000
    Co3      Co       0.50961    0.81545    0.04214    1.000
    Co4      Co       0.78975    0.88202    0.46733    1.000
    O13      O        0.76213    0.86890    0.40031    1.000
    O14      O        0.71829    0.83570    0.98424    1.000
    O15      O        0.61850    0.78590    0.04194    1.000
    H60      H        0.59820    0.79880    0.04400    1.000
    O16      O        0.72392    0.88050    0.32096    1.000
    H61      H        0.74050    0.89340    0.34320    1.000
    O17      O        0.52423    0.87610    0.09889    1.000
    O18      O        0.54867    0.82150    0.01738    1.000
    N9       N        0.45600    0.91940    0.96868    1.000
    H62      H        0.47090    0.91320    0.95480    1.000
    O19      O        0.51632    0.84530    0.94995    1.000
    O20      O        0.56344    0.75830    0.10729    1.000
    O21      O        0.73739    0.79820    0.44170    1.000
    C69      C        0.70679    0.77420    0.36923    1.000
    N10      N        0.46571    0.89830    0.00986    1.000
    O22      O        0.62198    0.74730    0.17259    1.000
    H63      H        0.60730    0.73280    0.14930    1.000
    C70      C        0.43528    0.91900    0.01960    1.000
    C71      C        0.68163    0.73210    0.02820    1.000
    H64      H        0.69740    0.68890    0.01870    1.000
    H65      H        0.67620    0.69790    0.05060    1.000
    C72      C        0.72082    0.87390    0.02170    1.000
    C73      C        0.73677    0.81730    0.40486    1.000
    C74      C        0.66667    0.81650    0.25040    1.000
    H66      H        0.67070    0.76400    0.23290    1.000
    H67      H        0.68570    0.86650    0.25330    1.000
    N11      N        0.48970    0.67680    0.04049    1.000
    C75      C        0.64530    0.74750    0.99210    1.000
    C76      C        0.54568    0.82400    0.97860    1.000
    C77      C        0.57974    0.79630    0.96900    1.000
    C78      C        0.61463    0.77670    0.00120    1.000
    C79      C        0.55190    0.82940    0.12150    1.000
    C80      C        0.43292    0.45270    0.99950    1.000
    H68      H        0.44300    0.42770    0.97880    1.000
    H69      H        0.43320    0.39830    0.01840    1.000
    C81      C        0.45828    0.53370    0.02430    1.000
    C82      C        0.70161    0.80860    0.32730    1.000
    C83      C        0.64134    0.72720    0.94990    1.000
    C84      C        0.70357    0.82680    0.04630    1.000
    C85      C        0.72706    0.95700    0.09900    1.000
    N12      N        0.49661    0.61840    0.07430    1.000
    H70      H        0.51150    0.63450    0.09890    1.000
    C86      C        0.65010    0.69460    0.29930    1.000
    C87      C        0.46667    0.62370    0.00950    1.000
    C88      C        0.70718    0.86790    0.08620    1.000
    C89      C        0.74482    0.00180    0.07370    1.000
    H71      H        0.75850    0.05960    0.08280    1.000
    C90      C        0.57356    0.86700    0.16410    1.000
    C91      C        0.62920    0.86300    0.22740    1.000
    C92      C        0.67271    0.77330    0.29326    1.000
    C93      C        0.60680    0.74920    0.91620    1.000
    C94      C        0.42140    0.95040    0.95200    1.000
    C95      C        0.69001    0.82420    0.11310    1.000
    H72      H        0.67630    0.76600    0.10500    1.000
    C96      C        0.67010    0.68260    0.93730    1.000
    H73      H        0.69280    0.66600    0.95770    1.000
    C97      C        0.60813    0.82640    0.18830    1.000
    C98      C        0.39342    0.48320    0.97740    1.000
    C99      C        0.74231    0.96190    0.03590    1.000
    C100     C        0.40380    0.97680    0.90680    1.000
    H74      H        0.42140    0.96670    0.89270    1.000
    H75      H        0.39620    0.04520    0.90440    1.000
    H76      H        0.38240    0.93540    0.89420    1.000
    C101     C        0.60140    0.73030    0.87380    1.000
    H77      H        0.57890    0.74450    0.85260    1.000
    C102     C        0.57717    0.78520    0.92810    1.000
    H78      H        0.55490    0.80220    0.90720    1.000
    C103     C        0.65570    0.65880    0.33980    1.000
    C104     C        0.63320    0.58420    0.34740    1.000
    H79      H        0.63730    0.56160    0.37450    1.000
    C105     C        0.40676    0.95280    0.98440    1.000
    C106     C        0.45240    0.66070    0.96430    1.000
    H80      H        0.46280    0.72500    0.96290    1.000
    H81      H        0.42570    0.66540    0.95480    1.000
    H82      H        0.45970    0.61510    0.94680    1.000
    C107     C        0.73110    0.99840    0.13830    1.000
    H83      H        0.74500    0.05610    0.14710    1.000
    C108     C        0.47810    0.53330    0.06600    1.000
    C109     C        0.63110    0.68960    0.86490    1.000
    H84      H        0.62870    0.67860    0.83700    1.000
    C110     C        0.62120    0.65200    0.26600    1.000
    H85      H        0.61690    0.67350    0.23870    1.000
    C111     C        0.69370    0.86790    0.15100    1.000
    H86      H        0.68190    0.83920    0.16800    1.000
    C112     C        0.68320    0.70170    0.37390    1.000
    H87      H        0.68570    0.68060    0.40080    1.000
    C113     C        0.66470    0.66440    0.89650    1.000
    H88      H        0.68350    0.63470    0.88920    1.000
    C114     C        0.59930    0.57960    0.27320    1.000
    H89      H        0.58020    0.55270    0.25070    1.000
    C115     C        0.43480    0.90700    0.06310    1.000
    H90      H        0.45850    0.88240    0.08100    1.000
    H91      H        0.41560    0.86070    0.06290    1.000
    H92      H        0.42990    0.97000    0.07340    1.000
    C116     C        0.57940    0.98110    0.22160    1.000
    C117     C        0.55950    0.94260    0.18050    1.000
    H93      H        0.53660    0.97010    0.16480    1.000
    C118     C        0.71420    0.95280    0.16410    1.000
    H94      H        0.71690    0.97990    0.19020    1.000
    C119     C        0.61510    0.94340    0.24370    1.000
    C120     C        0.56470    0.06050    0.23860    1.000
    H95      H        0.54110    0.08500    0.22390    1.000
    C121     C        0.48100    0.46040    0.10080    1.000
    H96      H        0.49810    0.48550    0.12680    1.000
    H97      H        0.48990    0.39770    0.09450    1.000
    H98      H        0.45690    0.45150    0.10320    1.000
    C122     C        0.60460    0.54460    0.31350    1.000
    H99      H        0.58930    0.49530    0.31770    1.000
    C123     C        0.63450    0.98760    0.28310    1.000
    H100     H        0.65800    0.96450    0.29910    1.000
    C124     C        0.61880    0.06370    0.29760    1.000
    H101     H        0.63190    0.09130    0.32370    1.000
    C125     C        0.58470    0.10040    0.27550    1.000
    H102     H        0.57520    0.15370    0.28600    1.000
    C126     C        0.36909    0.52500    0.99550    1.000
    C127     C        0.37331    0.47270    0.93610    1.000
    N13      N        0.33849    0.50750    0.92972    1.000
    H103     H        0.32090    0.50880    0.90570    1.000
    N14      N        0.33500    0.54010    0.96607    1.000
    C128     C        0.37526    0.55470    0.03860    1.000
    H104     H        0.35260    0.58110    0.04060    1.000
    H105     H        0.39430    0.60460    0.04700    1.000
    H106     H        0.38290    0.49800    0.05670    1.000
    C129     C        0.38300    0.43000    0.90040    1.000
    H107     H        0.36190    0.43550    0.87490    1.000
    H108     H        0.38970    0.36130    0.90590    1.000
    H109     H        0.40370    0.46590    0.89740    1.000
    C130     C        0.76144    0.01360    0.00900    1.000
    O23      O        0.78146    0.08910    0.02358    1.000
    O24      O        0.75726    0.97930    0.97330    1.000
    C131     C        0.36751    0.98100    0.98160    1.000
    H110     H        0.36890    0.03450    0.00120    1.000
    H111     H        0.35410    0.00570    0.95360    1.000
    C132     C        0.34646    0.89740    0.99070    1.000
    C133     C        0.33318    0.88960    0.02350    1.000
    C134     C        0.33437    0.81080    0.96670    1.000
    N15      N        0.31483    0.80080    0.01855    1.000
    H112     H        0.30420    0.77870    0.03540    1.000
    N16      N        0.31531    0.75220    0.98428    1.000
    C135     C        0.33652    0.95560    0.06000    1.000
    H113     H        0.35010    0.01440    0.05830    1.000
    H114     H        0.34950    0.92100    0.08560    1.000
    H115     H        0.31210    0.97380    0.05950    1.000
    C136     C        0.34120    0.78180    0.92730    1.000
    H116     H        0.32960    0.71900    0.91760    1.000
    H117     H        0.36760    0.77640    0.93300    1.000
    H118     H        0.33100    0.83140    0.90620    1.000
    Co5      Co       0.00961    0.68455    0.54214    1.000
    Co6      Co       0.28975    0.61798    0.96733    1.000
    O25      O        0.26213    0.63110    0.90031    1.000
    O26      O        0.21829    0.66430    0.48424    1.000
    O27      O        0.11850    0.71410    0.54194    1.000
    H119     H        0.09820    0.70120    0.54400    1.000
    O28      O        0.22392    0.61950    0.82096    1.000
    H120     H        0.24050    0.60660    0.84320    1.000
    O29      O        0.02423    0.62390    0.59889    1.000
    O30      O        0.04867    0.67850    0.51738    1.000
    N17      N        0.95600    0.58060    0.46868    1.000
    H121     H        0.97090    0.58680    0.45480    1.000
    O31      O        0.01632    0.65470    0.44995    1.000
    O32      O        0.06344    0.74170    0.60729    1.000
    O33      O        0.23739    0.70180    0.94170    1.000
    C137     C        0.20679    0.72580    0.86923    1.000
    N18      N        0.96571    0.60170    0.50986    1.000
    O34      O        0.12198    0.75270    0.67259    1.000
    H122     H        0.10730    0.76720    0.64930    1.000
    C138     C        0.93528    0.58100    0.51960    1.000
    C139     C        0.18163    0.76790    0.52820    1.000
    H123     H        0.19740    0.81110    0.51870    1.000
    H124     H        0.17620    0.80210    0.55060    1.000
    C140     C        0.22082    0.62610    0.52170    1.000
    C141     C        0.23677    0.68270    0.90486    1.000
    C142     C        0.16667    0.68350    0.75040    1.000
    H125     H        0.17070    0.73600    0.73290    1.000
    H126     H        0.18570    0.63350    0.75330    1.000
    N19      N        0.98970    0.82320    0.54049    1.000
    C143     C        0.14530    0.75250    0.49210    1.000
    C144     C        0.04568    0.67600    0.47860    1.000
    C145     C        0.07974    0.70370    0.46900    1.000
    C146     C        0.11463    0.72330    0.50120    1.000
    C147     C        0.05190    0.67060    0.62150    1.000
    C148     C        0.93292    0.04730    0.49950    1.000
    H127     H        0.94300    0.07230    0.47880    1.000
    H128     H        0.93320    0.10170    0.51840    1.000
    C149     C        0.95828    0.96630    0.52430    1.000
    C150     C        0.20161    0.69140    0.82730    1.000
    C151     C        0.14134    0.77280    0.44990    1.000
    C152     C        0.20357    0.67320    0.54630    1.000
    C153     C        0.22706    0.54300    0.59900    1.000
    N20      N        0.99661    0.88160    0.57430    1.000
    H129     H        0.01150    0.86550    0.59890    1.000
    C154     C        0.15010    0.80540    0.79930    1.000
    C155     C        0.96667    0.87630    0.50950    1.000
    C156     C        0.20718    0.63210    0.58620    1.000
    C157     C        0.24482    0.49820    0.57370    1.000
    H130     H        0.25850    0.44040    0.58280    1.000
    C158     C        0.07356    0.63300    0.66410    1.000
    C159     C        0.12920    0.63700    0.72740    1.000
    C160     C        0.17271    0.72670    0.79326    1.000
    C161     C        0.10680    0.75080    0.41620    1.000
    C162     C        0.92140    0.54960    0.45200    1.000
    C163     C        0.19001    0.67580    0.61310    1.000
    H131     H        0.17630    0.73400    0.60500    1.000
    C164     C        0.17010    0.81740    0.43730    1.000
    H132     H        0.19280    0.83400    0.45770    1.000
    C165     C        0.10813    0.67360    0.68830    1.000
    C166     C        0.89342    0.01680    0.47740    1.000
    C167     C        0.24231    0.53810    0.53590    1.000
    C168     C        0.90380    0.52320    0.40680    1.000
    H133     H        0.92140    0.53330    0.39270    1.000
    H134     H        0.89620    0.45480    0.40440    1.000
    H135     H        0.88240    0.56460    0.39420    1.000
    C169     C        0.10140    0.76970    0.37380    1.000
    H136     H        0.07890    0.75550    0.35260    1.000
    C170     C        0.07717    0.71480    0.42810    1.000
    H137     H        0.05490    0.69780    0.40720    1.000
    C171     C        0.15570    0.84120    0.83980    1.000
    C172     C        0.13320    0.91580    0.84740    1.000
    H138     H        0.13730    0.93840    0.87450    1.000
    C173     C        0.90676    0.54720    0.48440    1.000
    C174     C        0.95240    0.83930    0.46430    1.000
    H139     H        0.96280    0.77500    0.46290    1.000
    H140     H        0.92570    0.83460    0.45480    1.000
    H141     H        0.95970    0.88490    0.44680    1.000
    C175     C        0.23110    0.50160    0.63830    1.000
    H142     H        0.24500    0.44390    0.64710    1.000
    C176     C        0.97810    0.96670    0.56600    1.000
    C177     C        0.13110    0.81040    0.36490    1.000
    H143     H        0.12870    0.82140    0.33700    1.000
    C178     C        0.12120    0.84800    0.76600    1.000
    H144     H        0.11690    0.82650    0.73870    1.000
    C179     C        0.19370    0.63210    0.65100    1.000
    H145     H        0.18190    0.66080    0.66800    1.000
    C180     C        0.18320    0.79830    0.87390    1.000
    H146     H        0.18570    0.81940    0.90080    1.000
    C181     C        0.16470    0.83560    0.39650    1.000
    H147     H        0.18350    0.86530    0.38920    1.000
    C182     C        0.09930    0.92040    0.77320    1.000
    H148     H        0.08020    0.94730    0.75070    1.000
    C183     C        0.93480    0.59300    0.56310    1.000
    H149     H        0.95850    0.61760    0.58100    1.000
    H150     H        0.91560    0.63930    0.56290    1.000
    H151     H        0.92990    0.53000    0.57340    1.000
    C184     C        0.07940    0.51890    0.72160    1.000
    C185     C        0.05950    0.55740    0.68050    1.000
    H152     H        0.03660    0.52990    0.66480    1.000
    C186     C        0.21420    0.54720    0.66410    1.000
    H153     H        0.21690    0.52010    0.69020    1.000
    C187     C        0.11510    0.55660    0.74370    1.000
    C188     C        0.06470    0.43950    0.73860    1.000
    H154     H        0.04110    0.41500    0.72390    1.000
    C189     C        0.98100    0.03960    0.60080    1.000
    H155     H        0.99810    0.01450    0.62680    1.000
    H156     H        0.98990    0.10230    0.59450    1.000
    H157     H        0.95690    0.04850    0.60320    1.000
    C190     C        0.10460    0.95540    0.81350    1.000
    H158     H        0.08930    0.00470    0.81770    1.000
    C191     C        0.13450    0.51240    0.78310    1.000
    H159     H        0.15800    0.53550    0.79910    1.000
    C192     C        0.11880    0.43630    0.79760    1.000
    H160     H        0.13190    0.40870    0.82370    1.000
    C193     C        0.08470    0.39960    0.77550    1.000
    H161     H        0.07520    0.34630    0.78600    1.000
    C194     C        0.86909    0.97500    0.49550    1.000
    C195     C        0.87331    0.02730    0.43610    1.000
    N21      N        0.83849    0.99250    0.42972    1.000
    H162     H        0.82090    0.99120    0.40570    1.000
    N22      N        0.83500    0.95990    0.46607    1.000
    C196     C        0.87526    0.94530    0.53860    1.000
    H163     H        0.85260    0.91890    0.54060    1.000
    H164     H        0.89430    0.89540    0.54700    1.000
    H165     H        0.88290    0.00200    0.55670    1.000
    C197     C        0.88300    0.07000    0.40040    1.000
    H166     H        0.86190    0.06450    0.37490    1.000
    H167     H        0.88970    0.13870    0.40590    1.000
    H168     H        0.90370    0.03410    0.39740    1.000
    C198     C        0.26144    0.48640    0.50900    1.000
    O35      O        0.28146    0.41090    0.52358    1.000
    O36      O        0.25726    0.52070    0.47330    1.000
    C199     C        0.86751    0.51900    0.48160    1.000
    H169     H        0.86890    0.46550    0.50120    1.000
    H170     H        0.85410    0.49430    0.45360    1.000
    C200     C        0.84646    0.60260    0.49070    1.000
    C201     C        0.83318    0.61040    0.52350    1.000
    C202     C        0.83437    0.68920    0.46670    1.000
    N23      N        0.81483    0.69920    0.51855    1.000
    H171     H        0.80420    0.72130    0.53540    1.000
    N24      N        0.81531    0.74780    0.48428    1.000
    C203     C        0.83652    0.54440    0.56000    1.000
    H172     H        0.85010    0.48560    0.55830    1.000
    H173     H        0.84950    0.57900    0.58560    1.000
    H174     H        0.81210    0.52620    0.55950    1.000
    C204     C        0.84120    0.71820    0.42730    1.000
    H175     H        0.82960    0.78100    0.41760    1.000
    H176     H        0.86760    0.72360    0.43300    1.000
    H177     H        0.83100    0.66860    0.40620    1.000
    Co7      Co       0.50961    0.18455    0.54214    1.000
    Co8      Co       0.78975    0.11798    0.96733    1.000
    O37      O        0.76213    0.13110    0.90031    1.000
    O38      O        0.71829    0.16430    0.48424    1.000
    O39      O        0.61850    0.21410    0.54194    1.000
    H178     H        0.59820    0.20120    0.54400    1.000
    O40      O        0.72392    0.11950    0.82096    1.000
    H179     H        0.74050    0.10660    0.84320    1.000
    O41      O        0.52423    0.12390    0.59889    1.000
    O42      O        0.54867    0.17850    0.51738    1.000
    N25      N        0.45600    0.08060    0.46868    1.000
    H180     H        0.47090    0.08680    0.45480    1.000
    O43      O        0.51632    0.15470    0.44995    1.000
    O44      O        0.56344    0.24170    0.60729    1.000
    O45      O        0.73739    0.20180    0.94170    1.000
    C205     C        0.70679    0.22580    0.86923    1.000
    N26      N        0.46571    0.10170    0.50986    1.000
    O46      O        0.62198    0.25270    0.67259    1.000
    H181     H        0.60730    0.26720    0.64930    1.000
    C206     C        0.43528    0.08100    0.51960    1.000
    C207     C        0.68163    0.26790    0.52820    1.000
    H182     H        0.69740    0.31110    0.51870    1.000
    H183     H        0.67620    0.30210    0.55060    1.000
    C208     C        0.72082    0.12610    0.52170    1.000
    C209     C        0.73677    0.18270    0.90486    1.000
    C210     C        0.66667    0.18350    0.75040    1.000
    H184     H        0.67070    0.23600    0.73290    1.000
    H185     H        0.68570    0.13350    0.75330    1.000
    N27      N        0.48970    0.32320    0.54049    1.000
    C211     C        0.64530    0.25250    0.49210    1.000
    C212     C        0.54568    0.17600    0.47860    1.000
    C213     C        0.57974    0.20370    0.46900    1.000
    C214     C        0.61463    0.22330    0.50120    1.000
    C215     C        0.55190    0.17060    0.62150    1.000
    C216     C        0.43292    0.54730    0.49950    1.000
    H186     H        0.44300    0.57230    0.47880    1.000
    H187     H        0.43320    0.60170    0.51840    1.000
    C217     C        0.45828    0.46630    0.52430    1.000
    C218     C        0.70161    0.19140    0.82730    1.000
    C219     C        0.64134    0.27280    0.44990    1.000
    C220     C        0.70357    0.17320    0.54630    1.000
    C221     C        0.72706    0.04300    0.59900    1.000
    N28      N        0.49661    0.38160    0.57430    1.000
    H188     H        0.51150    0.36550    0.59890    1.000
    C222     C        0.65010    0.30540    0.79930    1.000
    C223     C        0.46667    0.37630    0.50950    1.000
    C224     C        0.70718    0.13210    0.58620    1.000
    C225     C        0.74482    0.99820    0.57370    1.000
    H189     H        0.75850    0.94040    0.58280    1.000
    C226     C        0.57356    0.13300    0.66410    1.000
    C227     C        0.62920    0.13700    0.72740    1.000
    C228     C        0.67271    0.22670    0.79326    1.000
    C229     C        0.60680    0.25080    0.41620    1.000
    C230     C        0.42140    0.04960    0.45200    1.000
    C231     C        0.69001    0.17580    0.61310    1.000
    H190     H        0.67630    0.23400    0.60500    1.000
    C232     C        0.67010    0.31740    0.43730    1.000
    H191     H        0.69280    0.33400    0.45770    1.000
    C233     C        0.60813    0.17360    0.68830    1.000
    C234     C        0.39342    0.51680    0.47740    1.000
    C235     C        0.74231    0.03810    0.53590    1.000
    C236     C        0.40380    0.02320    0.40680    1.000
    H192     H        0.42140    0.03330    0.39270    1.000
    H193     H        0.39620    0.95480    0.40440    1.000
    H194     H        0.38240    0.06460    0.39420    1.000
    C237     C        0.60140    0.26970    0.37380    1.000
    H195     H        0.57890    0.25550    0.35260    1.000
    C238     C        0.57717    0.21480    0.42810    1.000
    H196     H        0.55490    0.19780    0.40720    1.000
    C239     C        0.65570    0.34120    0.83980    1.000
    C240     C        0.63320    0.41580    0.84740    1.000
    H197     H        0.63730    0.43840    0.87450    1.000
    C241     C        0.40676    0.04720    0.48440    1.000
    C242     C        0.45240    0.33930    0.46430    1.000
    H198     H        0.46280    0.27500    0.46290    1.000
    H199     H        0.42570    0.33460    0.45480    1.000
    H200     H        0.45970    0.38490    0.44680    1.000
    C243     C        0.73110    0.00160    0.63830    1.000
    H201     H        0.74500    0.94390    0.64710    1.000
    C244     C        0.47810    0.46670    0.56600    1.000
    C245     C        0.63110    0.31040    0.36490    1.000
    H202     H        0.62870    0.32140    0.33700    1.000
    C246     C        0.62120    0.34800    0.76600    1.000
    H203     H        0.61690    0.32650    0.73870    1.000
    C247     C        0.69370    0.13210    0.65100    1.000
    H204     H        0.68190    0.16080    0.66800    1.000
    C248     C        0.68320    0.29830    0.87390    1.000
    H205     H        0.68570    0.31940    0.90080    1.000
    C249     C        0.66470    0.33560    0.39650    1.000
    H206     H        0.68350    0.36530    0.38920    1.000
    C250     C        0.59930    0.42040    0.77320    1.000
    H207     H        0.58020    0.44730    0.75070    1.000
    C251     C        0.43480    0.09300    0.56310    1.000
    H208     H        0.45850    0.11760    0.58100    1.000
    H209     H        0.41560    0.13930    0.56290    1.000
    H210     H        0.42990    0.03000    0.57340    1.000
    C252     C        0.57940    0.01890    0.72160    1.000
    C253     C        0.55950    0.05740    0.68050    1.000
    H211     H        0.53660    0.02990    0.66480    1.000
    C254     C        0.71420    0.04720    0.66410    1.000
    H212     H        0.71690    0.02010    0.69020    1.000
    C255     C        0.61510    0.05660    0.74370    1.000
    C256     C        0.56470    0.93950    0.73860    1.000
    H213     H        0.54110    0.91500    0.72390    1.000
    C257     C        0.48100    0.53960    0.60080    1.000
    H214     H        0.49810    0.51450    0.62680    1.000
    H215     H        0.48990    0.60230    0.59450    1.000
    H216     H        0.45690    0.54850    0.60320    1.000
    C258     C        0.60460    0.45540    0.81350    1.000
    H217     H        0.58930    0.50470    0.81770    1.000
    C259     C        0.63450    0.01240    0.78310    1.000
    H218     H        0.65800    0.03550    0.79910    1.000
    C260     C        0.61880    0.93630    0.79760    1.000
    H219     H        0.63190    0.90870    0.82370    1.000
    C261     C        0.58470    0.89960    0.77550    1.000
    H220     H        0.57520    0.84630    0.78600    1.000
    C262     C        0.36909    0.47500    0.49550    1.000
    C263     C        0.37331    0.52730    0.43610    1.000
    N29      N        0.33849    0.49250    0.42972    1.000
    H221     H        0.32090    0.49120    0.40570    1.000
    N30      N        0.33500    0.45990    0.46607    1.000
    C264     C        0.37526    0.44530    0.53860    1.000
    H222     H        0.35260    0.41890    0.54060    1.000
    H223     H        0.39430    0.39540    0.54700    1.000
    H224     H        0.38290    0.50200    0.55670    1.000
    C265     C        0.38300    0.57000    0.40040    1.000
    H225     H        0.36190    0.56450    0.37490    1.000
    H226     H        0.38970    0.63870    0.40590    1.000
    H227     H        0.40370    0.53410    0.39740    1.000
    C266     C        0.76144    0.98640    0.50900    1.000
    O47      O        0.78146    0.91090    0.52358    1.000
    O48      O        0.75726    0.02070    0.47330    1.000
    C267     C        0.36751    0.01900    0.48160    1.000
    H228     H        0.36890    0.96550    0.50120    1.000
    H229     H        0.35410    0.99430    0.45360    1.000
    C268     C        0.34646    0.10260    0.49070    1.000
    C269     C        0.33318    0.11040    0.52350    1.000
    C270     C        0.33437    0.18920    0.46670    1.000
    N31      N        0.31483    0.19920    0.51855    1.000
    H230     H        0.30420    0.22130    0.53540    1.000
    N32      N        0.31531    0.24780    0.48428    1.000
    C271     C        0.33652    0.04440    0.56000    1.000
    H231     H        0.35010    0.98560    0.55830    1.000
    H232     H        0.34950    0.07900    0.58560    1.000
    H233     H        0.31210    0.02620    0.55950    1.000
    C272     C        0.34120    0.21820    0.42730    1.000
    H234     H        0.32960    0.28100    0.41760    1.000
    H235     H        0.36760    0.22360    0.43300    1.000
    H236     H        0.33100    0.16860    0.40620    1.000
    Co9      Co       0.99039    0.31545    0.45786    1.000
    Co10     Co       0.71025    0.38202    0.03267    1.000
    O49      O        0.73787    0.36890    0.09969    1.000
    O50      O        0.78171    0.33570    0.51576    1.000
    O51      O        0.88150    0.28590    0.45806    1.000
    H237     H        0.90180    0.29880    0.45600    1.000
    O52      O        0.77608    0.38050    0.17904    1.000
    H238     H        0.75950    0.39340    0.15680    1.000
    O53      O        0.97577    0.37610    0.40111    1.000
    O54      O        0.95133    0.32150    0.48262    1.000
    N33      N        0.04400    0.41940    0.53132    1.000
    H239     H        0.02910    0.41320    0.54520    1.000
    O55      O        0.98368    0.34530    0.55005    1.000
    O56      O        0.93656    0.25830    0.39271    1.000
    O57      O        0.76261    0.29820    0.05830    1.000
    C273     C        0.79321    0.27420    0.13077    1.000
    N34      N        0.03429    0.39830    0.49014    1.000
    O58      O        0.87802    0.24730    0.32741    1.000
    H240     H        0.89270    0.23280    0.35070    1.000
    C274     C        0.06472    0.41900    0.48040    1.000
    C275     C        0.81837    0.23210    0.47180    1.000
    H241     H        0.80260    0.18890    0.48130    1.000
    H242     H        0.82380    0.19790    0.44940    1.000
    C276     C        0.77918    0.37390    0.47830    1.000
    C277     C        0.76323    0.31730    0.09514    1.000
    C278     C        0.83333    0.31650    0.24960    1.000
    H243     H        0.82930    0.26400    0.26710    1.000
    H244     H        0.81430    0.36650    0.24670    1.000
    N35      N        0.01030    0.17680    0.45951    1.000
    C279     C        0.85470    0.24750    0.50790    1.000
    C280     C        0.95432    0.32400    0.52140    1.000
    C281     C        0.92026    0.29630    0.53100    1.000
    C282     C        0.88537    0.27670    0.49880    1.000
    C283     C        0.94810    0.32940    0.37850    1.000
    C284     C        0.06708    0.95270    0.50050    1.000
    H245     H        0.05700    0.92770    0.52120    1.000
    H246     H        0.06680    0.89830    0.48160    1.000
    C285     C        0.04172    0.03370    0.47570    1.000
    C286     C        0.79839    0.30860    0.17270    1.000
    C287     C        0.85866    0.22720    0.55010    1.000
    C288     C        0.79643    0.32680    0.45370    1.000
    C289     C        0.77294    0.45700    0.40100    1.000
    N36      N        0.00339    0.11840    0.42570    1.000
    H247     H        0.98850    0.13450    0.40110    1.000
    C290     C        0.84990    0.19460    0.20070    1.000
    C291     C        0.03333    0.12370    0.49050    1.000
    C292     C        0.79282    0.36790    0.41380    1.000
    C293     C        0.75518    0.50180    0.42630    1.000
    H248     H        0.74150    0.55960    0.41720    1.000
    C294     C        0.92644    0.36700    0.33590    1.000
    C295     C        0.87080    0.36300    0.27260    1.000
    C296     C        0.82729    0.27330    0.20674    1.000
    C297     C        0.89320    0.24920    0.58380    1.000
    C298     C        0.07860    0.45040    0.54800    1.000
    C299     C        0.80999    0.32420    0.38690    1.000
    H249     H        0.82370    0.26600    0.39500    1.000
    C300     C        0.82990    0.18260    0.56270    1.000
    H250     H        0.80720    0.16600    0.54230    1.000
    C301     C        0.89187    0.32640    0.31170    1.000
    C302     C        0.10658    0.98320    0.52260    1.000
    C303     C        0.75769    0.46190    0.46410    1.000
    C304     C        0.09620    0.47680    0.59320    1.000
    H251     H        0.07860    0.46670    0.60730    1.000
    H252     H        0.10380    0.54520    0.59560    1.000
    H253     H        0.11760    0.43540    0.60580    1.000
    C305     C        0.89860    0.23030    0.62620    1.000
    H254     H        0.92110    0.24450    0.64740    1.000
    C306     C        0.92283    0.28520    0.57190    1.000
    H255     H        0.94510    0.30220    0.59280    1.000
    C307     C        0.84430    0.15880    0.16020    1.000
    C308     C        0.86680    0.08420    0.15260    1.000
    H256     H        0.86270    0.06160    0.12550    1.000
    C309     C        0.09324    0.45280    0.51560    1.000
    C310     C        0.04760    0.16070    0.53570    1.000
    H257     H        0.03720    0.22500    0.53710    1.000
    H258     H        0.07430    0.16540    0.54520    1.000
    H259     H        0.04030    0.11510    0.55320    1.000
    C311     C        0.76890    0.49840    0.36170    1.000
    H260     H        0.75500    0.55610    0.35290    1.000
    C312     C        0.02190    0.03330    0.43400    1.000
    C313     C        0.86890    0.18960    0.63510    1.000
    H261     H        0.87130    0.17860    0.66300    1.000
    C314     C        0.87880    0.15200    0.23400    1.000
    H262     H        0.88310    0.17350    0.26130    1.000
    C315     C        0.80630    0.36790    0.34900    1.000
    H263     H        0.81810    0.33920    0.33200    1.000
    C316     C        0.81680    0.20170    0.12610    1.000
    H264     H        0.81430    0.18060    0.09920    1.000
    C317     C        0.83530    0.16440    0.60350    1.000
    H265     H        0.81650    0.13470    0.61080    1.000
    C318     C        0.90070    0.07960    0.22680    1.000
    H266     H        0.91980    0.05270    0.24930    1.000
    C319     C        0.06520    0.40700    0.43690    1.000
    H267     H        0.04150    0.38240    0.41900    1.000
    H268     H        0.08440    0.36070    0.43710    1.000
    H269     H        0.07010    0.47000    0.42660    1.000
    C320     C        0.92060    0.48110    0.27840    1.000
    C321     C        0.94050    0.44260    0.31950    1.000
    H270     H        0.96340    0.47010    0.33520    1.000
    C322     C        0.78580    0.45280    0.33590    1.000
    H271     H        0.78310    0.47990    0.30980    1.000
    C323     C        0.88490    0.44340    0.25630    1.000
    C324     C        0.93530    0.56050    0.26140    1.000
    H272     H        0.95890    0.58500    0.27610    1.000
    C325     C        0.01900    0.96040    0.39920    1.000
    H273     H        0.00190    0.98550    0.37320    1.000
    H274     H        0.01010    0.89770    0.40550    1.000
    H275     H        0.04310    0.95150    0.39680    1.000
    C326     C        0.89540    0.04460    0.18650    1.000
    H276     H        0.91070    0.99530    0.18230    1.000
    C327     C        0.86550    0.48760    0.21690    1.000
    H277     H        0.84200    0.46450    0.20090    1.000
    C328     C        0.88120    0.56370    0.20240    1.000
    H278     H        0.86810    0.59130    0.17630    1.000
    C329     C        0.91530    0.60040    0.22450    1.000
    H279     H        0.92480    0.65370    0.21400    1.000
    C330     C        0.13091    0.02500    0.50450    1.000
    C331     C        0.12669    0.97270    0.56390    1.000
    N37      N        0.16151    0.00750    0.57028    1.000
    H280     H        0.17910    0.00880    0.59430    1.000
    N38      N        0.16500    0.04010    0.53393    1.000
    C332     C        0.12474    0.05470    0.46140    1.000
    H281     H        0.14740    0.08110    0.45940    1.000
    H282     H        0.10570    0.10460    0.45300    1.000
    H283     H        0.11710    0.99800    0.44330    1.000
    C333     C        0.11700    0.93000    0.59960    1.000
    H284     H        0.13810    0.93550    0.62510    1.000
    H285     H        0.11030    0.86130    0.59410    1.000
    H286     H        0.09630    0.96590    0.60260    1.000
    C334     C        0.73856    0.51360    0.49100    1.000
    O59      O        0.71854    0.58910    0.47642    1.000
    O60      O        0.74274    0.47930    0.52670    1.000
    C335     C        0.13249    0.48100    0.51840    1.000
    H287     H        0.13110    0.53450    0.49880    1.000
    H288     H        0.14590    0.50570    0.54640    1.000
    C336     C        0.15354    0.39740    0.50930    1.000
    C337     C        0.16682    0.38960    0.47650    1.000
    C338     C        0.16563    0.31080    0.53330    1.000
    N39      N        0.18517    0.30080    0.48145    1.000
    H289     H        0.19580    0.27870    0.46460    1.000
    N40      N        0.18469    0.25220    0.51572    1.000
    C339     C        0.16348    0.45560    0.44000    1.000
    H290     H        0.14990    0.51440    0.44170    1.000
    H291     H        0.15050    0.42100    0.41440    1.000
    H292     H        0.18790    0.47380    0.44050    1.000
    C340     C        0.15880    0.28180    0.57270    1.000
    H293     H        0.17040    0.21900    0.58240    1.000
    H294     H        0.13240    0.27640    0.56700    1.000
    H295     H        0.16900    0.33140    0.59380    1.000
    Co11     Co       0.49039    0.81545    0.45786    1.000
    Co12     Co       0.21025    0.88202    0.03267    1.000
    O61      O        0.23787    0.86890    0.09969    1.000
    O62      O        0.28171    0.83570    0.51576    1.000
    O63      O        0.38150    0.78590    0.45806    1.000
    H296     H        0.40180    0.79880    0.45600    1.000
    O64      O        0.27608    0.88050    0.17904    1.000
    H297     H        0.25950    0.89340    0.15680    1.000
    O65      O        0.47577    0.87610    0.40111    1.000
    O66      O        0.45133    0.82150    0.48262    1.000
    N41      N        0.54400    0.91940    0.53132    1.000
    H298     H        0.52910    0.91320    0.54520    1.000
    O67      O        0.48368    0.84530    0.55005    1.000
    O68      O        0.43656    0.75830    0.39271    1.000
    O69      O        0.26261    0.79820    0.05830    1.000
    C341     C        0.29321    0.77420    0.13077    1.000
    N42      N        0.53429    0.89830    0.49014    1.000
    O70      O        0.37802    0.74730    0.32741    1.000
    H299     H        0.39270    0.73280    0.35070    1.000
    C342     C        0.56472    0.91900    0.48040    1.000
    C343     C        0.31837    0.73210    0.47180    1.000
    H300     H        0.30260    0.68890    0.48130    1.000
    H301     H        0.32380    0.69790    0.44940    1.000
    C344     C        0.27918    0.87390    0.47830    1.000
    C345     C        0.26323    0.81730    0.09514    1.000
    C346     C        0.33333    0.81650    0.24960    1.000
    H302     H        0.32930    0.76400    0.26710    1.000
    H303     H        0.31430    0.86650    0.24670    1.000
    N43      N        0.51030    0.67680    0.45951    1.000
    C347     C        0.35470    0.74750    0.50790    1.000
    C348     C        0.45432    0.82400    0.52140    1.000
    C349     C        0.42026    0.79630    0.53100    1.000
    C350     C        0.38537    0.77670    0.49880    1.000
    C351     C        0.44810    0.82940    0.37850    1.000
    C352     C        0.56708    0.45270    0.50050    1.000
    H304     H        0.55700    0.42770    0.52120    1.000
    H305     H        0.56680    0.39830    0.48160    1.000
    C353     C        0.54172    0.53370    0.47570    1.000
    C354     C        0.29839    0.80860    0.17270    1.000
    C355     C        0.35866    0.72720    0.55010    1.000
    C356     C        0.29643    0.82680    0.45370    1.000
    C357     C        0.27294    0.95700    0.40100    1.000
    N44      N        0.50339    0.61840    0.42570    1.000
    H306     H        0.48850    0.63450    0.40110    1.000
    C358     C        0.34990    0.69460    0.20070    1.000
    C359     C        0.53333    0.62370    0.49050    1.000
    C360     C        0.29282    0.86790    0.41380    1.000
    C361     C        0.25518    0.00180    0.42630    1.000
    H307     H        0.24150    0.05960    0.41720    1.000
    C362     C        0.42644    0.86700    0.33590    1.000
    C363     C        0.37080    0.86300    0.27260    1.000
    C364     C        0.32729    0.77330    0.20674    1.000
    C365     C        0.39320    0.74920    0.58380    1.000
    C366     C        0.57860    0.95040    0.54800    1.000
    C367     C        0.30999    0.82420    0.38690    1.000
    H308     H        0.32370    0.76600    0.39500    1.000
    C368     C        0.32990    0.68260    0.56270    1.000
    H309     H        0.30720    0.66600    0.54230    1.000
    C369     C        0.39187    0.82640    0.31170    1.000
    C370     C        0.60658    0.48320    0.52260    1.000
    C371     C        0.25769    0.96190    0.46410    1.000
    C372     C        0.59620    0.97680    0.59320    1.000
    H310     H        0.57860    0.96670    0.60730    1.000
    H311     H        0.60380    0.04520    0.59560    1.000
    H312     H        0.61760    0.93540    0.60580    1.000
    C373     C        0.39860    0.73030    0.62620    1.000
    H313     H        0.42110    0.74450    0.64740    1.000
    C374     C        0.42283    0.78520    0.57190    1.000
    H314     H        0.44510    0.80220    0.59280    1.000
    C375     C        0.34430    0.65880    0.16020    1.000
    C376     C        0.36680    0.58420    0.15260    1.000
    H315     H        0.36270    0.56160    0.12550    1.000
    C377     C        0.59324    0.95280    0.51560    1.000
    C378     C        0.54760    0.66070    0.53570    1.000
    H316     H        0.53720    0.72500    0.53710    1.000
    H317     H        0.57430    0.66540    0.54520    1.000
    H318     H        0.54030    0.61510    0.55320    1.000
    C379     C        0.26890    0.99840    0.36170    1.000
    H319     H        0.25500    0.05610    0.35290    1.000
    C380     C        0.52190    0.53330    0.43400    1.000
    C381     C        0.36890    0.68960    0.63510    1.000
    H320     H        0.37130    0.67860    0.66300    1.000
    C382     C        0.37880    0.65200    0.23400    1.000
    H321     H        0.38310    0.67350    0.26130    1.000
    C383     C        0.30630    0.86790    0.34900    1.000
    H322     H        0.31810    0.83920    0.33200    1.000
    C384     C        0.31680    0.70170    0.12610    1.000
    H323     H        0.31430    0.68060    0.09920    1.000
    C385     C        0.33530    0.66440    0.60350    1.000
    H324     H        0.31650    0.63470    0.61080    1.000
    C386     C        0.40070    0.57960    0.22680    1.000
    H325     H        0.41980    0.55270    0.24930    1.000
    C387     C        0.56520    0.90700    0.43690    1.000
    H326     H        0.54150    0.88240    0.41900    1.000
    H327     H        0.58440    0.86070    0.43710    1.000
    H328     H        0.57010    0.97000    0.42660    1.000
    C388     C        0.42060    0.98110    0.27840    1.000
    C389     C        0.44050    0.94260    0.31950    1.000
    H329     H        0.46340    0.97010    0.33520    1.000
    C390     C        0.28580    0.95280    0.33590    1.000
    H330     H        0.28310    0.97990    0.30980    1.000
    C391     C        0.38490    0.94340    0.25630    1.000
    C392     C        0.43530    0.06050    0.26140    1.000
    H331     H        0.45890    0.08500    0.27610    1.000
    C393     C        0.51900    0.46040    0.39920    1.000
    H332     H        0.50190    0.48550    0.37320    1.000
    H333     H        0.51010    0.39770    0.40550    1.000
    H334     H        0.54310    0.45150    0.39680    1.000
    C394     C        0.39540    0.54460    0.18650    1.000
    H335     H        0.41070    0.49530    0.18230    1.000
    C395     C        0.36550    0.98760    0.21690    1.000
    H336     H        0.34200    0.96450    0.20090    1.000
    C396     C        0.38120    0.06370    0.20240    1.000
    H337     H        0.36810    0.09130    0.17630    1.000
    C397     C        0.41530    0.10040    0.22450    1.000
    H338     H        0.42480    0.15370    0.21400    1.000
    C398     C        0.63091    0.52500    0.50450    1.000
    C399     C        0.62669    0.47270    0.56390    1.000
    N45      N        0.66151    0.50750    0.57028    1.000
    H339     H        0.67910    0.50880    0.59430    1.000
    N46      N        0.66500    0.54010    0.53393    1.000
    C400     C        0.62474    0.55470    0.46140    1.000
    H340     H        0.64740    0.58110    0.45940    1.000
    H341     H        0.60570    0.60460    0.45300    1.000
    H342     H        0.61710    0.49800    0.44330    1.000
    C401     C        0.61700    0.43000    0.59960    1.000
    H343     H        0.63810    0.43550    0.62510    1.000
    H344     H        0.61030    0.36130    0.59410    1.000
    H345     H        0.59630    0.46590    0.60260    1.000
    C402     C        0.23856    0.01360    0.49100    1.000
    O71      O        0.21854    0.08910    0.47642    1.000
    O72      O        0.24274    0.97930    0.52670    1.000
    C403     C        0.63249    0.98100    0.51840    1.000
    H346     H        0.63110    0.03450    0.49880    1.000
    H347     H        0.64590    0.00570    0.54640    1.000
    C404     C        0.65354    0.89740    0.50930    1.000
    C405     C        0.66682    0.88960    0.47650    1.000
    C406     C        0.66563    0.81080    0.53330    1.000
    N47      N        0.68517    0.80080    0.48145    1.000
    H348     H        0.69580    0.77870    0.46460    1.000
    N48      N        0.68469    0.75220    0.51572    1.000
    C407     C        0.66348    0.95560    0.44000    1.000
    H349     H        0.64990    0.01440    0.44170    1.000
    H350     H        0.65050    0.92100    0.41440    1.000
    H351     H        0.68790    0.97380    0.44050    1.000
    C408     C        0.65880    0.78180    0.57270    1.000
    H352     H        0.67040    0.71900    0.58240    1.000
    H353     H        0.63240    0.77640    0.56700    1.000
    H354     H        0.66900    0.83140    0.59380    1.000
    Co13     Co       0.99039    0.68455    0.95786    1.000
    Co14     Co       0.71025    0.61798    0.53267    1.000
    O73      O        0.73787    0.63110    0.59969    1.000
    O74      O        0.78171    0.66430    0.01576    1.000
    O75      O        0.88150    0.71410    0.95806    1.000
    H355     H        0.90180    0.70120    0.95600    1.000
    O76      O        0.77608    0.61950    0.67904    1.000
    H356     H        0.75950    0.60660    0.65680    1.000
    O77      O        0.97577    0.62390    0.90111    1.000
    O78      O        0.95133    0.67850    0.98262    1.000
    N49      N        0.04400    0.58060    0.03132    1.000
    H357     H        0.02910    0.58680    0.04520    1.000
    O79      O        0.98368    0.65470    0.05005    1.000
    O80      O        0.93656    0.74170    0.89271    1.000
    O81      O        0.76261    0.70180    0.55830    1.000
    C409     C        0.79321    0.72580    0.63077    1.000
    N50      N        0.03429    0.60170    0.99014    1.000
    O82      O        0.87802    0.75270    0.82741    1.000
    H358     H        0.89270    0.76720    0.85070    1.000
    C410     C        0.06472    0.58100    0.98040    1.000
    C411     C        0.81837    0.76790    0.97180    1.000
    H359     H        0.80260    0.81110    0.98130    1.000
    H360     H        0.82380    0.80210    0.94940    1.000
    C412     C        0.77918    0.62610    0.97830    1.000
    C413     C        0.76323    0.68270    0.59514    1.000
    C414     C        0.83333    0.68350    0.74960    1.000
    H361     H        0.82930    0.73600    0.76710    1.000
    H362     H        0.81430    0.63350    0.74670    1.000
    N51      N        0.01030    0.82320    0.95951    1.000
    C415     C        0.85470    0.75250    0.00790    1.000
    C416     C        0.95432    0.67600    0.02140    1.000
    C417     C        0.92026    0.70370    0.03100    1.000
    C418     C        0.88537    0.72330    0.99880    1.000
    C419     C        0.94810    0.67060    0.87850    1.000
    C420     C        0.06708    0.04730    0.00050    1.000
    H363     H        0.05700    0.07230    0.02120    1.000
    H364     H        0.06680    0.10170    0.98160    1.000
    C421     C        0.04172    0.96630    0.97570    1.000
    C422     C        0.79839    0.69140    0.67270    1.000
    C423     C        0.85866    0.77280    0.05010    1.000
    C424     C        0.79643    0.67320    0.95370    1.000
    C425     C        0.77294    0.54300    0.90100    1.000
    N52      N        0.00339    0.88160    0.92570    1.000
    H365     H        0.98850    0.86550    0.90110    1.000
    C426     C        0.84990    0.80540    0.70070    1.000
    C427     C        0.03333    0.87630    0.99050    1.000
    C428     C        0.79282    0.63210    0.91380    1.000
    C429     C        0.75518    0.49820    0.92630    1.000
    H366     H        0.74150    0.44040    0.91720    1.000
    C430     C        0.92644    0.63300    0.83590    1.000
    C431     C        0.87080    0.63700    0.77260    1.000
    C432     C        0.82729    0.72670    0.70674    1.000
    C433     C        0.89320    0.75080    0.08380    1.000
    C434     C        0.07860    0.54960    0.04800    1.000
    C435     C        0.80999    0.67580    0.88690    1.000
    H367     H        0.82370    0.73400    0.89500    1.000
    C436     C        0.82990    0.81740    0.06270    1.000
    H368     H        0.80720    0.83400    0.04230    1.000
    C437     C        0.89187    0.67360    0.81170    1.000
    C438     C        0.10658    0.01680    0.02260    1.000
    C439     C        0.75769    0.53810    0.96410    1.000
    C440     C        0.09620    0.52320    0.09320    1.000
    H369     H        0.07860    0.53330    0.10730    1.000
    H370     H        0.10380    0.45480    0.09560    1.000
    H371     H        0.11760    0.56460    0.10580    1.000
    C441     C        0.89860    0.76970    0.12620    1.000
    H372     H        0.92110    0.75550    0.14740    1.000
    C442     C        0.92283    0.71480    0.07190    1.000
    H373     H        0.94510    0.69780    0.09280    1.000
    C443     C        0.84430    0.84120    0.66020    1.000
    C444     C        0.86680    0.91580    0.65260    1.000
    H374     H        0.86270    0.93840    0.62550    1.000
    C445     C        0.09324    0.54720    0.01560    1.000
    C446     C        0.04760    0.83930    0.03570    1.000
    H375     H        0.03720    0.77500    0.03710    1.000
    H376     H        0.07430    0.83460    0.04520    1.000
    H377     H        0.04030    0.88490    0.05320    1.000
    C447     C        0.76890    0.50160    0.86170    1.000
    H378     H        0.75500    0.44390    0.85290    1.000
    C448     C        0.02190    0.96670    0.93400    1.000
    C449     C        0.86890    0.81040    0.13510    1.000
    H379     H        0.87130    0.82140    0.16300    1.000
    C450     C        0.87880    0.84800    0.73400    1.000
    H380     H        0.88310    0.82650    0.76130    1.000
    C451     C        0.80630    0.63210    0.84900    1.000
    H381     H        0.81810    0.66080    0.83200    1.000
    C452     C        0.81680    0.79830    0.62610    1.000
    H382     H        0.81430    0.81940    0.59920    1.000
    C453     C        0.83530    0.83560    0.10350    1.000
    H383     H        0.81650    0.86530    0.11080    1.000
    C454     C        0.90070    0.92040    0.72680    1.000
    H384     H        0.91980    0.94730    0.74930    1.000
    C455     C        0.06520    0.59300    0.93690    1.000
    H385     H        0.04150    0.61760    0.91900    1.000
    H386     H        0.08440    0.63930    0.93710    1.000
    H387     H        0.07010    0.53000    0.92660    1.000
    C456     C        0.92060    0.51890    0.77840    1.000
    C457     C        0.94050    0.55740    0.81950    1.000
    H388     H        0.96340    0.52990    0.83520    1.000
    C458     C        0.78580    0.54720    0.83590    1.000
    H389     H        0.78310    0.52010    0.80980    1.000
    C459     C        0.88490    0.55660    0.75630    1.000
    C460     C        0.93530    0.43950    0.76140    1.000
    H390     H        0.95890    0.41500    0.77610    1.000
    C461     C        0.01900    0.03960    0.89920    1.000
    H391     H        0.00190    0.01450    0.87320    1.000
    H392     H        0.01010    0.10230    0.90550    1.000
    H393     H        0.04310    0.04850    0.89680    1.000
    C462     C        0.89540    0.95540    0.68650    1.000
    H394     H        0.91070    0.00470    0.68230    1.000
    C463     C        0.86550    0.51240    0.71690    1.000
    H395     H        0.84200    0.53550    0.70090    1.000
    C464     C        0.88120    0.43630    0.70240    1.000
    H396     H        0.86810    0.40870    0.67630    1.000
    C465     C        0.91530    0.39960    0.72450    1.000
    H397     H        0.92480    0.34630    0.71400    1.000
    C466     C        0.13091    0.97500    0.00450    1.000
    C467     C        0.12669    0.02730    0.06390    1.000
    N53      N        0.16151    0.99250    0.07028    1.000
    H398     H        0.17910    0.99120    0.09430    1.000
    N54      N        0.16500    0.95990    0.03393    1.000
    C468     C        0.12474    0.94530    0.96140    1.000
    H399     H        0.14740    0.91890    0.95940    1.000
    H400     H        0.10570    0.89540    0.95300    1.000
    H401     H        0.11710    0.00200    0.94330    1.000
    C469     C        0.11700    0.07000    0.09960    1.000
    H402     H        0.13810    0.06450    0.12510    1.000
    H403     H        0.11030    0.13870    0.09410    1.000
    H404     H        0.09630    0.03410    0.10260    1.000
    C470     C        0.73856    0.48640    0.99100    1.000
    O83      O        0.71854    0.41090    0.97642    1.000
    O84      O        0.74274    0.52070    0.02670    1.000
    C471     C        0.13249    0.51900    0.01840    1.000
    H405     H        0.13110    0.46550    0.99880    1.000
    H406     H        0.14590    0.49430    0.04640    1.000
    C472     C        0.15354    0.60260    0.00930    1.000
    C473     C        0.16682    0.61040    0.97650    1.000
    C474     C        0.16563    0.68920    0.03330    1.000
    N55      N        0.18517    0.69920    0.98145    1.000
    H407     H        0.19580    0.72130    0.96460    1.000
    N56      N        0.18469    0.74780    0.01572    1.000
    C475     C        0.16348    0.54440    0.94000    1.000
    H408     H        0.14990    0.48560    0.94170    1.000
    H409     H        0.15050    0.57900    0.91440    1.000
    H410     H        0.18790    0.52620    0.94050    1.000
    C476     C        0.15880    0.71820    0.07270    1.000
    H411     H        0.17040    0.78100    0.08240    1.000
    H412     H        0.13240    0.72360    0.06700    1.000
    H413     H        0.16900    0.66860    0.09380    1.000
    Co15     Co       0.49039    0.18455    0.95786    1.000
    Co16     Co       0.21025    0.11798    0.53267    1.000
    O85      O        0.23787    0.13110    0.59969    1.000
    O86      O        0.28171    0.16430    0.01576    1.000
    O87      O        0.38150    0.21410    0.95806    1.000
    H414     H        0.40180    0.20120    0.95600    1.000
    O88      O        0.27608    0.11950    0.67904    1.000
    H415     H        0.25950    0.10660    0.65680    1.000
    O89      O        0.47577    0.12390    0.90111    1.000
    O90      O        0.45133    0.17850    0.98262    1.000
    N57      N        0.54400    0.08060    0.03132    1.000
    H416     H        0.52910    0.08680    0.04520    1.000
    O91      O        0.48368    0.15470    0.05005    1.000
    O92      O        0.43656    0.24170    0.89271    1.000
    O93      O        0.26261    0.20180    0.55830    1.000
    C477     C        0.29321    0.22580    0.63077    1.000
    N58      N        0.53429    0.10170    0.99014    1.000
    O94      O        0.37802    0.25270    0.82741    1.000
    H417     H        0.39270    0.26720    0.85070    1.000
    C478     C        0.56472    0.08100    0.98040    1.000
    C479     C        0.31837    0.26790    0.97180    1.000
    H418     H        0.30260    0.31110    0.98130    1.000
    H419     H        0.32380    0.30210    0.94940    1.000
    C480     C        0.27918    0.12610    0.97830    1.000
    C481     C        0.26323    0.18270    0.59514    1.000
    C482     C        0.33333    0.18350    0.74960    1.000
    H420     H        0.32930    0.23600    0.76710    1.000
    H421     H        0.31430    0.13350    0.74670    1.000
    N59      N        0.51030    0.32320    0.95951    1.000
    C483     C        0.35470    0.25250    0.00790    1.000
    C484     C        0.45432    0.17600    0.02140    1.000
    C485     C        0.42026    0.20370    0.03100    1.000
    C486     C        0.38537    0.22330    0.99880    1.000
    C487     C        0.44810    0.17060    0.87850    1.000
    C488     C        0.56708    0.54730    0.00050    1.000
    H422     H        0.55700    0.57230    0.02120    1.000
    H423     H        0.56680    0.60170    0.98160    1.000
    C489     C        0.54172    0.46630    0.97570    1.000
    C490     C        0.29839    0.19140    0.67270    1.000
    C491     C        0.35866    0.27280    0.05010    1.000
    C492     C        0.29643    0.17320    0.95370    1.000
    C493     C        0.27294    0.04300    0.90100    1.000
    N60      N        0.50339    0.38160    0.92570    1.000
    H424     H        0.48850    0.36550    0.90110    1.000
    C494     C        0.34990    0.30540    0.70070    1.000
    C495     C        0.53333    0.37630    0.99050    1.000
    C496     C        0.29282    0.13210    0.91380    1.000
    C497     C        0.25518    0.99820    0.92630    1.000
    H425     H        0.24150    0.94040    0.91720    1.000
    C498     C        0.42644    0.13300    0.83590    1.000
    C499     C        0.37080    0.13700    0.77260    1.000
    C500     C        0.32729    0.22670    0.70674    1.000
    C501     C        0.39320    0.25080    0.08380    1.000
    C502     C        0.57860    0.04960    0.04800    1.000
    C503     C        0.30999    0.17580    0.88690    1.000
    H426     H        0.32370    0.23400    0.89500    1.000
    C504     C        0.32990    0.31740    0.06270    1.000
    H427     H        0.30720    0.33400    0.04230    1.000
    C505     C        0.39187    0.17360    0.81170    1.000
    C506     C        0.60658    0.51680    0.02260    1.000
    C507     C        0.25769    0.03810    0.96410    1.000
    C508     C        0.59620    0.02320    0.09320    1.000
    H428     H        0.57860    0.03330    0.10730    1.000
    H429     H        0.60380    0.95480    0.09560    1.000
    H430     H        0.61760    0.06460    0.10580    1.000
    C509     C        0.39860    0.26970    0.12620    1.000
    H431     H        0.42110    0.25550    0.14740    1.000
    C510     C        0.42283    0.21480    0.07190    1.000
    H432     H        0.44510    0.19780    0.09280    1.000
    C511     C        0.34430    0.34120    0.66020    1.000
    C512     C        0.36680    0.41580    0.65260    1.000
    H433     H        0.36270    0.43840    0.62550    1.000
    C513     C        0.59324    0.04720    0.01560    1.000
    C514     C        0.54760    0.33930    0.03570    1.000
    H434     H        0.53720    0.27500    0.03710    1.000
    H435     H        0.57430    0.33460    0.04520    1.000
    H436     H        0.54030    0.38490    0.05320    1.000
    C515     C        0.26890    0.00160    0.86170    1.000
    H437     H        0.25500    0.94390    0.85290    1.000
    C516     C        0.52190    0.46670    0.93400    1.000
    C517     C        0.36890    0.31040    0.13510    1.000
    H438     H        0.37130    0.32140    0.16300    1.000
    C518     C        0.37880    0.34800    0.73400    1.000
    H439     H        0.38310    0.32650    0.76130    1.000
    C519     C        0.30630    0.13210    0.84900    1.000
    H440     H        0.31810    0.16080    0.83200    1.000
    C520     C        0.31680    0.29830    0.62610    1.000
    H441     H        0.31430    0.31940    0.59920    1.000
    C521     C        0.33530    0.33560    0.10350    1.000
    H442     H        0.31650    0.36530    0.11080    1.000
    C522     C        0.40070    0.42040    0.72680    1.000
    H443     H        0.41980    0.44730    0.74930    1.000
    C523     C        0.56520    0.09300    0.93690    1.000
    H444     H        0.54150    0.11760    0.91900    1.000
    H445     H        0.58440    0.13930    0.93710    1.000
    H446     H        0.57010    0.03000    0.92660    1.000
    C524     C        0.42060    0.01890    0.77840    1.000
    C525     C        0.44050    0.05740    0.81950    1.000
    H447     H        0.46340    0.02990    0.83520    1.000
    C526     C        0.28580    0.04720    0.83590    1.000
    H448     H        0.28310    0.02010    0.80980    1.000
    C527     C        0.38490    0.05660    0.75630    1.000
    C528     C        0.43530    0.93950    0.76140    1.000
    H449     H        0.45890    0.91500    0.77610    1.000
    C529     C        0.51900    0.53960    0.89920    1.000
    H450     H        0.50190    0.51450    0.87320    1.000
    H451     H        0.51010    0.60230    0.90550    1.000
    H452     H        0.54310    0.54850    0.89680    1.000
    C530     C        0.39540    0.45540    0.68650    1.000
    H453     H        0.41070    0.50470    0.68230    1.000
    C531     C        0.36550    0.01240    0.71690    1.000
    H454     H        0.34200    0.03550    0.70090    1.000
    C532     C        0.38120    0.93630    0.70240    1.000
    H455     H        0.36810    0.90870    0.67630    1.000
    C533     C        0.41530    0.89960    0.72450    1.000
    H456     H        0.42480    0.84630    0.71400    1.000
    C534     C        0.63091    0.47500    0.00450    1.000
    C535     C        0.62669    0.52730    0.06390    1.000
    N61      N        0.66151    0.49250    0.07028    1.000
    H457     H        0.67910    0.49120    0.09430    1.000
    N62      N        0.66500    0.45990    0.03393    1.000
    C536     C        0.62474    0.44530    0.96140    1.000
    H458     H        0.64740    0.41890    0.95940    1.000
    H459     H        0.60570    0.39540    0.95300    1.000
    H460     H        0.61710    0.50200    0.94330    1.000
    C537     C        0.61700    0.57000    0.09960    1.000
    H461     H        0.63810    0.56450    0.12510    1.000
    H462     H        0.61030    0.63870    0.09410    1.000
    H463     H        0.59630    0.53410    0.10260    1.000
    C538     C        0.23856    0.98640    0.99100    1.000
    O95      O        0.21854    0.91090    0.97642    1.000
    O96      O        0.24274    0.02070    0.02670    1.000
    C539     C        0.63249    0.01900    0.01840    1.000
    H464     H        0.63110    0.96550    0.99880    1.000
    H465     H        0.64590    0.99430    0.04640    1.000
    C540     C        0.65354    0.10260    0.00930    1.000
    C541     C        0.66682    0.11040    0.97650    1.000
    C542     C        0.66563    0.18920    0.03330    1.000
    N63      N        0.68517    0.19920    0.98145    1.000
    H466     H        0.69580    0.22130    0.96460    1.000
    N64      N        0.68469    0.24780    0.01572    1.000
    C543     C        0.66348    0.04440    0.94000    1.000
    H467     H        0.64990    0.98560    0.94170    1.000
    H468     H        0.65050    0.07900    0.91440    1.000
    H469     H        0.68790    0.02620    0.94050    1.000
    C544     C        0.65880    0.21820    0.07270    1.000
    H470     H        0.67040    0.28100    0.08240    1.000
    H471     H        0.63240    0.22360    0.06700    1.000
    H472     H        0.66900    0.16860    0.09380    1.000
