# CIF file generated by openbabel 3.1.0, see https://openbabel.org
data_I
_chemical_name_common 'image0'
_cell_length_a 18.1712
_cell_length_b 18.1712
_cell_length_c 19.7581
_cell_angle_alpha 90
_cell_angle_beta 90
_cell_angle_gamma 120
_space_group_name_H-M_alt 'P 1'
_space_group_name_Hall 'P 1'
loop_
    _symmetry_equiv_pos_as_xyz
    x,y,z
loop_
    _atom_site_label
    _atom_site_type_symbol
    _atom_site_fract_x
    _atom_site_fract_y
    _atom_site_fract_z
    _atom_site_occupancy
    Tb1      Tb       0.58274    0.49181    0.55565    1.000
    O1       O        0.67016    0.42537    0.70240    1.000
    O2       O        0.68356    0.63493    0.51999    1.000
    C1       C        0.64580    0.46890    0.84601    1.000
    H1       H        0.64520    0.41500    0.84090    1.000
    C2       C        0.65280    0.51600    0.78056    1.000
    H2       H        0.62460    0.55000    0.78290    1.000
    C3       C        0.72860    0.54790    0.82787    1.000
    C4       C        0.64850    0.47980    0.71213    1.000
    C5       C        0.63360    0.64540    0.48285    1.000
    C6       C        0.59010    0.47110    0.90066    1.000
    C7       C        0.66290    0.73190    0.45210    1.000
    H3       H        0.71810    0.77610    0.46920    1.000
    C8       C        0.60790    0.76690    0.42420    1.000
    H4       H        0.63640    0.82900    0.42700    1.000
    C9       C        0.80130    0.53410    0.81150    1.000
    H5       H        0.82720    0.53030    0.85270    1.000
    H6       H        0.84260    0.58100    0.78500    1.000
    H7       H        0.78090    0.48240    0.78620    1.000
    C10      C        0.65280    0.73640    0.37440    1.000
    C11      C        0.75600    0.63100    0.86350    1.000
    H8       H        0.70700    0.63600    0.87340    1.000
    H9       H        0.79410    0.67720    0.83490    1.000
    H10      H        0.78440    0.63270    0.90490    1.000
    C12      C        0.60580    0.65620    0.33230    1.000
    H11      H        0.56910    0.66240    0.30070    1.000
    H12      H        0.57250    0.60870    0.36150    1.000
    H13      H        0.64600    0.64670    0.30800    1.000
    C13      C        0.72940    0.80810    0.33960    1.000
    H14      H        0.75720    0.78510    0.31280    1.000
    H15      H        0.76820    0.84590    0.37310    1.000
    H16      H        0.71130    0.83870    0.31090    1.000
    O3       O        0.62191    0.50929    0.66659    1.000
    O4       O        0.48166    0.77365    0.43867    1.000
    C14      C        0.51230    0.72600    0.42735    1.000
    O5       O        0.46221    0.64998    0.40949    1.000
    O6       O        0.57266    0.42032    0.95052    1.000
    O7       O        0.56433    0.52293    0.89473    1.000
    O8       O        0.56107    0.58299    0.46871    1.000
    C15      C        0.66080    0.73130    0.46150    1.000
    H17      H        0.70840    0.77300    0.48890    1.000
    C16      C        0.60410    0.76630    0.43670    1.000
    H18      H        0.62700    0.82500    0.45210    1.000
    C17      C        0.66690    0.76040    0.38940    1.000
    C18      C        0.63510    0.69150    0.33620    1.000
    H19      H        0.65410    0.65220    0.34680    1.000
    H20      H        0.65670    0.71650    0.29270    1.000
    H21      H        0.57410    0.66190    0.33520    1.000
    C19      C        0.74350    0.84270    0.36780    1.000
    H22      H        0.75990    0.88350    0.40370    1.000
    H23      H        0.72970    0.86400    0.32820    1.000
    H24      H        0.78960    0.83300    0.35770    1.000
    Tb2      Tb       0.50819    0.09093    0.55565    1.000
    O9       O        0.57463    0.24479    0.70240    1.000
    O10      O        0.36507    0.04863    0.51999    1.000
    C20      C        0.53110    0.17690    0.84601    1.000
    H25      H        0.58500    0.23020    0.84090    1.000
    C21      C        0.48400    0.13680    0.78056    1.000
    H26      H        0.45000    0.07460    0.78290    1.000
    C22      C        0.45210    0.18070    0.82787    1.000
    C23      C        0.52020    0.16870    0.71213    1.000
    C24      C        0.35460    0.98820    0.48285    1.000
    C25      C        0.52890    0.11900    0.90066    1.000
    C26      C        0.26810    0.93100    0.45210    1.000
    H27      H        0.22390    0.94200    0.46920    1.000
    C27      C        0.23310    0.84100    0.42420    1.000
    H28      H        0.17100    0.80740    0.42700    1.000
    C28      C        0.46590    0.26720    0.81150    1.000
    H29      H        0.46970    0.29690    0.85270    1.000
    H30      H        0.41900    0.26160    0.78500    1.000
    H31      H        0.51760    0.29850    0.78620    1.000
    C29      C        0.26360    0.91640    0.37440    1.000
    C30      C        0.36900    0.12500    0.86350    1.000
    H32      H        0.36400    0.07100    0.87340    1.000
    H33      H        0.32280    0.11690    0.83490    1.000
    H34      H        0.36730    0.15170    0.90490    1.000
    C31      C        0.34380    0.94960    0.33230    1.000
    H35      H        0.33760    0.90670    0.30070    1.000
    H36      H        0.39130    0.96380    0.36150    1.000
    H37      H        0.35330    0.99930    0.30800    1.000
    C32      C        0.19190    0.92130    0.33960    1.000
    H38      H        0.21490    0.97210    0.31280    1.000
    H39      H        0.15410    0.92230    0.37310    1.000
    H40      H        0.16130    0.87260    0.31090    1.000
    O11      O        0.49071    0.11262    0.66659    1.000
    O12      O        0.22635    0.70801    0.43867    1.000
    C33      C        0.27400    0.78630    0.42735    1.000
    O13      O        0.35002    0.81223    0.40949    1.000
    O14      O        0.57968    0.15234    0.95052    1.000
    O15      O        0.47707    0.04140    0.89473    1.000
    O16      O        0.41701    0.97808    0.46871    1.000
    C34      C        0.26870    0.92950    0.46150    1.000
    H41      H        0.22700    0.93540    0.48890    1.000
    C35      C        0.23370    0.83780    0.43670    1.000
    H42      H        0.17500    0.80200    0.45210    1.000
    C36      C        0.23960    0.90650    0.38940    1.000
    C37      C        0.30850    0.94360    0.33620    1.000
    H43      H        0.34780    0.00190    0.34680    1.000
    H44      H        0.28350    0.94020    0.29270    1.000
    H45      H        0.33810    0.91220    0.33520    1.000
    C38      C        0.15730    0.90080    0.36780    1.000
    H46      H        0.11650    0.87640    0.40370    1.000
    H47      H        0.13600    0.86570    0.32820    1.000
    H48      H        0.16700    0.95660    0.35770    1.000
    Tb3      Tb       0.90907    0.41726    0.55565    1.000
    O17      O        0.75521    0.32984    0.70240    1.000
    O18      O        0.95137    0.31644    0.51999    1.000
    C39      C        0.82310    0.35420    0.84601    1.000
    H49      H        0.76980    0.35480    0.84090    1.000
    C40      C        0.86320    0.34720    0.78056    1.000
    H50      H        0.92540    0.37540    0.78290    1.000
    C41      C        0.81930    0.27140    0.82787    1.000
    C42      C        0.83130    0.35150    0.71213    1.000
    C43      C        0.01180    0.36640    0.48285    1.000
    C44      C        0.88100    0.40990    0.90066    1.000
    C45      C        0.06900    0.33710    0.45210    1.000
    H51      H        0.05800    0.28190    0.46920    1.000
    C46      C        0.15900    0.39210    0.42420    1.000
    H52      H        0.19260    0.36360    0.42700    1.000
    C47      C        0.73280    0.19870    0.81150    1.000
    H53      H        0.70310    0.17280    0.85270    1.000
    H54      H        0.73840    0.15740    0.78500    1.000
    H55      H        0.70150    0.21910    0.78620    1.000
    C48      C        0.08360    0.34720    0.37440    1.000
    C49      C        0.87500    0.24400    0.86350    1.000
    H56      H        0.92900    0.29300    0.87340    1.000
    H57      H        0.88310    0.20590    0.83490    1.000
    H58      H        0.84830    0.21560    0.90490    1.000
    C50      C        0.05040    0.39420    0.33230    1.000
    H59      H        0.09330    0.43090    0.30070    1.000
    H60      H        0.03620    0.42750    0.36150    1.000
    H61      H        0.00070    0.35400    0.30800    1.000
    C51      C        0.07870    0.27060    0.33960    1.000
    H62      H        0.02790    0.24280    0.31280    1.000
    H63      H        0.07770    0.23180    0.37310    1.000
    H64      H        0.12740    0.28870    0.31090    1.000
    O19      O        0.88738    0.37809    0.66659    1.000
    O20      O        0.29199    0.51834    0.43867    1.000
    C52      C        0.21370    0.48770    0.42735    1.000
    O21      O        0.18777    0.53779    0.40949    1.000
    O22      O        0.84766    0.42734    0.95052    1.000
    O23      O        0.95860    0.43567    0.89473    1.000
    O24      O        0.02192    0.43893    0.46871    1.000
    C53      C        0.07050    0.33920    0.46150    1.000
    H65      H        0.06460    0.29160    0.48890    1.000
    C54      C        0.16220    0.39590    0.43670    1.000
    H66      H        0.19800    0.37300    0.45210    1.000
    C55      C        0.09350    0.33310    0.38940    1.000
    C56      C        0.05640    0.36490    0.33620    1.000
    H67      H        0.99810    0.34590    0.34680    1.000
    H68      H        0.05980    0.34330    0.29270    1.000
    H69      H        0.08780    0.42590    0.33520    1.000
    C57      C        0.09920    0.25650    0.36780    1.000
    H70      H        0.12360    0.24010    0.40370    1.000
    H71      H        0.13430    0.27030    0.32820    1.000
    H72      H        0.04340    0.21040    0.35770    1.000
    Tb4      Tb       0.49181    0.58274    0.94435    1.000
    O25      O        0.42537    0.67016    0.79760    1.000
    O26      O        0.63493    0.68356    0.98001    1.000
    C58      C        0.46890    0.64580    0.65399    1.000
    H73      H        0.41500    0.64520    0.65910    1.000
    C59      C        0.51600    0.65280    0.71944    1.000
    H74      H        0.55000    0.62460    0.71710    1.000
    C60      C        0.54790    0.72860    0.67213    1.000
    C61      C        0.47980    0.64850    0.78787    1.000
    C62      C        0.64540    0.63360    0.01715    1.000
    C63      C        0.47110    0.59010    0.59934    1.000
    C64      C        0.73190    0.66290    0.04790    1.000
    H75      H        0.77610    0.71810    0.03080    1.000
    C65      C        0.76690    0.60790    0.07580    1.000
    H76      H        0.82900    0.63640    0.07300    1.000
    C66      C        0.53410    0.80130    0.68850    1.000
    H77      H        0.53030    0.82720    0.64730    1.000
    H78      H        0.58100    0.84260    0.71500    1.000
    H79      H        0.48240    0.78090    0.71380    1.000
    C67      C        0.73640    0.65280    0.12560    1.000
    C68      C        0.63100    0.75600    0.63650    1.000
    H80      H        0.63600    0.70700    0.62660    1.000
    H81      H        0.67720    0.79410    0.66510    1.000
    H82      H        0.63270    0.78440    0.59510    1.000
    C69      C        0.65620    0.60580    0.16770    1.000
    H83      H        0.66240    0.56910    0.19930    1.000
    H84      H        0.60870    0.57250    0.13850    1.000
    H85      H        0.64670    0.64600    0.19200    1.000
    C70      C        0.80810    0.72940    0.16040    1.000
    H86      H        0.78510    0.75720    0.18720    1.000
    H87      H        0.84590    0.76820    0.12690    1.000
    H88      H        0.83870    0.71130    0.18910    1.000
    O27      O        0.50929    0.62191    0.83341    1.000
    O28      O        0.77365    0.48166    0.06133    1.000
    C71      C        0.72600    0.51230    0.07265    1.000
    O29      O        0.64998    0.46221    0.09051    1.000
    O30      O        0.42032    0.57266    0.54948    1.000
    O31      O        0.52293    0.56433    0.60527    1.000
    O32      O        0.58299    0.56107    0.03129    1.000
    C72      C        0.73130    0.66080    0.03850    1.000
    H89      H        0.77300    0.70840    0.01110    1.000
    C73      C        0.76630    0.60410    0.06330    1.000
    H90      H        0.82500    0.62700    0.04790    1.000
    C74      C        0.76040    0.66690    0.11060    1.000
    C75      C        0.69150    0.63510    0.16380    1.000
    H91      H        0.65220    0.65410    0.15320    1.000
    H92      H        0.71650    0.65670    0.20730    1.000
    H93      H        0.66190    0.57410    0.16480    1.000
    C76      C        0.84270    0.74350    0.13220    1.000
    H94      H        0.88350    0.75990    0.09630    1.000
    H95      H        0.86400    0.72970    0.17180    1.000
    H96      H        0.83300    0.78960    0.14230    1.000
    Tb5      Tb       0.09093    0.50819    0.94435    1.000
    O33      O        0.24479    0.57463    0.79760    1.000
    O34      O        0.04863    0.36507    0.98001    1.000
    C77      C        0.17690    0.53110    0.65399    1.000
    H97      H        0.23020    0.58500    0.65910    1.000
    C78      C        0.13680    0.48400    0.71944    1.000
    H98      H        0.07460    0.45000    0.71710    1.000
    C79      C        0.18070    0.45210    0.67213    1.000
    C80      C        0.16870    0.52020    0.78787    1.000
    C81      C        0.98820    0.35460    0.01715    1.000
    C82      C        0.11900    0.52890    0.59934    1.000
    C83      C        0.93100    0.26810    0.04790    1.000
    H99      H        0.94200    0.22390    0.03080    1.000
    C84      C        0.84100    0.23310    0.07580    1.000
    H100     H        0.80740    0.17100    0.07300    1.000
    C85      C        0.26720    0.46590    0.68850    1.000
    H101     H        0.29690    0.46970    0.64730    1.000
    H102     H        0.26160    0.41900    0.71500    1.000
    H103     H        0.29850    0.51760    0.71380    1.000
    C86      C        0.91640    0.26360    0.12560    1.000
    C87      C        0.12500    0.36900    0.63650    1.000
    H104     H        0.07100    0.36400    0.62660    1.000
    H105     H        0.11690    0.32280    0.66510    1.000
    H106     H        0.15170    0.36730    0.59510    1.000
    C88      C        0.94960    0.34380    0.16770    1.000
    H107     H        0.90670    0.33760    0.19930    1.000
    H108     H        0.96380    0.39130    0.13850    1.000
    H109     H        0.99930    0.35330    0.19200    1.000
    C89      C        0.92130    0.19190    0.16040    1.000
    H110     H        0.97210    0.21490    0.18720    1.000
    H111     H        0.92230    0.15410    0.12690    1.000
    H112     H        0.87260    0.16130    0.18910    1.000
    O35      O        0.11262    0.49071    0.83341    1.000
    O36      O        0.70801    0.22635    0.06133    1.000
    C90      C        0.78630    0.27400    0.07265    1.000
    O37      O        0.81223    0.35002    0.09051    1.000
    O38      O        0.15234    0.57968    0.54948    1.000
    O39      O        0.04140    0.47707    0.60527    1.000
    O40      O        0.97808    0.41701    0.03129    1.000
    C91      C        0.92950    0.26870    0.03850    1.000
    H113     H        0.93540    0.22700    0.01110    1.000
    C92      C        0.83780    0.23370    0.06330    1.000
    H114     H        0.80200    0.17500    0.04790    1.000
    C93      C        0.90650    0.23960    0.11060    1.000
    C94      C        0.94360    0.30850    0.16380    1.000
    H115     H        0.00190    0.34780    0.15320    1.000
    H116     H        0.94020    0.28350    0.20730    1.000
    H117     H        0.91220    0.33810    0.16480    1.000
    C95      C        0.90080    0.15730    0.13220    1.000
    H118     H        0.87640    0.11650    0.09630    1.000
    H119     H        0.86570    0.13600    0.17180    1.000
    H120     H        0.95660    0.16700    0.14230    1.000
    Tb6      Tb       0.41726    0.90907    0.94435    1.000
    O41      O        0.32984    0.75521    0.79760    1.000
    O42      O        0.31644    0.95137    0.98001    1.000
    C96      C        0.35420    0.82310    0.65399    1.000
    H121     H        0.35480    0.76980    0.65910    1.000
    C97      C        0.34720    0.86320    0.71944    1.000
    H122     H        0.37540    0.92540    0.71710    1.000
    C98      C        0.27140    0.81930    0.67213    1.000
    C99      C        0.35150    0.83130    0.78787    1.000
    C100     C        0.36640    0.01180    0.01715    1.000
    C101     C        0.40990    0.88100    0.59934    1.000
    C102     C        0.33710    0.06900    0.04790    1.000
    H123     H        0.28190    0.05800    0.03080    1.000
    C103     C        0.39210    0.15900    0.07580    1.000
    H124     H        0.36360    0.19260    0.07300    1.000
    C104     C        0.19870    0.73280    0.68850    1.000
    H125     H        0.17280    0.70310    0.64730    1.000
    H126     H        0.15740    0.73840    0.71500    1.000
    H127     H        0.21910    0.70150    0.71380    1.000
    C105     C        0.34720    0.08360    0.12560    1.000
    C106     C        0.24400    0.87500    0.63650    1.000
    H128     H        0.29300    0.92900    0.62660    1.000
    H129     H        0.20590    0.88310    0.66510    1.000
    H130     H        0.21560    0.84830    0.59510    1.000
    C107     C        0.39420    0.05040    0.16770    1.000
    H131     H        0.43090    0.09330    0.19930    1.000
    H132     H        0.42750    0.03620    0.13850    1.000
    H133     H        0.35400    0.00070    0.19200    1.000
    C108     C        0.27060    0.07870    0.16040    1.000
    H134     H        0.24280    0.02790    0.18720    1.000
    H135     H        0.23180    0.07770    0.12690    1.000
    H136     H        0.28870    0.12740    0.18910    1.000
    O43      O        0.37809    0.88738    0.83341    1.000
    O44      O        0.51834    0.29199    0.06133    1.000
    C109     C        0.48770    0.21370    0.07265    1.000
    O45      O        0.53779    0.18777    0.09051    1.000
    O46      O        0.42734    0.84766    0.54948    1.000
    O47      O        0.43567    0.95860    0.60527    1.000
    O48      O        0.43893    0.02192    0.03129    1.000
    C110     C        0.33920    0.07050    0.03850    1.000
    H137     H        0.29160    0.06460    0.01110    1.000
    C111     C        0.39590    0.16220    0.06330    1.000
    H138     H        0.37300    0.19800    0.04790    1.000
    C112     C        0.33310    0.09350    0.11060    1.000
    C113     C        0.36490    0.05640    0.16380    1.000
    H139     H        0.34590    0.99810    0.15320    1.000
    H140     H        0.34330    0.05980    0.20730    1.000
    H141     H        0.42590    0.08780    0.16480    1.000
    C114     C        0.25650    0.09920    0.13220    1.000
    H142     H        0.24010    0.12360    0.09630    1.000
    H143     H        0.27030    0.13430    0.17180    1.000
    H144     H        0.21040    0.04340    0.14230    1.000
    Tb7      Tb       0.41726    0.50819    0.44435    1.000
    O49      O        0.32984    0.57463    0.29760    1.000
    O50      O        0.31644    0.36507    0.48001    1.000
    C115     C        0.35420    0.53110    0.15399    1.000
    H145     H        0.35480    0.58500    0.15910    1.000
    C116     C        0.34720    0.48400    0.21944    1.000
    H146     H        0.37540    0.45000    0.21710    1.000
    C117     C        0.27140    0.45210    0.17213    1.000
    C118     C        0.35150    0.52020    0.28787    1.000
    C119     C        0.36640    0.35460    0.51715    1.000
    C120     C        0.40990    0.52890    0.09934    1.000
    C121     C        0.33710    0.26810    0.54790    1.000
    H147     H        0.28190    0.22390    0.53080    1.000
    C122     C        0.39210    0.23310    0.57580    1.000
    H148     H        0.36360    0.17100    0.57300    1.000
    C123     C        0.19870    0.46590    0.18850    1.000
    H149     H        0.17280    0.46970    0.14730    1.000
    H150     H        0.15740    0.41900    0.21500    1.000
    H151     H        0.21910    0.51760    0.21380    1.000
    C124     C        0.34720    0.26360    0.62560    1.000
    C125     C        0.24400    0.36900    0.13650    1.000
    H152     H        0.29300    0.36400    0.12660    1.000
    H153     H        0.20590    0.32280    0.16510    1.000
    H154     H        0.21560    0.36730    0.09510    1.000
    C126     C        0.39420    0.34380    0.66770    1.000
    H155     H        0.43090    0.33760    0.69930    1.000
    H156     H        0.42750    0.39130    0.63850    1.000
    H157     H        0.35400    0.35330    0.69200    1.000
    C127     C        0.27060    0.19190    0.66040    1.000
    H158     H        0.24280    0.21490    0.68720    1.000
    H159     H        0.23180    0.15410    0.62690    1.000
    H160     H        0.28870    0.16130    0.68910    1.000
    O51      O        0.37809    0.49071    0.33341    1.000
    O52      O        0.51834    0.22635    0.56133    1.000
    C128     C        0.48770    0.27400    0.57265    1.000
    O53      O        0.53779    0.35002    0.59051    1.000
    O54      O        0.42734    0.57968    0.04948    1.000
    O55      O        0.43567    0.47707    0.10527    1.000
    O56      O        0.43893    0.41701    0.53129    1.000
    C129     C        0.33920    0.26870    0.53850    1.000
    H161     H        0.29160    0.22700    0.51110    1.000
    C130     C        0.39590    0.23370    0.56330    1.000
    H162     H        0.37300    0.17500    0.54790    1.000
    C131     C        0.33310    0.23960    0.61060    1.000
    C132     C        0.36490    0.30850    0.66380    1.000
    H163     H        0.34590    0.34780    0.65320    1.000
    H164     H        0.34330    0.28350    0.70730    1.000
    H165     H        0.42590    0.33810    0.66480    1.000
    C133     C        0.25650    0.15730    0.63220    1.000
    H166     H        0.24010    0.11650    0.59630    1.000
    H167     H        0.27030    0.13600    0.67180    1.000
    H168     H        0.21040    0.16700    0.64230    1.000
    Tb8      Tb       0.49181    0.90907    0.44435    1.000
    O57      O        0.42537    0.75521    0.29760    1.000
    O58      O        0.63493    0.95137    0.48001    1.000
    C134     C        0.46890    0.82310    0.15399    1.000
    H169     H        0.41500    0.76980    0.15910    1.000
    C135     C        0.51600    0.86320    0.21944    1.000
    H170     H        0.55000    0.92540    0.21710    1.000
    C136     C        0.54790    0.81930    0.17213    1.000
    C137     C        0.47980    0.83130    0.28787    1.000
    C138     C        0.64540    0.01180    0.51715    1.000
    C139     C        0.47110    0.88100    0.09934    1.000
    C140     C        0.73190    0.06900    0.54790    1.000
    H171     H        0.77610    0.05800    0.53080    1.000
    C141     C        0.76690    0.15900    0.57580    1.000
    H172     H        0.82900    0.19260    0.57300    1.000
    C142     C        0.53410    0.73280    0.18850    1.000
    H173     H        0.53030    0.70310    0.14730    1.000
    H174     H        0.58100    0.73840    0.21500    1.000
    H175     H        0.48240    0.70150    0.21380    1.000
    C143     C        0.73640    0.08360    0.62560    1.000
    C144     C        0.63100    0.87500    0.13650    1.000
    H176     H        0.63600    0.92900    0.12660    1.000
    H177     H        0.67720    0.88310    0.16510    1.000
    H178     H        0.63270    0.84830    0.09510    1.000
    C145     C        0.65620    0.05040    0.66770    1.000
    H179     H        0.66240    0.09330    0.69930    1.000
    H180     H        0.60870    0.03620    0.63850    1.000
    H181     H        0.64670    0.00070    0.69200    1.000
    C146     C        0.80810    0.07870    0.66040    1.000
    H182     H        0.78510    0.02790    0.68720    1.000
    H183     H        0.84590    0.07770    0.62690    1.000
    H184     H        0.83870    0.12740    0.68910    1.000
    O59      O        0.50929    0.88738    0.33341    1.000
    O60      O        0.77365    0.29199    0.56133    1.000
    C147     C        0.72600    0.21370    0.57265    1.000
    O61      O        0.64998    0.18777    0.59051    1.000
    O62      O        0.42032    0.84766    0.04948    1.000
    O63      O        0.52293    0.95860    0.10527    1.000
    O64      O        0.58299    0.02192    0.53129    1.000
    C148     C        0.73130    0.07050    0.53850    1.000
    H185     H        0.77300    0.06460    0.51110    1.000
    C149     C        0.76630    0.16220    0.56330    1.000
    H186     H        0.82500    0.19800    0.54790    1.000
    C150     C        0.76040    0.09350    0.61060    1.000
    C151     C        0.69150    0.05640    0.66380    1.000
    H187     H        0.65220    0.99810    0.65320    1.000
    H188     H        0.71650    0.05980    0.70730    1.000
    H189     H        0.66190    0.08780    0.66480    1.000
    C152     C        0.84270    0.09920    0.63220    1.000
    H190     H        0.88350    0.12360    0.59630    1.000
    H191     H        0.86400    0.13430    0.67180    1.000
    H192     H        0.83300    0.04340    0.64230    1.000
    Tb9      Tb       0.09093    0.58274    0.44435    1.000
    O65      O        0.24479    0.67016    0.29760    1.000
    O66      O        0.04863    0.68356    0.48001    1.000
    C153     C        0.17690    0.64580    0.15399    1.000
    H193     H        0.23020    0.64520    0.15910    1.000
    C154     C        0.13680    0.65280    0.21944    1.000
    H194     H        0.07460    0.62460    0.21710    1.000
    C155     C        0.18070    0.72860    0.17213    1.000
    C156     C        0.16870    0.64850    0.28787    1.000
    C157     C        0.98820    0.63360    0.51715    1.000
    C158     C        0.11900    0.59010    0.09934    1.000
    C159     C        0.93100    0.66290    0.54790    1.000
    H195     H        0.94200    0.71810    0.53080    1.000
    C160     C        0.84100    0.60790    0.57580    1.000
    H196     H        0.80740    0.63640    0.57300    1.000
    C161     C        0.26720    0.80130    0.18850    1.000
    H197     H        0.29690    0.82720    0.14730    1.000
    H198     H        0.26160    0.84260    0.21500    1.000
    H199     H        0.29850    0.78090    0.21380    1.000
    C162     C        0.91640    0.65280    0.62560    1.000
    C163     C        0.12500    0.75600    0.13650    1.000
    H200     H        0.07100    0.70700    0.12660    1.000
    H201     H        0.11690    0.79410    0.16510    1.000
    H202     H        0.15170    0.78440    0.09510    1.000
    C164     C        0.94960    0.60580    0.66770    1.000
    H203     H        0.90670    0.56910    0.69930    1.000
    H204     H        0.96380    0.57250    0.63850    1.000
    H205     H        0.99930    0.64600    0.69200    1.000
    C165     C        0.92130    0.72940    0.66040    1.000
    H206     H        0.97210    0.75720    0.68720    1.000
    H207     H        0.92230    0.76820    0.62690    1.000
    H208     H        0.87260    0.71130    0.68910    1.000
    O67      O        0.11262    0.62191    0.33341    1.000
    O68      O        0.70801    0.48166    0.56133    1.000
    C166     C        0.78630    0.51230    0.57265    1.000
    O69      O        0.81223    0.46221    0.59051    1.000
    O70      O        0.15234    0.57266    0.04948    1.000
    O71      O        0.04140    0.56433    0.10527    1.000
    O72      O        0.97808    0.56107    0.53129    1.000
    C167     C        0.92950    0.66080    0.53850    1.000
    H209     H        0.93540    0.70840    0.51110    1.000
    C168     C        0.83780    0.60410    0.56330    1.000
    H210     H        0.80200    0.62700    0.54790    1.000
    C169     C        0.90650    0.66690    0.61060    1.000
    C170     C        0.94360    0.63510    0.66380    1.000
    H211     H        0.00190    0.65410    0.65320    1.000
    H212     H        0.94020    0.65670    0.70730    1.000
    H213     H        0.91220    0.57410    0.66480    1.000
    C171     C        0.90080    0.74350    0.63220    1.000
    H214     H        0.87640    0.75990    0.59630    1.000
    H215     H        0.86570    0.72970    0.67180    1.000
    H216     H        0.95660    0.78960    0.64230    1.000
    Tb10     Tb       0.50819    0.41726    0.05565    1.000
    O73      O        0.57463    0.32984    0.20240    1.000
    O74      O        0.36507    0.31644    0.01999    1.000
    C172     C        0.53110    0.35420    0.34601    1.000
    H217     H        0.58500    0.35480    0.34090    1.000
    C173     C        0.48400    0.34720    0.28056    1.000
    H218     H        0.45000    0.37540    0.28290    1.000
    C174     C        0.45210    0.27140    0.32787    1.000
    C175     C        0.52020    0.35150    0.21213    1.000
    C176     C        0.35460    0.36640    0.98285    1.000
    C177     C        0.52890    0.40990    0.40066    1.000
    C178     C        0.26810    0.33710    0.95210    1.000
    H219     H        0.22390    0.28190    0.96920    1.000
    C179     C        0.23310    0.39210    0.92420    1.000
    H220     H        0.17100    0.36360    0.92700    1.000
    C180     C        0.46590    0.19870    0.31150    1.000
    H221     H        0.46970    0.17280    0.35270    1.000
    H222     H        0.41900    0.15740    0.28500    1.000
    H223     H        0.51760    0.21910    0.28620    1.000
    C181     C        0.26360    0.34720    0.87440    1.000
    C182     C        0.36900    0.24400    0.36350    1.000
    H224     H        0.36400    0.29300    0.37340    1.000
    H225     H        0.32280    0.20590    0.33490    1.000
    H226     H        0.36730    0.21560    0.40490    1.000
    C183     C        0.34380    0.39420    0.83230    1.000
    H227     H        0.33760    0.43090    0.80070    1.000
    H228     H        0.39130    0.42750    0.86150    1.000
    H229     H        0.35330    0.35400    0.80800    1.000
    C184     C        0.19190    0.27060    0.83960    1.000
    H230     H        0.21490    0.24280    0.81280    1.000
    H231     H        0.15410    0.23180    0.87310    1.000
    H232     H        0.16130    0.28870    0.81090    1.000
    O75      O        0.49071    0.37809    0.16659    1.000
    O76      O        0.22635    0.51834    0.93867    1.000
    C185     C        0.27400    0.48770    0.92735    1.000
    O77      O        0.35002    0.53779    0.90949    1.000
    O78      O        0.57968    0.42734    0.45052    1.000
    O79      O        0.47707    0.43567    0.39473    1.000
    O80      O        0.41701    0.43893    0.96871    1.000
    C186     C        0.26870    0.33920    0.96150    1.000
    H233     H        0.22700    0.29160    0.98890    1.000
    C187     C        0.23370    0.39590    0.93670    1.000
    H234     H        0.17500    0.37300    0.95210    1.000
    C188     C        0.23960    0.33310    0.88940    1.000
    C189     C        0.30850    0.36490    0.83620    1.000
    H235     H        0.34780    0.34590    0.84680    1.000
    H236     H        0.28350    0.34330    0.79270    1.000
    H237     H        0.33810    0.42590    0.83520    1.000
    C190     C        0.15730    0.25650    0.86780    1.000
    H238     H        0.11650    0.24010    0.90370    1.000
    H239     H        0.13600    0.27030    0.82820    1.000
    H240     H        0.16700    0.21040    0.85770    1.000
    Tb11     Tb       0.90907    0.49181    0.05565    1.000
    O81      O        0.75521    0.42537    0.20240    1.000
    O82      O        0.95137    0.63493    0.01999    1.000
    C191     C        0.82310    0.46890    0.34601    1.000
    H241     H        0.76980    0.41500    0.34090    1.000
    C192     C        0.86320    0.51600    0.28056    1.000
    H242     H        0.92540    0.55000    0.28290    1.000
    C193     C        0.81930    0.54790    0.32787    1.000
    C194     C        0.83130    0.47980    0.21213    1.000
    C195     C        0.01180    0.64540    0.98285    1.000
    C196     C        0.88100    0.47110    0.40066    1.000
    C197     C        0.06900    0.73190    0.95210    1.000
    H243     H        0.05800    0.77610    0.96920    1.000
    C198     C        0.15900    0.76690    0.92420    1.000
    H244     H        0.19260    0.82900    0.92700    1.000
    C199     C        0.73280    0.53410    0.31150    1.000
    H245     H        0.70310    0.53030    0.35270    1.000
    H246     H        0.73840    0.58100    0.28500    1.000
    H247     H        0.70150    0.48240    0.28620    1.000
    C200     C        0.08360    0.73640    0.87440    1.000
    C201     C        0.87500    0.63100    0.36350    1.000
    H248     H        0.92900    0.63600    0.37340    1.000
    H249     H        0.88310    0.67720    0.33490    1.000
    H250     H        0.84830    0.63270    0.40490    1.000
    C202     C        0.05040    0.65620    0.83230    1.000
    H251     H        0.09330    0.66240    0.80070    1.000
    H252     H        0.03620    0.60870    0.86150    1.000
    H253     H        0.00070    0.64670    0.80800    1.000
    C203     C        0.07870    0.80810    0.83960    1.000
    H254     H        0.02790    0.78510    0.81280    1.000
    H255     H        0.07770    0.84590    0.87310    1.000
    H256     H        0.12740    0.83870    0.81090    1.000
    O83      O        0.88738    0.50929    0.16659    1.000
    O84      O        0.29199    0.77365    0.93867    1.000
    C204     C        0.21370    0.72600    0.92735    1.000
    O85      O        0.18777    0.64998    0.90949    1.000
    O86      O        0.84766    0.42032    0.45052    1.000
    O87      O        0.95860    0.52293    0.39473    1.000
    O88      O        0.02192    0.58299    0.96871    1.000
    C205     C        0.07050    0.73130    0.96150    1.000
    H257     H        0.06460    0.77300    0.98890    1.000
    C206     C        0.16220    0.76630    0.93670    1.000
    H258     H        0.19800    0.82500    0.95210    1.000
    C207     C        0.09350    0.76040    0.88940    1.000
    C208     C        0.05640    0.69150    0.83620    1.000
    H259     H        0.99810    0.65220    0.84680    1.000
    H260     H        0.05980    0.71650    0.79270    1.000
    H261     H        0.08780    0.66190    0.83520    1.000
    C209     C        0.09920    0.84270    0.86780    1.000
    H262     H        0.12360    0.88350    0.90370    1.000
    H263     H        0.13430    0.86400    0.82820    1.000
    H264     H        0.04340    0.83300    0.85770    1.000
    Tb12     Tb       0.58274    0.09093    0.05565    1.000
    O89      O        0.67016    0.24479    0.20240    1.000
    O90      O        0.68356    0.04863    0.01999    1.000
    C210     C        0.64580    0.17690    0.34601    1.000
    H265     H        0.64520    0.23020    0.34090    1.000
    C211     C        0.65280    0.13680    0.28056    1.000
    H266     H        0.62460    0.07460    0.28290    1.000
    C212     C        0.72860    0.18070    0.32787    1.000
    C213     C        0.64850    0.16870    0.21213    1.000
    C214     C        0.63360    0.98820    0.98285    1.000
    C215     C        0.59010    0.11900    0.40066    1.000
    C216     C        0.66290    0.93100    0.95210    1.000
    H267     H        0.71810    0.94200    0.96920    1.000
    C217     C        0.60790    0.84100    0.92420    1.000
    H268     H        0.63640    0.80740    0.92700    1.000
    C218     C        0.80130    0.26720    0.31150    1.000
    H269     H        0.82720    0.29690    0.35270    1.000
    H270     H        0.84260    0.26160    0.28500    1.000
    H271     H        0.78090    0.29850    0.28620    1.000
    C219     C        0.65280    0.91640    0.87440    1.000
    C220     C        0.75600    0.12500    0.36350    1.000
    H272     H        0.70700    0.07100    0.37340    1.000
    H273     H        0.79410    0.11690    0.33490    1.000
    H274     H        0.78440    0.15170    0.40490    1.000
    C221     C        0.60580    0.94960    0.83230    1.000
    H275     H        0.56910    0.90670    0.80070    1.000
    H276     H        0.57250    0.96380    0.86150    1.000
    H277     H        0.64600    0.99930    0.80800    1.000
    C222     C        0.72940    0.92130    0.83960    1.000
    H278     H        0.75720    0.97210    0.81280    1.000
    H279     H        0.76820    0.92230    0.87310    1.000
    H280     H        0.71130    0.87260    0.81090    1.000
    O91      O        0.62191    0.11262    0.16659    1.000
    O92      O        0.48166    0.70801    0.93867    1.000
    C223     C        0.51230    0.78630    0.92735    1.000
    O93      O        0.46221    0.81223    0.90949    1.000
    O94      O        0.57266    0.15234    0.45052    1.000
    O95      O        0.56433    0.04140    0.39473    1.000
    O96      O        0.56107    0.97808    0.96871    1.000
    C224     C        0.66080    0.92950    0.96150    1.000
    H281     H        0.70840    0.93540    0.98890    1.000
    C225     C        0.60410    0.83780    0.93670    1.000
    H282     H        0.62700    0.80200    0.95210    1.000
    C226     C        0.66690    0.90650    0.88940    1.000
    C227     C        0.63510    0.94360    0.83620    1.000
    H283     H        0.65410    0.00190    0.84680    1.000
    H284     H        0.65670    0.94020    0.79270    1.000
    H285     H        0.57410    0.91220    0.83520    1.000
    C228     C        0.74350    0.90080    0.86780    1.000
    H286     H        0.75990    0.87640    0.90370    1.000
    H287     H        0.72970    0.86570    0.82820    1.000
    H288     H        0.78960    0.95660    0.85770    1.000
    Tb13     Tb       0.66667    0.33333    0.61768    1.000
    Tb14     Tb       0.33333    0.66667    0.88232    1.000
    Tb15     Tb       0.33333    0.66667    0.38232    1.000
    Tb16     Tb       0.66667    0.33333    0.11768    1.000
