data_functionalizedCrystal
_audit_creation_method	'EQeq! by Chris Wilmer'
_symmetry_space_group_name_H-M	'P1'
_symmetry_Int_Tables_number	1
_symmetry_cell_setting	triclinic
loop_
_symmetry_equiv_pos_as_xyz
  x,y,z
_cell_length_a	15.439
_cell_length_b	15.439
_cell_length_c	28.034
_cell_angle_alpha	90
_cell_angle_beta	90
_cell_angle_gamma	90
loop_
_atom_site_label
_atom_site_type_symbol
_atom_site_fract_x
_atom_site_fract_y
_atom_site_fract_z
_atom_site_charge
Mof_O 	O 	0.10508	0.07671	0.78823	-0.494
Mof_C 	C 	0.16897	0.26539	0.77154	0.045
Mof_C 	C 	0.0868	0.2844	0.79351	-0.083
Mof_H 	H 	0.0424	0.2418	0.7937	0.053
Mof_C 	C 	0.0725	0.3622	0.8138	-0.032
Mof_H 	H 	0.0182	0.3737	0.8283	0.022
Mof_C 	C 	0.0463	0.9441	0.9487	-0.051
Mof_H 	H 	0.0832	0.9032	0.9646	0.047
Mof_C 	C 	0.0426	0.9477	0.8991	0.1
Mof_H 	H 	0.0744	0.9044	0.8818	-0.01
Mof_O 	O 	0.60508	0.57671	0.28823	-0.465
Mof_C 	C 	0.66897	0.76539	0.27154	0.054
Mof_C 	C 	0.5868	0.7844	0.29351	-0.076
Mof_H 	H 	0.5424	0.7418	0.2937	0.07
Mof_C 	C 	0.5725	0.8622	0.3138	-0.02
Mof_H 	H 	0.5182	0.8737	0.3283	0.049
Mof_C 	C 	0.5463	0.4441	0.4487	-0.097
Mof_H 	H 	0.5832	0.4032	0.4646	0.055
Mof_C 	C 	0.5426	0.4477	0.3991	0.056
Mof_H 	H 	0.5744	0.4044	0.3818	0.004
Mof_O 	O 	0.89492	0.92329	0.78823	-0.422
Mof_C 	C 	0.83103	0.73461	0.77154	0.055
Mof_C 	C 	0.9132	0.7156	0.79351	-0.074
Mof_H 	H 	0.9576	0.7582	0.7937	0.085
Mof_C 	C 	0.9275	0.6378	0.8138	-0.016
Mof_H 	H 	0.9818	0.6263	0.8283	0.056
Mof_C 	C 	0.9537	0.0559	0.9487	-0.046
Mof_H 	H 	0.9168	0.0968	0.9646	0.047
Mof_C 	C 	0.9574	0.0523	0.8991	0.098
Mof_H 	H 	0.9256	0.0956	0.8818	-0.002
Mof_O 	O 	0.39492	0.42329	0.28823	-0.468
Mof_C 	C 	0.33103	0.23461	0.27154	0.05
Mof_C 	C 	0.4132	0.2156	0.29351	-0.083
Mof_H 	H 	0.4576	0.2582	0.2937	0.068
Mof_C 	C 	0.4275	0.1378	0.3138	-0.027
Mof_H 	H 	0.4818	0.1263	0.3283	0.029
Mof_C 	C 	0.4537	0.5559	0.4487	-0.097
Mof_H 	H 	0.4168	0.5968	0.4646	0.056
Mof_C 	C 	0.4574	0.5523	0.3991	0.055
Mof_H 	H 	0.4256	0.5956	0.3818	0.006
Mof_O 	O 	0.92329	0.10508	0.78823	-0.445
Mof_C 	C 	0.73461	0.16897	0.77154	0.045
Mof_C 	C 	0.7156	0.0868	0.79351	-0.08
Mof_H 	H 	0.7582	0.0424	0.7937	0.053
Mof_C 	C 	0.6378	0.0725	0.8138	-0.033
Mof_H 	H 	0.6263	0.0182	0.8283	0.023
Mof_C 	C 	0.0559	0.0463	0.9487	-0.065
Mof_H 	H 	0.0968	0.0832	0.9646	0.035
Mof_C 	C 	0.0523	0.0426	0.8991	-0.04
Mof_H 	H 	0.0956	0.0744	0.8818	0.021
Mof_O 	O 	0.42329	0.60508	0.28823	-0.465
Mof_C 	C 	0.23461	0.66897	0.27154	0.052
Mof_C 	C 	0.2156	0.5868	0.29351	-0.083
Mof_H 	H 	0.2582	0.5424	0.2937	0.069
Mof_C 	C 	0.1378	0.5725	0.3138	-0.025
Mof_H 	H 	0.1263	0.5182	0.3283	0.028
Mof_C 	C 	0.5559	0.5463	0.4487	-0.096
Mof_H 	H 	0.5968	0.5832	0.4646	0.059
Mof_C 	C 	0.5523	0.5426	0.3991	0.056
Mof_H 	H 	0.5956	0.5744	0.3818	0.007
Mof_O 	O 	0.07671	0.89492	0.78823	-0.462
Mof_C 	C 	0.26539	0.83103	0.77154	0.056
Mof_C 	C 	0.2844	0.9132	0.79351	-0.077
Mof_H 	H 	0.2418	0.9576	0.7937	0.087
Mof_C 	C 	0.3622	0.9275	0.8138	-0.015
Mof_H 	H 	0.3737	0.9818	0.8283	0.055
Mof_C 	C 	0.9441	0.9537	0.9487	0.039
Mof_H 	H 	0.9032	0.9168	0.9646	0.033
Mof_C 	C 	0.9477	0.9574	0.8991	0.095
Mof_H 	H 	0.9044	0.9256	0.8818	0.012
Mof_O 	O 	0.57671	0.39492	0.28823	-0.467
Mof_C 	C 	0.76539	0.33103	0.27154	0.051
Mof_C 	C 	0.7844	0.4132	0.29351	-0.075
Mof_H 	H 	0.7418	0.4576	0.2937	0.069
Mof_C 	C 	0.8622	0.4275	0.3138	-0.022
Mof_H 	H 	0.8737	0.4818	0.3283	0.049
Mof_C 	C 	0.4441	0.4537	0.4487	-0.098
Mof_H 	H 	0.4032	0.4168	0.4646	0.052
Mof_C 	C 	0.4477	0.4574	0.3991	0.055
Mof_H 	H 	0.4044	0.4256	0.3818	0.003
Mof_O 	O 	0.89492	0.07671	0.71177	-0.462
Mof_C 	C 	0.83103	0.26539	0.72846	0.056
Mof_C 	C 	0.9132	0.2844	0.70649	-0.077
Mof_H 	H 	0.9576	0.2418	0.7063	0.087
Mof_C 	C 	0.9275	0.3622	0.6862	-0.015
Mof_H 	H 	0.9818	0.3737	0.6717	0.056
Mof_C 	C 	0.9537	0.9441	0.5513	0.04
Mof_H 	H 	0.9168	0.9032	0.5354	0.033
Mof_C 	C 	0.9574	0.9477	0.6009	0.095
Mof_H 	H 	0.9256	0.9044	0.6182	0.012
Mof_O 	O 	0.39492	0.57671	0.21177	-0.467
Mof_C 	C 	0.33103	0.76539	0.22846	0.051
Mof_C 	C 	0.4132	0.7844	0.20649	-0.075
Mof_H 	H 	0.4576	0.7418	0.2063	0.069
Mof_C 	C 	0.4275	0.8622	0.1862	-0.022
Mof_H 	H 	0.4818	0.8737	0.1717	0.049
Mof_C 	C 	0.4537	0.4441	0.0513	-0.098
Mof_H 	H 	0.4168	0.4032	0.0354	0.052
Mof_C 	C 	0.4574	0.4477	0.1009	0.055
Mof_H 	H 	0.4256	0.4044	0.1182	0.003
Mof_O 	O 	0.10508	0.92329	0.71177	-0.445
Mof_C 	C 	0.16897	0.73461	0.72846	0.045
Mof_C 	C 	0.0868	0.7156	0.70649	-0.08
Mof_H 	H 	0.0424	0.7582	0.7063	0.053
Mof_C 	C 	0.0725	0.6378	0.6862	-0.033
Mof_H 	H 	0.0182	0.6263	0.6717	0.023
Mof_C 	C 	0.0463	0.0559	0.5513	-0.065
Mof_H 	H 	0.0832	0.0968	0.5354	0.034
Mof_C 	C 	0.0426	0.0523	0.6009	-0.041
Mof_H 	H 	0.0744	0.0956	0.6182	0.021
Mof_O 	O 	0.60508	0.42329	0.21177	-0.465
Mof_C 	C 	0.66897	0.23461	0.22846	0.052
Mof_C 	C 	0.5868	0.2156	0.20649	-0.083
Mof_H 	H 	0.5424	0.2582	0.2063	0.069
Mof_C 	C 	0.5725	0.1378	0.1862	-0.025
Mof_H 	H 	0.5182	0.1263	0.1717	0.029
Mof_C 	C 	0.5463	0.5559	0.0513	-0.096
Mof_H 	H 	0.5832	0.5968	0.0354	0.059
Mof_C 	C 	0.5426	0.5523	0.1009	0.056
Mof_H 	H 	0.5744	0.5956	0.1182	0.007
Mof_O 	O 	0.07671	0.10508	0.71177	-0.493
Mof_C 	C 	0.26539	0.16897	0.72846	0.046
Mof_C 	C 	0.2844	0.0868	0.70649	-0.083
Mof_H 	H 	0.2418	0.0424	0.7063	0.053
Mof_C 	C 	0.3622	0.0725	0.6862	-0.032
Mof_H 	H 	0.3737	0.0182	0.6717	0.022
Mof_C 	C 	0.9441	0.0463	0.5513	-0.05
Mof_H 	H 	0.9032	0.0832	0.5354	0.046
Mof_C 	C 	0.9477	0.0426	0.6009	0.1
Mof_H 	H 	0.9044	0.0744	0.6182	-0.01
Mof_O 	O 	0.57671	0.60508	0.21177	-0.465
Mof_C 	C 	0.76539	0.66897	0.22846	0.054
Mof_C 	C 	0.7844	0.5868	0.20649	-0.076
Mof_H 	H 	0.7418	0.5424	0.2063	0.07
Mof_C 	C 	0.8622	0.5725	0.1862	-0.02
Mof_H 	H 	0.8737	0.5182	0.1717	0.049
Mof_C 	C 	0.4441	0.5463	0.0513	-0.097
Mof_H 	H 	0.4032	0.5832	0.0354	0.055
Mof_C 	C 	0.4477	0.5426	0.1009	0.056
Mof_H 	H 	0.4044	0.5744	0.1182	0.004
Mof_O 	O 	0.92329	0.89492	0.71177	-0.422
Mof_C 	C 	0.73461	0.83103	0.72846	0.055
Mof_C 	C 	0.7156	0.9132	0.70649	-0.074
Mof_H 	H 	0.7582	0.9576	0.7063	0.085
Mof_C 	C 	0.6378	0.9275	0.6862	-0.016
Mof_H 	H 	0.6263	0.9818	0.6717	0.056
Mof_C 	C 	0.0559	0.9537	0.5513	-0.046
Mof_H 	H 	0.0968	0.9168	0.5354	0.047
Mof_C 	C 	0.0523	0.9574	0.6009	0.098
Mof_H 	H 	0.0956	0.9256	0.6182	-0.002
Mof_O 	O 	0.42329	0.39492	0.21177	-0.468
Mof_C 	C 	0.23461	0.33103	0.22846	0.05
Mof_C 	C 	0.2156	0.4132	0.20649	-0.083
Mof_H 	H 	0.2582	0.4576	0.2063	0.068
Mof_C 	C 	0.1378	0.4275	0.1862	-0.027
Mof_H 	H 	0.1263	0.4818	0.1717	0.029
Mof_C 	C 	0.5559	0.4537	0.0513	-0.097
Mof_H 	H 	0.5968	0.4168	0.0354	0.056
Mof_C 	C 	0.5523	0.4574	0.1009	0.055
Mof_H 	H 	0.5956	0.4256	0.1182	0.006
Mof_O 	O 	0.89492	0.92329	0.21177	-0.422
Mof_C 	C 	0.83103	0.73461	0.22846	0.055
Mof_C 	C 	0.9132	0.7156	0.20649	-0.074
Mof_H 	H 	0.9576	0.7582	0.2063	0.085
Mof_C 	C 	0.9275	0.6378	0.1862	-0.016
Mof_H 	H 	0.9818	0.6263	0.1717	0.056
Mof_C 	C 	0.9537	0.0559	0.0513	-0.046
Mof_H 	H 	0.9168	0.0968	0.0354	0.047
Mof_C 	C 	0.9574	0.0523	0.1009	0.098
Mof_H 	H 	0.9256	0.0956	0.1182	-0.002
Mof_O 	O 	0.39492	0.42329	0.71177	-0.468
Mof_C 	C 	0.33103	0.23461	0.72846	0.05
Mof_C 	C 	0.4132	0.2156	0.70649	-0.083
Mof_H 	H 	0.4576	0.2582	0.7063	0.068
Mof_C 	C 	0.4275	0.1378	0.6862	-0.027
Mof_H 	H 	0.4818	0.1263	0.6717	0.029
Mof_C 	C 	0.4537	0.5559	0.5513	-0.097
Mof_H 	H 	0.4168	0.5968	0.5354	0.056
Mof_C 	C 	0.4574	0.5523	0.6009	0.055
Mof_H 	H 	0.4256	0.5956	0.6182	0.006
Mof_O 	O 	0.10508	0.07671	0.21177	-0.493
Mof_C 	C 	0.16897	0.26539	0.22846	0.046
Mof_C 	C 	0.0868	0.2844	0.20649	-0.083
Mof_H 	H 	0.0424	0.2418	0.2063	0.053
Mof_C 	C 	0.0725	0.3622	0.1862	-0.032
Mof_H 	H 	0.0182	0.3737	0.1717	0.022
Mof_C 	C 	0.0463	0.9441	0.0513	-0.051
Mof_H 	H 	0.0832	0.9032	0.0354	0.047
Mof_C 	C 	0.0426	0.9477	0.1009	0.1
Mof_H 	H 	0.0744	0.9044	0.1182	-0.01
Mof_O 	O 	0.60508	0.57671	0.71177	-0.465
Mof_C 	C 	0.66897	0.76539	0.72846	0.054
Mof_C 	C 	0.5868	0.7844	0.70649	-0.076
Mof_H 	H 	0.5424	0.7418	0.7063	0.07
Mof_C 	C 	0.5725	0.8622	0.6862	-0.02
Mof_H 	H 	0.5182	0.8737	0.6717	0.049
Mof_C 	C 	0.5463	0.4441	0.5513	-0.097
Mof_H 	H 	0.5832	0.4032	0.5354	0.055
Mof_C 	C 	0.5426	0.4477	0.6009	0.056
Mof_H 	H 	0.5744	0.4044	0.6182	0.004
Mof_O 	O 	0.07671	0.89492	0.21177	-0.462
Mof_C 	C 	0.26539	0.83103	0.22846	0.056
Mof_C 	C 	0.2844	0.9132	0.20649	-0.077
Mof_H 	H 	0.2418	0.9576	0.2063	0.087
Mof_C 	C 	0.3622	0.9275	0.1862	-0.015
Mof_H 	H 	0.3737	0.9818	0.1717	0.055
Mof_C 	C 	0.9441	0.9537	0.0513	0.039
Mof_H 	H 	0.9032	0.9168	0.0354	0.033
Mof_C 	C 	0.9477	0.9574	0.1009	0.095
Mof_H 	H 	0.9044	0.9256	0.1182	0.012
Mof_O 	O 	0.57671	0.39492	0.71177	-0.467
Mof_C 	C 	0.76539	0.33103	0.72846	0.051
Mof_C 	C 	0.7844	0.4132	0.70649	-0.075
Mof_H 	H 	0.7418	0.4576	0.7063	0.069
Mof_C 	C 	0.8622	0.4275	0.6862	-0.022
Mof_H 	H 	0.8737	0.4818	0.6717	0.049
Mof_C 	C 	0.4441	0.4537	0.5513	-0.098
Mof_H 	H 	0.4032	0.4168	0.5354	0.052
Mof_C 	C 	0.4477	0.4574	0.6009	0.055
Mof_H 	H 	0.4044	0.4256	0.6182	0.003
Mof_O 	O 	0.92329	0.10508	0.21177	-0.445
Mof_C 	C 	0.73461	0.16897	0.22846	0.045
Mof_C 	C 	0.7156	0.0868	0.20649	-0.08
Mof_H 	H 	0.7582	0.0424	0.2063	0.053
Mof_C 	C 	0.6378	0.0725	0.1862	-0.033
Mof_H 	H 	0.6263	0.0182	0.1717	0.023
Mof_C 	C 	0.0559	0.0463	0.0513	-0.065
Mof_H 	H 	0.0968	0.0832	0.0354	0.035
Mof_C 	C 	0.0523	0.0426	0.1009	-0.04
Mof_H 	H 	0.0956	0.0744	0.1182	0.021
Mof_O 	O 	0.42329	0.60508	0.71177	-0.465
Mof_C 	C 	0.23461	0.66897	0.72846	0.052
Mof_C 	C 	0.2156	0.5868	0.70649	-0.083
Mof_H 	H 	0.2582	0.5424	0.7063	0.069
Mof_C 	C 	0.1378	0.5725	0.6862	-0.025
Mof_H 	H 	0.1263	0.5182	0.6717	0.028
Mof_C 	C 	0.5559	0.5463	0.5513	-0.096
Mof_H 	H 	0.5968	0.5832	0.5354	0.059
Mof_C 	C 	0.5523	0.5426	0.6009	0.056
Mof_H 	H 	0.5956	0.5744	0.6182	0.007
Mof_O 	O 	0.10508	0.92329	0.28823	-0.445
Mof_C 	C 	0.16897	0.73461	0.27154	0.045
Mof_C 	C 	0.0868	0.7156	0.29351	-0.08
Mof_H 	H 	0.0424	0.7582	0.2937	0.053
Mof_C 	C 	0.0725	0.6378	0.3138	-0.033
Mof_H 	H 	0.0182	0.6263	0.3283	0.023
Mof_C 	C 	0.0463	0.0559	0.4487	-0.065
Mof_H 	H 	0.0832	0.0968	0.4646	0.034
Mof_C 	C 	0.0426	0.0523	0.3991	-0.041
Mof_H 	H 	0.0744	0.0956	0.3818	0.021
Mof_O 	O 	0.60508	0.42329	0.78823	-0.465
Mof_C 	C 	0.66897	0.23461	0.77154	0.052
Mof_C 	C 	0.5868	0.2156	0.79351	-0.083
Mof_H 	H 	0.5424	0.2582	0.7937	0.069
Mof_C 	C 	0.5725	0.1378	0.8138	-0.025
Mof_H 	H 	0.5182	0.1263	0.8283	0.029
Mof_C 	C 	0.5463	0.5559	0.9487	-0.096
Mof_H 	H 	0.5832	0.5968	0.9646	0.059
Mof_C 	C 	0.5426	0.5523	0.8991	0.056
Mof_H 	H 	0.5744	0.5956	0.8818	0.007
Mof_O 	O 	0.89492	0.07671	0.28823	-0.462
Mof_C 	C 	0.83103	0.26539	0.27154	0.056
Mof_C 	C 	0.9132	0.2844	0.29351	-0.077
Mof_H 	H 	0.9576	0.2418	0.2937	0.087
Mof_C 	C 	0.9275	0.3622	0.3138	-0.015
Mof_H 	H 	0.9818	0.3737	0.3283	0.056
Mof_C 	C 	0.9537	0.9441	0.4487	0.04
Mof_H 	H 	0.9168	0.9032	0.4646	0.033
Mof_C 	C 	0.9574	0.9477	0.3991	0.095
Mof_H 	H 	0.9256	0.9044	0.3818	0.012
Mof_O 	O 	0.39492	0.57671	0.78823	-0.467
Mof_C 	C 	0.33103	0.76539	0.77154	0.051
Mof_C 	C 	0.4132	0.7844	0.79351	-0.075
Mof_H 	H 	0.4576	0.7418	0.7937	0.069
Mof_C 	C 	0.4275	0.8622	0.8138	-0.022
Mof_H 	H 	0.4818	0.8737	0.8283	0.049
Mof_C 	C 	0.4537	0.4441	0.9487	-0.098
Mof_H 	H 	0.4168	0.4032	0.9646	0.052
Mof_C 	C 	0.4574	0.4477	0.8991	0.055
Mof_H 	H 	0.4256	0.4044	0.8818	0.003
Mof_O 	O 	0.92329	0.89492	0.28823	-0.422
Mof_C 	C 	0.73461	0.83103	0.27154	0.055
Mof_C 	C 	0.7156	0.9132	0.29351	-0.074
Mof_H 	H 	0.7582	0.9576	0.2937	0.085
Mof_C 	C 	0.6378	0.9275	0.3138	-0.016
Mof_H 	H 	0.6263	0.9818	0.3283	0.056
Mof_C 	C 	0.0559	0.9537	0.4487	-0.046
Mof_H 	H 	0.0968	0.9168	0.4646	0.047
Mof_C 	C 	0.0523	0.9574	0.3991	0.098
Mof_H 	H 	0.0956	0.9256	0.3818	-0.002
Mof_O 	O 	0.42329	0.39492	0.78823	-0.468
Mof_C 	C 	0.23461	0.33103	0.77154	0.05
Mof_C 	C 	0.2156	0.4132	0.79351	-0.083
Mof_H 	H 	0.2582	0.4576	0.7937	0.068
Mof_C 	C 	0.1378	0.4275	0.8138	-0.027
Mof_H 	H 	0.1263	0.4818	0.8283	0.029
Mof_C 	C 	0.5559	0.4537	0.9487	-0.097
Mof_H 	H 	0.5968	0.4168	0.9646	0.056
Mof_C 	C 	0.5523	0.4574	0.8991	0.055
Mof_H 	H 	0.5956	0.4256	0.8818	0.006
Mof_O 	O 	0.07671	0.10508	0.28823	-0.493
Mof_C 	C 	0.26539	0.16897	0.27154	0.046
Mof_C 	C 	0.2844	0.0868	0.29351	-0.083
Mof_H 	H 	0.2418	0.0424	0.2937	0.053
Mof_C 	C 	0.3622	0.0725	0.3138	-0.032
Mof_H 	H 	0.3737	0.0182	0.3283	0.022
Mof_C 	C 	0.9441	0.0463	0.4487	-0.05
Mof_H 	H 	0.9032	0.0832	0.4646	0.046
Mof_C 	C 	0.9477	0.0426	0.3991	0.1
Mof_H 	H 	0.9044	0.0744	0.3818	-0.01
Mof_O 	O 	0.57671	0.60508	0.78823	-0.465
Mof_C 	C 	0.76539	0.66897	0.77154	0.054
Mof_C 	C 	0.7844	0.5868	0.79351	-0.076
Mof_H 	H 	0.7418	0.5424	0.7937	0.07
Mof_C 	C 	0.8622	0.5725	0.8138	-0.02
Mof_H 	H 	0.8737	0.5182	0.8283	0.049
Mof_C 	C 	0.4441	0.5463	0.9487	-0.097
Mof_H 	H 	0.4032	0.5832	0.9646	0.055
Mof_C 	C 	0.4477	0.5426	0.8991	0.056
Mof_H 	H 	0.4044	0.5744	0.8818	0.004
Mof_Zn	Zn	-9.64951e-33	-1.51108e-32	0.80217	1.181
Mof_N 	N 	5.95234e-33	0	0.8743	-0.355
Mof_C 	C 	6.62499e-33	0	0.9731	-0.079
Mof_Zn	Zn	0.5	0.5	0.30217	1.213
Mof_N 	N 	0.5	0.5	0.3743	-0.283
Mof_C 	C 	0.5	0.5	0.4731	0.09
Mof_Zn	Zn	1.98617e-32	1.51108e-32	0.69783	1.181
Mof_N 	N 	4.25984e-33	0	0.6257	-0.356
Mof_C 	C 	-3.96819e-33	0	0.5269	-0.081
Mof_Zn	Zn	0.5	0.5	0.19783	1.213
Mof_N 	N 	0.5	0.5	0.1257	-0.283
Mof_C 	C 	0.5	0.5	0.0269	0.09
Mof_Zn	Zn	1.34685e-33	-3.7777e-33	0.19783	1.181
Mof_N 	N 	8.55781e-34	-1.88885e-33	0.1257	-0.355
Mof_C 	C 	1.83139e-34	0	0.0269	-0.079
Mof_Zn	Zn	0.5	0.5	0.69783	1.213
Mof_N 	N 	0.5	0.5	0.6257	-0.283
Mof_C 	C 	0.5	0.5	0.5269	0.09
Mof_Zn	Zn	-5.49818e-33	0	0.30217	1.181
Mof_N 	N 	-5.00711e-33	-7.55539e-33	0.3743	-0.356
Mof_C 	C 	1.07763e-32	0	0.4731	-0.081
Mof_Zn	Zn	0.5	0.5	0.80217	1.213
Mof_N 	N 	0.5	0.5	0.8743	-0.283
Mof_C 	C 	0.5	0.5	0.9731	0.09
Mof_C 	C 	0.18601	0.18601	0.75	-0.129
Mof_C 	C 	0.11674	0.11674	0.75	0.393
Mof_C 	C 	0.68601	0.68601	0.25	-0.121
Mof_C 	C 	0.61674	0.61674	0.25	0.394
Mof_C 	C 	0.81399	0.81399	0.75	-0.113
Mof_C 	C 	0.88326	0.88326	0.75	0.386
Mof_C 	C 	0.31399	0.31399	0.25	-0.125
Mof_C 	C 	0.38326	0.38326	0.25	0.394
Mof_C 	C 	0.81399	0.18601	0.75	-0.12
Mof_C 	C 	0.88326	0.11674	0.75	0.389
Mof_C 	C 	0.31399	0.68601	0.25	-0.123
Mof_C 	C 	0.38326	0.61674	0.25	0.394
Mof_C 	C 	0.18601	0.81399	0.75	-0.12
Mof_C 	C 	0.11674	0.88326	0.75	0.389
Mof_C 	C 	0.68601	0.31399	0.25	-0.123
Mof_C 	C 	0.61674	0.38326	0.25	0.394
Mof_C 	C 	0.81399	0.81399	0.25	-0.113
Mof_C 	C 	0.88326	0.88326	0.25	0.386
Mof_C 	C 	0.31399	0.31399	0.75	-0.125
Mof_C 	C 	0.38326	0.38326	0.75	0.394
Mof_C 	C 	0.18601	0.18601	0.25	-0.129
Mof_C 	C 	0.11674	0.11674	0.25	0.393
Mof_C 	C 	0.68601	0.68601	0.75	-0.121
Mof_C 	C 	0.61674	0.61674	0.75	0.394
Mof_C 	C 	0.18601	0.81399	0.25	-0.12
Mof_C 	C 	0.11674	0.88326	0.25	0.389
Mof_C 	C 	0.68601	0.31399	0.75	-0.123
Mof_C 	C 	0.61674	0.38326	0.75	0.394
Mof_C 	C 	0.81399	0.18601	0.25	-0.12
Mof_C 	C 	0.88326	0.11674	0.25	0.389
Mof_C 	C 	0.31399	0.68601	0.75	-0.123
Mof_C 	C 	0.38326	0.61674	0.75	0.394
_end
