data_functionalizedCrystal
_audit_creation_method	'EQeq! by Chris Wilmer'
_symmetry_space_group_name_H-M	'P1'
_symmetry_Int_Tables_number	1
_symmetry_cell_setting	triclinic
loop_
_symmetry_equiv_pos_as_xyz
  x,y,z
_cell_length_a	11.343
_cell_length_b	14.311
_cell_length_c	16.928
_cell_angle_alpha	90
_cell_angle_beta	104.14
_cell_angle_gamma	90
loop_
_atom_site_label
_atom_site_type_symbol
_atom_site_fract_x
_atom_site_fract_y
_atom_site_fract_z
_atom_site_charge
Mof_Cr	Cr	0.0852	0.88354	0.82268	2.117
Mof_Mn	Mn	0.31673	0.9071	0.14258	0.927
Mof_O 	O 	0.15745	0.79883	0.91432	-0.498
Mof_O 	O 	0.16242	0.98135	0.90111	-0.49
Mof_O 	O 	0.23578	0.8785	0.7845	-0.502
Mof_O 	O 	0.03844	0.97886	0.73632	-0.499
Mof_O 	O 	0.93492	0.88652	0.85939	-0.487
Mof_O 	O 	0.00299	0.7801	0.75513	-0.565
Mof_O 	O 	0.25341	0.80673	0.04577	-0.268
Mof_O 	O 	0.26707	0.99482	0.02986	-0.251
Mof_O 	O 	0.33494	0.96458	0.71234	-0.303
Mof_O 	O 	0.12974	0.07015	0.66144	-0.278
Mof_O 	O 	0.78623	0.78852	0.86848	-0.171
Mof_O 	O 	0.83452	0.69352	0.73779	-0.333
Mof_C 	C 	0.2084	0.84151	0.97916	0.234
Mof_C 	C 	0.214	0.94894	0.97076	0.22
Mof_C 	C 	0.2439	0.94495	0.73687	0.274
Mof_C 	C 	0.1276	0.00379	0.70799	0.255
Mof_C 	C 	0.8688	0.81368	0.83929	0.237
Mof_C 	C 	0.9035	0.75604	0.7712	0.346
Mof_Cr	Cr	0.5852	0.38354	0.82268	2.141
Mof_Mn	Mn	0.81673	0.4071	0.14258	0.936
Mof_O 	O 	0.65745	0.29883	0.91432	-0.495
Mof_O 	O 	0.66242	0.48135	0.90111	-0.49
Mof_O 	O 	0.73578	0.3785	0.7845	-0.503
Mof_O 	O 	0.53844	0.47886	0.73632	-0.497
Mof_O 	O 	0.43492	0.38652	0.85939	-0.51
Mof_O 	O 	0.50299	0.2801	0.75513	-0.542
Mof_O 	O 	0.75341	0.30673	0.04577	-0.263
Mof_O 	O 	0.76707	0.49482	0.02986	-0.247
Mof_O 	O 	0.83494	0.46458	0.71234	-0.299
Mof_O 	O 	0.62974	0.57015	0.66144	-0.274
Mof_O 	O 	0.28623	0.28852	0.86848	-0.182
Mof_O 	O 	0.33452	0.19352	0.73779	-0.329
Mof_C 	C 	0.7084	0.34151	0.97916	0.236
Mof_C 	C 	0.714	0.44894	0.97076	0.221
Mof_C 	C 	0.7439	0.44495	0.73687	0.274
Mof_C 	C 	0.6276	0.50379	0.70799	0.257
Mof_C 	C 	0.3688	0.31368	0.83929	0.245
Mof_C 	C 	0.4035	0.25604	0.7712	0.314
Mof_Cr	Cr	0.0852	0.11646	0.32268	2.124
Mof_Mn	Mn	0.31673	0.0929	0.64258	0.917
Mof_O 	O 	0.15745	0.20117	0.41432	-0.502
Mof_O 	O 	0.16242	0.01865	0.40111	-0.495
Mof_O 	O 	0.23578	0.1215	0.2845	-0.5
Mof_O 	O 	0.03844	0.02114	0.23632	-0.496
Mof_O 	O 	0.93492	0.11348	0.35939	-0.482
Mof_O 	O 	0.00299	0.2199	0.25513	-0.561
Mof_O 	O 	0.25341	0.19327	0.54577	-0.308
Mof_O 	O 	0.26707	0.00518	0.52986	-0.292
Mof_O 	O 	0.33494	0.03542	0.21234	-0.299
Mof_O 	O 	0.12974	0.92985	0.16144	-0.271
Mof_O 	O 	0.78623	0.21148	0.36848	-0.161
Mof_O 	O 	0.83452	0.30648	0.23779	-0.331
Mof_C 	C 	0.2084	0.15849	0.47916	0.278
Mof_C 	C 	0.214	0.05106	0.47076	0.262
Mof_C 	C 	0.2439	0.05505	0.23687	0.276
Mof_C 	C 	0.1276	0.99621	0.20799	0.257
Mof_C 	C 	0.8688	0.18632	0.33929	0.238
Mof_C 	C 	0.9035	0.24396	0.2712	0.348
Mof_Cr	Cr	0.5852	0.61646	0.32268	2.148
Mof_Mn	Mn	0.81673	0.5929	0.64258	0.928
Mof_O 	O 	0.65745	0.70117	0.41432	-0.498
Mof_O 	O 	0.66242	0.51865	0.40111	-0.494
Mof_O 	O 	0.73578	0.6215	0.2845	-0.499
Mof_O 	O 	0.53844	0.52114	0.23632	-0.493
Mof_O 	O 	0.43492	0.61348	0.35939	-0.503
Mof_O 	O 	0.50299	0.7199	0.25513	-0.539
Mof_O 	O 	0.75341	0.69327	0.54577	-0.303
Mof_O 	O 	0.76707	0.50518	0.52986	-0.289
Mof_O 	O 	0.83494	0.53542	0.21234	-0.295
Mof_O 	O 	0.62974	0.42985	0.16144	-0.267
Mof_O 	O 	0.28623	0.71148	0.36848	-0.171
Mof_O 	O 	0.33452	0.80648	0.23779	-0.326
Mof_C 	C 	0.7084	0.65849	0.47916	0.279
Mof_C 	C 	0.714	0.55106	0.47076	0.265
Mof_C 	C 	0.7439	0.55505	0.23687	0.276
Mof_C 	C 	0.6276	0.49621	0.20799	0.258
Mof_C 	C 	0.3688	0.68632	0.33929	0.245
Mof_C 	C 	0.4035	0.74396	0.2712	0.318
_end
