# CIF file generated by openbabel 3.1.0, see https://openbabel.org
data_I
_chemical_name_common 'WUNSEE01_charged'
_cell_length_a 15.8591
_cell_length_b 15.8591
_cell_length_c 21.685
_cell_angle_alpha 90
_cell_angle_beta 90
_cell_angle_gamma 90
_space_group_name_H-M_alt 'P 1'
_space_group_name_Hall 'P 1'
loop_
    _symmetry_equiv_pos_as_xyz
    x,y,z
loop_
    _atom_site_label
    _atom_site_type_symbol
    _atom_site_fract_x
    _atom_site_fract_y
    _atom_site_fract_z
    _atom_site_occupancy
    Cd1      Cd       0.44137    0.44137    0.00000    1.000
    Cd2      Cd       0.55863    0.55863    0.50000    1.000
    Cd3      Cd       0.05863    0.94137    0.25000    1.000
    Cd4      Cd       0.94137    0.05863    0.75000    1.000
    H1       H        0.34020    0.55970    0.90850    1.000
    H2       H        0.23360    0.65430    0.89380    1.000
    H3       H        0.15180    0.59920    0.06370    1.000
    H4       H        0.26390    0.50910    0.07440    1.000
    H5       H        0.03230    0.66270    0.03740    1.000
    H6       H        0.93410    0.76860    0.02930    1.000
    H7       H        0.95150    0.87580    0.95930    1.000
    H8       H        0.17290    0.77790    0.90710    1.000
    H9       H        0.20050    0.99280    0.71010    1.000
    H10      H        0.29760    0.08590    0.66640    1.000
    H11      H        0.34980    0.19860    0.72170    1.000
    H12      H        0.19860    0.13810    0.86280    1.000
    H13      H        0.41060    0.28790    0.78400    1.000
    H14      H        0.45950    0.38960    0.85000    1.000
    H15      H        0.26870    0.36010    0.95870    1.000
    H16      H        0.21540    0.25560    0.89830    1.000
    H17      H        0.23300    0.93520    0.92310    1.000
    H18      H        0.26700    0.95490    0.86250    1.000
    H19      H        0.65980    0.44030    0.40850    1.000
    H20      H        0.76640    0.34570    0.39380    1.000
    H21      H        0.84820    0.40080    0.56370    1.000
    H22      H        0.73610    0.49090    0.57440    1.000
    H23      H        0.96770    0.33730    0.53740    1.000
    H24      H        0.06590    0.23140    0.52930    1.000
    H25      H        0.04850    0.12420    0.45930    1.000
    H26      H        0.82710    0.22210    0.40710    1.000
    H27      H        0.79950    0.00720    0.21010    1.000
    H28      H        0.70240    0.91410    0.16640    1.000
    H29      H        0.65020    0.80140    0.22170    1.000
    H30      H        0.80140    0.86190    0.36280    1.000
    H31      H        0.58940    0.71210    0.28400    1.000
    H32      H        0.54050    0.61040    0.35000    1.000
    H33      H        0.73130    0.63990    0.45870    1.000
    H34      H        0.78460    0.74440    0.39830    1.000
    H35      H        0.76700    0.06480    0.42310    1.000
    H36      H        0.73300    0.04510    0.36250    1.000
    H37      H        0.94030    0.84020    0.15850    1.000
    H38      H        0.84570    0.73360    0.14380    1.000
    H39      H        0.90080    0.65180    0.31370    1.000
    H40      H        0.99090    0.76390    0.32440    1.000
    H41      H        0.83730    0.53230    0.28740    1.000
    H42      H        0.73140    0.43410    0.27930    1.000
    H43      H        0.62420    0.45150    0.20930    1.000
    H44      H        0.72210    0.67290    0.15710    1.000
    H45      H        0.50720    0.70050    0.96010    1.000
    H46      H        0.41410    0.79760    0.91640    1.000
    H47      H        0.30140    0.84980    0.97170    1.000
    H48      H        0.36190    0.69860    0.11280    1.000
    H49      H        0.21210    0.91060    0.03400    1.000
    H50      H        0.11040    0.95950    0.10000    1.000
    H51      H        0.13990    0.76870    0.20870    1.000
    H52      H        0.24440    0.71540    0.14830    1.000
    H53      H        0.56480    0.73300    0.17310    1.000
    H54      H        0.54510    0.76700    0.11250    1.000
    H55      H        0.05970    0.15980    0.65850    1.000
    H56      H        0.15430    0.26640    0.64380    1.000
    H57      H        0.09920    0.34820    0.81370    1.000
    H58      H        0.00910    0.23610    0.82440    1.000
    H59      H        0.16270    0.46770    0.78740    1.000
    H60      H        0.26860    0.56590    0.77930    1.000
    H61      H        0.37580    0.54850    0.70930    1.000
    H62      H        0.27790    0.32710    0.65710    1.000
    H63      H        0.49280    0.29950    0.46010    1.000
    H64      H        0.58590    0.20240    0.41640    1.000
    H65      H        0.69860    0.15020    0.47170    1.000
    H66      H        0.63810    0.30140    0.61280    1.000
    H67      H        0.78790    0.08940    0.53400    1.000
    H68      H        0.88960    0.04050    0.60000    1.000
    H69      H        0.86010    0.23130    0.70870    1.000
    H70      H        0.75560    0.28460    0.64830    1.000
    H71      H        0.43520    0.26700    0.67310    1.000
    H72      H        0.45490    0.23300    0.61250    1.000
    H73      H        0.15980    0.05970    0.34150    1.000
    H74      H        0.26640    0.15430    0.35620    1.000
    H75      H        0.34820    0.09920    0.18630    1.000
    H76      H        0.23610    0.00910    0.17560    1.000
    H77      H        0.46770    0.16270    0.21260    1.000
    H78      H        0.56590    0.26860    0.22070    1.000
    H79      H        0.54850    0.37580    0.29070    1.000
    H80      H        0.32710    0.27790    0.34290    1.000
    H81      H        0.29950    0.49280    0.53990    1.000
    H82      H        0.20240    0.58590    0.58360    1.000
    H83      H        0.15020    0.69860    0.52830    1.000
    H84      H        0.30140    0.63810    0.38720    1.000
    H85      H        0.08940    0.78790    0.46600    1.000
    H86      H        0.04050    0.88960    0.40000    1.000
    H87      H        0.23130    0.86010    0.29130    1.000
    H88      H        0.28460    0.75560    0.35170    1.000
    H89      H        0.26700    0.43520    0.32690    1.000
    H90      H        0.23300    0.45490    0.38750    1.000
    H91      H        0.84020    0.94030    0.84150    1.000
    H92      H        0.73360    0.84570    0.85620    1.000
    H93      H        0.65180    0.90080    0.68630    1.000
    H94      H        0.76390    0.99090    0.67560    1.000
    H95      H        0.53230    0.83730    0.71260    1.000
    H96      H        0.43410    0.73140    0.72070    1.000
    H97      H        0.45150    0.62420    0.79070    1.000
    H98      H        0.67290    0.72210    0.84290    1.000
    H99      H        0.70050    0.50720    0.03990    1.000
    H100     H        0.79760    0.41410    0.08360    1.000
    H101     H        0.84980    0.30140    0.02830    1.000
    H102     H        0.69860    0.36190    0.88720    1.000
    H103     H        0.91060    0.21210    0.96600    1.000
    H104     H        0.95950    0.11040    0.90000    1.000
    H105     H        0.76870    0.13990    0.79130    1.000
    H106     H        0.71540    0.24440    0.85170    1.000
    H107     H        0.73300    0.56480    0.82690    1.000
    H108     H        0.76700    0.54510    0.88750    1.000
    H109     H        0.55970    0.34020    0.09150    1.000
    H110     H        0.65430    0.23360    0.10620    1.000
    H111     H        0.59920    0.15180    0.93630    1.000
    H112     H        0.50910    0.26390    0.92560    1.000
    H113     H        0.66270    0.03230    0.96260    1.000
    H114     H        0.76860    0.93410    0.97070    1.000
    H115     H        0.87580    0.95150    0.04070    1.000
    H116     H        0.77790    0.17290    0.09290    1.000
    H117     H        0.99280    0.20050    0.28990    1.000
    H118     H        0.08590    0.29760    0.33360    1.000
    H119     H        0.19860    0.34980    0.27830    1.000
    H120     H        0.13810    0.19860    0.13720    1.000
    H121     H        0.28790    0.41060    0.21600    1.000
    H122     H        0.38960    0.45950    0.15000    1.000
    H123     H        0.36010    0.26870    0.04130    1.000
    H124     H        0.25560    0.21540    0.10170    1.000
    H125     H        0.93520    0.23300    0.07690    1.000
    H126     H        0.95490    0.26700    0.13750    1.000
    H127     H        0.44030    0.65980    0.59150    1.000
    H128     H        0.34570    0.76640    0.60620    1.000
    H129     H        0.40080    0.84820    0.43630    1.000
    H130     H        0.49090    0.73610    0.42560    1.000
    H131     H        0.33730    0.96770    0.46260    1.000
    H132     H        0.23140    0.06590    0.47070    1.000
    H133     H        0.12420    0.04850    0.54070    1.000
    H134     H        0.22210    0.82710    0.59290    1.000
    H135     H        0.00720    0.79950    0.78990    1.000
    H136     H        0.91410    0.70240    0.83360    1.000
    H137     H        0.80140    0.65020    0.77830    1.000
    H138     H        0.86190    0.80140    0.63720    1.000
    H139     H        0.71210    0.58940    0.71600    1.000
    H140     H        0.61040    0.54050    0.65000    1.000
    H141     H        0.63990    0.73130    0.54130    1.000
    H142     H        0.74440    0.78460    0.60170    1.000
    H143     H        0.06480    0.76700    0.57690    1.000
    H144     H        0.04510    0.73300    0.63750    1.000
    C1       C        0.30210    0.56850    0.94040    1.000
    C2       C        0.23830    0.62570    0.93110    1.000
    C3       C        0.18050    0.64050    0.97880    1.000
    C4       C        0.19030    0.59360    0.03160    1.000
    C5       C        0.25740    0.53800    0.03740    1.000
    C6       C        0.11430    0.70710    0.97220    1.000
    C7       C        0.04080    0.70630    0.00940    1.000
    C8       C        0.98180    0.76970    0.00440    1.000
    C9       C        0.99260    0.83430    0.96330    1.000
    C10      C        0.06610    0.83750    0.92690    1.000
    C11      C        0.12480    0.77530    0.93150    1.000
    C12      C        0.07420    0.90730    0.88320    1.000
    C13      C        0.12630    0.00220    0.82070    1.000
    C14      C        0.18810    0.05820    0.79060    1.000
    C15      C        0.21890    0.04000    0.73160    1.000
    C16      C        0.27830    0.09530    0.70620    1.000
    C17      C        0.30900    0.16390    0.73920    1.000
    C18      C        0.27930    0.18090    0.79780    1.000
    C19      C        0.21880    0.12740    0.82330    1.000
    C20      C        0.30930    0.25430    0.83530    1.000
    C21      C        0.38180    0.29900    0.82040    1.000
    C22      C        0.41060    0.36060    0.86070    1.000
    C23      C        0.29930    0.34290    0.92430    1.000
    C24      C        0.26650    0.28050    0.88780    1.000
    C25      C        0.69790    0.43150    0.44040    1.000
    C26      C        0.76170    0.37430    0.43110    1.000
    C27      C        0.81950    0.35950    0.47880    1.000
    C28      C        0.80970    0.40640    0.53160    1.000
    C29      C        0.74260    0.46200    0.53740    1.000
    C30      C        0.88570    0.29290    0.47220    1.000
    C31      C        0.95920    0.29370    0.50940    1.000
    C32      C        0.01820    0.23030    0.50440    1.000
    C33      C        0.00740    0.16570    0.46330    1.000
    C34      C        0.93390    0.16250    0.42690    1.000
    C35      C        0.87520    0.22470    0.43150    1.000
    C36      C        0.92580    0.09270    0.38320    1.000
    C37      C        0.87370    0.99780    0.32070    1.000
    C38      C        0.81190    0.94180    0.29060    1.000
    C39      C        0.78110    0.96000    0.23160    1.000
    C40      C        0.72170    0.90470    0.20620    1.000
    C41      C        0.69100    0.83610    0.23920    1.000
    C42      C        0.72070    0.81910    0.29780    1.000
    C43      C        0.78120    0.87260    0.32330    1.000
    C44      C        0.69070    0.74570    0.33530    1.000
    C45      C        0.61820    0.70100    0.32040    1.000
    C46      C        0.58940    0.63940    0.36070    1.000
    C47      C        0.70070    0.65710    0.42430    1.000
    C48      C        0.73350    0.71950    0.38780    1.000
    C49      C        0.93150    0.80210    0.19040    1.000
    C50      C        0.87430    0.73830    0.18110    1.000
    C51      C        0.85950    0.68050    0.22880    1.000
    C52      C        0.90640    0.69030    0.28160    1.000
    C53      C        0.96200    0.75740    0.28740    1.000
    C54      C        0.79290    0.61430    0.22220    1.000
    C55      C        0.79370    0.54080    0.25940    1.000
    C56      C        0.73030    0.48180    0.25440    1.000
    C57      C        0.66570    0.49260    0.21330    1.000
    C58      C        0.66250    0.56610    0.17690    1.000
    C59      C        0.72470    0.62480    0.18150    1.000
    C60      C        0.59270    0.57420    0.13320    1.000
    C61      C        0.49780    0.62630    0.07070    1.000
    C62      C        0.44180    0.68810    0.04060    1.000
    C63      C        0.46000    0.71890    0.98160    1.000
    C64      C        0.40470    0.77830    0.95620    1.000
    C65      C        0.33610    0.80900    0.98920    1.000
    C66      C        0.31910    0.77930    0.04780    1.000
    C67      C        0.37260    0.71880    0.07330    1.000
    C68      C        0.24570    0.80930    0.08530    1.000
    C69      C        0.20100    0.88180    0.07040    1.000
    C70      C        0.13940    0.91060    0.11070    1.000
    C71      C        0.15710    0.79930    0.17430    1.000
    C72      C        0.21950    0.76650    0.13780    1.000
    C73      C        0.06850    0.19790    0.69040    1.000
    C74      C        0.12570    0.26170    0.68110    1.000
    C75      C        0.14050    0.31950    0.72880    1.000
    C76      C        0.09360    0.30970    0.78160    1.000
    C77      C        0.03800    0.24260    0.78740    1.000
    C78      C        0.20710    0.38570    0.72220    1.000
    C79      C        0.20630    0.45920    0.75940    1.000
    C80      C        0.26970    0.51820    0.75440    1.000
    C81      C        0.33430    0.50740    0.71330    1.000
    C82      C        0.33750    0.43390    0.67690    1.000
    C83      C        0.27530    0.37520    0.68150    1.000
    C84      C        0.40730    0.42580    0.63320    1.000
    C85      C        0.50220    0.37370    0.57070    1.000
    C86      C        0.55820    0.31190    0.54060    1.000
    C87      C        0.54000    0.28110    0.48160    1.000
    C88      C        0.59530    0.22170    0.45620    1.000
    C89      C        0.66390    0.19100    0.48920    1.000
    C90      C        0.68090    0.22070    0.54780    1.000
    C91      C        0.62740    0.28120    0.57330    1.000
    C92      C        0.75430    0.19070    0.58530    1.000
    C93      C        0.79900    0.11820    0.57040    1.000
    C94      C        0.86060    0.08940    0.61070    1.000
    C95      C        0.84290    0.20070    0.67430    1.000
    C96      C        0.78050    0.23350    0.63780    1.000
    C97      C        0.19790    0.06850    0.30960    1.000
    C98      C        0.26170    0.12570    0.31890    1.000
    C99      C        0.31950    0.14050    0.27120    1.000
    C100     C        0.30970    0.09360    0.21840    1.000
    C101     C        0.24260    0.03800    0.21260    1.000
    C102     C        0.38570    0.20710    0.27780    1.000
    C103     C        0.45920    0.20630    0.24060    1.000
    C104     C        0.51820    0.26970    0.24560    1.000
    C105     C        0.50740    0.33430    0.28670    1.000
    C106     C        0.43390    0.33750    0.32310    1.000
    C107     C        0.37520    0.27530    0.31850    1.000
    C108     C        0.42580    0.40730    0.36680    1.000
    C109     C        0.37370    0.50220    0.42930    1.000
    C110     C        0.31190    0.55820    0.45940    1.000
    C111     C        0.28110    0.54000    0.51840    1.000
    C112     C        0.22170    0.59530    0.54380    1.000
    C113     C        0.19100    0.66390    0.51080    1.000
    C114     C        0.22070    0.68090    0.45220    1.000
    C115     C        0.28120    0.62740    0.42670    1.000
    C116     C        0.19070    0.75430    0.41470    1.000
    C117     C        0.11820    0.79900    0.42960    1.000
    C118     C        0.08940    0.86060    0.38930    1.000
    C119     C        0.20070    0.84290    0.32570    1.000
    C120     C        0.23350    0.78050    0.36220    1.000
    C121     C        0.80210    0.93150    0.80960    1.000
    C122     C        0.73830    0.87430    0.81890    1.000
    C123     C        0.68050    0.85950    0.77120    1.000
    C124     C        0.69030    0.90640    0.71840    1.000
    C125     C        0.75740    0.96200    0.71260    1.000
    C126     C        0.61430    0.79290    0.77780    1.000
    C127     C        0.54080    0.79370    0.74060    1.000
    C128     C        0.48180    0.73030    0.74560    1.000
    C129     C        0.49260    0.66570    0.78670    1.000
    C130     C        0.56610    0.66250    0.82310    1.000
    C131     C        0.62480    0.72470    0.81850    1.000
    C132     C        0.57420    0.59270    0.86680    1.000
    C133     C        0.62630    0.49780    0.92930    1.000
    C134     C        0.68810    0.44180    0.95940    1.000
    C135     C        0.71890    0.46000    0.01840    1.000
    C136     C        0.77830    0.40470    0.04380    1.000
    C137     C        0.80900    0.33610    0.01080    1.000
    C138     C        0.77930    0.31910    0.95220    1.000
    C139     C        0.71880    0.37260    0.92670    1.000
    C140     C        0.80930    0.24570    0.91470    1.000
    C141     C        0.88180    0.20100    0.92960    1.000
    C142     C        0.91060    0.13940    0.88930    1.000
    C143     C        0.79930    0.15710    0.82570    1.000
    C144     C        0.76650    0.21950    0.86220    1.000
    C145     C        0.56850    0.30210    0.05960    1.000
    C146     C        0.62570    0.23830    0.06890    1.000
    C147     C        0.64050    0.18050    0.02120    1.000
    C148     C        0.59360    0.19030    0.96840    1.000
    C149     C        0.53800    0.25740    0.96260    1.000
    C150     C        0.70710    0.11430    0.02780    1.000
    C151     C        0.70630    0.04080    0.99060    1.000
    C152     C        0.76970    0.98180    0.99560    1.000
    C153     C        0.83430    0.99260    0.03670    1.000
    C154     C        0.83750    0.06610    0.07310    1.000
    C155     C        0.77530    0.12480    0.06850    1.000
    C156     C        0.90730    0.07420    0.11680    1.000
    C157     C        0.00220    0.12630    0.17930    1.000
    C158     C        0.05820    0.18810    0.20940    1.000
    C159     C        0.04000    0.21890    0.26840    1.000
    C160     C        0.09530    0.27830    0.29380    1.000
    C161     C        0.16390    0.30900    0.26080    1.000
    C162     C        0.18090    0.27930    0.20220    1.000
    C163     C        0.12740    0.21880    0.17670    1.000
    C164     C        0.25430    0.30930    0.16470    1.000
    C165     C        0.29900    0.38180    0.17960    1.000
    C166     C        0.36060    0.41060    0.13930    1.000
    C167     C        0.34290    0.29930    0.07570    1.000
    C168     C        0.28050    0.26650    0.11220    1.000
    C169     C        0.43150    0.69790    0.55960    1.000
    C170     C        0.37430    0.76170    0.56890    1.000
    C171     C        0.35950    0.81950    0.52120    1.000
    C172     C        0.40640    0.80970    0.46840    1.000
    C173     C        0.46200    0.74260    0.46260    1.000
    C174     C        0.29290    0.88570    0.52780    1.000
    C175     C        0.29370    0.95920    0.49060    1.000
    C176     C        0.23030    0.01820    0.49560    1.000
    C177     C        0.16570    0.00740    0.53670    1.000
    C178     C        0.16250    0.93390    0.57310    1.000
    C179     C        0.22470    0.87520    0.56850    1.000
    C180     C        0.09270    0.92580    0.61680    1.000
    C181     C        0.99780    0.87370    0.67930    1.000
    C182     C        0.94180    0.81190    0.70940    1.000
    C183     C        0.96000    0.78110    0.76840    1.000
    C184     C        0.90470    0.72170    0.79380    1.000
    C185     C        0.83610    0.69100    0.76080    1.000
    C186     C        0.81910    0.72070    0.70220    1.000
    C187     C        0.87260    0.78120    0.67670    1.000
    C188     C        0.74570    0.69070    0.66470    1.000
    C189     C        0.70100    0.61820    0.67960    1.000
    C190     C        0.63940    0.58940    0.63930    1.000
    C191     C        0.65710    0.70070    0.57570    1.000
    C192     C        0.71950    0.73350    0.61220    1.000
    N1       N        0.31270    0.52430    0.99260    1.000
    N2       N        0.01050    0.94450    0.85570    1.000
    N3       N        0.04330    0.00480    0.81660    1.000
    N4       N        0.14730    0.94370    0.86220    1.000
    N5       N        0.22960    0.92380    0.88290    1.000
    N6       N        0.37400    0.38080    0.91270    1.000
    N7       N        0.68730    0.47570    0.49260    1.000
    N8       N        0.98950    0.05550    0.35570    1.000
    N9       N        0.95670    0.99520    0.31660    1.000
    N10      N        0.85270    0.05630    0.36220    1.000
    N11      N        0.77040    0.07620    0.38290    1.000
    N12      N        0.62600    0.61920    0.41270    1.000
    N13      N        0.97570    0.81270    0.24260    1.000
    N14      N        0.55550    0.51050    0.10570    1.000
    N15      N        0.49520    0.54330    0.06660    1.000
    N16      N        0.55630    0.64730    0.11220    1.000
    N17      N        0.57620    0.72960    0.13290    1.000
    N18      N        0.11920    0.87400    0.16270    1.000
    N19      N        0.02430    0.18730    0.74260    1.000
    N20      N        0.44450    0.48950    0.60570    1.000
    N21      N        0.50480    0.45670    0.56660    1.000
    N22      N        0.44370    0.35270    0.61220    1.000
    N23      N        0.42380    0.27040    0.63290    1.000
    N24      N        0.88080    0.12600    0.66270    1.000
    N25      N        0.18730    0.02430    0.25740    1.000
    N26      N        0.48950    0.44450    0.39430    1.000
    N27      N        0.45670    0.50480    0.43340    1.000
    N28      N        0.35270    0.44370    0.38780    1.000
    N29      N        0.27040    0.42380    0.36710    1.000
    N30      N        0.12600    0.88080    0.33730    1.000
    N31      N        0.81270    0.97570    0.75740    1.000
    N32      N        0.51050    0.55550    0.89430    1.000
    N33      N        0.54330    0.49520    0.93340    1.000
    N34      N        0.64730    0.55630    0.88780    1.000
    N35      N        0.72960    0.57620    0.86710    1.000
    N36      N        0.87400    0.11920    0.83730    1.000
    N37      N        0.52430    0.31270    0.00740    1.000
    N38      N        0.94450    0.01050    0.14430    1.000
    N39      N        0.00480    0.04330    0.18340    1.000
    N40      N        0.94370    0.14730    0.13780    1.000
    N41      N        0.92380    0.22960    0.11710    1.000
    N42      N        0.38080    0.37400    0.08730    1.000
    N43      N        0.47570    0.68730    0.50740    1.000
    N44      N        0.05550    0.98950    0.64430    1.000
    N45      N        0.99520    0.95670    0.68340    1.000
    N46      N        0.05630    0.85270    0.63780    1.000
    N47      N        0.07620    0.77040    0.61710    1.000
    N48      N        0.61920    0.62600    0.58730    1.000
    Cl1      Cl       0.11884    0.11884    0.00000    1.000
    O1       O        0.18870    0.10160    0.03160    1.000
    O2       O        0.13100    0.06450    0.95450    1.000
    O3       O        0.10160    0.18870    0.96840    1.000
    O4       O        0.06450    0.13100    0.04550    1.000
    Cl2      Cl       0.88116    0.88116    0.50000    1.000
    O5       O        0.81130    0.89840    0.53160    1.000
    O6       O        0.86900    0.93550    0.45450    1.000
    O7       O        0.89840    0.81130    0.46840    1.000
    O8       O        0.93550    0.86900    0.54550    1.000
    Cl3      Cl       0.38116    0.61884    0.25000    1.000
    O9       O        0.39840    0.68870    0.28160    1.000
    O10      O        0.43550    0.63100    0.20450    1.000
    O11      O        0.31130    0.60160    0.21840    1.000
    O12      O        0.36900    0.56450    0.29550    1.000
    Cl4      Cl       0.61884    0.38116    0.75000    1.000
    O13      O        0.60160    0.31130    0.78160    1.000
    O14      O        0.56450    0.36900    0.70450    1.000
    O15      O        0.68870    0.39840    0.71840    1.000
    O16      O        0.63100    0.43550    0.79550    1.000
