data_functionalizedCrystal
_audit_creation_method	'EQeq! by Chris Wilmer'
_symmetry_space_group_name_H-M	'P1'
_symmetry_Int_Tables_number	1
_symmetry_cell_setting	triclinic
loop_
_symmetry_equiv_pos_as_xyz
  x,y,z
_cell_length_a	15.0103
_cell_length_b	15.0103
_cell_length_c	10.0791
_cell_angle_alpha	90
_cell_angle_beta	90
_cell_angle_gamma	90
loop_
_atom_site_label
_atom_site_type_symbol
_atom_site_fract_x
_atom_site_fract_y
_atom_site_fract_z
_atom_site_charge
Mof_O 	O 	0.30482	0.94881	0.24955	-0.344
Mof_O 	O 	0.42433	0.90639	0.14536	-0.425
Mof_C 	C 	0.7897	0.7894	0.4043	0.01
Mof_H 	H 	0.8314	0.8036	0.3325	0.022
Mof_C 	C 	0.7054	0.8262	0.3981	-0.004
Mof_C 	C 	0.51152	0.86959	0.38179	-0.043
Mof_H 	H 	0.5399	0.8579	0.3016	0.063
Mof_C 	C 	0.42673	0.90424	0.38112	-0.063
Mof_C 	C 	0.3814	0.92225	0.24993	0.325
Mof_C 	C 	0.25313	0.19865	0.9671	-0.129
Mof_H 	H 	0.2169	0.2363	0.9087	0.081
Mof_C 	C 	0.3893	0.4497	0.9482	0.084
Mof_H 	H 	0.3608	0.4958	0.894	0.01
Mof_C 	C 	0.4761	0.29818	0.0465	-0.348
Mof_H 	H 	0.5048	0.2524	0.1013	0.146
Mof_C 	C 	0.6707	0.7525	0.4007	-0.018
Mof_C 	C 	0.7555	0.7173	0.4036	0.016
Mof_O 	O 	0.69518	0.05119	0.24955	-0.345
Mof_O 	O 	0.57567	0.09361	0.14536	-0.426
Mof_C 	C 	0.2103	0.2106	0.4043	0.01
Mof_H 	H 	0.1686	0.1964	0.3325	0.022
Mof_C 	C 	0.2946	0.1738	0.3981	-0.004
Mof_C 	C 	0.48848	0.13041	0.38179	-0.043
Mof_H 	H 	0.4601	0.1421	0.3016	0.063
Mof_C 	C 	0.57327	0.09576	0.38112	-0.063
Mof_C 	C 	0.6186	0.07775	0.24993	0.325
Mof_C 	C 	0.74687	0.80135	0.9671	-0.129
Mof_H 	H 	0.7831	0.7637	0.9087	0.081
Mof_C 	C 	0.6107	0.5503	0.9482	0.084
Mof_H 	H 	0.6392	0.5042	0.894	0.01
Mof_C 	C 	0.5239	0.70182	0.0465	-0.348
Mof_H 	H 	0.4952	0.7476	0.1013	0.146
Mof_C 	C 	0.3293	0.2475	0.4007	-0.018
Mof_C 	C 	0.2445	0.2827	0.4036	0.016
Mof_O 	O 	0.05119	0.30482	0.74955	-0.337
Mof_O 	O 	0.09361	0.42433	0.64536	-0.418
Mof_C 	C 	0.2106	0.7897	0.9043	0.023
Mof_H 	H 	0.1964	0.8314	0.8325	0.022
Mof_C 	C 	0.1738	0.7054	0.8981	0.014
Mof_C 	C 	0.13041	0.51152	0.88179	-0.02
Mof_H 	H 	0.1421	0.5399	0.8016	0.058
Mof_C 	C 	0.09576	0.42673	0.88112	-0.036
Mof_C 	C 	0.07775	0.3814	0.74993	0.317
Mof_C 	C 	0.80135	0.25313	0.4671	-0.009
Mof_H 	H 	0.7637	0.2169	0.4087	0.038
Mof_C 	C 	0.5503	0.3893	0.4482	-0.02
Mof_H 	H 	0.5042	0.3608	0.394	0.041
Mof_C 	C 	0.70182	0.4761	0.5465	-0.063
Mof_H 	H 	0.7476	0.5048	0.6013	0.058
Mof_C 	C 	0.2475	0.6707	0.9007	-0.005
Mof_C 	C 	0.2827	0.7555	0.9036	0.026
Mof_O 	O 	0.94881	0.69518	0.74955	-0.337
Mof_O 	O 	0.90639	0.57567	0.64536	-0.418
Mof_C 	C 	0.7894	0.2103	0.9043	0.023
Mof_H 	H 	0.8036	0.1686	0.8325	0.022
Mof_C 	C 	0.8262	0.2946	0.8981	0.014
Mof_C 	C 	0.86959	0.48848	0.88179	-0.02
Mof_H 	H 	0.8579	0.4601	0.8016	0.058
Mof_C 	C 	0.90424	0.57327	0.88112	-0.036
Mof_C 	C 	0.92225	0.6186	0.74993	0.317
Mof_C 	C 	0.19865	0.74687	0.4671	-0.009
Mof_H 	H 	0.2363	0.7831	0.4087	0.038
Mof_C 	C 	0.4497	0.6107	0.4482	-0.02
Mof_H 	H 	0.4958	0.6392	0.394	0.041
Mof_C 	C 	0.29818	0.5239	0.5465	-0.063
Mof_H 	H 	0.2524	0.4952	0.6013	0.058
Mof_C 	C 	0.7525	0.3293	0.9007	-0.005
Mof_C 	C 	0.7173	0.2445	0.9036	0.026
Mof_O 	O 	0.69518	0.05119	0.75045	-0.335
Mof_O 	O 	0.57567	0.09361	0.85464	-0.403
Mof_C 	C 	0.2103	0.2106	0.5957	0.005
Mof_H 	H 	0.1686	0.1964	0.6675	0.026
Mof_C 	C 	0.2946	0.1738	0.6019	0.004
Mof_C 	C 	0.48848	0.13041	0.61821	-0.046
Mof_H 	H 	0.4601	0.1421	0.6984	0.068
Mof_C 	C 	0.57327	0.09576	0.61888	-0.059
Mof_C 	C 	0.6186	0.07775	0.75007	0.32
Mof_C 	C 	0.74687	0.80135	0.0329	0.139
Mof_H 	H 	0.7831	0.7637	0.0913	-0.007
Mof_C 	C 	0.6107	0.5503	0.0518	-0.094
Mof_H 	H 	0.6392	0.5042	0.106	0.063
Mof_C 	C 	0.5239	0.70182	0.9535	0.263
Mof_H 	H 	0.4952	0.7476	0.8987	-0.038
Mof_C 	C 	0.3293	0.2475	0.5993	-0.025
Mof_C 	C 	0.2445	0.2827	0.5964	0.018
Mof_O 	O 	0.30482	0.94881	0.75045	-0.335
Mof_O 	O 	0.42433	0.90639	0.85464	-0.403
Mof_C 	C 	0.7897	0.7894	0.5957	0.005
Mof_H 	H 	0.8314	0.8036	0.6675	0.026
Mof_C 	C 	0.7054	0.8262	0.6019	0.004
Mof_C 	C 	0.51152	0.86959	0.61821	-0.046
Mof_H 	H 	0.5399	0.8579	0.6984	0.068
Mof_C 	C 	0.42673	0.90424	0.61888	-0.059
Mof_C 	C 	0.3814	0.92225	0.75007	0.32
Mof_C 	C 	0.25313	0.19865	0.0329	0.139
Mof_H 	H 	0.2169	0.2363	0.0913	-0.007
Mof_C 	C 	0.3893	0.4497	0.0518	-0.094
Mof_H 	H 	0.3608	0.4958	0.106	0.063
Mof_C 	C 	0.4761	0.29818	0.9535	0.263
Mof_H 	H 	0.5048	0.2524	0.8987	-0.038
Mof_C 	C 	0.6707	0.7525	0.5993	-0.025
Mof_C 	C 	0.7555	0.7173	0.5964	0.018
Mof_O 	O 	0.94881	0.69518	0.25045	-0.344
Mof_O 	O 	0.90639	0.57567	0.35464	-0.419
Mof_C 	C 	0.7894	0.2103	0.0957	0.003
Mof_H 	H 	0.8036	0.1686	0.1675	0.023
Mof_C 	C 	0.8262	0.2946	0.1019	0.001
Mof_C 	C 	0.86959	0.48848	0.11821	-0.045
Mof_H 	H 	0.8579	0.4601	0.1984	0.064
Mof_C 	C 	0.90424	0.57327	0.11888	-0.054
Mof_C 	C 	0.92225	0.6186	0.25007	0.321
Mof_C 	C 	0.19865	0.74687	0.5329	-0.01
Mof_H 	H 	0.2363	0.7831	0.5913	0.038
Mof_C 	C 	0.4497	0.6107	0.5518	-0.021
Mof_H 	H 	0.4958	0.6392	0.606	0.036
Mof_C 	C 	0.29818	0.5239	0.4535	-0.053
Mof_H 	H 	0.2524	0.4952	0.3987	0.055
Mof_C 	C 	0.7525	0.3293	0.0993	-0.021
Mof_C 	C 	0.7173	0.2445	0.0964	0.011
Mof_O 	O 	0.05119	0.30482	0.25045	-0.344
Mof_O 	O 	0.09361	0.42433	0.35464	-0.419
Mof_C 	C 	0.2106	0.7897	0.0957	0.003
Mof_H 	H 	0.1964	0.8314	0.1675	0.023
Mof_C 	C 	0.1738	0.7054	0.1019	0.001
Mof_C 	C 	0.13041	0.51152	0.11821	-0.045
Mof_H 	H 	0.1421	0.5399	0.1984	0.064
Mof_C 	C 	0.09576	0.42673	0.11888	-0.054
Mof_C 	C 	0.07775	0.3814	0.25007	0.321
Mof_C 	C 	0.80135	0.25313	0.5329	-0.01
Mof_H 	H 	0.7637	0.2169	0.5913	0.038
Mof_C 	C 	0.5503	0.3893	0.5518	-0.021
Mof_H 	H 	0.5042	0.3608	0.606	0.036
Mof_C 	C 	0.70182	0.4761	0.4535	-0.053
Mof_H 	H 	0.7476	0.5048	0.3987	0.055
Mof_C 	C 	0.2475	0.6707	0.0993	-0.021
Mof_C 	C 	0.2827	0.7555	0.0964	0.011
Mof_Co	Co	0.33643	0.93342	-0	1.142
Mof_N 	N 	0.31602	0.06735	-0	-0.25
Mof_N 	N 	0.34195	0.21091	-0	-0.149
Mof_C 	C 	0.23752	0.1123	-0	-0.002
Mof_H 	H 	0.1786	0.0841	-0	0.011
Mof_C 	C 	0.3764	0.12899	-0	0.107
Mof_H 	H 	0.4373	0.1174	-0	-0.007
Mof_C 	C 	0.38829	0.29312	-0	0.093
Mof_C 	C 	0.342	0.3697	-0	-0.118
Mof_H 	H 	0.2767	0.3681	-0	0.066
Mof_C 	C 	0.476	0.45662	-0	-0.013
Mof_C 	C 	0.5201	0.37798	-0	-0.046
Mof_H 	H 	0.5854	0.3792	-0	0.037
Mof_Co	Co	0.66357	0.06658	-0	1.142
Mof_N 	N 	0.68398	0.93265	-0	-0.25
Mof_N 	N 	0.65805	0.78909	-0	-0.149
Mof_C 	C 	0.76248	0.8877	-0	-0.002
Mof_H 	H 	0.8214	0.9159	-0	0.011
Mof_C 	C 	0.6236	0.87101	-0	0.107
Mof_H 	H 	0.5627	0.8826	-0	-0.007
Mof_C 	C 	0.61171	0.70688	-0	0.093
Mof_C 	C 	0.658	0.6303	-0	-0.118
Mof_H 	H 	0.7233	0.6319	-0	0.066
Mof_C 	C 	0.524	0.54338	-0	-0.013
Mof_C 	C 	0.4799	0.62202	-0	-0.046
Mof_H 	H 	0.4146	0.6208	-0	0.037
Mof_Co	Co	0.06658	0.33643	0.5	1.15
Mof_N 	N 	0.93265	0.31602	0.5	-0.25
Mof_N 	N 	0.78909	0.34195	0.5	-0.142
Mof_C 	C 	0.8877	0.23752	0.5	0.023
Mof_H 	H 	0.9159	0.1786	0.5	0.01
Mof_C 	C 	0.87101	0.3764	0.5	0.113
Mof_H 	H 	0.8826	0.4373	0.5	-0.002
Mof_C 	C 	0.70688	0.38829	0.5	0.11
Mof_C 	C 	0.6303	0.342	0.5	-0.101
Mof_H 	H 	0.6319	0.2767	0.5	0.068
Mof_C 	C 	0.54338	0.476	0.5	0
Mof_C 	C 	0.62202	0.5201	0.5	-0.024
Mof_H 	H 	0.6208	0.5854	0.5	0.038
Mof_Co	Co	0.93342	0.66357	0.5	1.15
Mof_N 	N 	0.06735	0.68398	0.5	-0.25
Mof_N 	N 	0.21091	0.65805	0.5	-0.142
Mof_C 	C 	0.1123	0.76248	0.5	0.023
Mof_H 	H 	0.0841	0.8214	0.5	0.01
Mof_C 	C 	0.12899	0.6236	0.5	0.113
Mof_H 	H 	0.1174	0.5627	0.5	-0.002
Mof_C 	C 	0.29312	0.61171	0.5	0.11
Mof_C 	C 	0.3697	0.658	0.5	-0.101
Mof_H 	H 	0.3681	0.7233	0.5	0.068
Mof_C 	C 	0.45662	0.524	0.5	0
Mof_C 	C 	0.37798	0.4799	0.5	-0.024
Mof_H 	H 	0.3792	0.4146	0.5	0.038
Mof_N 	N 	0.81795	0.73675	0.5	-0.237
Mof_C 	C 	0.64555	0.81369	0.5	-0
Mof_C 	C 	0.55571	0.85169	0.5	0.023
Mof_C 	C 	0.38296	0.92228	0.5	-0.005
Mof_H 	H 	0.3257	0.9459	0.5	0.057
Mof_N 	N 	0.18205	0.26325	0.5	-0.237
Mof_C 	C 	0.35445	0.18631	0.5	-0
Mof_C 	C 	0.44429	0.14831	0.5	0.023
Mof_C 	C 	0.61704	0.07772	0.5	-0.005
Mof_H 	H 	0.6743	0.0541	0.5	0.057
Mof_N 	N 	0.26325	0.81795	-0	-0.253
Mof_C 	C 	0.18631	0.64555	-0	-0.027
Mof_C 	C 	0.14831	0.55571	-0	0.002
Mof_C 	C 	0.07772	0.38296	-0	-0.041
Mof_H 	H 	0.0541	0.3257	-0	0.062
Mof_N 	N 	0.73675	0.18205	-0	-0.253
Mof_C 	C 	0.81369	0.35445	-0	-0.027
Mof_C 	C 	0.85169	0.44429	-0	0.002
Mof_C 	C 	0.92228	0.61704	-0	-0.041
Mof_H 	H 	0.9459	0.6743	-0	0.062
_end
