# CIF file generated by openbabel 3.1.0, see https://openbabel.org
data_I
_chemical_name_common 'NHBZZN10_clean_h'
_cell_length_a 7.623
_cell_length_b 11.189
_cell_length_c 16.873
_cell_angle_alpha 90
_cell_angle_beta 90
_cell_angle_gamma 90
_space_group_name_H-M_alt 'P 1'
_space_group_name_Hall 'P 1'
loop_
    _symmetry_equiv_pos_as_xyz
    x,y,z
loop_
    _atom_site_label
    _atom_site_type_symbol
    _atom_site_fract_x
    _atom_site_fract_y
    _atom_site_fract_z
    _atom_site_occupancy
    Zn1      Zn       0.10140    0.64180    0.03870    1.000
    Zn2      Zn       0.39860    0.35820    0.53870    1.000
    Zn3      Zn       0.89860    0.14180    0.46130    1.000
    Zn4      Zn       0.60140    0.85820    0.96130    1.000
    C1       C        0.41740    0.43380    0.39590    1.000
    C2       C        0.39040    0.45450    0.30700    1.000
    C3       C        0.44110    0.56440    0.27510    1.000
    C4       C        0.41340    0.58460    0.19530    1.000
    C5       C        0.33460    0.49560    0.14980    1.000
    C6       C        0.28540    0.38740    0.18060    1.000
    C7       C        0.31670    0.36510    0.26110    1.000
    C8       C        0.87360    0.38430    0.39530    1.000
    C9       C        0.87060    0.44160    0.31400    1.000
    C10      C        0.80130    0.38200    0.24860    1.000
    C11      C        0.79760    0.43090    0.17480    1.000
    C12      C        0.86510    0.55540    0.16460    1.000
    C13      C        0.93920    0.61000    0.22960    1.000
    C14      C        0.94120    0.55780    0.30240    1.000
    C15      C        0.08260    0.56620    0.89590    1.000
    C16      C        0.10960    0.54550    0.80700    1.000
    C17      C        0.05890    0.43560    0.77510    1.000
    C18      C        0.08660    0.41540    0.69530    1.000
    C19      C        0.16540    0.50440    0.64980    1.000
    C20      C        0.21460    0.61260    0.68060    1.000
    C21      C        0.18330    0.63490    0.76110    1.000
    C22      C        0.62640    0.61570    0.89530    1.000
    C23      C        0.62940    0.55840    0.81400    1.000
    C24      C        0.69870    0.61800    0.74860    1.000
    C25      C        0.70240    0.56910    0.67480    1.000
    C26      C        0.63490    0.44460    0.66460    1.000
    C27      C        0.56080    0.39000    0.72960    1.000
    C28      C        0.55880    0.44220    0.80240    1.000
    C29      C        0.58260    0.93380    0.10410    1.000
    C30      C        0.60960    0.95450    0.19300    1.000
    C31      C        0.55890    0.06440    0.22490    1.000
    C32      C        0.58660    0.08460    0.30470    1.000
    C33      C        0.66540    0.99560    0.35020    1.000
    C34      C        0.71460    0.88740    0.31940    1.000
    C35      C        0.68330    0.86510    0.23890    1.000
    C36      C        0.12640    0.88430    0.10470    1.000
    C37      C        0.12940    0.94160    0.18600    1.000
    C38      C        0.19870    0.88200    0.25140    1.000
    C39      C        0.20240    0.93090    0.32520    1.000
    C40      C        0.13490    0.05540    0.33540    1.000
    C41      C        0.06080    0.11000    0.27040    1.000
    C42      C        0.05880    0.05780    0.19760    1.000
    C43      C        0.91740    0.06620    0.60410    1.000
    C44      C        0.89040    0.04550    0.69300    1.000
    C45      C        0.94110    0.93560    0.72490    1.000
    C46      C        0.91340    0.91540    0.80470    1.000
    C47      C        0.83460    0.00440    0.85020    1.000
    C48      C        0.78540    0.11260    0.81940    1.000
    C49      C        0.81670    0.13490    0.73890    1.000
    C50      C        0.37360    0.11570    0.60470    1.000
    C51      C        0.37060    0.05840    0.68600    1.000
    C52      C        0.30130    0.11800    0.75140    1.000
    C53      C        0.29760    0.06910    0.82520    1.000
    C54      C        0.36510    0.94460    0.83540    1.000
    C55      C        0.43920    0.89000    0.77040    1.000
    C56      C        0.44120    0.94220    0.69760    1.000
    N1       N        0.29650    0.52050    0.06420    1.000
    N2       N        0.85870    0.60890    0.08680    1.000
    N3       N        0.20350    0.47950    0.56420    1.000
    N4       N        0.64130    0.39110    0.58680    1.000
    N5       N        0.70350    0.02050    0.43580    1.000
    N6       N        0.14130    0.10890    0.41320    1.000
    N7       N        0.79650    0.97950    0.93580    1.000
    N8       N        0.35870    0.89110    0.91320    1.000
    O1       O        0.48180    0.51170    0.43830    1.000
    O2       O        0.36520    0.33130    0.42380    1.000
    O3       O        0.82270    0.27640    0.39710    1.000
    O4       O        0.91990    0.44460    0.45400    1.000
    O5       O        0.01820    0.48830    0.93830    1.000
    O6       O        0.13480    0.66870    0.92380    1.000
    O7       O        0.67730    0.72360    0.89710    1.000
    O8       O        0.58010    0.55540    0.95400    1.000
    O9       O        0.51820    0.01170    0.06170    1.000
    O10      O        0.63480    0.83130    0.07620    1.000
    O11      O        0.17730    0.77640    0.10290    1.000
    O12      O        0.08010    0.94460    0.04600    1.000
    O13      O        0.98180    0.98830    0.56170    1.000
    O14      O        0.86520    0.16870    0.57620    1.000
    O15      O        0.32270    0.22360    0.60290    1.000
    O16      O        0.41990    0.05540    0.54600    1.000
    H1       H        0.50378    0.63501    0.31473    1.000
    H2       H        0.45484    0.67310    0.16755    1.000
    H3       H        0.22050    0.31778    0.14093    1.000
    H4       H        0.28156    0.27456    0.28772    1.000
    H5       H        0.74462    0.28833    0.25574    1.000
    H6       H        0.74401    0.37712    0.12277    1.000
    H7       H        0.00168    0.70210    0.22344    1.000
    H8       H        0.00007    0.60736    0.35510    1.000
    H9       H        0.99622    0.36499    0.81473    1.000
    H10      H        0.04516    0.32690    0.66755    1.000
    H11      H        0.27950    0.68222    0.64093    1.000
    H12      H        0.21744    0.72480    0.78891    1.000
    H13      H        0.75538    0.71167    0.75574    1.000
    H14      H        0.75599    0.62288    0.62277    1.000
    H15      H        0.49832    0.29790    0.72344    1.000
    H16      H        0.49993    0.39264    0.85510    1.000
    H17      H        0.49622    0.13501    0.18527    1.000
    H18      H        0.54516    0.17310    0.33245    1.000
    H19      H        0.77950    0.81778    0.35907    1.000
    H20      H        0.71744    0.77520    0.21109    1.000
    H21      H        0.25538    0.78833    0.24426    1.000
    H22      H        0.25599    0.87712    0.37723    1.000
    H23      H        0.99832    0.20210    0.27656    1.000
    H24      H        0.99993    0.10736    0.14490    1.000
    H25      H        0.00378    0.86499    0.68527    1.000
    H26      H        0.95484    0.82690    0.83245    1.000
    H27      H        0.72050    0.18222    0.85907    1.000
    H28      H        0.78256    0.22480    0.71109    1.000
    H29      H        0.24462    0.21167    0.74426    1.000
    H30      H        0.24401    0.12288    0.87723    1.000
    H31      H        0.50168    0.79790    0.77656    1.000
    H32      H        0.50007    0.89264    0.64490    1.000
