data_functionalizedCrystal
_audit_creation_method	'EQeq! by Chris Wilmer'
_symmetry_space_group_name_H-M	'P1'
_symmetry_Int_Tables_number	1
_symmetry_cell_setting	triclinic
loop_
_symmetry_equiv_pos_as_xyz
  x,y,z
_cell_length_a	44.391
_cell_length_b	44.391
_cell_length_c	23.258
_cell_angle_alpha	90
_cell_angle_beta	90
_cell_angle_gamma	120
loop_
_atom_site_label
_atom_site_type_symbol
_atom_site_fract_x
_atom_site_fract_y
_atom_site_fract_z
_atom_site_charge
Mof_O 	O 	0.8087	0.2537	0.201	-0.667
Mof_C 	C 	0.8293	0.321	0.3012	-0.009
Mof_H 	H 	0.8262	0.309	0.3364	0.032
Mof_C 	C 	0.838	0.3555	0.3009	-0.004
Mof_H 	H 	0.8404	0.3675	0.3359	-0.003
Mof_O 	O 	0.8013	0.1347	0.1908	-0.688
Mof_O 	O 	0.7764	0.1591	0.1428	-0.681
Mof_C 	C 	0.782	0.1349	0.1514	0.593
Mof_C 	C 	0.7615	0.102	0.1178	-0.185
Mof_C 	C 	0.7391	0.1022	0.0794	0.022
Mof_H 	H 	0.7357	0.1216	0.0755	0.018
Mof_C 	C 	0.7214	0.0732	0.046	-0.023
Mof_H 	H 	0.7054	0.0721	0.0178	0.002
Mof_N 	N 	0.7268	0.0454	0.0534	-0.175
Mof_C 	C 	0.7507	0.0479	0.0928	-0.018
Mof_H 	H 	0.7547	0.0289	0.0969	-0.002
Mof_C 	C 	0.7695	0.077	0.1271	0.02
Mof_H 	H 	0.7863	0.079	0.1544	0.013
Mof_O 	O 	0.7463	0.555	0.201	-0.666
Mof_C 	C 	0.679	0.5083	0.3012	-0.008
Mof_H 	H 	0.691	0.5172	0.3364	0.033
Mof_C 	C 	0.6445	0.4825	0.3009	-0.003
Mof_H 	H 	0.6325	0.4729	0.3359	-0.002
Mof_O 	O 	0.8653	0.6666	0.1908	-0.687
Mof_O 	O 	0.8409	0.6173	0.1428	-0.68
Mof_C 	C 	0.8651	0.6471	0.1514	0.595
Mof_C 	C 	0.898	0.6595	0.1178	-0.184
Mof_C 	C 	0.8978	0.6369	0.0794	0.023
Mof_H 	H 	0.8784	0.6141	0.0755	0.018
Mof_C 	C 	0.9268	0.6482	0.046	-0.023
Mof_H 	H 	0.9279	0.6333	0.0178	0.003
Mof_N 	N 	0.9546	0.6814	0.0534	-0.174
Mof_C 	C 	0.9521	0.7028	0.0928	-0.018
Mof_H 	H 	0.9711	0.7258	0.0969	-0.001
Mof_C 	C 	0.923	0.6925	0.1271	0.02
Mof_H 	H 	0.921	0.7073	0.1544	0.014
Mof_O 	O 	0.445	0.1913	0.201	-0.666
Mof_C 	C 	0.4917	0.1707	0.3012	-0.008
Mof_H 	H 	0.4828	0.1738	0.3364	0.033
Mof_C 	C 	0.5175	0.162	0.3009	-0.003
Mof_H 	H 	0.5271	0.1596	0.3359	-0.002
Mof_O 	O 	0.3334	0.1987	0.1908	-0.687
Mof_O 	O 	0.3827	0.2236	0.1428	-0.68
Mof_C 	C 	0.3529	0.218	0.1514	0.594
Mof_C 	C 	0.3405	0.2385	0.1178	-0.184
Mof_C 	C 	0.3631	0.2609	0.0794	0.022
Mof_H 	H 	0.3859	0.2643	0.0755	0.018
Mof_C 	C 	0.3518	0.2786	0.046	-0.023
Mof_H 	H 	0.3667	0.2946	0.0178	0.002
Mof_N 	N 	0.3186	0.2732	0.0534	-0.175
Mof_C 	C 	0.2972	0.2493	0.0928	-0.018
Mof_H 	H 	0.2742	0.2453	0.0969	-0.002
Mof_C 	C 	0.3075	0.2305	0.1271	0.02
Mof_H 	H 	0.2927	0.2137	0.1544	0.013
Mof_O 	O 	0.1913	0.7463	0.701	-0.666
Mof_C 	C 	0.1707	0.679	0.8012	-0.008
Mof_H 	H 	0.1738	0.691	0.8364	0.034
Mof_C 	C 	0.162	0.6445	0.8009	-0.002
Mof_H 	H 	0.1596	0.6325	0.8359	-0.001
Mof_O 	O 	0.1987	0.8653	0.6908	-0.687
Mof_O 	O 	0.2236	0.8409	0.6428	-0.679
Mof_C 	C 	0.218	0.8651	0.6514	0.595
Mof_C 	C 	0.2385	0.898	0.6178	-0.182
Mof_C 	C 	0.2609	0.8978	0.5794	0.023
Mof_H 	H 	0.2643	0.8784	0.5755	0.019
Mof_C 	C 	0.2786	0.9268	0.546	-0.021
Mof_H 	H 	0.2946	0.9279	0.5178	0.004
Mof_N 	N 	0.2732	0.9546	0.5534	-0.175
Mof_C 	C 	0.2493	0.9521	0.5928	-0.016
Mof_H 	H 	0.2453	0.9711	0.5969	0.001
Mof_C 	C 	0.2305	0.923	0.6271	0.021
Mof_H 	H 	0.2137	0.921	0.6544	0.015
Mof_O 	O 	0.2537	0.445	0.701	-0.666
Mof_C 	C 	0.321	0.4917	0.8012	-0.008
Mof_H 	H 	0.309	0.4828	0.8364	0.034
Mof_C 	C 	0.3555	0.5175	0.8009	-0.002
Mof_H 	H 	0.3675	0.5271	0.8359	-0.001
Mof_O 	O 	0.1347	0.3334	0.6908	-0.687
Mof_O 	O 	0.1591	0.3827	0.6428	-0.68
Mof_C 	C 	0.1349	0.3529	0.6514	0.595
Mof_C 	C 	0.102	0.3405	0.6178	-0.183
Mof_C 	C 	0.1022	0.3631	0.5794	0.023
Mof_H 	H 	0.1216	0.3859	0.5755	0.019
Mof_C 	C 	0.0732	0.3518	0.546	-0.021
Mof_H 	H 	0.0721	0.3667	0.5178	0.003
Mof_N 	N 	0.0454	0.3186	0.5534	-0.176
Mof_C 	C 	0.0479	0.2972	0.5928	-0.017
Mof_H 	H 	0.0289	0.2742	0.5969	-0
Mof_C 	C 	0.077	0.3075	0.6271	0.02
Mof_H 	H 	0.079	0.2927	0.6544	0.015
Mof_O 	O 	0.555	0.8087	0.701	-0.666
Mof_C 	C 	0.5083	0.8293	0.8012	-0.008
Mof_H 	H 	0.5172	0.8262	0.8364	0.034
Mof_C 	C 	0.4825	0.838	0.8009	-0.002
Mof_H 	H 	0.4729	0.8404	0.8359	-0.001
Mof_O 	O 	0.6666	0.8013	0.6908	-0.687
Mof_O 	O 	0.6173	0.7764	0.6428	-0.679
Mof_C 	C 	0.6471	0.782	0.6514	0.595
Mof_C 	C 	0.6595	0.7615	0.6178	-0.182
Mof_C 	C 	0.6369	0.7391	0.5794	0.023
Mof_H 	H 	0.6141	0.7357	0.5755	0.019
Mof_C 	C 	0.6482	0.7214	0.546	-0.021
Mof_H 	H 	0.6333	0.7054	0.5178	0.004
Mof_N 	N 	0.6814	0.7268	0.5534	-0.176
Mof_C 	C 	0.7028	0.7507	0.5928	-0.016
Mof_H 	H 	0.7258	0.7547	0.5969	0
Mof_C 	C 	0.6925	0.7695	0.6271	0.02
Mof_H 	H 	0.7073	0.7863	0.6544	0.015
Mof_O 	O 	0.2537	0.8087	0.799	-0.666
Mof_C 	C 	0.321	0.8293	0.6988	-0.008
Mof_H 	H 	0.309	0.8262	0.6636	0.033
Mof_C 	C 	0.3555	0.838	0.6991	-0.002
Mof_H 	H 	0.3675	0.8404	0.6641	-0.003
Mof_O 	O 	0.1347	0.8013	0.8092	-0.687
Mof_O 	O 	0.1591	0.7764	0.8572	-0.679
Mof_C 	C 	0.1349	0.782	0.8486	0.595
Mof_C 	C 	0.102	0.7615	0.8822	-0.182
Mof_C 	C 	0.1022	0.7391	0.9206	0.024
Mof_H 	H 	0.1216	0.7357	0.9245	0.021
Mof_C 	C 	0.0732	0.7214	0.954	-0.02
Mof_H 	H 	0.0721	0.7054	0.9822	0.009
Mof_N 	N 	0.0454	0.7268	0.9466	-0.169
Mof_C 	C 	0.0479	0.7507	0.9072	-0.016
Mof_H 	H 	0.0289	0.7547	0.9031	0.004
Mof_C 	C 	0.077	0.7695	0.8729	0.022
Mof_H 	H 	0.079	0.7863	0.8456	0.015
Mof_O 	O 	0.555	0.7463	0.799	-0.666
Mof_C 	C 	0.5083	0.679	0.6988	-0.008
Mof_H 	H 	0.5172	0.691	0.6636	0.033
Mof_C 	C 	0.4825	0.6445	0.6991	-0.002
Mof_H 	H 	0.4729	0.6325	0.6641	-0.003
Mof_O 	O 	0.6666	0.8653	0.8092	-0.686
Mof_O 	O 	0.6173	0.8409	0.8572	-0.679
Mof_C 	C 	0.6471	0.8651	0.8486	0.595
Mof_C 	C 	0.6595	0.898	0.8822	-0.182
Mof_C 	C 	0.6369	0.8978	0.9206	0.024
Mof_H 	H 	0.6141	0.8784	0.9245	0.021
Mof_C 	C 	0.6482	0.9268	0.954	-0.019
Mof_H 	H 	0.6333	0.9279	0.9822	0.01
Mof_N 	N 	0.6814	0.9546	0.9466	-0.168
Mof_C 	C 	0.7028	0.9521	0.9072	-0.015
Mof_H 	H 	0.7258	0.9711	0.9031	0.005
Mof_C 	C 	0.6925	0.923	0.8729	0.022
Mof_H 	H 	0.7073	0.921	0.8456	0.016
Mof_O 	O 	0.1913	0.445	0.799	-0.666
Mof_C 	C 	0.1707	0.4917	0.6988	-0.008
Mof_H 	H 	0.1738	0.4828	0.6636	0.032
Mof_C 	C 	0.162	0.5175	0.6991	-0.002
Mof_H 	H 	0.1596	0.5271	0.6641	-0.003
Mof_O 	O 	0.1987	0.3334	0.8092	-0.687
Mof_O 	O 	0.2236	0.3827	0.8572	-0.679
Mof_C 	C 	0.218	0.3529	0.8486	0.595
Mof_C 	C 	0.2385	0.3405	0.8822	-0.182
Mof_C 	C 	0.2609	0.3631	0.9206	0.024
Mof_H 	H 	0.2643	0.3859	0.9245	0.021
Mof_C 	C 	0.2786	0.3518	0.954	-0.02
Mof_H 	H 	0.2946	0.3667	0.9822	0.009
Mof_N 	N 	0.2732	0.3186	0.9466	-0.169
Mof_C 	C 	0.2493	0.2972	0.9072	-0.016
Mof_H 	H 	0.2453	0.2742	0.9031	0.004
Mof_C 	C 	0.2305	0.3075	0.8729	0.022
Mof_H 	H 	0.2137	0.2927	0.8456	0.015
Mof_O 	O 	0.7463	0.1913	0.299	-0.666
Mof_C 	C 	0.679	0.1707	0.1988	-0.008
Mof_H 	H 	0.691	0.1738	0.1636	0.032
Mof_C 	C 	0.6445	0.162	0.1991	-0.003
Mof_H 	H 	0.6325	0.1596	0.1641	-0.004
Mof_O 	O 	0.8653	0.1987	0.3092	-0.687
Mof_O 	O 	0.8409	0.2236	0.3572	-0.679
Mof_C 	C 	0.8651	0.218	0.3486	0.595
Mof_C 	C 	0.898	0.2385	0.3822	-0.183
Mof_C 	C 	0.8978	0.2609	0.4206	0.023
Mof_H 	H 	0.8784	0.2643	0.4245	0.02
Mof_C 	C 	0.9268	0.2786	0.454	-0.021
Mof_H 	H 	0.9279	0.2946	0.4822	0.005
Mof_N 	N 	0.9546	0.2732	0.4466	-0.175
Mof_C 	C 	0.9521	0.2493	0.4072	-0.017
Mof_H 	H 	0.9711	0.2453	0.4031	-0
Mof_C 	C 	0.923	0.2305	0.3729	0.021
Mof_H 	H 	0.921	0.2137	0.3456	0.014
Mof_O 	O 	0.445	0.2537	0.299	-0.666
Mof_C 	C 	0.4917	0.321	0.1988	-0.008
Mof_H 	H 	0.4828	0.309	0.1636	0.032
Mof_C 	C 	0.5175	0.3555	0.1991	-0.003
Mof_H 	H 	0.5271	0.3675	0.1641	-0.004
Mof_O 	O 	0.3334	0.1347	0.3092	-0.687
Mof_O 	O 	0.3827	0.1591	0.3572	-0.679
Mof_C 	C 	0.3529	0.1349	0.3486	0.595
Mof_C 	C 	0.3405	0.102	0.3822	-0.183
Mof_C 	C 	0.3631	0.1022	0.4206	0.023
Mof_H 	H 	0.3859	0.1216	0.4245	0.02
Mof_C 	C 	0.3518	0.0732	0.454	-0.021
Mof_H 	H 	0.3667	0.0721	0.4822	0.004
Mof_N 	N 	0.3186	0.0454	0.4466	-0.176
Mof_C 	C 	0.2972	0.0479	0.4072	-0.017
Mof_H 	H 	0.2742	0.0289	0.4031	-0.001
Mof_C 	C 	0.3075	0.077	0.3729	0.02
Mof_H 	H 	0.2927	0.079	0.3456	0.014
Mof_O 	O 	0.8087	0.555	0.299	-0.666
Mof_C 	C 	0.8293	0.5083	0.1988	-0.008
Mof_H 	H 	0.8262	0.5172	0.1636	0.032
Mof_C 	C 	0.838	0.4825	0.1991	-0.003
Mof_H 	H 	0.8404	0.4729	0.1641	-0.003
Mof_O 	O 	0.8013	0.6666	0.3092	-0.687
Mof_O 	O 	0.7764	0.6173	0.3572	-0.679
Mof_C 	C 	0.782	0.6471	0.3486	0.595
Mof_C 	C 	0.7615	0.6595	0.3822	-0.183
Mof_C 	C 	0.7391	0.6369	0.4206	0.023
Mof_H 	H 	0.7357	0.6141	0.4245	0.02
Mof_C 	C 	0.7214	0.6482	0.454	-0.021
Mof_H 	H 	0.7054	0.6333	0.4822	0.005
Mof_N 	N 	0.7268	0.6814	0.4466	-0.176
Mof_C 	C 	0.7507	0.7028	0.4072	-0.017
Mof_H 	H 	0.7547	0.7258	0.4031	-0.001
Mof_C 	C 	0.7695	0.6925	0.3729	0.02
Mof_H 	H 	0.7863	0.7073	0.3456	0.014
Mof_O 	O 	0.1913	0.7463	0.799	-0.666
Mof_C 	C 	0.1707	0.679	0.6988	-0.008
Mof_H 	H 	0.1738	0.691	0.6636	0.033
Mof_C 	C 	0.162	0.6445	0.6991	-0.002
Mof_H 	H 	0.1596	0.6325	0.6641	-0.003
Mof_O 	O 	0.1987	0.8653	0.8092	-0.687
Mof_O 	O 	0.2236	0.8409	0.8572	-0.679
Mof_C 	C 	0.218	0.8651	0.8486	0.595
Mof_C 	C 	0.2385	0.898	0.8822	-0.182
Mof_C 	C 	0.2609	0.8978	0.9206	0.024
Mof_H 	H 	0.2643	0.8784	0.9245	0.021
Mof_C 	C 	0.2786	0.9268	0.954	-0.02
Mof_H 	H 	0.2946	0.9279	0.9822	0.01
Mof_N 	N 	0.2732	0.9546	0.9466	-0.168
Mof_C 	C 	0.2493	0.9521	0.9072	-0.015
Mof_H 	H 	0.2453	0.9711	0.9031	0.005
Mof_C 	C 	0.2305	0.923	0.8729	0.022
Mof_H 	H 	0.2137	0.921	0.8456	0.015
Mof_O 	O 	0.2537	0.445	0.799	-0.666
Mof_C 	C 	0.321	0.4917	0.6988	-0.008
Mof_H 	H 	0.309	0.4828	0.6636	0.033
Mof_C 	C 	0.3555	0.5175	0.6991	-0.002
Mof_H 	H 	0.3675	0.5271	0.6641	-0.003
Mof_O 	O 	0.1347	0.3334	0.8092	-0.687
Mof_O 	O 	0.1591	0.3827	0.8572	-0.679
Mof_C 	C 	0.1349	0.3529	0.8486	0.595
Mof_C 	C 	0.102	0.3405	0.8822	-0.182
Mof_C 	C 	0.1022	0.3631	0.9206	0.024
Mof_H 	H 	0.1216	0.3859	0.9245	0.021
Mof_C 	C 	0.0732	0.3518	0.954	-0.02
Mof_H 	H 	0.0721	0.3667	0.9822	0.009
Mof_N 	N 	0.0454	0.3186	0.9466	-0.169
Mof_C 	C 	0.0479	0.2972	0.9072	-0.016
Mof_H 	H 	0.0289	0.2742	0.9031	0.004
Mof_C 	C 	0.077	0.3075	0.8729	0.022
Mof_H 	H 	0.079	0.2927	0.8456	0.015
Mof_O 	O 	0.555	0.8087	0.799	-0.666
Mof_C 	C 	0.5083	0.8293	0.6988	-0.008
Mof_H 	H 	0.5172	0.8262	0.6636	0.033
Mof_C 	C 	0.4825	0.838	0.6991	-0.002
Mof_H 	H 	0.4729	0.8404	0.6641	-0.003
Mof_O 	O 	0.6666	0.8013	0.8092	-0.687
Mof_O 	O 	0.6173	0.7764	0.8572	-0.679
Mof_C 	C 	0.6471	0.782	0.8486	0.595
Mof_C 	C 	0.6595	0.7615	0.8822	-0.182
Mof_C 	C 	0.6369	0.7391	0.9206	0.024
Mof_H 	H 	0.6141	0.7357	0.9245	0.021
Mof_C 	C 	0.6482	0.7214	0.954	-0.02
Mof_H 	H 	0.6333	0.7054	0.9822	0.009
Mof_N 	N 	0.6814	0.7268	0.9466	-0.169
Mof_C 	C 	0.7028	0.7507	0.9072	-0.015
Mof_H 	H 	0.7258	0.7547	0.9031	0.004
Mof_C 	C 	0.6925	0.7695	0.8729	0.022
Mof_H 	H 	0.7073	0.7863	0.8456	0.016
Mof_O 	O 	0.8087	0.2537	0.299	-0.666
Mof_C 	C 	0.8293	0.321	0.1988	-0.008
Mof_H 	H 	0.8262	0.309	0.1636	0.032
Mof_C 	C 	0.838	0.3555	0.1991	-0.003
Mof_H 	H 	0.8404	0.3675	0.1641	-0.003
Mof_O 	O 	0.8013	0.1347	0.3092	-0.687
Mof_O 	O 	0.7764	0.1591	0.3572	-0.679
Mof_C 	C 	0.782	0.1349	0.3486	0.595
Mof_C 	C 	0.7615	0.102	0.3822	-0.183
Mof_C 	C 	0.7391	0.1022	0.4206	0.023
Mof_H 	H 	0.7357	0.1216	0.4245	0.02
Mof_C 	C 	0.7214	0.0732	0.454	-0.021
Mof_H 	H 	0.7054	0.0721	0.4822	0.004
Mof_N 	N 	0.7268	0.0454	0.4466	-0.176
Mof_C 	C 	0.7507	0.0479	0.4072	-0.017
Mof_H 	H 	0.7547	0.0289	0.4031	-0.001
Mof_C 	C 	0.7695	0.077	0.3729	0.02
Mof_H 	H 	0.7863	0.079	0.3456	0.014
Mof_O 	O 	0.7463	0.555	0.299	-0.666
Mof_C 	C 	0.679	0.5083	0.1988	-0.008
Mof_H 	H 	0.691	0.5172	0.1636	0.032
Mof_C 	C 	0.6445	0.4825	0.1991	-0.003
Mof_H 	H 	0.6325	0.4729	0.1641	-0.004
Mof_O 	O 	0.8653	0.6666	0.3092	-0.687
Mof_O 	O 	0.8409	0.6173	0.3572	-0.679
Mof_C 	C 	0.8651	0.6471	0.3486	0.595
Mof_C 	C 	0.898	0.6595	0.3822	-0.183
Mof_C 	C 	0.8978	0.6369	0.4206	0.023
Mof_H 	H 	0.8784	0.6141	0.4245	0.02
Mof_C 	C 	0.9268	0.6482	0.454	-0.021
Mof_H 	H 	0.9279	0.6333	0.4822	0.005
Mof_N 	N 	0.9546	0.6814	0.4466	-0.175
Mof_C 	C 	0.9521	0.7028	0.4072	-0.017
Mof_H 	H 	0.9711	0.7258	0.4031	0
Mof_C 	C 	0.923	0.6925	0.3729	0.021
Mof_H 	H 	0.921	0.7073	0.3456	0.014
Mof_O 	O 	0.445	0.1913	0.299	-0.666
Mof_C 	C 	0.4917	0.1707	0.1988	-0.008
Mof_H 	H 	0.4828	0.1738	0.1636	0.032
Mof_C 	C 	0.5175	0.162	0.1991	-0.003
Mof_H 	H 	0.5271	0.1596	0.1641	-0.004
Mof_O 	O 	0.3334	0.1987	0.3092	-0.687
Mof_O 	O 	0.3827	0.2236	0.3572	-0.679
Mof_C 	C 	0.3529	0.218	0.3486	0.595
Mof_C 	C 	0.3405	0.2385	0.3822	-0.183
Mof_C 	C 	0.3631	0.2609	0.4206	0.023
Mof_H 	H 	0.3859	0.2643	0.4245	0.02
Mof_C 	C 	0.3518	0.2786	0.454	-0.021
Mof_H 	H 	0.3667	0.2946	0.4822	0.005
Mof_N 	N 	0.3186	0.2732	0.4466	-0.176
Mof_C 	C 	0.2972	0.2493	0.4072	-0.017
Mof_H 	H 	0.2742	0.2453	0.4031	-0.001
Mof_C 	C 	0.3075	0.2305	0.3729	0.02
Mof_H 	H 	0.2927	0.2137	0.3456	0.014
Mof_O 	O 	0.7463	0.1913	0.201	-0.667
Mof_C 	C 	0.679	0.1707	0.3012	-0.008
Mof_H 	H 	0.691	0.1738	0.3364	0.033
Mof_C 	C 	0.6445	0.162	0.3009	-0.003
Mof_H 	H 	0.6325	0.1596	0.3359	-0.002
Mof_O 	O 	0.8653	0.1987	0.1908	-0.687
Mof_O 	O 	0.8409	0.2236	0.1428	-0.68
Mof_C 	C 	0.8651	0.218	0.1514	0.595
Mof_C 	C 	0.898	0.2385	0.1178	-0.184
Mof_C 	C 	0.8978	0.2609	0.0794	0.023
Mof_H 	H 	0.8784	0.2643	0.0755	0.018
Mof_C 	C 	0.9268	0.2786	0.046	-0.023
Mof_H 	H 	0.9279	0.2946	0.0178	0.003
Mof_N 	N 	0.9546	0.2732	0.0534	-0.174
Mof_C 	C 	0.9521	0.2493	0.0928	-0.018
Mof_H 	H 	0.9711	0.2453	0.0969	-0.001
Mof_C 	C 	0.923	0.2305	0.1271	0.02
Mof_H 	H 	0.921	0.2137	0.1544	0.014
Mof_O 	O 	0.445	0.2537	0.201	-0.666
Mof_C 	C 	0.4917	0.321	0.3012	-0.008
Mof_H 	H 	0.4828	0.309	0.3364	0.033
Mof_C 	C 	0.5175	0.3555	0.3009	-0.003
Mof_H 	H 	0.5271	0.3675	0.3359	-0.002
Mof_O 	O 	0.3334	0.1347	0.1908	-0.687
Mof_O 	O 	0.3827	0.1591	0.1428	-0.68
Mof_C 	C 	0.3529	0.1349	0.1514	0.594
Mof_C 	C 	0.3405	0.102	0.1178	-0.184
Mof_C 	C 	0.3631	0.1022	0.0794	0.022
Mof_H 	H 	0.3859	0.1216	0.0755	0.018
Mof_C 	C 	0.3518	0.0732	0.046	-0.023
Mof_H 	H 	0.3667	0.0721	0.0178	0.002
Mof_N 	N 	0.3186	0.0454	0.0534	-0.175
Mof_C 	C 	0.2972	0.0479	0.0928	-0.018
Mof_H 	H 	0.2742	0.0289	0.0969	-0.002
Mof_C 	C 	0.3075	0.077	0.1271	0.02
Mof_H 	H 	0.2927	0.079	0.1544	0.013
Mof_O 	O 	0.8087	0.555	0.201	-0.666
Mof_C 	C 	0.8293	0.5083	0.3012	-0.008
Mof_H 	H 	0.8262	0.5172	0.3364	0.033
Mof_C 	C 	0.838	0.4825	0.3009	-0.003
Mof_H 	H 	0.8404	0.4729	0.3359	-0.002
Mof_O 	O 	0.8013	0.6666	0.1908	-0.687
Mof_O 	O 	0.7764	0.6173	0.1428	-0.68
Mof_C 	C 	0.782	0.6471	0.1514	0.595
Mof_C 	C 	0.7615	0.6595	0.1178	-0.184
Mof_C 	C 	0.7391	0.6369	0.0794	0.022
Mof_H 	H 	0.7357	0.6141	0.0755	0.018
Mof_C 	C 	0.7214	0.6482	0.046	-0.023
Mof_H 	H 	0.7054	0.6333	0.0178	0.002
Mof_N 	N 	0.7268	0.6814	0.0534	-0.175
Mof_C 	C 	0.7507	0.7028	0.0928	-0.018
Mof_H 	H 	0.7547	0.7258	0.0969	-0.001
Mof_C 	C 	0.7695	0.6925	0.1271	0.02
Mof_H 	H 	0.7863	0.7073	0.1544	0.014
Mof_O 	O 	0.2537	0.8087	0.701	-0.666
Mof_C 	C 	0.321	0.8293	0.8012	-0.008
Mof_H 	H 	0.309	0.8262	0.8364	0.034
Mof_C 	C 	0.3555	0.838	0.8009	-0.002
Mof_H 	H 	0.3675	0.8404	0.8359	-0.001
Mof_O 	O 	0.1347	0.8013	0.6908	-0.687
Mof_O 	O 	0.1591	0.7764	0.6428	-0.679
Mof_C 	C 	0.1349	0.782	0.6514	0.595
Mof_C 	C 	0.102	0.7615	0.6178	-0.183
Mof_C 	C 	0.1022	0.7391	0.5794	0.023
Mof_H 	H 	0.1216	0.7357	0.5755	0.019
Mof_C 	C 	0.0732	0.7214	0.546	-0.021
Mof_H 	H 	0.0721	0.7054	0.5178	0.003
Mof_N 	N 	0.0454	0.7268	0.5534	-0.176
Mof_C 	C 	0.0479	0.7507	0.5928	-0.017
Mof_H 	H 	0.0289	0.7547	0.5969	-0
Mof_C 	C 	0.077	0.7695	0.6271	0.02
Mof_H 	H 	0.079	0.7863	0.6544	0.015
Mof_O 	O 	0.555	0.7463	0.701	-0.666
Mof_C 	C 	0.5083	0.679	0.8012	-0.008
Mof_H 	H 	0.5172	0.691	0.8364	0.034
Mof_C 	C 	0.4825	0.6445	0.8009	-0.002
Mof_H 	H 	0.4729	0.6325	0.8359	-0.001
Mof_O 	O 	0.6666	0.8653	0.6908	-0.687
Mof_O 	O 	0.6173	0.8409	0.6428	-0.679
Mof_C 	C 	0.6471	0.8651	0.6514	0.595
Mof_C 	C 	0.6595	0.898	0.6178	-0.182
Mof_C 	C 	0.6369	0.8978	0.5794	0.023
Mof_H 	H 	0.6141	0.8784	0.5755	0.019
Mof_C 	C 	0.6482	0.9268	0.546	-0.021
Mof_H 	H 	0.6333	0.9279	0.5178	0.004
Mof_N 	N 	0.6814	0.9546	0.5534	-0.175
Mof_C 	C 	0.7028	0.9521	0.5928	-0.016
Mof_H 	H 	0.7258	0.9711	0.5969	0.001
Mof_C 	C 	0.6925	0.923	0.6271	0.021
Mof_H 	H 	0.7073	0.921	0.6544	0.015
Mof_O 	O 	0.1913	0.445	0.701	-0.666
Mof_C 	C 	0.1707	0.4917	0.8012	-0.008
Mof_H 	H 	0.1738	0.4828	0.8364	0.034
Mof_C 	C 	0.162	0.5175	0.8009	-0.002
Mof_H 	H 	0.1596	0.5271	0.8359	-0.001
Mof_O 	O 	0.1987	0.3334	0.6908	-0.687
Mof_O 	O 	0.2236	0.3827	0.6428	-0.679
Mof_C 	C 	0.218	0.3529	0.6514	0.595
Mof_C 	C 	0.2385	0.3405	0.6178	-0.183
Mof_C 	C 	0.2609	0.3631	0.5794	0.023
Mof_H 	H 	0.2643	0.3859	0.5755	0.019
Mof_C 	C 	0.2786	0.3518	0.546	-0.021
Mof_H 	H 	0.2946	0.3667	0.5178	0.004
Mof_N 	N 	0.2732	0.3186	0.5534	-0.176
Mof_C 	C 	0.2493	0.2972	0.5928	-0.017
Mof_H 	H 	0.2453	0.2742	0.5969	-0
Mof_C 	C 	0.2305	0.3075	0.6271	0.02
Mof_H 	H 	0.2137	0.2927	0.6544	0.015
Mof_Ag	Ag	0.85253	0.42626	0.25	0.443
Mof_Ag	Ag	0.57374	0.42626	0.25	0.442
Mof_Ag	Ag	0.57374	0.14747	0.25	0.442
Mof_Ag	Ag	0.14747	0.57374	0.75	0.447
Mof_Ag	Ag	0.42626	0.57373	0.75	0.447
Mof_Ag	Ag	0.42626	0.85253	0.75	0.448
Mof_Ag	Ag	0.70264	0	-0	0.437
Mof_Ag	Ag	-4.58287e-17	0.70264	-0	0.436
Mof_Ag	Ag	0.29736	0.29736	-0	0.44
Mof_Ag	Ag	0.29736	0	0.5	0.461
Mof_Ag	Ag	-9.16743e-18	0.29736	0.5	0.46
Mof_Ag	Ag	0.70264	0.70264	0.5	0.465
Mof_Ag	Ag	0.29736	0	-0	0.437
Mof_Ag	Ag	-2.29143e-17	0.29736	-0	0.436
Mof_Ag	Ag	0.70264	0.70264	-0	0.441
Mof_Ag	Ag	0.70264	0	0.5	0.461
Mof_Ag	Ag	-7.79104e-17	0.70264	0.5	0.461
Mof_Ag	Ag	0.29736	0.29736	0.5	0.464
Mof_Cr	Cr	0.83156	0.16844	0.25	2.16
Mof_O 	O 	0.8079	0.1921	0.25	-1.188
Mof_Cr	Cr	0.83156	0.66312	0.25	2.16
Mof_O 	O 	0.8079	0.6158	0.25	-1.188
Mof_Cr	Cr	0.33688	0.16844	0.25	2.159
Mof_O 	O 	0.3842	0.1921	0.25	-1.188
Mof_Cr	Cr	0.16844	0.83156	0.75	2.162
Mof_O 	O 	0.1921	0.8079	0.75	-1.189
Mof_Cr	Cr	0.16844	0.33688	0.75	2.162
Mof_O 	O 	0.1921	0.3842	0.75	-1.189
Mof_Cr	Cr	0.66312	0.83156	0.75	2.163
Mof_O 	O 	0.6158	0.8079	0.75	-1.189
Mof_Cr	Cr	0.79487	0.20513	0.1798	2.043
Mof_Cr	Cr	0.79487	0.58974	0.1798	2.043
Mof_Cr	Cr	0.41026	0.20513	0.1798	2.043
Mof_Cr	Cr	0.20513	0.79487	0.6798	2.044
Mof_Cr	Cr	0.20513	0.41026	0.6798	2.044
Mof_Cr	Cr	0.58974	0.79487	0.6798	2.044
Mof_Cr	Cr	0.20513	0.79487	0.8202	2.047
Mof_Cr	Cr	0.58974	0.79487	0.8202	2.047
Mof_Cr	Cr	0.20513	0.41026	0.8202	2.047
Mof_Cr	Cr	0.79487	0.20513	0.3202	2.045
Mof_Cr	Cr	0.41026	0.20513	0.3202	2.045
Mof_Cr	Cr	0.79487	0.58974	0.3202	2.045
Mof_C 	C 	0.8134	0.266	0.25	0.559
Mof_C 	C 	0.8254	0.3045	0.25	-0.131
Mof_N 	N 	0.843	0.3718	0.25	-0.174
Mof_C 	C 	0.734	0.5474	0.25	0.559
Mof_C 	C 	0.6955	0.5209	0.25	-0.131
Mof_N 	N 	0.6282	0.4712	0.25	-0.174
Mof_C 	C 	0.4526	0.1866	0.25	0.559
Mof_C 	C 	0.4791	0.1746	0.25	-0.131
Mof_N 	N 	0.5288	0.157	0.25	-0.174
Mof_C 	C 	0.1866	0.734	0.75	0.559
Mof_C 	C 	0.1746	0.6955	0.75	-0.131
Mof_N 	N 	0.157	0.6282	0.75	-0.173
Mof_C 	C 	0.266	0.4526	0.75	0.559
Mof_C 	C 	0.3045	0.4791	0.75	-0.131
Mof_N 	N 	0.3718	0.5288	0.75	-0.173
Mof_C 	C 	0.5474	0.8134	0.75	0.559
Mof_C 	C 	0.5209	0.8254	0.75	-0.131
Mof_N 	N 	0.4712	0.843	0.75	-0.173
Mof_C 	C 	0.266	0.8134	0.75	0.559
Mof_C 	C 	0.3045	0.8254	0.75	-0.131
Mof_N 	N 	0.3718	0.843	0.75	-0.173
Mof_C 	C 	0.5474	0.734	0.75	0.559
Mof_C 	C 	0.5209	0.6955	0.75	-0.131
Mof_N 	N 	0.4712	0.6282	0.75	-0.173
Mof_C 	C 	0.1866	0.4526	0.75	0.559
Mof_C 	C 	0.1746	0.4791	0.75	-0.131
Mof_N 	N 	0.157	0.5288	0.75	-0.173
Mof_C 	C 	0.734	0.1866	0.25	0.559
Mof_C 	C 	0.6955	0.1746	0.25	-0.131
Mof_N 	N 	0.6282	0.157	0.25	-0.174
Mof_C 	C 	0.4526	0.266	0.25	0.559
Mof_C 	C 	0.4791	0.3045	0.25	-0.131
Mof_N 	N 	0.5288	0.3718	0.25	-0.174
Mof_C 	C 	0.8134	0.5474	0.25	0.559
Mof_C 	C 	0.8254	0.5209	0.25	-0.131
Mof_N 	N 	0.843	0.4712	0.25	-0.174
_end
