data_functionalizedCrystal
_audit_creation_method	'EQeq! by Chris Wilmer'
_symmetry_space_group_name_H-M	'P1'
_symmetry_Int_Tables_number	1
_symmetry_cell_setting	triclinic
loop_
_symmetry_equiv_pos_as_xyz
  x,y,z
_cell_length_a	34.791
_cell_length_b	10.29
_cell_length_c	13.669
_cell_angle_alpha	90
_cell_angle_beta	112.964
_cell_angle_gamma	90
loop_
_atom_site_label
_atom_site_type_symbol
_atom_site_fract_x
_atom_site_fract_y
_atom_site_fract_z
_atom_site_charge
Mof_Co	Co	0.09697	0.00608	0.47105	1.14
Mof_C 	C 	0.2993	0.9889	0.4238	0.091
Mof_O 	O 	0.4184	0.7066	0.5477	-0.4
Mof_N 	N 	0.0961	0.0138	0.2998	-0.188
Mof_O 	O 	0.0347	0.0521	0.4095	-0.662
Mof_N 	N 	0.0563	0.0115	0.2279	-0.209
Mof_N 	N 	0.056	0.0101	0.1331	-0.217
Mof_C 	C 	0.3782	0.7193	0.5089	0.286
Mof_O 	O 	0.3778	0.3174	0.4986	-0.42
Mof_N 	N 	0.0958	0.0047	0.1398	-0.197
Mof_O 	O 	0.3541	0.6255	0.4842	-0.397
Mof_C 	C 	0.3259	0.104	0.4539	-0.086
Mof_H 	H 	0.3141	0.1865	0.445	0.07
Mof_C 	C 	0.3841	0.9619	0.5106	0.018
Mof_H 	H 	0.413	0.9528	0.5408	0.05
Mof_C 	C 	0.3156	0.8721	0.4401	-0.086
Mof_H 	H 	0.2986	0.7989	0.4232	0.084
Mof_C 	C 	0.3668	0.0899	0.4938	-0.076
Mof_C 	C 	0.3616	0.8587	0.4858	-0.044
Mof_O 	O 	0.4341	0.1902	0.5658	-0.306
Mof_C 	C 	0.2524	0.0029	0.375	-0.051
Mof_C 	C 	0.2303	0.937	0.276	-0.015
Mof_H 	H 	0.2448	0.8944	0.2412	0.044
Mof_C 	C 	0.2297	0.066	0.4224	-0.043
Mof_H 	H 	0.2439	0.107	0.4871	0.043
Mof_C 	C 	0.1188	0.0137	0.2423	0.135
Mof_C 	C 	0.1657	0.0137	0.2904	-0.06
Mof_C 	C 	0.1868	0.071	0.3792	-0.027
Mof_H 	H 	0.1729	0.1154	0.4145	0.038
Mof_C 	C 	0.1876	0.939	0.2337	-0.007
Mof_H 	H 	0.1726	0.8954	0.1709	0.043
Mof_C 	C 	0.396	0.2027	0.525	0.313
Mof_Co	Co	0.59697	0.50608	0.47105	1.15
Mof_C 	C 	0.7993	0.4889	0.4238	-0
Mof_O 	O 	0.9184	0.2066	0.5477	-0.406
Mof_N 	N 	0.5961	0.5138	0.2998	-0.185
Mof_O 	O 	0.5347	0.5521	0.4095	-0.645
Mof_N 	N 	0.5563	0.5115	0.2279	-0.203
Mof_N 	N 	0.556	0.5101	0.1331	-0.208
Mof_C 	C 	0.8782	0.2193	0.5089	0.289
Mof_O 	O 	0.8778	0.8174	0.4986	-0.413
Mof_N 	N 	0.5958	0.5047	0.1398	-0.189
Mof_O 	O 	0.8541	0.1255	0.4842	-0.414
Mof_C 	C 	0.8259	0.604	0.4539	-0.026
Mof_H 	H 	0.8141	0.6865	0.445	0.052
Mof_C 	C 	0.8841	0.4619	0.5106	0.003
Mof_H 	H 	0.913	0.4528	0.5408	0.053
Mof_C 	C 	0.8156	0.3721	0.4401	-0.043
Mof_H 	H 	0.7986	0.2989	0.4232	0.062
Mof_C 	C 	0.8668	0.5899	0.4938	-0.07
Mof_C 	C 	0.8616	0.3587	0.4858	-0.057
Mof_O 	O 	0.9341	0.6902	0.5658	-0.286
Mof_C 	C 	0.7524	0.5029	0.375	0.041
Mof_C 	C 	0.7303	0.437	0.276	-0.082
Mof_H 	H 	0.7448	0.3944	0.2412	0.062
Mof_C 	C 	0.7297	0.566	0.4224	-0.091
Mof_H 	H 	0.7439	0.607	0.4871	0.065
Mof_C 	C 	0.6188	0.5137	0.2423	0.141
Mof_C 	C 	0.6657	0.5137	0.2904	-0.051
Mof_C 	C 	0.6868	0.571	0.3792	0.003
Mof_H 	H 	0.6729	0.6154	0.4145	0.03
Mof_C 	C 	0.6876	0.439	0.2337	-0.01
Mof_H 	H 	0.6726	0.3954	0.1709	0.035
Mof_C 	C 	0.896	0.7027	0.525	0.314
Mof_Co	Co	0.90303	0.00608	0.02895	1.134
Mof_C 	C 	0.7007	0.9889	0.0762	0.047
Mof_O 	O 	0.5816	0.7066	0.9523	-0.409
Mof_N 	N 	0.9039	0.0138	0.2002	-0.189
Mof_O 	O 	0.9653	0.0521	0.0905	-0.633
Mof_N 	N 	0.9437	0.0115	0.2721	-0.195
Mof_N 	N 	0.944	0.0101	0.3669	-0.2
Mof_C 	C 	0.6218	0.7193	0.9911	0.339
Mof_O 	O 	0.6222	0.3174	0.0014	-0.447
Mof_N 	N 	0.9042	0.0047	0.3602	-0.193
Mof_O 	O 	0.6459	0.6255	0.0158	-0.423
Mof_C 	C 	0.6741	0.104	0.0461	-0.027
Mof_H 	H 	0.6859	0.1865	0.055	0.047
Mof_C 	C 	0.6159	0.9619	0.9894	0.124
Mof_H 	H 	0.587	0.9528	0.9592	0.017
Mof_C 	C 	0.6844	0.8721	0.0599	-0.034
Mof_H 	H 	0.7014	0.7989	0.0768	0.064
Mof_C 	C 	0.6332	0.0899	0.0062	-0.164
Mof_C 	C 	0.6384	0.8587	0.0142	-0.127
Mof_O 	O 	0.5659	0.1902	0.9342	-0.317
Mof_C 	C 	0.7476	0.0029	0.125	-0.033
Mof_C 	C 	0.7697	0.937	0.224	-0.028
Mof_H 	H 	0.7552	0.8944	0.2588	0.049
Mof_C 	C 	0.7703	0.066	0.0776	-0.06
Mof_H 	H 	0.7561	0.107	0.0129	0.043
Mof_C 	C 	0.8812	0.0137	0.2577	0.139
Mof_C 	C 	0.8343	0.0137	0.2096	-0.068
Mof_C 	C 	0.8132	0.071	0.1208	-0.016
Mof_H 	H 	0.8271	0.1154	0.0855	0.029
Mof_C 	C 	0.8124	0.939	0.2663	0.002
Mof_H 	H 	0.8274	0.8954	0.3291	0.04
Mof_C 	C 	0.604	0.2027	0.975	0.372
Mof_Co	Co	0.40303	0.50608	0.02895	1.143
Mof_C 	C 	0.2007	0.4889	0.0762	-0.053
Mof_O 	O 	0.0816	0.2066	0.9523	-0.429
Mof_N 	N 	0.4039	0.5138	0.2002	-0.187
Mof_O 	O 	0.4653	0.5521	0.0905	-0.649
Mof_N 	N 	0.4437	0.5115	0.2721	-0.203
Mof_N 	N 	0.444	0.5101	0.3669	-0.205
Mof_C 	C 	0.1218	0.2193	0.9911	0.352
Mof_O 	O 	0.1222	0.8174	0.0014	-0.437
Mof_N 	N 	0.4042	0.5047	0.3602	-0.186
Mof_O 	O 	0.1459	0.1255	0.0158	-0.444
Mof_C 	C 	0.1741	0.604	0.0461	0.04
Mof_H 	H 	0.1859	0.6865	0.055	0.027
Mof_C 	C 	0.1159	0.4619	0.9894	0.122
Mof_H 	H 	0.087	0.4528	0.9592	0.006
Mof_C 	C 	0.1844	0.3721	0.0599	0.019
Mof_H 	H 	0.2014	0.2989	0.0768	0.038
Mof_C 	C 	0.1332	0.5899	0.0062	-0.166
Mof_C 	C 	0.1384	0.3587	0.0142	-0.157
Mof_O 	O 	0.0659	0.6902	0.9342	-0.317
Mof_C 	C 	0.2476	0.5029	0.125	0.066
Mof_C 	C 	0.2697	0.437	0.224	-0.1
Mof_H 	H 	0.2552	0.3944	0.2588	0.069
Mof_C 	C 	0.2703	0.566	0.0776	-0.113
Mof_H 	H 	0.2561	0.607	0.0129	0.067
Mof_C 	C 	0.3812	0.5137	0.2577	0.144
Mof_C 	C 	0.3343	0.5137	0.2096	-0.063
Mof_C 	C 	0.3132	0.571	0.1208	0.018
Mof_H 	H 	0.3271	0.6154	0.0855	0.02
Mof_C 	C 	0.3124	0.439	0.2663	0.002
Mof_H 	H 	0.3274	0.3954	0.3291	0.031
Mof_C 	C 	0.104	0.7027	0.975	0.37
Mof_Co	Co	0.90303	0.99392	0.52895	1.163
Mof_C 	C 	0.7007	0.0111	0.5762	-0.088
Mof_O 	O 	0.5816	0.2934	0.4523	-0.409
Mof_N 	N 	0.9039	0.9862	0.7002	-0.18
Mof_O 	O 	0.9653	0.9479	0.5905	-0.609
Mof_N 	N 	0.9437	0.9885	0.7721	-0.188
Mof_N 	N 	0.944	0.9899	0.8669	-0.183
Mof_C 	C 	0.6218	0.2807	0.4911	0.291
Mof_O 	O 	0.6222	0.6826	0.5014	-0.42
Mof_N 	N 	0.9042	0.9953	0.8602	-0.174
Mof_O 	O 	0.6459	0.3745	0.5158	-0.401
Mof_C 	C 	0.6741	0.896	0.5461	0.036
Mof_H 	H 	0.6859	0.8135	0.555	0.032
Mof_C 	C 	0.6159	0.0381	0.4894	-0.008
Mof_H 	H 	0.587	0.0472	0.4592	0.044
Mof_C 	C 	0.6844	0.1279	0.5599	-0
Mof_H 	H 	0.7014	0.2011	0.5768	0.047
Mof_C 	C 	0.6332	0.9101	0.5062	-0.074
Mof_C 	C 	0.6384	0.1413	0.5142	-0.073
Mof_O 	O 	0.5659	0.8098	0.4342	-0.295
Mof_C 	C 	0.7476	0.9971	0.625	0.131
Mof_C 	C 	0.7697	0.063	0.724	-0.146
Mof_H 	H 	0.7552	0.1056	0.7588	0.085
Mof_C 	C 	0.7703	0.934	0.5776	-0.138
Mof_H 	H 	0.7561	0.893	0.5129	0.085
Mof_C 	C 	0.8812	0.9863	0.7577	0.149
Mof_C 	C 	0.8343	0.9863	0.7096	-0.045
Mof_C 	C 	0.8132	0.929	0.6208	0.033
Mof_H 	H 	0.8271	0.8846	0.5855	0.022
Mof_C 	C 	0.8124	0.061	0.7663	-0.007
Mof_H 	H 	0.8274	0.1046	0.8291	0.03
Mof_C 	C 	0.604	0.7973	0.475	0.321
Mof_Co	Co	0.40303	0.49392	0.52895	1.151
Mof_C 	C 	0.2007	0.5111	0.5762	-0.002
Mof_O 	O 	0.0816	0.7934	0.4523	-0.399
Mof_N 	N 	0.4039	0.4862	0.7002	-0.185
Mof_O 	O 	0.4653	0.4479	0.5905	-0.645
Mof_N 	N 	0.4437	0.4885	0.7721	-0.201
Mof_N 	N 	0.444	0.4899	0.8669	-0.201
Mof_C 	C 	0.1218	0.7807	0.4911	0.287
Mof_O 	O 	0.1222	0.1826	0.5014	-0.426
Mof_N 	N 	0.4042	0.4953	0.8602	-0.182
Mof_O 	O 	0.1459	0.8745	0.5158	-0.384
Mof_C 	C 	0.1741	0.396	0.5461	-0.021
Mof_H 	H 	0.1859	0.3135	0.555	0.049
Mof_C 	C 	0.1159	0.5381	0.4894	0.007
Mof_H 	H 	0.087	0.5472	0.4592	0.043
Mof_C 	C 	0.1844	0.6279	0.5599	-0.041
Mof_H 	H 	0.2014	0.7011	0.5768	0.068
Mof_C 	C 	0.1332	0.4101	0.5062	-0.08
Mof_C 	C 	0.1384	0.6413	0.5142	-0.059
Mof_O 	O 	0.0659	0.3098	0.4342	-0.311
Mof_C 	C 	0.2476	0.4971	0.625	0.043
Mof_C 	C 	0.2697	0.563	0.724	-0.082
Mof_H 	H 	0.2552	0.6056	0.7588	0.067
Mof_C 	C 	0.2703	0.434	0.5776	-0.092
Mof_H 	H 	0.2561	0.393	0.5129	0.064
Mof_C 	C 	0.3812	0.4863	0.7577	0.142
Mof_C 	C 	0.3343	0.4863	0.7096	-0.051
Mof_C 	C 	0.3132	0.429	0.6208	0.004
Mof_H 	H 	0.3271	0.3846	0.5855	0.029
Mof_C 	C 	0.3124	0.561	0.7663	-0.007
Mof_H 	H 	0.3274	0.6046	0.8291	0.037
Mof_C 	C 	0.104	0.2973	0.475	0.319
Mof_Co	Co	0.09697	0.99392	0.97105	1.168
Mof_C 	C 	0.2993	0.0111	0.9238	-0.028
Mof_O 	O 	0.4184	0.2934	0.0477	-0.399
Mof_N 	N 	0.0961	0.9862	0.7998	-0.18
Mof_O 	O 	0.0347	0.9479	0.9095	-0.636
Mof_N 	N 	0.0563	0.9885	0.7279	-0.202
Mof_N 	N 	0.056	0.9899	0.6331	-0.2
Mof_C 	C 	0.3782	0.2807	0.0089	0.227
Mof_O 	O 	0.3778	0.6826	0.9986	-0.395
Mof_N 	N 	0.0958	0.9953	0.6398	-0.177
Mof_O 	O 	0.3541	0.3745	0.9842	-0.371
Mof_C 	C 	0.3259	0.896	0.9539	-0.036
Mof_H 	H 	0.3141	0.8135	0.945	0.059
Mof_C 	C 	0.3841	0.0381	0.0106	-0.135
Mof_H 	H 	0.413	0.0472	0.0408	0.083
Mof_C 	C 	0.3156	0.1279	0.9401	-0.067
Mof_H 	H 	0.2986	0.2011	0.9232	0.073
Mof_C 	C 	0.3668	0.9101	0.9938	0.021
Mof_C 	C 	0.3616	0.1413	0.9858	0.031
Mof_O 	O 	0.4341	0.8098	0.0658	-0.283
Mof_C 	C 	0.2524	0.9971	0.875	0.1
Mof_C 	C 	0.2303	0.063	0.776	-0.123
Mof_H 	H 	0.2448	0.1056	0.7412	0.075
Mof_C 	C 	0.2297	0.934	0.9224	-0.111
Mof_H 	H 	0.2439	0.893	0.9871	0.08
Mof_C 	C 	0.1188	0.9863	0.7423	0.143
Mof_C 	C 	0.1657	0.9863	0.7904	-0.03
Mof_C 	C 	0.1868	0.929	0.8792	0.014
Mof_H 	H 	0.1729	0.8846	0.9145	0.033
Mof_C 	C 	0.1876	0.061	0.7337	-0.024
Mof_H 	H 	0.1726	0.1046	0.6709	0.035
Mof_C 	C 	0.396	0.7973	0.025	0.264
Mof_Co	Co	0.59697	0.49392	0.97105	1.158
Mof_C 	C 	0.7993	0.5111	0.9238	0.048
Mof_O 	O 	0.9184	0.7934	0.0477	-0.376
Mof_N 	N 	0.5961	0.4862	0.7998	-0.183
Mof_O 	O 	0.5347	0.4479	0.9095	-0.639
Mof_N 	N 	0.5563	0.4885	0.7279	-0.202
Mof_N 	N 	0.556	0.4899	0.6331	-0.205
Mof_C 	C 	0.8782	0.7807	0.0089	0.235
Mof_O 	O 	0.8778	0.1826	0.9986	-0.397
Mof_N 	N 	0.5958	0.4953	0.6398	-0.185
Mof_O 	O 	0.8541	0.8745	0.9842	-0.36
Mof_C 	C 	0.8259	0.396	0.9539	-0.085
Mof_H 	H 	0.8141	0.3135	0.945	0.073
Mof_C 	C 	0.8841	0.5381	0.0106	-0.103
Mof_H 	H 	0.913	0.5472	0.0408	0.087
Mof_C 	C 	0.8156	0.6279	0.9401	-0.098
Mof_H 	H 	0.7986	0.7011	0.9232	0.089
Mof_C 	C 	0.8668	0.4101	0.9938	0.013
Mof_C 	C 	0.8616	0.6413	0.9858	0.031
Mof_O 	O 	0.9341	0.3098	0.0658	-0.279
Mof_C 	C 	0.7524	0.4971	0.875	0.02
Mof_C 	C 	0.7303	0.563	0.776	-0.066
Mof_H 	H 	0.7448	0.6056	0.7412	0.06
Mof_C 	C 	0.7297	0.434	0.9224	-0.071
Mof_H 	H 	0.7439	0.393	0.9871	0.062
Mof_C 	C 	0.6188	0.4863	0.7423	0.14
Mof_C 	C 	0.6657	0.4863	0.7904	-0.04
Mof_C 	C 	0.6868	0.429	0.8792	-0.011
Mof_H 	H 	0.6729	0.3846	0.9145	0.04
Mof_C 	C 	0.6876	0.561	0.7337	-0.018
Mof_H 	H 	0.6726	0.6046	0.6709	0.041
Mof_C 	C 	0.896	0.2973	0.025	0.261
Mof_Co	Co	6.30797e-18	0.0207	0.25	1.056
Mof_Co	Co	0.5	0.5207	0.25	1.076
Mof_Co	Co	1.53587e-33	0.9793	0.75	1.065
Mof_Co	Co	0.5	0.4793	0.75	1.078
Mof_Co	Co	1.26159e-17	0	0.5	1.041
Mof_Co	Co	0.5	0.5	0.5	1.071
Mof_Co	Co	-0	0	-0	1.035
Mof_Co	Co	0.5	0.5	-0	1.064
_end
