# CIF file generated by openbabel 3.1.0, see https://openbabel.org
data_I
_chemical_name_common 'image0'
_cell_length_a 16.7446
_cell_length_b 16.7446
_cell_length_c 15.1964
_cell_angle_alpha 90
_cell_angle_beta 90
_cell_angle_gamma 120
_space_group_name_H-M_alt 'P 1'
_space_group_name_Hall 'P 1'
loop_
    _symmetry_equiv_pos_as_xyz
    x,y,z
loop_
    _atom_site_label
    _atom_site_type_symbol
    _atom_site_fract_x
    _atom_site_fract_y
    _atom_site_fract_z
    _atom_site_occupancy
    O1       O        0.47800    0.82430    0.34600    1.000
    C1       C        0.41190    0.96380    0.46980    1.000
    N1       N        0.32120    0.93060    0.44300    1.000
    H1       H        0.29640    0.88650    0.40530    1.000
    H2       H        0.28990    0.95420    0.46410    1.000
    O2       O        0.17570    0.65370    0.34600    1.000
    C2       C        0.03620    0.44810    0.46980    1.000
    N2       N        0.06940    0.39060    0.44300    1.000
    H3       H        0.11350    0.40990    0.40530    1.000
    H4       H        0.04580    0.33570    0.46410    1.000
    O3       O        0.34630    0.52200    0.34600    1.000
    C3       C        0.55190    0.58810    0.46980    1.000
    N3       N        0.60940    0.67880    0.44300    1.000
    H5       H        0.59010    0.70360    0.40530    1.000
    H6       H        0.66430    0.71010    0.46410    1.000
    O4       O        0.52200    0.17570    0.84600    1.000
    C4       C        0.58810    0.03620    0.96980    1.000
    N4       N        0.67880    0.06940    0.94300    1.000
    H7       H        0.70360    0.11350    0.90530    1.000
    H8       H        0.71010    0.04580    0.96410    1.000
    O5       O        0.82430    0.34630    0.84600    1.000
    C5       C        0.96380    0.55190    0.96980    1.000
    N5       N        0.93060    0.60940    0.94300    1.000
    H9       H        0.88650    0.59010    0.90530    1.000
    H10      H        0.95420    0.66430    0.96410    1.000
    O6       O        0.65370    0.47800    0.84600    1.000
    C6       C        0.44810    0.41190    0.96980    1.000
    N6       N        0.39060    0.32120    0.94300    1.000
    H11      H        0.40990    0.29640    0.90530    1.000
    H12      H        0.33570    0.28990    0.96410    1.000
    O7       O        0.82430    0.47800    0.65400    1.000
    C7       C        0.96380    0.41190    0.53020    1.000
    N7       N        0.93060    0.32120    0.55700    1.000
    H13      H        0.88650    0.29640    0.59470    1.000
    H14      H        0.95420    0.28990    0.53590    1.000
    O8       O        0.65370    0.17570    0.65400    1.000
    C8       C        0.44810    0.03620    0.53020    1.000
    N8       N        0.39060    0.06940    0.55700    1.000
    H15      H        0.40990    0.11350    0.59470    1.000
    H16      H        0.33570    0.04580    0.53590    1.000
    O9       O        0.52200    0.34630    0.65400    1.000
    C9       C        0.58810    0.55190    0.53020    1.000
    N9       N        0.67880    0.60940    0.55700    1.000
    H17      H        0.70360    0.59010    0.59470    1.000
    H18      H        0.71010    0.66430    0.53590    1.000
    O10      O        0.17570    0.52200    0.15400    1.000
    C10      C        0.03620    0.58810    0.03020    1.000
    N10      N        0.06940    0.67880    0.05700    1.000
    H19      H        0.11350    0.70360    0.09470    1.000
    H20      H        0.04580    0.71010    0.03590    1.000
    O11      O        0.34630    0.82430    0.15400    1.000
    C11      C        0.55190    0.96380    0.03020    1.000
    N11      N        0.60940    0.93060    0.05700    1.000
    H21      H        0.59010    0.88650    0.09470    1.000
    H22      H        0.66430    0.95420    0.03590    1.000
    O12      O        0.47800    0.65370    0.15400    1.000
    C12      C        0.41190    0.44810    0.03020    1.000
    N12      N        0.32120    0.39060    0.05700    1.000
    H23      H        0.29640    0.40990    0.09470    1.000
    H24      H        0.28990    0.33570    0.03590    1.000
    O13      O        0.52200    0.17570    0.65400    1.000
    C13      C        0.58810    0.03620    0.53020    1.000
    N13      N        0.67880    0.06940    0.55700    1.000
    H25      H        0.70360    0.11350    0.59470    1.000
    H26      H        0.71010    0.04580    0.53590    1.000
    O14      O        0.82430    0.34630    0.65400    1.000
    C14      C        0.96380    0.55190    0.53020    1.000
    N14      N        0.93060    0.60940    0.55700    1.000
    H27      H        0.88650    0.59010    0.59470    1.000
    H28      H        0.95420    0.66430    0.53590    1.000
    O15      O        0.65370    0.47800    0.65400    1.000
    C15      C        0.44810    0.41190    0.53020    1.000
    N15      N        0.39060    0.32120    0.55700    1.000
    H29      H        0.40990    0.29640    0.59470    1.000
    H30      H        0.33570    0.28990    0.53590    1.000
    O16      O        0.47800    0.82430    0.15400    1.000
    C16      C        0.41190    0.96380    0.03020    1.000
    N16      N        0.32120    0.93060    0.05700    1.000
    H31      H        0.29640    0.88650    0.09470    1.000
    H32      H        0.28990    0.95420    0.03590    1.000
    O17      O        0.17570    0.65370    0.15400    1.000
    C17      C        0.03620    0.44810    0.03020    1.000
    N17      N        0.06940    0.39060    0.05700    1.000
    H33      H        0.11350    0.40990    0.09470    1.000
    H34      H        0.04580    0.33570    0.03590    1.000
    O18      O        0.34630    0.52200    0.15400    1.000
    C18      C        0.55190    0.58810    0.03020    1.000
    N18      N        0.60940    0.67880    0.05700    1.000
    H35      H        0.59010    0.70360    0.09470    1.000
    H36      H        0.66430    0.71010    0.03590    1.000
    O19      O        0.17570    0.52200    0.34600    1.000
    C19      C        0.03620    0.58810    0.46980    1.000
    N19      N        0.06940    0.67880    0.44300    1.000
    H37      H        0.11350    0.70360    0.40530    1.000
    H38      H        0.04580    0.71010    0.46410    1.000
    O20      O        0.34630    0.82430    0.34600    1.000
    C20      C        0.55190    0.96380    0.46980    1.000
    N20      N        0.60940    0.93060    0.44300    1.000
    H39      H        0.59010    0.88650    0.40530    1.000
    H40      H        0.66430    0.95420    0.46410    1.000
    O21      O        0.47800    0.65370    0.34600    1.000
    C21      C        0.41190    0.44810    0.46980    1.000
    N21      N        0.32120    0.39060    0.44300    1.000
    H41      H        0.29640    0.40990    0.40530    1.000
    H42      H        0.28990    0.33570    0.46410    1.000
    O22      O        0.82430    0.47800    0.84600    1.000
    C22      C        0.96380    0.41190    0.96980    1.000
    N22      N        0.93060    0.32120    0.94300    1.000
    H43      H        0.88650    0.29640    0.90530    1.000
    H44      H        0.95420    0.28990    0.96410    1.000
    O23      O        0.65370    0.17570    0.84600    1.000
    C23      C        0.44810    0.03620    0.96980    1.000
    N23      N        0.39060    0.06940    0.94300    1.000
    H45      H        0.40990    0.11350    0.90530    1.000
    H46      H        0.33570    0.04580    0.96410    1.000
    O24      O        0.52200    0.34630    0.84600    1.000
    C24      C        0.58810    0.55190    0.96980    1.000
    N24      N        0.67880    0.60940    0.94300    1.000
    H47      H        0.70360    0.59010    0.90530    1.000
    H48      H        0.71010    0.66430    0.96410    1.000
    Ni1      Ni       0.47055    0.73528    0.25000    1.000
    N25      N        0.61560    0.80780    0.25000    1.000
    C25      C        0.91030    0.95515    0.25000    1.000
    C26      C        0.80690    0.90345    0.25000    1.000
    Ni2      Ni       0.26472    0.73528    0.25000    1.000
    N26      N        0.19220    0.80780    0.25000    1.000
    C27      C        0.04485    0.95515    0.25000    1.000
    C28      C        0.09655    0.90345    0.25000    1.000
    Ni3      Ni       0.26472    0.52945    0.25000    1.000
    N27      N        0.19220    0.38440    0.25000    1.000
    C29      C        0.04485    0.08970    0.25000    1.000
    C30      C        0.09655    0.19310    0.25000    1.000
    Ni4      Ni       0.52945    0.26472    0.75000    1.000
    N28      N        0.38440    0.19220    0.75000    1.000
    C31      C        0.08970    0.04485    0.75000    1.000
    C32      C        0.19310    0.09655    0.75000    1.000
    Ni5      Ni       0.73528    0.26472    0.75000    1.000
    N29      N        0.80780    0.19220    0.75000    1.000
    C33      C        0.95515    0.04485    0.75000    1.000
    C34      C        0.90345    0.09655    0.75000    1.000
    Ni6      Ni       0.73528    0.47055    0.75000    1.000
    N30      N        0.80780    0.61560    0.75000    1.000
    C35      C        0.95515    0.91030    0.75000    1.000
    C36      C        0.90345    0.80690    0.75000    1.000
    O25      O        0.33333    0.66667    0.25000    1.000
    O26      O        0.66667    0.33333    0.75000    1.000
    C37      C        0.42655    0.85310    0.37130    1.000
    C38      C        0.46420    0.92840    0.43800    1.000
    C39      C        0.14690    0.57345    0.37130    1.000
    C40      C        0.07160    0.53580    0.43800    1.000
    C41      C        0.42655    0.57345    0.37130    1.000
    C42      C        0.46420    0.53580    0.43800    1.000
    C43      C        0.57345    0.14690    0.87130    1.000
    C44      C        0.53580    0.07160    0.93800    1.000
    C45      C        0.85310    0.42655    0.87130    1.000
    C46      C        0.92840    0.46420    0.93800    1.000
    C47      C        0.57345    0.42655    0.87130    1.000
    C48      C        0.53580    0.46420    0.93800    1.000
    C49      C        0.85310    0.42655    0.62870    1.000
    C50      C        0.92840    0.46420    0.56200    1.000
    C51      C        0.57345    0.14690    0.62870    1.000
    C52      C        0.53580    0.07160    0.56200    1.000
    C53      C        0.57345    0.42655    0.62870    1.000
    C54      C        0.53580    0.46420    0.56200    1.000
    C55      C        0.14690    0.57345    0.12870    1.000
    C56      C        0.07160    0.53580    0.06200    1.000
    C57      C        0.42655    0.85310    0.12870    1.000
    C58      C        0.46420    0.92840    0.06200    1.000
    C59      C        0.42655    0.57345    0.12870    1.000
    C60      C        0.46420    0.53580    0.06200    1.000
    N31      N        0.95320    0.04680    0.25000    1.000
    N32      N        0.95320    0.90640    0.25000    1.000
    N33      N        0.09360    0.04680    0.25000    1.000
    N34      N        0.04680    0.95320    0.75000    1.000
    N35      N        0.04680    0.09360    0.75000    1.000
    N36      N        0.90640    0.95320    0.75000    1.000
    C61      C        0.75910    0.94960    0.25000    1.000
    H49      H        0.79020    0.01370    0.25000    1.000
    C62      C        0.66450    0.90010    0.25000    1.000
    H50      H        0.63270    0.93240    0.25000    1.000
    C63      C        0.05040    0.80950    0.25000    1.000
    H51      H        0.98630    0.77650    0.25000    1.000
    C64      C        0.09990    0.76440    0.25000    1.000
    H52      H        0.06760    0.70030    0.25000    1.000
    C65      C        0.19050    0.24090    0.25000    1.000
    H53      H        0.22350    0.20980    0.25000    1.000
    C66      C        0.23560    0.33550    0.25000    1.000
    H54      H        0.29970    0.36730    0.25000    1.000
    C67      C        0.24090    0.05040    0.75000    1.000
    H55      H        0.20980    0.98630    0.75000    1.000
    C68      C        0.33550    0.09990    0.75000    1.000
    H56      H        0.36730    0.06760    0.75000    1.000
    C69      C        0.94960    0.19050    0.75000    1.000
    H57      H        0.01370    0.22350    0.75000    1.000
    C70      C        0.90010    0.23560    0.75000    1.000
    H58      H        0.93240    0.29970    0.75000    1.000
    C71      C        0.80950    0.75910    0.75000    1.000
    H59      H        0.77650    0.79020    0.75000    1.000
    C72      C        0.76440    0.66450    0.75000    1.000
    H60      H        0.70030    0.63270    0.75000    1.000
    C73      C        0.94960    0.75910    0.75000    1.000
    H61      H        0.01370    0.79020    0.75000    1.000
    C74      C        0.90010    0.66450    0.75000    1.000
    H62      H        0.93240    0.63270    0.75000    1.000
    C75      C        0.80950    0.05040    0.75000    1.000
    H63      H        0.77650    0.98630    0.75000    1.000
    C76      C        0.76440    0.09990    0.75000    1.000
    H64      H        0.70030    0.06760    0.75000    1.000
    C77      C        0.24090    0.19050    0.75000    1.000
    H65      H        0.20980    0.22350    0.75000    1.000
    C78      C        0.33550    0.23560    0.75000    1.000
    H66      H        0.36730    0.29970    0.75000    1.000
    C79      C        0.05040    0.24090    0.25000    1.000
    H67      H        0.98630    0.20980    0.25000    1.000
    C80      C        0.09990    0.33550    0.25000    1.000
    H68      H        0.06760    0.36730    0.25000    1.000
    C81      C        0.19050    0.94960    0.25000    1.000
    H69      H        0.22350    0.01370    0.25000    1.000
    C82      C        0.23560    0.90010    0.25000    1.000
    H70      H        0.29970    0.93240    0.25000    1.000
    C83      C        0.75910    0.80950    0.25000    1.000
    H71      H        0.79020    0.77650    0.25000    1.000
    C84      C        0.66450    0.76440    0.25000    1.000
    H72      H        0.63270    0.70030    0.25000    1.000
