data_functionalizedCrystal
_audit_creation_method	'EQeq! by Chris Wilmer'
_symmetry_space_group_name_H-M	'P1'
_symmetry_Int_Tables_number	1
_symmetry_cell_setting	triclinic
loop_
_symmetry_equiv_pos_as_xyz
  x,y,z
_cell_length_a	8.4747
_cell_length_b	8.9873
_cell_length_c	8.9873
_cell_angle_alpha	77.1537
_cell_angle_beta	61.8695
_cell_angle_gamma	61.8695
loop_
_atom_site_label
_atom_site_type_symbol
_atom_site_fract_x
_atom_site_fract_y
_atom_site_fract_z
_atom_site_charge
Mof_Zr	Zr	0.3277	0.5	0.5	3.202
Mof_Cd	Cd	0.57664	0	-0	0.335
Mof_Cd	Cd	0.0752	0	-0	0.304
Mof_C 	C 	0.5822	0.2288	0.2288	0.288
Mof_C 	C 	0.3643	0.2707	0.2707	0.196
Mof_C 	C 	0.0398	0.7712	0.7712	0.199
Mof_C 	C 	0.9057	0.7293	0.7293	0.306
Mof_C 	C 	0.346	0.7713	0.2287	0.329
Mof_C 	C 	0.523	0.7298	0.2702	0.181
Mof_C 	C 	0.346	0.2287	0.7713	0.329
Mof_C 	C 	0.523	0.2702	0.7298	0.181
Mof_O 	O 	0.7212	0.1218	0.1218	-0.274
Mof_O 	O 	0.3158	0.1982	0.1982	-0.221
Mof_O 	O 	0.2344	0.3848	0.3848	-0.521
Mof_O 	O 	0.5927	0.3139	0.3139	-0.583
Mof_O 	O 	0.9648	0.8782	0.8782	-0.093
Mof_O 	O 	0.7122	0.8018	0.8018	-0.137
Mof_O 	O 	0.004	0.6152	0.6152	-0.551
Mof_O 	O 	0.2205	0.6861	0.6861	-0.532
Mof_O 	O 	0.321	0.8785	0.1215	-0.23
Mof_O 	O 	0.648	0.8033	0.1967	-0.148
Mof_O 	O 	0.254	0.6864	0.3136	-0.601
Mof_O 	O 	0.5384	0.6136	0.3864	-0.49
Mof_O 	O 	0.321	0.1215	0.8785	-0.23
Mof_O 	O 	0.648	0.1967	0.8033	-0.148
Mof_O 	O 	0.254	0.3136	0.6864	-0.601
Mof_O 	O 	0.5384	0.3864	0.6136	-0.49
_end
