# CIF file generated by openbabel 3.1.0, see https://openbabel.org
data_I
_chemical_name_common 'HUHJAW_clean'
_cell_length_a 7.8724
_cell_length_b 9.2884
_cell_length_c 9.4607
_cell_angle_alpha 93.3608
_cell_angle_beta 114.586
_cell_angle_gamma 81.8999
_space_group_name_H-M_alt 'P 1'
_space_group_name_Hall 'P 1'
loop_
    _symmetry_equiv_pos_as_xyz
    x,y,z
loop_
    _atom_site_label
    _atom_site_type_symbol
    _atom_site_fract_x
    _atom_site_fract_y
    _atom_site_fract_z
    _atom_site_occupancy
    Cd1      Cd       0.00000    0.50000    0.50000    1.000
    Cd2      Cd       0.50000    0.50000    0.50000    1.000
    Cd3      Cd       0.50000    0.00000    0.00000    1.000
    H1       H        0.05680    0.22300    0.24880    1.000
    H2       H        0.94460    0.10260    0.14060    1.000
    H3       H        0.11440    0.07890    0.47000    1.000
    H4       H        0.01460    0.95690    0.35740    1.000
    H5       H        0.19200    0.77700    0.24880    1.000
    H6       H        0.19600    0.89740    0.14060    1.000
    H7       H        0.35560    0.92110    0.47000    1.000
    H8       H        0.34280    0.04310    0.35740    1.000
    H9       H        0.94320    0.77700    0.75120    1.000
    H10      H        0.05540    0.89740    0.85940    1.000
    H11      H        0.88560    0.92110    0.53000    1.000
    H12      H        0.98540    0.04310    0.64260    1.000
    H13      H        0.80800    0.22300    0.75120    1.000
    H14      H        0.80400    0.10260    0.85940    1.000
    H15      H        0.64440    0.07890    0.53000    1.000
    H16      H        0.65720    0.95690    0.64260    1.000
    C1       C        0.80680    0.21340    0.26280    1.000
    C2       C        0.97970    0.14790    0.24200    1.000
    C3       C        0.09130    0.03370    0.36980    1.000
    C4       C        0.45600    0.78660    0.26280    1.000
    C5       C        0.26230    0.85210    0.24200    1.000
    C6       C        0.27850    0.96630    0.36980    1.000
    C7       C        0.19320    0.78660    0.73720    1.000
    C8       C        0.02030    0.85210    0.75800    1.000
    C9       C        0.90870    0.96630    0.63020    1.000
    C10      C        0.54400    0.21340    0.73720    1.000
    C11      C        0.73770    0.14790    0.75800    1.000
    C12      C        0.72150    0.03370    0.63020    1.000
    N1       N        0.62270    0.33630    0.35320    1.000
    N2       N        0.52530    0.24520    0.25160    1.000
    N3       N        0.63870    0.16630    0.19300    1.000
    N4       N        0.80200    0.31960    0.36400    1.000
    N5       N        0.73050    0.66370    0.35320    1.000
    N6       N        0.72630    0.75480    0.25160    1.000
    N7       N        0.55430    0.83370    0.19300    1.000
    N8       N        0.56200    0.68040    0.36400    1.000
    N9       N        0.37730    0.66370    0.64680    1.000
    N10      N        0.47470    0.75480    0.74840    1.000
    N11      N        0.36130    0.83370    0.80700    1.000
    N12      N        0.19800    0.68040    0.63600    1.000
    N13      N        0.26950    0.33630    0.64680    1.000
    N14      N        0.27370    0.24520    0.74840    1.000
    N15      N        0.44570    0.16630    0.80700    1.000
    N16      N        0.43800    0.31960    0.63600    1.000
    Cl1      Cl       0.14903    0.50000    0.29806    1.000
    Cl2      Cl       0.85097    0.50000    0.70194    1.000
