# CIF file generated by openbabel 3.1.0, see https://openbabel.org
data_I
_chemical_name_common 'QAVYUJ_clean'
_cell_length_a 7.2918
_cell_length_b 9.34
_cell_length_c 14.129
_cell_angle_alpha 83.816
_cell_angle_beta 85.461
_cell_angle_gamma 72.646
_space_group_name_H-M_alt 'P 1'
_space_group_name_Hall 'P 1'
loop_
    _symmetry_equiv_pos_as_xyz
    x,y,z
loop_
    _atom_site_label
    _atom_site_type_symbol
    _atom_site_fract_x
    _atom_site_fract_y
    _atom_site_fract_z
    _atom_site_occupancy
    La1      La       0.50617    0.28555    0.59596    1.000
    La2      La       0.49383    0.71445    0.40404    1.000
    Ni1      Ni       0.50000    0.50000    0.00000    1.000
    H1       H        0.83730    0.53800    0.00390    1.000
    H2       H        0.70020    0.68590    0.00660    1.000
    H3       H        0.19360    0.82920    0.90210    1.000
    H4       H        0.21650    0.87780    0.73470    1.000
    H5       H        0.98950    0.44100    0.85890    1.000
    H6       H        0.91850    0.73690    0.62600    1.000
    H7       H        0.62430    0.85650    0.87190    1.000
    H8       H        0.16270    0.46200    0.99610    1.000
    H9       H        0.29980    0.31410    0.99340    1.000
    H10      H        0.80640    0.17080    0.09790    1.000
    H11      H        0.78350    0.12220    0.26530    1.000
    H12      H        0.01050    0.55900    0.14110    1.000
    H13      H        0.08150    0.26310    0.37400    1.000
    H14      H        0.37570    0.14350    0.12810    1.000
    C1       C        0.26440    0.76200    0.85930    1.000
    C2       C        0.39270    0.67010    0.72460    1.000
    C3       C        0.45070    0.56250    0.79950    1.000
    C4       C        0.58460    0.40510    0.81070    1.000
    C5       C        0.44410    0.68120    0.62110    1.000
    C6       C        0.12740    0.45750    0.67980    1.000
    C7       C        0.79590    0.64200    0.88100    1.000
    C8       C        0.93020    0.53580    0.82940    1.000
    C9       C        0.97620    0.57090    0.73380    1.000
    C10      C        0.88860    0.71310    0.68990    1.000
    C11      C        0.71140    0.78430    0.83710    1.000
    C12      C        0.75570    0.81980    0.74200    1.000
    C13      C        0.65930    0.97270    0.69340    1.000
    C14      C        0.73560    0.23800    0.14070    1.000
    C15      C        0.60730    0.32990    0.27540    1.000
    C16      C        0.54930    0.43750    0.20050    1.000
    C17      C        0.41540    0.59490    0.18930    1.000
    C18      C        0.55590    0.31880    0.37890    1.000
    C19      C        0.87260    0.54250    0.32020    1.000
    C20      C        0.20410    0.35800    0.11900    1.000
    C21      C        0.06980    0.46420    0.17060    1.000
    C22      C        0.02380    0.42910    0.26620    1.000
    C23      C        0.11140    0.28690    0.31010    1.000
    C24      C        0.28860    0.21570    0.16290    1.000
    C25      C        0.24430    0.18020    0.25800    1.000
    C26      C        0.34070    0.02730    0.30660    1.000
    N1       N        0.73430    0.60200    0.97560    1.000
    N2       N        0.36810    0.62300    0.88360    1.000
    N3       N        0.27460    0.79360    0.76500    1.000
    N4       N        0.26570    0.39800    0.02440    1.000
    N5       N        0.63190    0.37700    0.11640    1.000
    N6       N        0.72540    0.20640    0.23500    1.000
    O1       O        0.62640    0.35650    0.89610    1.000
    O2       O        0.64850    0.33430    0.73990    1.000
    O3       O        0.40460    0.80960    0.57820    1.000
    O4       O        0.52250    0.56300    0.57920    1.000
    O5       O        0.16170    0.48250    0.59240    1.000
    O6       O        0.22460    0.34030    0.72600    1.000
    O7       O        0.72120    0.01040    0.61160    1.000
    O8       O        0.51990    0.06090    0.73490    1.000
    O9       O        0.37360    0.64350    0.10390    1.000
    O10      O        0.35150    0.66570    0.26010    1.000
    O11      O        0.59540    0.19040    0.42180    1.000
    O12      O        0.47750    0.43700    0.42080    1.000
    O13      O        0.83830    0.51750    0.40760    1.000
    O14      O        0.77540    0.65970    0.27400    1.000
    O15      O        0.27880    0.98960    0.38840    1.000
    O16      O        0.48010    0.93910    0.26510    1.000
