data_functionalizedCrystal
_audit_creation_method	'EQeq! by Chris Wilmer'
_symmetry_space_group_name_H-M	'P1'
_symmetry_Int_Tables_number	1
_symmetry_cell_setting	triclinic
loop_
_symmetry_equiv_pos_as_xyz
  x,y,z
_cell_length_a	27.086
_cell_length_b	27.086
_cell_length_c	6.7052
_cell_angle_alpha	90
_cell_angle_beta	90
_cell_angle_gamma	90
loop_
_atom_site_label
_atom_site_type_symbol
_atom_site_fract_x
_atom_site_fract_y
_atom_site_fract_z
_atom_site_charge
Mof_C 	C 	0.49113	0.08374	0.8362	0.345
Mof_C 	C 	0.4877	0.13355	0.7389	-0.049
Mof_C 	C 	0.46563	0.13756	0.5545	-0.101
Mof_H 	H 	0.4528	0.1098	0.4917	0.083
Mof_C 	C 	0.46274	0.18349	0.4634	0.12
Mof_C 	C 	0.48291	0.22561	0.5513	-0.006
Mof_C 	C 	0.50385	0.22068	0.7359	-0.049
Mof_H 	H 	0.5166	0.2484	0.7996	0.061
Mof_C 	C 	0.50643	0.17522	0.8298	-0.017
Mof_H 	H 	0.5209	0.1728	0.9552	0.056
Mof_C 	C 	0.4124	0.15184	0.2032	-0.229
Mof_H 	H 	0.3985	0.162	0.0781	0.11
Mof_H 	H 	0.3863	0.1431	0.2935	0.106
Mof_H 	H 	0.4335	0.1238	0.1823	0.113
Mof_O 	O 	0.51076	0.08266	0.0048	-0.409
Mof_O 	O 	0.47496	0.04689	0.7455	-0.414
Mof_O 	O 	0.44024	0.19096	0.285	-0.16
Mof_C 	C 	0.00887	0.41626	0.8362	0.344
Mof_C 	C 	0.0123	0.36645	0.7389	-0.05
Mof_C 	C 	0.03437	0.36244	0.5545	-0.102
Mof_H 	H 	0.0472	0.3902	0.4917	0.082
Mof_C 	C 	0.03726	0.31651	0.4634	0.119
Mof_C 	C 	0.01709	0.27439	0.5513	-0.007
Mof_C 	C 	0.99615	0.27932	0.7359	-0.051
Mof_H 	H 	0.9834	0.2516	0.7996	0.06
Mof_C 	C 	0.99357	0.32478	0.8298	-0.018
Mof_H 	H 	0.9791	0.3272	0.9552	0.055
Mof_C 	C 	0.0876	0.34816	0.2032	-0.23
Mof_H 	H 	0.1015	0.338	0.0781	0.109
Mof_H 	H 	0.1137	0.3569	0.2935	0.106
Mof_H 	H 	0.0665	0.3762	0.1823	0.113
Mof_O 	O 	0.98924	0.41734	0.0048	-0.41
Mof_O 	O 	0.02504	0.45311	0.7455	-0.414
Mof_O 	O 	0.05976	0.30904	0.285	-0.16
Mof_C 	C 	0.41626	0.49113	0.8362	0.344
Mof_C 	C 	0.36645	0.4877	0.7389	-0.05
Mof_C 	C 	0.36244	0.46563	0.5545	-0.102
Mof_H 	H 	0.3902	0.4528	0.4917	0.082
Mof_C 	C 	0.31651	0.46274	0.4634	0.119
Mof_C 	C 	0.27439	0.48291	0.5513	-0.007
Mof_C 	C 	0.27932	0.50385	0.7359	-0.05
Mof_H 	H 	0.2516	0.5166	0.7996	0.06
Mof_C 	C 	0.32478	0.50643	0.8298	-0.018
Mof_H 	H 	0.3272	0.5209	0.9552	0.055
Mof_C 	C 	0.34816	0.4124	0.2032	-0.23
Mof_H 	H 	0.338	0.3985	0.0781	0.109
Mof_H 	H 	0.3569	0.3863	0.2935	0.106
Mof_H 	H 	0.3762	0.4335	0.1823	0.113
Mof_O 	O 	0.41734	0.51076	0.0048	-0.409
Mof_O 	O 	0.45311	0.47496	0.7455	-0.414
Mof_O 	O 	0.30904	0.44024	0.285	-0.16
Mof_C 	C 	0.08374	0.00887	0.8362	0.345
Mof_C 	C 	0.13355	0.0123	0.7389	-0.05
Mof_C 	C 	0.13756	0.03437	0.5545	-0.102
Mof_H 	H 	0.1098	0.0472	0.4917	0.082
Mof_C 	C 	0.18349	0.03726	0.4634	0.119
Mof_C 	C 	0.22561	0.01709	0.5513	-0.007
Mof_C 	C 	0.22068	0.99615	0.7359	-0.051
Mof_H 	H 	0.2484	0.9834	0.7996	0.06
Mof_C 	C 	0.17522	0.99357	0.8298	-0.018
Mof_H 	H 	0.1728	0.9791	0.9552	0.055
Mof_C 	C 	0.15184	0.0876	0.2032	-0.23
Mof_H 	H 	0.162	0.1015	0.0781	0.109
Mof_H 	H 	0.1431	0.1137	0.2935	0.106
Mof_H 	H 	0.1238	0.0665	0.1823	0.114
Mof_O 	O 	0.08266	0.98924	0.0048	-0.41
Mof_O 	O 	0.04689	0.02504	0.7455	-0.413
Mof_O 	O 	0.19096	0.05976	0.285	-0.16
Mof_C 	C 	0.00887	0.08374	0.1638	0.345
Mof_C 	C 	0.0123	0.13355	0.2611	-0.05
Mof_C 	C 	0.03437	0.13756	0.4455	-0.102
Mof_H 	H 	0.0472	0.1098	0.5083	0.082
Mof_C 	C 	0.03726	0.18349	0.5366	0.119
Mof_C 	C 	0.01709	0.22561	0.4487	-0.007
Mof_C 	C 	0.99615	0.22068	0.2641	-0.051
Mof_H 	H 	0.9834	0.2484	0.2004	0.06
Mof_C 	C 	0.99357	0.17522	0.1702	-0.018
Mof_H 	H 	0.9791	0.1728	0.0448	0.055
Mof_C 	C 	0.0876	0.15184	0.7968	-0.23
Mof_H 	H 	0.1015	0.162	0.9219	0.109
Mof_H 	H 	0.1137	0.1431	0.7065	0.106
Mof_H 	H 	0.0665	0.1238	0.8177	0.114
Mof_O 	O 	0.98924	0.08266	0.9952	-0.41
Mof_O 	O 	0.02504	0.04689	0.2545	-0.413
Mof_O 	O 	0.05976	0.19096	0.715	-0.16
Mof_C 	C 	0.49113	0.41626	0.1638	0.344
Mof_C 	C 	0.4877	0.36645	0.2611	-0.05
Mof_C 	C 	0.46563	0.36244	0.4455	-0.102
Mof_H 	H 	0.4528	0.3902	0.5083	0.082
Mof_C 	C 	0.46274	0.31651	0.5366	0.119
Mof_C 	C 	0.48291	0.27439	0.4487	-0.007
Mof_C 	C 	0.50385	0.27932	0.2641	-0.05
Mof_H 	H 	0.5166	0.2516	0.2004	0.06
Mof_C 	C 	0.50643	0.32478	0.1702	-0.018
Mof_H 	H 	0.5209	0.3272	0.0448	0.055
Mof_C 	C 	0.4124	0.34816	0.7968	-0.23
Mof_H 	H 	0.3985	0.338	0.9219	0.109
Mof_H 	H 	0.3863	0.3569	0.7065	0.106
Mof_H 	H 	0.4335	0.3762	0.8177	0.113
Mof_O 	O 	0.51076	0.41734	0.9952	-0.409
Mof_O 	O 	0.47496	0.45311	0.2545	-0.414
Mof_O 	O 	0.44024	0.30904	0.715	-0.16
Mof_C 	C 	0.08374	0.49113	0.1638	0.344
Mof_C 	C 	0.13355	0.4877	0.2611	-0.05
Mof_C 	C 	0.13756	0.46563	0.4455	-0.102
Mof_H 	H 	0.1098	0.4528	0.5083	0.082
Mof_C 	C 	0.18349	0.46274	0.5366	0.119
Mof_C 	C 	0.22561	0.48291	0.4487	-0.007
Mof_C 	C 	0.22068	0.50385	0.2641	-0.05
Mof_H 	H 	0.2484	0.5166	0.2004	0.06
Mof_C 	C 	0.17522	0.50643	0.1702	-0.018
Mof_H 	H 	0.1728	0.5209	0.0448	0.055
Mof_C 	C 	0.15184	0.4124	0.7968	-0.23
Mof_H 	H 	0.162	0.3985	0.9219	0.109
Mof_H 	H 	0.1431	0.3863	0.7065	0.106
Mof_H 	H 	0.1238	0.4335	0.8177	0.113
Mof_O 	O 	0.08266	0.51076	0.9952	-0.409
Mof_O 	O 	0.04689	0.47496	0.2545	-0.414
Mof_O 	O 	0.19096	0.44024	0.715	-0.16
Mof_C 	C 	0.41626	0.00887	0.1638	0.344
Mof_C 	C 	0.36645	0.0123	0.2611	-0.05
Mof_C 	C 	0.36244	0.03437	0.4455	-0.102
Mof_H 	H 	0.3902	0.0472	0.5083	0.082
Mof_C 	C 	0.31651	0.03726	0.5366	0.119
Mof_C 	C 	0.27439	0.01709	0.4487	-0.007
Mof_C 	C 	0.27932	0.99615	0.2641	-0.051
Mof_H 	H 	0.2516	0.9834	0.2004	0.06
Mof_C 	C 	0.32478	0.99357	0.1702	-0.018
Mof_H 	H 	0.3272	0.9791	0.0448	0.055
Mof_C 	C 	0.34816	0.0876	0.7968	-0.23
Mof_H 	H 	0.338	0.1015	0.9219	0.109
Mof_H 	H 	0.3569	0.1137	0.7065	0.106
Mof_H 	H 	0.3762	0.0665	0.8177	0.113
Mof_O 	O 	0.41734	0.98924	0.9952	-0.41
Mof_O 	O 	0.45311	0.02504	0.2545	-0.414
Mof_O 	O 	0.30904	0.05976	0.715	-0.16
Mof_C 	C 	0.50887	0.91626	0.1638	0.344
Mof_C 	C 	0.5123	0.86645	0.2611	-0.05
Mof_C 	C 	0.53437	0.86244	0.4455	-0.102
Mof_H 	H 	0.5472	0.8902	0.5083	0.082
Mof_C 	C 	0.53726	0.81651	0.5366	0.119
Mof_C 	C 	0.51709	0.77439	0.4487	-0.007
Mof_C 	C 	0.49615	0.77932	0.2641	-0.05
Mof_H 	H 	0.4834	0.7516	0.2004	0.06
Mof_C 	C 	0.49357	0.82478	0.1702	-0.018
Mof_H 	H 	0.4791	0.8272	0.0448	0.055
Mof_C 	C 	0.5876	0.84816	0.7968	-0.23
Mof_H 	H 	0.6015	0.838	0.9219	0.109
Mof_H 	H 	0.6137	0.8569	0.7065	0.106
Mof_H 	H 	0.5665	0.8762	0.8177	0.113
Mof_O 	O 	0.48924	0.91734	0.9952	-0.409
Mof_O 	O 	0.52504	0.95311	0.2545	-0.414
Mof_O 	O 	0.55976	0.80904	0.715	-0.16
Mof_C 	C 	0.99113	0.58374	0.1638	0.344
Mof_C 	C 	0.9877	0.63355	0.2611	-0.05
Mof_C 	C 	0.96563	0.63756	0.4455	-0.102
Mof_H 	H 	0.9528	0.6098	0.5083	0.082
Mof_C 	C 	0.96274	0.68349	0.5366	0.119
Mof_C 	C 	0.98291	0.72561	0.4487	-0.007
Mof_C 	C 	0.00385	0.72068	0.2641	-0.051
Mof_H 	H 	0.0166	0.7484	0.2004	0.06
Mof_C 	C 	0.00643	0.67522	0.1702	-0.018
Mof_H 	H 	0.0209	0.6728	0.0448	0.055
Mof_C 	C 	0.9124	0.65184	0.7968	-0.23
Mof_H 	H 	0.8985	0.662	0.9219	0.109
Mof_H 	H 	0.8863	0.6431	0.7065	0.106
Mof_H 	H 	0.9335	0.6238	0.8177	0.113
Mof_O 	O 	0.01076	0.58266	0.9952	-0.41
Mof_O 	O 	0.97496	0.54689	0.2545	-0.414
Mof_O 	O 	0.94024	0.69096	0.715	-0.16
Mof_C 	C 	0.58374	0.50887	0.1638	0.344
Mof_C 	C 	0.63355	0.5123	0.2611	-0.05
Mof_C 	C 	0.63756	0.53437	0.4455	-0.102
Mof_H 	H 	0.6098	0.5472	0.5083	0.082
Mof_C 	C 	0.68349	0.53726	0.5366	0.119
Mof_C 	C 	0.72561	0.51709	0.4487	-0.007
Mof_C 	C 	0.72068	0.49615	0.2641	-0.05
Mof_H 	H 	0.7484	0.4834	0.2004	0.06
Mof_C 	C 	0.67522	0.49357	0.1702	-0.018
Mof_H 	H 	0.6728	0.4791	0.0448	0.055
Mof_C 	C 	0.65184	0.5876	0.7968	-0.23
Mof_H 	H 	0.662	0.6015	0.9219	0.109
Mof_H 	H 	0.6431	0.6137	0.7065	0.106
Mof_H 	H 	0.6238	0.5665	0.8177	0.113
Mof_O 	O 	0.58266	0.48924	0.9952	-0.409
Mof_O 	O 	0.54689	0.52504	0.2545	-0.414
Mof_O 	O 	0.69096	0.55976	0.715	-0.16
Mof_C 	C 	0.91626	0.99113	0.1638	0.345
Mof_C 	C 	0.86645	0.9877	0.2611	-0.05
Mof_C 	C 	0.86244	0.96563	0.4455	-0.102
Mof_H 	H 	0.8902	0.9528	0.5083	0.082
Mof_C 	C 	0.81651	0.96274	0.5366	0.119
Mof_C 	C 	0.77439	0.98291	0.4487	-0.007
Mof_C 	C 	0.77932	0.00385	0.2641	-0.051
Mof_H 	H 	0.7516	0.0166	0.2004	0.06
Mof_C 	C 	0.82478	0.00643	0.1702	-0.018
Mof_H 	H 	0.8272	0.0209	0.0448	0.055
Mof_C 	C 	0.84816	0.9124	0.7968	-0.23
Mof_H 	H 	0.838	0.8985	0.9219	0.109
Mof_H 	H 	0.8569	0.8863	0.7065	0.106
Mof_H 	H 	0.8762	0.9335	0.8177	0.114
Mof_O 	O 	0.91734	0.01076	0.9952	-0.41
Mof_O 	O 	0.95311	0.97496	0.2545	-0.413
Mof_O 	O 	0.80904	0.94024	0.715	-0.16
Mof_C 	C 	0.99113	0.91626	0.8362	0.345
Mof_C 	C 	0.9877	0.86645	0.7389	-0.05
Mof_C 	C 	0.96563	0.86244	0.5545	-0.102
Mof_H 	H 	0.9528	0.8902	0.4917	0.082
Mof_C 	C 	0.96274	0.81651	0.4634	0.119
Mof_C 	C 	0.98291	0.77439	0.5513	-0.007
Mof_C 	C 	0.00385	0.77932	0.7359	-0.051
Mof_H 	H 	0.0166	0.7516	0.7996	0.06
Mof_C 	C 	0.00643	0.82478	0.8298	-0.018
Mof_H 	H 	0.0209	0.8272	0.9552	0.055
Mof_C 	C 	0.9124	0.84816	0.2032	-0.23
Mof_H 	H 	0.8985	0.838	0.0781	0.109
Mof_H 	H 	0.8863	0.8569	0.2935	0.106
Mof_H 	H 	0.9335	0.8762	0.1823	0.114
Mof_O 	O 	0.01076	0.91734	0.0048	-0.41
Mof_O 	O 	0.97496	0.95311	0.7455	-0.413
Mof_O 	O 	0.94024	0.80904	0.285	-0.16
Mof_C 	C 	0.50887	0.58374	0.8362	0.344
Mof_C 	C 	0.5123	0.63355	0.7389	-0.05
Mof_C 	C 	0.53437	0.63756	0.5545	-0.102
Mof_H 	H 	0.5472	0.6098	0.4917	0.082
Mof_C 	C 	0.53726	0.68349	0.4634	0.119
Mof_C 	C 	0.51709	0.72561	0.5513	-0.007
Mof_C 	C 	0.49615	0.72068	0.7359	-0.05
Mof_H 	H 	0.4834	0.7484	0.7996	0.06
Mof_C 	C 	0.49357	0.67522	0.8298	-0.018
Mof_H 	H 	0.4791	0.6728	0.9552	0.055
Mof_C 	C 	0.5876	0.65184	0.2032	-0.23
Mof_H 	H 	0.6015	0.662	0.0781	0.109
Mof_H 	H 	0.6137	0.6431	0.2935	0.106
Mof_H 	H 	0.5665	0.6238	0.1823	0.113
Mof_O 	O 	0.48924	0.58266	0.0048	-0.409
Mof_O 	O 	0.52504	0.54689	0.7455	-0.414
Mof_O 	O 	0.55976	0.69096	0.285	-0.16
Mof_C 	C 	0.91626	0.50887	0.8362	0.344
Mof_C 	C 	0.86645	0.5123	0.7389	-0.05
Mof_C 	C 	0.86244	0.53437	0.5545	-0.102
Mof_H 	H 	0.8902	0.5472	0.4917	0.082
Mof_C 	C 	0.81651	0.53726	0.4634	0.119
Mof_C 	C 	0.77439	0.51709	0.5513	-0.007
Mof_C 	C 	0.77932	0.49615	0.7359	-0.05
Mof_H 	H 	0.7516	0.4834	0.7996	0.06
Mof_C 	C 	0.82478	0.49357	0.8298	-0.018
Mof_H 	H 	0.8272	0.4791	0.9552	0.055
Mof_C 	C 	0.84816	0.5876	0.2032	-0.23
Mof_H 	H 	0.838	0.6015	0.0781	0.109
Mof_H 	H 	0.8569	0.6137	0.2935	0.106
Mof_H 	H 	0.8762	0.5665	0.1823	0.113
Mof_O 	O 	0.91734	0.48924	0.0048	-0.409
Mof_O 	O 	0.95311	0.52504	0.7455	-0.414
Mof_O 	O 	0.80904	0.55976	0.285	-0.16
Mof_C 	C 	0.58374	0.99113	0.8362	0.344
Mof_C 	C 	0.63355	0.9877	0.7389	-0.05
Mof_C 	C 	0.63756	0.96563	0.5545	-0.102
Mof_H 	H 	0.6098	0.9528	0.4917	0.082
Mof_C 	C 	0.68349	0.96274	0.4634	0.119
Mof_C 	C 	0.72561	0.98291	0.5513	-0.007
Mof_C 	C 	0.72068	0.00385	0.7359	-0.051
Mof_H 	H 	0.7484	0.0166	0.7996	0.06
Mof_C 	C 	0.67522	0.00643	0.8298	-0.018
Mof_H 	H 	0.6728	0.0209	0.9552	0.055
Mof_C 	C 	0.65184	0.9124	0.2032	-0.23
Mof_H 	H 	0.662	0.8985	0.0781	0.109
Mof_H 	H 	0.6431	0.8863	0.2935	0.106
Mof_H 	H 	0.6238	0.9335	0.1823	0.113
Mof_O 	O 	0.58266	0.01076	0.0048	-0.41
Mof_O 	O 	0.54689	0.97496	0.7455	-0.414
Mof_O 	O 	0.69096	0.94024	0.285	-0.16
Mof_Cu	Cu	0.52097	0.02097	0.15159	0.903
Mof_Cu	Cu	0.97903	0.47903	0.15159	0.903
Mof_Cu	Cu	0.47903	0.52097	0.15159	0.903
Mof_Cu	Cu	0.02097	0.97903	0.15159	0.903
Mof_Cu	Cu	0.97903	0.02097	0.84841	0.903
Mof_Cu	Cu	0.52097	0.47903	0.84841	0.903
Mof_Cu	Cu	0.02097	0.52097	0.84841	0.903
Mof_Cu	Cu	0.47903	0.97903	0.84841	0.903
_end
