# CIF file generated by openbabel 3.1.0, see https://openbabel.org
data_I
_chemical_name_common 'image0'
_cell_length_a 7.1395
_cell_length_b 14.678
_cell_length_c 15.014
_cell_angle_alpha 90
_cell_angle_beta 90
_cell_angle_gamma 90
_space_group_name_H-M_alt 'P 1'
_space_group_name_Hall 'P 1'
loop_
    _symmetry_equiv_pos_as_xyz
    x,y,z
loop_
    _atom_site_label
    _atom_site_type_symbol
    _atom_site_fract_x
    _atom_site_fract_y
    _atom_site_fract_z
    _atom_site_occupancy
    Ba1      Ba       0.92802    0.19409    0.43891    1.000
    O1       O        0.79430    0.26080    0.60272    1.000
    O2       O        0.05340    0.33141    0.55707    1.000
    O3       O        0.84440    0.61570    0.94260    1.000
    O4       O        0.68340    0.67530    0.83000    1.000
    C1       C        0.91720    0.32280    0.60950    1.000
    C2       C        0.78010    0.61400    0.86520    1.000
    C3       C        0.89830    0.48310    0.65620    1.000
    H1       H        0.92630    0.49820    0.59750    1.000
    C4       C        0.89580    0.39420    0.68080    1.000
    C5       C        0.85670    0.37010    0.77170    1.000
    C6       C        0.85420    0.27770    0.80200    1.000
    H2       H        0.86790    0.23060    0.76110    1.000
    C7       C        0.83210    0.25800    0.88910    1.000
    H3       H        0.83040    0.19750    0.90750    1.000
    C8       C        0.81180    0.32710    0.95190    1.000
    H4       H        0.79910    0.31230    0.01190    1.000
    C9       C        0.81030    0.41590    0.92640    1.000
    H5       H        0.79450    0.46110    0.96920    1.000
    C10      C        0.83240    0.44080    0.83560    1.000
    C11      C        0.82670    0.53420    0.80510    1.000
    C12      C        0.85930    0.55240    0.71750    1.000
    H6       H        0.85570    0.61250    0.69790    1.000
    Ba2      Ba       0.57198    0.80591    0.93891    1.000
    O5       O        0.70570    0.73920    0.10272    1.000
    O6       O        0.44660    0.66859    0.05707    1.000
    O7       O        0.65560    0.38430    0.44260    1.000
    O8       O        0.81660    0.32470    0.33000    1.000
    C13      C        0.58280    0.67720    0.10950    1.000
    C14      C        0.71990    0.38600    0.36520    1.000
    C15      C        0.60170    0.51690    0.15620    1.000
    H7       H        0.57370    0.50180    0.09750    1.000
    C16      C        0.60420    0.60580    0.18080    1.000
    C17      C        0.64330    0.62990    0.27170    1.000
    C18      C        0.64580    0.72230    0.30200    1.000
    H8       H        0.63210    0.76940    0.26110    1.000
    C19      C        0.66790    0.74200    0.38910    1.000
    H9       H        0.66960    0.80250    0.40750    1.000
    C20      C        0.68820    0.67290    0.45190    1.000
    H10      H        0.70090    0.68770    0.51190    1.000
    C21      C        0.68970    0.58410    0.42640    1.000
    H11      H        0.70550    0.53890    0.46920    1.000
    C22      C        0.66760    0.55920    0.33560    1.000
    C23      C        0.67330    0.46580    0.30510    1.000
    C24      C        0.64070    0.44760    0.21750    1.000
    H12      H        0.64430    0.38750    0.19790    1.000
    Ba3      Ba       0.07198    0.69409    0.06109    1.000
    O9       O        0.20570    0.76080    0.89728    1.000
    O10      O        0.94660    0.83141    0.94293    1.000
    O11      O        0.15560    0.11570    0.55740    1.000
    O12      O        0.31660    0.17530    0.67000    1.000
    C25      C        0.08280    0.82280    0.89050    1.000
    C26      C        0.21990    0.11400    0.63480    1.000
    C27      C        0.10170    0.98310    0.84380    1.000
    H13      H        0.07370    0.99820    0.90250    1.000
    C28      C        0.10420    0.89420    0.81920    1.000
    C29      C        0.14330    0.87010    0.72830    1.000
    C30      C        0.14580    0.77770    0.69800    1.000
    H14      H        0.13210    0.73060    0.73890    1.000
    C31      C        0.16790    0.75800    0.61090    1.000
    H15      H        0.16960    0.69750    0.59250    1.000
    C32      C        0.18820    0.82710    0.54810    1.000
    H16      H        0.20090    0.81230    0.48810    1.000
    C33      C        0.18970    0.91590    0.57360    1.000
    H17      H        0.20550    0.96110    0.53080    1.000
    C34      C        0.16760    0.94080    0.66440    1.000
    C35      C        0.17330    0.03420    0.69490    1.000
    C36      C        0.14070    0.05240    0.78250    1.000
    H18      H        0.14430    0.11250    0.80210    1.000
    Ba4      Ba       0.42802    0.30591    0.56109    1.000
    O13      O        0.29430    0.23920    0.39728    1.000
    O14      O        0.55340    0.16859    0.44293    1.000
    O15      O        0.34440    0.88430    0.05740    1.000
    O16      O        0.18340    0.82470    0.17000    1.000
    C37      C        0.41720    0.17720    0.39050    1.000
    C38      C        0.28010    0.88600    0.13480    1.000
    C39      C        0.39830    0.01690    0.34380    1.000
    H19      H        0.42630    0.00180    0.40250    1.000
    C40      C        0.39580    0.10580    0.31920    1.000
    C41      C        0.35670    0.12990    0.22830    1.000
    C42      C        0.35420    0.22230    0.19800    1.000
    H20      H        0.36790    0.26940    0.23890    1.000
    C43      C        0.33210    0.24200    0.11090    1.000
    H21      H        0.33040    0.30250    0.09250    1.000
    C44      C        0.31180    0.17290    0.04810    1.000
    H22      H        0.29910    0.18770    0.98810    1.000
    C45      C        0.31030    0.08410    0.07360    1.000
    H23      H        0.29450    0.03890    0.03080    1.000
    C46      C        0.33240    0.05920    0.16440    1.000
    C47      C        0.32670    0.96580    0.19490    1.000
    C48      C        0.35930    0.94760    0.28250    1.000
    H24      H        0.35570    0.88750    0.30210    1.000
