# CIF file generated by openbabel 3.1.0, see https://openbabel.org
data_I
_chemical_name_common 'KAYBUJ_clean'
_cell_length_a 6.4275
_cell_length_b 10.9764
_cell_length_c 16.387
_cell_angle_alpha 90
_cell_angle_beta 90
_cell_angle_gamma 99.182
_space_group_name_H-M_alt 'P 1'
_space_group_name_Hall 'P 1'
loop_
    _symmetry_equiv_pos_as_xyz
    x,y,z
loop_
    _atom_site_label
    _atom_site_type_symbol
    _atom_site_fract_x
    _atom_site_fract_y
    _atom_site_fract_z
    _atom_site_occupancy
    Ca1      Ca       0.78221    0.58060    0.95785    1.000
    Ca2      Ca       0.71779    0.91940    0.45785    1.000
    Ca3      Ca       0.21779    0.41940    0.04215    1.000
    Ca4      Ca       0.28221    0.08060    0.54215    1.000
    H1       H        0.22230    0.75560    0.76210    1.000
    H2       H        0.80410    0.86340    0.67540    1.000
    H3       H        0.92750    0.76800    0.78520    1.000
    H4       H        0.27770    0.74440    0.26210    1.000
    H5       H        0.69590    0.63660    0.17540    1.000
    H6       H        0.57250    0.73200    0.28520    1.000
    H7       H        0.77770    0.24440    0.23790    1.000
    H8       H        0.19590    0.13660    0.32460    1.000
    H9       H        0.07250    0.23200    0.21480    1.000
    H10      H        0.72230    0.25560    0.73790    1.000
    H11      H        0.30410    0.36340    0.82460    1.000
    H12      H        0.42750    0.26800    0.71480    1.000
    C1       C        0.45150    0.70000    0.82904    1.000
    C2       C        0.39800    0.88480    0.63807    1.000
    C3       C        0.36740    0.75790    0.76517    1.000
    C4       C        0.71080    0.82270    0.71362    1.000
    C5       C        0.49600    0.81930    0.70571    1.000
    C6       C        0.31010    0.63560    0.89571    1.000
    C7       C        0.78260    0.76400    0.77979    1.000
    C8       C        0.04850    0.80000    0.32904    1.000
    C9       C        0.10200    0.61520    0.13807    1.000
    C10      C        0.13260    0.74210    0.26517    1.000
    C11      C        0.78920    0.67730    0.21362    1.000
    C12      C        0.00400    0.68070    0.20571    1.000
    C13      C        0.18990    0.86440    0.39571    1.000
    C14      C        0.71740    0.73600    0.27979    1.000
    C15      C        0.54850    0.30000    0.17096    1.000
    C16      C        0.60200    0.11520    0.36193    1.000
    C17      C        0.63260    0.24210    0.23483    1.000
    C18      C        0.28920    0.17730    0.28638    1.000
    C19      C        0.50400    0.18070    0.29429    1.000
    C20      C        0.68990    0.36440    0.10429    1.000
    C21      C        0.21740    0.23600    0.22021    1.000
    C22      C        0.95150    0.20000    0.67096    1.000
    C23      C        0.89800    0.38480    0.86193    1.000
    C24      C        0.86740    0.25790    0.73483    1.000
    C25      C        0.21080    0.32270    0.78638    1.000
    C26      C        0.99600    0.31930    0.79429    1.000
    C27      C        0.81010    0.13560    0.60429    1.000
    C28      C        0.28260    0.26400    0.72021    1.000
    N1       N        0.65960    0.70130    0.83710    1.000
    N2       N        0.84040    0.79870    0.33710    1.000
    N3       N        0.34040    0.29870    0.16290    1.000
    N4       N        0.15960    0.20130    0.66290    1.000
    O1       O        0.39470    0.57167    0.94634    1.000
    O2       O        0.49050    0.89932    0.57063    1.000
    O3       O        0.23080    0.92408    0.65317    1.000
    O4       O        0.12390    0.65404    0.89496    1.000
    O5       O        0.10530    0.92833    0.44634    1.000
    O6       O        0.00950    0.60068    0.07063    1.000
    O7       O        0.26920    0.57592    0.15317    1.000
    O8       O        0.37610    0.84596    0.39496    1.000
    O9       O        0.60530    0.42833    0.05366    1.000
    O10      O        0.50950    0.10068    0.42937    1.000
    O11      O        0.76920    0.07592    0.34683    1.000
    O12      O        0.87610    0.34596    0.10504    1.000
    O13      O        0.89470    0.07167    0.55366    1.000
    O14      O        0.99050    0.39932    0.92937    1.000
    O15      O        0.73080    0.42408    0.84683    1.000
    O16      O        0.62390    0.15404    0.60504    1.000
