# CIF file generated by openbabel 3.1.0, see https://openbabel.org
data_I
_chemical_name_common 'image0'
_cell_length_a 10.3325
_cell_length_b 14.6405
_cell_length_c 9.5112
_cell_angle_alpha 90
_cell_angle_beta 90
_cell_angle_gamma 90
_space_group_name_H-M_alt 'P 1'
_space_group_name_Hall 'P 1'
loop_
    _symmetry_equiv_pos_as_xyz
    x,y,z
loop_
    _atom_site_label
    _atom_site_type_symbol
    _atom_site_fract_x
    _atom_site_fract_y
    _atom_site_fract_z
    _atom_site_occupancy
    P1       P        0.33900    0.77000    0.15700    1.000
    P2       P        0.14600    0.61200    0.63200    1.000
    P3       P        0.34300    0.41500    0.36900    1.000
    Al1      Al       0.35400    0.60800    0.38700    1.000
    Al2      Al       0.36600    0.89600    0.38300    1.000
    Al3      Al       0.65100    0.75100    0.13900    1.000
    O1       O        0.33800    0.69600    0.27200    1.000
    O2       O        0.31100    0.86400    0.21800    1.000
    O3       O        0.48200    0.75800    0.08600    1.000
    O4       O        0.24900    0.76400    0.01800    1.000
    O5       O        0.18200    0.63700    0.79000    1.000
    O6       O        0.13000    0.51200    0.61900    1.000
    O7       O        0.01500    0.66800    0.58800    1.000
    O8       O        0.25600    0.64300    0.53400    1.000
    O9       O        0.30000    0.50600    0.31700    1.000
    O10      O        0.33700    0.34900    0.24200    1.000
    O11      O        0.48200    0.41200    0.42500    1.000
    O12      O        0.25400    0.38100    0.48800    1.000
    P4       P        0.66100    0.23000    0.15700    1.000
    P5       P        0.85400    0.38800    0.63200    1.000
    P6       P        0.65700    0.58500    0.36900    1.000
    Al4      Al       0.64600    0.39200    0.38700    1.000
    Al5      Al       0.63400    0.10400    0.38300    1.000
    Al6      Al       0.34900    0.24900    0.13900    1.000
    O13      O        0.66200    0.30400    0.27200    1.000
    O14      O        0.68900    0.13600    0.21800    1.000
    O15      O        0.51800    0.24200    0.08600    1.000
    O16      O        0.75100    0.23600    0.01800    1.000
    O17      O        0.81800    0.36300    0.79000    1.000
    O18      O        0.87000    0.48800    0.61900    1.000
    O19      O        0.98500    0.33200    0.58800    1.000
    O20      O        0.74400    0.35700    0.53400    1.000
    O21      O        0.70000    0.49400    0.31700    1.000
    O22      O        0.66300    0.65100    0.24200    1.000
    O23      O        0.51800    0.58800    0.42500    1.000
    O24      O        0.74600    0.61900    0.48800    1.000
    P7       P        0.16100    0.27000    0.84300    1.000
    P8       P        0.35400    0.11200    0.36800    1.000
    P9       P        0.15700    0.91500    0.63100    1.000
    Al7      Al       0.14600    0.10800    0.61300    1.000
    Al8      Al       0.13400    0.39600    0.61700    1.000
    Al9      Al       0.84900    0.25100    0.86100    1.000
    O25      O        0.16200    0.19600    0.72800    1.000
    O26      O        0.18900    0.36400    0.78200    1.000
    O27      O        0.01800    0.25800    0.91400    1.000
    O28      O        0.25100    0.26400    0.98200    1.000
    O29      O        0.31800    0.13700    0.21000    1.000
    O30      O        0.37000    0.01200    0.38100    1.000
    O31      O        0.48500    0.16800    0.41200    1.000
    O32      O        0.24400    0.14300    0.46600    1.000
    O33      O        0.20000    0.00600    0.68300    1.000
    O34      O        0.16300    0.84900    0.75800    1.000
    O35      O        0.01800    0.91200    0.57500    1.000
    O36      O        0.24600    0.88100    0.51200    1.000
    P10      P        0.83900    0.73000    0.84300    1.000
    P11      P        0.64600    0.88800    0.36800    1.000
    P12      P        0.84300    0.08500    0.63100    1.000
    Al10     Al       0.85400    0.89200    0.61300    1.000
    Al11     Al       0.86600    0.60400    0.61700    1.000
    Al12     Al       0.15100    0.74900    0.86100    1.000
    O37      O        0.83800    0.80400    0.72800    1.000
    O38      O        0.81100    0.63600    0.78200    1.000
    O39      O        0.98200    0.74200    0.91400    1.000
    O40      O        0.74900    0.73600    0.98200    1.000
    O41      O        0.68200    0.86300    0.21000    1.000
    O42      O        0.63000    0.98800    0.38100    1.000
    O43      O        0.51500    0.83200    0.41200    1.000
    O44      O        0.75600    0.85700    0.46600    1.000
    O45      O        0.80000    0.99400    0.68300    1.000
    O46      O        0.83700    0.15100    0.75800    1.000
    O47      O        0.98200    0.08800    0.57500    1.000
    O48      O        0.75400    0.11900    0.51200    1.000
