data_functionalizedCrystal
_audit_creation_method	'EQeq! by Chris Wilmer'
_symmetry_space_group_name_H-M	'P1'
_symmetry_Int_Tables_number	1
_symmetry_cell_setting	triclinic
loop_
_symmetry_equiv_pos_as_xyz
  x,y,z
_cell_length_a	14.9596
_cell_length_b	16.8374
_cell_length_c	16.8374
_cell_angle_alpha	98.9184
_cell_angle_beta	94.3906
_cell_angle_gamma	94.3906
loop_
_atom_site_label
_atom_site_type_symbol
_atom_site_fract_x
_atom_site_fract_y
_atom_site_fract_z
_atom_site_charge
Mof_Ca	Ca	0.64061	0.89676	0.7448	1.185
Mof_Ca	Ca	0.58986	0.65285	0.67541	1.425
Mof_Ca	Ca	0.18194	0.37211	0.87117	1.168
Mof_Ca	Ca	0.85939	0.2552	0.10324	1.181
Mof_Ca	Ca	0.91014	0.32459	0.34715	1.424
Mof_Ca	Ca	0.31806	0.12883	0.62789	1.169
Mof_Ca	Ca	0.35939	0.10324	0.2552	1.185
Mof_Ca	Ca	0.41014	0.34715	0.32459	1.425
Mof_Ca	Ca	0.81806	0.62789	0.12883	1.168
Mof_Ca	Ca	0.14061	0.7448	0.89676	1.181
Mof_Ca	Ca	0.08986	0.67541	0.65285	1.424
Mof_Ca	Ca	0.68194	0.87117	0.37211	1.169
Mof_H 	H 	0.5238	0.3019	0.7311	0.047
Mof_H 	H 	0.7222	0.4722	0.716	0.039
Mof_H 	H 	0.7656	0.3015	0.8535	0.057
Mof_H 	H 	0.5584	0.1222	0.9284	0.112
Mof_H 	H 	0.6551	0.1203	0.9703	0.094
Mof_H 	H 	0.4194	0.4957	0.6015	0.096
Mof_H 	H 	0.3504	0.4217	0.6045	0.103
Mof_H 	H 	0.9717	0.5515	0.8559	0.068
Mof_H 	H 	0.9966	0.5576	0.7684	0.065
Mof_H 	H 	0.6077	0.6555	0.1081	0.004
Mof_H 	H 	0.4659	0.4556	0.1442	0.053
Mof_H 	H 	0.3626	0.5954	0.9934	0.039
Mof_H 	H 	0.4218	0.794	0.8634	0.115
Mof_H 	H 	0.5118	0.8216	0.9182	0.124
Mof_H 	H 	0.7584	0.4873	0.2635	0.11
Mof_H 	H 	0.6988	0.4223	0.2977	0.094
Mof_H 	H 	0.1657	0.391	0.1022	0.076
Mof_H 	H 	0.2222	0.3209	0.0673	0.075
Mof_H 	H 	0.6675	0.2292	0.927	0.106
Mof_H 	H 	0.4999	0.3648	0.5924	0.145
Mof_H 	H 	0.8556	0.5118	0.7616	0.102
Mof_H 	H 	0.4241	0.6746	0.9134	0.137
Mof_H 	H 	0.5904	0.4605	0.2395	0.108
Mof_H 	H 	0.2932	0.4609	0.1557	0.116
Mof_H 	H 	0.9762	0.2689	0.6981	0.047
Mof_H 	H 	0.7778	0.284	0.5278	0.039
Mof_H 	H 	0.7344	0.1465	0.6985	0.057
Mof_H 	H 	0.9416	0.0716	0.8778	0.113
Mof_H 	H 	0.8449	0.0297	0.8797	0.095
Mof_H 	H 	0.0806	0.3985	0.5043	0.097
Mof_H 	H 	0.1496	0.3955	0.5783	0.103
Mof_H 	H 	0.5283	0.1441	0.4485	0.068
Mof_H 	H 	0.5034	0.2316	0.4424	0.064
Mof_H 	H 	0.8923	0.8919	0.3445	0.005
Mof_H 	H 	0.0341	0.8558	0.5444	0.054
Mof_H 	H 	0.1374	0.0066	0.4046	0.045
Mof_H 	H 	0.0782	0.1366	0.206	0.112
Mof_H 	H 	0.9882	0.0818	0.1784	0.118
Mof_H 	H 	0.7416	0.7365	0.5127	0.11
Mof_H 	H 	0.8012	0.7023	0.5777	0.094
Mof_H 	H 	0.3343	0.8978	0.609	0.076
Mof_H 	H 	0.2778	0.9327	0.6791	0.074
Mof_H 	H 	0.8325	0.073	0.7708	0.106
Mof_H 	H 	0.0001	0.4076	0.6352	0.145
Mof_H 	H 	0.6444	0.2384	0.4882	0.101
Mof_H 	H 	0.0759	0.0866	0.3254	0.138
Mof_H 	H 	0.9096	0.7605	0.5395	0.108
Mof_H 	H 	0.2068	0.8443	0.5391	0.116
Mof_H 	H 	0.4762	0.6981	0.2689	0.047
Mof_H 	H 	0.2778	0.5278	0.284	0.039
Mof_H 	H 	0.2344	0.6985	0.1465	0.057
Mof_H 	H 	0.4416	0.8778	0.0716	0.112
Mof_H 	H 	0.3449	0.8797	0.0297	0.094
Mof_H 	H 	0.5806	0.5043	0.3985	0.096
Mof_H 	H 	0.6496	0.5783	0.3955	0.103
Mof_H 	H 	0.0283	0.4485	0.1441	0.068
Mof_H 	H 	0.0034	0.4424	0.2316	0.065
Mof_H 	H 	0.3923	0.3445	0.8919	0.004
Mof_H 	H 	0.5341	0.5444	0.8558	0.053
Mof_H 	H 	0.6374	0.4046	0.0066	0.039
Mof_H 	H 	0.5782	0.206	0.1366	0.115
Mof_H 	H 	0.4882	0.1784	0.0818	0.124
Mof_H 	H 	0.2416	0.5127	0.7365	0.11
Mof_H 	H 	0.3012	0.5777	0.7023	0.094
Mof_H 	H 	0.8343	0.609	0.8978	0.076
Mof_H 	H 	0.7778	0.6791	0.9327	0.075
Mof_H 	H 	0.3325	0.7708	0.073	0.106
Mof_H 	H 	0.5001	0.6352	0.4076	0.145
Mof_H 	H 	0.1444	0.4882	0.2384	0.102
Mof_H 	H 	0.5759	0.3254	0.0866	0.137
Mof_H 	H 	0.4096	0.5395	0.7605	0.108
Mof_H 	H 	0.7068	0.5391	0.8443	0.116
Mof_H 	H 	0.0238	0.7311	0.3019	0.047
Mof_H 	H 	0.2222	0.716	0.4722	0.039
Mof_H 	H 	0.2656	0.8535	0.3015	0.057
Mof_H 	H 	0.0584	0.9284	0.1222	0.113
Mof_H 	H 	0.1551	0.9703	0.1203	0.095
Mof_H 	H 	0.9194	0.6015	0.4957	0.097
Mof_H 	H 	0.8504	0.6045	0.4217	0.103
Mof_H 	H 	0.4717	0.8559	0.5515	0.068
Mof_H 	H 	0.4966	0.7684	0.5576	0.064
Mof_H 	H 	0.1077	0.1081	0.6555	0.005
Mof_H 	H 	0.9659	0.1442	0.4556	0.054
Mof_H 	H 	0.8626	0.9934	0.5954	0.045
Mof_H 	H 	0.9218	0.8634	0.794	0.112
Mof_H 	H 	0.0118	0.9182	0.8216	0.118
Mof_H 	H 	0.2584	0.2635	0.4873	0.11
Mof_H 	H 	0.1988	0.2977	0.4223	0.094
Mof_H 	H 	0.6657	0.1022	0.391	0.076
Mof_H 	H 	0.7222	0.0673	0.3209	0.074
Mof_H 	H 	0.1675	0.927	0.2292	0.106
Mof_H 	H 	0.9999	0.5924	0.3648	0.145
Mof_H 	H 	0.3556	0.7616	0.5118	0.101
Mof_H 	H 	0.9241	0.9134	0.6746	0.138
Mof_H 	H 	0.0904	0.2395	0.4605	0.108
Mof_H 	H 	0.7932	0.1557	0.4609	0.116
Mof_C 	C 	0.63902	0.28988	0.798	-0.052
Mof_C 	C 	0.58214	0.3252	0.74638	0.004
Mof_C 	C 	0.61182	0.3946	0.71768	-0.074
Mof_C 	C 	0.70125	0.4268	0.73652	-0.004
Mof_C 	C 	0.75879	0.3907	0.7861	-0.052
Mof_C 	C 	0.72751	0.32376	0.81832	-0.013
Mof_C 	C 	0.59982	0.21941	0.83185	0.215
Mof_C 	C 	0.6212	0.11917	0.91869	-0.219
Mof_C 	C 	0.6309	0.03964	0.8653	0.362
Mof_C 	C 	0.54868	0.44172	0.6743	0.276
Mof_C 	C 	0.4085	0.43757	0.58703	-0.217
Mof_C 	C 	0.4048	0.41521	0.49543	0.372
Mof_C 	C 	0.85395	0.42543	0.81437	0.207
Mof_C 	C 	0.9799	0.52003	0.80415	-0.186
Mof_C 	C 	0.0562	0.46876	0.81528	0.35
Mof_C 	C 	0.48853	0.63556	0.04256	-0.079
Mof_C 	C 	0.55618	0.61973	0.09661	0.038
Mof_C 	C 	0.55007	0.55288	0.13414	-0.091
Mof_C 	C 	0.4712	0.50118	0.11948	0.008
Mof_C 	C 	0.40058	0.5178	0.06806	-0.075
Mof_C 	C 	0.40948	0.58482	0.02876	0.011
Mof_C 	C 	0.50973	0.70365	0.99759	0.22
Mof_C 	C 	0.4752	0.77501	0.88803	-0.268
Mof_C 	C 	0.52759	0.73475	0.82251	0.418
Mof_C 	C 	0.63296	0.53547	0.18271	0.258
Mof_C 	C 	0.71499	0.44049	0.24845	-0.246
Mof_C 	C 	0.75917	0.37391	0.19839	0.413
Mof_C 	C 	0.31517	0.46121	0.05267	0.26
Mof_C 	C 	0.2204	0.36508	0.11146	-0.223
Mof_C 	C 	0.21892	0.33206	0.1898	0.388
Mof_C 	C 	0.86098	0.202	0.71012	-0.052
Mof_C 	C 	0.91786	0.25362	0.6748	0.004
Mof_C 	C 	0.88818	0.28232	0.6054	-0.074
Mof_C 	C 	0.79875	0.26348	0.5732	-0.004
Mof_C 	C 	0.74121	0.2139	0.6093	-0.052
Mof_C 	C 	0.77249	0.18168	0.67624	-0.014
Mof_C 	C 	0.90018	0.16815	0.78059	0.215
Mof_C 	C 	0.8788	0.08131	0.88083	-0.221
Mof_C 	C 	0.8691	0.1347	0.96036	0.365
Mof_C 	C 	0.95132	0.3257	0.55828	0.275
Mof_C 	C 	0.0915	0.41297	0.56243	-0.217
Mof_C 	C 	0.0952	0.50457	0.58479	0.373
Mof_C 	C 	0.64605	0.18563	0.57457	0.207
Mof_C 	C 	0.5201	0.19585	0.47997	-0.187
Mof_C 	C 	0.4438	0.18472	0.53124	0.351
Mof_C 	C 	0.01147	0.95744	0.36444	-0.074
Mof_C 	C 	0.94382	0.90339	0.38027	0.035
Mof_C 	C 	0.94993	0.86586	0.44712	-0.086
Mof_C 	C 	0.0288	0.88052	0.49882	0.002
Mof_C 	C 	0.09942	0.93194	0.4822	-0.07
Mof_C 	C 	0.09052	0.97124	0.41518	0.001
Mof_C 	C 	0.99027	0.00241	0.29635	0.212
Mof_C 	C 	0.0248	0.11197	0.22499	-0.256
Mof_C 	C 	0.97241	0.17749	0.26525	0.412
Mof_C 	C 	0.86704	0.81729	0.46453	0.257
Mof_C 	C 	0.78501	0.75155	0.55951	-0.246
Mof_C 	C 	0.74083	0.80161	0.62609	0.413
Mof_C 	C 	0.18483	0.94733	0.53879	0.254
Mof_C 	C 	0.2796	0.88854	0.63492	-0.223
Mof_C 	C 	0.28108	0.8102	0.66794	0.388
Mof_C 	C 	0.36098	0.71012	0.202	-0.052
Mof_C 	C 	0.41786	0.6748	0.25362	0.004
Mof_C 	C 	0.38818	0.6054	0.28232	-0.074
Mof_C 	C 	0.29875	0.5732	0.26348	-0.004
Mof_C 	C 	0.24121	0.6093	0.2139	-0.052
Mof_C 	C 	0.27249	0.67624	0.18168	-0.013
Mof_C 	C 	0.40018	0.78059	0.16815	0.215
Mof_C 	C 	0.3788	0.88083	0.08131	-0.219
Mof_C 	C 	0.3691	0.96036	0.1347	0.362
Mof_C 	C 	0.45132	0.55828	0.3257	0.276
Mof_C 	C 	0.5915	0.56243	0.41297	-0.217
Mof_C 	C 	0.5952	0.58479	0.50457	0.372
Mof_C 	C 	0.14605	0.57457	0.18563	0.207
Mof_C 	C 	0.0201	0.47997	0.19585	-0.186
Mof_C 	C 	0.9438	0.53124	0.18472	0.35
Mof_C 	C 	0.51147	0.36444	0.95744	-0.079
Mof_C 	C 	0.44382	0.38027	0.90339	0.038
Mof_C 	C 	0.44993	0.44712	0.86586	-0.091
Mof_C 	C 	0.5288	0.49882	0.88052	0.008
Mof_C 	C 	0.59942	0.4822	0.93194	-0.075
Mof_C 	C 	0.59052	0.41518	0.97124	0.011
Mof_C 	C 	0.49027	0.29635	0.00241	0.22
Mof_C 	C 	0.5248	0.22499	0.11197	-0.268
Mof_C 	C 	0.47241	0.26525	0.17749	0.418
Mof_C 	C 	0.36704	0.46453	0.81729	0.258
Mof_C 	C 	0.28501	0.55951	0.75155	-0.246
Mof_C 	C 	0.24083	0.62609	0.80161	0.413
Mof_C 	C 	0.68483	0.53879	0.94733	0.26
Mof_C 	C 	0.7796	0.63492	0.88854	-0.223
Mof_C 	C 	0.78108	0.66794	0.8102	0.388
Mof_C 	C 	0.13902	0.798	0.28988	-0.052
Mof_C 	C 	0.08214	0.74638	0.3252	0.004
Mof_C 	C 	0.11182	0.71768	0.3946	-0.074
Mof_C 	C 	0.20125	0.73652	0.4268	-0.004
Mof_C 	C 	0.25879	0.7861	0.3907	-0.052
Mof_C 	C 	0.22751	0.81832	0.32376	-0.014
Mof_C 	C 	0.09982	0.83185	0.21941	0.215
Mof_C 	C 	0.1212	0.91869	0.11917	-0.221
Mof_C 	C 	0.1309	0.8653	0.03964	0.365
Mof_C 	C 	0.04868	0.6743	0.44172	0.275
Mof_C 	C 	0.9085	0.58703	0.43757	-0.217
Mof_C 	C 	0.9048	0.49543	0.41521	0.373
Mof_C 	C 	0.35395	0.81437	0.42543	0.207
Mof_C 	C 	0.4799	0.80415	0.52003	-0.187
Mof_C 	C 	0.5562	0.81528	0.46876	0.351
Mof_C 	C 	0.98853	0.04256	0.63556	-0.074
Mof_C 	C 	0.05618	0.09661	0.61973	0.035
Mof_C 	C 	0.05007	0.13414	0.55288	-0.086
Mof_C 	C 	0.9712	0.11948	0.50118	0.002
Mof_C 	C 	0.90058	0.06806	0.5178	-0.07
Mof_C 	C 	0.90948	0.02876	0.58482	0.001
Mof_C 	C 	0.00973	0.99759	0.70365	0.212
Mof_C 	C 	0.9752	0.88803	0.77501	-0.256
Mof_C 	C 	0.02759	0.82251	0.73475	0.412
Mof_C 	C 	0.13296	0.18271	0.53547	0.257
Mof_C 	C 	0.21499	0.24845	0.44049	-0.246
Mof_C 	C 	0.25917	0.19839	0.37391	0.413
Mof_C 	C 	0.81517	0.05267	0.46121	0.254
Mof_C 	C 	0.7204	0.11146	0.36508	-0.223
Mof_C 	C 	0.71892	0.1898	0.33206	0.388
Mof_N 	N 	0.65182	0.18921	0.88501	-0.16
Mof_N 	N 	0.4775	0.40014	0.62986	-0.195
Mof_N 	N 	0.89439	0.47549	0.77139	-0.173
Mof_N 	N 	0.44833	0.72135	0.94331	-0.176
Mof_N 	N 	0.63507	0.46437	0.20701	-0.178
Mof_N 	N 	0.29713	0.42241	0.11287	-0.188
Mof_N 	N 	0.84818	0.11499	0.81079	-0.159
Mof_N 	N 	0.0225	0.37014	0.59986	-0.195
Mof_N 	N 	0.60561	0.22861	0.52451	-0.173
Mof_N 	N 	0.05167	0.05669	0.27865	-0.174
Mof_N 	N 	0.86493	0.79299	0.53563	-0.178
Mof_N 	N 	0.20287	0.88713	0.57759	-0.188
Mof_N 	N 	0.34818	0.81079	0.11499	-0.16
Mof_N 	N 	0.5225	0.59986	0.37014	-0.195
Mof_N 	N 	0.10561	0.52451	0.22861	-0.173
Mof_N 	N 	0.55167	0.27865	0.05669	-0.176
Mof_N 	N 	0.36493	0.53563	0.79299	-0.178
Mof_N 	N 	0.70287	0.57759	0.88713	-0.188
Mof_N 	N 	0.15182	0.88501	0.18921	-0.159
Mof_N 	N 	0.9775	0.62986	0.40014	-0.195
Mof_N 	N 	0.39439	0.77139	0.47549	-0.173
Mof_N 	N 	0.94833	0.94331	0.72135	-0.174
Mof_N 	N 	0.13507	0.20701	0.46437	-0.178
Mof_N 	N 	0.79713	0.11287	0.42241	-0.188
Mof_O 	O 	0.52032	0.19188	0.8118	-0.261
Mof_O 	O 	0.67047	0.03937	0.80191	-0.389
Mof_O 	O 	0.5989	0.97701	0.88651	-0.373
Mof_O 	O 	0.5603	0.51578	0.68578	-0.393
Mof_O 	O 	0.34044	0.43485	0.45473	-0.346
Mof_O 	O 	0.4662	0.37835	0.46613	-0.415
Mof_O 	O 	0.89157	0.40835	0.87667	-0.246
Mof_O 	O 	0.06074	0.40366	0.76996	-0.365
Mof_O 	O 	0.11608	0.49489	0.87173	-0.403
Mof_O 	O 	0.58521	0.74165	0.00871	-0.251
Mof_O 	O 	0.52637	0.65942	0.80934	-0.396
Mof_O 	O 	0.56837	0.77893	0.78029	-0.524
Mof_O 	O 	0.69825	0.58801	0.19785	-0.397
Mof_O 	O 	0.83512	0.35728	0.22754	-0.52
Mof_O 	O 	0.72234	0.33839	0.13287	-0.387
Mof_O 	O 	0.26866	0.45139	0.98821	-0.372
Mof_O 	O 	0.27554	0.36133	0.24665	-0.422
Mof_O 	O 	0.15696	0.27738	0.19188	-0.33
Mof_O 	O 	0.97968	0.1882	0.80812	-0.261
Mof_O 	O 	0.82953	0.19809	0.96063	-0.389
Mof_O 	O 	0.9011	0.11349	0.02299	-0.376
Mof_O 	O 	0.9397	0.31422	0.48422	-0.393
Mof_O 	O 	0.15956	0.54527	0.56515	-0.346
Mof_O 	O 	0.0338	0.53387	0.62165	-0.415
Mof_O 	O 	0.60843	0.12333	0.59165	-0.246
Mof_O 	O 	0.43926	0.23004	0.59634	-0.365
Mof_O 	O 	0.38392	0.12827	0.50511	-0.403
Mof_O 	O 	0.91479	0.99129	0.25835	-0.247
Mof_O 	O 	0.97363	0.19066	0.34058	-0.395
Mof_O 	O 	0.93163	0.21971	0.22107	-0.522
Mof_O 	O 	0.80175	0.80215	0.41199	-0.397
Mof_O 	O 	0.66488	0.77246	0.64272	-0.52
Mof_O 	O 	0.77766	0.86713	0.66161	-0.387
Mof_O 	O 	0.23134	0.01179	0.54861	-0.369
Mof_O 	O 	0.22446	0.75335	0.63867	-0.422
Mof_O 	O 	0.34304	0.80812	0.72262	-0.331
Mof_O 	O 	0.47968	0.80812	0.1882	-0.261
Mof_O 	O 	0.32953	0.96063	0.19809	-0.389
Mof_O 	O 	0.4011	0.02299	0.11349	-0.373
Mof_O 	O 	0.4397	0.48422	0.31422	-0.393
Mof_O 	O 	0.65956	0.56515	0.54527	-0.346
Mof_O 	O 	0.5338	0.62165	0.53387	-0.415
Mof_O 	O 	0.10843	0.59165	0.12333	-0.246
Mof_O 	O 	0.93926	0.59634	0.23004	-0.365
Mof_O 	O 	0.88392	0.50511	0.12827	-0.403
Mof_O 	O 	0.41479	0.25835	0.99129	-0.251
Mof_O 	O 	0.47363	0.34058	0.19066	-0.396
Mof_O 	O 	0.43163	0.22107	0.21971	-0.524
Mof_O 	O 	0.30175	0.41199	0.80215	-0.397
Mof_O 	O 	0.16488	0.64272	0.77246	-0.52
Mof_O 	O 	0.27766	0.66161	0.86713	-0.387
Mof_O 	O 	0.73134	0.54861	0.01179	-0.372
Mof_O 	O 	0.72446	0.63867	0.75335	-0.422
Mof_O 	O 	0.84304	0.72262	0.80812	-0.33
Mof_O 	O 	0.02032	0.8118	0.19188	-0.261
Mof_O 	O 	0.17047	0.80191	0.03937	-0.389
Mof_O 	O 	0.0989	0.88651	0.97701	-0.376
Mof_O 	O 	0.0603	0.68578	0.51578	-0.393
Mof_O 	O 	0.84044	0.45473	0.43485	-0.346
Mof_O 	O 	0.9662	0.46613	0.37835	-0.415
Mof_O 	O 	0.39157	0.87667	0.40835	-0.246
Mof_O 	O 	0.56074	0.76996	0.40366	-0.365
Mof_O 	O 	0.61608	0.87173	0.49489	-0.403
Mof_O 	O 	0.08521	0.00871	0.74165	-0.247
Mof_O 	O 	0.02637	0.80934	0.65942	-0.395
Mof_O 	O 	0.06837	0.78029	0.77893	-0.522
Mof_O 	O 	0.19825	0.19785	0.58801	-0.397
Mof_O 	O 	0.33512	0.22754	0.35728	-0.52
Mof_O 	O 	0.22234	0.13287	0.33839	-0.387
Mof_O 	O 	0.76866	0.98821	0.45139	-0.369
Mof_O 	O 	0.77554	0.24665	0.36133	-0.422
Mof_O 	O 	0.65696	0.19188	0.27738	-0.331
_end
