data_functionalizedCrystal
_audit_creation_method	'EQeq! by Chris Wilmer'
_symmetry_space_group_name_H-M	'P1'
_symmetry_Int_Tables_number	1
_symmetry_cell_setting	triclinic
loop_
_symmetry_equiv_pos_as_xyz
  x,y,z
_cell_length_a	11.857
_cell_length_b	12.554
_cell_length_c	12.515
_cell_angle_alpha	119.12
_cell_angle_beta	98.44
_cell_angle_gamma	108.27
loop_
_atom_site_label
_atom_site_type_symbol
_atom_site_fract_x
_atom_site_fract_y
_atom_site_fract_z
_atom_site_charge
Mof_La	La	0.47975	0.01103	0.17795	2.159
Mof_La	La	0.80285	0.23593	0.7561	2.1
Mof_O 	O 	0.5926	0.1615	0.4158	-0.568
Mof_O 	O 	0.6685	0.283	0.63228	-0.552
Mof_O 	O 	0.5724	0.802	0.7965	-0.551
Mof_O 	O 	0.529	0.8867	0.9768	-0.659
Mof_O 	O 	0.2666	0.8535	0.9971	-0.567
Mof_O 	O 	0.1098	0.7267	0.0243	-0.531
Mof_O 	O 	0.305	0.9998	0.2782	-0.6
Mof_O 	O 	0.1159	0.9502	0.294	-0.458
Mof_O 	O 	0.3949	0.1109	0.7649	-0.472
Mof_O 	O 	0.6017	0.1983	0.8124	-0.644
Mof_O 	O 	0.9403	0.3609	0.6671	-0.46
Mof_O 	O 	0.0433	0.3682	0.8336	-0.478
Mof_O 	O 	0.4256	0.975	0.4668	-0.208
Mof_C 	C 	0.7335	0.5332	0.6668	0.413
Mof_C 	C 	0.6562	0.5723	0.7364	-0.461
Mof_H 	H 	0.5664	0.519	0.6962	0.18
Mof_C 	C 	0.709	0.689	0.8646	0.412
Mof_C 	C 	0.8407	0.7667	0.9218	-0.472
Mof_H 	H 	0.8775	0.8447	0.0097	0.176
Mof_C 	C 	0.9189	0.7319	0.8524	0.408
Mof_C 	C 	0.8646	0.6138	0.7253	-0.468
Mof_H 	H 	0.9178	0.588	0.6782	0.171
Mof_C 	C 	0.6732	0.4026	0.5298	-0.616
Mof_H 	H 	0.5934	0.3954	0.4828	0.188
Mof_H 	H 	0.7316	0.4082	0.4817	0.174
Mof_C 	C 	0.643	0.2745	0.5269	0.606
Mof_C 	C 	0.6238	0.7336	0.9372	-0.603
Mof_H 	H 	0.6727	0.7917	0.0327	0.193
Mof_H 	H 	0.5518	0.6522	0.9175	0.182
Mof_C 	C 	0.572	0.8119	0.9001	0.544
Mof_C 	C 	0.0602	0.8251	0.9112	-0.589
Mof_H 	H 	0.0727	0.9188	0.974	0.175
Mof_H 	H 	0.0872	0.8242	0.8397	0.171
Mof_C 	C 	0.1499	0.7968	0.9815	0.557
Mof_C 	C 	0.2722	0.2594	0.5127	0.356
Mof_C 	C 	0.3633	0.2559	0.5936	-0.411
Mof_H 	H 	0.4064	0.2031	0.5561	0.176
Mof_C 	C 	0.3921	0.329	0.7291	0.365
Mof_C 	C 	0.327	0.4045	0.7825	-0.409
Mof_H 	H 	0.3431	0.4511	0.8739	0.144
Mof_C 	C 	0.2387	0.413	0.7043	0.342
Mof_C 	C 	0.2119	0.3407	0.5699	-0.403
Mof_H 	H 	0.152	0.3465	0.5161	0.15
Mof_C 	C 	0.2413	0.1806	0.3652	-0.542
Mof_H 	H 	0.1645	0.1815	0.3228	0.178
Mof_H 	H 	0.3129	0.2258	0.3466	0.189
Mof_C 	C 	0.2181	0.0345	0.3078	0.483
Mof_C 	C 	0.5011	0.3383	0.8182	-0.536
Mof_H 	H 	0.5063	0.3956	0.9095	0.151
Mof_H 	H 	0.581	0.3865	0.8117	0.168
Mof_C 	C 	0.4964	0.2059	0.7935	0.512
Mof_C 	C 	0.1681	0.4961	0.7634	-0.485
Mof_H 	H 	0.2204	0.5709	0.8564	0.15
Mof_H 	H 	0.152	0.5367	0.7155	0.149
Mof_C 	C 	0.0432	0.4041	0.754	0.419
Mof_La	La	0.52025	0.98897	0.82205	2.16
Mof_La	La	0.19715	0.76407	0.2439	2.101
Mof_O 	O 	0.4074	0.8385	0.5842	-0.567
Mof_O 	O 	0.3315	0.717	0.36772	-0.551
Mof_O 	O 	0.4276	0.198	0.2035	-0.551
Mof_O 	O 	0.471	0.1133	0.0232	-0.659
Mof_O 	O 	0.7334	0.1465	0.0029	-0.567
Mof_O 	O 	0.8902	0.2733	0.9757	-0.531
Mof_O 	O 	0.695	0.0002	0.7218	-0.6
Mof_O 	O 	0.8841	0.0498	0.706	-0.458
Mof_O 	O 	0.6051	0.8891	0.2351	-0.472
Mof_O 	O 	0.3983	0.8017	0.1876	-0.644
Mof_O 	O 	0.0597	0.6391	0.3329	-0.46
Mof_O 	O 	0.9567	0.6318	0.1664	-0.478
Mof_O 	O 	0.5744	0.025	0.5332	-0.208
Mof_C 	C 	0.2665	0.4668	0.3332	0.413
Mof_C 	C 	0.3438	0.4277	0.2636	-0.461
Mof_H 	H 	0.4336	0.481	0.3038	0.18
Mof_C 	C 	0.291	0.311	0.1354	0.412
Mof_C 	C 	0.1593	0.2333	0.0782	-0.472
Mof_H 	H 	0.1225	0.1553	0.9903	0.176
Mof_C 	C 	0.0811	0.2681	0.1476	0.408
Mof_C 	C 	0.1354	0.3862	0.2747	-0.468
Mof_H 	H 	0.0822	0.412	0.3218	0.171
Mof_C 	C 	0.3268	0.5974	0.4702	-0.616
Mof_H 	H 	0.4066	0.6046	0.5172	0.188
Mof_H 	H 	0.2684	0.5918	0.5183	0.174
Mof_C 	C 	0.357	0.7255	0.4731	0.606
Mof_C 	C 	0.3762	0.2664	0.0628	-0.603
Mof_H 	H 	0.3273	0.2083	0.9673	0.193
Mof_H 	H 	0.4482	0.3478	0.0825	0.182
Mof_C 	C 	0.428	0.1881	0.0999	0.544
Mof_C 	C 	0.9398	0.1749	0.0888	-0.589
Mof_H 	H 	0.9273	0.0812	0.026	0.175
Mof_H 	H 	0.9128	0.1758	0.1603	0.171
Mof_C 	C 	0.8501	0.2032	0.0185	0.557
Mof_C 	C 	0.7278	0.7406	0.4873	0.356
Mof_C 	C 	0.6367	0.7441	0.4064	-0.411
Mof_H 	H 	0.5936	0.7969	0.4439	0.176
Mof_C 	C 	0.6079	0.671	0.2709	0.365
Mof_C 	C 	0.673	0.5955	0.2175	-0.409
Mof_H 	H 	0.6569	0.5489	0.1261	0.144
Mof_C 	C 	0.7613	0.587	0.2957	0.342
Mof_C 	C 	0.7881	0.6593	0.4301	-0.403
Mof_H 	H 	0.848	0.6535	0.4839	0.15
Mof_C 	C 	0.7587	0.8194	0.6348	-0.542
Mof_H 	H 	0.8355	0.8185	0.6772	0.178
Mof_H 	H 	0.6871	0.7742	0.6534	0.189
Mof_C 	C 	0.7819	0.9655	0.6922	0.483
Mof_C 	C 	0.4989	0.6617	0.1818	-0.536
Mof_H 	H 	0.4937	0.6044	0.0905	0.151
Mof_H 	H 	0.419	0.6135	0.1883	0.168
Mof_C 	C 	0.5036	0.7941	0.2065	0.512
Mof_C 	C 	0.8319	0.5039	0.2366	-0.485
Mof_H 	H 	0.7796	0.4291	0.1436	0.15
Mof_H 	H 	0.848	0.4633	0.2845	0.149
Mof_C 	C 	0.9568	0.5959	0.246	0.419
_end
