# CIF file generated by openbabel 3.1.0, see https://openbabel.org
data_I
_chemical_name_common 'image0'
_cell_length_a 10.632
_cell_length_b 10.219
_cell_length_c 6.115
_cell_angle_alpha 90
_cell_angle_beta 114.46
_cell_angle_gamma 90
_space_group_name_H-M_alt 'P 1'
_space_group_name_Hall 'P 1'
loop_
    _symmetry_equiv_pos_as_xyz
    x,y,z
loop_
    _atom_site_label
    _atom_site_type_symbol
    _atom_site_fract_x
    _atom_site_fract_y
    _atom_site_fract_z
    _atom_site_occupancy
    C1       C        0.31500    0.21390    0.53600    1.000
    H1       H        0.34370    0.18200    0.69860    1.000
    H2       H        0.38610    0.27200    0.53210    1.000
    N1       N        0.29800    0.10300    0.37300    1.000
    H3       H        0.27300    0.13180    0.22140    1.000
    H4       H        0.23210    0.04830    0.37490    1.000
    C2       C        0.81500    0.71390    0.53600    1.000
    H5       H        0.84370    0.68200    0.69860    1.000
    H6       H        0.88610    0.77200    0.53210    1.000
    N2       N        0.79800    0.60300    0.37300    1.000
    H7       H        0.77300    0.63180    0.22140    1.000
    H8       H        0.73210    0.54830    0.37490    1.000
    C3       C        0.68500    0.21390    0.96400    1.000
    H9       H        0.65630    0.18200    0.80140    1.000
    H10      H        0.61390    0.27200    0.96790    1.000
    N3       N        0.70200    0.10300    0.12700    1.000
    H11      H        0.72700    0.13180    0.27860    1.000
    H12      H        0.76790    0.04830    0.12510    1.000
    C4       C        0.18500    0.71390    0.96400    1.000
    H13      H        0.15630    0.68200    0.80140    1.000
    H14      H        0.11390    0.77200    0.96790    1.000
    N4       N        0.20200    0.60300    0.12700    1.000
    H15      H        0.22700    0.63180    0.27860    1.000
    H16      H        0.26790    0.54830    0.12510    1.000
    C5       C        0.68500    0.78610    0.46400    1.000
    H17      H        0.65630    0.81800    0.30140    1.000
    H18      H        0.61390    0.72800    0.46790    1.000
    N5       N        0.70200    0.89700    0.62700    1.000
    H19      H        0.72700    0.86820    0.77860    1.000
    H20      H        0.76790    0.95170    0.62510    1.000
    C6       C        0.18500    0.28610    0.46400    1.000
    H21      H        0.15630    0.31800    0.30140    1.000
    H22      H        0.11390    0.22800    0.46790    1.000
    N6       N        0.20200    0.39700    0.62700    1.000
    H23      H        0.22700    0.36820    0.77860    1.000
    H24      H        0.26790    0.45170    0.62510    1.000
    C7       C        0.31500    0.78610    0.03600    1.000
    H25      H        0.34370    0.81800    0.19860    1.000
    H26      H        0.38610    0.72800    0.03210    1.000
    N7       N        0.29800    0.89700    0.87300    1.000
    H27      H        0.27300    0.86820    0.72140    1.000
    H28      H        0.23210    0.95170    0.87490    1.000
    C8       C        0.81500    0.28610    0.03600    1.000
    H29      H        0.84370    0.31800    0.19860    1.000
    H30      H        0.88610    0.22800    0.03210    1.000
    N8       N        0.79800    0.39700    0.87300    1.000
    H31      H        0.77300    0.36820    0.72140    1.000
    H32      H        0.73210    0.45170    0.87490    1.000
    Ag1      Ag       0.50000    0.00000    0.50000    1.000
    Ag2      Ag       0.00000    0.50000    0.50000    1.000
    Ag3      Ag       0.50000    0.00000    0.00000    1.000
    Ag4      Ag       0.00000    0.50000    0.00000    1.000
