data_functionalizedCrystal
_audit_creation_method	'EQeq! by Chris Wilmer'
_symmetry_space_group_name_H-M	'P1'
_symmetry_Int_Tables_number	1
_symmetry_cell_setting	triclinic
loop_
_symmetry_equiv_pos_as_xyz
  x,y,z
_cell_length_a	27.148
_cell_length_b	27.148
_cell_length_c	9.957
_cell_angle_alpha	90
_cell_angle_beta	90
_cell_angle_gamma	120
loop_
_atom_site_label
_atom_site_type_symbol
_atom_site_fract_x
_atom_site_fract_y
_atom_site_fract_z
_atom_site_charge
Mof_C 	C 	0.94928	0.5559	0.7273	0.188
Mof_C 	C 	0.92454	0.50656	0.8193	-0.214
Mof_H 	H 	0.9045	0.4716	0.7682	0.124
Mof_H 	H 	0.9545	0.5056	0.8701	0.116
Mof_C 	C 	0.8701	0.47292	0.0258	-0.191
Mof_H 	H 	0.8672	0.4374	0.9969	0.102
Mof_H 	H 	0.8336	0.4646	0.0624	0.12
Mof_C 	C 	0.91483	0.50008	0.1297	0.181
Mof_Cd	Cd	0.9299	0.61188	0.99263	0.43
Mof_Cl	Cl	0.83016	0.57144	0.10575	-0.374
Mof_H 	H 	0.8461	0.499	0.869	0.085
Mof_N 	N 	0.95216	0.60445	0.758	-0.12
Mof_N 	N 	0.88491	0.51177	0.9113	-0.102
Mof_N 	N 	0.94913	0.55582	0.1396	-0.115
Mof_N 	N 	0.98102	0.56379	0.2471	-0.061
Mof_N 	N 	0.98018	0.63907	0.6546	-0.062
Mof_N 	N 	0.99349	0.61221	0.5668	-0.043
Mof_N 	N 	0.97437	0.55917	0.6103	-0.114
Mof_N 	N 	0.96634	0.51411	0.299	-0.059
Mof_N 	N 	0.9249	0.47314	0.2275	-0.091
Mof_C 	C 	0.61595	0.88923	0.06063	0.185
Mof_C 	C 	0.59121	0.83989	0.15263	-0.214
Mof_H 	H 	0.57117	0.80493	0.10153	0.122
Mof_H 	H 	0.62117	0.83893	0.20343	0.113
Mof_C 	C 	0.53677	0.80625	0.35913	-0.198
Mof_H 	H 	0.53387	0.77073	0.33023	0.104
Mof_H 	H 	0.50027	0.79793	0.39573	0.12
Mof_C 	C 	0.5815	0.83341	0.46303	0.18
Mof_Cd	Cd	0.59656	0.94521	0.32596	0.433
Mof_Cl	Cl	0.49683	0.90477	0.43908	-0.373
Mof_H 	H 	0.51277	0.83233	0.20233	0.085
Mof_N 	N 	0.61883	0.93778	0.09133	-0.12
Mof_N 	N 	0.55158	0.8451	0.24463	-0.102
Mof_N 	N 	0.6158	0.88915	0.47293	-0.115
Mof_N 	N 	0.64769	0.89712	0.58043	-0.064
Mof_N 	N 	0.64685	0.9724	0.98793	-0.06
Mof_N 	N 	0.66016	0.94554	0.90013	-0.044
Mof_N 	N 	0.64104	0.8925	0.94363	-0.116
Mof_N 	N 	0.63301	0.84744	0.63233	-0.062
Mof_N 	N 	0.59157	0.80647	0.56083	-0.092
Mof_C 	C 	0.28261	0.22257	0.39397	0.186
Mof_C 	C 	0.25787	0.17323	0.48597	-0.214
Mof_H 	H 	0.23783	0.13827	0.43487	0.122
Mof_H 	H 	0.28783	0.17227	0.53677	0.113
Mof_C 	C 	0.20343	0.13959	0.69247	-0.196
Mof_H 	H 	0.20053	0.10407	0.66357	0.101
Mof_H 	H 	0.16693	0.13127	0.72907	0.118
Mof_C 	C 	0.24816	0.16675	0.79637	0.179
Mof_Cd	Cd	0.26323	0.27855	0.6593	0.427
Mof_Cl	Cl	0.16349	0.23811	0.77242	-0.377
Mof_H 	H 	0.17943	0.16567	0.53567	0.084
Mof_N 	N 	0.28549	0.27112	0.42467	-0.121
Mof_N 	N 	0.21824	0.17844	0.57797	-0.102
Mof_N 	N 	0.28246	0.22249	0.80627	-0.116
Mof_N 	N 	0.31435	0.23046	0.91377	-0.064
Mof_N 	N 	0.31351	0.30574	0.32127	-0.064
Mof_N 	N 	0.32682	0.27888	0.23347	-0.046
Mof_N 	N 	0.3077	0.22584	0.27697	-0.117
Mof_N 	N 	0.29967	0.18078	0.96567	-0.062
Mof_N 	N 	0.25823	0.13981	0.89417	-0.093
Mof_C 	C 	0.4441	0.39338	0.7273	0.186
Mof_C 	C 	0.49344	0.41798	0.8193	-0.214
Mof_H 	H 	0.5284	0.4329	0.7682	0.122
Mof_H 	H 	0.4944	0.4489	0.8701	0.113
Mof_C 	C 	0.52708	0.39718	0.0258	-0.195
Mof_H 	H 	0.5626	0.4298	0.9969	0.102
Mof_H 	H 	0.5354	0.369	0.0624	0.119
Mof_C 	C 	0.49992	0.41475	0.1297	0.179
Mof_Cd	Cd	0.38812	0.31802	0.99263	0.427
Mof_Cl	Cl	0.42856	0.25872	0.10575	-0.375
Mof_H 	H 	0.501	0.3471	0.869	0.085
Mof_N 	N 	0.39555	0.34771	0.758	-0.121
Mof_N 	N 	0.48823	0.37314	0.9113	-0.102
Mof_N 	N 	0.44418	0.39331	0.1396	-0.116
Mof_N 	N 	0.43621	0.41723	0.2471	-0.064
Mof_N 	N 	0.36093	0.34111	0.6546	-0.064
Mof_N 	N 	0.38779	0.38128	0.5668	-0.046
Mof_N 	N 	0.44083	0.4152	0.6103	-0.117
Mof_N 	N 	0.48589	0.45223	0.299	-0.062
Mof_N 	N 	0.52686	0.45176	0.2275	-0.092
Mof_C 	C 	0.11077	0.72671	0.06063	0.183
Mof_C 	C 	0.16011	0.75131	0.15263	-0.213
Mof_H 	H 	0.19507	0.76623	0.10153	0.122
Mof_H 	H 	0.16107	0.78223	0.20343	0.112
Mof_C 	C 	0.19375	0.73051	0.35913	-0.198
Mof_H 	H 	0.22927	0.76313	0.33023	0.104
Mof_H 	H 	0.20207	0.70233	0.39573	0.12
Mof_C 	C 	0.16659	0.74808	0.46303	0.18
Mof_Cd	Cd	0.05479	0.65135	0.32596	0.421
Mof_Cl	Cl	0.09523	0.59205	0.43908	-0.377
Mof_H 	H 	0.16767	0.68043	0.20233	0.085
Mof_N 	N 	0.06222	0.68104	0.09133	-0.123
Mof_N 	N 	0.1549	0.70647	0.24463	-0.102
Mof_N 	N 	0.11085	0.72664	0.47293	-0.117
Mof_N 	N 	0.10288	0.75056	0.58043	-0.065
Mof_N 	N 	0.0276	0.67444	0.98793	-0.065
Mof_N 	N 	0.05446	0.71461	0.90013	-0.046
Mof_N 	N 	0.1075	0.74853	0.94363	-0.115
Mof_N 	N 	0.15256	0.78556	0.63233	-0.062
Mof_N 	N 	0.19353	0.78509	0.56083	-0.093
Mof_C 	C 	0.77743	0.06005	0.39397	0.185
Mof_C 	C 	0.82677	0.08465	0.48597	-0.215
Mof_H 	H 	0.86173	0.09957	0.43487	0.123
Mof_H 	H 	0.82773	0.11557	0.53677	0.113
Mof_C 	C 	0.86041	0.06385	0.69247	-0.199
Mof_H 	H 	0.89593	0.09647	0.66357	0.105
Mof_H 	H 	0.86873	0.03567	0.72907	0.118
Mof_C 	C 	0.83325	0.08142	0.79637	0.179
Mof_Cd	Cd	0.72145	0.98468	0.6593	0.436
Mof_Cl	Cl	0.76189	0.92539	0.77242	-0.372
Mof_H 	H 	0.83433	0.01377	0.53567	0.083
Mof_N 	N 	0.72888	0.01438	0.42467	-0.123
Mof_N 	N 	0.82156	0.03981	0.57797	-0.103
Mof_N 	N 	0.77751	0.05998	0.80627	-0.118
Mof_N 	N 	0.76954	0.0839	0.91377	-0.065
Mof_N 	N 	0.69426	0.00778	0.32127	-0.066
Mof_N 	N 	0.72112	0.04795	0.23347	-0.046
Mof_N 	N 	0.77416	0.08187	0.27697	-0.117
Mof_N 	N 	0.81922	0.1189	0.96567	-0.063
Mof_N 	N 	0.86019	0.11843	0.89417	-0.092
Mof_C 	C 	0.60662	0.05072	0.7273	0.184
Mof_C 	C 	0.58202	0.07546	0.8193	-0.213
Mof_H 	H 	0.5671	0.0955	0.7682	0.122
Mof_H 	H 	0.5511	0.0455	0.8701	0.11
Mof_C 	C 	0.60282	0.1299	0.0258	-0.192
Mof_H 	H 	0.5702	0.1328	0.9969	0.1
Mof_H 	H 	0.631	0.1664	0.0624	0.118
Mof_C 	C 	0.58525	0.08517	0.1297	0.178
Mof_Cd	Cd	0.68199	0.0701	0.99263	0.422
Mof_Cl	Cl	0.74128	0.16984	0.10575	-0.374
Mof_H 	H 	0.6529	0.1539	0.869	0.085
Mof_N 	N 	0.65229	0.04784	0.758	-0.122
Mof_N 	N 	0.62686	0.11509	0.9113	-0.103
Mof_N 	N 	0.60669	0.05087	0.1396	-0.116
Mof_N 	N 	0.58277	0.01898	0.2471	-0.066
Mof_N 	N 	0.65889	0.01982	0.6546	-0.066
Mof_N 	N 	0.61872	0.00651	0.5668	-0.048
Mof_N 	N 	0.5848	0.02563	0.6103	-0.117
Mof_N 	N 	0.54777	0.03366	0.299	-0.063
Mof_N 	N 	0.54824	0.0751	0.2275	-0.093
Mof_C 	C 	0.27329	0.38405	0.06063	0.185
Mof_C 	C 	0.24869	0.40879	0.15263	-0.214
Mof_H 	H 	0.23377	0.42883	0.10153	0.122
Mof_H 	H 	0.21777	0.37883	0.20343	0.113
Mof_C 	C 	0.26949	0.46323	0.35913	-0.198
Mof_H 	H 	0.23687	0.46613	0.33023	0.104
Mof_H 	H 	0.29767	0.49973	0.39573	0.12
Mof_C 	C 	0.25192	0.4185	0.46303	0.18
Mof_Cd	Cd	0.34865	0.40344	0.32596	0.427
Mof_Cl	Cl	0.40795	0.50317	0.43908	-0.376
Mof_H 	H 	0.31957	0.48723	0.20233	0.085
Mof_N 	N 	0.31896	0.38117	0.09133	-0.121
Mof_N 	N 	0.29353	0.44842	0.24463	-0.102
Mof_N 	N 	0.27336	0.3842	0.47293	-0.116
Mof_N 	N 	0.24944	0.35231	0.58043	-0.064
Mof_N 	N 	0.32556	0.35315	0.98793	-0.064
Mof_N 	N 	0.28539	0.33984	0.90013	-0.046
Mof_N 	N 	0.25147	0.35896	0.94363	-0.116
Mof_N 	N 	0.21444	0.36699	0.63233	-0.062
Mof_N 	N 	0.21491	0.40843	0.56083	-0.093
Mof_C 	C 	0.93995	0.71739	0.39397	0.187
Mof_C 	C 	0.91535	0.74213	0.48597	-0.214
Mof_H 	H 	0.90043	0.76217	0.43487	0.123
Mof_H 	H 	0.88443	0.71217	0.53677	0.113
Mof_C 	C 	0.93615	0.79657	0.69247	-0.199
Mof_H 	H 	0.90353	0.79947	0.66357	0.105
Mof_H 	H 	0.96433	0.83307	0.72907	0.122
Mof_C 	C 	0.91858	0.75184	0.79637	0.182
Mof_Cd	Cd	0.01532	0.73677	0.6593	0.419
Mof_Cl	Cl	0.07461	0.83651	0.77242	-0.377
Mof_H 	H 	0.98623	0.82057	0.53567	0.088
Mof_N 	N 	0.98562	0.71451	0.42467	-0.119
Mof_N 	N 	0.96019	0.78176	0.57797	-0.1
Mof_N 	N 	0.94002	0.71754	0.80627	-0.114
Mof_N 	N 	0.9161	0.68565	0.91377	-0.064
Mof_N 	N 	0.99222	0.68649	0.32127	-0.061
Mof_N 	N 	0.95205	0.67318	0.23347	-0.044
Mof_N 	N 	0.91813	0.6923	0.27697	-0.116
Mof_N 	N 	0.8811	0.70033	0.96567	-0.062
Mof_N 	N 	0.88157	0.74177	0.89417	-0.092
Mof_C 	C 	0.05072	0.4441	0.2727	0.184
Mof_C 	C 	0.07546	0.49344	0.1807	-0.213
Mof_H 	H 	0.0955	0.5284	0.2318	0.122
Mof_H 	H 	0.0455	0.4944	0.1299	0.11
Mof_C 	C 	0.1299	0.52708	0.9742	-0.192
Mof_H 	H 	0.1328	0.5626	0.0031	0.1
Mof_H 	H 	0.1664	0.5354	0.9376	0.118
Mof_C 	C 	0.08517	0.49992	0.8703	0.178
Mof_Cd	Cd	0.0701	0.38812	0.00737	0.423
Mof_Cl	Cl	0.16984	0.42856	0.89425	-0.375
Mof_H 	H 	0.1539	0.501	0.131	0.085
Mof_N 	N 	0.04784	0.39555	0.242	-0.122
Mof_N 	N 	0.11509	0.48823	0.0887	-0.103
Mof_N 	N 	0.05087	0.44418	0.8604	-0.116
Mof_N 	N 	0.01898	0.43621	0.7529	-0.066
Mof_N 	N 	0.01982	0.36093	0.3454	-0.066
Mof_N 	N 	0.00651	0.38779	0.4332	-0.048
Mof_N 	N 	0.02563	0.44083	0.3897	-0.117
Mof_N 	N 	0.03366	0.48589	0.701	-0.063
Mof_N 	N 	0.0751	0.52686	0.7725	-0.093
Mof_C 	C 	0.71739	0.77743	0.60603	0.186
Mof_C 	C 	0.74213	0.82677	0.51403	-0.215
Mof_H 	H 	0.76217	0.86173	0.56513	0.123
Mof_H 	H 	0.71217	0.82773	0.46323	0.113
Mof_C 	C 	0.79657	0.86041	0.30753	-0.2
Mof_H 	H 	0.79947	0.89593	0.33643	0.106
Mof_H 	H 	0.83307	0.86873	0.27093	0.122
Mof_C 	C 	0.75184	0.83325	0.20363	0.181
Mof_Cd	Cd	0.73677	0.72145	0.3407	0.427
Mof_Cl	Cl	0.83651	0.76189	0.22758	-0.375
Mof_H 	H 	0.82057	0.83433	0.46433	0.086
Mof_N 	N 	0.71451	0.72888	0.57533	-0.121
Mof_N 	N 	0.78176	0.82156	0.42203	-0.101
Mof_N 	N 	0.71754	0.77751	0.19373	-0.116
Mof_N 	N 	0.68565	0.76954	0.08623	-0.064
Mof_N 	N 	0.68649	0.69426	0.67873	-0.064
Mof_N 	N 	0.67318	0.72112	0.76653	-0.045
Mof_N 	N 	0.6923	0.77416	0.72303	-0.117
Mof_N 	N 	0.70033	0.81922	0.03433	-0.062
Mof_N 	N 	0.74177	0.86019	0.10583	-0.092
Mof_C 	C 	0.38405	0.11077	0.93937	0.184
Mof_C 	C 	0.40879	0.16011	0.84737	-0.214
Mof_H 	H 	0.42883	0.19507	0.89847	0.122
Mof_H 	H 	0.37883	0.16107	0.79657	0.112
Mof_C 	C 	0.46323	0.19375	0.64087	-0.198
Mof_H 	H 	0.46613	0.22927	0.66977	0.104
Mof_H 	H 	0.49973	0.20207	0.60427	0.12
Mof_C 	C 	0.4185	0.16659	0.53697	0.18
Mof_Cd	Cd	0.40344	0.05479	0.67404	0.421
Mof_Cl	Cl	0.50317	0.09523	0.56092	-0.377
Mof_H 	H 	0.48723	0.16767	0.79767	0.085
Mof_N 	N 	0.38117	0.06222	0.90867	-0.123
Mof_N 	N 	0.44842	0.1549	0.75537	-0.101
Mof_N 	N 	0.3842	0.11085	0.52707	-0.117
Mof_N 	N 	0.35231	0.10288	0.41957	-0.065
Mof_N 	N 	0.35315	0.0276	0.01207	-0.066
Mof_N 	N 	0.33984	0.05446	0.09987	-0.046
Mof_N 	N 	0.35896	0.1075	0.05637	-0.116
Mof_N 	N 	0.36699	0.15256	0.36767	-0.062
Mof_N 	N 	0.40843	0.19353	0.43917	-0.093
Mof_C 	C 	0.5559	0.60662	0.2727	0.186
Mof_C 	C 	0.50656	0.58202	0.1807	-0.214
Mof_H 	H 	0.4716	0.5671	0.2318	0.122
Mof_H 	H 	0.5056	0.5511	0.1299	0.113
Mof_C 	C 	0.47292	0.60282	0.9742	-0.195
Mof_H 	H 	0.4374	0.5702	0.0031	0.102
Mof_H 	H 	0.4646	0.631	0.9376	0.119
Mof_C 	C 	0.50008	0.58525	0.8703	0.179
Mof_Cd	Cd	0.61188	0.68199	0.00737	0.427
Mof_Cl	Cl	0.57144	0.74128	0.89425	-0.375
Mof_H 	H 	0.499	0.6529	0.131	0.085
Mof_N 	N 	0.60445	0.65229	0.242	-0.121
Mof_N 	N 	0.51177	0.62686	0.0887	-0.102
Mof_N 	N 	0.55582	0.60669	0.8604	-0.116
Mof_N 	N 	0.56379	0.58277	0.7529	-0.064
Mof_N 	N 	0.63907	0.65889	0.3454	-0.064
Mof_N 	N 	0.61221	0.61872	0.4332	-0.046
Mof_N 	N 	0.55917	0.5848	0.3897	-0.117
Mof_N 	N 	0.51411	0.54777	0.701	-0.062
Mof_N 	N 	0.47314	0.54824	0.7725	-0.092
Mof_C 	C 	0.22257	0.93995	0.60603	0.187
Mof_C 	C 	0.17323	0.91535	0.51403	-0.213
Mof_H 	H 	0.13827	0.90043	0.56513	0.122
Mof_H 	H 	0.17227	0.88443	0.46323	0.113
Mof_C 	C 	0.13959	0.93615	0.30753	-0.197
Mof_H 	H 	0.10407	0.90353	0.33643	0.102
Mof_H 	H 	0.13127	0.96433	0.27093	0.12
Mof_C 	C 	0.16675	0.91858	0.20363	0.18
Mof_Cd	Cd	0.27855	0.01532	0.3407	0.419
Mof_Cl	Cl	0.23811	0.07461	0.22758	-0.379
Mof_H 	H 	0.16567	0.98623	0.46433	0.087
Mof_N 	N 	0.27112	0.98562	0.57533	-0.119
Mof_N 	N 	0.17844	0.96019	0.42203	-0.101
Mof_N 	N 	0.22249	0.94002	0.19373	-0.114
Mof_N 	N 	0.23046	0.9161	0.08623	-0.064
Mof_N 	N 	0.30574	0.99222	0.67873	-0.061
Mof_N 	N 	0.27888	0.95205	0.76653	-0.044
Mof_N 	N 	0.22584	0.91813	0.72303	-0.116
Mof_N 	N 	0.18078	0.8811	0.03433	-0.062
Mof_N 	N 	0.13981	0.88157	0.10583	-0.093
Mof_C 	C 	0.88923	0.27329	0.93937	0.184
Mof_C 	C 	0.83989	0.24869	0.84737	-0.213
Mof_H 	H 	0.80493	0.23377	0.89847	0.122
Mof_H 	H 	0.83893	0.21777	0.79657	0.113
Mof_C 	C 	0.80625	0.26949	0.64087	-0.198
Mof_H 	H 	0.77073	0.23687	0.66977	0.104
Mof_H 	H 	0.79793	0.29767	0.60427	0.12
Mof_C 	C 	0.83341	0.25192	0.53697	0.18
Mof_Cd	Cd	0.94521	0.34865	0.67404	0.433
Mof_Cl	Cl	0.90477	0.40795	0.56092	-0.373
Mof_H 	H 	0.83233	0.31957	0.79767	0.085
Mof_N 	N 	0.93778	0.31896	0.90867	-0.12
Mof_N 	N 	0.8451	0.29353	0.75537	-0.102
Mof_N 	N 	0.88915	0.27336	0.52707	-0.115
Mof_N 	N 	0.89712	0.24944	0.41957	-0.064
Mof_N 	N 	0.9724	0.32556	0.01207	-0.06
Mof_N 	N 	0.94554	0.28539	0.09987	-0.044
Mof_N 	N 	0.8925	0.25147	0.05637	-0.115
Mof_N 	N 	0.84744	0.21444	0.36767	-0.062
Mof_N 	N 	0.80647	0.21491	0.43917	-0.092
Mof_C 	C 	0.39338	0.94928	0.2727	0.187
Mof_C 	C 	0.41798	0.92454	0.1807	-0.215
Mof_H 	H 	0.4329	0.9045	0.2318	0.123
Mof_H 	H 	0.4489	0.9545	0.1299	0.115
Mof_C 	C 	0.39718	0.8701	0.9742	-0.192
Mof_H 	H 	0.4298	0.8672	0.0031	0.101
Mof_H 	H 	0.369	0.8336	0.9376	0.118
Mof_C 	C 	0.41475	0.91483	0.8703	0.18
Mof_Cd	Cd	0.31802	0.9299	0.00737	0.428
Mof_Cl	Cl	0.25872	0.83016	0.89425	-0.374
Mof_H 	H 	0.3471	0.8461	0.131	0.085
Mof_N 	N 	0.34771	0.95216	0.242	-0.12
Mof_N 	N 	0.37314	0.88491	0.0887	-0.103
Mof_N 	N 	0.39331	0.94913	0.8604	-0.114
Mof_N 	N 	0.41723	0.98102	0.7529	-0.061
Mof_N 	N 	0.34111	0.98018	0.3454	-0.062
Mof_N 	N 	0.38128	0.99349	0.4332	-0.043
Mof_N 	N 	0.4152	0.97437	0.3897	-0.114
Mof_N 	N 	0.45223	0.96634	0.701	-0.059
Mof_N 	N 	0.45176	0.9249	0.7725	-0.091
Mof_C 	C 	0.06005	0.28261	0.60603	0.185
Mof_C 	C 	0.08465	0.25787	0.51403	-0.215
Mof_H 	H 	0.09957	0.23783	0.56513	0.122
Mof_H 	H 	0.11557	0.28783	0.46323	0.113
Mof_C 	C 	0.06385	0.20343	0.30753	-0.197
Mof_H 	H 	0.09647	0.20053	0.33643	0.103
Mof_H 	H 	0.03567	0.16693	0.27093	0.117
Mof_C 	C 	0.08142	0.24816	0.20363	0.178
Mof_Cd	Cd	0.98468	0.26323	0.3407	0.436
Mof_Cl	Cl	0.92539	0.16349	0.22758	-0.373
Mof_H 	H 	0.01377	0.17943	0.46433	0.082
Mof_N 	N 	0.01438	0.28549	0.57533	-0.123
Mof_N 	N 	0.03981	0.21824	0.42203	-0.103
Mof_N 	N 	0.05998	0.28246	0.19373	-0.118
Mof_N 	N 	0.0839	0.31435	0.08623	-0.065
Mof_N 	N 	0.00778	0.31351	0.67873	-0.066
Mof_N 	N 	0.04795	0.32682	0.76653	-0.046
Mof_N 	N 	0.08187	0.3077	0.72303	-0.117
Mof_N 	N 	0.1189	0.29967	0.03433	-0.062
Mof_N 	N 	0.11843	0.25823	0.10583	-0.093
Mof_C 	C 	0.72671	0.61595	0.93937	0.185
Mof_C 	C 	0.75131	0.59121	0.84737	-0.214
Mof_H 	H 	0.76623	0.57117	0.89847	0.122
Mof_H 	H 	0.78223	0.62117	0.79657	0.113
Mof_C 	C 	0.73051	0.53677	0.64087	-0.198
Mof_H 	H 	0.76313	0.53387	0.66977	0.104
Mof_H 	H 	0.70233	0.50027	0.60427	0.12
Mof_C 	C 	0.74808	0.5815	0.53697	0.18
Mof_Cd	Cd	0.65135	0.59656	0.67404	0.427
Mof_Cl	Cl	0.59205	0.49683	0.56092	-0.376
Mof_H 	H 	0.68043	0.51277	0.79767	0.085
Mof_N 	N 	0.68104	0.61883	0.90867	-0.121
Mof_N 	N 	0.70647	0.55158	0.75537	-0.102
Mof_N 	N 	0.72664	0.6158	0.52707	-0.116
Mof_N 	N 	0.75056	0.64769	0.41957	-0.064
Mof_N 	N 	0.67444	0.64685	0.01207	-0.064
Mof_N 	N 	0.71461	0.66016	0.09987	-0.045
Mof_N 	N 	0.74853	0.64104	0.05637	-0.116
Mof_N 	N 	0.78556	0.63301	0.36767	-0.062
Mof_N 	N 	0.78509	0.59157	0.43917	-0.092
Mof_Cd	Cd	0.83333	0.66667	0.16667	0.468
Mof_Cd	Cd	0.5	-3.97206e-33	0.5	0.46
Mof_Cd	Cd	0.33333	0.16667	0.16667	0.468
Mof_Cd	Cd	-5.82351e-17	0.5	0.5	0.46
Mof_Cd	Cd	0.83333	0.16667	0.16667	0.469
Mof_Cd	Cd	0.5	0.5	0.5	0.468
Mof_Cd	Cd	0.16667	0.33333	0.83333	0.468
Mof_Cd	Cd	0.66667	0.83333	0.83333	0.468
Mof_Cd	Cd	0.16667	0.83333	0.83333	0.469
_end
