data_functionalizedCrystal
_audit_creation_method	'EQeq! by Chris Wilmer'
_symmetry_space_group_name_H-M	'P1'
_symmetry_Int_Tables_number	1
_symmetry_cell_setting	triclinic
loop_
_symmetry_equiv_pos_as_xyz
  x,y,z
_cell_length_a	13.3069
_cell_length_b	25.629
_cell_length_c	9.856
_cell_angle_alpha	90
_cell_angle_beta	91.455
_cell_angle_gamma	90
loop_
_atom_site_label
_atom_site_type_symbol
_atom_site_fract_x
_atom_site_fract_y
_atom_site_fract_z
_atom_site_charge
Mof_Cu	Cu	0.28158	0.51451	0.61777	0.916
Mof_Cu	Cu	0.45975	0.45968	0.55024	0.912
Mof_Cu	Cu	0.38741	0.54877	0.35097	0.912
Mof_Cu	Cu	0.76672	0.88946	0.60964	0.91
Mof_Cl	Cl	0.67617	0.81998	0.54022	-0.453
Mof_Cl	Cl	0.30079	0.5486	0.86157	-0.619
Mof_O 	O 	0.2984	0.60839	0.386	-0.459
Mof_N 	N 	0.0147	0.80025	0.5239	-0.146
Mof_O 	O 	0.347	0.44926	0.6645	-0.663
Mof_O 	O 	0.4127	0.53335	0.5417	-0.51
Mof_N 	N 	0.1426	0.57175	0.158	-0.198
Mof_O 	O 	0.5814	0.47359	0.4574	-0.429
Mof_N 	N 	0.1494	0.51823	0.1593	-0.197
Mof_C 	C 	0.1754	0.66059	0.4889	-0.173
Mof_O 	O 	0.2088	0.57561	0.5557	-0.415
Mof_N 	N 	0.9999	0.53904	0.2181	-0.22
Mof_C 	C 	0.7008	0.51602	0.322	-0.18
Mof_O 	O 	0.5254	0.52945	0.296	-0.473
Mof_N 	N 	0.9794	0.8824	0.5425	-0.231
Mof_C 	C 	0.1906	0.70248	0.3948	0.122
Mof_H 	H 	0.2371	0.699	0.3238	0.002
Mof_C 	C 	0.8219	0.5663	0.2073	-0.206
Mof_H 	H 	0.8377	0.5949	0.1506	0.094
Mof_C 	C 	0.0652	0.499	0.1966	0.169
Mof_H 	H 	0.0509	0.4629	0.2074	0.002
Mof_C 	C 	0.1367	0.74773	0.4095	-0.205
Mof_H 	H 	0.1458	0.7758	0.3481	0.12
Mof_C 	C 	0.1061	0.6669	0.5882	0.135
Mof_H 	H 	0.0943	0.6389	0.6491	0.023
Mof_C 	C 	0.8745	0.4922	0.3462	-0.199
Mof_H 	H 	0.9262	0.4711	0.3854	0.09
Mof_C 	C 	0.7257	0.5562	0.241	0.125
Mof_H 	H 	0.6739	0.5783	0.2063	-0.008
Mof_N 	N 	0.8953	0.8535	0.5716	-0.19
Mof_C 	C 	0.8973	0.53318	0.2585	0.162
Mof_C 	C 	0.0509	0.85026	0.5139	0.179
Mof_H 	H 	0.1172	0.8597	0.49	-0.017
Mof_C 	C 	0.7768	0.4833	0.3737	0.111
Mof_H 	H 	0.7595	0.4544	0.4289	0.006
Mof_C 	C 	0.054	0.7119	0.6017	-0.196
Mof_H 	H 	0.0069	0.7159	0.6718	0.131
Mof_C 	C 	0.9192	0.80565	0.5587	0.069
Mof_H 	H 	0.8744	0.7773	0.5723	0.014
Mof_C 	C 	0.2314	0.61062	0.4739	0.41
Mof_C 	C 	0.5927	0.50499	0.3609	0.407
Mof_C 	C 	0.0714	0.75263	0.5096	0.199
Mof_C 	C 	0.0515	0.5833	0.1917	0.168
Mof_H 	H 	0.0251	0.6176	0.1969	0.005
Mof_Cu	Cu	0.78158	0.01451	0.61777	0.914
Mof_Cu	Cu	0.95975	0.95968	0.55024	0.893
Mof_Cu	Cu	0.88741	0.04877	0.35097	0.9
Mof_Cu	Cu	0.26672	0.38946	0.60964	0.911
Mof_Cl	Cl	0.17617	0.31998	0.54022	-0.438
Mof_Cl	Cl	0.80079	0.0486	0.86157	-0.629
Mof_O 	O 	0.7984	0.10839	0.386	-0.465
Mof_N 	N 	0.5147	0.30025	0.5239	-0.169
Mof_O 	O 	0.847	0.94926	0.6645	-0.669
Mof_O 	O 	0.9127	0.03335	0.5417	-0.529
Mof_N 	N 	0.6426	0.07175	0.158	-0.192
Mof_O 	O 	0.0814	0.97359	0.4574	-0.403
Mof_N 	N 	0.6494	0.01823	0.1593	-0.191
Mof_C 	C 	0.6754	0.16059	0.4889	-0.176
Mof_O 	O 	0.7088	0.07561	0.5557	-0.418
Mof_N 	N 	0.4999	0.03904	0.2181	-0.166
Mof_C 	C 	0.2008	0.01602	0.322	-0.171
Mof_O 	O 	0.0254	0.02945	0.296	-0.438
Mof_N 	N 	0.4794	0.3824	0.5425	-0.19
Mof_C 	C 	0.6906	0.20248	0.3948	0.115
Mof_H 	H 	0.7371	0.199	0.3238	-0.001
Mof_C 	C 	0.3219	0.0663	0.2073	-0.201
Mof_H 	H 	0.3377	0.0949	0.1506	0.103
Mof_C 	C 	0.5652	0.999	0.1966	0.117
Mof_H 	H 	0.5509	0.9629	0.2074	0.005
Mof_C 	C 	0.6367	0.24773	0.4095	-0.204
Mof_H 	H 	0.6458	0.2758	0.3481	0.112
Mof_C 	C 	0.6061	0.1669	0.5882	0.129
Mof_H 	H 	0.5943	0.1389	0.6491	0.018
Mof_C 	C 	0.3745	0.9922	0.3462	-0.192
Mof_H 	H 	0.4262	0.9711	0.3854	0.106
Mof_C 	C 	0.2257	0.0562	0.241	0.124
Mof_H 	H 	0.1739	0.0783	0.2063	-0.001
Mof_N 	N 	0.3953	0.3535	0.5716	-0.196
Mof_C 	C 	0.3973	0.03318	0.2585	0.17
Mof_C 	C 	0.5509	0.35026	0.5139	0.116
Mof_H 	H 	0.6172	0.3597	0.49	-0.004
Mof_C 	C 	0.2768	0.9833	0.3737	0.113
Mof_H 	H 	0.2595	0.9544	0.4289	0.01
Mof_C 	C 	0.554	0.2119	0.6017	-0.198
Mof_H 	H 	0.5069	0.2159	0.6718	0.116
Mof_C 	C 	0.4192	0.30565	0.5587	0.131
Mof_H 	H 	0.3744	0.2773	0.5723	0.008
Mof_C 	C 	0.7314	0.11062	0.4739	0.409
Mof_C 	C 	0.0927	0.00499	0.3609	0.403
Mof_C 	C 	0.5714	0.25263	0.5096	0.188
Mof_C 	C 	0.5515	0.0833	0.1917	0.114
Mof_H 	H 	0.5251	0.1176	0.1969	0.009
Mof_Cu	Cu	0.28158	0.48549	0.11777	0.913
Mof_Cu	Cu	0.45975	0.54032	0.05024	0.904
Mof_Cu	Cu	0.38741	0.45123	0.85097	0.915
Mof_Cu	Cu	0.76672	0.11054	0.10964	0.908
Mof_Cl	Cl	0.67617	0.18002	0.04022	-0.464
Mof_Cl	Cl	0.30079	0.4514	0.36157	-0.636
Mof_O 	O 	0.2984	0.39161	0.886	-0.457
Mof_N 	N 	0.0147	0.19975	0.0239	-0.133
Mof_O 	O 	0.347	0.55074	0.1645	-0.666
Mof_O 	O 	0.4127	0.46665	0.0417	-0.523
Mof_N 	N 	0.1426	0.42825	0.658	-0.197
Mof_O 	O 	0.5814	0.52641	0.9574	-0.417
Mof_N 	N 	0.1494	0.48177	0.6593	-0.195
Mof_C 	C 	0.1754	0.33941	0.9889	-0.121
Mof_O 	O 	0.2088	0.42439	0.0557	-0.432
Mof_N 	N 	0.9999	0.46096	0.7181	-0.22
Mof_C 	C 	0.7008	0.48398	0.822	-0.176
Mof_O 	O 	0.5254	0.47055	0.796	-0.469
Mof_N 	N 	0.9794	0.1176	0.0425	-0.226
Mof_C 	C 	0.1906	0.29752	0.8948	0.075
Mof_H 	H 	0.2371	0.301	0.8238	0.019
Mof_C 	C 	0.8219	0.4337	0.7073	-0.204
Mof_H 	H 	0.8377	0.4051	0.6506	0.098
Mof_C 	C 	0.0652	0.501	0.6966	0.173
Mof_H 	H 	0.0509	0.5371	0.7074	0.005
Mof_C 	C 	0.1367	0.25227	0.9095	-0.131
Mof_H 	H 	0.1458	0.2242	0.8481	0.101
Mof_C 	C 	0.1061	0.3331	0.0882	0.065
Mof_H 	H 	0.0943	0.3611	0.1491	0.041
Mof_C 	C 	0.8745	0.5078	0.8462	-0.197
Mof_H 	H 	0.9262	0.5289	0.8854	0.095
Mof_C 	C 	0.7257	0.4438	0.741	0.128
Mof_H 	H 	0.6739	0.4217	0.7063	-0.005
Mof_N 	N 	0.8953	0.1465	0.0716	-0.191
Mof_C 	C 	0.8973	0.46682	0.7585	0.166
Mof_C 	C 	0.0509	0.14974	0.0139	0.136
Mof_H 	H 	0.1172	0.1403	0.99	0.013
Mof_C 	C 	0.7768	0.5167	0.8737	0.113
Mof_H 	H 	0.7595	0.5456	0.9289	0.01
Mof_C 	C 	0.054	0.2881	0.1017	-0.144
Mof_H 	H 	0.0069	0.2841	0.1718	0.11
Mof_C 	C 	0.9192	0.19435	0.0587	0.066
Mof_H 	H 	0.8744	0.2227	0.0723	0.013
Mof_C 	C 	0.2314	0.38938	0.9739	0.418
Mof_C 	C 	0.5927	0.49501	0.8609	0.408
Mof_C 	C 	0.0714	0.24737	0.0096	0.136
Mof_C 	C 	0.0515	0.4167	0.6917	0.172
Mof_H 	H 	0.0251	0.3824	0.6969	0.008
Mof_Cu	Cu	0.78158	0.98549	0.11777	0.912
Mof_Cu	Cu	0.95975	0.04032	0.05024	0.887
Mof_Cu	Cu	0.88741	0.95123	0.85097	0.904
Mof_Cu	Cu	0.26672	0.61054	0.10964	0.909
Mof_Cl	Cl	0.17617	0.68002	0.04022	-0.449
Mof_Cl	Cl	0.80079	0.9514	0.36157	-0.646
Mof_O 	O 	0.7984	0.89161	0.886	-0.463
Mof_N 	N 	0.5147	0.69975	0.0239	-0.156
Mof_O 	O 	0.847	0.05074	0.1645	-0.672
Mof_O 	O 	0.9127	0.96665	0.0417	-0.54
Mof_N 	N 	0.6426	0.92825	0.658	-0.191
Mof_O 	O 	0.0814	0.02641	0.9574	-0.391
Mof_N 	N 	0.6494	0.98177	0.6593	-0.188
Mof_C 	C 	0.6754	0.83941	0.9889	-0.126
Mof_O 	O 	0.7088	0.92439	0.0557	-0.435
Mof_N 	N 	0.4999	0.96096	0.7181	-0.165
Mof_C 	C 	0.2008	0.98398	0.822	-0.167
Mof_O 	O 	0.0254	0.97055	0.796	-0.434
Mof_N 	N 	0.4794	0.6176	0.0425	-0.187
Mof_C 	C 	0.6906	0.79752	0.8948	0.07
Mof_H 	H 	0.7371	0.801	0.8238	0.015
Mof_C 	C 	0.3219	0.9337	0.7073	-0.199
Mof_H 	H 	0.3377	0.9051	0.6506	0.108
Mof_C 	C 	0.5652	0.001	0.6966	0.119
Mof_H 	H 	0.5509	0.0371	0.7074	0.009
Mof_C 	C 	0.6367	0.75227	0.9095	-0.134
Mof_H 	H 	0.6458	0.7242	0.8481	0.094
Mof_C 	C 	0.6061	0.8331	0.0882	0.062
Mof_H 	H 	0.5943	0.8611	0.1491	0.035
Mof_C 	C 	0.3745	0.0078	0.8462	-0.192
Mof_H 	H 	0.4262	0.0289	0.8854	0.111
Mof_C 	C 	0.2257	0.9438	0.741	0.127
Mof_H 	H 	0.1739	0.9217	0.7063	0.003
Mof_N 	N 	0.3953	0.6465	0.0716	-0.197
Mof_C 	C 	0.3973	0.96682	0.7585	0.175
Mof_C 	C 	0.5509	0.64974	0.0139	0.076
Mof_H 	H 	0.6172	0.6403	0.99	0.025
Mof_C 	C 	0.2768	0.0167	0.8737	0.115
Mof_H 	H 	0.2595	0.0456	0.9289	0.015
Mof_C 	C 	0.554	0.7881	0.1017	-0.149
Mof_H 	H 	0.5069	0.7841	0.1718	0.096
Mof_C 	C 	0.4192	0.69435	0.0587	0.126
Mof_H 	H 	0.3744	0.7227	0.0723	0.007
Mof_C 	C 	0.7314	0.88938	0.9739	0.416
Mof_C 	C 	0.0927	0.99501	0.8609	0.403
Mof_C 	C 	0.5714	0.74737	0.0096	0.129
Mof_C 	C 	0.5515	0.9167	0.6917	0.118
Mof_H 	H 	0.5251	0.8824	0.6969	0.011
_end
