data_functionalizedCrystal
_audit_creation_method	'EQeq! by Chris Wilmer'
_symmetry_space_group_name_H-M	'P1'
_symmetry_Int_Tables_number	1
_symmetry_cell_setting	triclinic
loop_
_symmetry_equiv_pos_as_xyz
  x,y,z
_cell_length_a	22.721
_cell_length_b	25.1986
_cell_length_c	25.1986
_cell_angle_alpha	103.681
_cell_angle_beta	108.966
_cell_angle_gamma	108.966
loop_
_atom_site_label
_atom_site_type_symbol
_atom_site_fract_x
_atom_site_fract_y
_atom_site_fract_z
_atom_site_charge
Mof_Zn	Zn	0.59342	0.52677	0.46599	1.21
Mof_Zn	Zn	0.27546	0.00893	0.4864	1.217
Mof_Zn	Zn	0.34793	0.93475	0.45911	1.218
Mof_Zn	Zn	0.90658	0.53401	0.47323	1.21
Mof_Zn	Zn	0.22454	0.5136	0.99107	1.216
Mof_Zn	Zn	0.15207	0.54089	0.06525	1.218
Mof_Zn	Zn	0.40658	0.47323	0.53401	1.21
Mof_Zn	Zn	0.72454	0.99107	0.5136	1.217
Mof_Zn	Zn	0.65207	0.06525	0.54089	1.218
Mof_Zn	Zn	0.09342	0.46599	0.52677	1.21
Mof_Zn	Zn	0.77546	0.4864	0.00893	1.216
Mof_Zn	Zn	0.84793	0.45911	0.93475	1.218
Mof_H 	H 	0.4079	0.3286	0.3484	0.061
Mof_H 	H 	0.4995	0.0726	0.4046	0.056
Mof_H 	H 	0.7595	0.7221	0.6911	0.052
Mof_H 	H 	0.6623	0.5809	0.8985	0.045
Mof_H 	H 	0.5404	0.0347	0.6443	0.06
Mof_H 	H 	0.592	0.291	0.9184	0.046
Mof_H 	H 	0.4508	0.518	0.4286	-0.012
Mof_H 	H 	0.6237	0.6528	0.4692	-0.02
Mof_H 	H 	0.3916	0.5753	0.4097	0.105
Mof_H 	H 	0.57	0.7114	0.4474	0.1
Mof_H 	H 	0.3911	0.6719	0.4109	0.065
Mof_H 	H 	0.5099	0.7585	0.4217	0.061
Mof_H 	H 	0.338	0.7298	0.4064	0.094
Mof_H 	H 	0.5169	0.8602	0.4378	0.104
Mof_H 	H 	0.2981	0.8017	0.4219	-0.011
Mof_H 	H 	0.4725	0.9281	0.4529	-0.004
Mof_H 	H 	0.6991	0.5504	0.053	-0.023
Mof_H 	H 	0.774	0.4447	0.1059	-0.013
Mof_H 	H 	0.6574	0.5589	0.1233	0.091
Mof_H 	H 	0.7393	0.4542	0.1834	0.092
Mof_H 	H 	0.6474	0.54	0.212	0.053
Mof_H 	H 	0.7216	0.4846	0.261	0.073
Mof_H 	H 	0.7256	0.4771	0.3547	0.111
Mof_H 	H 	0.6103	0.5542	0.2812	0.098
Mof_H 	H 	0.6901	0.4881	0.4305	-0.022
Mof_H 	H 	0.5773	0.5619	0.3577	-0.03
Mof_H 	H 	0.3415	0.1602	0.3	0.058
Mof_H 	H 	0.3131	0.2068	0.287	0.06
Mof_H 	H 	0.3754	0.2268	0.23	0.055
Mof_H 	H 	0.4035	0.1798	0.2428	0.058
Mof_H 	H 	0.2714	0.155	0.1608	0.016
Mof_H 	H 	0.2775	0.1066	0.1886	0.021
Mof_H 	H 	0.3495	0.0899	0.1453	0.112
Mof_H 	H 	0.351	0.1423	0.1215	0.104
Mof_H 	H 	0.2582	0.0241	0.0625	-0.053
Mof_H 	H 	0.2173	0.062	0.0728	-0.053
Mof_H 	H 	0.2195	0.0477	0.9775	0.195
Mof_H 	H 	0.3005	0.0827	0.0101	0.195
Mof_H 	H 	0.2558	0.1172	0.0182	0.202
Mof_H 	H 	0.6009	0.186	0.4112	0.06
Mof_H 	H 	0.5575	0.2033	0.3617	0.05
Mof_H 	H 	0.5959	0.136	0.3194	0.075
Mof_H 	H 	0.5559	0.0875	0.3397	0.082
Mof_H 	H 	0.4943	0.1257	0.2491	-0.007
Mof_H 	H 	0.4508	0.0844	0.2734	-0
Mof_H 	H 	0.4832	0.0082	0.2382	0.137
Mof_H 	H 	0.5253	0.0494	0.213	0.133
Mof_H 	H 	0.421	0.0422	0.1424	-0.085
Mof_H 	H 	0.3788	0.0012	0.1676	-0.079
Mof_H 	H 	0.3705	0.9391	0.0765	0.269
Mof_H 	H 	0.4095	0.9234	0.1298	0.265
Mof_H 	H 	0.4512	0.9643	0.1043	0.261
Mof_H 	H 	0.802	0.7291	0.8483	0.068
Mof_H 	H 	0.7591	0.761	0.819	0.066
Mof_H 	H 	0.8854	0.7702	0.8154	0.048
Mof_H 	H 	0.8415	0.7993	0.7821	0.048
Mof_H 	H 	0.911	0.8366	0.9094	0.025
Mof_H 	H 	0.8596	0.8616	0.8794	0.031
Mof_H 	H 	0.9887	0.8825	0.8697	0.091
Mof_H 	H 	0.9351	0.9017	0.8317	0.085
Mof_H 	H 	0.9998	0.9489	0.9615	-0.035
Mof_H 	H 	0.9472	0.9688	0.923	-0.034
Mof_H 	H 	0.0654	0.0409	0.9523	0.186
Mof_H 	H 	0.0259	0.0091	0.8813	0.182
Mof_H 	H 	0.0778	0.9881	0.9181	0.182
Mof_H 	H 	0.6393	0.6775	0.8553	0.043
Mof_H 	H 	0.6183	0.6521	0.7855	0.05
Mof_H 	H 	0.5288	0.5634	0.7708	0.088
Mof_H 	H 	0.5525	0.5831	0.8411	0.084
Mof_H 	H 	0.4594	0.6033	0.8055	-0.007
Mof_H 	H 	0.524	0.6668	0.8404	-0.014
Mof_H 	H 	0.4603	0.6071	0.7125	0.156
Mof_H 	H 	0.5224	0.6722	0.7486	0.15
Mof_H 	H 	0.3878	0.6436	0.744	-0.094
Mof_H 	H 	0.45	0.7085	0.7819	-0.105
Mof_H 	H 	0.3792	0.7064	0.6886	0.301
Mof_H 	H 	0.3897	0.6527	0.6533	0.306
Mof_H 	H 	0.4521	0.7174	0.691	0.297
Mof_H 	H 	0.6821	0.1473	0.7639	0.058
Mof_H 	H 	0.6521	0.1152	0.8016	0.048
Mof_H 	H 	0.6571	0.0555	0.6949	0.098
Mof_H 	H 	0.6187	0.0202	0.7262	0.088
Mof_H 	H 	0.7627	0.0955	0.7847	-0.003
Mof_H 	H 	0.7224	0.0535	0.8105	-0.007
Mof_H 	H 	0.699	0.9674	0.731	0.147
Mof_H 	H 	0.739	0.0092	0.705	0.154
Mof_H 	H 	0.7997	0.9946	0.8142	-0.093
Mof_H 	H 	0.8418	0.0457	0.7975	-0.088
Mof_H 	H 	0.7809	0.92	0.7212	0.261
Mof_H 	H 	0.8589	0.9548	0.7686	0.258
Mof_H 	H 	0.8324	0.973	0.7132	0.266
Mof_H 	H 	0.5091	0.168	0.8824	0.056
Mof_H 	H 	0.4767	0.1334	0.812	0.066
Mof_H 	H 	0.4194	0.1922	0.794	0.066
Mof_H 	H 	0.46	0.2374	0.8616	0.06
Mof_H 	H 	0.3558	0.1199	0.8257	0.02
Mof_H 	H 	0.3924	0.1703	0.8905	0.001
Mof_H 	H 	0.2914	0.1689	0.7889	0.088
Mof_H 	H 	0.3305	0.2229	0.8515	0.072
Mof_H 	H 	0.1574	0.0779	0.8249	0.245
Mof_H 	H 	0.2034	0.0585	0.7973	0.238
Mof_H 	H 	0.1616	0.0911	0.7681	0.248
Mof_H 	H 	0.0921	0.6516	0.6714	0.06
Mof_H 	H 	0.0005	0.5954	0.9274	0.054
Mof_H 	H 	0.7405	0.3089	0.2779	0.051
Mof_H 	H 	0.8377	0.1015	0.4191	0.044
Mof_H 	H 	0.9596	0.3557	0.9653	0.059
Mof_H 	H 	0.908	0.0816	0.709	0.046
Mof_H 	H 	0.0492	0.5714	0.482	-0.013
Mof_H 	H 	0.8763	0.5308	0.3472	-0.021
Mof_H 	H 	0.1084	0.5903	0.4247	0.105
Mof_H 	H 	0.93	0.5526	0.2886	0.1
Mof_H 	H 	0.1089	0.5891	0.3281	0.066
Mof_H 	H 	0.9901	0.5783	0.2415	0.058
Mof_H 	H 	0.162	0.5936	0.2702	0.093
Mof_H 	H 	0.9831	0.5622	0.1398	0.1
Mof_H 	H 	0.2019	0.5781	0.1983	-0.01
Mof_H 	H 	0.0275	0.5471	0.0719	-0.002
Mof_H 	H 	0.8009	0.947	0.4496	-0.023
Mof_H 	H 	0.726	0.8941	0.5553	-0.013
Mof_H 	H 	0.8426	0.8767	0.4411	0.091
Mof_H 	H 	0.7607	0.8166	0.5458	0.092
Mof_H 	H 	0.8526	0.788	0.46	0.053
Mof_H 	H 	0.7784	0.739	0.5154	0.073
Mof_H 	H 	0.7744	0.6453	0.5229	0.111
Mof_H 	H 	0.8897	0.7188	0.4458	0.098
Mof_H 	H 	0.8099	0.5695	0.5119	-0.022
Mof_H 	H 	0.9227	0.6423	0.4381	-0.03
Mof_H 	H 	0.1585	0.7	0.8398	0.058
Mof_H 	H 	0.1869	0.713	0.7932	0.06
Mof_H 	H 	0.1246	0.77	0.7732	0.055
Mof_H 	H 	0.0965	0.7572	0.8202	0.059
Mof_H 	H 	0.2286	0.8392	0.845	0.015
Mof_H 	H 	0.2225	0.8114	0.8934	0.02
Mof_H 	H 	0.1505	0.8547	0.9101	0.113
Mof_H 	H 	0.149	0.8785	0.8577	0.105
Mof_H 	H 	0.2418	0.9375	0.9759	-0.055
Mof_H 	H 	0.2827	0.9272	0.938	-0.055
Mof_H 	H 	0.2805	0.0225	0.9523	0.199
Mof_H 	H 	0.1995	0.9899	0.9173	0.198
Mof_H 	H 	0.2442	0.9818	0.8828	0.204
Mof_H 	H 	0.8991	0.5888	0.814	0.059
Mof_H 	H 	0.9425	0.6383	0.7967	0.05
Mof_H 	H 	0.9041	0.6806	0.864	0.075
Mof_H 	H 	0.9441	0.6603	0.9125	0.083
Mof_H 	H 	0.0057	0.7509	0.8743	-0.008
Mof_H 	H 	0.0492	0.7266	0.9156	-0
Mof_H 	H 	0.0168	0.7618	0.9918	0.137
Mof_H 	H 	0.9747	0.787	0.9506	0.135
Mof_H 	H 	0.079	0.8576	0.9578	-0.085
Mof_H 	H 	0.1212	0.8324	0.9988	-0.079
Mof_H 	H 	0.1295	0.9235	0.0609	0.268
Mof_H 	H 	0.0905	0.8702	0.0766	0.264
Mof_H 	H 	0.0488	0.8957	0.0357	0.261
Mof_H 	H 	0.698	0.1517	0.2709	0.068
Mof_H 	H 	0.7409	0.181	0.239	0.066
Mof_H 	H 	0.6146	0.1846	0.2298	0.047
Mof_H 	H 	0.6585	0.2179	0.2007	0.048
Mof_H 	H 	0.589	0.0906	0.1634	0.025
Mof_H 	H 	0.6404	0.1206	0.1384	0.031
Mof_H 	H 	0.5113	0.1303	0.1175	0.09
Mof_H 	H 	0.5649	0.1683	0.0983	0.084
Mof_H 	H 	0.5002	0.0385	0.0511	-0.034
Mof_H 	H 	0.5528	0.077	0.0312	-0.033
Mof_H 	H 	0.4346	0.0477	0.9591	0.184
Mof_H 	H 	0.4741	0.1187	0.9909	0.181
Mof_H 	H 	0.4222	0.0819	0.0119	0.18
Mof_H 	H 	0.8607	0.1447	0.3225	0.043
Mof_H 	H 	0.8817	0.2145	0.3479	0.05
Mof_H 	H 	0.9712	0.2292	0.4366	0.088
Mof_H 	H 	0.9475	0.1589	0.4169	0.083
Mof_H 	H 	0.0406	0.1945	0.3967	-0.006
Mof_H 	H 	0.976	0.1596	0.3332	-0.013
Mof_H 	H 	0.0397	0.2875	0.3929	0.156
Mof_H 	H 	0.9776	0.2514	0.3278	0.149
Mof_H 	H 	0.1122	0.256	0.3564	-0.093
Mof_H 	H 	0.05	0.2181	0.2915	-0.105
Mof_H 	H 	0.1208	0.3114	0.2936	0.3
Mof_H 	H 	0.1103	0.3467	0.3473	0.306
Mof_H 	H 	0.0479	0.309	0.2826	0.296
Mof_H 	H 	0.8179	0.2361	0.8527	0.058
Mof_H 	H 	0.8479	0.1984	0.8848	0.048
Mof_H 	H 	0.8429	0.3051	0.9445	0.099
Mof_H 	H 	0.8813	0.2738	0.9798	0.089
Mof_H 	H 	0.7373	0.2153	0.9045	-0.004
Mof_H 	H 	0.7776	0.1895	0.9465	-0.007
Mof_H 	H 	0.801	0.269	0.0326	0.146
Mof_H 	H 	0.761	0.295	0.9908	0.155
Mof_H 	H 	0.7003	0.1858	0.0054	-0.094
Mof_H 	H 	0.6582	0.2025	0.9543	-0.089
Mof_H 	H 	0.7191	0.2788	0.08	0.262
Mof_H 	H 	0.6411	0.2314	0.0452	0.259
Mof_H 	H 	0.6676	0.2868	0.027	0.267
Mof_H 	H 	0.9909	0.1176	0.832	0.06
Mof_H 	H 	0.0233	0.188	0.8666	0.068
Mof_H 	H 	0.0806	0.206	0.8078	0.064
Mof_H 	H 	0.04	0.1384	0.7626	0.058
Mof_H 	H 	0.1442	0.1743	0.8801	0.02
Mof_H 	H 	0.1076	0.1095	0.8297	0.001
Mof_H 	H 	0.2086	0.2111	0.8311	0.088
Mof_H 	H 	0.1695	0.1485	0.7771	0.071
Mof_H 	H 	0.3426	0.1751	0.9221	0.245
Mof_H 	H 	0.2966	0.2027	0.9415	0.238
Mof_H 	H 	0.3384	0.2319	0.9089	0.249
Mof_H 	H 	0.5921	0.6714	0.6516	0.06
Mof_H 	H 	0.5005	0.9274	0.5954	0.055
Mof_H 	H 	0.2405	0.2779	0.3089	0.051
Mof_H 	H 	0.3377	0.4191	0.1015	0.044
Mof_H 	H 	0.4596	0.9653	0.3557	0.059
Mof_H 	H 	0.408	0.709	0.0816	0.045
Mof_H 	H 	0.5492	0.482	0.5714	-0.013
Mof_H 	H 	0.3763	0.3472	0.5308	-0.021
Mof_H 	H 	0.6084	0.4247	0.5903	0.104
Mof_H 	H 	0.43	0.2886	0.5526	0.099
Mof_H 	H 	0.6089	0.3281	0.5891	0.065
Mof_H 	H 	0.4901	0.2415	0.5783	0.061
Mof_H 	H 	0.662	0.2702	0.5936	0.094
Mof_H 	H 	0.4831	0.1398	0.5622	0.104
Mof_H 	H 	0.7019	0.1983	0.5781	-0.011
Mof_H 	H 	0.5275	0.0719	0.5471	-0.004
Mof_H 	H 	0.3009	0.4496	0.947	-0.023
Mof_H 	H 	0.226	0.5553	0.8941	-0.013
Mof_H 	H 	0.3426	0.4411	0.8767	0.091
Mof_H 	H 	0.2607	0.5458	0.8166	0.092
Mof_H 	H 	0.3526	0.46	0.788	0.053
Mof_H 	H 	0.2784	0.5154	0.739	0.073
Mof_H 	H 	0.2744	0.5229	0.6453	0.111
Mof_H 	H 	0.3897	0.4458	0.7188	0.098
Mof_H 	H 	0.3099	0.5119	0.5695	-0.022
Mof_H 	H 	0.4227	0.4381	0.6423	-0.03
Mof_H 	H 	0.6585	0.8398	0.7	0.058
Mof_H 	H 	0.6869	0.7932	0.713	0.06
Mof_H 	H 	0.6246	0.7732	0.77	0.055
Mof_H 	H 	0.5965	0.8202	0.7572	0.058
Mof_H 	H 	0.7286	0.845	0.8392	0.016
Mof_H 	H 	0.7225	0.8934	0.8114	0.021
Mof_H 	H 	0.6505	0.9101	0.8547	0.112
Mof_H 	H 	0.649	0.8577	0.8785	0.104
Mof_H 	H 	0.7418	0.9759	0.9375	-0.053
Mof_H 	H 	0.7827	0.938	0.9272	-0.053
Mof_H 	H 	0.7805	0.9523	0.0225	0.195
Mof_H 	H 	0.6995	0.9173	0.9899	0.195
Mof_H 	H 	0.7442	0.8828	0.9818	0.202
Mof_H 	H 	0.3991	0.814	0.5888	0.06
Mof_H 	H 	0.4425	0.7967	0.6383	0.05
Mof_H 	H 	0.4041	0.864	0.6806	0.075
Mof_H 	H 	0.4441	0.9125	0.6603	0.082
Mof_H 	H 	0.5057	0.8743	0.7509	-0.007
Mof_H 	H 	0.5492	0.9156	0.7266	-0
Mof_H 	H 	0.5168	0.9918	0.7618	0.137
Mof_H 	H 	0.4747	0.9506	0.787	0.133
Mof_H 	H 	0.579	0.9578	0.8576	-0.085
Mof_H 	H 	0.6212	0.9988	0.8324	-0.079
Mof_H 	H 	0.6295	0.0609	0.9235	0.269
Mof_H 	H 	0.5905	0.0766	0.8702	0.265
Mof_H 	H 	0.5488	0.0357	0.8957	0.261
Mof_H 	H 	0.198	0.2709	0.1517	0.068
Mof_H 	H 	0.2409	0.239	0.181	0.066
Mof_H 	H 	0.1146	0.2298	0.1846	0.048
Mof_H 	H 	0.1585	0.2007	0.2179	0.048
Mof_H 	H 	0.089	0.1634	0.0906	0.025
Mof_H 	H 	0.1404	0.1384	0.1206	0.031
Mof_H 	H 	0.0113	0.1175	0.1303	0.091
Mof_H 	H 	0.0649	0.0983	0.1683	0.085
Mof_H 	H 	0.0002	0.0511	0.0385	-0.035
Mof_H 	H 	0.0528	0.0312	0.077	-0.034
Mof_H 	H 	0.9346	0.9591	0.0477	0.186
Mof_H 	H 	0.9741	0.9909	0.1187	0.182
Mof_H 	H 	0.9222	0.0119	0.0819	0.182
Mof_H 	H 	0.3607	0.3225	0.1447	0.043
Mof_H 	H 	0.3817	0.3479	0.2145	0.05
Mof_H 	H 	0.4712	0.4366	0.2292	0.088
Mof_H 	H 	0.4475	0.4169	0.1589	0.084
Mof_H 	H 	0.5406	0.3967	0.1945	-0.007
Mof_H 	H 	0.476	0.3332	0.1596	-0.014
Mof_H 	H 	0.5397	0.3929	0.2875	0.156
Mof_H 	H 	0.4776	0.3278	0.2514	0.15
Mof_H 	H 	0.6122	0.3564	0.256	-0.094
Mof_H 	H 	0.55	0.2915	0.2181	-0.105
Mof_H 	H 	0.6208	0.2936	0.3114	0.301
Mof_H 	H 	0.6103	0.3473	0.3467	0.306
Mof_H 	H 	0.5479	0.2826	0.309	0.297
Mof_H 	H 	0.3179	0.8527	0.2361	0.058
Mof_H 	H 	0.3479	0.8848	0.1984	0.048
Mof_H 	H 	0.3429	0.9445	0.3051	0.098
Mof_H 	H 	0.3813	0.9798	0.2738	0.088
Mof_H 	H 	0.2373	0.9045	0.2153	-0.003
Mof_H 	H 	0.2776	0.9465	0.1895	-0.007
Mof_H 	H 	0.301	0.0326	0.269	0.147
Mof_H 	H 	0.261	0.9908	0.295	0.154
Mof_H 	H 	0.2003	0.0054	0.1858	-0.093
Mof_H 	H 	0.1582	0.9543	0.2025	-0.088
Mof_H 	H 	0.2191	0.08	0.2788	0.261
Mof_H 	H 	0.1411	0.0452	0.2314	0.258
Mof_H 	H 	0.1676	0.027	0.2868	0.266
Mof_H 	H 	0.4909	0.832	0.1176	0.056
Mof_H 	H 	0.5233	0.8666	0.188	0.066
Mof_H 	H 	0.5806	0.8078	0.206	0.066
Mof_H 	H 	0.54	0.7626	0.1384	0.06
Mof_H 	H 	0.6442	0.8801	0.1743	0.02
Mof_H 	H 	0.6076	0.8297	0.1095	0.001
Mof_H 	H 	0.7086	0.8311	0.2111	0.088
Mof_H 	H 	0.6695	0.7771	0.1485	0.072
Mof_H 	H 	0.8426	0.9221	0.1751	0.245
Mof_H 	H 	0.7966	0.9415	0.2027	0.238
Mof_H 	H 	0.8384	0.9089	0.2319	0.248
Mof_H 	H 	0.9079	0.3484	0.3286	0.06
Mof_H 	H 	0.9995	0.4046	0.0726	0.054
Mof_H 	H 	0.2595	0.6911	0.7221	0.051
Mof_H 	H 	0.1623	0.8985	0.5809	0.044
Mof_H 	H 	0.0404	0.6443	0.0347	0.059
Mof_H 	H 	0.092	0.9184	0.291	0.046
Mof_H 	H 	0.9508	0.4286	0.518	-0.013
Mof_H 	H 	0.1237	0.4692	0.6528	-0.021
Mof_H 	H 	0.8916	0.4097	0.5753	0.105
Mof_H 	H 	0.07	0.4474	0.7114	0.1
Mof_H 	H 	0.8911	0.4109	0.6719	0.066
Mof_H 	H 	0.0099	0.4217	0.7585	0.058
Mof_H 	H 	0.838	0.4064	0.7298	0.093
Mof_H 	H 	0.0169	0.4378	0.8602	0.1
Mof_H 	H 	0.7981	0.4219	0.8017	-0.01
Mof_H 	H 	0.9725	0.4529	0.9281	-0.002
Mof_H 	H 	0.1991	0.053	0.5504	-0.023
Mof_H 	H 	0.274	0.1059	0.4447	-0.013
Mof_H 	H 	0.1574	0.1233	0.5589	0.091
Mof_H 	H 	0.2393	0.1834	0.4542	0.092
Mof_H 	H 	0.1474	0.212	0.54	0.053
Mof_H 	H 	0.2216	0.261	0.4846	0.073
Mof_H 	H 	0.2256	0.3547	0.4771	0.111
Mof_H 	H 	0.1103	0.2812	0.5542	0.098
Mof_H 	H 	0.1901	0.4305	0.4881	-0.022
Mof_H 	H 	0.0773	0.3577	0.5619	-0.03
Mof_H 	H 	0.8415	0.3	0.1602	0.058
Mof_H 	H 	0.8131	0.287	0.2068	0.06
Mof_H 	H 	0.8754	0.23	0.2268	0.055
Mof_H 	H 	0.9035	0.2428	0.1798	0.059
Mof_H 	H 	0.7714	0.1608	0.155	0.015
Mof_H 	H 	0.7775	0.1886	0.1066	0.02
Mof_H 	H 	0.8495	0.1453	0.0899	0.113
Mof_H 	H 	0.851	0.1215	0.1423	0.105
Mof_H 	H 	0.7582	0.0625	0.0241	-0.055
Mof_H 	H 	0.7173	0.0728	0.062	-0.055
Mof_H 	H 	0.7195	0.9775	0.0477	0.199
Mof_H 	H 	0.8005	0.0101	0.0827	0.198
Mof_H 	H 	0.7558	0.0182	0.1172	0.204
Mof_H 	H 	0.1009	0.4112	0.186	0.059
Mof_H 	H 	0.0575	0.3617	0.2033	0.05
Mof_H 	H 	0.0959	0.3194	0.136	0.075
Mof_H 	H 	0.0559	0.3397	0.0875	0.083
Mof_H 	H 	0.9943	0.2491	0.1257	-0.008
Mof_H 	H 	0.9508	0.2734	0.0844	-0
Mof_H 	H 	0.9832	0.2382	0.0082	0.137
Mof_H 	H 	0.0253	0.213	0.0494	0.135
Mof_H 	H 	0.921	0.1424	0.0422	-0.085
Mof_H 	H 	0.8788	0.1676	0.0012	-0.079
Mof_H 	H 	0.8705	0.0765	0.9391	0.268
Mof_H 	H 	0.9095	0.1298	0.9234	0.264
Mof_H 	H 	0.9512	0.1043	0.9643	0.261
Mof_H 	H 	0.302	0.8483	0.7291	0.068
Mof_H 	H 	0.2591	0.819	0.761	0.066
Mof_H 	H 	0.3854	0.8154	0.7702	0.047
Mof_H 	H 	0.3415	0.7821	0.7993	0.048
Mof_H 	H 	0.411	0.9094	0.8366	0.025
Mof_H 	H 	0.3596	0.8794	0.8616	0.031
Mof_H 	H 	0.4887	0.8697	0.8825	0.09
Mof_H 	H 	0.4351	0.8317	0.9017	0.084
Mof_H 	H 	0.4998	0.9615	0.9489	-0.034
Mof_H 	H 	0.4472	0.923	0.9688	-0.033
Mof_H 	H 	0.5654	0.9523	0.0409	0.184
Mof_H 	H 	0.5259	0.8813	0.0091	0.181
Mof_H 	H 	0.5778	0.9181	0.9881	0.18
Mof_H 	H 	0.1393	0.8553	0.6775	0.043
Mof_H 	H 	0.1183	0.7855	0.6521	0.05
Mof_H 	H 	0.0288	0.7708	0.5634	0.088
Mof_H 	H 	0.0525	0.8411	0.5831	0.083
Mof_H 	H 	0.9594	0.8055	0.6033	-0.006
Mof_H 	H 	0.024	0.8404	0.6668	-0.013
Mof_H 	H 	0.9603	0.7125	0.6071	0.156
Mof_H 	H 	0.0224	0.7486	0.6722	0.149
Mof_H 	H 	0.8878	0.744	0.6436	-0.093
Mof_H 	H 	0.95	0.7819	0.7085	-0.105
Mof_H 	H 	0.8792	0.6886	0.7064	0.3
Mof_H 	H 	0.8897	0.6533	0.6527	0.306
Mof_H 	H 	0.9521	0.691	0.7174	0.296
Mof_H 	H 	0.1821	0.7639	0.1473	0.058
Mof_H 	H 	0.1521	0.8016	0.1152	0.048
Mof_H 	H 	0.1571	0.6949	0.0555	0.099
Mof_H 	H 	0.1187	0.7262	0.0202	0.089
Mof_H 	H 	0.2627	0.7847	0.0955	-0.004
Mof_H 	H 	0.2224	0.8105	0.0535	-0.007
Mof_H 	H 	0.199	0.731	0.9674	0.146
Mof_H 	H 	0.239	0.705	0.0092	0.155
Mof_H 	H 	0.2997	0.8142	0.9946	-0.094
Mof_H 	H 	0.3418	0.7975	0.0457	-0.089
Mof_H 	H 	0.2809	0.7212	0.92	0.262
Mof_H 	H 	0.3589	0.7686	0.9548	0.259
Mof_H 	H 	0.3324	0.7132	0.973	0.267
Mof_H 	H 	0.0091	0.8824	0.168	0.06
Mof_H 	H 	0.9767	0.812	0.1334	0.068
Mof_H 	H 	0.9194	0.794	0.1922	0.064
Mof_H 	H 	0.96	0.8616	0.2374	0.058
Mof_H 	H 	0.8558	0.8257	0.1199	0.02
Mof_H 	H 	0.8924	0.8905	0.1703	0.001
Mof_H 	H 	0.7914	0.7889	0.1689	0.088
Mof_H 	H 	0.8305	0.8515	0.2229	0.071
Mof_H 	H 	0.6574	0.8249	0.0779	0.245
Mof_H 	H 	0.7034	0.7973	0.0585	0.238
Mof_H 	H 	0.6616	0.7681	0.0911	0.249
Mof_C 	C 	0.5416	0.41455	0.43607	0.303
Mof_C 	C 	0.4999	0.34688	0.41052	-0.063
Mof_C 	C 	0.4359	0.31272	0.36808	-0.056
Mof_C 	C 	0.4132	0.24881	0.35479	0.028
Mof_C 	C 	0.4635	0.23794	0.39034	-0.026
Mof_C 	C 	0.4589	0.18062	0.39636	-0.02
Mof_C 	C 	0.4997	0.15122	0.3922	0.024
Mof_C 	C 	0.478	0.09824	0.40514	-0.037
Mof_C 	C 	0.4231	0.08835	0.41841	-0.091
Mof_C 	C 	0.3868	0.03977	0.43547	0.372
Mof_C 	C 	0.6845	0.61566	0.58534	0.335
Mof_C 	C 	0.704	0.63108	0.65106	-0.076
Mof_C 	C 	0.7407	0.68652	0.69708	-0.059
Mof_C 	C 	0.7484	0.68579	0.75549	0.032
Mof_C 	C 	0.7174	0.62734	0.75148	-0.034
Mof_C 	C 	0.7137	0.6055	0.79942	-0.014
Mof_C 	C 	0.6766	0.61195	0.83187	0.002
Mof_C 	C 	0.6836	0.58107	0.87261	-0.024
Mof_C 	C 	0.7239	0.55222	0.87008	-0.093
Mof_C 	C 	0.7454	0.51835	0.90647	0.376
Mof_C 	C 	0.411	0.03121	0.58085	0.379
Mof_C 	C 	0.4694	0.0681	0.64172	-0.091
Mof_C 	C 	0.5304	0.06355	0.66525	-0.039
Mof_C 	C 	0.5765	0.1074	0.72488	0.014
Mof_C 	C 	0.5494	0.14484	0.74436	-0.02
Mof_C 	C 	0.5819	0.19937	0.80101	-0.032
Mof_C 	C 	0.5573	0.21439	0.84241	0.036
Mof_C 	C 	0.6009	0.27363	0.88683	-0.045
Mof_C 	C 	0.6577	0.30299	0.87851	-0.087
Mof_C 	C 	0.7134	0.36564	0.91492	0.37
Mof_C 	C 	0.4752	0.55782	0.4334	0.105
Mof_C 	C 	0.5761	0.63672	0.45656	0.118
Mof_C 	C 	0.439	0.59204	0.42148	-0.185
Mof_C 	C 	0.5445	0.6726	0.4444	-0.192
Mof_C 	C 	0.4736	0.65093	0.42719	0.141
Mof_C 	C 	0.4375	0.68831	0.41867	-0.097
Mof_C 	C 	0.4664	0.7447	0.4212	-0.086
Mof_C 	C 	0.4339	0.78659	0.42331	0.134
Mof_C 	C 	0.367	0.77027	0.41693	-0.183
Mof_C 	C 	0.4726	0.84721	0.43555	-0.186
Mof_C 	C 	0.3432	0.81355	0.42605	0.108
Mof_C 	C 	0.4453	0.88763	0.44419	0.118
Mof_C 	C 	0.7072	0.53052	0.07948	0.12
Mof_C 	C 	0.7518	0.46931	0.11069	0.097
Mof_C 	C 	0.6836	0.53724	0.12256	-0.198
Mof_C 	C 	0.7311	0.47486	0.15774	-0.181
Mof_C 	C 	0.6984	0.51193	0.16507	0.126
Mof_C 	C 	0.6764	0.52082	0.21398	-0.082
Mof_C 	C 	0.6935	0.50458	0.25942	-0.107
Mof_C 	C 	0.6724	0.51492	0.30948	0.151
Mof_C 	C 	0.6956	0.49497	0.35467	-0.212
Mof_C 	C 	0.6274	0.54043	0.31117	-0.207
Mof_C 	C 	0.674	0.50183	0.40013	0.11
Mof_C 	C 	0.6082	0.5451	0.3575	0.113
Mof_C 	C 	0.3531	0.1984	0.2942	-0.129
Mof_C 	C 	0.3639	0.1888	0.2362	-0.128
Mof_C 	C 	0.3025	0.1385	0.1781	0.008
Mof_C 	C 	0.3222	0.1101	0.1295	-0.295
Mof_C 	C 	0.2591	0.064	0.0692	0.233
Mof_C 	C 	0.259	0.0793	0.0135	-0.657
Mof_C 	C 	0.5576	0.17036	0.37524	-0.1
Mof_C 	C 	0.5549	0.12026	0.32594	-0.178
Mof_C 	C 	0.4917	0.09477	0.26623	0.086
Mof_C 	C 	0.4848	0.0388	0.2208	-0.381
Mof_C 	C 	0.4194	0.0116	0.1598	0.332
Mof_C 	C 	0.4119	0.9541	0.1131	-0.815
Mof_C 	C 	0.7889	0.74175	0.81445	-0.151
Mof_C 	C 	0.8542	0.7885	0.8173	-0.094
Mof_C 	C 	0.8918	0.8458	0.8742	-0.04
Mof_C 	C 	0.9529	0.8957	0.8691	-0.237
Mof_C 	C 	0.9825	0.9549	0.9239	0.158
Mof_C 	C 	0.0441	0.0031	0.9183	-0.589
Mof_C 	C 	0.6217	0.6407	0.8201	-0.082
Mof_C 	C 	0.549	0.598	0.8086	-0.198
Mof_C 	C 	0.5011	0.6295	0.8049	0.109
Mof_C 	C 	0.4813	0.644	0.7482	-0.421
Mof_C 	C 	0.4295	0.6723	0.7455	0.406
Mof_C 	C 	0.4109	0.6887	0.6893	-0.912
Mof_C 	C 	0.6465	0.11104	0.76078	-0.087
Mof_C 	C 	0.6573	0.05684	0.73376	-0.199
Mof_C 	C 	0.7243	0.05697	0.77343	0.106
Mof_C 	C 	0.7375	0.00585	0.74215	-0.407
Mof_C 	C 	0.804	0.00531	0.78069	0.355
Mof_C 	C 	0.8207	0.9588	0.7422	-0.813
Mof_C 	C 	0.4955	0.1725	0.8435	-0.141
Mof_C 	C 	0.4377	0.1947	0.8355	-0.125
Mof_C 	C 	0.3742	0.1632	0.8476	-0.015
Mof_C 	C 	0.3116	0.1791	0.8323	-0.242
Mof_C 	C 	0.187	0.0887	0.8055	-0.773
Mof_C 	C 	0.9584	0.56393	0.58545	0.304
Mof_C 	C 	0.0001	0.58948	0.65312	-0.065
Mof_C 	C 	0.0641	0.63192	0.68728	-0.056
Mof_C 	C 	0.0868	0.64521	0.75119	0.028
Mof_C 	C 	0.0365	0.60966	0.76206	-0.027
Mof_C 	C 	0.0411	0.60364	0.81938	-0.019
Mof_C 	C 	0.0003	0.6078	0.84878	0.022
Mof_C 	C 	0.022	0.59486	0.90176	-0.037
Mof_C 	C 	0.0769	0.58159	0.91165	-0.091
Mof_C 	C 	0.1132	0.56453	0.96023	0.37
Mof_C 	C 	0.8155	0.41466	0.38434	0.335
Mof_C 	C 	0.796	0.34894	0.36892	-0.076
Mof_C 	C 	0.7593	0.30292	0.31348	-0.059
Mof_C 	C 	0.7516	0.24451	0.31421	0.033
Mof_C 	C 	0.7826	0.24852	0.37266	-0.034
Mof_C 	C 	0.7863	0.20058	0.3945	-0.014
Mof_C 	C 	0.8234	0.16813	0.38805	0.002
Mof_C 	C 	0.8164	0.12739	0.41893	-0.024
Mof_C 	C 	0.7761	0.12992	0.44778	-0.093
Mof_C 	C 	0.7546	0.09353	0.48165	0.376
Mof_C 	C 	0.089	0.41915	0.96879	0.378
Mof_C 	C 	0.0306	0.35828	0.9319	-0.094
Mof_C 	C 	0.9696	0.33475	0.93645	-0.035
Mof_C 	C 	0.9235	0.27512	0.8926	0.012
Mof_C 	C 	0.9506	0.25564	0.85516	-0.018
Mof_C 	C 	0.9181	0.19899	0.80063	-0.034
Mof_C 	C 	0.9427	0.15759	0.78561	0.042
Mof_C 	C 	0.8991	0.11317	0.72637	-0.048
Mof_C 	C 	0.8423	0.12149	0.69701	-0.086
Mof_C 	C 	0.7866	0.08508	0.63436	0.37
Mof_C 	C 	0.0248	0.5666	0.44218	0.107
Mof_C 	C 	0.9239	0.54344	0.36328	0.12
Mof_C 	C 	0.061	0.57852	0.40796	-0.187
Mof_C 	C 	0.9555	0.5556	0.3274	-0.195
Mof_C 	C 	0.0264	0.57281	0.34907	0.145
Mof_C 	C 	0.0625	0.58133	0.31169	-0.101
Mof_C 	C 	0.0336	0.5788	0.2553	-0.08
Mof_C 	C 	0.0661	0.57669	0.21341	0.13
Mof_C 	C 	0.133	0.58307	0.22973	-0.18
Mof_C 	C 	0.0274	0.56445	0.15279	-0.179
Mof_C 	C 	0.1568	0.57395	0.18645	0.106
Mof_C 	C 	0.0547	0.55581	0.11237	0.115
Mof_C 	C 	0.7928	0.92052	0.46948	0.12
Mof_C 	C 	0.7482	0.88931	0.53069	0.097
Mof_C 	C 	0.8164	0.87744	0.46276	-0.198
Mof_C 	C 	0.7689	0.84226	0.52514	-0.181
Mof_C 	C 	0.8016	0.83493	0.48807	0.126
Mof_C 	C 	0.8236	0.78602	0.47918	-0.082
Mof_C 	C 	0.8065	0.74058	0.49542	-0.107
Mof_C 	C 	0.8276	0.69052	0.48508	0.151
Mof_C 	C 	0.8044	0.64533	0.50503	-0.212
Mof_C 	C 	0.8726	0.68883	0.45957	-0.207
Mof_C 	C 	0.826	0.59987	0.49817	0.11
Mof_C 	C 	0.8918	0.6425	0.4549	0.113
Mof_C 	C 	0.1469	0.7058	0.8016	-0.128
Mof_C 	C 	0.1361	0.7638	0.8112	-0.129
Mof_C 	C 	0.1975	0.8219	0.8615	0.01
Mof_C 	C 	0.1778	0.8705	0.8899	-0.299
Mof_C 	C 	0.2409	0.9308	0.936	0.238
Mof_C 	C 	0.241	0.9865	0.9207	-0.666
Mof_C 	C 	0.9424	0.62476	0.82964	-0.097
Mof_C 	C 	0.9451	0.67406	0.87974	-0.178
Mof_C 	C 	0.0083	0.73377	0.90523	0.085
Mof_C 	C 	0.0152	0.7792	0.9612	-0.383
Mof_C 	C 	0.0806	0.8402	0.9884	0.33
Mof_C 	C 	0.0881	0.8869	0.0459	-0.811
Mof_C 	C 	0.7111	0.18555	0.25825	-0.151
Mof_C 	C 	0.6458	0.1827	0.2115	-0.093
Mof_C 	C 	0.6082	0.1258	0.1542	-0.042
Mof_C 	C 	0.5471	0.1309	0.1043	-0.235
Mof_C 	C 	0.5175	0.0761	0.0451	0.154
Mof_C 	C 	0.4559	0.0817	0.9969	-0.582
Mof_C 	C 	0.8783	0.1799	0.3593	-0.082
Mof_C 	C 	0.951	0.1914	0.402	-0.197
Mof_C 	C 	0.9989	0.1951	0.3705	0.107
Mof_C 	C 	0.0187	0.2518	0.356	-0.418
Mof_C 	C 	0.0705	0.2545	0.3277	0.405
Mof_C 	C 	0.0891	0.3107	0.3113	-0.911
Mof_C 	C 	0.8535	0.23922	0.88896	-0.085
Mof_C 	C 	0.8427	0.26624	0.94316	-0.2
Mof_C 	C 	0.7757	0.22657	0.94303	0.107
Mof_C 	C 	0.7625	0.25785	0.99415	-0.407
Mof_C 	C 	0.696	0.21931	0.99469	0.358
Mof_C 	C 	0.6793	0.2578	0.0412	-0.815
Mof_C 	C 	0.0045	0.1565	0.8275	-0.151
Mof_C 	C 	0.0623	0.1645	0.8053	-0.12
Mof_C 	C 	0.1258	0.1524	0.8368	-0.018
Mof_C 	C 	0.1884	0.1677	0.8209	-0.241
Mof_C 	C 	0.313	0.1945	0.9113	-0.773
Mof_C 	C 	0.4584	0.58545	0.56393	0.303
Mof_C 	C 	0.5001	0.65312	0.58948	-0.063
Mof_C 	C 	0.5641	0.68728	0.63192	-0.056
Mof_C 	C 	0.5868	0.75119	0.64521	0.028
Mof_C 	C 	0.5365	0.76206	0.60966	-0.026
Mof_C 	C 	0.5411	0.81938	0.60364	-0.02
Mof_C 	C 	0.5003	0.84878	0.6078	0.024
Mof_C 	C 	0.522	0.90176	0.59486	-0.037
Mof_C 	C 	0.5769	0.91165	0.58159	-0.091
Mof_C 	C 	0.6132	0.96023	0.56453	0.372
Mof_C 	C 	0.3155	0.38434	0.41466	0.335
Mof_C 	C 	0.296	0.36892	0.34894	-0.076
Mof_C 	C 	0.2593	0.31348	0.30292	-0.059
Mof_C 	C 	0.2516	0.31421	0.24451	0.032
Mof_C 	C 	0.2826	0.37266	0.24852	-0.034
Mof_C 	C 	0.2863	0.3945	0.20058	-0.014
Mof_C 	C 	0.3234	0.38805	0.16813	0.002
Mof_C 	C 	0.3164	0.41893	0.12739	-0.024
Mof_C 	C 	0.2761	0.44778	0.12992	-0.093
Mof_C 	C 	0.2546	0.48165	0.09353	0.376
Mof_C 	C 	0.589	0.96879	0.41915	0.379
Mof_C 	C 	0.5306	0.9319	0.35828	-0.091
Mof_C 	C 	0.4696	0.93645	0.33475	-0.039
Mof_C 	C 	0.4235	0.8926	0.27512	0.014
Mof_C 	C 	0.4506	0.85516	0.25564	-0.02
Mof_C 	C 	0.4181	0.80063	0.19899	-0.032
Mof_C 	C 	0.4427	0.78561	0.15759	0.036
Mof_C 	C 	0.3991	0.72637	0.11317	-0.045
Mof_C 	C 	0.3423	0.69701	0.12149	-0.087
Mof_C 	C 	0.2866	0.63436	0.08508	0.37
Mof_C 	C 	0.5248	0.44218	0.5666	0.105
Mof_C 	C 	0.4239	0.36328	0.54344	0.118
Mof_C 	C 	0.561	0.40796	0.57852	-0.185
Mof_C 	C 	0.4555	0.3274	0.5556	-0.192
Mof_C 	C 	0.5264	0.34907	0.57281	0.141
Mof_C 	C 	0.5625	0.31169	0.58133	-0.097
Mof_C 	C 	0.5336	0.2553	0.5788	-0.086
Mof_C 	C 	0.5661	0.21341	0.57669	0.134
Mof_C 	C 	0.633	0.22973	0.58307	-0.183
Mof_C 	C 	0.5274	0.15279	0.56445	-0.186
Mof_C 	C 	0.6568	0.18645	0.57395	0.108
Mof_C 	C 	0.5547	0.11237	0.55581	0.118
Mof_C 	C 	0.2928	0.46948	0.92052	0.12
Mof_C 	C 	0.2482	0.53069	0.88931	0.097
Mof_C 	C 	0.3164	0.46276	0.87744	-0.198
Mof_C 	C 	0.2689	0.52514	0.84226	-0.181
Mof_C 	C 	0.3016	0.48807	0.83493	0.126
Mof_C 	C 	0.3236	0.47918	0.78602	-0.082
Mof_C 	C 	0.3065	0.49542	0.74058	-0.107
Mof_C 	C 	0.3276	0.48508	0.69052	0.151
Mof_C 	C 	0.3044	0.50503	0.64533	-0.212
Mof_C 	C 	0.3726	0.45957	0.68883	-0.207
Mof_C 	C 	0.326	0.49817	0.59987	0.11
Mof_C 	C 	0.3918	0.4549	0.6425	0.113
Mof_C 	C 	0.6469	0.8016	0.7058	-0.129
Mof_C 	C 	0.6361	0.8112	0.7638	-0.128
Mof_C 	C 	0.6975	0.8615	0.8219	0.008
Mof_C 	C 	0.6778	0.8899	0.8705	-0.295
Mof_C 	C 	0.7409	0.936	0.9308	0.233
Mof_C 	C 	0.741	0.9207	0.9865	-0.657
Mof_C 	C 	0.4424	0.82964	0.62476	-0.1
Mof_C 	C 	0.4451	0.87974	0.67406	-0.178
Mof_C 	C 	0.5083	0.90523	0.73377	0.086
Mof_C 	C 	0.5152	0.9612	0.7792	-0.381
Mof_C 	C 	0.5806	0.9884	0.8402	0.332
Mof_C 	C 	0.5881	0.0459	0.8869	-0.815
Mof_C 	C 	0.2111	0.25825	0.18555	-0.151
Mof_C 	C 	0.1458	0.2115	0.1827	-0.094
Mof_C 	C 	0.1082	0.1542	0.1258	-0.04
Mof_C 	C 	0.0471	0.1043	0.1309	-0.237
Mof_C 	C 	0.0175	0.0451	0.0761	0.158
Mof_C 	C 	0.9559	0.9969	0.0817	-0.589
Mof_C 	C 	0.3783	0.3593	0.1799	-0.082
Mof_C 	C 	0.451	0.402	0.1914	-0.198
Mof_C 	C 	0.4989	0.3705	0.1951	0.109
Mof_C 	C 	0.5187	0.356	0.2518	-0.421
Mof_C 	C 	0.5705	0.3277	0.2545	0.406
Mof_C 	C 	0.5891	0.3113	0.3107	-0.912
Mof_C 	C 	0.3535	0.88896	0.23922	-0.087
Mof_C 	C 	0.3427	0.94316	0.26624	-0.199
Mof_C 	C 	0.2757	0.94303	0.22657	0.106
Mof_C 	C 	0.2625	0.99415	0.25785	-0.407
Mof_C 	C 	0.196	0.99469	0.21931	0.355
Mof_C 	C 	0.1793	0.0412	0.2578	-0.813
Mof_C 	C 	0.5045	0.8275	0.1565	-0.141
Mof_C 	C 	0.5623	0.8053	0.1645	-0.125
Mof_C 	C 	0.6258	0.8368	0.1524	-0.015
Mof_C 	C 	0.6884	0.8209	0.1677	-0.242
Mof_C 	C 	0.813	0.9113	0.1945	-0.773
Mof_C 	C 	0.0416	0.43607	0.41455	0.304
Mof_C 	C 	0.9999	0.41052	0.34688	-0.065
Mof_C 	C 	0.9359	0.36808	0.31272	-0.056
Mof_C 	C 	0.9132	0.35479	0.24881	0.028
Mof_C 	C 	0.9635	0.39034	0.23794	-0.027
Mof_C 	C 	0.9589	0.39636	0.18062	-0.019
Mof_C 	C 	0.9997	0.3922	0.15122	0.022
Mof_C 	C 	0.978	0.40514	0.09824	-0.037
Mof_C 	C 	0.9231	0.41841	0.08835	-0.091
Mof_C 	C 	0.8868	0.43547	0.03977	0.37
Mof_C 	C 	0.1845	0.58534	0.61566	0.335
Mof_C 	C 	0.204	0.65106	0.63108	-0.076
Mof_C 	C 	0.2407	0.69708	0.68652	-0.059
Mof_C 	C 	0.2484	0.75549	0.68579	0.033
Mof_C 	C 	0.2174	0.75148	0.62734	-0.034
Mof_C 	C 	0.2137	0.79942	0.6055	-0.014
Mof_C 	C 	0.1766	0.83187	0.61195	0.002
Mof_C 	C 	0.1836	0.87261	0.58107	-0.024
Mof_C 	C 	0.2239	0.87008	0.55222	-0.093
Mof_C 	C 	0.2454	0.90647	0.51835	0.376
Mof_C 	C 	0.911	0.58085	0.03121	0.378
Mof_C 	C 	0.9694	0.64172	0.0681	-0.094
Mof_C 	C 	0.0304	0.66525	0.06355	-0.035
Mof_C 	C 	0.0765	0.72488	0.1074	0.012
Mof_C 	C 	0.0494	0.74436	0.14484	-0.018
Mof_C 	C 	0.0819	0.80101	0.19937	-0.034
Mof_C 	C 	0.0573	0.84241	0.21439	0.042
Mof_C 	C 	0.1009	0.88683	0.27363	-0.048
Mof_C 	C 	0.1577	0.87851	0.30299	-0.086
Mof_C 	C 	0.2134	0.91492	0.36564	0.37
Mof_C 	C 	0.9752	0.4334	0.55782	0.107
Mof_C 	C 	0.0761	0.45656	0.63672	0.12
Mof_C 	C 	0.939	0.42148	0.59204	-0.187
Mof_C 	C 	0.0445	0.4444	0.6726	-0.195
Mof_C 	C 	0.9736	0.42719	0.65093	0.145
Mof_C 	C 	0.9375	0.41867	0.68831	-0.101
Mof_C 	C 	0.9664	0.4212	0.7447	-0.08
Mof_C 	C 	0.9339	0.42331	0.78659	0.13
Mof_C 	C 	0.867	0.41693	0.77027	-0.18
Mof_C 	C 	0.9726	0.43555	0.84721	-0.179
Mof_C 	C 	0.8432	0.42605	0.81355	0.106
Mof_C 	C 	0.9453	0.44419	0.88763	0.115
Mof_C 	C 	0.2072	0.07948	0.53052	0.12
Mof_C 	C 	0.2518	0.11069	0.46931	0.097
Mof_C 	C 	0.1836	0.12256	0.53724	-0.198
Mof_C 	C 	0.2311	0.15774	0.47486	-0.181
Mof_C 	C 	0.1984	0.16507	0.51193	0.126
Mof_C 	C 	0.1764	0.21398	0.52082	-0.082
Mof_C 	C 	0.1935	0.25942	0.50458	-0.107
Mof_C 	C 	0.1724	0.30948	0.51492	0.151
Mof_C 	C 	0.1956	0.35467	0.49497	-0.212
Mof_C 	C 	0.1274	0.31117	0.54043	-0.207
Mof_C 	C 	0.174	0.40013	0.50183	0.11
Mof_C 	C 	0.1082	0.3575	0.5451	0.113
Mof_C 	C 	0.8531	0.2942	0.1984	-0.128
Mof_C 	C 	0.8639	0.2362	0.1888	-0.129
Mof_C 	C 	0.8025	0.1781	0.1385	0.01
Mof_C 	C 	0.8222	0.1295	0.1101	-0.299
Mof_C 	C 	0.7591	0.0692	0.064	0.238
Mof_C 	C 	0.759	0.0135	0.0793	-0.666
Mof_C 	C 	0.0576	0.37524	0.17036	-0.097
Mof_C 	C 	0.0549	0.32594	0.12026	-0.178
Mof_C 	C 	0.9917	0.26623	0.09477	0.085
Mof_C 	C 	0.9848	0.2208	0.0388	-0.383
Mof_C 	C 	0.9194	0.1598	0.0116	0.33
Mof_C 	C 	0.9119	0.1131	0.9541	-0.811
Mof_C 	C 	0.2889	0.81445	0.74175	-0.151
Mof_C 	C 	0.3542	0.8173	0.7885	-0.093
Mof_C 	C 	0.3918	0.8742	0.8458	-0.042
Mof_C 	C 	0.4529	0.8691	0.8957	-0.235
Mof_C 	C 	0.4825	0.9239	0.9549	0.154
Mof_C 	C 	0.5441	0.9183	0.0031	-0.582
Mof_C 	C 	0.1217	0.8201	0.6407	-0.082
Mof_C 	C 	0.049	0.8086	0.598	-0.197
Mof_C 	C 	0.0011	0.8049	0.6295	0.107
Mof_C 	C 	0.9813	0.7482	0.644	-0.418
Mof_C 	C 	0.9295	0.7455	0.6723	0.405
Mof_C 	C 	0.9109	0.6893	0.6887	-0.911
Mof_C 	C 	0.1465	0.76078	0.11104	-0.085
Mof_C 	C 	0.1573	0.73376	0.05684	-0.2
Mof_C 	C 	0.2243	0.77343	0.05697	0.107
Mof_C 	C 	0.2375	0.74215	0.00585	-0.407
Mof_C 	C 	0.304	0.78069	0.00531	0.358
Mof_C 	C 	0.3207	0.7422	0.9588	-0.815
Mof_C 	C 	0.9955	0.8435	0.1725	-0.151
Mof_C 	C 	0.9377	0.8355	0.1947	-0.12
Mof_C 	C 	0.8742	0.8476	0.1632	-0.018
Mof_C 	C 	0.8116	0.8323	0.1791	-0.241
Mof_C 	C 	0.687	0.8055	0.0887	-0.773
Mof_C 	C 	0.25	0.1517	0.8483	0.365
Mof_C 	C 	0.75	0.8483	0.1517	0.365
Mof_S 	S 	0.53787	0.30343	0.43563	0.008
Mof_S 	S 	0.39677	0.14465	0.41723	0.012
Mof_S 	S 	0.67879	0.57547	0.67781	0.029
Mof_S 	S 	0.75457	0.56105	0.81719	0.02
Mof_S 	S 	0.46832	0.12705	0.69097	0.021
Mof_S 	S 	0.65802	0.25804	0.81616	0.03
Mof_S 	S 	0.96213	0.56437	0.69657	0.01
Mof_S 	S 	0.10323	0.58277	0.85535	0.011
Mof_S 	S 	0.82121	0.32219	0.42453	0.029
Mof_S 	S 	0.74543	0.18281	0.43895	0.02
Mof_S 	S 	0.03168	0.30903	0.87295	0.019
Mof_S 	S 	0.84198	0.18384	0.74196	0.03
Mof_S 	S 	0.46213	0.69657	0.56437	0.008
Mof_S 	S 	0.60323	0.85535	0.58277	0.012
Mof_S 	S 	0.32121	0.42453	0.32219	0.029
Mof_S 	S 	0.24543	0.43895	0.18281	0.02
Mof_S 	S 	0.53168	0.87295	0.30903	0.021
Mof_S 	S 	0.34198	0.74196	0.18384	0.03
Mof_S 	S 	0.03787	0.43563	0.30343	0.01
Mof_S 	S 	0.89677	0.41723	0.14465	0.011
Mof_S 	S 	0.17879	0.67781	0.57547	0.029
Mof_S 	S 	0.25457	0.81719	0.56105	0.02
Mof_S 	S 	0.96832	0.69097	0.12705	0.019
Mof_S 	S 	0.15802	0.81616	0.25804	0.03
Mof_N 	N 	0.5434	0.57982	0.45156	-0.278
Mof_N 	N 	0.3825	0.8724	0.44078	-0.269
Mof_N 	N 	0.7411	0.49745	0.07299	-0.271
Mof_N 	N 	0.6313	0.52703	0.40263	-0.284
Mof_N 	N 	0.9566	0.54844	0.42018	-0.279
Mof_N 	N 	0.1175	0.55922	0.1276	-0.268
Mof_N 	N 	0.7589	0.92701	0.50255	-0.271
Mof_N 	N 	0.8687	0.59737	0.47297	-0.284
Mof_N 	N 	0.4566	0.42018	0.54844	-0.278
Mof_N 	N 	0.6175	0.1276	0.55922	-0.269
Mof_N 	N 	0.2589	0.50255	0.92701	-0.271
Mof_N 	N 	0.3687	0.47297	0.59737	-0.284
Mof_N 	N 	0.0434	0.45156	0.57982	-0.279
Mof_N 	N 	0.8825	0.44078	0.8724	-0.268
Mof_N 	N 	0.2411	0.07299	0.49745	-0.271
Mof_N 	N 	0.1313	0.40263	0.52703	-0.284
Mof_O 	O 	0.6054	0.43599	0.46535	-0.354
Mof_O 	O 	0.50942	0.4455	0.42624	-0.439
Mof_O 	O 	0.4026	0.9963	0.43186	-0.441
Mof_O 	O 	0.34248	0.04627	0.45271	-0.48
Mof_O 	O 	0.6483	0.55858	0.55292	-0.454
Mof_O 	O 	0.70229	0.65574	0.56624	-0.311
Mof_O 	O 	0.78291	0.4948	0.89404	-0.459
Mof_O 	O 	0.72674	0.51668	0.94822	-0.446
Mof_O 	O 	0.41641	0.99035	0.54573	-0.46
Mof_O 	O 	0.36027	0.04397	0.56875	-0.455
Mof_O 	O 	0.76335	0.37942	0.90096	-0.463
Mof_O 	O 	0.20576	0.95558	0.3991	-0.459
Mof_O 	O 	0.8946	0.53465	0.56401	-0.354
Mof_O 	O 	0.99058	0.57376	0.5545	-0.439
Mof_O 	O 	0.0974	0.56814	0.0037	-0.439
Mof_O 	O 	0.15752	0.54729	0.95373	-0.48
Mof_O 	O 	0.8517	0.44708	0.44142	-0.454
Mof_O 	O 	0.79771	0.43376	0.34426	-0.311
Mof_O 	O 	0.71709	0.10596	0.5052	-0.459
Mof_O 	O 	0.77326	0.05178	0.48332	-0.446
Mof_O 	O 	0.08359	0.45427	0.00965	-0.458
Mof_O 	O 	0.13973	0.43125	0.95603	-0.455
Mof_O 	O 	0.73665	0.09904	0.62058	-0.464
Mof_O 	O 	0.29424	0.6009	0.04442	-0.458
Mof_O 	O 	0.3946	0.56401	0.53465	-0.354
Mof_O 	O 	0.49058	0.5545	0.57376	-0.439
Mof_O 	O 	0.5974	0.0037	0.56814	-0.441
Mof_O 	O 	0.65752	0.95373	0.54729	-0.48
Mof_O 	O 	0.3517	0.44142	0.44708	-0.454
Mof_O 	O 	0.29771	0.34426	0.43376	-0.311
Mof_O 	O 	0.21709	0.5052	0.10596	-0.459
Mof_O 	O 	0.27326	0.48332	0.05178	-0.446
Mof_O 	O 	0.58359	0.00965	0.45427	-0.46
Mof_O 	O 	0.63973	0.95603	0.43125	-0.455
Mof_O 	O 	0.23665	0.62058	0.09904	-0.463
Mof_O 	O 	0.79424	0.04442	0.6009	-0.459
Mof_O 	O 	0.1054	0.46535	0.43599	-0.354
Mof_O 	O 	0.00942	0.42624	0.4455	-0.439
Mof_O 	O 	0.9026	0.43186	0.9963	-0.439
Mof_O 	O 	0.84248	0.45271	0.04627	-0.48
Mof_O 	O 	0.1483	0.55292	0.55858	-0.454
Mof_O 	O 	0.20229	0.56624	0.65574	-0.311
Mof_O 	O 	0.28291	0.89404	0.4948	-0.459
Mof_O 	O 	0.22674	0.94822	0.51668	-0.446
Mof_O 	O 	0.91641	0.54573	0.99035	-0.458
Mof_O 	O 	0.86027	0.56875	0.04397	-0.455
Mof_O 	O 	0.26335	0.90096	0.37942	-0.464
Mof_O 	O 	0.70576	0.3991	0.95558	-0.458
_end
