data_functionalizedCrystal
_audit_creation_method	'EQeq! by Chris Wilmer'
_symmetry_space_group_name_H-M	'P1'
_symmetry_Int_Tables_number	1
_symmetry_cell_setting	triclinic
loop_
_symmetry_equiv_pos_as_xyz
  x,y,z
_cell_length_a	31.2009
_cell_length_b	31.2009
_cell_length_c	31.2009
_cell_angle_alpha	90
_cell_angle_beta	90
_cell_angle_gamma	90
loop_
_atom_site_label
_atom_site_type_symbol
_atom_site_fract_x
_atom_site_fract_y
_atom_site_fract_z
_atom_site_charge
Mof_Cd	Cd	0.06204	0.12044	0.92395	0.527
Mof_C 	C 	0.8807	0.1644	0.0064	-0.12
Mof_C 	C 	0.8859	0.2019	0.0325	0.075
Mof_H 	H 	0.8639	0.2121	0.0498	0.031
Mof_C 	C 	0.9267	0.2228	0.0305	-0.15
Mof_H 	H 	0.9315	0.2494	0.0432	0.1
Mof_C 	C 	0.958	0.2015	0.0089	0.136
Mof_H 	H 	0.9852	0.2136	0.0097	-0.001
Mof_C 	C 	0.954	0.1657	0.9869	-0.193
Mof_C 	C 	0.9154	0.1462	0.9859	0.141
Mof_C 	C 	0.9118	0.1027	0.963	0.047
Mof_C 	C 	0.9182	0.0649	0.9876	-0.067
Mof_C 	C 	0.916	0.0257	0.9676	0.032
Mof_H 	H 	0.92	0.0012	0.984	0.044
Mof_C 	C 	0.9081	0.021	0.9235	-0.088
Mof_H 	H 	0.9068	0.9943	0.9104	0.077
Mof_C 	C 	0.9026	0.0583	0.9015	0.032
Mof_H 	H 	0.8972	0.0564	0.8722	0.05
Mof_C 	C 	0.9043	0.0985	0.919	-0.069
Mof_C 	C 	0.8373	0.1455	0.0065	0.322
Mof_C 	C 	0.993	0.1498	0.9614	0.532
Mof_C 	C 	0.9212	0.0655	0.0358	0.33
Mof_C 	C 	0.8956	0.1358	0.8886	0.32
Mof_O 	O 	0.8311	0.1074	0.0091	-0.244
Mof_O 	O 	0.8055	0.1724	0.0025	-0.235
Mof_O 	O 	0.9962	0.1497	0.926	-0.352
Mof_O 	O 	0.0193	0.131	0.9777	-0.356
Mof_O 	O 	0.9464	0.0896	0.0533	-0.258
Mof_O 	O 	0.9001	0.0386	0.0553	-0.254
Mof_O 	O 	0.8994	0.1304	0.8503	-0.282
Mof_O 	O 	0.8818	0.1707	0.9046	-0.229
Mof_Cd	Cd	0.56204	0.62044	0.42395	0.527
Mof_C 	C 	0.3807	0.6644	0.5064	-0.117
Mof_C 	C 	0.3859	0.7019	0.5325	0.074
Mof_H 	H 	0.3639	0.7121	0.5498	0.03
Mof_C 	C 	0.4267	0.7228	0.5305	-0.153
Mof_H 	H 	0.4315	0.7494	0.5432	0.1
Mof_C 	C 	0.458	0.7015	0.5089	0.141
Mof_H 	H 	0.4852	0.7136	0.5097	-0.005
Mof_C 	C 	0.454	0.6657	0.4869	-0.198
Mof_C 	C 	0.4154	0.6462	0.4859	0.136
Mof_C 	C 	0.4118	0.6027	0.463	0.045
Mof_C 	C 	0.4182	0.5649	0.4876	-0.07
Mof_C 	C 	0.416	0.5257	0.4676	0.026
Mof_H 	H 	0.42	0.5012	0.484	0.044
Mof_C 	C 	0.4081	0.521	0.4235	-0.078
Mof_H 	H 	0.4068	0.4943	0.4104	0.069
Mof_C 	C 	0.4026	0.5583	0.4015	0.024
Mof_H 	H 	0.3972	0.5564	0.3722	0.051
Mof_C 	C 	0.4043	0.5985	0.419	-0.068
Mof_C 	C 	0.3373	0.6455	0.5065	0.32
Mof_C 	C 	0.493	0.6498	0.4614	0.526
Mof_C 	C 	0.4212	0.5655	0.5358	0.332
Mof_C 	C 	0.3956	0.6358	0.3886	0.318
Mof_O 	O 	0.3311	0.6074	0.5091	-0.243
Mof_O 	O 	0.3055	0.6724	0.5025	-0.234
Mof_O 	O 	0.4962	0.6497	0.426	-0.353
Mof_O 	O 	0.5193	0.631	0.4777	-0.353
Mof_O 	O 	0.4464	0.5896	0.5533	-0.259
Mof_O 	O 	0.4001	0.5386	0.5553	-0.253
Mof_O 	O 	0.3994	0.6304	0.3503	-0.282
Mof_O 	O 	0.3818	0.6707	0.4046	-0.229
Mof_Cd	Cd	0.43796	0.87956	0.42395	0.527
Mof_C 	C 	0.6193	0.8356	0.5064	-0.118
Mof_C 	C 	0.6141	0.7981	0.5325	0.075
Mof_H 	H 	0.6361	0.7879	0.5498	0.03
Mof_C 	C 	0.5733	0.7772	0.5305	-0.153
Mof_H 	H 	0.5685	0.7506	0.5432	0.1
Mof_C 	C 	0.542	0.7985	0.5089	0.142
Mof_H 	H 	0.5148	0.7864	0.5097	-0.005
Mof_C 	C 	0.546	0.8343	0.4869	-0.199
Mof_C 	C 	0.5846	0.8538	0.4859	0.138
Mof_C 	C 	0.5882	0.8973	0.463	0.042
Mof_C 	C 	0.5818	0.9351	0.4876	-0.066
Mof_C 	C 	0.584	0.9743	0.4676	0.018
Mof_H 	H 	0.58	0.9988	0.484	0.048
Mof_C 	C 	0.5919	0.979	0.4235	-0.064
Mof_H 	H 	0.5932	0.0057	0.4104	0.061
Mof_C 	C 	0.5974	0.9417	0.4015	0.015
Mof_H 	H 	0.6028	0.9436	0.3722	0.055
Mof_C 	C 	0.5957	0.9015	0.419	-0.063
Mof_C 	C 	0.6627	0.8545	0.5065	0.32
Mof_C 	C 	0.507	0.8502	0.4614	0.527
Mof_C 	C 	0.5788	0.9345	0.5358	0.33
Mof_C 	C 	0.6044	0.8642	0.3886	0.316
Mof_O 	O 	0.6689	0.8926	0.5091	-0.243
Mof_O 	O 	0.6945	0.8276	0.5025	-0.234
Mof_O 	O 	0.5038	0.8503	0.426	-0.353
Mof_O 	O 	0.4807	0.869	0.4777	-0.353
Mof_O 	O 	0.5536	0.9104	0.5533	-0.258
Mof_O 	O 	0.5999	0.9614	0.5553	-0.252
Mof_O 	O 	0.6006	0.8696	0.3503	-0.282
Mof_O 	O 	0.6182	0.8293	0.4046	-0.229
Mof_Cd	Cd	0.93796	0.37956	0.92395	0.528
Mof_C 	C 	0.1193	0.3356	0.0064	-0.12
Mof_C 	C 	0.1141	0.2981	0.0325	0.073
Mof_H 	H 	0.1361	0.2879	0.0498	0.03
Mof_C 	C 	0.0733	0.2772	0.0305	-0.149
Mof_H 	H 	0.0685	0.2506	0.0432	0.098
Mof_C 	C 	0.042	0.2985	0.0089	0.131
Mof_H 	H 	0.0148	0.2864	0.0097	-0.004
Mof_C 	C 	0.046	0.3343	0.9869	-0.191
Mof_C 	C 	0.0846	0.3538	0.9859	0.138
Mof_C 	C 	0.0882	0.3973	0.963	0.044
Mof_C 	C 	0.0818	0.4351	0.9876	-0.065
Mof_C 	C 	0.084	0.4743	0.9676	0.023
Mof_H 	H 	0.08	0.4988	0.984	0.046
Mof_C 	C 	0.0919	0.479	0.9235	-0.076
Mof_H 	H 	0.0932	0.5057	0.9104	0.068
Mof_C 	C 	0.0974	0.4417	0.9015	0.023
Mof_H 	H 	0.1028	0.4436	0.8722	0.051
Mof_C 	C 	0.0957	0.4015	0.919	-0.067
Mof_C 	C 	0.1627	0.3545	0.0065	0.32
Mof_C 	C 	0.007	0.3502	0.9614	0.518
Mof_C 	C 	0.0788	0.4345	0.0358	0.328
Mof_C 	C 	0.1044	0.3642	0.8886	0.317
Mof_O 	O 	0.1689	0.3926	0.0091	-0.244
Mof_O 	O 	0.1945	0.3276	0.0025	-0.235
Mof_O 	O 	0.0038	0.3503	0.926	-0.352
Mof_O 	O 	0.9807	0.369	0.9777	-0.346
Mof_O 	O 	0.0536	0.4104	0.0533	-0.259
Mof_O 	O 	0.0999	0.4614	0.0553	-0.253
Mof_O 	O 	0.1006	0.3696	0.8503	-0.283
Mof_O 	O 	0.1182	0.3293	0.9046	-0.229
Mof_Cd	Cd	0.93796	0.62044	0.57605	0.528
Mof_C 	C 	0.1193	0.6644	0.4936	-0.116
Mof_C 	C 	0.1141	0.7019	0.4675	0.073
Mof_H 	H 	0.1361	0.7121	0.4502	0.03
Mof_C 	C 	0.0733	0.7228	0.4695	-0.152
Mof_H 	H 	0.0685	0.7494	0.4568	0.099
Mof_C 	C 	0.042	0.7015	0.4911	0.139
Mof_H 	H 	0.0148	0.7136	0.4903	-0.005
Mof_C 	C 	0.046	0.6657	0.5131	-0.196
Mof_C 	C 	0.0846	0.6462	0.5141	0.135
Mof_C 	C 	0.0882	0.6027	0.537	0.046
Mof_C 	C 	0.0818	0.5649	0.5124	-0.071
Mof_C 	C 	0.084	0.5257	0.5324	0.026
Mof_H 	H 	0.08	0.5012	0.516	0.044
Mof_C 	C 	0.0919	0.521	0.5765	-0.079
Mof_H 	H 	0.0932	0.4943	0.5896	0.069
Mof_C 	C 	0.0974	0.5583	0.5985	0.025
Mof_H 	H 	0.1028	0.5564	0.6278	0.05
Mof_C 	C 	0.0957	0.5985	0.581	-0.068
Mof_C 	C 	0.1627	0.6455	0.4935	0.319
Mof_C 	C 	0.007	0.6498	0.5386	0.52
Mof_C 	C 	0.0788	0.5655	0.4642	0.332
Mof_C 	C 	0.1044	0.6358	0.6114	0.318
Mof_O 	O 	0.1689	0.6074	0.4909	-0.243
Mof_O 	O 	0.1945	0.6724	0.4975	-0.234
Mof_O 	O 	0.0038	0.6497	0.574	-0.353
Mof_O 	O 	0.9807	0.631	0.5223	-0.348
Mof_O 	O 	0.0536	0.5896	0.4467	-0.259
Mof_O 	O 	0.0999	0.5386	0.4447	-0.254
Mof_O 	O 	0.1006	0.6304	0.6497	-0.283
Mof_O 	O 	0.1182	0.6707	0.5954	-0.229
Mof_Cd	Cd	0.43796	0.12044	0.07605	0.526
Mof_C 	C 	0.6193	0.1644	0.9936	-0.112
Mof_C 	C 	0.6141	0.2019	0.9675	0.074
Mof_H 	H 	0.6361	0.2121	0.9502	0.03
Mof_C 	C 	0.5733	0.2228	0.9695	-0.155
Mof_H 	H 	0.5685	0.2494	0.9568	0.102
Mof_C 	C 	0.542	0.2015	0.9911	0.148
Mof_H 	H 	0.5148	0.2136	0.9903	-0.006
Mof_C 	C 	0.546	0.1657	0.0131	-0.203
Mof_C 	C 	0.5846	0.1462	0.0141	0.132
Mof_C 	C 	0.5882	0.1027	0.037	0.05
Mof_C 	C 	0.5818	0.0649	0.0124	-0.08
Mof_C 	C 	0.584	0.0257	0.0324	0.038
Mof_H 	H 	0.58	0.0012	0.016	0.037
Mof_C 	C 	0.5919	0.021	0.0765	-0.096
Mof_H 	H 	0.5932	0.9943	0.0896	0.078
Mof_C 	C 	0.5974	0.0583	0.0985	0.036
Mof_H 	H 	0.6028	0.0564	0.1278	0.046
Mof_C 	C 	0.5957	0.0985	0.081	-0.074
Mof_C 	C 	0.6627	0.1455	0.9935	0.318
Mof_C 	C 	0.507	0.1498	0.0386	0.528
Mof_C 	C 	0.5788	0.0655	0.9642	0.338
Mof_C 	C 	0.6044	0.1358	0.1114	0.32
Mof_O 	O 	0.6689	0.1074	0.9909	-0.241
Mof_O 	O 	0.6945	0.1724	0.9975	-0.231
Mof_O 	O 	0.5038	0.1497	0.074	-0.354
Mof_O 	O 	0.4807	0.131	0.0223	-0.355
Mof_O 	O 	0.5536	0.0896	0.9467	-0.259
Mof_O 	O 	0.5999	0.0386	0.9447	-0.255
Mof_O 	O 	0.6006	0.1304	0.1497	-0.283
Mof_O 	O 	0.6182	0.1707	0.0954	-0.23
Mof_Cd	Cd	0.56204	0.37956	0.07605	0.526
Mof_C 	C 	0.3807	0.3356	0.9936	-0.113
Mof_C 	C 	0.3859	0.2981	0.9675	0.075
Mof_H 	H 	0.3639	0.2879	0.9502	0.03
Mof_C 	C 	0.4267	0.2772	0.9695	-0.156
Mof_H 	H 	0.4315	0.2506	0.9568	0.102
Mof_C 	C 	0.458	0.2985	0.9911	0.149
Mof_H 	H 	0.4852	0.2864	0.9903	-0.006
Mof_C 	C 	0.454	0.3343	0.0131	-0.204
Mof_C 	C 	0.4154	0.3538	0.0141	0.133
Mof_C 	C 	0.4118	0.3973	0.037	0.047
Mof_C 	C 	0.4182	0.4351	0.0124	-0.076
Mof_C 	C 	0.416	0.4743	0.0324	0.03
Mof_H 	H 	0.42	0.4988	0.016	0.042
Mof_C 	C 	0.4081	0.479	0.0765	-0.081
Mof_H 	H 	0.4068	0.5057	0.0896	0.07
Mof_C 	C 	0.4026	0.4417	0.0985	0.027
Mof_H 	H 	0.3972	0.4436	0.1278	0.05
Mof_C 	C 	0.4043	0.4015	0.081	-0.07
Mof_C 	C 	0.3373	0.3545	0.9935	0.319
Mof_C 	C 	0.493	0.3502	0.0386	0.528
Mof_C 	C 	0.4212	0.4345	0.9642	0.336
Mof_C 	C 	0.3956	0.3642	0.1114	0.319
Mof_O 	O 	0.3311	0.3926	0.9909	-0.241
Mof_O 	O 	0.3055	0.3276	0.9975	-0.232
Mof_O 	O 	0.4962	0.3503	0.074	-0.354
Mof_O 	O 	0.5193	0.369	0.0223	-0.355
Mof_O 	O 	0.4464	0.4104	0.9467	-0.259
Mof_O 	O 	0.4001	0.4614	0.9447	-0.254
Mof_O 	O 	0.3994	0.3696	0.1497	-0.282
Mof_O 	O 	0.3818	0.3293	0.0954	-0.23
Mof_Cd	Cd	0.06204	0.87956	0.57605	0.526
Mof_C 	C 	0.8807	0.8356	0.4936	-0.118
Mof_C 	C 	0.8859	0.7981	0.4675	0.075
Mof_H 	H 	0.8639	0.7879	0.4502	0.03
Mof_C 	C 	0.9267	0.7772	0.4695	-0.154
Mof_H 	H 	0.9315	0.7506	0.4568	0.101
Mof_C 	C 	0.958	0.7985	0.4911	0.143
Mof_H 	H 	0.9852	0.7864	0.4903	-0.004
Mof_C 	C 	0.954	0.8343	0.5131	-0.201
Mof_C 	C 	0.9154	0.8538	0.5141	0.139
Mof_C 	C 	0.9118	0.8973	0.537	0.042
Mof_C 	C 	0.9182	0.9351	0.5124	-0.065
Mof_C 	C 	0.916	0.9743	0.5324	0.018
Mof_H 	H 	0.92	0.9988	0.516	0.049
Mof_C 	C 	0.9081	0.979	0.5765	-0.063
Mof_H 	H 	0.9068	0.0057	0.5896	0.061
Mof_C 	C 	0.9026	0.9417	0.5985	0.016
Mof_H 	H 	0.8972	0.9436	0.6278	0.055
Mof_C 	C 	0.9043	0.9015	0.581	-0.063
Mof_C 	C 	0.8373	0.8545	0.4935	0.32
Mof_C 	C 	0.993	0.8502	0.5386	0.533
Mof_C 	C 	0.9212	0.9345	0.4642	0.33
Mof_C 	C 	0.8956	0.8642	0.6114	0.316
Mof_O 	O 	0.8311	0.8926	0.4909	-0.243
Mof_O 	O 	0.8055	0.8276	0.4975	-0.234
Mof_O 	O 	0.9962	0.8503	0.574	-0.353
Mof_O 	O 	0.0193	0.869	0.5223	-0.358
Mof_O 	O 	0.9464	0.9104	0.4467	-0.257
Mof_O 	O 	0.9001	0.9614	0.4447	-0.252
Mof_O 	O 	0.8994	0.8696	0.6497	-0.281
Mof_O 	O 	0.8818	0.8293	0.5954	-0.229
Mof_Cd	Cd	0.92395	0.06204	0.12044	0.526
Mof_C 	C 	0.0064	0.8807	0.1644	-0.121
Mof_C 	C 	0.0325	0.8859	0.2019	0.074
Mof_H 	H 	0.0498	0.8639	0.2121	0.03
Mof_C 	C 	0.0305	0.9267	0.2228	-0.151
Mof_H 	H 	0.0432	0.9315	0.2494	0.099
Mof_C 	C 	0.0089	0.958	0.2015	0.135
Mof_H 	H 	0.0097	0.9852	0.2136	-0.002
Mof_C 	C 	0.9869	0.954	0.1657	-0.194
Mof_C 	C 	0.9859	0.9154	0.1462	0.14
Mof_C 	C 	0.963	0.9118	0.1027	0.046
Mof_C 	C 	0.9876	0.9182	0.0649	-0.068
Mof_C 	C 	0.9676	0.916	0.0257	0.031
Mof_H 	H 	0.984	0.92	0.0012	0.043
Mof_C 	C 	0.9235	0.9081	0.021	-0.089
Mof_H 	H 	0.9104	0.9068	0.9943	0.076
Mof_C 	C 	0.9015	0.9026	0.0583	0.031
Mof_H 	H 	0.8722	0.8972	0.0564	0.049
Mof_C 	C 	0.919	0.9043	0.0985	-0.07
Mof_C 	C 	0.0065	0.8373	0.1455	0.321
Mof_C 	C 	0.9614	0.993	0.1498	0.531
Mof_C 	C 	0.0358	0.9212	0.0655	0.329
Mof_C 	C 	0.8886	0.8956	0.1358	0.319
Mof_O 	O 	0.0091	0.8311	0.1074	-0.245
Mof_O 	O 	0.0025	0.8055	0.1724	-0.235
Mof_O 	O 	0.926	0.9962	0.1497	-0.352
Mof_O 	O 	0.9777	0.0193	0.131	-0.356
Mof_O 	O 	0.0533	0.9464	0.0896	-0.258
Mof_O 	O 	0.0553	0.9001	0.0386	-0.254
Mof_O 	O 	0.8503	0.8994	0.1304	-0.282
Mof_O 	O 	0.9046	0.8818	0.1707	-0.229
Mof_Cd	Cd	0.42395	0.56204	0.62044	0.527
Mof_C 	C 	0.5064	0.3807	0.6644	-0.117
Mof_C 	C 	0.5325	0.3859	0.7019	0.074
Mof_H 	H 	0.5498	0.3639	0.7121	0.03
Mof_C 	C 	0.5305	0.4267	0.7228	-0.153
Mof_H 	H 	0.5432	0.4315	0.7494	0.1
Mof_C 	C 	0.5089	0.458	0.7015	0.141
Mof_H 	H 	0.5097	0.4852	0.7136	-0.005
Mof_C 	C 	0.4869	0.454	0.6657	-0.198
Mof_C 	C 	0.4859	0.4154	0.6462	0.136
Mof_C 	C 	0.463	0.4118	0.6027	0.045
Mof_C 	C 	0.4876	0.4182	0.5649	-0.07
Mof_C 	C 	0.4676	0.416	0.5257	0.026
Mof_H 	H 	0.484	0.42	0.5012	0.044
Mof_C 	C 	0.4235	0.4081	0.521	-0.078
Mof_H 	H 	0.4104	0.4068	0.4943	0.069
Mof_C 	C 	0.4015	0.4026	0.5583	0.024
Mof_H 	H 	0.3722	0.3972	0.5564	0.051
Mof_C 	C 	0.419	0.4043	0.5985	-0.068
Mof_C 	C 	0.5065	0.3373	0.6455	0.32
Mof_C 	C 	0.4614	0.493	0.6498	0.526
Mof_C 	C 	0.5358	0.4212	0.5655	0.332
Mof_C 	C 	0.3886	0.3956	0.6358	0.318
Mof_O 	O 	0.5091	0.3311	0.6074	-0.243
Mof_O 	O 	0.5025	0.3055	0.6724	-0.234
Mof_O 	O 	0.426	0.4962	0.6497	-0.353
Mof_O 	O 	0.4777	0.5193	0.631	-0.353
Mof_O 	O 	0.5533	0.4464	0.5896	-0.259
Mof_O 	O 	0.5553	0.4001	0.5386	-0.253
Mof_O 	O 	0.3503	0.3994	0.6304	-0.282
Mof_O 	O 	0.4046	0.3818	0.6707	-0.229
Mof_Cd	Cd	0.42395	0.43796	0.87956	0.527
Mof_C 	C 	0.5064	0.6193	0.8356	-0.118
Mof_C 	C 	0.5325	0.6141	0.7981	0.075
Mof_H 	H 	0.5498	0.6361	0.7879	0.03
Mof_C 	C 	0.5305	0.5733	0.7772	-0.153
Mof_H 	H 	0.5432	0.5685	0.7506	0.1
Mof_C 	C 	0.5089	0.542	0.7985	0.142
Mof_H 	H 	0.5097	0.5148	0.7864	-0.005
Mof_C 	C 	0.4869	0.546	0.8343	-0.199
Mof_C 	C 	0.4859	0.5846	0.8538	0.138
Mof_C 	C 	0.463	0.5882	0.8973	0.042
Mof_C 	C 	0.4876	0.5818	0.9351	-0.066
Mof_C 	C 	0.4676	0.584	0.9743	0.018
Mof_H 	H 	0.484	0.58	0.9988	0.048
Mof_C 	C 	0.4235	0.5919	0.979	-0.064
Mof_H 	H 	0.4104	0.5932	0.0057	0.061
Mof_C 	C 	0.4015	0.5974	0.9417	0.015
Mof_H 	H 	0.3722	0.6028	0.9436	0.055
Mof_C 	C 	0.419	0.5957	0.9015	-0.063
Mof_C 	C 	0.5065	0.6627	0.8545	0.32
Mof_C 	C 	0.4614	0.507	0.8502	0.527
Mof_C 	C 	0.5358	0.5788	0.9345	0.33
Mof_C 	C 	0.3886	0.6044	0.8642	0.316
Mof_O 	O 	0.5091	0.6689	0.8926	-0.243
Mof_O 	O 	0.5025	0.6945	0.8276	-0.234
Mof_O 	O 	0.426	0.5038	0.8503	-0.353
Mof_O 	O 	0.4777	0.4807	0.869	-0.353
Mof_O 	O 	0.5533	0.5536	0.9104	-0.258
Mof_O 	O 	0.5553	0.5999	0.9614	-0.252
Mof_O 	O 	0.3503	0.6006	0.8696	-0.282
Mof_O 	O 	0.4046	0.6182	0.8293	-0.229
Mof_Cd	Cd	0.92395	0.93796	0.37956	0.528
Mof_C 	C 	0.0064	0.1193	0.3356	-0.12
Mof_C 	C 	0.0325	0.1141	0.2981	0.073
Mof_H 	H 	0.0498	0.1361	0.2879	0.03
Mof_C 	C 	0.0305	0.0733	0.2772	-0.149
Mof_H 	H 	0.0432	0.0685	0.2506	0.098
Mof_C 	C 	0.0089	0.042	0.2985	0.131
Mof_H 	H 	0.0097	0.0148	0.2864	-0.004
Mof_C 	C 	0.9869	0.046	0.3343	-0.191
Mof_C 	C 	0.9859	0.0846	0.3538	0.138
Mof_C 	C 	0.963	0.0882	0.3973	0.044
Mof_C 	C 	0.9876	0.0818	0.4351	-0.065
Mof_C 	C 	0.9676	0.084	0.4743	0.023
Mof_H 	H 	0.984	0.08	0.4988	0.046
Mof_C 	C 	0.9235	0.0919	0.479	-0.076
Mof_H 	H 	0.9104	0.0932	0.5057	0.068
Mof_C 	C 	0.9015	0.0974	0.4417	0.023
Mof_H 	H 	0.8722	0.1028	0.4436	0.051
Mof_C 	C 	0.919	0.0957	0.4015	-0.067
Mof_C 	C 	0.0065	0.1627	0.3545	0.32
Mof_C 	C 	0.9614	0.007	0.3502	0.518
Mof_C 	C 	0.0358	0.0788	0.4345	0.328
Mof_C 	C 	0.8886	0.1044	0.3642	0.317
Mof_O 	O 	0.0091	0.1689	0.3926	-0.244
Mof_O 	O 	0.0025	0.1945	0.3276	-0.235
Mof_O 	O 	0.926	0.0038	0.3503	-0.352
Mof_O 	O 	0.9777	0.9807	0.369	-0.346
Mof_O 	O 	0.0533	0.0536	0.4104	-0.259
Mof_O 	O 	0.0553	0.0999	0.4614	-0.253
Mof_O 	O 	0.8503	0.1006	0.3696	-0.283
Mof_O 	O 	0.9046	0.1182	0.3293	-0.229
Mof_Cd	Cd	0.57605	0.93796	0.62044	0.528
Mof_C 	C 	0.4936	0.1193	0.6644	-0.116
Mof_C 	C 	0.4675	0.1141	0.7019	0.073
Mof_H 	H 	0.4502	0.1361	0.7121	0.03
Mof_C 	C 	0.4695	0.0733	0.7228	-0.152
Mof_H 	H 	0.4568	0.0685	0.7494	0.099
Mof_C 	C 	0.4911	0.042	0.7015	0.139
Mof_H 	H 	0.4903	0.0148	0.7136	-0.005
Mof_C 	C 	0.5131	0.046	0.6657	-0.196
Mof_C 	C 	0.5141	0.0846	0.6462	0.135
Mof_C 	C 	0.537	0.0882	0.6027	0.046
Mof_C 	C 	0.5124	0.0818	0.5649	-0.071
Mof_C 	C 	0.5324	0.084	0.5257	0.026
Mof_H 	H 	0.516	0.08	0.5012	0.044
Mof_C 	C 	0.5765	0.0919	0.521	-0.079
Mof_H 	H 	0.5896	0.0932	0.4943	0.069
Mof_C 	C 	0.5985	0.0974	0.5583	0.025
Mof_H 	H 	0.6278	0.1028	0.5564	0.05
Mof_C 	C 	0.581	0.0957	0.5985	-0.068
Mof_C 	C 	0.4935	0.1627	0.6455	0.319
Mof_C 	C 	0.5386	0.007	0.6498	0.52
Mof_C 	C 	0.4642	0.0788	0.5655	0.332
Mof_C 	C 	0.6114	0.1044	0.6358	0.318
Mof_O 	O 	0.4909	0.1689	0.6074	-0.243
Mof_O 	O 	0.4975	0.1945	0.6724	-0.234
Mof_O 	O 	0.574	0.0038	0.6497	-0.353
Mof_O 	O 	0.5223	0.9807	0.631	-0.348
Mof_O 	O 	0.4467	0.0536	0.5896	-0.259
Mof_O 	O 	0.4447	0.0999	0.5386	-0.254
Mof_O 	O 	0.6497	0.1006	0.6304	-0.283
Mof_O 	O 	0.5954	0.1182	0.6707	-0.229
Mof_Cd	Cd	0.07605	0.43796	0.12044	0.526
Mof_C 	C 	0.9936	0.6193	0.1644	-0.112
Mof_C 	C 	0.9675	0.6141	0.2019	0.074
Mof_H 	H 	0.9502	0.6361	0.2121	0.03
Mof_C 	C 	0.9695	0.5733	0.2228	-0.155
Mof_H 	H 	0.9568	0.5685	0.2494	0.102
Mof_C 	C 	0.9911	0.542	0.2015	0.148
Mof_H 	H 	0.9903	0.5148	0.2136	-0.006
Mof_C 	C 	0.0131	0.546	0.1657	-0.203
Mof_C 	C 	0.0141	0.5846	0.1462	0.132
Mof_C 	C 	0.037	0.5882	0.1027	0.05
Mof_C 	C 	0.0124	0.5818	0.0649	-0.08
Mof_C 	C 	0.0324	0.584	0.0257	0.038
Mof_H 	H 	0.016	0.58	0.0012	0.037
Mof_C 	C 	0.0765	0.5919	0.021	-0.096
Mof_H 	H 	0.0896	0.5932	0.9943	0.078
Mof_C 	C 	0.0985	0.5974	0.0583	0.036
Mof_H 	H 	0.1278	0.6028	0.0564	0.046
Mof_C 	C 	0.081	0.5957	0.0985	-0.074
Mof_C 	C 	0.9935	0.6627	0.1455	0.318
Mof_C 	C 	0.0386	0.507	0.1498	0.528
Mof_C 	C 	0.9642	0.5788	0.0655	0.338
Mof_C 	C 	0.1114	0.6044	0.1358	0.32
Mof_O 	O 	0.9909	0.6689	0.1074	-0.241
Mof_O 	O 	0.9975	0.6945	0.1724	-0.231
Mof_O 	O 	0.074	0.5038	0.1497	-0.354
Mof_O 	O 	0.0223	0.4807	0.131	-0.355
Mof_O 	O 	0.9467	0.5536	0.0896	-0.259
Mof_O 	O 	0.9447	0.5999	0.0386	-0.255
Mof_O 	O 	0.1497	0.6006	0.1304	-0.283
Mof_O 	O 	0.0954	0.6182	0.1707	-0.23
Mof_Cd	Cd	0.07605	0.56204	0.37956	0.526
Mof_C 	C 	0.9936	0.3807	0.3356	-0.113
Mof_C 	C 	0.9675	0.3859	0.2981	0.075
Mof_H 	H 	0.9502	0.3639	0.2879	0.03
Mof_C 	C 	0.9695	0.4267	0.2772	-0.156
Mof_H 	H 	0.9568	0.4315	0.2506	0.102
Mof_C 	C 	0.9911	0.458	0.2985	0.149
Mof_H 	H 	0.9903	0.4852	0.2864	-0.006
Mof_C 	C 	0.0131	0.454	0.3343	-0.204
Mof_C 	C 	0.0141	0.4154	0.3538	0.133
Mof_C 	C 	0.037	0.4118	0.3973	0.047
Mof_C 	C 	0.0124	0.4182	0.4351	-0.076
Mof_C 	C 	0.0324	0.416	0.4743	0.03
Mof_H 	H 	0.016	0.42	0.4988	0.042
Mof_C 	C 	0.0765	0.4081	0.479	-0.081
Mof_H 	H 	0.0896	0.4068	0.5057	0.07
Mof_C 	C 	0.0985	0.4026	0.4417	0.027
Mof_H 	H 	0.1278	0.3972	0.4436	0.05
Mof_C 	C 	0.081	0.4043	0.4015	-0.07
Mof_C 	C 	0.9935	0.3373	0.3545	0.319
Mof_C 	C 	0.0386	0.493	0.3502	0.528
Mof_C 	C 	0.9642	0.4212	0.4345	0.336
Mof_C 	C 	0.1114	0.3956	0.3642	0.319
Mof_O 	O 	0.9909	0.3311	0.3926	-0.241
Mof_O 	O 	0.9975	0.3055	0.3276	-0.232
Mof_O 	O 	0.074	0.4962	0.3503	-0.354
Mof_O 	O 	0.0223	0.5193	0.369	-0.355
Mof_O 	O 	0.9467	0.4464	0.4104	-0.259
Mof_O 	O 	0.9447	0.4001	0.4614	-0.254
Mof_O 	O 	0.1497	0.3994	0.3696	-0.282
Mof_O 	O 	0.0954	0.3818	0.3293	-0.23
Mof_Cd	Cd	0.57605	0.06204	0.87956	0.526
Mof_C 	C 	0.4936	0.8807	0.8356	-0.118
Mof_C 	C 	0.4675	0.8859	0.7981	0.075
Mof_H 	H 	0.4502	0.8639	0.7879	0.03
Mof_C 	C 	0.4695	0.9267	0.7772	-0.154
Mof_H 	H 	0.4568	0.9315	0.7506	0.101
Mof_C 	C 	0.4911	0.958	0.7985	0.143
Mof_H 	H 	0.4903	0.9852	0.7864	-0.004
Mof_C 	C 	0.5131	0.954	0.8343	-0.201
Mof_C 	C 	0.5141	0.9154	0.8538	0.139
Mof_C 	C 	0.537	0.9118	0.8973	0.042
Mof_C 	C 	0.5124	0.9182	0.9351	-0.065
Mof_C 	C 	0.5324	0.916	0.9743	0.018
Mof_H 	H 	0.516	0.92	0.9988	0.049
Mof_C 	C 	0.5765	0.9081	0.979	-0.063
Mof_H 	H 	0.5896	0.9068	0.0057	0.061
Mof_C 	C 	0.5985	0.9026	0.9417	0.016
Mof_H 	H 	0.6278	0.8972	0.9436	0.055
Mof_C 	C 	0.581	0.9043	0.9015	-0.063
Mof_C 	C 	0.4935	0.8373	0.8545	0.32
Mof_C 	C 	0.5386	0.993	0.8502	0.533
Mof_C 	C 	0.4642	0.9212	0.9345	0.33
Mof_C 	C 	0.6114	0.8956	0.8642	0.316
Mof_O 	O 	0.4909	0.8311	0.8926	-0.243
Mof_O 	O 	0.4975	0.8055	0.8276	-0.234
Mof_O 	O 	0.574	0.9962	0.8503	-0.353
Mof_O 	O 	0.5223	0.0193	0.869	-0.358
Mof_O 	O 	0.4467	0.9464	0.9104	-0.257
Mof_O 	O 	0.4447	0.9001	0.9614	-0.252
Mof_O 	O 	0.6497	0.8994	0.8696	-0.281
Mof_O 	O 	0.5954	0.8818	0.8293	-0.229
Mof_Cd	Cd	0.12044	0.92395	0.06204	0.526
Mof_C 	C 	0.1644	0.0064	0.8807	-0.121
Mof_C 	C 	0.2019	0.0325	0.8859	0.074
Mof_H 	H 	0.2121	0.0498	0.8639	0.03
Mof_C 	C 	0.2228	0.0305	0.9267	-0.151
Mof_H 	H 	0.2494	0.0432	0.9315	0.099
Mof_C 	C 	0.2015	0.0089	0.958	0.135
Mof_H 	H 	0.2136	0.0097	0.9852	-0.002
Mof_C 	C 	0.1657	0.9869	0.954	-0.194
Mof_C 	C 	0.1462	0.9859	0.9154	0.14
Mof_C 	C 	0.1027	0.963	0.9118	0.046
Mof_C 	C 	0.0649	0.9876	0.9182	-0.068
Mof_C 	C 	0.0257	0.9676	0.916	0.031
Mof_H 	H 	0.0012	0.984	0.92	0.043
Mof_C 	C 	0.021	0.9235	0.9081	-0.089
Mof_H 	H 	0.9943	0.9104	0.9068	0.076
Mof_C 	C 	0.0583	0.9015	0.9026	0.031
Mof_H 	H 	0.0564	0.8722	0.8972	0.049
Mof_C 	C 	0.0985	0.919	0.9043	-0.07
Mof_C 	C 	0.1455	0.0065	0.8373	0.321
Mof_C 	C 	0.1498	0.9614	0.993	0.531
Mof_C 	C 	0.0655	0.0358	0.9212	0.329
Mof_C 	C 	0.1358	0.8886	0.8956	0.319
Mof_O 	O 	0.1074	0.0091	0.8311	-0.245
Mof_O 	O 	0.1724	0.0025	0.8055	-0.235
Mof_O 	O 	0.1497	0.926	0.9962	-0.352
Mof_O 	O 	0.131	0.9777	0.0193	-0.356
Mof_O 	O 	0.0896	0.0533	0.9464	-0.258
Mof_O 	O 	0.0386	0.0553	0.9001	-0.254
Mof_O 	O 	0.1304	0.8503	0.8994	-0.282
Mof_O 	O 	0.1707	0.9046	0.8818	-0.229
Mof_Cd	Cd	0.62044	0.42395	0.56204	0.527
Mof_C 	C 	0.6644	0.5064	0.3807	-0.117
Mof_C 	C 	0.7019	0.5325	0.3859	0.074
Mof_H 	H 	0.7121	0.5498	0.3639	0.03
Mof_C 	C 	0.7228	0.5305	0.4267	-0.153
Mof_H 	H 	0.7494	0.5432	0.4315	0.1
Mof_C 	C 	0.7015	0.5089	0.458	0.141
Mof_H 	H 	0.7136	0.5097	0.4852	-0.005
Mof_C 	C 	0.6657	0.4869	0.454	-0.198
Mof_C 	C 	0.6462	0.4859	0.4154	0.136
Mof_C 	C 	0.6027	0.463	0.4118	0.045
Mof_C 	C 	0.5649	0.4876	0.4182	-0.07
Mof_C 	C 	0.5257	0.4676	0.416	0.026
Mof_H 	H 	0.5012	0.484	0.42	0.044
Mof_C 	C 	0.521	0.4235	0.4081	-0.078
Mof_H 	H 	0.4943	0.4104	0.4068	0.069
Mof_C 	C 	0.5583	0.4015	0.4026	0.024
Mof_H 	H 	0.5564	0.3722	0.3972	0.051
Mof_C 	C 	0.5985	0.419	0.4043	-0.068
Mof_C 	C 	0.6455	0.5065	0.3373	0.32
Mof_C 	C 	0.6498	0.4614	0.493	0.526
Mof_C 	C 	0.5655	0.5358	0.4212	0.332
Mof_C 	C 	0.6358	0.3886	0.3956	0.318
Mof_O 	O 	0.6074	0.5091	0.3311	-0.243
Mof_O 	O 	0.6724	0.5025	0.3055	-0.234
Mof_O 	O 	0.6497	0.426	0.4962	-0.353
Mof_O 	O 	0.631	0.4777	0.5193	-0.353
Mof_O 	O 	0.5896	0.5533	0.4464	-0.259
Mof_O 	O 	0.5386	0.5553	0.4001	-0.253
Mof_O 	O 	0.6304	0.3503	0.3994	-0.282
Mof_O 	O 	0.6707	0.4046	0.3818	-0.229
Mof_Cd	Cd	0.87956	0.42395	0.43796	0.527
Mof_C 	C 	0.8356	0.5064	0.6193	-0.118
Mof_C 	C 	0.7981	0.5325	0.6141	0.075
Mof_H 	H 	0.7879	0.5498	0.6361	0.03
Mof_C 	C 	0.7772	0.5305	0.5733	-0.153
Mof_H 	H 	0.7506	0.5432	0.5685	0.1
Mof_C 	C 	0.7985	0.5089	0.542	0.142
Mof_H 	H 	0.7864	0.5097	0.5148	-0.005
Mof_C 	C 	0.8343	0.4869	0.546	-0.199
Mof_C 	C 	0.8538	0.4859	0.5846	0.138
Mof_C 	C 	0.8973	0.463	0.5882	0.042
Mof_C 	C 	0.9351	0.4876	0.5818	-0.066
Mof_C 	C 	0.9743	0.4676	0.584	0.018
Mof_H 	H 	0.9988	0.484	0.58	0.048
Mof_C 	C 	0.979	0.4235	0.5919	-0.064
Mof_H 	H 	0.0057	0.4104	0.5932	0.061
Mof_C 	C 	0.9417	0.4015	0.5974	0.015
Mof_H 	H 	0.9436	0.3722	0.6028	0.055
Mof_C 	C 	0.9015	0.419	0.5957	-0.063
Mof_C 	C 	0.8545	0.5065	0.6627	0.32
Mof_C 	C 	0.8502	0.4614	0.507	0.527
Mof_C 	C 	0.9345	0.5358	0.5788	0.33
Mof_C 	C 	0.8642	0.3886	0.6044	0.316
Mof_O 	O 	0.8926	0.5091	0.6689	-0.243
Mof_O 	O 	0.8276	0.5025	0.6945	-0.234
Mof_O 	O 	0.8503	0.426	0.5038	-0.353
Mof_O 	O 	0.869	0.4777	0.4807	-0.353
Mof_O 	O 	0.9104	0.5533	0.5536	-0.258
Mof_O 	O 	0.9614	0.5553	0.5999	-0.252
Mof_O 	O 	0.8696	0.3503	0.6006	-0.282
Mof_O 	O 	0.8293	0.4046	0.6182	-0.229
Mof_Cd	Cd	0.37956	0.92395	0.93796	0.528
Mof_C 	C 	0.3356	0.0064	0.1193	-0.12
Mof_C 	C 	0.2981	0.0325	0.1141	0.073
Mof_H 	H 	0.2879	0.0498	0.1361	0.03
Mof_C 	C 	0.2772	0.0305	0.0733	-0.149
Mof_H 	H 	0.2506	0.0432	0.0685	0.098
Mof_C 	C 	0.2985	0.0089	0.042	0.131
Mof_H 	H 	0.2864	0.0097	0.0148	-0.004
Mof_C 	C 	0.3343	0.9869	0.046	-0.191
Mof_C 	C 	0.3538	0.9859	0.0846	0.138
Mof_C 	C 	0.3973	0.963	0.0882	0.044
Mof_C 	C 	0.4351	0.9876	0.0818	-0.065
Mof_C 	C 	0.4743	0.9676	0.084	0.023
Mof_H 	H 	0.4988	0.984	0.08	0.046
Mof_C 	C 	0.479	0.9235	0.0919	-0.076
Mof_H 	H 	0.5057	0.9104	0.0932	0.068
Mof_C 	C 	0.4417	0.9015	0.0974	0.023
Mof_H 	H 	0.4436	0.8722	0.1028	0.051
Mof_C 	C 	0.4015	0.919	0.0957	-0.067
Mof_C 	C 	0.3545	0.0065	0.1627	0.32
Mof_C 	C 	0.3502	0.9614	0.007	0.518
Mof_C 	C 	0.4345	0.0358	0.0788	0.328
Mof_C 	C 	0.3642	0.8886	0.1044	0.317
Mof_O 	O 	0.3926	0.0091	0.1689	-0.244
Mof_O 	O 	0.3276	0.0025	0.1945	-0.235
Mof_O 	O 	0.3503	0.926	0.0038	-0.352
Mof_O 	O 	0.369	0.9777	0.9807	-0.346
Mof_O 	O 	0.4104	0.0533	0.0536	-0.259
Mof_O 	O 	0.4614	0.0553	0.0999	-0.253
Mof_O 	O 	0.3696	0.8503	0.1006	-0.283
Mof_O 	O 	0.3293	0.9046	0.1182	-0.229
Mof_Cd	Cd	0.62044	0.57605	0.93796	0.528
Mof_C 	C 	0.6644	0.4936	0.1193	-0.116
Mof_C 	C 	0.7019	0.4675	0.1141	0.073
Mof_H 	H 	0.7121	0.4502	0.1361	0.03
Mof_C 	C 	0.7228	0.4695	0.0733	-0.152
Mof_H 	H 	0.7494	0.4568	0.0685	0.099
Mof_C 	C 	0.7015	0.4911	0.042	0.139
Mof_H 	H 	0.7136	0.4903	0.0148	-0.005
Mof_C 	C 	0.6657	0.5131	0.046	-0.196
Mof_C 	C 	0.6462	0.5141	0.0846	0.135
Mof_C 	C 	0.6027	0.537	0.0882	0.046
Mof_C 	C 	0.5649	0.5124	0.0818	-0.071
Mof_C 	C 	0.5257	0.5324	0.084	0.026
Mof_H 	H 	0.5012	0.516	0.08	0.044
Mof_C 	C 	0.521	0.5765	0.0919	-0.079
Mof_H 	H 	0.4943	0.5896	0.0932	0.069
Mof_C 	C 	0.5583	0.5985	0.0974	0.025
Mof_H 	H 	0.5564	0.6278	0.1028	0.05
Mof_C 	C 	0.5985	0.581	0.0957	-0.068
Mof_C 	C 	0.6455	0.4935	0.1627	0.319
Mof_C 	C 	0.6498	0.5386	0.007	0.52
Mof_C 	C 	0.5655	0.4642	0.0788	0.332
Mof_C 	C 	0.6358	0.6114	0.1044	0.318
Mof_O 	O 	0.6074	0.4909	0.1689	-0.243
Mof_O 	O 	0.6724	0.4975	0.1945	-0.234
Mof_O 	O 	0.6497	0.574	0.0038	-0.353
Mof_O 	O 	0.631	0.5223	0.9807	-0.348
Mof_O 	O 	0.5896	0.4467	0.0536	-0.259
Mof_O 	O 	0.5386	0.4447	0.0999	-0.254
Mof_O 	O 	0.6304	0.6497	0.1006	-0.283
Mof_O 	O 	0.6707	0.5954	0.1182	-0.229
Mof_Cd	Cd	0.12044	0.07605	0.43796	0.526
Mof_C 	C 	0.1644	0.9936	0.6193	-0.112
Mof_C 	C 	0.2019	0.9675	0.6141	0.074
Mof_H 	H 	0.2121	0.9502	0.6361	0.03
Mof_C 	C 	0.2228	0.9695	0.5733	-0.155
Mof_H 	H 	0.2494	0.9568	0.5685	0.102
Mof_C 	C 	0.2015	0.9911	0.542	0.148
Mof_H 	H 	0.2136	0.9903	0.5148	-0.006
Mof_C 	C 	0.1657	0.0131	0.546	-0.203
Mof_C 	C 	0.1462	0.0141	0.5846	0.132
Mof_C 	C 	0.1027	0.037	0.5882	0.05
Mof_C 	C 	0.0649	0.0124	0.5818	-0.08
Mof_C 	C 	0.0257	0.0324	0.584	0.038
Mof_H 	H 	0.0012	0.016	0.58	0.037
Mof_C 	C 	0.021	0.0765	0.5919	-0.096
Mof_H 	H 	0.9943	0.0896	0.5932	0.078
Mof_C 	C 	0.0583	0.0985	0.5974	0.036
Mof_H 	H 	0.0564	0.1278	0.6028	0.046
Mof_C 	C 	0.0985	0.081	0.5957	-0.074
Mof_C 	C 	0.1455	0.9935	0.6627	0.318
Mof_C 	C 	0.1498	0.0386	0.507	0.528
Mof_C 	C 	0.0655	0.9642	0.5788	0.338
Mof_C 	C 	0.1358	0.1114	0.6044	0.32
Mof_O 	O 	0.1074	0.9909	0.6689	-0.241
Mof_O 	O 	0.1724	0.9975	0.6945	-0.231
Mof_O 	O 	0.1497	0.074	0.5038	-0.354
Mof_O 	O 	0.131	0.0223	0.4807	-0.355
Mof_O 	O 	0.0896	0.9467	0.5536	-0.259
Mof_O 	O 	0.0386	0.9447	0.5999	-0.255
Mof_O 	O 	0.1304	0.1497	0.6006	-0.283
Mof_O 	O 	0.1707	0.0954	0.6182	-0.23
Mof_Cd	Cd	0.37956	0.07605	0.56204	0.526
Mof_C 	C 	0.3356	0.9936	0.3807	-0.113
Mof_C 	C 	0.2981	0.9675	0.3859	0.075
Mof_H 	H 	0.2879	0.9502	0.3639	0.03
Mof_C 	C 	0.2772	0.9695	0.4267	-0.156
Mof_H 	H 	0.2506	0.9568	0.4315	0.102
Mof_C 	C 	0.2985	0.9911	0.458	0.149
Mof_H 	H 	0.2864	0.9903	0.4852	-0.006
Mof_C 	C 	0.3343	0.0131	0.454	-0.204
Mof_C 	C 	0.3538	0.0141	0.4154	0.133
Mof_C 	C 	0.3973	0.037	0.4118	0.047
Mof_C 	C 	0.4351	0.0124	0.4182	-0.076
Mof_C 	C 	0.4743	0.0324	0.416	0.03
Mof_H 	H 	0.4988	0.016	0.42	0.042
Mof_C 	C 	0.479	0.0765	0.4081	-0.081
Mof_H 	H 	0.5057	0.0896	0.4068	0.07
Mof_C 	C 	0.4417	0.0985	0.4026	0.027
Mof_H 	H 	0.4436	0.1278	0.3972	0.05
Mof_C 	C 	0.4015	0.081	0.4043	-0.07
Mof_C 	C 	0.3545	0.9935	0.3373	0.319
Mof_C 	C 	0.3502	0.0386	0.493	0.528
Mof_C 	C 	0.4345	0.9642	0.4212	0.336
Mof_C 	C 	0.3642	0.1114	0.3956	0.319
Mof_O 	O 	0.3926	0.9909	0.3311	-0.241
Mof_O 	O 	0.3276	0.9975	0.3055	-0.232
Mof_O 	O 	0.3503	0.074	0.4962	-0.354
Mof_O 	O 	0.369	0.0223	0.5193	-0.355
Mof_O 	O 	0.4104	0.9467	0.4464	-0.259
Mof_O 	O 	0.4614	0.9447	0.4001	-0.254
Mof_O 	O 	0.3696	0.1497	0.3994	-0.282
Mof_O 	O 	0.3293	0.0954	0.3818	-0.23
Mof_Cd	Cd	0.87956	0.57605	0.06204	0.526
Mof_C 	C 	0.8356	0.4936	0.8807	-0.118
Mof_C 	C 	0.7981	0.4675	0.8859	0.075
Mof_H 	H 	0.7879	0.4502	0.8639	0.03
Mof_C 	C 	0.7772	0.4695	0.9267	-0.154
Mof_H 	H 	0.7506	0.4568	0.9315	0.101
Mof_C 	C 	0.7985	0.4911	0.958	0.143
Mof_H 	H 	0.7864	0.4903	0.9852	-0.004
Mof_C 	C 	0.8343	0.5131	0.954	-0.201
Mof_C 	C 	0.8538	0.5141	0.9154	0.139
Mof_C 	C 	0.8973	0.537	0.9118	0.042
Mof_C 	C 	0.9351	0.5124	0.9182	-0.065
Mof_C 	C 	0.9743	0.5324	0.916	0.018
Mof_H 	H 	0.9988	0.516	0.92	0.049
Mof_C 	C 	0.979	0.5765	0.9081	-0.063
Mof_H 	H 	0.0057	0.5896	0.9068	0.061
Mof_C 	C 	0.9417	0.5985	0.9026	0.016
Mof_H 	H 	0.9436	0.6278	0.8972	0.055
Mof_C 	C 	0.9015	0.581	0.9043	-0.063
Mof_C 	C 	0.8545	0.4935	0.8373	0.32
Mof_C 	C 	0.8502	0.5386	0.993	0.533
Mof_C 	C 	0.9345	0.4642	0.9212	0.33
Mof_C 	C 	0.8642	0.6114	0.8956	0.316
Mof_O 	O 	0.8926	0.4909	0.8311	-0.243
Mof_O 	O 	0.8276	0.4975	0.8055	-0.234
Mof_O 	O 	0.8503	0.574	0.9962	-0.353
Mof_O 	O 	0.869	0.5223	0.0193	-0.358
Mof_O 	O 	0.9104	0.4467	0.9464	-0.257
Mof_O 	O 	0.9614	0.4447	0.9001	-0.252
Mof_O 	O 	0.8696	0.6497	0.8994	-0.281
Mof_O 	O 	0.8293	0.5954	0.8818	-0.229
Mof_Cd	Cd	0.37044	0.31204	0.17395	0.527
Mof_C 	C 	0.4144	0.1307	0.2564	-0.117
Mof_C 	C 	0.4519	0.1359	0.2825	0.074
Mof_H 	H 	0.4621	0.1139	0.2998	0.03
Mof_C 	C 	0.4728	0.1767	0.2805	-0.153
Mof_H 	H 	0.4994	0.1815	0.2932	0.1
Mof_C 	C 	0.4515	0.208	0.2589	0.141
Mof_H 	H 	0.4636	0.2352	0.2597	-0.005
Mof_C 	C 	0.4157	0.204	0.2369	-0.198
Mof_C 	C 	0.3962	0.1654	0.2359	0.136
Mof_C 	C 	0.3527	0.1618	0.213	0.045
Mof_C 	C 	0.3149	0.1682	0.2376	-0.07
Mof_C 	C 	0.2757	0.166	0.2176	0.026
Mof_H 	H 	0.2512	0.17	0.234	0.044
Mof_C 	C 	0.271	0.1581	0.1735	-0.079
Mof_H 	H 	0.2443	0.1568	0.1604	0.069
Mof_C 	C 	0.3083	0.1526	0.1515	0.025
Mof_H 	H 	0.3064	0.1472	0.1222	0.05
Mof_C 	C 	0.3485	0.1543	0.169	-0.068
Mof_C 	C 	0.3955	0.0873	0.2565	0.32
Mof_C 	C 	0.3998	0.243	0.2114	0.527
Mof_C 	C 	0.3155	0.1712	0.2858	0.332
Mof_C 	C 	0.3858	0.1456	0.1386	0.318
Mof_O 	O 	0.3574	0.0811	0.2591	-0.243
Mof_O 	O 	0.4224	0.0555	0.2525	-0.235
Mof_O 	O 	0.3997	0.2462	0.176	-0.353
Mof_O 	O 	0.381	0.2693	0.2277	-0.353
Mof_O 	O 	0.3396	0.1964	0.3033	-0.259
Mof_O 	O 	0.2886	0.1501	0.3053	-0.254
Mof_O 	O 	0.3804	0.1494	0.1003	-0.283
Mof_O 	O 	0.4207	0.1318	0.1546	-0.229
Mof_Cd	Cd	0.87044	0.81204	0.67395	0.527
Mof_C 	C 	0.9144	0.6307	0.7564	-0.117
Mof_C 	C 	0.9519	0.6359	0.7825	0.074
Mof_H 	H 	0.9621	0.6139	0.7998	0.03
Mof_C 	C 	0.9728	0.6767	0.7805	-0.152
Mof_H 	H 	0.9994	0.6815	0.7932	0.101
Mof_C 	C 	0.9515	0.708	0.7589	0.141
Mof_H 	H 	0.9636	0.7352	0.7597	-0.003
Mof_C 	C 	0.9157	0.704	0.7369	-0.198
Mof_C 	C 	0.8962	0.6654	0.7359	0.136
Mof_C 	C 	0.8527	0.6618	0.713	0.045
Mof_C 	C 	0.8149	0.6682	0.7376	-0.07
Mof_C 	C 	0.7757	0.666	0.7176	0.026
Mof_H 	H 	0.7512	0.67	0.734	0.044
Mof_C 	C 	0.771	0.6581	0.6735	-0.078
Mof_H 	H 	0.7443	0.6568	0.6604	0.069
Mof_C 	C 	0.8083	0.6526	0.6515	0.024
Mof_H 	H 	0.8064	0.6472	0.6222	0.051
Mof_C 	C 	0.8485	0.6543	0.669	-0.068
Mof_C 	C 	0.8955	0.5873	0.7565	0.32
Mof_C 	C 	0.8998	0.743	0.7114	0.526
Mof_C 	C 	0.8155	0.6712	0.7858	0.332
Mof_C 	C 	0.8858	0.6456	0.6386	0.318
Mof_O 	O 	0.8574	0.5811	0.7591	-0.243
Mof_O 	O 	0.9224	0.5555	0.7525	-0.233
Mof_O 	O 	0.8997	0.7462	0.676	-0.353
Mof_O 	O 	0.881	0.7693	0.7277	-0.352
Mof_O 	O 	0.8396	0.6964	0.8033	-0.258
Mof_O 	O 	0.7886	0.6501	0.8053	-0.253
Mof_O 	O 	0.8804	0.6494	0.6003	-0.282
Mof_O 	O 	0.9207	0.6318	0.6546	-0.229
Mof_Cd	Cd	0.12956	0.68796	0.67395	0.526
Mof_C 	C 	0.0856	0.8693	0.7564	-0.117
Mof_C 	C 	0.0481	0.8641	0.7825	0.074
Mof_H 	H 	0.0379	0.8861	0.7998	0.03
Mof_C 	C 	0.0272	0.8233	0.7805	-0.153
Mof_H 	H 	0.0006	0.8185	0.7932	0.099
Mof_C 	C 	0.0485	0.792	0.7589	0.141
Mof_H 	H 	0.0364	0.7648	0.7597	-0.005
Mof_C 	C 	0.0843	0.796	0.7369	-0.199
Mof_C 	C 	0.1038	0.8346	0.7359	0.136
Mof_C 	C 	0.1473	0.8382	0.713	0.045
Mof_C 	C 	0.1851	0.8318	0.7376	-0.07
Mof_C 	C 	0.2243	0.834	0.7176	0.026
Mof_H 	H 	0.2488	0.83	0.734	0.044
Mof_C 	C 	0.229	0.8419	0.6735	-0.078
Mof_H 	H 	0.2557	0.8432	0.6604	0.069
Mof_C 	C 	0.1917	0.8474	0.6515	0.025
Mof_H 	H 	0.1936	0.8528	0.6222	0.051
Mof_C 	C 	0.1515	0.8457	0.669	-0.068
Mof_C 	C 	0.1045	0.9127	0.7565	0.319
Mof_C 	C 	0.1002	0.757	0.7114	0.526
Mof_C 	C 	0.1845	0.8288	0.7858	0.332
Mof_C 	C 	0.1142	0.8544	0.6386	0.318
Mof_O 	O 	0.1426	0.9189	0.7591	-0.242
Mof_O 	O 	0.0776	0.9445	0.7525	-0.233
Mof_O 	O 	0.1003	0.7538	0.676	-0.353
Mof_O 	O 	0.119	0.7307	0.7277	-0.353
Mof_O 	O 	0.1604	0.8036	0.8033	-0.259
Mof_O 	O 	0.2114	0.8499	0.8053	-0.253
Mof_O 	O 	0.1196	0.8506	0.6003	-0.282
Mof_O 	O 	0.0793	0.8682	0.6546	-0.23
Mof_Cd	Cd	0.62956	0.18796	0.17395	0.527
Mof_C 	C 	0.5856	0.3693	0.2564	-0.117
Mof_C 	C 	0.5481	0.3641	0.2825	0.074
Mof_H 	H 	0.5379	0.3861	0.2998	0.03
Mof_C 	C 	0.5272	0.3233	0.2805	-0.153
Mof_H 	H 	0.5006	0.3185	0.2932	0.1
Mof_C 	C 	0.5485	0.292	0.2589	0.141
Mof_H 	H 	0.5364	0.2648	0.2597	-0.005
Mof_C 	C 	0.5843	0.296	0.2369	-0.198
Mof_C 	C 	0.6038	0.3346	0.2359	0.136
Mof_C 	C 	0.6473	0.3382	0.213	0.045
Mof_C 	C 	0.6851	0.3318	0.2376	-0.07
Mof_C 	C 	0.7243	0.334	0.2176	0.027
Mof_H 	H 	0.7488	0.33	0.234	0.044
Mof_C 	C 	0.729	0.3419	0.1735	-0.079
Mof_H 	H 	0.7557	0.3432	0.1604	0.069
Mof_C 	C 	0.6917	0.3474	0.1515	0.025
Mof_H 	H 	0.6936	0.3528	0.1222	0.051
Mof_C 	C 	0.6515	0.3457	0.169	-0.068
Mof_C 	C 	0.6045	0.4127	0.2565	0.32
Mof_C 	C 	0.6002	0.257	0.2114	0.527
Mof_C 	C 	0.6845	0.3288	0.2858	0.332
Mof_C 	C 	0.6142	0.3544	0.1386	0.318
Mof_O 	O 	0.6426	0.4189	0.2591	-0.243
Mof_O 	O 	0.5776	0.4445	0.2525	-0.234
Mof_O 	O 	0.6003	0.2538	0.176	-0.353
Mof_O 	O 	0.619	0.2307	0.2277	-0.353
Mof_O 	O 	0.6604	0.3036	0.3033	-0.259
Mof_O 	O 	0.7114	0.3499	0.3053	-0.253
Mof_O 	O 	0.6196	0.3506	0.1003	-0.283
Mof_O 	O 	0.5793	0.3682	0.1546	-0.229
Mof_Cd	Cd	0.87044	0.18796	0.82605	0.527
Mof_C 	C 	0.9144	0.3693	0.7436	-0.117
Mof_C 	C 	0.9519	0.3641	0.7175	0.074
Mof_H 	H 	0.9621	0.3861	0.7002	0.03
Mof_C 	C 	0.9728	0.3233	0.7195	-0.152
Mof_H 	H 	0.9994	0.3185	0.7068	0.101
Mof_C 	C 	0.9515	0.292	0.7411	0.141
Mof_H 	H 	0.9636	0.2648	0.7403	-0.003
Mof_C 	C 	0.9157	0.296	0.7631	-0.198
Mof_C 	C 	0.8962	0.3346	0.7641	0.136
Mof_C 	C 	0.8527	0.3382	0.787	0.045
Mof_C 	C 	0.8149	0.3318	0.7624	-0.07
Mof_C 	C 	0.7757	0.334	0.7824	0.026
Mof_H 	H 	0.7512	0.33	0.766	0.044
Mof_C 	C 	0.771	0.3419	0.8265	-0.078
Mof_H 	H 	0.7443	0.3432	0.8396	0.069
Mof_C 	C 	0.8083	0.3474	0.8485	0.024
Mof_H 	H 	0.8064	0.3528	0.8778	0.051
Mof_C 	C 	0.8485	0.3457	0.831	-0.068
Mof_C 	C 	0.8955	0.4127	0.7435	0.32
Mof_C 	C 	0.8998	0.257	0.7886	0.526
Mof_C 	C 	0.8155	0.3288	0.7142	0.332
Mof_C 	C 	0.8858	0.3544	0.8614	0.318
Mof_O 	O 	0.8574	0.4189	0.7409	-0.243
Mof_O 	O 	0.9224	0.4445	0.7475	-0.233
Mof_O 	O 	0.8997	0.2538	0.824	-0.352
Mof_O 	O 	0.881	0.2307	0.7723	-0.353
Mof_O 	O 	0.8396	0.3036	0.6967	-0.258
Mof_O 	O 	0.7886	0.3499	0.6947	-0.253
Mof_O 	O 	0.8804	0.3506	0.8997	-0.282
Mof_O 	O 	0.9207	0.3682	0.8454	-0.229
Mof_Cd	Cd	0.37044	0.68796	0.32605	0.527
Mof_C 	C 	0.4144	0.8693	0.2436	-0.117
Mof_C 	C 	0.4519	0.8641	0.2175	0.074
Mof_H 	H 	0.4621	0.8861	0.2002	0.03
Mof_C 	C 	0.4728	0.8233	0.2195	-0.153
Mof_H 	H 	0.4994	0.8185	0.2068	0.1
Mof_C 	C 	0.4515	0.792	0.2411	0.141
Mof_H 	H 	0.4636	0.7648	0.2403	-0.005
Mof_C 	C 	0.4157	0.796	0.2631	-0.198
Mof_C 	C 	0.3962	0.8346	0.2641	0.136
Mof_C 	C 	0.3527	0.8382	0.287	0.045
Mof_C 	C 	0.3149	0.8318	0.2624	-0.07
Mof_C 	C 	0.2757	0.834	0.2824	0.026
Mof_H 	H 	0.2512	0.83	0.266	0.044
Mof_C 	C 	0.271	0.8419	0.3265	-0.078
Mof_H 	H 	0.2443	0.8432	0.3396	0.069
Mof_C 	C 	0.3083	0.8474	0.3485	0.024
Mof_H 	H 	0.3064	0.8528	0.3778	0.051
Mof_C 	C 	0.3485	0.8457	0.331	-0.068
Mof_C 	C 	0.3955	0.9127	0.2435	0.319
Mof_C 	C 	0.3998	0.757	0.2886	0.526
Mof_C 	C 	0.3155	0.8288	0.2142	0.332
Mof_C 	C 	0.3858	0.8544	0.3614	0.318
Mof_O 	O 	0.3574	0.9189	0.2409	-0.242
Mof_O 	O 	0.4224	0.9445	0.2475	-0.232
Mof_O 	O 	0.3997	0.7538	0.324	-0.353
Mof_O 	O 	0.381	0.7307	0.2723	-0.353
Mof_O 	O 	0.3396	0.8036	0.1967	-0.259
Mof_O 	O 	0.2886	0.8499	0.1947	-0.253
Mof_O 	O 	0.3804	0.8506	0.3997	-0.282
Mof_O 	O 	0.4207	0.8682	0.3454	-0.229
Mof_Cd	Cd	0.62956	0.81204	0.32605	0.527
Mof_C 	C 	0.5856	0.6307	0.2436	-0.117
Mof_C 	C 	0.5481	0.6359	0.2175	0.074
Mof_H 	H 	0.5379	0.6139	0.2002	0.03
Mof_C 	C 	0.5272	0.6767	0.2195	-0.153
Mof_H 	H 	0.5006	0.6815	0.2068	0.1
Mof_C 	C 	0.5485	0.708	0.2411	0.141
Mof_H 	H 	0.5364	0.7352	0.2403	-0.005
Mof_C 	C 	0.5843	0.704	0.2631	-0.198
Mof_C 	C 	0.6038	0.6654	0.2641	0.136
Mof_C 	C 	0.6473	0.6618	0.287	0.045
Mof_C 	C 	0.6851	0.6682	0.2624	-0.07
Mof_C 	C 	0.7243	0.666	0.2824	0.026
Mof_H 	H 	0.7488	0.67	0.266	0.044
Mof_C 	C 	0.729	0.6581	0.3265	-0.078
Mof_H 	H 	0.7557	0.6568	0.3396	0.069
Mof_C 	C 	0.6917	0.6526	0.3485	0.025
Mof_H 	H 	0.6936	0.6472	0.3778	0.051
Mof_C 	C 	0.6515	0.6543	0.331	-0.068
Mof_C 	C 	0.6045	0.5873	0.2435	0.32
Mof_C 	C 	0.6002	0.743	0.2886	0.526
Mof_C 	C 	0.6845	0.6712	0.2142	0.332
Mof_C 	C 	0.6142	0.6456	0.3614	0.318
Mof_O 	O 	0.6426	0.5811	0.2409	-0.243
Mof_O 	O 	0.5776	0.5555	0.2475	-0.234
Mof_O 	O 	0.6003	0.7462	0.324	-0.353
Mof_O 	O 	0.619	0.7693	0.2723	-0.353
Mof_O 	O 	0.6604	0.6964	0.1967	-0.259
Mof_O 	O 	0.7114	0.6501	0.1947	-0.253
Mof_O 	O 	0.6196	0.6494	0.3997	-0.282
Mof_O 	O 	0.5793	0.6318	0.3454	-0.229
Mof_Cd	Cd	0.12956	0.31204	0.82605	0.526
Mof_C 	C 	0.0856	0.1307	0.7436	-0.118
Mof_C 	C 	0.0481	0.1359	0.7175	0.074
Mof_H 	H 	0.0379	0.1139	0.7002	0.029
Mof_C 	C 	0.0272	0.1767	0.7195	-0.154
Mof_H 	H 	0.0006	0.1815	0.7068	0.099
Mof_C 	C 	0.0485	0.208	0.7411	0.141
Mof_H 	H 	0.0364	0.2352	0.7403	-0.006
Mof_C 	C 	0.0843	0.204	0.7631	-0.199
Mof_C 	C 	0.1038	0.1654	0.7641	0.137
Mof_C 	C 	0.1473	0.1618	0.787	0.045
Mof_C 	C 	0.1851	0.1682	0.7624	-0.07
Mof_C 	C 	0.2243	0.166	0.7824	0.026
Mof_H 	H 	0.2488	0.17	0.766	0.044
Mof_C 	C 	0.229	0.1581	0.8265	-0.078
Mof_H 	H 	0.2557	0.1568	0.8396	0.069
Mof_C 	C 	0.1917	0.1526	0.8485	0.024
Mof_H 	H 	0.1936	0.1472	0.8778	0.051
Mof_C 	C 	0.1515	0.1543	0.831	-0.068
Mof_C 	C 	0.1045	0.0873	0.7435	0.32
Mof_C 	C 	0.1002	0.243	0.7886	0.526
Mof_C 	C 	0.1845	0.1712	0.7142	0.332
Mof_C 	C 	0.1142	0.1456	0.8614	0.318
Mof_O 	O 	0.1426	0.0811	0.7409	-0.243
Mof_O 	O 	0.0776	0.0555	0.7475	-0.235
Mof_O 	O 	0.1003	0.2462	0.824	-0.353
Mof_O 	O 	0.119	0.2693	0.7723	-0.353
Mof_O 	O 	0.1604	0.1964	0.6967	-0.259
Mof_O 	O 	0.2114	0.1501	0.6947	-0.254
Mof_O 	O 	0.1196	0.1494	0.8997	-0.282
Mof_O 	O 	0.0793	0.1318	0.8454	-0.23
Mof_Cd	Cd	0.31204	0.17395	0.37044	0.527
Mof_C 	C 	0.1307	0.2564	0.4144	-0.117
Mof_C 	C 	0.1359	0.2825	0.4519	0.074
Mof_H 	H 	0.1139	0.2998	0.4621	0.03
Mof_C 	C 	0.1767	0.2805	0.4728	-0.153
Mof_H 	H 	0.1815	0.2932	0.4994	0.1
Mof_C 	C 	0.208	0.2589	0.4515	0.141
Mof_H 	H 	0.2352	0.2597	0.4636	-0.005
Mof_C 	C 	0.204	0.2369	0.4157	-0.198
Mof_C 	C 	0.1654	0.2359	0.3962	0.136
Mof_C 	C 	0.1618	0.213	0.3527	0.045
Mof_C 	C 	0.1682	0.2376	0.3149	-0.07
Mof_C 	C 	0.166	0.2176	0.2757	0.026
Mof_H 	H 	0.17	0.234	0.2512	0.044
Mof_C 	C 	0.1581	0.1735	0.271	-0.079
Mof_H 	H 	0.1568	0.1604	0.2443	0.069
Mof_C 	C 	0.1526	0.1515	0.3083	0.025
Mof_H 	H 	0.1472	0.1222	0.3064	0.05
Mof_C 	C 	0.1543	0.169	0.3485	-0.068
Mof_C 	C 	0.0873	0.2565	0.3955	0.32
Mof_C 	C 	0.243	0.2114	0.3998	0.527
Mof_C 	C 	0.1712	0.2858	0.3155	0.332
Mof_C 	C 	0.1456	0.1386	0.3858	0.318
Mof_O 	O 	0.0811	0.2591	0.3574	-0.243
Mof_O 	O 	0.0555	0.2525	0.4224	-0.235
Mof_O 	O 	0.2462	0.176	0.3997	-0.353
Mof_O 	O 	0.2693	0.2277	0.381	-0.353
Mof_O 	O 	0.1964	0.3033	0.3396	-0.259
Mof_O 	O 	0.1501	0.3053	0.2886	-0.254
Mof_O 	O 	0.1494	0.1003	0.3804	-0.283
Mof_O 	O 	0.1318	0.1546	0.4207	-0.229
Mof_Cd	Cd	0.81204	0.67395	0.87044	0.527
Mof_C 	C 	0.6307	0.7564	0.9144	-0.117
Mof_C 	C 	0.6359	0.7825	0.9519	0.074
Mof_H 	H 	0.6139	0.7998	0.9621	0.03
Mof_C 	C 	0.6767	0.7805	0.9728	-0.152
Mof_H 	H 	0.6815	0.7932	0.9994	0.101
Mof_C 	C 	0.708	0.7589	0.9515	0.141
Mof_H 	H 	0.7352	0.7597	0.9636	-0.003
Mof_C 	C 	0.704	0.7369	0.9157	-0.198
Mof_C 	C 	0.6654	0.7359	0.8962	0.136
Mof_C 	C 	0.6618	0.713	0.8527	0.045
Mof_C 	C 	0.6682	0.7376	0.8149	-0.07
Mof_C 	C 	0.666	0.7176	0.7757	0.026
Mof_H 	H 	0.67	0.734	0.7512	0.044
Mof_C 	C 	0.6581	0.6735	0.771	-0.078
Mof_H 	H 	0.6568	0.6604	0.7443	0.069
Mof_C 	C 	0.6526	0.6515	0.8083	0.024
Mof_H 	H 	0.6472	0.6222	0.8064	0.051
Mof_C 	C 	0.6543	0.669	0.8485	-0.068
Mof_C 	C 	0.5873	0.7565	0.8955	0.32
Mof_C 	C 	0.743	0.7114	0.8998	0.526
Mof_C 	C 	0.6712	0.7858	0.8155	0.332
Mof_C 	C 	0.6456	0.6386	0.8858	0.318
Mof_O 	O 	0.5811	0.7591	0.8574	-0.243
Mof_O 	O 	0.5555	0.7525	0.9224	-0.233
Mof_O 	O 	0.7462	0.676	0.8997	-0.353
Mof_O 	O 	0.7693	0.7277	0.881	-0.352
Mof_O 	O 	0.6964	0.8033	0.8396	-0.258
Mof_O 	O 	0.6501	0.8053	0.7886	-0.253
Mof_O 	O 	0.6494	0.6003	0.8804	-0.282
Mof_O 	O 	0.6318	0.6546	0.9207	-0.229
Mof_Cd	Cd	0.68796	0.67395	0.12956	0.526
Mof_C 	C 	0.8693	0.7564	0.0856	-0.117
Mof_C 	C 	0.8641	0.7825	0.0481	0.074
Mof_H 	H 	0.8861	0.7998	0.0379	0.03
Mof_C 	C 	0.8233	0.7805	0.0272	-0.153
Mof_H 	H 	0.8185	0.7932	0.0006	0.099
Mof_C 	C 	0.792	0.7589	0.0485	0.141
Mof_H 	H 	0.7648	0.7597	0.0364	-0.005
Mof_C 	C 	0.796	0.7369	0.0843	-0.199
Mof_C 	C 	0.8346	0.7359	0.1038	0.136
Mof_C 	C 	0.8382	0.713	0.1473	0.045
Mof_C 	C 	0.8318	0.7376	0.1851	-0.07
Mof_C 	C 	0.834	0.7176	0.2243	0.026
Mof_H 	H 	0.83	0.734	0.2488	0.044
Mof_C 	C 	0.8419	0.6735	0.229	-0.078
Mof_H 	H 	0.8432	0.6604	0.2557	0.069
Mof_C 	C 	0.8474	0.6515	0.1917	0.025
Mof_H 	H 	0.8528	0.6222	0.1936	0.051
Mof_C 	C 	0.8457	0.669	0.1515	-0.068
Mof_C 	C 	0.9127	0.7565	0.1045	0.319
Mof_C 	C 	0.757	0.7114	0.1002	0.526
Mof_C 	C 	0.8288	0.7858	0.1845	0.332
Mof_C 	C 	0.8544	0.6386	0.1142	0.318
Mof_O 	O 	0.9189	0.7591	0.1426	-0.242
Mof_O 	O 	0.9445	0.7525	0.0776	-0.233
Mof_O 	O 	0.7538	0.676	0.1003	-0.353
Mof_O 	O 	0.7307	0.7277	0.119	-0.353
Mof_O 	O 	0.8036	0.8033	0.1604	-0.259
Mof_O 	O 	0.8499	0.8053	0.2114	-0.253
Mof_O 	O 	0.8506	0.6003	0.1196	-0.282
Mof_O 	O 	0.8682	0.6546	0.0793	-0.23
Mof_Cd	Cd	0.18796	0.17395	0.62956	0.527
Mof_C 	C 	0.3693	0.2564	0.5856	-0.117
Mof_C 	C 	0.3641	0.2825	0.5481	0.074
Mof_H 	H 	0.3861	0.2998	0.5379	0.03
Mof_C 	C 	0.3233	0.2805	0.5272	-0.153
Mof_H 	H 	0.3185	0.2932	0.5006	0.1
Mof_C 	C 	0.292	0.2589	0.5485	0.141
Mof_H 	H 	0.2648	0.2597	0.5364	-0.005
Mof_C 	C 	0.296	0.2369	0.5843	-0.198
Mof_C 	C 	0.3346	0.2359	0.6038	0.136
Mof_C 	C 	0.3382	0.213	0.6473	0.045
Mof_C 	C 	0.3318	0.2376	0.6851	-0.07
Mof_C 	C 	0.334	0.2176	0.7243	0.027
Mof_H 	H 	0.33	0.234	0.7488	0.044
Mof_C 	C 	0.3419	0.1735	0.729	-0.079
Mof_H 	H 	0.3432	0.1604	0.7557	0.069
Mof_C 	C 	0.3474	0.1515	0.6917	0.025
Mof_H 	H 	0.3528	0.1222	0.6936	0.051
Mof_C 	C 	0.3457	0.169	0.6515	-0.068
Mof_C 	C 	0.4127	0.2565	0.6045	0.32
Mof_C 	C 	0.257	0.2114	0.6002	0.527
Mof_C 	C 	0.3288	0.2858	0.6845	0.332
Mof_C 	C 	0.3544	0.1386	0.6142	0.318
Mof_O 	O 	0.4189	0.2591	0.6426	-0.243
Mof_O 	O 	0.4445	0.2525	0.5776	-0.234
Mof_O 	O 	0.2538	0.176	0.6003	-0.353
Mof_O 	O 	0.2307	0.2277	0.619	-0.353
Mof_O 	O 	0.3036	0.3033	0.6604	-0.259
Mof_O 	O 	0.3499	0.3053	0.7114	-0.253
Mof_O 	O 	0.3506	0.1003	0.6196	-0.283
Mof_O 	O 	0.3682	0.1546	0.5793	-0.229
Mof_Cd	Cd	0.18796	0.82605	0.87044	0.527
Mof_C 	C 	0.3693	0.7436	0.9144	-0.117
Mof_C 	C 	0.3641	0.7175	0.9519	0.074
Mof_H 	H 	0.3861	0.7002	0.9621	0.03
Mof_C 	C 	0.3233	0.7195	0.9728	-0.152
Mof_H 	H 	0.3185	0.7068	0.9994	0.101
Mof_C 	C 	0.292	0.7411	0.9515	0.141
Mof_H 	H 	0.2648	0.7403	0.9636	-0.003
Mof_C 	C 	0.296	0.7631	0.9157	-0.198
Mof_C 	C 	0.3346	0.7641	0.8962	0.136
Mof_C 	C 	0.3382	0.787	0.8527	0.045
Mof_C 	C 	0.3318	0.7624	0.8149	-0.07
Mof_C 	C 	0.334	0.7824	0.7757	0.026
Mof_H 	H 	0.33	0.766	0.7512	0.044
Mof_C 	C 	0.3419	0.8265	0.771	-0.078
Mof_H 	H 	0.3432	0.8396	0.7443	0.069
Mof_C 	C 	0.3474	0.8485	0.8083	0.024
Mof_H 	H 	0.3528	0.8778	0.8064	0.051
Mof_C 	C 	0.3457	0.831	0.8485	-0.068
Mof_C 	C 	0.4127	0.7435	0.8955	0.32
Mof_C 	C 	0.257	0.7886	0.8998	0.526
Mof_C 	C 	0.3288	0.7142	0.8155	0.332
Mof_C 	C 	0.3544	0.8614	0.8858	0.318
Mof_O 	O 	0.4189	0.7409	0.8574	-0.243
Mof_O 	O 	0.4445	0.7475	0.9224	-0.233
Mof_O 	O 	0.2538	0.824	0.8997	-0.352
Mof_O 	O 	0.2307	0.7723	0.881	-0.353
Mof_O 	O 	0.3036	0.6967	0.8396	-0.258
Mof_O 	O 	0.3499	0.6947	0.7886	-0.253
Mof_O 	O 	0.3506	0.8997	0.8804	-0.282
Mof_O 	O 	0.3682	0.8454	0.9207	-0.229
Mof_Cd	Cd	0.68796	0.32605	0.37044	0.527
Mof_C 	C 	0.8693	0.2436	0.4144	-0.117
Mof_C 	C 	0.8641	0.2175	0.4519	0.074
Mof_H 	H 	0.8861	0.2002	0.4621	0.03
Mof_C 	C 	0.8233	0.2195	0.4728	-0.153
Mof_H 	H 	0.8185	0.2068	0.4994	0.1
Mof_C 	C 	0.792	0.2411	0.4515	0.141
Mof_H 	H 	0.7648	0.2403	0.4636	-0.005
Mof_C 	C 	0.796	0.2631	0.4157	-0.198
Mof_C 	C 	0.8346	0.2641	0.3962	0.136
Mof_C 	C 	0.8382	0.287	0.3527	0.045
Mof_C 	C 	0.8318	0.2624	0.3149	-0.07
Mof_C 	C 	0.834	0.2824	0.2757	0.026
Mof_H 	H 	0.83	0.266	0.2512	0.044
Mof_C 	C 	0.8419	0.3265	0.271	-0.078
Mof_H 	H 	0.8432	0.3396	0.2443	0.069
Mof_C 	C 	0.8474	0.3485	0.3083	0.024
Mof_H 	H 	0.8528	0.3778	0.3064	0.051
Mof_C 	C 	0.8457	0.331	0.3485	-0.068
Mof_C 	C 	0.9127	0.2435	0.3955	0.319
Mof_C 	C 	0.757	0.2886	0.3998	0.526
Mof_C 	C 	0.8288	0.2142	0.3155	0.332
Mof_C 	C 	0.8544	0.3614	0.3858	0.318
Mof_O 	O 	0.9189	0.2409	0.3574	-0.242
Mof_O 	O 	0.9445	0.2475	0.4224	-0.232
Mof_O 	O 	0.7538	0.324	0.3997	-0.353
Mof_O 	O 	0.7307	0.2723	0.381	-0.353
Mof_O 	O 	0.8036	0.1967	0.3396	-0.259
Mof_O 	O 	0.8499	0.1947	0.2886	-0.253
Mof_O 	O 	0.8506	0.3997	0.3804	-0.282
Mof_O 	O 	0.8682	0.3454	0.4207	-0.229
Mof_Cd	Cd	0.81204	0.32605	0.62956	0.527
Mof_C 	C 	0.6307	0.2436	0.5856	-0.117
Mof_C 	C 	0.6359	0.2175	0.5481	0.074
Mof_H 	H 	0.6139	0.2002	0.5379	0.03
Mof_C 	C 	0.6767	0.2195	0.5272	-0.153
Mof_H 	H 	0.6815	0.2068	0.5006	0.1
Mof_C 	C 	0.708	0.2411	0.5485	0.141
Mof_H 	H 	0.7352	0.2403	0.5364	-0.005
Mof_C 	C 	0.704	0.2631	0.5843	-0.198
Mof_C 	C 	0.6654	0.2641	0.6038	0.136
Mof_C 	C 	0.6618	0.287	0.6473	0.045
Mof_C 	C 	0.6682	0.2624	0.6851	-0.07
Mof_C 	C 	0.666	0.2824	0.7243	0.026
Mof_H 	H 	0.67	0.266	0.7488	0.044
Mof_C 	C 	0.6581	0.3265	0.729	-0.078
Mof_H 	H 	0.6568	0.3396	0.7557	0.069
Mof_C 	C 	0.6526	0.3485	0.6917	0.025
Mof_H 	H 	0.6472	0.3778	0.6936	0.051
Mof_C 	C 	0.6543	0.331	0.6515	-0.068
Mof_C 	C 	0.5873	0.2435	0.6045	0.32
Mof_C 	C 	0.743	0.2886	0.6002	0.526
Mof_C 	C 	0.6712	0.2142	0.6845	0.332
Mof_C 	C 	0.6456	0.3614	0.6142	0.318
Mof_O 	O 	0.5811	0.2409	0.6426	-0.243
Mof_O 	O 	0.5555	0.2475	0.5776	-0.234
Mof_O 	O 	0.7462	0.324	0.6003	-0.353
Mof_O 	O 	0.7693	0.2723	0.619	-0.353
Mof_O 	O 	0.6964	0.1967	0.6604	-0.259
Mof_O 	O 	0.6501	0.1947	0.7114	-0.253
Mof_O 	O 	0.6494	0.3997	0.6196	-0.282
Mof_O 	O 	0.6318	0.3454	0.5793	-0.229
Mof_Cd	Cd	0.31204	0.82605	0.12956	0.526
Mof_C 	C 	0.1307	0.7436	0.0856	-0.118
Mof_C 	C 	0.1359	0.7175	0.0481	0.074
Mof_H 	H 	0.1139	0.7002	0.0379	0.029
Mof_C 	C 	0.1767	0.7195	0.0272	-0.154
Mof_H 	H 	0.1815	0.7068	0.0006	0.099
Mof_C 	C 	0.208	0.7411	0.0485	0.141
Mof_H 	H 	0.2352	0.7403	0.0364	-0.006
Mof_C 	C 	0.204	0.7631	0.0843	-0.199
Mof_C 	C 	0.1654	0.7641	0.1038	0.137
Mof_C 	C 	0.1618	0.787	0.1473	0.045
Mof_C 	C 	0.1682	0.7624	0.1851	-0.07
Mof_C 	C 	0.166	0.7824	0.2243	0.026
Mof_H 	H 	0.17	0.766	0.2488	0.044
Mof_C 	C 	0.1581	0.8265	0.229	-0.078
Mof_H 	H 	0.1568	0.8396	0.2557	0.069
Mof_C 	C 	0.1526	0.8485	0.1917	0.024
Mof_H 	H 	0.1472	0.8778	0.1936	0.051
Mof_C 	C 	0.1543	0.831	0.1515	-0.068
Mof_C 	C 	0.0873	0.7435	0.1045	0.32
Mof_C 	C 	0.243	0.7886	0.1002	0.526
Mof_C 	C 	0.1712	0.7142	0.1845	0.332
Mof_C 	C 	0.1456	0.8614	0.1142	0.318
Mof_O 	O 	0.0811	0.7409	0.1426	-0.243
Mof_O 	O 	0.0555	0.7475	0.0776	-0.235
Mof_O 	O 	0.2462	0.824	0.1003	-0.353
Mof_O 	O 	0.2693	0.7723	0.119	-0.353
Mof_O 	O 	0.1964	0.6967	0.1604	-0.259
Mof_O 	O 	0.1501	0.6947	0.2114	-0.254
Mof_O 	O 	0.1494	0.8997	0.1196	-0.282
Mof_O 	O 	0.1318	0.8454	0.0793	-0.23
Mof_Cd	Cd	0.17395	0.37044	0.31204	0.527
Mof_C 	C 	0.2564	0.4144	0.1307	-0.117
Mof_C 	C 	0.2825	0.4519	0.1359	0.074
Mof_H 	H 	0.2998	0.4621	0.1139	0.03
Mof_C 	C 	0.2805	0.4728	0.1767	-0.153
Mof_H 	H 	0.2932	0.4994	0.1815	0.1
Mof_C 	C 	0.2589	0.4515	0.208	0.141
Mof_H 	H 	0.2597	0.4636	0.2352	-0.005
Mof_C 	C 	0.2369	0.4157	0.204	-0.198
Mof_C 	C 	0.2359	0.3962	0.1654	0.136
Mof_C 	C 	0.213	0.3527	0.1618	0.045
Mof_C 	C 	0.2376	0.3149	0.1682	-0.07
Mof_C 	C 	0.2176	0.2757	0.166	0.026
Mof_H 	H 	0.234	0.2512	0.17	0.044
Mof_C 	C 	0.1735	0.271	0.1581	-0.079
Mof_H 	H 	0.1604	0.2443	0.1568	0.069
Mof_C 	C 	0.1515	0.3083	0.1526	0.025
Mof_H 	H 	0.1222	0.3064	0.1472	0.05
Mof_C 	C 	0.169	0.3485	0.1543	-0.068
Mof_C 	C 	0.2565	0.3955	0.0873	0.32
Mof_C 	C 	0.2114	0.3998	0.243	0.527
Mof_C 	C 	0.2858	0.3155	0.1712	0.332
Mof_C 	C 	0.1386	0.3858	0.1456	0.318
Mof_O 	O 	0.2591	0.3574	0.0811	-0.243
Mof_O 	O 	0.2525	0.4224	0.0555	-0.235
Mof_O 	O 	0.176	0.3997	0.2462	-0.353
Mof_O 	O 	0.2277	0.381	0.2693	-0.353
Mof_O 	O 	0.3033	0.3396	0.1964	-0.259
Mof_O 	O 	0.3053	0.2886	0.1501	-0.254
Mof_O 	O 	0.1003	0.3804	0.1494	-0.283
Mof_O 	O 	0.1546	0.4207	0.1318	-0.229
Mof_Cd	Cd	0.67395	0.87044	0.81204	0.527
Mof_C 	C 	0.7564	0.9144	0.6307	-0.117
Mof_C 	C 	0.7825	0.9519	0.6359	0.074
Mof_H 	H 	0.7998	0.9621	0.6139	0.03
Mof_C 	C 	0.7805	0.9728	0.6767	-0.152
Mof_H 	H 	0.7932	0.9994	0.6815	0.101
Mof_C 	C 	0.7589	0.9515	0.708	0.141
Mof_H 	H 	0.7597	0.9636	0.7352	-0.003
Mof_C 	C 	0.7369	0.9157	0.704	-0.198
Mof_C 	C 	0.7359	0.8962	0.6654	0.136
Mof_C 	C 	0.713	0.8527	0.6618	0.045
Mof_C 	C 	0.7376	0.8149	0.6682	-0.07
Mof_C 	C 	0.7176	0.7757	0.666	0.026
Mof_H 	H 	0.734	0.7512	0.67	0.044
Mof_C 	C 	0.6735	0.771	0.6581	-0.078
Mof_H 	H 	0.6604	0.7443	0.6568	0.069
Mof_C 	C 	0.6515	0.8083	0.6526	0.024
Mof_H 	H 	0.6222	0.8064	0.6472	0.051
Mof_C 	C 	0.669	0.8485	0.6543	-0.068
Mof_C 	C 	0.7565	0.8955	0.5873	0.32
Mof_C 	C 	0.7114	0.8998	0.743	0.526
Mof_C 	C 	0.7858	0.8155	0.6712	0.332
Mof_C 	C 	0.6386	0.8858	0.6456	0.318
Mof_O 	O 	0.7591	0.8574	0.5811	-0.243
Mof_O 	O 	0.7525	0.9224	0.5555	-0.233
Mof_O 	O 	0.676	0.8997	0.7462	-0.353
Mof_O 	O 	0.7277	0.881	0.7693	-0.352
Mof_O 	O 	0.8033	0.8396	0.6964	-0.258
Mof_O 	O 	0.8053	0.7886	0.6501	-0.253
Mof_O 	O 	0.6003	0.8804	0.6494	-0.282
Mof_O 	O 	0.6546	0.9207	0.6318	-0.229
Mof_Cd	Cd	0.67395	0.12956	0.68796	0.526
Mof_C 	C 	0.7564	0.0856	0.8693	-0.117
Mof_C 	C 	0.7825	0.0481	0.8641	0.074
Mof_H 	H 	0.7998	0.0379	0.8861	0.03
Mof_C 	C 	0.7805	0.0272	0.8233	-0.153
Mof_H 	H 	0.7932	0.0006	0.8185	0.099
Mof_C 	C 	0.7589	0.0485	0.792	0.141
Mof_H 	H 	0.7597	0.0364	0.7648	-0.005
Mof_C 	C 	0.7369	0.0843	0.796	-0.199
Mof_C 	C 	0.7359	0.1038	0.8346	0.136
Mof_C 	C 	0.713	0.1473	0.8382	0.045
Mof_C 	C 	0.7376	0.1851	0.8318	-0.07
Mof_C 	C 	0.7176	0.2243	0.834	0.026
Mof_H 	H 	0.734	0.2488	0.83	0.044
Mof_C 	C 	0.6735	0.229	0.8419	-0.078
Mof_H 	H 	0.6604	0.2557	0.8432	0.069
Mof_C 	C 	0.6515	0.1917	0.8474	0.025
Mof_H 	H 	0.6222	0.1936	0.8528	0.051
Mof_C 	C 	0.669	0.1515	0.8457	-0.068
Mof_C 	C 	0.7565	0.1045	0.9127	0.319
Mof_C 	C 	0.7114	0.1002	0.757	0.526
Mof_C 	C 	0.7858	0.1845	0.8288	0.332
Mof_C 	C 	0.6386	0.1142	0.8544	0.318
Mof_O 	O 	0.7591	0.1426	0.9189	-0.242
Mof_O 	O 	0.7525	0.0776	0.9445	-0.233
Mof_O 	O 	0.676	0.1003	0.7538	-0.353
Mof_O 	O 	0.7277	0.119	0.7307	-0.353
Mof_O 	O 	0.8033	0.1604	0.8036	-0.259
Mof_O 	O 	0.8053	0.2114	0.8499	-0.253
Mof_O 	O 	0.6003	0.1196	0.8506	-0.282
Mof_O 	O 	0.6546	0.0793	0.8682	-0.23
Mof_Cd	Cd	0.17395	0.62956	0.18796	0.527
Mof_C 	C 	0.2564	0.5856	0.3693	-0.117
Mof_C 	C 	0.2825	0.5481	0.3641	0.074
Mof_H 	H 	0.2998	0.5379	0.3861	0.03
Mof_C 	C 	0.2805	0.5272	0.3233	-0.153
Mof_H 	H 	0.2932	0.5006	0.3185	0.1
Mof_C 	C 	0.2589	0.5485	0.292	0.141
Mof_H 	H 	0.2597	0.5364	0.2648	-0.005
Mof_C 	C 	0.2369	0.5843	0.296	-0.198
Mof_C 	C 	0.2359	0.6038	0.3346	0.136
Mof_C 	C 	0.213	0.6473	0.3382	0.045
Mof_C 	C 	0.2376	0.6851	0.3318	-0.07
Mof_C 	C 	0.2176	0.7243	0.334	0.027
Mof_H 	H 	0.234	0.7488	0.33	0.044
Mof_C 	C 	0.1735	0.729	0.3419	-0.079
Mof_H 	H 	0.1604	0.7557	0.3432	0.069
Mof_C 	C 	0.1515	0.6917	0.3474	0.025
Mof_H 	H 	0.1222	0.6936	0.3528	0.051
Mof_C 	C 	0.169	0.6515	0.3457	-0.068
Mof_C 	C 	0.2565	0.6045	0.4127	0.32
Mof_C 	C 	0.2114	0.6002	0.257	0.527
Mof_C 	C 	0.2858	0.6845	0.3288	0.332
Mof_C 	C 	0.1386	0.6142	0.3544	0.318
Mof_O 	O 	0.2591	0.6426	0.4189	-0.243
Mof_O 	O 	0.2525	0.5776	0.4445	-0.234
Mof_O 	O 	0.176	0.6003	0.2538	-0.353
Mof_O 	O 	0.2277	0.619	0.2307	-0.353
Mof_O 	O 	0.3033	0.6604	0.3036	-0.259
Mof_O 	O 	0.3053	0.7114	0.3499	-0.253
Mof_O 	O 	0.1003	0.6196	0.3506	-0.283
Mof_O 	O 	0.1546	0.5793	0.3682	-0.229
Mof_Cd	Cd	0.82605	0.87044	0.18796	0.527
Mof_C 	C 	0.7436	0.9144	0.3693	-0.117
Mof_C 	C 	0.7175	0.9519	0.3641	0.074
Mof_H 	H 	0.7002	0.9621	0.3861	0.03
Mof_C 	C 	0.7195	0.9728	0.3233	-0.152
Mof_H 	H 	0.7068	0.9994	0.3185	0.101
Mof_C 	C 	0.7411	0.9515	0.292	0.141
Mof_H 	H 	0.7403	0.9636	0.2648	-0.003
Mof_C 	C 	0.7631	0.9157	0.296	-0.198
Mof_C 	C 	0.7641	0.8962	0.3346	0.136
Mof_C 	C 	0.787	0.8527	0.3382	0.045
Mof_C 	C 	0.7624	0.8149	0.3318	-0.07
Mof_C 	C 	0.7824	0.7757	0.334	0.026
Mof_H 	H 	0.766	0.7512	0.33	0.044
Mof_C 	C 	0.8265	0.771	0.3419	-0.078
Mof_H 	H 	0.8396	0.7443	0.3432	0.069
Mof_C 	C 	0.8485	0.8083	0.3474	0.024
Mof_H 	H 	0.8778	0.8064	0.3528	0.051
Mof_C 	C 	0.831	0.8485	0.3457	-0.068
Mof_C 	C 	0.7435	0.8955	0.4127	0.32
Mof_C 	C 	0.7886	0.8998	0.257	0.526
Mof_C 	C 	0.7142	0.8155	0.3288	0.332
Mof_C 	C 	0.8614	0.8858	0.3544	0.318
Mof_O 	O 	0.7409	0.8574	0.4189	-0.243
Mof_O 	O 	0.7475	0.9224	0.4445	-0.233
Mof_O 	O 	0.824	0.8997	0.2538	-0.352
Mof_O 	O 	0.7723	0.881	0.2307	-0.353
Mof_O 	O 	0.6967	0.8396	0.3036	-0.258
Mof_O 	O 	0.6947	0.7886	0.3499	-0.253
Mof_O 	O 	0.8997	0.8804	0.3506	-0.282
Mof_O 	O 	0.8454	0.9207	0.3682	-0.229
Mof_Cd	Cd	0.32605	0.37044	0.68796	0.527
Mof_C 	C 	0.2436	0.4144	0.8693	-0.117
Mof_C 	C 	0.2175	0.4519	0.8641	0.074
Mof_H 	H 	0.2002	0.4621	0.8861	0.03
Mof_C 	C 	0.2195	0.4728	0.8233	-0.153
Mof_H 	H 	0.2068	0.4994	0.8185	0.1
Mof_C 	C 	0.2411	0.4515	0.792	0.141
Mof_H 	H 	0.2403	0.4636	0.7648	-0.005
Mof_C 	C 	0.2631	0.4157	0.796	-0.198
Mof_C 	C 	0.2641	0.3962	0.8346	0.136
Mof_C 	C 	0.287	0.3527	0.8382	0.045
Mof_C 	C 	0.2624	0.3149	0.8318	-0.07
Mof_C 	C 	0.2824	0.2757	0.834	0.026
Mof_H 	H 	0.266	0.2512	0.83	0.044
Mof_C 	C 	0.3265	0.271	0.8419	-0.078
Mof_H 	H 	0.3396	0.2443	0.8432	0.069
Mof_C 	C 	0.3485	0.3083	0.8474	0.024
Mof_H 	H 	0.3778	0.3064	0.8528	0.051
Mof_C 	C 	0.331	0.3485	0.8457	-0.068
Mof_C 	C 	0.2435	0.3955	0.9127	0.319
Mof_C 	C 	0.2886	0.3998	0.757	0.526
Mof_C 	C 	0.2142	0.3155	0.8288	0.332
Mof_C 	C 	0.3614	0.3858	0.8544	0.318
Mof_O 	O 	0.2409	0.3574	0.9189	-0.242
Mof_O 	O 	0.2475	0.4224	0.9445	-0.232
Mof_O 	O 	0.324	0.3997	0.7538	-0.353
Mof_O 	O 	0.2723	0.381	0.7307	-0.353
Mof_O 	O 	0.1967	0.3396	0.8036	-0.259
Mof_O 	O 	0.1947	0.2886	0.8499	-0.253
Mof_O 	O 	0.3997	0.3804	0.8506	-0.282
Mof_O 	O 	0.3454	0.4207	0.8682	-0.229
Mof_Cd	Cd	0.32605	0.62956	0.81204	0.527
Mof_C 	C 	0.2436	0.5856	0.6307	-0.117
Mof_C 	C 	0.2175	0.5481	0.6359	0.074
Mof_H 	H 	0.2002	0.5379	0.6139	0.03
Mof_C 	C 	0.2195	0.5272	0.6767	-0.153
Mof_H 	H 	0.2068	0.5006	0.6815	0.1
Mof_C 	C 	0.2411	0.5485	0.708	0.141
Mof_H 	H 	0.2403	0.5364	0.7352	-0.005
Mof_C 	C 	0.2631	0.5843	0.704	-0.198
Mof_C 	C 	0.2641	0.6038	0.6654	0.136
Mof_C 	C 	0.287	0.6473	0.6618	0.045
Mof_C 	C 	0.2624	0.6851	0.6682	-0.07
Mof_C 	C 	0.2824	0.7243	0.666	0.026
Mof_H 	H 	0.266	0.7488	0.67	0.044
Mof_C 	C 	0.3265	0.729	0.6581	-0.078
Mof_H 	H 	0.3396	0.7557	0.6568	0.069
Mof_C 	C 	0.3485	0.6917	0.6526	0.025
Mof_H 	H 	0.3778	0.6936	0.6472	0.051
Mof_C 	C 	0.331	0.6515	0.6543	-0.068
Mof_C 	C 	0.2435	0.6045	0.5873	0.32
Mof_C 	C 	0.2886	0.6002	0.743	0.526
Mof_C 	C 	0.2142	0.6845	0.6712	0.332
Mof_C 	C 	0.3614	0.6142	0.6456	0.318
Mof_O 	O 	0.2409	0.6426	0.5811	-0.243
Mof_O 	O 	0.2475	0.5776	0.5555	-0.234
Mof_O 	O 	0.324	0.6003	0.7462	-0.353
Mof_O 	O 	0.2723	0.619	0.7693	-0.353
Mof_O 	O 	0.1967	0.6604	0.6964	-0.259
Mof_O 	O 	0.1947	0.7114	0.6501	-0.253
Mof_O 	O 	0.3997	0.6196	0.6494	-0.282
Mof_O 	O 	0.3454	0.5793	0.6318	-0.229
Mof_Cd	Cd	0.82605	0.12956	0.31204	0.526
Mof_C 	C 	0.7436	0.0856	0.1307	-0.118
Mof_C 	C 	0.7175	0.0481	0.1359	0.074
Mof_H 	H 	0.7002	0.0379	0.1139	0.029
Mof_C 	C 	0.7195	0.0272	0.1767	-0.154
Mof_H 	H 	0.7068	0.0006	0.1815	0.099
Mof_C 	C 	0.7411	0.0485	0.208	0.141
Mof_H 	H 	0.7403	0.0364	0.2352	-0.006
Mof_C 	C 	0.7631	0.0843	0.204	-0.199
Mof_C 	C 	0.7641	0.1038	0.1654	0.137
Mof_C 	C 	0.787	0.1473	0.1618	0.045
Mof_C 	C 	0.7624	0.1851	0.1682	-0.07
Mof_C 	C 	0.7824	0.2243	0.166	0.026
Mof_H 	H 	0.766	0.2488	0.17	0.044
Mof_C 	C 	0.8265	0.229	0.1581	-0.078
Mof_H 	H 	0.8396	0.2557	0.1568	0.069
Mof_C 	C 	0.8485	0.1917	0.1526	0.024
Mof_H 	H 	0.8778	0.1936	0.1472	0.051
Mof_C 	C 	0.831	0.1515	0.1543	-0.068
Mof_C 	C 	0.7435	0.1045	0.0873	0.32
Mof_C 	C 	0.7886	0.1002	0.243	0.526
Mof_C 	C 	0.7142	0.1845	0.1712	0.332
Mof_C 	C 	0.8614	0.1142	0.1456	0.318
Mof_O 	O 	0.7409	0.1426	0.0811	-0.243
Mof_O 	O 	0.7475	0.0776	0.0555	-0.235
Mof_O 	O 	0.824	0.1003	0.2462	-0.353
Mof_O 	O 	0.7723	0.119	0.2693	-0.353
Mof_O 	O 	0.6967	0.1604	0.1964	-0.259
Mof_O 	O 	0.6947	0.2114	0.1501	-0.254
Mof_O 	O 	0.8997	0.1196	0.1494	-0.282
Mof_O 	O 	0.8454	0.0793	0.1318	-0.23
Mof_Cd	Cd	0.75	0.125	-0	0.52
Mof_Cd	Cd	0.75	0.875	0.5	0.524
Mof_Cd	Cd	0.25	0.625	0.5	0.524
Mof_Cd	Cd	0.25	0.375	-0	0.52
Mof_Cd	Cd	2.13086e-33	0.75	0.125	0.52
Mof_Cd	Cd	0.5	0.75	0.875	0.524
Mof_Cd	Cd	0.5	0.25	0.625	0.524
Mof_Cd	Cd	-1.91834e-33	0.25	0.375	0.52
Mof_Cd	Cd	0.125	0	0.75	0.52
Mof_Cd	Cd	0.875	0.5	0.75	0.524
Mof_Cd	Cd	0.625	0.5	0.25	0.524
Mof_Cd	Cd	0.375	0	0.25	0.52
_end
