# CIF file generated by openbabel 3.1.0, see https://openbabel.org
data_I
_chemical_name_common 'image0'
_cell_length_a 10.282
_cell_length_b 11.261
_cell_length_c 12.171
_cell_angle_alpha 92.575
_cell_angle_beta 109.114
_cell_angle_gamma 109.752
_space_group_name_H-M_alt 'P 1'
_space_group_name_Hall 'P 1'
loop_
    _symmetry_equiv_pos_as_xyz
    x,y,z
loop_
    _atom_site_label
    _atom_site_type_symbol
    _atom_site_fract_x
    _atom_site_fract_y
    _atom_site_fract_z
    _atom_site_occupancy
    O1       O        0.58960    0.68760    0.56220    1.000
    O2       O        0.69700    0.48320    0.51930    1.000
    O3       O        0.56550    0.46230    0.68210    1.000
    C1       C        0.71170    0.75240    0.64250    1.000
    Ni1      Ni       0.79181    0.52637    0.70290    1.000
    H1       H        0.72360    0.41930    0.52650    1.000
    H2       H        0.73790    0.52780    0.47670    1.000
    C2       C        0.74620    0.89340    0.67240    1.000
    O4       O        0.80840    0.71120    0.69810    1.000
    O5       O        0.86780    0.58130    0.88550    1.000
    O6       O        0.78480    0.34680    0.70030    1.000
    O7       O        0.00680    0.58550    0.70670    1.000
    C3       C        0.88790    0.97970    0.68960    1.000
    C4       C        0.64000    0.93960    0.68530    1.000
    H3       H        0.92360    0.64880    0.93650    1.000
    H4       H        0.78040    0.56190    0.88550    1.000
    C5       C        0.93180    0.11200    0.72130    1.000
    H5       H        0.95650    0.94780    0.67940    1.000
    C6       C        0.68250    0.07090    0.71520    1.000
    C7       C        0.48730    0.85600    0.67030    1.000
    O8       O        0.92650    0.33990    0.88160    1.000
    C8       C        0.08400    0.19800    0.73300    1.000
    C9       C        0.82390    0.15660    0.73590    1.000
    H6       H        0.61220    0.10270    0.72160    1.000
    C10      C        0.45730    0.76270    0.73760    1.000
    C11      C        0.36880    0.87460    0.58680    1.000
    C12      C        0.17670    0.29520    0.83230    1.000
    C13      C        0.14210    0.18330    0.64720    1.000
    C14      C        0.85020    0.29460    0.77520    1.000
    H7       H        0.53550    0.74950    0.79360    1.000
    C15      C        0.31180    0.68760    0.72340    1.000
    H8       H        0.38730    0.93860    0.54190    1.000
    C16      C        0.22440    0.79910    0.57020    1.000
    C17      C        0.31460    0.37420    0.84180    1.000
    H9       H        0.14260    0.30550    0.89270    1.000
    C18      C        0.28130    0.26480    0.65600    1.000
    H10      H        0.08600    0.11730    0.58250    1.000
    H11      H        0.29320    0.62490    0.76940    1.000
    C19      C        0.19420    0.70760    0.63920    1.000
    H12      H        0.14650    0.81010    0.51170    1.000
    C20      C        0.36890    0.36140    0.75180    1.000
    H13      H        0.37350    0.43720    0.90840    1.000
    H14      H        0.31630    0.25430    0.59620    1.000
    C21      C        0.03710    0.63030    0.62200    1.000
    C22      C        0.52220    0.44880    0.76880    1.000
    O9       O        0.94080    0.61750    0.51990    1.000
    O10      O        0.60620    0.50190    0.87200    1.000
    O11      O        0.41040    0.31240    0.43780    1.000
    O12      O        0.30300    0.51680    0.48070    1.000
    O13      O        0.43450    0.53770    0.31790    1.000
    C23      C        0.28830    0.24760    0.35750    1.000
    Ni2      Ni       0.20819    0.47363    0.29710    1.000
    H15      H        0.27640    0.58070    0.47350    1.000
    H16      H        0.26210    0.47220    0.52330    1.000
    C24      C        0.25380    0.10660    0.32760    1.000
    O14      O        0.19160    0.28880    0.30190    1.000
    O15      O        0.13220    0.41870    0.11450    1.000
    O16      O        0.21520    0.65320    0.29970    1.000
    O17      O        0.99320    0.41450    0.29330    1.000
    C25      C        0.11210    0.02030    0.31040    1.000
    C26      C        0.36000    0.06040    0.31470    1.000
    H17      H        0.07640    0.35120    0.06350    1.000
    H18      H        0.21960    0.43810    0.11450    1.000
    C27      C        0.06820    0.88800    0.27870    1.000
    H19      H        0.04350    0.05220    0.32060    1.000
    C28      C        0.31750    0.92910    0.28480    1.000
    C29      C        0.51270    0.14400    0.32970    1.000
    O18      O        0.07350    0.66010    0.11840    1.000
    C30      C        0.91600    0.80200    0.26700    1.000
    C31      C        0.17610    0.84340    0.26410    1.000
    H20      H        0.38780    0.89730    0.27840    1.000
    C32      C        0.54270    0.23730    0.26240    1.000
    C33      C        0.63120    0.12540    0.41320    1.000
    C34      C        0.82330    0.70480    0.16770    1.000
    C35      C        0.85790    0.81670    0.35280    1.000
    C36      C        0.14980    0.70540    0.22480    1.000
    H21      H        0.46450    0.25050    0.20640    1.000
    C37      C        0.68820    0.31240    0.27660    1.000
    H22      H        0.61270    0.06140    0.45810    1.000
    C38      C        0.77560    0.20090    0.42980    1.000
    C39      C        0.68540    0.62580    0.15820    1.000
    H23      H        0.85740    0.69450    0.10730    1.000
    C40      C        0.71870    0.73520    0.34400    1.000
    H24      H        0.91400    0.88270    0.41750    1.000
    H25      H        0.70680    0.37510    0.23060    1.000
    C41      C        0.80580    0.29240    0.36080    1.000
    H26      H        0.85350    0.18990    0.48830    1.000
    C42      C        0.63110    0.63860    0.24820    1.000
    H27      H        0.62650    0.56280    0.09160    1.000
    H28      H        0.68370    0.74570    0.40380    1.000
    C43      C        0.96290    0.36970    0.37800    1.000
    C44      C        0.47780    0.55120    0.23120    1.000
    O19      O        0.05920    0.38250    0.48010    1.000
    O20      O        0.39380    0.49810    0.12800    1.000
    Ni3      Ni       0.50000    0.50000    0.50000    1.000
    Ni4      Ni       0.00000    0.50000    0.00000    1.000
