data_functionalizedCrystal
_audit_creation_method	'EQeq! by Chris Wilmer'
_symmetry_space_group_name_H-M	'P1'
_symmetry_Int_Tables_number	1
_symmetry_cell_setting	triclinic
loop_
_symmetry_equiv_pos_as_xyz
  x,y,z
_cell_length_a	32.9509
_cell_length_b	6.699
_cell_length_c	16.5555
_cell_angle_alpha	90
_cell_angle_beta	90
_cell_angle_gamma	90
loop_
_atom_site_label
_atom_site_type_symbol
_atom_site_fract_x
_atom_site_fract_y
_atom_site_fract_z
_atom_site_charge
Mof_O 	O 	0.79064	0.1881	0.9135	-0.611
Mof_C 	C 	0.88308	0.1753	0.751	-0.01
Mof_C 	C 	0.85132	0.1707	0.8077	0.08
Mof_O 	O 	0.29064	0.6881	0.9135	-0.605
Mof_C 	C 	0.38308	0.6753	0.751	-0.013
Mof_C 	C 	0.35132	0.6707	0.8077	0.074
Mof_O 	O 	0.20936	0.8119	0.9135	-0.619
Mof_C 	C 	0.11692	0.8247	0.751	-0.028
Mof_C 	C 	0.14868	0.8293	0.8077	0.062
Mof_O 	O 	0.70936	0.3119	0.9135	-0.603
Mof_C 	C 	0.61692	0.3247	0.751	0.001
Mof_C 	C 	0.64868	0.3293	0.8077	0.086
Mof_O 	O 	0.20936	0.1881	0.0865	-0.742
Mof_C 	C 	0.11692	0.1753	0.249	-0.033
Mof_C 	C 	0.14868	0.1707	0.1923	0.03
Mof_O 	O 	0.70936	0.6881	0.0865	-0.736
Mof_C 	C 	0.61692	0.6753	0.249	-0.038
Mof_C 	C 	0.64868	0.6707	0.1923	0.022
Mof_O 	O 	0.79064	0.8119	0.0865	-0.753
Mof_C 	C 	0.88308	0.8247	0.249	-0.054
Mof_C 	C 	0.85132	0.8293	0.1923	0.008
Mof_O 	O 	0.29064	0.3119	0.0865	-0.733
Mof_C 	C 	0.38308	0.3247	0.249	-0.022
Mof_C 	C 	0.35132	0.3293	0.1923	0.036
Mof_O 	O 	0.20936	0.8119	0.0865	-0.753
Mof_C 	C 	0.11692	0.8247	0.249	-0.054
Mof_C 	C 	0.14868	0.8293	0.1923	0.008
Mof_O 	O 	0.70936	0.3119	0.0865	-0.733
Mof_C 	C 	0.61692	0.3247	0.249	-0.022
Mof_C 	C 	0.64868	0.3293	0.1923	0.036
Mof_O 	O 	0.79064	0.1881	0.0865	-0.742
Mof_C 	C 	0.88308	0.1753	0.249	-0.033
Mof_C 	C 	0.85132	0.1707	0.1923	0.03
Mof_O 	O 	0.29064	0.6881	0.0865	-0.736
Mof_C 	C 	0.38308	0.6753	0.249	-0.038
Mof_C 	C 	0.35132	0.6707	0.1923	0.022
Mof_O 	O 	0.79064	0.8119	0.9135	-0.619
Mof_C 	C 	0.88308	0.8247	0.751	-0.028
Mof_C 	C 	0.85132	0.8293	0.8077	0.061
Mof_O 	O 	0.29064	0.3119	0.9135	-0.603
Mof_C 	C 	0.38308	0.3247	0.751	0.001
Mof_C 	C 	0.35132	0.3293	0.8077	0.086
Mof_O 	O 	0.20936	0.1881	0.9135	-0.61
Mof_C 	C 	0.11692	0.1753	0.751	-0.009
Mof_C 	C 	0.14868	0.1707	0.8077	0.081
Mof_O 	O 	0.70936	0.6881	0.9135	-0.605
Mof_C 	C 	0.61692	0.6753	0.751	-0.013
Mof_C 	C 	0.64868	0.6707	0.8077	0.074
Mof_C 	C 	0.96847	1.38153e-32	0.6698	0.081
Mof_C 	C 	0.97954	0	0.7533	0.018
Mof_C 	C 	0.91475	0	0.567	0.09
Mof_C 	C 	0.8768	0	0.5398	-0.009
Mof_C 	C 	0.92947	0	0.6447	-0.046
Mof_C 	C 	0.9004	1.38153e-32	0.7155	0.05
Mof_C 	C 	0.83349	0	0.8411	-0.018
Mof_C 	C 	0.7991	2.76306e-32	0.9069	0.436
Mof_C 	C 	0.46847	0.5	0.6698	0.08
Mof_C 	C 	0.47954	0.5	0.7533	0.018
Mof_C 	C 	0.41475	0.5	0.567	0.088
Mof_C 	C 	0.3768	0.5	0.5398	-0.014
Mof_C 	C 	0.42947	0.5	0.6447	-0.043
Mof_C 	C 	0.4004	0.5	0.7155	0.028
Mof_C 	C 	0.33349	0.5	0.8411	-0.038
Mof_C 	C 	0.2991	0.5	0.9069	0.416
Mof_C 	C 	0.03153	1.38153e-32	0.6698	0.082
Mof_C 	C 	0.02046	0	0.7533	0.024
Mof_C 	C 	0.08525	0	0.567	0.09
Mof_C 	C 	0.1232	0	0.5398	-0.009
Mof_C 	C 	0.07053	0	0.6447	-0.046
Mof_C 	C 	0.0996	1.38153e-32	0.7155	0.049
Mof_C 	C 	0.16651	0	0.8411	-0.018
Mof_C 	C 	0.2009	2.76306e-32	0.9069	0.436
Mof_C 	C 	0.53153	0.5	0.6698	0.08
Mof_C 	C 	0.52046	0.5	0.7533	0.018
Mof_C 	C 	0.58525	0.5	0.567	0.088
Mof_C 	C 	0.6232	0.5	0.5398	-0.014
Mof_C 	C 	0.57053	0.5	0.6447	-0.043
Mof_C 	C 	0.5996	0.5	0.7155	0.028
Mof_C 	C 	0.66651	0.5	0.8411	-0.038
Mof_C 	C 	0.7009	0.5	0.9069	0.416
Mof_C 	C 	0.03153	0	0.3302	0.091
Mof_C 	C 	0.02046	-6.90766e-33	0.2467	-0.036
Mof_C 	C 	0.08525	0	0.433	0.094
Mof_C 	C 	0.1232	-1.38153e-32	0.4602	-0.01
Mof_C 	C 	0.07053	-6.90766e-33	0.3553	-0.059
Mof_C 	C 	0.0996	0	0.2845	0.049
Mof_C 	C 	0.16651	-3.45383e-33	0.1589	-0.025
Mof_C 	C 	0.2009	0	0.0931	0.364
Mof_C 	C 	0.53153	0.5	0.3302	0.088
Mof_C 	C 	0.52046	0.5	0.2467	-0.043
Mof_C 	C 	0.58525	0.5	0.433	0.091
Mof_C 	C 	0.6232	0.5	0.4602	-0.015
Mof_C 	C 	0.57053	0.5	0.3553	-0.056
Mof_C 	C 	0.5996	0.5	0.2845	0.024
Mof_C 	C 	0.66651	0.5	0.1589	-0.048
Mof_C 	C 	0.7009	0.5	0.0931	0.337
Mof_C 	C 	0.96847	0	0.3302	0.089
Mof_C 	C 	0.97954	-6.90766e-33	0.2467	-0.041
Mof_C 	C 	0.91475	0	0.433	0.094
Mof_C 	C 	0.8768	-1.38153e-32	0.4602	-0.01
Mof_C 	C 	0.92947	-6.90766e-33	0.3553	-0.06
Mof_C 	C 	0.9004	0	0.2845	0.049
Mof_C 	C 	0.83349	-3.45383e-33	0.1589	-0.025
Mof_C 	C 	0.7991	0	0.0931	0.364
Mof_C 	C 	0.46847	0.5	0.3302	0.088
Mof_C 	C 	0.47954	0.5	0.2467	-0.043
Mof_C 	C 	0.41475	0.5	0.433	0.091
Mof_C 	C 	0.3768	0.5	0.4602	-0.015
Mof_C 	C 	0.42947	0.5	0.3553	-0.056
Mof_C 	C 	0.4004	0.5	0.2845	0.024
Mof_C 	C 	0.33349	0.5	0.1589	-0.048
Mof_C 	C 	0.2991	0.5	0.0931	0.337
Mof_N 	N 	1.16269e-33	0	0.6172	-0.102
Mof_N 	N 	0.5	0.5	0.6172	-0.104
Mof_N 	N 	-1.00579e-33	-6.90766e-33	0.3828	-0.108
Mof_N 	N 	0.5	0.5	0.3828	-0.11
Mof_N 	N 	0.9385	0	0.5	-0.109
Mof_N 	N 	0.4385	0.5	0.5	-0.109
Mof_N 	N 	0.0615	0	0.5	-0.109
Mof_N 	N 	0.5615	0.5	0.5	-0.109
Mof_Ga	Ga	0.75	0.25	-0	3.238
Mof_Ga	Ga	0.25	0.75	-0	3.175
Mof_Ga	Ga	0.25	0.25	-0	3.238
Mof_Ga	Ga	0.75	0.75	-0	3.175
Mof_O 	O 	0.7265	0	-0	-1.373
Mof_O 	O 	0.2265	0.5	-0	-1.392
Mof_O 	O 	0.2735	0	-0	-1.373
Mof_O 	O 	0.7735	0.5	-0	-1.392
_end
