# CIF file generated by openbabel 3.1.0, see https://openbabel.org
data_I
_chemical_name_common 'image0'
_cell_length_a 13.3382
_cell_length_b 21.4986
_cell_length_c 10.1527
_cell_angle_alpha 90
_cell_angle_beta 95
_cell_angle_gamma 90
_space_group_name_H-M_alt 'P 1'
_space_group_name_Hall 'P 1'
loop_
    _symmetry_equiv_pos_as_xyz
    x,y,z
loop_
    _atom_site_label
    _atom_site_type_symbol
    _atom_site_fract_x
    _atom_site_fract_y
    _atom_site_fract_z
    _atom_site_occupancy
    C1       C        0.10330    0.71980    0.75460    1.000
    C2       C        0.25990    0.80310    0.75410    1.000
    C3       C        0.13670    0.73650    0.63570    1.000
    H1       H        0.10820    0.71980    0.55660    1.000
    C4       C        0.21560    0.77980    0.63820    1.000
    H2       H        0.23830    0.79290    0.55880    1.000
    C5       C        0.22150    0.78590    0.87490    1.000
    H3       H        0.24920    0.80290    0.95410    1.000
    C6       C        0.14240    0.74360    0.87520    1.000
    H4       H        0.11670    0.73170    0.95370    1.000
    C7       C        0.34660    0.84750    0.75220    1.000
    C8       C        0.36280    0.01730    0.80440    1.000
    C9       C        0.27260    0.05930    0.79270    1.000
    C10      C        0.23840    0.08200    0.66810    1.000
    H5       H        0.27160    0.07180    0.59420    1.000
    C11      C        0.15400    0.12010    0.65590    1.000
    H6       H        0.13040    0.13580    0.57370    1.000
    C12      C        0.10510    0.13460    0.76780    1.000
    C13      C        0.13820    0.11170    0.89160    1.000
    H7       H        0.10450    0.12150    0.96520    1.000
    C14      C        0.22270    0.07370    0.90330    1.000
    H8       H        0.24600    0.05780    0.98560    1.000
    Cd1      Cd       0.51548    0.92697    0.91945    1.000
    O1       O        0.38510    0.99060    0.70350    1.000
    O2       O        0.41000    0.00950    0.91910    1.000
    O3       O        0.37890    0.87100    0.86070    1.000
    O4       O        0.38020    0.85680    0.64060    1.000
    O5       O        0.00460    0.63380    0.87250    1.000
    O6       O        0.00450    0.21830    0.62800    1.000
    C15      C        0.17130    0.71450    0.66000    1.000
    H9       H        0.16380    0.68340    0.59610    1.000
    C16      C        0.25140    0.75630    0.66200    1.000
    H10      H        0.29890    0.75250    0.60020    1.000
    C17      C        0.19500    0.80920    0.84600    1.000
    H11      H        0.20460    0.84050    0.90940    1.000
    C18      C        0.11300    0.76910    0.84800    1.000
    H12      H        0.06520    0.77450    0.90910    1.000
    C19      C        0.89670    0.71980    0.74540    1.000
    C20      C        0.74010    0.80310    0.74590    1.000
    C21      C        0.86330    0.73650    0.86430    1.000
    H13      H        0.89180    0.71980    0.94340    1.000
    C22      C        0.78440    0.77980    0.86180    1.000
    H14      H        0.76170    0.79290    0.94120    1.000
    C23      C        0.77850    0.78590    0.62510    1.000
    H15      H        0.75080    0.80290    0.54590    1.000
    C24      C        0.85760    0.74360    0.62480    1.000
    H16      H        0.88330    0.73170    0.54630    1.000
    C25      C        0.65340    0.84750    0.74780    1.000
    C26      C        0.63720    0.01730    0.69560    1.000
    C27      C        0.72740    0.05930    0.70730    1.000
    C28      C        0.76160    0.08200    0.83190    1.000
    H17      H        0.72840    0.07180    0.90580    1.000
    C29      C        0.84600    0.12010    0.84410    1.000
    H18      H        0.86960    0.13580    0.92630    1.000
    C30      C        0.89490    0.13460    0.73220    1.000
    C31      C        0.86180    0.11170    0.60840    1.000
    H19      H        0.89550    0.12150    0.53480    1.000
    C32      C        0.77730    0.07370    0.59670    1.000
    H20      H        0.75400    0.05780    0.51440    1.000
    Cd2      Cd       0.48452    0.92697    0.58055    1.000
    O7       O        0.61490    0.99060    0.79650    1.000
    O8       O        0.59000    0.00950    0.58090    1.000
    O9       O        0.62110    0.87100    0.63930    1.000
    O10      O        0.61980    0.85680    0.85940    1.000
    O11      O        0.99540    0.63380    0.62750    1.000
    O12      O        0.99550    0.21830    0.87200    1.000
    C33      C        0.82870    0.71450    0.84000    1.000
    H21      H        0.83620    0.68340    0.90390    1.000
    C34      C        0.74860    0.75630    0.83800    1.000
    H22      H        0.70110    0.75250    0.89980    1.000
    C35      C        0.80500    0.80920    0.65400    1.000
    H23      H        0.79540    0.84050    0.59060    1.000
    C36      C        0.88700    0.76910    0.65200    1.000
    H24      H        0.93480    0.77450    0.59090    1.000
    C37      C        0.89670    0.28020    0.24540    1.000
    C38      C        0.74010    0.19690    0.24590    1.000
    C39      C        0.86330    0.26350    0.36430    1.000
    H25      H        0.89180    0.28020    0.44340    1.000
    C40      C        0.78440    0.22020    0.36180    1.000
    H26      H        0.76170    0.20710    0.44120    1.000
    C41      C        0.77850    0.21410    0.12510    1.000
    H27      H        0.75080    0.19710    0.04590    1.000
    C42      C        0.85760    0.25640    0.12480    1.000
    H28      H        0.88330    0.26830    0.04630    1.000
    C43      C        0.65340    0.15250    0.24780    1.000
    C44      C        0.63720    0.98270    0.19560    1.000
    C45      C        0.72740    0.94070    0.20730    1.000
    C46      C        0.76160    0.91800    0.33190    1.000
    H29      H        0.72840    0.92820    0.40580    1.000
    C47      C        0.84600    0.87990    0.34410    1.000
    H30      H        0.86960    0.86420    0.42630    1.000
    C48      C        0.89490    0.86540    0.23220    1.000
    C49      C        0.86180    0.88830    0.10840    1.000
    H31      H        0.89550    0.87850    0.03480    1.000
    C50      C        0.77730    0.92630    0.09670    1.000
    H32      H        0.75400    0.94220    0.01440    1.000
    Cd3      Cd       0.48452    0.07303    0.08055    1.000
    O13      O        0.61490    0.00940    0.29650    1.000
    O14      O        0.59000    0.99050    0.08090    1.000
    O15      O        0.62110    0.12900    0.13930    1.000
    O16      O        0.61980    0.14320    0.35940    1.000
    O17      O        0.99540    0.36620    0.12750    1.000
    O18      O        0.99550    0.78170    0.37200    1.000
    C51      C        0.82870    0.28550    0.34000    1.000
    H33      H        0.83620    0.31660    0.40390    1.000
    C52      C        0.74860    0.24370    0.33800    1.000
    H34      H        0.70110    0.24750    0.39980    1.000
    C53      C        0.80500    0.19080    0.15400    1.000
    H35      H        0.79540    0.15950    0.09060    1.000
    C54      C        0.88700    0.23090    0.15200    1.000
    H36      H        0.93480    0.22550    0.09090    1.000
    C55      C        0.10330    0.28020    0.25460    1.000
    C56      C        0.25990    0.19690    0.25410    1.000
    C57      C        0.13670    0.26350    0.13570    1.000
    H37      H        0.10820    0.28020    0.05660    1.000
    C58      C        0.21560    0.22020    0.13820    1.000
    H38      H        0.23830    0.20710    0.05880    1.000
    C59      C        0.22150    0.21410    0.37490    1.000
    H39      H        0.24920    0.19710    0.45410    1.000
    C60      C        0.14240    0.25640    0.37520    1.000
    H40      H        0.11670    0.26830    0.45370    1.000
    C61      C        0.34660    0.15250    0.25220    1.000
    C62      C        0.36280    0.98270    0.30440    1.000
    C63      C        0.27260    0.94070    0.29270    1.000
    C64      C        0.23840    0.91800    0.16810    1.000
    H41      H        0.27160    0.92820    0.09420    1.000
    C65      C        0.15400    0.87990    0.15590    1.000
    H42      H        0.13040    0.86420    0.07370    1.000
    C66      C        0.10510    0.86540    0.26780    1.000
    C67      C        0.13820    0.88830    0.39160    1.000
    H43      H        0.10450    0.87850    0.46520    1.000
    C68      C        0.22270    0.92630    0.40330    1.000
    H44      H        0.24600    0.94220    0.48560    1.000
    Cd4      Cd       0.51548    0.07303    0.41945    1.000
    O19      O        0.38510    0.00940    0.20350    1.000
    O20      O        0.41000    0.99050    0.41910    1.000
    O21      O        0.37890    0.12900    0.36070    1.000
    O22      O        0.38020    0.14320    0.14060    1.000
    O23      O        0.00460    0.36620    0.37250    1.000
    O24      O        0.00450    0.78170    0.12800    1.000
    C69      C        0.17130    0.28550    0.16000    1.000
    H45      H        0.16380    0.31660    0.09610    1.000
    C70      C        0.25140    0.24370    0.16200    1.000
    H46      H        0.29890    0.24750    0.10020    1.000
    C71      C        0.19500    0.19080    0.34600    1.000
    H47      H        0.20460    0.15950    0.40940    1.000
    C72      C        0.11300    0.23090    0.34800    1.000
    H48      H        0.06520    0.22550    0.40910    1.000
    S1       S        0.00000    0.66852    0.75000    1.000
    S2       S        0.00000    0.18504    0.75000    1.000
    S3       S        0.00000    0.33148    0.25000    1.000
    S4       S        0.00000    0.81496    0.25000    1.000
    C73      C        0.60330    0.21980    0.75460    1.000
    C74      C        0.75990    0.30310    0.75410    1.000
    C75      C        0.63670    0.23650    0.63570    1.000
    H49      H        0.60820    0.21980    0.55660    1.000
    C76      C        0.71560    0.27980    0.63820    1.000
    H50      H        0.73830    0.29290    0.55880    1.000
    C77      C        0.72150    0.28590    0.87490    1.000
    H51      H        0.74920    0.30290    0.95410    1.000
    C78      C        0.64240    0.24360    0.87520    1.000
    H52      H        0.61670    0.23170    0.95370    1.000
    C79      C        0.84660    0.34750    0.75220    1.000
    C80      C        0.86280    0.51730    0.80440    1.000
    C81      C        0.77260    0.55930    0.79270    1.000
    C82      C        0.73840    0.58200    0.66810    1.000
    H53      H        0.77160    0.57180    0.59420    1.000
    C83      C        0.65400    0.62010    0.65590    1.000
    H54      H        0.63040    0.63580    0.57370    1.000
    C84      C        0.60510    0.63460    0.76780    1.000
    C85      C        0.63820    0.61170    0.89160    1.000
    H55      H        0.60450    0.62150    0.96520    1.000
    C86      C        0.72270    0.57370    0.90330    1.000
    H56      H        0.74600    0.55780    0.98560    1.000
    Cd5      Cd       0.01548    0.42697    0.91945    1.000
    O25      O        0.88510    0.49060    0.70350    1.000
    O26      O        0.91000    0.50950    0.91910    1.000
    O27      O        0.87890    0.37100    0.86070    1.000
    O28      O        0.88020    0.35680    0.64060    1.000
    O29      O        0.50460    0.13380    0.87250    1.000
    O30      O        0.50450    0.71830    0.62800    1.000
    C87      C        0.67130    0.21450    0.66000    1.000
    H57      H        0.66380    0.18340    0.59610    1.000
    C88      C        0.75140    0.25630    0.66200    1.000
    H58      H        0.79890    0.25250    0.60020    1.000
    C89      C        0.69500    0.30920    0.84600    1.000
    H59      H        0.70460    0.34050    0.90940    1.000
    C90      C        0.61300    0.26910    0.84800    1.000
    H60      H        0.56520    0.27450    0.90910    1.000
    C91      C        0.39670    0.21980    0.74540    1.000
    C92      C        0.24010    0.30310    0.74590    1.000
    C93      C        0.36330    0.23650    0.86430    1.000
    H61      H        0.39180    0.21980    0.94340    1.000
    C94      C        0.28440    0.27980    0.86180    1.000
    H62      H        0.26170    0.29290    0.94120    1.000
    C95      C        0.27850    0.28590    0.62510    1.000
    H63      H        0.25080    0.30290    0.54590    1.000
    C96      C        0.35760    0.24360    0.62480    1.000
    H64      H        0.38330    0.23170    0.54630    1.000
    C97      C        0.15340    0.34750    0.74780    1.000
    C98      C        0.13720    0.51730    0.69560    1.000
    C99      C        0.22740    0.55930    0.70730    1.000
    C100     C        0.26160    0.58200    0.83190    1.000
    H65      H        0.22840    0.57180    0.90580    1.000
    C101     C        0.34600    0.62010    0.84410    1.000
    H66      H        0.36960    0.63580    0.92630    1.000
    C102     C        0.39490    0.63460    0.73220    1.000
    C103     C        0.36180    0.61170    0.60840    1.000
    H67      H        0.39550    0.62150    0.53480    1.000
    C104     C        0.27730    0.57370    0.59670    1.000
    H68      H        0.25400    0.55780    0.51440    1.000
    Cd6      Cd       0.98452    0.42697    0.58055    1.000
    O31      O        0.11490    0.49060    0.79650    1.000
    O32      O        0.09000    0.50950    0.58090    1.000
    O33      O        0.12110    0.37100    0.63930    1.000
    O34      O        0.11980    0.35680    0.85940    1.000
    O35      O        0.49540    0.13380    0.62750    1.000
    O36      O        0.49550    0.71830    0.87200    1.000
    C105     C        0.32870    0.21450    0.84000    1.000
    H69      H        0.33620    0.18340    0.90390    1.000
    C106     C        0.24860    0.25630    0.83800    1.000
    H70      H        0.20110    0.25250    0.89980    1.000
    C107     C        0.30500    0.30920    0.65400    1.000
    H71      H        0.29540    0.34050    0.59060    1.000
    C108     C        0.38700    0.26910    0.65200    1.000
    H72      H        0.43480    0.27450    0.59090    1.000
    C109     C        0.39670    0.78020    0.24540    1.000
    C110     C        0.24010    0.69690    0.24590    1.000
    C111     C        0.36330    0.76350    0.36430    1.000
    H73      H        0.39180    0.78020    0.44340    1.000
    C112     C        0.28440    0.72020    0.36180    1.000
    H74      H        0.26170    0.70710    0.44120    1.000
    C113     C        0.27850    0.71410    0.12510    1.000
    H75      H        0.25080    0.69710    0.04590    1.000
    C114     C        0.35760    0.75640    0.12480    1.000
    H76      H        0.38330    0.76830    0.04630    1.000
    C115     C        0.15340    0.65250    0.24780    1.000
    C116     C        0.13720    0.48270    0.19560    1.000
    C117     C        0.22740    0.44070    0.20730    1.000
    C118     C        0.26160    0.41800    0.33190    1.000
    H77      H        0.22840    0.42820    0.40580    1.000
    C119     C        0.34600    0.37990    0.34410    1.000
    H78      H        0.36960    0.36420    0.42630    1.000
    C120     C        0.39490    0.36540    0.23220    1.000
    C121     C        0.36180    0.38830    0.10840    1.000
    H79      H        0.39550    0.37850    0.03480    1.000
    C122     C        0.27730    0.42630    0.09670    1.000
    H80      H        0.25400    0.44220    0.01440    1.000
    Cd7      Cd       0.98452    0.57303    0.08055    1.000
    O37      O        0.11490    0.50940    0.29650    1.000
    O38      O        0.09000    0.49050    0.08090    1.000
    O39      O        0.12110    0.62900    0.13930    1.000
    O40      O        0.11980    0.64320    0.35940    1.000
    O41      O        0.49540    0.86620    0.12750    1.000
    O42      O        0.49550    0.28170    0.37200    1.000
    C123     C        0.32870    0.78550    0.34000    1.000
    H81      H        0.33620    0.81660    0.40390    1.000
    C124     C        0.24860    0.74370    0.33800    1.000
    H82      H        0.20110    0.74750    0.39980    1.000
    C125     C        0.30500    0.69080    0.15400    1.000
    H83      H        0.29540    0.65950    0.09060    1.000
    C126     C        0.38700    0.73090    0.15200    1.000
    H84      H        0.43480    0.72550    0.09090    1.000
    C127     C        0.60330    0.78020    0.25460    1.000
    C128     C        0.75990    0.69690    0.25410    1.000
    C129     C        0.63670    0.76350    0.13570    1.000
    H85      H        0.60820    0.78020    0.05660    1.000
    C130     C        0.71560    0.72020    0.13820    1.000
    H86      H        0.73830    0.70710    0.05880    1.000
    C131     C        0.72150    0.71410    0.37490    1.000
    H87      H        0.74920    0.69710    0.45410    1.000
    C132     C        0.64240    0.75640    0.37520    1.000
    H88      H        0.61670    0.76830    0.45370    1.000
    C133     C        0.84660    0.65250    0.25220    1.000
    C134     C        0.86280    0.48270    0.30440    1.000
    C135     C        0.77260    0.44070    0.29270    1.000
    C136     C        0.73840    0.41800    0.16810    1.000
    H89      H        0.77160    0.42820    0.09420    1.000
    C137     C        0.65400    0.37990    0.15590    1.000
    H90      H        0.63040    0.36420    0.07370    1.000
    C138     C        0.60510    0.36540    0.26780    1.000
    C139     C        0.63820    0.38830    0.39160    1.000
    H91      H        0.60450    0.37850    0.46520    1.000
    C140     C        0.72270    0.42630    0.40330    1.000
    H92      H        0.74600    0.44220    0.48560    1.000
    Cd8      Cd       0.01548    0.57303    0.41945    1.000
    O43      O        0.88510    0.50940    0.20350    1.000
    O44      O        0.91000    0.49050    0.41910    1.000
    O45      O        0.87890    0.62900    0.36070    1.000
    O46      O        0.88020    0.64320    0.14060    1.000
    O47      O        0.50460    0.86620    0.37250    1.000
    O48      O        0.50450    0.28170    0.12800    1.000
    C141     C        0.67130    0.78550    0.16000    1.000
    H93      H        0.66380    0.81660    0.09610    1.000
    C142     C        0.75140    0.74370    0.16200    1.000
    H94      H        0.79890    0.74750    0.10020    1.000
    C143     C        0.69500    0.69080    0.34600    1.000
    H95      H        0.70460    0.65950    0.40940    1.000
    C144     C        0.61300    0.73090    0.34800    1.000
    H96      H        0.56520    0.72550    0.40910    1.000
    S5       S        0.50000    0.16852    0.75000    1.000
    S6       S        0.50000    0.68504    0.75000    1.000
    S7       S        0.50000    0.83148    0.25000    1.000
    S8       S        0.50000    0.31496    0.25000    1.000
