data_functionalizedCrystal
_audit_creation_method	'EQeq! by Chris Wilmer'
_symmetry_space_group_name_H-M	'P1'
_symmetry_Int_Tables_number	1
_symmetry_cell_setting	triclinic
loop_
_symmetry_equiv_pos_as_xyz
  x,y,z
_cell_length_a	25.9051
_cell_length_b	25.9051
_cell_length_c	20.4603
_cell_angle_alpha	90
_cell_angle_beta	90
_cell_angle_gamma	120
loop_
_atom_site_label
_atom_site_type_symbol
_atom_site_fract_x
_atom_site_fract_y
_atom_site_fract_z
_atom_site_charge
Mof_Cu	Cu	0.01751	0.39113	0.41815	0.771
Mof_Cu	Cu	0.95443	0.26587	0.41165	0.77
Mof_Cu	Cu	0.0112	0.3414	0.19442	0.766
Mof_I 	I 	0.03851	0.33048	0.32382	-0.579
Mof_I 	I 	0.99982	0.22443	0.49807	-0.435
Mof_I 	I 	0.91053	0.33911	0.1775	-0.477
Mof_I 	I 	0.90704	0.32682	0.46815	-0.563
Mof_C 	C 	0.8731	0.2126	0.3001	-0.031
Mof_H 	H 	0.8597	0.2405	0.3078	0.032
Mof_H 	H 	0.9101	0.2329	0.2765	0.003
Mof_C 	C 	0.8277	0.1639	0.2592	-0.066
Mof_H 	H 	0.8472	0.1579	0.2225	0.035
Mof_H 	H 	0.7993	0.1742	0.2428	0.041
Mof_C 	C 	0.8987	0.1481	0.3471	-0.083
Mof_H 	H 	0.9329	0.1636	0.319	0.054
Mof_H 	H 	0.9079	0.135	0.3871	0.058
Mof_C 	C 	0.8437	0.0965	0.3135	-0.052
Mof_H 	H 	0.8264	0.0627	0.3424	0.047
Mof_H 	H 	0.8566	0.0853	0.2746	0.045
Mof_C 	C 	0.8296	0.1655	0.3983	-0.087
Mof_H 	H 	0.8351	0.1454	0.4347	0.054
Mof_H 	H 	0.8205	0.1947	0.4152	0.057
Mof_C 	C 	0.7787	0.1211	0.3569	-0.025
Mof_H 	H 	0.7515	0.1354	0.3493	0.031
Mof_H 	H 	0.7577	0.0839	0.3799	-0.003
Mof_N 	N 	0.8843	0.1952	0.3614	-0.173
Mof_N 	N 	0.7978	0.1106	0.2957	-0.179
Mof_Cu	Cu	0.68418	0.72446	0.75148	0.77
Mof_Cu	Cu	0.6211	0.5992	0.74498	0.769
Mof_Cu	Cu	0.67787	0.67473	0.52775	0.765
Mof_I 	I 	0.70518	0.66381	0.65715	-0.58
Mof_I 	I 	0.66649	0.55776	0.8314	-0.437
Mof_I 	I 	0.5772	0.67244	0.51083	-0.479
Mof_I 	I 	0.57371	0.66015	0.80148	-0.564
Mof_C 	C 	0.53977	0.54593	0.63343	-0.032
Mof_H 	H 	0.52637	0.57383	0.64113	0.032
Mof_H 	H 	0.57677	0.56623	0.60983	0.002
Mof_C 	C 	0.49437	0.49723	0.59253	-0.066
Mof_H 	H 	0.51387	0.49123	0.55583	0.035
Mof_H 	H 	0.46597	0.50753	0.57613	0.041
Mof_C 	C 	0.56537	0.48143	0.68043	-0.083
Mof_H 	H 	0.59957	0.49693	0.65233	0.054
Mof_H 	H 	0.57457	0.46833	0.72043	0.057
Mof_C 	C 	0.51037	0.42983	0.64683	-0.052
Mof_H 	H 	0.49307	0.39603	0.67573	0.047
Mof_H 	H 	0.52327	0.41863	0.60793	0.045
Mof_C 	C 	0.49627	0.49883	0.73163	-0.087
Mof_H 	H 	0.50177	0.47873	0.76803	0.054
Mof_H 	H 	0.48717	0.52803	0.74853	0.057
Mof_C 	C 	0.44537	0.45443	0.69023	-0.025
Mof_H 	H 	0.41817	0.46873	0.68263	0.031
Mof_H 	H 	0.42437	0.41723	0.71323	-0.003
Mof_N 	N 	0.55097	0.52853	0.69473	-0.173
Mof_N 	N 	0.46447	0.44393	0.62903	-0.179
Mof_Cu	Cu	0.35084	0.0578	0.08482	0.77
Mof_Cu	Cu	0.28776	0.93254	0.07832	0.768
Mof_Cu	Cu	0.34453	0.00807	0.86109	0.765
Mof_I 	I 	0.37184	0.99715	0.99049	-0.578
Mof_I 	I 	0.33315	0.8911	0.16474	-0.438
Mof_I 	I 	0.24386	0.00578	0.84417	-0.479
Mof_I 	I 	0.24037	0.99349	0.13482	-0.564
Mof_C 	C 	0.20643	0.87927	0.96677	-0.03
Mof_H 	H 	0.19303	0.90717	0.97447	0.032
Mof_H 	H 	0.24343	0.89957	0.94317	0.002
Mof_C 	C 	0.16103	0.83057	0.92587	-0.067
Mof_H 	H 	0.18053	0.82457	0.88917	0.035
Mof_H 	H 	0.13263	0.84087	0.90947	0.042
Mof_C 	C 	0.23203	0.81477	0.01377	-0.089
Mof_H 	H 	0.26623	0.83027	0.98567	0.057
Mof_H 	H 	0.24123	0.80167	0.05377	0.059
Mof_C 	C 	0.17703	0.76317	0.98017	-0.045
Mof_H 	H 	0.15973	0.72937	0.00907	0.044
Mof_H 	H 	0.18993	0.75197	0.94127	0.043
Mof_C 	C 	0.16293	0.83217	0.06497	-0.087
Mof_H 	H 	0.16843	0.81207	0.10137	0.054
Mof_H 	H 	0.15383	0.86137	0.08187	0.057
Mof_C 	C 	0.11203	0.78777	0.02357	-0.027
Mof_H 	H 	0.08483	0.80207	0.01597	0.031
Mof_H 	H 	0.09103	0.75057	0.04657	-0.003
Mof_N 	N 	0.21763	0.86187	0.02807	-0.173
Mof_N 	N 	0.13113	0.77727	0.96237	-0.179
Mof_Cu	Cu	0.60887	0.62638	0.41815	0.77
Mof_Cu	Cu	0.73413	0.68856	0.41165	0.769
Mof_Cu	Cu	0.6586	0.6698	0.19442	0.765
Mof_I 	I 	0.66952	0.70803	0.32382	-0.58
Mof_I 	I 	0.77557	0.77539	0.49807	-0.437
Mof_I 	I 	0.66089	0.57142	0.1775	-0.479
Mof_I 	I 	0.67318	0.58022	0.46815	-0.564
Mof_C 	C 	0.7874	0.6605	0.3001	-0.032
Mof_H 	H 	0.7595	0.6192	0.3078	0.032
Mof_H 	H 	0.7671	0.6772	0.2765	0.002
Mof_C 	C 	0.8361	0.6638	0.2592	-0.066
Mof_H 	H 	0.8421	0.6893	0.2225	0.035
Mof_H 	H 	0.8258	0.6251	0.2428	0.041
Mof_C 	C 	0.8519	0.7506	0.3471	-0.083
Mof_H 	H 	0.8364	0.7693	0.319	0.054
Mof_H 	H 	0.865	0.7729	0.3871	0.057
Mof_C 	C 	0.9035	0.7472	0.3135	-0.052
Mof_H 	H 	0.9373	0.7637	0.3424	0.047
Mof_H 	H 	0.9147	0.7713	0.2746	0.045
Mof_C 	C 	0.8345	0.6641	0.3983	-0.087
Mof_H 	H 	0.8546	0.6897	0.4347	0.054
Mof_H 	H 	0.8053	0.6258	0.4152	0.057
Mof_C 	C 	0.8789	0.6576	0.3569	-0.025
Mof_H 	H 	0.8646	0.6161	0.3493	0.031
Mof_H 	H 	0.9161	0.6738	0.3799	-0.003
Mof_N 	N 	0.8048	0.6891	0.3614	-0.173
Mof_N 	N 	0.8894	0.6872	0.2957	-0.179
Mof_Cu	Cu	0.27554	0.95971	0.75148	0.77
Mof_Cu	Cu	0.4008	0.02189	0.74498	0.769
Mof_Cu	Cu	0.32527	0.00313	0.52775	0.765
Mof_I 	I 	0.33619	0.04136	0.65715	-0.58
Mof_I 	I 	0.44224	0.10872	0.8314	-0.438
Mof_I 	I 	0.32756	0.90475	0.51083	-0.479
Mof_I 	I 	0.33985	0.91355	0.80148	-0.563
Mof_C 	C 	0.45407	0.99383	0.63343	-0.03
Mof_H 	H 	0.42617	0.95253	0.64113	0.031
Mof_H 	H 	0.43377	0.01053	0.60983	0.002
Mof_C 	C 	0.50277	0.99713	0.59253	-0.066
Mof_H 	H 	0.50877	0.02263	0.55583	0.035
Mof_H 	H 	0.49247	0.95843	0.57613	0.041
Mof_C 	C 	0.51857	0.08393	0.68043	-0.083
Mof_H 	H 	0.50307	0.10263	0.65233	0.054
Mof_H 	H 	0.53167	0.10623	0.72043	0.057
Mof_C 	C 	0.57017	0.08053	0.64683	-0.052
Mof_H 	H 	0.60397	0.09703	0.67573	0.047
Mof_H 	H 	0.58137	0.10463	0.60793	0.045
Mof_C 	C 	0.50117	0.99743	0.73163	-0.086
Mof_H 	H 	0.52127	0.02303	0.76803	0.053
Mof_H 	H 	0.47197	0.95913	0.74853	0.057
Mof_C 	C 	0.54557	0.99093	0.69023	-0.025
Mof_H 	H 	0.53127	0.94943	0.68263	0.031
Mof_H 	H 	0.58277	0.00713	0.71323	-0.003
Mof_N 	N 	0.47147	0.02243	0.69473	-0.173
Mof_N 	N 	0.55607	0.02053	0.62903	-0.18
Mof_Cu	Cu	0.9422	0.29305	0.08482	0.77
Mof_Cu	Cu	0.06746	0.35523	0.07832	0.768
Mof_Cu	Cu	0.99193	0.33647	0.86109	0.765
Mof_I 	I 	0.00285	0.3747	0.99049	-0.579
Mof_I 	I 	0.1089	0.44206	0.16474	-0.438
Mof_I 	I 	0.99422	0.23809	0.84417	-0.479
Mof_I 	I 	0.00651	0.24689	0.13482	-0.564
Mof_C 	C 	0.12073	0.32717	0.96677	-0.031
Mof_H 	H 	0.09283	0.28587	0.97447	0.032
Mof_H 	H 	0.10043	0.34387	0.94317	0.002
Mof_C 	C 	0.16943	0.33047	0.92587	-0.067
Mof_H 	H 	0.17543	0.35597	0.88917	0.035
Mof_H 	H 	0.15913	0.29177	0.90947	0.041
Mof_C 	C 	0.18523	0.41727	0.01377	-0.085
Mof_H 	H 	0.16973	0.43597	0.98567	0.055
Mof_H 	H 	0.19833	0.43957	0.05377	0.058
Mof_C 	C 	0.23683	0.41387	0.98017	-0.049
Mof_H 	H 	0.27063	0.43037	0.00907	0.046
Mof_H 	H 	0.24803	0.43797	0.94127	0.044
Mof_C 	C 	0.16783	0.33077	0.06497	-0.087
Mof_H 	H 	0.18793	0.35637	0.10137	0.054
Mof_H 	H 	0.13863	0.29247	0.08187	0.057
Mof_C 	C 	0.21223	0.32427	0.02357	-0.026
Mof_H 	H 	0.19793	0.28277	0.01597	0.031
Mof_H 	H 	0.24943	0.34047	0.04657	-0.003
Mof_N 	N 	0.13813	0.35577	0.02807	-0.173
Mof_N 	N 	0.22273	0.35387	0.96237	-0.18
Mof_Cu	Cu	0.37362	0.98249	0.41815	0.77
Mof_Cu	Cu	0.31144	0.04557	0.41165	0.769
Mof_Cu	Cu	0.3302	0.9888	0.19442	0.765
Mof_I 	I 	0.29197	0.96149	0.32382	-0.579
Mof_I 	I 	0.22461	0.00018	0.49807	-0.437
Mof_I 	I 	0.42858	0.08947	0.1775	-0.479
Mof_I 	I 	0.41978	0.09296	0.46815	-0.564
Mof_C 	C 	0.3395	0.1269	0.3001	-0.032
Mof_H 	H 	0.3808	0.1403	0.3078	0.032
Mof_H 	H 	0.3228	0.0899	0.2765	0.003
Mof_C 	C 	0.3362	0.1723	0.2592	-0.066
Mof_H 	H 	0.3107	0.1528	0.2225	0.035
Mof_H 	H 	0.3749	0.2007	0.2428	0.041
Mof_C 	C 	0.2494	0.1013	0.3471	-0.083
Mof_H 	H 	0.2307	0.0671	0.319	0.054
Mof_H 	H 	0.2271	0.0921	0.3871	0.057
Mof_C 	C 	0.2528	0.1563	0.3135	-0.052
Mof_H 	H 	0.2363	0.1736	0.3424	0.047
Mof_H 	H 	0.2287	0.1434	0.2746	0.045
Mof_C 	C 	0.3359	0.1704	0.3983	-0.087
Mof_H 	H 	0.3103	0.1649	0.4347	0.054
Mof_H 	H 	0.3742	0.1795	0.4152	0.057
Mof_C 	C 	0.3424	0.2213	0.3569	-0.025
Mof_H 	H 	0.3839	0.2485	0.3493	0.031
Mof_H 	H 	0.3262	0.2423	0.3799	-0.003
Mof_N 	N 	0.3109	0.1157	0.3614	-0.173
Mof_N 	N 	0.3128	0.2022	0.2957	-0.179
Mof_Cu	Cu	0.04029	0.31582	0.75148	0.77
Mof_Cu	Cu	0.97811	0.3789	0.74498	0.769
Mof_Cu	Cu	0.99687	0.32213	0.52775	0.765
Mof_I 	I 	0.95864	0.29482	0.65715	-0.579
Mof_I 	I 	0.89128	0.33351	0.8314	-0.438
Mof_I 	I 	0.09525	0.4228	0.51083	-0.479
Mof_I 	I 	0.08645	0.42629	0.80148	-0.564
Mof_C 	C 	0.00617	0.46023	0.63343	-0.031
Mof_H 	H 	0.04747	0.47363	0.64113	0.032
Mof_H 	H 	0.98947	0.42323	0.60983	0.002
Mof_C 	C 	0.00287	0.50563	0.59253	-0.066
Mof_H 	H 	0.97737	0.48613	0.55583	0.035
Mof_H 	H 	0.04157	0.53403	0.57613	0.041
Mof_C 	C 	0.91607	0.43463	0.68043	-0.083
Mof_H 	H 	0.89737	0.40043	0.65233	0.054
Mof_H 	H 	0.89377	0.42543	0.72043	0.057
Mof_C 	C 	0.91947	0.48963	0.64683	-0.052
Mof_H 	H 	0.90297	0.50693	0.67573	0.047
Mof_H 	H 	0.89537	0.47673	0.60793	0.045
Mof_C 	C 	0.00257	0.50373	0.73163	-0.086
Mof_H 	H 	0.97697	0.49823	0.76803	0.053
Mof_H 	H 	0.04087	0.51283	0.74853	0.057
Mof_C 	C 	0.00907	0.55463	0.69023	-0.024
Mof_H 	H 	0.05057	0.58183	0.68263	0.031
Mof_H 	H 	0.99287	0.57563	0.71323	-0.003
Mof_N 	N 	0.97757	0.44903	0.69473	-0.173
Mof_N 	N 	0.97947	0.53553	0.62903	-0.18
Mof_Cu	Cu	0.70695	0.64916	0.08482	0.77
Mof_Cu	Cu	0.64477	0.71224	0.07832	0.769
Mof_Cu	Cu	0.66353	0.65547	0.86109	0.765
Mof_I 	I 	0.6253	0.62816	0.99049	-0.58
Mof_I 	I 	0.55794	0.66685	0.16474	-0.437
Mof_I 	I 	0.76191	0.75614	0.84417	-0.479
Mof_I 	I 	0.75311	0.75963	0.13482	-0.564
Mof_C 	C 	0.67283	0.79357	0.96677	-0.031
Mof_H 	H 	0.71413	0.80697	0.97447	0.032
Mof_H 	H 	0.65613	0.75657	0.94317	0.002
Mof_C 	C 	0.66953	0.83897	0.92587	-0.067
Mof_H 	H 	0.64403	0.81947	0.88917	0.035
Mof_H 	H 	0.70823	0.86737	0.90947	0.041
Mof_C 	C 	0.58273	0.76797	0.01377	-0.085
Mof_H 	H 	0.56403	0.73377	0.98567	0.055
Mof_H 	H 	0.56043	0.75877	0.05377	0.058
Mof_C 	C 	0.58613	0.82297	0.98017	-0.049
Mof_H 	H 	0.56963	0.84027	0.00907	0.046
Mof_H 	H 	0.56203	0.81007	0.94127	0.044
Mof_C 	C 	0.66923	0.83707	0.06497	-0.087
Mof_H 	H 	0.64363	0.83157	0.10137	0.054
Mof_H 	H 	0.70753	0.84617	0.08187	0.057
Mof_C 	C 	0.67573	0.88797	0.02357	-0.026
Mof_H 	H 	0.71723	0.91517	0.01597	0.031
Mof_H 	H 	0.65953	0.90897	0.04657	-0.003
Mof_N 	N 	0.64423	0.78237	0.02807	-0.173
Mof_N 	N 	0.64613	0.86887	0.96237	-0.18
Mof_Cu	Cu	0.98249	0.60887	0.58185	0.77
Mof_Cu	Cu	0.04557	0.73413	0.58835	0.769
Mof_Cu	Cu	0.9888	0.6586	0.80558	0.765
Mof_I 	I 	0.96149	0.66952	0.67618	-0.58
Mof_I 	I 	0.00018	0.77557	0.50193	-0.436
Mof_I 	I 	0.08947	0.66089	0.8225	-0.478
Mof_I 	I 	0.09296	0.67318	0.53185	-0.564
Mof_C 	C 	0.1269	0.7874	0.6999	-0.032
Mof_H 	H 	0.1403	0.7595	0.6922	0.032
Mof_H 	H 	0.0899	0.7671	0.7235	0.003
Mof_C 	C 	0.1723	0.8361	0.7408	-0.066
Mof_H 	H 	0.1528	0.8421	0.7775	0.035
Mof_H 	H 	0.2007	0.8258	0.7572	0.041
Mof_C 	C 	0.1013	0.8519	0.6529	-0.083
Mof_H 	H 	0.0671	0.8364	0.681	0.054
Mof_H 	H 	0.0921	0.865	0.6129	0.058
Mof_C 	C 	0.1563	0.9035	0.6865	-0.052
Mof_H 	H 	0.1736	0.9373	0.6576	0.047
Mof_H 	H 	0.1434	0.9147	0.7254	0.045
Mof_C 	C 	0.1704	0.8345	0.6017	-0.087
Mof_H 	H 	0.1649	0.8546	0.5653	0.054
Mof_H 	H 	0.1795	0.8053	0.5848	0.057
Mof_C 	C 	0.2213	0.8789	0.6431	-0.025
Mof_H 	H 	0.2485	0.8646	0.6507	0.031
Mof_H 	H 	0.2423	0.9161	0.6201	-0.003
Mof_N 	N 	0.1157	0.8048	0.6386	-0.173
Mof_N 	N 	0.2022	0.8894	0.7043	-0.179
Mof_Cu	Cu	0.64916	0.9422	0.91518	0.77
Mof_Cu	Cu	0.71224	0.06746	0.92168	0.768
Mof_Cu	Cu	0.65547	0.99193	0.13891	0.765
Mof_I 	I 	0.62816	0.00285	0.00951	-0.578
Mof_I 	I 	0.66685	0.1089	0.83526	-0.438
Mof_I 	I 	0.75614	0.99422	0.15583	-0.479
Mof_I 	I 	0.75963	0.00651	0.86518	-0.564
Mof_C 	C 	0.79357	0.12073	0.03323	-0.03
Mof_H 	H 	0.80697	0.09283	0.02553	0.032
Mof_H 	H 	0.75657	0.10043	0.05683	0.002
Mof_C 	C 	0.83897	0.16943	0.07413	-0.067
Mof_H 	H 	0.81947	0.17543	0.11083	0.035
Mof_H 	H 	0.86737	0.15913	0.09053	0.042
Mof_C 	C 	0.76797	0.18523	0.98623	-0.089
Mof_H 	H 	0.73377	0.16973	0.01433	0.057
Mof_H 	H 	0.75877	0.19833	0.94623	0.059
Mof_C 	C 	0.82297	0.23683	0.01983	-0.045
Mof_H 	H 	0.84027	0.27063	0.99093	0.044
Mof_H 	H 	0.81007	0.24803	0.05873	0.043
Mof_C 	C 	0.83707	0.16783	0.93503	-0.087
Mof_H 	H 	0.83157	0.18793	0.89863	0.054
Mof_H 	H 	0.84617	0.13863	0.91813	0.057
Mof_C 	C 	0.88797	0.21223	0.97643	-0.027
Mof_H 	H 	0.91517	0.19793	0.98403	0.031
Mof_H 	H 	0.90897	0.24943	0.95343	-0.003
Mof_N 	N 	0.78237	0.13813	0.97193	-0.173
Mof_N 	N 	0.86887	0.22273	0.03763	-0.179
Mof_Cu	Cu	0.31582	0.27554	0.24852	0.77
Mof_Cu	Cu	0.3789	0.4008	0.25502	0.769
Mof_Cu	Cu	0.32213	0.32527	0.47225	0.765
Mof_I 	I 	0.29482	0.33619	0.34285	-0.58
Mof_I 	I 	0.33351	0.44224	0.1686	-0.437
Mof_I 	I 	0.4228	0.32756	0.48917	-0.479
Mof_I 	I 	0.42629	0.33985	0.19852	-0.564
Mof_C 	C 	0.46023	0.45407	0.36657	-0.032
Mof_H 	H 	0.47363	0.42617	0.35887	0.032
Mof_H 	H 	0.42323	0.43377	0.39017	0.002
Mof_C 	C 	0.50563	0.50277	0.40747	-0.066
Mof_H 	H 	0.48613	0.50877	0.44417	0.035
Mof_H 	H 	0.53403	0.49247	0.42387	0.041
Mof_C 	C 	0.43463	0.51857	0.31957	-0.083
Mof_H 	H 	0.40043	0.50307	0.34767	0.054
Mof_H 	H 	0.42543	0.53167	0.27957	0.057
Mof_C 	C 	0.48963	0.57017	0.35317	-0.052
Mof_H 	H 	0.50693	0.60397	0.32427	0.047
Mof_H 	H 	0.47673	0.58137	0.39207	0.045
Mof_C 	C 	0.50373	0.50117	0.26837	-0.087
Mof_H 	H 	0.49823	0.52127	0.23197	0.054
Mof_H 	H 	0.51283	0.47197	0.25147	0.057
Mof_C 	C 	0.55463	0.54557	0.30977	-0.025
Mof_H 	H 	0.58183	0.53127	0.31737	0.031
Mof_H 	H 	0.57563	0.58277	0.28677	-0.003
Mof_N 	N 	0.44903	0.47147	0.30527	-0.173
Mof_N 	N 	0.53553	0.55607	0.37097	-0.179
Mof_Cu	Cu	0.39113	0.37362	0.58185	0.77
Mof_Cu	Cu	0.26587	0.31144	0.58835	0.769
Mof_Cu	Cu	0.3414	0.3302	0.80558	0.765
Mof_I 	I 	0.33048	0.29197	0.67618	-0.58
Mof_I 	I 	0.22443	0.22461	0.50193	-0.437
Mof_I 	I 	0.33911	0.42858	0.8225	-0.479
Mof_I 	I 	0.32682	0.41978	0.53185	-0.564
Mof_C 	C 	0.2126	0.3395	0.6999	-0.032
Mof_H 	H 	0.2405	0.3808	0.6922	0.032
Mof_H 	H 	0.2329	0.3228	0.7235	0.002
Mof_C 	C 	0.1639	0.3362	0.7408	-0.066
Mof_H 	H 	0.1579	0.3107	0.7775	0.035
Mof_H 	H 	0.1742	0.3749	0.7572	0.041
Mof_C 	C 	0.1481	0.2494	0.6529	-0.083
Mof_H 	H 	0.1636	0.2307	0.681	0.054
Mof_H 	H 	0.135	0.2271	0.6129	0.057
Mof_C 	C 	0.0965	0.2528	0.6865	-0.052
Mof_H 	H 	0.0627	0.2363	0.6576	0.047
Mof_H 	H 	0.0853	0.2287	0.7254	0.045
Mof_C 	C 	0.1655	0.3359	0.6017	-0.087
Mof_H 	H 	0.1454	0.3103	0.5653	0.054
Mof_H 	H 	0.1947	0.3742	0.5848	0.057
Mof_C 	C 	0.1211	0.3424	0.6431	-0.025
Mof_H 	H 	0.1354	0.3839	0.6507	0.031
Mof_H 	H 	0.0839	0.3262	0.6201	-0.003
Mof_N 	N 	0.1952	0.3109	0.6386	-0.173
Mof_N 	N 	0.1106	0.3128	0.7043	-0.179
Mof_Cu	Cu	0.0578	0.70695	0.91518	0.77
Mof_Cu	Cu	0.93254	0.64477	0.92168	0.768
Mof_Cu	Cu	0.00807	0.66353	0.13891	0.765
Mof_I 	I 	0.99715	0.6253	0.00951	-0.579
Mof_I 	I 	0.8911	0.55794	0.83526	-0.438
Mof_I 	I 	0.00578	0.76191	0.15583	-0.479
Mof_I 	I 	0.99349	0.75311	0.86518	-0.564
Mof_C 	C 	0.87927	0.67283	0.03323	-0.031
Mof_H 	H 	0.90717	0.71413	0.02553	0.032
Mof_H 	H 	0.89957	0.65613	0.05683	0.002
Mof_C 	C 	0.83057	0.66953	0.07413	-0.067
Mof_H 	H 	0.82457	0.64403	0.11083	0.035
Mof_H 	H 	0.84087	0.70823	0.09053	0.041
Mof_C 	C 	0.81477	0.58273	0.98623	-0.085
Mof_H 	H 	0.83027	0.56403	0.01433	0.055
Mof_H 	H 	0.80167	0.56043	0.94623	0.058
Mof_C 	C 	0.76317	0.58613	0.01983	-0.049
Mof_H 	H 	0.72937	0.56963	0.99093	0.046
Mof_H 	H 	0.75197	0.56203	0.05873	0.044
Mof_C 	C 	0.83217	0.66923	0.93503	-0.087
Mof_H 	H 	0.81207	0.64363	0.89863	0.054
Mof_H 	H 	0.86137	0.70753	0.91813	0.057
Mof_C 	C 	0.78777	0.67573	0.97643	-0.026
Mof_H 	H 	0.80207	0.71723	0.98403	0.031
Mof_H 	H 	0.75057	0.65953	0.95343	-0.003
Mof_N 	N 	0.86187	0.64423	0.97193	-0.173
Mof_N 	N 	0.77727	0.64613	0.03763	-0.18
Mof_Cu	Cu	0.72446	0.04029	0.24852	0.77
Mof_Cu	Cu	0.5992	0.97811	0.25502	0.769
Mof_Cu	Cu	0.67473	0.99687	0.47225	0.765
Mof_I 	I 	0.66381	0.95864	0.34285	-0.58
Mof_I 	I 	0.55776	0.89128	0.1686	-0.438
Mof_I 	I 	0.67244	0.09525	0.48917	-0.479
Mof_I 	I 	0.66015	0.08645	0.19852	-0.563
Mof_C 	C 	0.54593	0.00617	0.36657	-0.03
Mof_H 	H 	0.57383	0.04747	0.35887	0.031
Mof_H 	H 	0.56623	0.98947	0.39017	0.002
Mof_C 	C 	0.49723	0.00287	0.40747	-0.066
Mof_H 	H 	0.49123	0.97737	0.44417	0.035
Mof_H 	H 	0.50753	0.04157	0.42387	0.041
Mof_C 	C 	0.48143	0.91607	0.31957	-0.083
Mof_H 	H 	0.49693	0.89737	0.34767	0.054
Mof_H 	H 	0.46833	0.89377	0.27957	0.057
Mof_C 	C 	0.42983	0.91947	0.35317	-0.052
Mof_H 	H 	0.39603	0.90297	0.32427	0.047
Mof_H 	H 	0.41863	0.89537	0.39207	0.045
Mof_C 	C 	0.49883	0.00257	0.26837	-0.086
Mof_H 	H 	0.47873	0.97697	0.23197	0.053
Mof_H 	H 	0.52803	0.04087	0.25147	0.057
Mof_C 	C 	0.45443	0.00907	0.30977	-0.025
Mof_H 	H 	0.46873	0.05057	0.31737	0.031
Mof_H 	H 	0.41723	0.99287	0.28677	-0.003
Mof_N 	N 	0.52853	0.97757	0.30527	-0.173
Mof_N 	N 	0.44393	0.97947	0.37097	-0.18
Mof_Cu	Cu	0.62638	0.01751	0.58185	0.77
Mof_Cu	Cu	0.68856	0.95443	0.58835	0.769
Mof_Cu	Cu	0.6698	0.0112	0.80558	0.765
Mof_I 	I 	0.70803	0.03851	0.67618	-0.579
Mof_I 	I 	0.77539	0.99982	0.50193	-0.437
Mof_I 	I 	0.57142	0.91053	0.8225	-0.479
Mof_I 	I 	0.58022	0.90704	0.53185	-0.564
Mof_C 	C 	0.6605	0.8731	0.6999	-0.032
Mof_H 	H 	0.6192	0.8597	0.6922	0.032
Mof_H 	H 	0.6772	0.9101	0.7235	0.003
Mof_C 	C 	0.6638	0.8277	0.7408	-0.066
Mof_H 	H 	0.6893	0.8472	0.7775	0.035
Mof_H 	H 	0.6251	0.7993	0.7572	0.041
Mof_C 	C 	0.7506	0.8987	0.6529	-0.083
Mof_H 	H 	0.7693	0.9329	0.681	0.054
Mof_H 	H 	0.7729	0.9079	0.6129	0.057
Mof_C 	C 	0.7472	0.8437	0.6865	-0.052
Mof_H 	H 	0.7637	0.8264	0.6576	0.047
Mof_H 	H 	0.7713	0.8566	0.7254	0.045
Mof_C 	C 	0.6641	0.8296	0.6017	-0.087
Mof_H 	H 	0.6897	0.8351	0.5653	0.054
Mof_H 	H 	0.6258	0.8205	0.5848	0.057
Mof_C 	C 	0.6576	0.7787	0.6431	-0.025
Mof_H 	H 	0.6161	0.7515	0.6507	0.031
Mof_H 	H 	0.6738	0.7577	0.6201	-0.003
Mof_N 	N 	0.6891	0.8843	0.6386	-0.173
Mof_N 	N 	0.6872	0.7978	0.7043	-0.179
Mof_Cu	Cu	0.29305	0.35084	0.91518	0.77
Mof_Cu	Cu	0.35523	0.28776	0.92168	0.769
Mof_Cu	Cu	0.33647	0.34453	0.13891	0.765
Mof_I 	I 	0.3747	0.37184	0.00951	-0.58
Mof_I 	I 	0.44206	0.33315	0.83526	-0.437
Mof_I 	I 	0.23809	0.24386	0.15583	-0.479
Mof_I 	I 	0.24689	0.24037	0.86518	-0.564
Mof_C 	C 	0.32717	0.20643	0.03323	-0.031
Mof_H 	H 	0.28587	0.19303	0.02553	0.032
Mof_H 	H 	0.34387	0.24343	0.05683	0.002
Mof_C 	C 	0.33047	0.16103	0.07413	-0.067
Mof_H 	H 	0.35597	0.18053	0.11083	0.035
Mof_H 	H 	0.29177	0.13263	0.09053	0.041
Mof_C 	C 	0.41727	0.23203	0.98623	-0.085
Mof_H 	H 	0.43597	0.26623	0.01433	0.055
Mof_H 	H 	0.43957	0.24123	0.94623	0.058
Mof_C 	C 	0.41387	0.17703	0.01983	-0.049
Mof_H 	H 	0.43037	0.15973	0.99093	0.046
Mof_H 	H 	0.43797	0.18993	0.05873	0.044
Mof_C 	C 	0.33077	0.16293	0.93503	-0.087
Mof_H 	H 	0.35637	0.16843	0.89863	0.054
Mof_H 	H 	0.29247	0.15383	0.91813	0.057
Mof_C 	C 	0.32427	0.11203	0.97643	-0.026
Mof_H 	H 	0.28277	0.08483	0.98403	0.031
Mof_H 	H 	0.34047	0.09103	0.95343	-0.003
Mof_N 	N 	0.35577	0.21763	0.97193	-0.173
Mof_N 	N 	0.35387	0.13113	0.03763	-0.18
Mof_Cu	Cu	0.95971	0.68418	0.24852	0.77
Mof_Cu	Cu	0.02189	0.6211	0.25502	0.769
Mof_Cu	Cu	0.00313	0.67787	0.47225	0.765
Mof_I 	I 	0.04136	0.70518	0.34285	-0.579
Mof_I 	I 	0.10872	0.66649	0.1686	-0.438
Mof_I 	I 	0.90475	0.5772	0.48917	-0.479
Mof_I 	I 	0.91355	0.57371	0.19852	-0.564
Mof_C 	C 	0.99383	0.53977	0.36657	-0.031
Mof_H 	H 	0.95253	0.52637	0.35887	0.032
Mof_H 	H 	0.01053	0.57677	0.39017	0.002
Mof_C 	C 	0.99713	0.49437	0.40747	-0.066
Mof_H 	H 	0.02263	0.51387	0.44417	0.035
Mof_H 	H 	0.95843	0.46597	0.42387	0.041
Mof_C 	C 	0.08393	0.56537	0.31957	-0.083
Mof_H 	H 	0.10263	0.59957	0.34767	0.054
Mof_H 	H 	0.10623	0.57457	0.27957	0.057
Mof_C 	C 	0.08053	0.51037	0.35317	-0.052
Mof_H 	H 	0.09703	0.49307	0.32427	0.047
Mof_H 	H 	0.10463	0.52327	0.39207	0.045
Mof_C 	C 	0.99743	0.49627	0.26837	-0.086
Mof_H 	H 	0.02303	0.50177	0.23197	0.053
Mof_H 	H 	0.95913	0.48717	0.25147	0.057
Mof_C 	C 	0.99093	0.44537	0.30977	-0.024
Mof_H 	H 	0.94943	0.41817	0.31737	0.031
Mof_H 	H 	0.00713	0.42437	0.28677	-0.003
Mof_N 	N 	0.02243	0.55097	0.30527	-0.173
Mof_N 	N 	0.02053	0.46447	0.37097	-0.18
_end
