# CIF file generated by openbabel 3.1.0, see https://openbabel.org
data_I
_chemical_name_common 'OFEREX_clean'
_cell_length_a 10.3175
_cell_length_b 10.3175
_cell_length_c 14.29
_cell_angle_alpha 90
_cell_angle_beta 90
_cell_angle_gamma 90
_space_group_name_H-M_alt 'P 1'
_space_group_name_Hall 'P 1'
loop_
    _symmetry_equiv_pos_as_xyz
    x,y,z
loop_
    _atom_site_label
    _atom_site_type_symbol
    _atom_site_fract_x
    _atom_site_fract_y
    _atom_site_fract_z
    _atom_site_occupancy
    Eu1      Eu       0.13960    0.86040    0.12500    1.000
    Eu2      Eu       0.86040    0.13960    0.62500    1.000
    Eu3      Eu       0.13960    0.13960    0.37500    1.000
    Eu4      Eu       0.86040    0.86040    0.87500    1.000
    H1       H        0.94110    0.44790    0.86610    1.000
    H2       H        0.05890    0.55210    0.36610    1.000
    H3       H        0.55210    0.94110    0.11610    1.000
    H4       H        0.44790    0.05890    0.61610    1.000
    H5       H        0.05890    0.44790    0.13390    1.000
    H6       H        0.94110    0.55210    0.63390    1.000
    H7       H        0.44790    0.94110    0.88390    1.000
    H8       H        0.55210    0.05890    0.38390    1.000
    H9       H        0.00000    0.11520    0.00000    1.000
    H10      H        0.00000    0.88480    0.50000    1.000
    H11      H        0.88480    0.00000    0.25000    1.000
    H12      H        0.11520    0.00000    0.75000    1.000
    C1       C        0.96460    0.40140    0.92100    1.000
    C2       C        0.96360    0.26590    0.92220    1.000
    C3       C        0.92440    0.19520    0.83470    1.000
    C4       C        0.03540    0.59860    0.42100    1.000
    C5       C        0.03640    0.73410    0.42220    1.000
    C6       C        0.07560    0.80480    0.33470    1.000
    C7       C        0.59860    0.96460    0.17100    1.000
    C8       C        0.73410    0.96360    0.17220    1.000
    C9       C        0.80480    0.92440    0.08470    1.000
    C10      C        0.40140    0.03540    0.67100    1.000
    C11      C        0.26590    0.03640    0.67220    1.000
    C12      C        0.19520    0.07560    0.58470    1.000
    C13      C        0.03540    0.40140    0.07900    1.000
    C14      C        0.03640    0.26590    0.07780    1.000
    C15      C        0.07560    0.19520    0.16530    1.000
    C16      C        0.96460    0.59860    0.57900    1.000
    C17      C        0.96360    0.73410    0.57780    1.000
    C18      C        0.92440    0.80480    0.66530    1.000
    C19      C        0.40140    0.96460    0.82900    1.000
    C20      C        0.26590    0.96360    0.82780    1.000
    C21      C        0.19520    0.92440    0.91530    1.000
    C22      C        0.59860    0.03540    0.32900    1.000
    C23      C        0.73410    0.03640    0.32780    1.000
    C24      C        0.80480    0.07560    0.41530    1.000
    C25      C        0.00000    0.61940    0.00000    1.000
    C26      C        0.00000    0.46460    0.00000    1.000
    C27      C        0.00000    0.20730    0.00000    1.000
    C28      C        0.00000    0.38060    0.50000    1.000
    C29      C        0.00000    0.53540    0.50000    1.000
    C30      C        0.00000    0.79270    0.50000    1.000
    C31      C        0.38060    0.00000    0.25000    1.000
    C32      C        0.53540    0.00000    0.25000    1.000
    C33      C        0.79270    0.00000    0.25000    1.000
    C34      C        0.61940    0.00000    0.75000    1.000
    C35      C        0.46460    0.00000    0.75000    1.000
    C36      C        0.20730    0.00000    0.75000    1.000
    O1       O        0.06510    0.67100    0.06060    1.000
    O2       O        0.91130    0.25510    0.76050    1.000
    O3       O        0.90370    0.08090    0.83690    1.000
    O4       O        0.93490    0.32900    0.56060    1.000
    O5       O        0.08870    0.74490    0.26050    1.000
    O6       O        0.09630    0.91910    0.33690    1.000
    O7       O        0.32900    0.06510    0.31060    1.000
    O8       O        0.74490    0.91130    0.01050    1.000
    O9       O        0.91910    0.90370    0.08690    1.000
    O10      O        0.67100    0.93490    0.81060    1.000
    O11      O        0.25510    0.08870    0.51050    1.000
    O12      O        0.08090    0.09630    0.58690    1.000
    O13      O        0.93490    0.67100    0.93940    1.000
    O14      O        0.08870    0.25510    0.23950    1.000
    O15      O        0.09630    0.08090    0.16310    1.000
    O16      O        0.06510    0.32900    0.43940    1.000
    O17      O        0.91130    0.74490    0.73950    1.000
    O18      O        0.90370    0.91910    0.66310    1.000
    O19      O        0.67100    0.06510    0.68940    1.000
    O20      O        0.25510    0.91130    0.98950    1.000
    O21      O        0.08090    0.90370    0.91310    1.000
    O22      O        0.32900    0.93490    0.18940    1.000
    O23      O        0.74490    0.08870    0.48950    1.000
    O24      O        0.91910    0.09630    0.41310    1.000
