data_functionalizedCrystal
_audit_creation_method	'EQeq! by Chris Wilmer'
_symmetry_space_group_name_H-M	'P1'
_symmetry_Int_Tables_number	1
_symmetry_cell_setting	triclinic
loop_
_symmetry_equiv_pos_as_xyz
  x,y,z
_cell_length_a	17.9946
_cell_length_b	20.49
_cell_length_c	27.772
_cell_angle_alpha	82.113
_cell_angle_beta	72.543
_cell_angle_gamma	84.884
loop_
_atom_site_label
_atom_site_type_symbol
_atom_site_fract_x
_atom_site_fract_y
_atom_site_fract_z
_atom_site_charge
Mof_Zn	Zn	0.07493	0.73242	0.76985	1.213
Mof_Zn	Zn	0.6721	0.07089	0.53161	1.208
Mof_Zn	Zn	0.61028	0.25856	0.27414	1.214
Mof_Zn	Zn	0.05452	0.21076	0.77753	1.207
Mof_Zn	Zn	0.37466	0.22275	0.93025	1.204
Mof_Zn	Zn	0.20231	0.59918	0.0245	1.211
Mof_Zn	Zn	0.91243	0.72083	0.4289	1.186
Mof_Zn	Zn	0.58228	0.73804	0.2796	1.21
Mof_Zn	Zn	0.92507	0.26758	0.23015	1.213
Mof_Zn	Zn	0.3279	0.92911	0.46839	1.208
Mof_Zn	Zn	0.38972	0.74144	0.72586	1.215
Mof_Zn	Zn	0.94548	0.78924	0.22247	1.208
Mof_Zn	Zn	0.62534	0.77725	0.06975	1.205
Mof_Zn	Zn	0.79769	0.40082	0.9755	1.212
Mof_Zn	Zn	0.08757	0.27917	0.5711	1.187
Mof_Zn	Zn	0.41772	0.26196	0.7204	1.211
Mof_H 	H 	0.8955	0.4158	0.1199	0.153
Mof_H 	H 	0.6969	0.5098	0.1903	0.151
Mof_H 	H 	0.8886	0.6119	0.1234	0.148
Mof_H 	H 	0.7866	0.3446	0.1064	0.044
Mof_H 	H 	0.7131	0.2556	0.1605	0.022
Mof_H 	H 	0.6959	0.3952	0.2442	-0.011
Mof_H 	H 	0.9922	0.4509	0.0304	0.03
Mof_H 	H 	0.1292	0.4912	0.9888	0.046
Mof_H 	H 	0.0217	0.6002	0.0957	-0.021
Mof_H 	H 	0.7053	0.7779	0.1752	0.025
Mof_H 	H 	0.799	0.7073	0.1234	0.038
Mof_H 	H 	0.6565	0.5986	0.2372	-0.011
Mof_H 	H 	0.1422	0.6203	0.2223	0.155
Mof_H 	H 	0.2141	0.6744	0.3337	0.136
Mof_H 	H 	0.3643	0.6732	0.192	0.152
Mof_H 	H 	0.0817	0.7212	0.3558	-0.012
Mof_H 	H 	0.9282	0.592	0.3691	0.022
Mof_H 	H 	0.0458	0.5636	0.2961	0.035
Mof_H 	H 	0.1661	0.6342	0.1363	-0.002
Mof_H 	H 	0.3704	0.603	0.0399	0.027
Mof_H 	H 	0.3938	0.6213	0.1195	0.042
Mof_H 	H 	0.4599	0.6908	0.2277	-0.001
Mof_H 	H 	0.2957	0.7313	0.3544	0.023
Mof_H 	H 	0.4214	0.7578	0.361	0.041
Mof_H 	H 	0.7613	0.7867	0.8661	0.138
Mof_H 	H 	0.5526	0.7402	0.8594	0.134
Mof_H 	H 	0.7406	0.7329	0.7371	0.132
Mof_H 	H 	0.8965	0.7282	0.8236	-0.021
Mof_H 	H 	0.8519	0.782	0.6905	0.031
Mof_H 	H 	0.9935	0.7867	0.6788	0.018
Mof_H 	H 	0.4946	0.7735	0.7865	-0.018
Mof_H 	H 	0.6563	0.641	0.7273	0.025
Mof_H 	H 	0.5449	0.6359	0.6946	0.036
Mof_H 	H 	0.6972	0.7494	0.956	-0.02
Mof_H 	H 	0.517	0.8434	0.9114	0.031
Mof_H 	H 	0.4912	0.8284	0.0081	0.015
Mof_H 	H 	0.1662	0.9832	0.687	0.145
Mof_H 	H 	0.3596	0.0847	0.617	0.138
Mof_H 	H 	0.3648	0.8889	0.6167	0.151
Mof_H 	H 	0.1601	0.8677	0.7408	-0.008
Mof_H 	H 	0.2627	0.8163	0.6037	0.047
Mof_H 	H 	0.1808	0.7287	0.6558	0.02
Mof_H 	H 	0.1331	0.0723	0.7368	-0.011
Mof_H 	H 	0.17	0.25	0.6689	0.021
Mof_H 	H 	0.2648	0.1779	0.6181	0.033
Mof_H 	H 	0.4951	0.0653	0.6038	-0.005
Mof_H 	H 	0.4752	0.9046	0.5461	0.029
Mof_H 	H 	0.61	0.9359	0.5131	0.029
Mof_H 	H 	0.6795	0.1595	0.8407	0.137
Mof_H 	H 	0.8295	0.1453	0.7019	0.148
Mof_H 	H 	0.6044	0.103	0.7317	0.153
Mof_H 	H 	0.499	0.0538	0.8083	0.037
Mof_H 	H 	0.3826	0.094	0.8719	0.024
Mof_H 	H 	0.5511	0.2063	0.8655	-0.012
Mof_H 	H 	0.6297	0.1009	0.6475	-0.004
Mof_H 	H 	0.8551	0.1051	0.6294	0.039
Mof_H 	H 	0.8316	0.0677	0.5536	0.021
Mof_H 	H 	0.924	0.1657	0.7315	-0.003
Mof_H 	H 	0.8977	0.2303	0.8627	0.034
Mof_H 	H 	0.7698	0.2006	0.8644	0.03
Mof_H 	H 	0.7236	0.8967	0.212	0.025
Mof_H 	H 	0.7907	0.9918	0.1799	0.084
Mof_H 	H 	0.7382	0.0911	0.2051	0.027
Mof_H 	H 	0.5435	0.0055	0.2934	0.036
Mof_H 	H 	0.5822	0.5225	0.4063	0.037
Mof_H 	H 	0.6462	0.4663	0.4603	0.067
Mof_H 	H 	0.7381	0.5147	0.4824	0.032
Mof_H 	H 	0.7039	0.6819	0.3963	0.047
Mof_H 	H 	0.4233	0.6045	0.859	0.012
Mof_H 	H 	0.4996	0.5498	0.7957	0.083
Mof_H 	H 	0.5066	0.4344	0.8061	0.017
Mof_H 	H 	0.3395	0.4376	0.9409	0.033
Mof_H 	H 	0.0398	0.8281	0.0381	0.043
Mof_H 	H 	0.9772	0.9052	0.9911	0.064
Mof_H 	H 	0.9855	0.894	0.9084	0.039
Mof_H 	H 	0.1125	0.7234	0.9186	0.047
Mof_H 	H 	0.9139	0.103	0.3878	0.042
Mof_H 	H 	0.0146	0.0636	0.3237	0.06
Mof_H 	H 	0.0351	0.9496	0.3244	0.035
Mof_H 	H 	0.8489	0.9166	0.4449	0.043
Mof_H 	H 	0.5265	0.3052	0.5568	0.025
Mof_H 	H 	0.4978	0.4034	0.511	0.078
Mof_H 	H 	0.528	0.4104	0.4225	0.023
Mof_H 	H 	0.6077	0.2236	0.4285	0.031
Mof_H 	H 	0.1895	0.3713	0.7126	0.024
Mof_H 	H 	0.2563	0.4673	0.6803	0.083
Mof_H 	H 	0.2026	0.5663	0.7051	0.027
Mof_H 	H 	0.0096	0.4795	0.7917	0.036
Mof_H 	H 	0.1782	0.1658	0.892	0.044
Mof_H 	H 	0.0608	0.0028	0.9133	0.035
Mof_H 	H 	0.1137	0.9571	0.9751	0.068
Mof_H 	H 	0.2045	0.0146	0.9932	0.04
Mof_H 	H 	0.1045	0.5842	0.8801	0.153
Mof_H 	H 	0.3031	0.4902	0.8097	0.151
Mof_H 	H 	0.1114	0.3881	0.8766	0.148
Mof_H 	H 	0.2134	0.6554	0.8936	0.044
Mof_H 	H 	0.2869	0.7444	0.8395	0.022
Mof_H 	H 	0.3041	0.6048	0.7558	-0.011
Mof_H 	H 	0.0078	0.5491	0.9696	0.03
Mof_H 	H 	0.8708	0.5088	0.0112	0.046
Mof_H 	H 	0.9783	0.3998	0.9043	-0.021
Mof_H 	H 	0.2947	0.2221	0.8248	0.025
Mof_H 	H 	0.201	0.2927	0.8766	0.038
Mof_H 	H 	0.3435	0.4014	0.7628	-0.011
Mof_H 	H 	0.8578	0.3797	0.7777	0.155
Mof_H 	H 	0.7859	0.3256	0.6663	0.136
Mof_H 	H 	0.6357	0.3268	0.808	0.152
Mof_H 	H 	0.9183	0.2788	0.6442	-0.012
Mof_H 	H 	0.0718	0.408	0.6309	0.022
Mof_H 	H 	0.9542	0.4364	0.7039	0.035
Mof_H 	H 	0.8339	0.3658	0.8637	-0.002
Mof_H 	H 	0.6296	0.397	0.9601	0.027
Mof_H 	H 	0.6062	0.3787	0.8805	0.042
Mof_H 	H 	0.5401	0.3092	0.7723	-0.001
Mof_H 	H 	0.7043	0.2687	0.6456	0.023
Mof_H 	H 	0.5786	0.2422	0.639	0.041
Mof_H 	H 	0.2387	0.2133	0.1339	0.138
Mof_H 	H 	0.4474	0.2598	0.1406	0.134
Mof_H 	H 	0.2594	0.2671	0.2629	0.132
Mof_H 	H 	0.1035	0.2718	0.1764	-0.021
Mof_H 	H 	0.1481	0.218	0.3095	0.031
Mof_H 	H 	0.0065	0.2133	0.3212	0.018
Mof_H 	H 	0.5054	0.2265	0.2135	-0.018
Mof_H 	H 	0.3437	0.359	0.2727	0.025
Mof_H 	H 	0.4551	0.3641	0.3054	0.036
Mof_H 	H 	0.3028	0.2506	0.044	-0.02
Mof_H 	H 	0.483	0.1566	0.0886	0.031
Mof_H 	H 	0.5088	0.1716	0.9919	0.015
Mof_H 	H 	0.8338	0.0168	0.313	0.145
Mof_H 	H 	0.6404	0.9153	0.383	0.138
Mof_H 	H 	0.6352	0.1111	0.3833	0.151
Mof_H 	H 	0.8399	0.1323	0.2592	-0.008
Mof_H 	H 	0.7373	0.1837	0.3963	0.047
Mof_H 	H 	0.8192	0.2713	0.3442	0.02
Mof_H 	H 	0.8669	0.9277	0.2632	-0.011
Mof_H 	H 	0.83	0.75	0.3311	0.021
Mof_H 	H 	0.7352	0.8221	0.3819	0.033
Mof_H 	H 	0.5049	0.9347	0.3962	-0.005
Mof_H 	H 	0.5248	0.0954	0.4539	0.029
Mof_H 	H 	0.39	0.0641	0.4869	0.029
Mof_H 	H 	0.3205	0.8405	0.1593	0.137
Mof_H 	H 	0.1705	0.8547	0.2981	0.148
Mof_H 	H 	0.3956	0.897	0.2683	0.153
Mof_H 	H 	0.501	0.9462	0.1917	0.037
Mof_H 	H 	0.6174	0.906	0.1281	0.024
Mof_H 	H 	0.4489	0.7937	0.1345	-0.012
Mof_H 	H 	0.3703	0.8991	0.3525	-0.004
Mof_H 	H 	0.1449	0.8949	0.3706	0.039
Mof_H 	H 	0.1684	0.9323	0.4464	0.021
Mof_H 	H 	0.076	0.8343	0.2685	-0.003
Mof_H 	H 	0.1023	0.7697	0.1373	0.034
Mof_H 	H 	0.2302	0.7994	0.1356	0.03
Mof_H 	H 	0.2764	0.1033	0.788	0.025
Mof_H 	H 	0.2093	0.0082	0.8201	0.084
Mof_H 	H 	0.2618	0.9089	0.7949	0.027
Mof_H 	H 	0.4565	0.9945	0.7066	0.036
Mof_H 	H 	0.4178	0.4775	0.5937	0.037
Mof_H 	H 	0.3538	0.5337	0.5397	0.067
Mof_H 	H 	0.2619	0.4853	0.5176	0.032
Mof_H 	H 	0.2961	0.3181	0.6037	0.047
Mof_H 	H 	0.5767	0.3955	0.141	0.012
Mof_H 	H 	0.5004	0.4502	0.2043	0.083
Mof_H 	H 	0.4934	0.5656	0.1939	0.017
Mof_H 	H 	0.6605	0.5624	0.0591	0.033
Mof_H 	H 	0.9602	0.1719	0.9619	0.043
Mof_H 	H 	0.0228	0.0948	0.0089	0.064
Mof_H 	H 	0.0145	0.106	0.0916	0.039
Mof_H 	H 	0.8875	0.2766	0.0814	0.047
Mof_H 	H 	0.0861	0.897	0.6122	0.042
Mof_H 	H 	0.9854	0.9364	0.6763	0.06
Mof_H 	H 	0.9649	0.0504	0.6756	0.035
Mof_H 	H 	0.1511	0.0834	0.5551	0.043
Mof_H 	H 	0.4735	0.6948	0.4432	0.025
Mof_H 	H 	0.5022	0.5966	0.489	0.078
Mof_H 	H 	0.472	0.5896	0.5775	0.023
Mof_H 	H 	0.3923	0.7764	0.5715	0.031
Mof_H 	H 	0.8105	0.6287	0.2874	0.024
Mof_H 	H 	0.7437	0.5327	0.3197	0.083
Mof_H 	H 	0.7974	0.4337	0.2949	0.027
Mof_H 	H 	0.9904	0.5205	0.2083	0.036
Mof_H 	H 	0.8218	0.8342	0.108	0.044
Mof_H 	H 	0.9392	0.9972	0.0867	0.035
Mof_H 	H 	0.8863	0.0429	0.0249	0.068
Mof_H 	H 	0.7955	0.9854	0.0068	0.04
Mof_C 	C 	0.8675	0.4546	0.1297	-0.309
Mof_C 	C 	0.7904	0.454	0.1566	0.262
Mof_C 	C 	0.7493	0.5109	0.1718	-0.311
Mof_C 	C 	0.7857	0.5695	0.1597	0.253
Mof_C 	C 	0.8639	0.5722	0.1319	-0.304
Mof_C 	C 	0.9032	0.5146	0.1174	0.249
Mof_C 	C 	0.7597	0.344	0.1407	0.003
Mof_C 	C 	0.719	0.2956	0.1709	0.01
Mof_C 	C 	0.7097	0.3711	0.2165	0.117
Mof_C 	C 	0.0193	0.4812	0.0416	0.014
Mof_C 	C 	0.0921	0.5017	0.02	-0.046
Mof_C 	C 	0.0356	0.5602	0.0824	0.158
Mof_C 	C 	0.7077	0.7321	0.1813	-0.013
Mof_C 	C 	0.7595	0.6942	0.1527	0.009
Mof_C 	C 	0.6804	0.6346	0.2158	0.115
Mof_C 	C 	0.1811	0.6354	0.233	-0.296
Mof_C 	C 	0.1675	0.65	0.2821	0.242
Mof_C 	C 	0.2247	0.6685	0.2996	-0.292
Mof_C 	C 	0.2986	0.6786	0.2664	0.233
Mof_C 	C 	0.3152	0.6665	0.215	-0.289
Mof_C 	C 	0.2564	0.6445	0.2003	0.24
Mof_C 	C 	0.0572	0.6857	0.3508	0.089
Mof_C 	C 	0.9736	0.6151	0.3573	0.008
Mof_C 	C 	0.0394	0.5973	0.3165	0.003
Mof_C 	C 	0.2198	0.6278	0.1227	0.103
Mof_C 	C 	0.3319	0.6107	0.0698	0.009
Mof_C 	C 	0.3455	0.6214	0.1138	-0.004
Mof_C 	C 	0.4347	0.7044	0.2594	0.088
Mof_C 	C 	0.3436	0.7263	0.3299	0.027
Mof_C 	C 	0.413	0.7418	0.3334	-0.006
Mof_C 	C 	0.7307	0.7733	0.848	-0.273
Mof_C 	C 	0.6515	0.7655	0.87107	0.226
Mof_C 	C 	0.6056	0.7454	0.844	-0.277
Mof_C 	C 	0.639	0.7332	0.79379	0.226
Mof_C 	C 	0.7182	0.741	0.77072	-0.272
Mof_C 	C 	0.764	0.7611	0.7978	0.224
Mof_C 	C 	0.9031	0.7482	0.7906	0.138
Mof_C 	C 	0.8775	0.7727	0.7153	-0.01
Mof_C 	C 	0.9557	0.7741	0.7091	-0.007
Mof_C 	C 	0.5206	0.7405	0.7669	0.105
Mof_C 	C 	0.6104	0.6673	0.7349	0.019
Mof_C 	C 	0.5487	0.6649	0.7167	-0.007
Mof_C 	C 	0.6514	0.7776	0.957	0.11
Mof_C 	C 	0.5509	0.8261	0.9315	0.015
Mof_C 	C 	0.5398	0.819	0.9833	0.007
Mof_C 	C 	0.2188	0.9843	0.6689	-0.292
Mof_C 	C 	0.2553	0.0427	0.6566	0.233
Mof_C 	C 	0.3349	0.045	0.627	-0.277
Mof_C 	C 	0.3744	0.9859	0.6136	0.24
Mof_C 	C 	0.3376	0.928	0.6265	-0.307
Mof_C 	C 	0.2609	0.9272	0.6539	0.247
Mof_C 	C 	0.1749	0.8436	0.7131	0.113
Mof_C 	C 	0.232	0.8164	0.6372	0.003
Mof_C 	C 	0.1869	0.7684	0.6666	0.006
Mof_C 	C 	0.1537	0.1079	0.7135	0.113
Mof_C 	C 	0.1744	0.2044	0.6764	-0.007
Mof_C 	C 	0.2265	0.1652	0.6481	0.017
Mof_C 	C 	0.5074	0.0293	0.5853	0.115
Mof_C 	C 	0.4958	0.9408	0.5535	0.018
Mof_C 	C 	0.57	0.958	0.5357	-0.005
Mof_C 	C 	0.6303	0.1311	0.7915	0.238
Mof_C 	C 	0.6895	0.1497	0.8075	-0.285
Mof_C 	C 	0.7644	0.154	0.7742	0.236
Mof_C 	C 	0.7798	0.1407	0.7246	-0.288
Mof_C 	C 	0.7194	0.12	0.709	0.239
Mof_C 	C 	0.6446	0.1159	0.7423	-0.291
Mof_C 	C 	0.495	0.0891	0.8269	0.002
Mof_C 	C 	0.4313	0.112	0.8623	0.005
Mof_C 	C 	0.5229	0.1743	0.8591	0.1
Mof_C 	C 	0.6835	0.0966	0.6335	0.124
Mof_C 	C 	0.8073	0.0985	0.6248	-0.002
Mof_C 	C 	0.7931	0.08	0.5821	0.01
Mof_C 	C 	0.9016	0.1781	0.764	0.094
Mof_C 	C 	0.8864	0.2134	0.8365	0.014
Mof_C 	C 	0.8156	0.1975	0.8379	0.011
Mof_C 	C 	0.5785	0.8812	0.2752	0.345
Mof_C 	C 	0.6238	0.9421	0.2548	-0.118
Mof_C 	C 	0.7008	0.9374	0.2213	0.05
Mof_C 	C 	0.7412	0.9942	0.2029	-0.125
Mof_C 	C 	0.7096	0.0537	0.218	0.06
Mof_C 	C 	0.635	0.0597	0.2526	-0.126
Mof_C 	C 	0.6019	0.1234	0.2719	0.377
Mof_C 	C 	0.5931	0.0027	0.2705	0.058
Mof_C 	C 	0.6014	0.6426	0.3543	0.311
Mof_C 	C 	0.6386	0.6081	0.3923	-0.098
Mof_C 	C 	0.6204	0.543	0.4142	0.02
Mof_C 	C 	0.6583	0.5095	0.447	-0.101
Mof_C 	C 	0.7129	0.5384	0.4602	0.032
Mof_C 	C 	0.7315	0.6023	0.4413	-0.099
Mof_C 	C 	0.6931	0.638	0.408	0.029
Mof_C 	C 	0.7954	0.6353	0.4519	0.324
Mof_C 	C 	0.3236	0.5612	0.9471	0.349
Mof_C 	C 	0.3744	0.5272	0.9048	-0.138
Mof_C 	C 	0.4228	0.5588	0.8623	0.081
Mof_C 	C 	0.4693	0.5267	0.8252	-0.145
Mof_C 	C 	0.4724	0.4573	0.8312	0.062
Mof_C 	C 	0.4261	0.4238	0.873	-0.13
Mof_C 	C 	0.373	0.4595	0.9121	0.062
Mof_C 	C 	0.434	0.3507	0.8803	0.336
Mof_C 	C 	0.121	0.715	0.0121	0.338
Mof_C 	C 	0.0817	0.7682	0.9822	-0.085
Mof_C 	C 	0.042	0.8227	0.005	0.01
Mof_C 	C 	0.0053	0.869	0.9763	-0.08
Mof_C 	C 	0.01	0.8623	0.9266	0.023
Mof_C 	C 	0.0503	0.8094	0.9042	-0.092
Mof_C 	C 	0.0862	0.7604	0.9331	0.027
Mof_C 	C 	0.056	0.8	0.8508	0.326
Mof_C 	C 	0.8012	0.0475	0.4602	0.309
Mof_C 	C 	0.8712	0.0137	0.4205	-0.071
Mof_C 	C 	0.9219	0.0579	0.3855	0.006
Mof_C 	C 	0.9822	0.0351	0.3485	-0.083
Mof_C 	C 	0.9937	0.9669	0.3492	0.018
Mof_C 	C 	0.9451	0.9238	0.3857	-0.113
Mof_C 	C 	0.8825	0.9454	0.4213	0.034
Mof_C 	C 	0.9634	0.8529	0.384	0.347
Mof_C 	C 	0.5931	0.1927	0.525	0.344
Mof_C 	C 	0.5722	0.2552	0.497	-0.133
Mof_C 	C 	0.5382	0.3082	0.5216	0.059
Mof_C 	C 	0.5207	0.3671	0.4942	-0.125
Mof_C 	C 	0.5381	0.3711	0.4411	0.06
Mof_C 	C 	0.57	0.3171	0.4166	-0.145
Mof_C 	C 	0.5862	0.2603	0.4451	0.075
Mof_C 	C 	0.5864	0.3182	0.3617	0.37
Mof_C 	C 	0.0463	0.3535	0.7749	0.373
Mof_C 	C 	0.0913	0.4148	0.754	-0.126
Mof_C 	C 	0.1659	0.4117	0.7219	0.057
Mof_C 	C 	0.2065	0.4696	0.7031	-0.126
Mof_C 	C 	0.1747	0.5284	0.7174	0.059
Mof_C 	C 	0.1013	0.5321	0.7501	-0.118
Mof_C 	C 	0.0593	0.4763	0.769	0.056
Mof_C 	C 	0.0679	0.5988	0.7687	0.362
Mof_C 	C 	0.2611	0.1338	0.9594	0.335
Mof_C 	C 	0.1991	0.0976	0.9462	-0.093
Mof_C 	C 	0.1648	0.1241	0.9088	0.037
Mof_C 	C 	0.1116	0.0913	0.8957	-0.109
Mof_C 	C 	0.0955	0.0268	0.9219	0.023
Mof_C 	C 	0.1271	0.9987	0.9582	-0.096
Mof_C 	C 	0.1801	0.0341	0.9692	0.019
Mof_C 	C 	0.0784	0.1169	0.8535	0.341
Mof_C 	C 	0.1325	0.5454	0.8703	-0.309
Mof_C 	C 	0.2096	0.546	0.8434	0.262
Mof_C 	C 	0.2507	0.4891	0.8282	-0.311
Mof_C 	C 	0.2143	0.4305	0.8403	0.253
Mof_C 	C 	0.1361	0.4278	0.8681	-0.304
Mof_C 	C 	0.0968	0.4854	0.8826	0.249
Mof_C 	C 	0.2403	0.656	0.8593	0.003
Mof_C 	C 	0.281	0.7044	0.8291	0.01
Mof_C 	C 	0.2903	0.6289	0.7835	0.117
Mof_C 	C 	0.9807	0.5188	0.9584	0.014
Mof_C 	C 	0.9079	0.4983	0.98	-0.046
Mof_C 	C 	0.9644	0.4398	0.9176	0.158
Mof_C 	C 	0.2923	0.2679	0.8187	-0.013
Mof_C 	C 	0.2405	0.3058	0.8473	0.009
Mof_C 	C 	0.3196	0.3654	0.7842	0.115
Mof_C 	C 	0.8189	0.3646	0.767	-0.296
Mof_C 	C 	0.8325	0.35	0.7179	0.242
Mof_C 	C 	0.7753	0.3315	0.7004	-0.292
Mof_C 	C 	0.7014	0.3214	0.7336	0.233
Mof_C 	C 	0.6848	0.3335	0.785	-0.289
Mof_C 	C 	0.7436	0.3555	0.7997	0.24
Mof_C 	C 	0.9428	0.3143	0.6492	0.089
Mof_C 	C 	0.0264	0.3849	0.6427	0.008
Mof_C 	C 	0.9606	0.4027	0.6835	0.003
Mof_C 	C 	0.7802	0.3722	0.8773	0.103
Mof_C 	C 	0.6681	0.3893	0.9302	0.009
Mof_C 	C 	0.6545	0.3786	0.8862	-0.004
Mof_C 	C 	0.5653	0.2956	0.7406	0.088
Mof_C 	C 	0.6564	0.2737	0.6701	0.027
Mof_C 	C 	0.587	0.2582	0.6666	-0.006
Mof_C 	C 	0.2693	0.2267	0.152	-0.273
Mof_C 	C 	0.3485	0.2345	0.12893	0.226
Mof_C 	C 	0.3944	0.2546	0.156	-0.277
Mof_C 	C 	0.361	0.2668	0.20621	0.226
Mof_C 	C 	0.2818	0.259	0.22928	-0.272
Mof_C 	C 	0.236	0.2389	0.2022	0.224
Mof_C 	C 	0.0969	0.2518	0.2094	0.138
Mof_C 	C 	0.1225	0.2273	0.2847	-0.01
Mof_C 	C 	0.0443	0.2259	0.2909	-0.007
Mof_C 	C 	0.4794	0.2595	0.2331	0.105
Mof_C 	C 	0.3896	0.3327	0.2651	0.019
Mof_C 	C 	0.4513	0.3351	0.2833	-0.007
Mof_C 	C 	0.3486	0.2224	0.043	0.11
Mof_C 	C 	0.4491	0.1739	0.0685	0.015
Mof_C 	C 	0.4602	0.181	0.0167	0.007
Mof_C 	C 	0.7812	0.0157	0.3311	-0.292
Mof_C 	C 	0.7447	0.9573	0.3434	0.233
Mof_C 	C 	0.6651	0.955	0.373	-0.277
Mof_C 	C 	0.6256	0.0141	0.3864	0.24
Mof_C 	C 	0.6624	0.072	0.3735	-0.307
Mof_C 	C 	0.7391	0.0728	0.3461	0.247
Mof_C 	C 	0.8251	0.1564	0.2869	0.113
Mof_C 	C 	0.768	0.1836	0.3628	0.003
Mof_C 	C 	0.8131	0.2316	0.3334	0.006
Mof_C 	C 	0.8463	0.8921	0.2865	0.113
Mof_C 	C 	0.8256	0.7956	0.3236	-0.007
Mof_C 	C 	0.7735	0.8348	0.3519	0.017
Mof_C 	C 	0.4926	0.9707	0.4147	0.115
Mof_C 	C 	0.5042	0.0592	0.4465	0.018
Mof_C 	C 	0.43	0.042	0.4643	-0.005
Mof_C 	C 	0.3697	0.8689	0.2085	0.238
Mof_C 	C 	0.3105	0.8503	0.1925	-0.285
Mof_C 	C 	0.2356	0.846	0.2258	0.236
Mof_C 	C 	0.2202	0.8593	0.2754	-0.288
Mof_C 	C 	0.2806	0.88	0.291	0.239
Mof_C 	C 	0.3554	0.8841	0.2577	-0.291
Mof_C 	C 	0.505	0.9109	0.1731	0.002
Mof_C 	C 	0.5687	0.888	0.1377	0.005
Mof_C 	C 	0.4771	0.8257	0.1409	0.1
Mof_C 	C 	0.3165	0.9034	0.3665	0.124
Mof_C 	C 	0.1927	0.9015	0.3752	-0.002
Mof_C 	C 	0.2069	0.92	0.4179	0.01
Mof_C 	C 	0.0984	0.8219	0.236	0.094
Mof_C 	C 	0.1136	0.7866	0.1635	0.014
Mof_C 	C 	0.1844	0.8025	0.1621	0.011
Mof_C 	C 	0.4215	0.1188	0.7248	0.345
Mof_C 	C 	0.3762	0.0579	0.7452	-0.118
Mof_C 	C 	0.2992	0.0626	0.7787	0.05
Mof_C 	C 	0.2588	0.0058	0.7971	-0.125
Mof_C 	C 	0.2904	0.9463	0.782	0.06
Mof_C 	C 	0.365	0.9403	0.7474	-0.126
Mof_C 	C 	0.3981	0.8766	0.7281	0.377
Mof_C 	C 	0.4069	0.9973	0.7295	0.058
Mof_C 	C 	0.3986	0.3574	0.6457	0.311
Mof_C 	C 	0.3614	0.3919	0.6077	-0.098
Mof_C 	C 	0.3796	0.457	0.5858	0.02
Mof_C 	C 	0.3417	0.4905	0.553	-0.101
Mof_C 	C 	0.2871	0.4616	0.5398	0.032
Mof_C 	C 	0.2685	0.3977	0.5587	-0.099
Mof_C 	C 	0.3069	0.362	0.592	0.029
Mof_C 	C 	0.2046	0.3647	0.5481	0.324
Mof_C 	C 	0.6764	0.4388	0.0529	0.349
Mof_C 	C 	0.6256	0.4728	0.0952	-0.138
Mof_C 	C 	0.5772	0.4412	0.1377	0.081
Mof_C 	C 	0.5307	0.4733	0.1748	-0.145
Mof_C 	C 	0.5276	0.5427	0.1688	0.062
Mof_C 	C 	0.5739	0.5762	0.127	-0.13
Mof_C 	C 	0.627	0.5405	0.0879	0.062
Mof_C 	C 	0.566	0.6493	0.1197	0.336
Mof_C 	C 	0.879	0.285	0.9879	0.338
Mof_C 	C 	0.9183	0.2318	0.0178	-0.085
Mof_C 	C 	0.958	0.1773	0.995	0.01
Mof_C 	C 	0.9947	0.131	0.0237	-0.08
Mof_C 	C 	0.99	0.1377	0.0734	0.023
Mof_C 	C 	0.9497	0.1906	0.0958	-0.092
Mof_C 	C 	0.9138	0.2396	0.0669	0.027
Mof_C 	C 	0.944	0.2	0.1492	0.326
Mof_C 	C 	0.1988	0.9525	0.5398	0.309
Mof_C 	C 	0.1288	0.9863	0.5795	-0.071
Mof_C 	C 	0.0781	0.9421	0.6145	0.006
Mof_C 	C 	0.0178	0.9649	0.6515	-0.083
Mof_C 	C 	0.0063	0.0331	0.6508	0.018
Mof_C 	C 	0.0549	0.0762	0.6143	-0.113
Mof_C 	C 	0.1175	0.0546	0.5787	0.034
Mof_C 	C 	0.0366	0.1471	0.616	0.347
Mof_C 	C 	0.4069	0.8073	0.475	0.344
Mof_C 	C 	0.4278	0.7448	0.503	-0.133
Mof_C 	C 	0.4618	0.6918	0.4784	0.059
Mof_C 	C 	0.4793	0.6329	0.5058	-0.125
Mof_C 	C 	0.4619	0.6289	0.5589	0.06
Mof_C 	C 	0.43	0.6829	0.5834	-0.145
Mof_C 	C 	0.4138	0.7397	0.5549	0.075
Mof_C 	C 	0.4136	0.6818	0.6383	0.37
Mof_C 	C 	0.9537	0.6465	0.2251	0.373
Mof_C 	C 	0.9087	0.5852	0.246	-0.126
Mof_C 	C 	0.8341	0.5883	0.2781	0.057
Mof_C 	C 	0.7935	0.5304	0.2969	-0.126
Mof_C 	C 	0.8253	0.4716	0.2826	0.059
Mof_C 	C 	0.8987	0.4679	0.2499	-0.118
Mof_C 	C 	0.9407	0.5237	0.231	0.056
Mof_C 	C 	0.9321	0.4012	0.2313	0.362
Mof_C 	C 	0.7389	0.8662	0.0406	0.335
Mof_C 	C 	0.8009	0.9024	0.0538	-0.093
Mof_C 	C 	0.8352	0.8759	0.0912	0.037
Mof_C 	C 	0.8884	0.9087	0.1043	-0.109
Mof_C 	C 	0.9045	0.9732	0.0781	0.023
Mof_C 	C 	0.8729	0.0013	0.0418	-0.096
Mof_C 	C 	0.8199	0.9659	0.0308	0.019
Mof_C 	C 	0.9216	0.8831	0.1465	0.341
Mof_N 	N 	0.6566	0.6964	0.22183	-0.267
Mof_N 	N 	0.7434	0.6293	0.1753	-0.162
Mof_N 	N 	0.7536	0.3933	0.17114	-0.17
Mof_N 	N 	0.6874	0.3114	0.2186	-0.272
Mof_N 	N 	0.986	0.5169	0.0888	-0.169
Mof_N 	N 	0.1049	0.5459	0.0568	-0.258
Mof_N 	N 	0.2534	0.6132	0.0761	-0.27
Mof_N 	N 	0.2716	0.6325	0.14905	-0.158
Mof_N 	N 	0.9848	0.6704	0.377	-0.283
Mof_N 	N 	0.0908	0.6438	0.316	-0.16
Mof_N 	N 	0.4683	0.73	0.2895	-0.256
Mof_N 	N 	0.3553	0.702	0.2845	-0.156
Mof_N 	N 	0.9718	0.7583	0.7582	-0.268
Mof_N 	N 	0.8452	0.7683	0.773	-0.162
Mof_N 	N 	0.5927	0.7147	0.7658	-0.164
Mof_N 	N 	0.4918	0.7128	0.7365	-0.266
Mof_N 	N 	0.6074	0.7997	0.9968	-0.247
Mof_N 	N 	0.6233	0.7974	0.9147	-0.159
Mof_N 	N 	0.1516	0.7853	0.7142	-0.271
Mof_N 	N 	0.2223	0.8654	0.66788	-0.163
Mof_N 	N 	0.2135	0.1028	0.67145	-0.162
Mof_N 	N 	0.128	0.1694	0.71776	-0.265
Mof_N 	N 	0.4562	0.9866	0.58472	-0.162
Mof_N 	N 	0.5774	0.0141	0.5565	-0.257
Mof_N 	N 	0.7159	0.0826	0.5876	-0.273
Mof_N 	N 	0.7333	0.1045	0.65919	-0.165
Mof_N 	N 	0.8248	0.1753	0.7912	-0.154
Mof_N 	N 	0.9391	0.202	0.79249	-0.259
Mof_N 	N 	0.5527	0.1313	0.8251	-0.161
Mof_N 	N 	0.448	0.1655	0.8823	-0.269
Mof_N 	N 	0.3434	0.3036	0.77817	-0.267
Mof_N 	N 	0.2566	0.3707	0.8247	-0.162
Mof_N 	N 	0.2464	0.6067	0.82886	-0.17
Mof_N 	N 	0.3126	0.6886	0.7814	-0.272
Mof_N 	N 	0.014	0.4831	0.9112	-0.169
Mof_N 	N 	0.8951	0.4541	0.9432	-0.258
Mof_N 	N 	0.7466	0.3868	0.9239	-0.27
Mof_N 	N 	0.7284	0.3675	0.85095	-0.158
Mof_N 	N 	0.0152	0.3296	0.623	-0.283
Mof_N 	N 	0.9092	0.3562	0.684	-0.16
Mof_N 	N 	0.5317	0.27	0.7105	-0.256
Mof_N 	N 	0.6447	0.298	0.7155	-0.156
Mof_N 	N 	0.0282	0.2417	0.2418	-0.268
Mof_N 	N 	0.1548	0.2317	0.227	-0.162
Mof_N 	N 	0.4073	0.2853	0.2342	-0.164
Mof_N 	N 	0.5082	0.2872	0.2635	-0.266
Mof_N 	N 	0.3926	0.2003	0.0032	-0.247
Mof_N 	N 	0.3767	0.2026	0.0853	-0.159
Mof_N 	N 	0.8484	0.2147	0.2858	-0.271
Mof_N 	N 	0.7777	0.1346	0.33212	-0.163
Mof_N 	N 	0.7865	0.8972	0.32855	-0.162
Mof_N 	N 	0.872	0.8306	0.28224	-0.265
Mof_N 	N 	0.5438	0.0134	0.41528	-0.162
Mof_N 	N 	0.4226	0.9859	0.4435	-0.257
Mof_N 	N 	0.2841	0.9174	0.4124	-0.273
Mof_N 	N 	0.2667	0.8955	0.34081	-0.165
Mof_N 	N 	0.1752	0.8247	0.2088	-0.154
Mof_N 	N 	0.0609	0.798	0.20751	-0.259
Mof_N 	N 	0.4473	0.8687	0.1749	-0.161
Mof_N 	N 	0.552	0.8345	0.1177	-0.269
Mof_O 	O 	0.6331	0.1484	0.49588	-0.448
Mof_O 	O 	0.5751	0.1816	0.5706	-0.325
Mof_O 	O 	0.5798	0.3696	0.3344	-0.321
Mof_O 	O 	0.6055	0.2636	0.34322	-0.476
Mof_O 	O 	0.7503	0.0121	0.4856	-0.445
Mof_O 	O 	0.8069	0.1089	0.4658	-0.31
Mof_O 	O 	0.9126	0.8154	0.4169	-0.485
Mof_O 	O 	0.0259	0.8322	0.3563	-0.319
Mof_O 	O 	0.0868	0.179	0.83944	-0.444
Mof_O 	O 	0.0477	0.0821	0.83426	-0.323
Mof_O 	O 	0.2942	0.1059	0.9894	-0.305
Mof_O 	O 	0.2738	0.1904	0.9346	-0.46
Mof_O 	O 	0.9808	0.3579	0.8045	-0.309
Mof_O 	O 	0.0829	0.3016	0.75808	-0.477
Mof_O 	O 	0.0024	0.6032	0.7982	-0.31
Mof_O 	O 	0.1131	0.64549	0.75201	-0.475
Mof_O 	O 	0.2655	0.5352	0.9777	-0.45
Mof_O 	O 	0.3427	0.6173	0.9527	-0.317
Mof_O 	O 	0.3744	0.318	0.9097	-0.453
Mof_O 	O 	0.4947	0.3192	0.85924	-0.317
Mof_O 	O 	0.1645	0.6722	0.98543	-0.461
Mof_O 	O 	0.1068	0.714	0.0574	-0.323
Mof_O 	O 	0.0728	0.7405	0.83934	-0.45
Mof_O 	O 	0.0441	0.8461	0.8205	-0.314
Mof_O 	O 	0.6165	0.8271	0.26084	-0.462
Mof_O 	O 	0.5104	0.8853	0.30274	-0.298
Mof_O 	O 	0.6455	0.1717	0.25318	-0.471
Mof_O 	O 	0.5375	0.1271	0.301	-0.316
Mof_O 	O 	0.8094	0.6947	0.4316	-0.463
Mof_O 	O 	0.8345	0.6016	0.4771	-0.328
Mof_O 	O 	0.6108	0.7042	0.34157	-0.442
Mof_O 	O 	0.5671	0.6092	0.33303	-0.303
Mof_O 	O 	0.3669	0.8516	0.50412	-0.448
Mof_O 	O 	0.4249	0.8184	0.4294	-0.325
Mof_O 	O 	0.4202	0.6304	0.6656	-0.321
Mof_O 	O 	0.3945	0.7364	0.65678	-0.476
Mof_O 	O 	0.2497	0.9879	0.5144	-0.445
Mof_O 	O 	0.1931	0.8911	0.5342	-0.31
Mof_O 	O 	0.0874	0.1846	0.5831	-0.485
Mof_O 	O 	0.9741	0.1678	0.6437	-0.319
Mof_O 	O 	0.9132	0.821	0.16056	-0.444
Mof_O 	O 	0.9523	0.9179	0.16574	-0.323
Mof_O 	O 	0.7058	0.8941	0.0106	-0.305
Mof_O 	O 	0.7262	0.8096	0.0654	-0.46
Mof_O 	O 	0.0192	0.6421	0.1955	-0.309
Mof_O 	O 	0.9171	0.6984	0.24192	-0.477
Mof_O 	O 	0.9976	0.3968	0.2018	-0.31
Mof_O 	O 	0.8869	0.35451	0.24799	-0.475
Mof_O 	O 	0.7345	0.4648	0.0223	-0.45
Mof_O 	O 	0.6573	0.3827	0.0473	-0.317
Mof_O 	O 	0.6256	0.682	0.0903	-0.453
Mof_O 	O 	0.5053	0.6808	0.14076	-0.317
Mof_O 	O 	0.8355	0.3278	0.01457	-0.461
Mof_O 	O 	0.8932	0.286	0.9426	-0.323
Mof_O 	O 	0.9272	0.2595	0.16066	-0.45
Mof_O 	O 	0.9559	0.1539	0.1795	-0.314
Mof_O 	O 	0.3835	0.1729	0.73916	-0.462
Mof_O 	O 	0.4896	0.1147	0.69726	-0.298
Mof_O 	O 	0.3545	0.8283	0.74682	-0.471
Mof_O 	O 	0.4625	0.8729	0.699	-0.316
Mof_O 	O 	0.1906	0.3053	0.5684	-0.463
Mof_O 	O 	0.1655	0.3984	0.5229	-0.328
Mof_O 	O 	0.3892	0.2958	0.65843	-0.442
Mof_O 	O 	0.4329	0.3908	0.66697	-0.303
_end
