# CIF file generated by openbabel 3.1.0, see https://openbabel.org
data_I
_chemical_name_common 'image0'
_cell_length_a 11.2582
_cell_length_b 11.8812
_cell_length_c 16.2122
_cell_angle_alpha 90
_cell_angle_beta 129.572
_cell_angle_gamma 90
_space_group_name_H-M_alt 'P 1'
_space_group_name_Hall 'P 1'
loop_
    _symmetry_equiv_pos_as_xyz
    x,y,z
loop_
    _atom_site_label
    _atom_site_type_symbol
    _atom_site_fract_x
    _atom_site_fract_y
    _atom_site_fract_z
    _atom_site_occupancy
    C1       C        0.14170    0.89378    0.76829    1.000
    C2       C        0.08310    0.80567    0.69634    1.000
    H1       H        0.97890    0.78520    0.65530    1.000
    C3       C        0.17952    0.74726    0.68498    1.000
    C4       C        0.11790    0.65034    0.60947    1.000
    C5       C        0.33302    0.77904    0.74508    1.000
    H2       H        0.39800    0.74000    0.73730    1.000
    C6       C        0.39090    0.86837    0.81667    1.000
    C7       C        0.29570    0.92530    0.82933    1.000
    H3       H        0.33490    0.98470    0.87870    1.000
    C8       C        0.55580    0.90342    0.87993    1.000
    O1       O        0.06653    0.92820    0.88699    1.000
    O2       O        0.86577    0.93933    0.69636    1.000
    O3       O        0.06000    0.08601    0.79104    1.000
    O4       O        0.21448    0.57927    0.62625    1.000
    O5       O        0.97489    0.64654    0.53464    1.000
    O6       O        0.64042    0.85290    0.86767    1.000
    O7       O        0.60626    0.98427    0.94421    1.000
    S1       S        0.02221    0.96954    0.78479    1.000
    Zn1      Zn       0.17720    0.02597    0.01796    1.000
    C9       C        0.85830    0.39378    0.73171    1.000
    C10      C        0.91690    0.30567    0.80366    1.000
    H4       H        0.02110    0.28520    0.84470    1.000
    C11      C        0.82048    0.24726    0.81502    1.000
    C12      C        0.88210    0.15034    0.89053    1.000
    C13      C        0.66698    0.27904    0.75492    1.000
    H5       H        0.60200    0.24000    0.76270    1.000
    C14      C        0.60910    0.36837    0.68333    1.000
    C15      C        0.70430    0.42530    0.67067    1.000
    H6       H        0.66510    0.48470    0.62130    1.000
    C16      C        0.44420    0.40342    0.62007    1.000
    O8       O        0.93347    0.42820    0.61301    1.000
    O9       O        0.13423    0.43933    0.80364    1.000
    O10      O        0.94000    0.58601    0.70896    1.000
    O11      O        0.78552    0.07927    0.87375    1.000
    O12      O        0.02511    0.14654    0.96536    1.000
    O13      O        0.35958    0.35290    0.63233    1.000
    O14      O        0.39374    0.48427    0.55579    1.000
    S2       S        0.97779    0.46954    0.71521    1.000
    Zn2      Zn       0.82280    0.52597    0.48204    1.000
    C17      C        0.85830    0.10622    0.23171    1.000
    C18      C        0.91690    0.19433    0.30366    1.000
    H7       H        0.02110    0.21480    0.34470    1.000
    C19      C        0.82048    0.25274    0.31502    1.000
    C20      C        0.88210    0.34966    0.39053    1.000
    C21      C        0.66698    0.22096    0.25492    1.000
    H8       H        0.60200    0.26000    0.26270    1.000
    C22      C        0.60910    0.13163    0.18333    1.000
    C23      C        0.70430    0.07470    0.17067    1.000
    H9       H        0.66510    0.01530    0.12130    1.000
    C24      C        0.44420    0.09658    0.12007    1.000
    O15      O        0.93347    0.07180    0.11301    1.000
    O16      O        0.13423    0.06067    0.30364    1.000
    O17      O        0.94000    0.91399    0.20896    1.000
    O18      O        0.78552    0.42073    0.37375    1.000
    O19      O        0.02511    0.35346    0.46536    1.000
    O20      O        0.35958    0.14710    0.13233    1.000
    O21      O        0.39374    0.01573    0.05579    1.000
    S3       S        0.97779    0.03046    0.21521    1.000
    Zn3      Zn       0.82280    0.97403    0.98204    1.000
    C25      C        0.14170    0.60622    0.26829    1.000
    C26      C        0.08310    0.69433    0.19634    1.000
    H10      H        0.97890    0.71480    0.15530    1.000
    C27      C        0.17952    0.75274    0.18498    1.000
    C28      C        0.11790    0.84966    0.10947    1.000
    C29      C        0.33302    0.72096    0.24508    1.000
    H11      H        0.39800    0.76000    0.23730    1.000
    C30      C        0.39090    0.63163    0.31667    1.000
    C31      C        0.29570    0.57470    0.32933    1.000
    H12      H        0.33490    0.51530    0.37870    1.000
    C32      C        0.55580    0.59658    0.37993    1.000
    O22      O        0.06653    0.57180    0.38699    1.000
    O23      O        0.86577    0.56067    0.19636    1.000
    O24      O        0.06000    0.41399    0.29104    1.000
    O25      O        0.21448    0.92073    0.12625    1.000
    O26      O        0.97489    0.85346    0.03464    1.000
    O27      O        0.64042    0.64710    0.36767    1.000
    O28      O        0.60626    0.51573    0.44421    1.000
    S4       S        0.02221    0.53046    0.28479    1.000
    Zn4      Zn       0.17720    0.47403    0.51796    1.000
