# CIF file generated by openbabel 3.1.0, see https://openbabel.org
data_I
_chemical_name_common 'image0'
_cell_length_a 13.617
_cell_length_b 14.3185
_cell_length_c 18.6289
_cell_angle_alpha 88.841
_cell_angle_beta 69.413
_cell_angle_gamma 79.69
_space_group_name_H-M_alt 'P 1'
_space_group_name_Hall 'P 1'
loop_
    _symmetry_equiv_pos_as_xyz
    x,y,z
loop_
    _atom_site_label
    _atom_site_type_symbol
    _atom_site_fract_x
    _atom_site_fract_y
    _atom_site_fract_z
    _atom_site_occupancy
    Ni1      Ni       0.20117    0.19360    0.47930    1.000
    C1       C        0.30260    0.90150    0.80080    1.000
    C2       C        0.40440    0.91830    0.76280    1.000
    H1       H        0.42560    0.96970    0.77920    1.000
    C3       C        0.47580    0.86100    0.70100    1.000
    C4       C        0.43980    0.78910    0.67450    1.000
    H2       H        0.48680    0.75140    0.63200    1.000
    C5       C        0.33580    0.76990    0.70870    1.000
    C6       C        0.26950    0.82840    0.77240    1.000
    H3       H        0.20020    0.81820    0.79700    1.000
    C7       C        0.22720    0.96570    0.86740    1.000
    C8       C        0.58580    0.87610    0.66100    1.000
    C9       C        0.28740    0.70710    0.66990    1.000
    H4       H        0.22680    0.68660    0.70820    1.000
    H5       H        0.26210    0.74350    0.63330    1.000
    C10      C        0.37280    0.55750    0.68650    1.000
    H6       H        0.30170    0.54460    0.71330    1.000
    H7       H        0.39450    0.58720    0.72340    1.000
    C11      C        0.44730    0.46560    0.65690    1.000
    H8       H        0.41720    0.43210    0.62740    1.000
    H9       H        0.44720    0.42820    0.70090    1.000
    C12      C        0.56340    0.46560    0.60760    1.000
    H10      H        0.56530    0.51340    0.56970    1.000
    H11      H        0.59970    0.48400    0.64000    1.000
    C13      C        0.60400    0.35630    0.50150    1.000
    C14      C        0.66680    0.41210    0.43170    1.000
    C15      C        0.62810    0.30110    0.62210    1.000
    H12      H        0.65120    0.24040    0.59350    1.000
    H13      H        0.55740    0.30150    0.65950    1.000
    C16      C        0.99990    0.25740    0.62550    1.000
    C17      C        0.69220    0.40630    0.85430    1.000
    C18      C        0.73370    0.35930    0.77670    1.000
    C19      C        0.66380    0.34900    0.73740    1.000
    H14      H        0.59080    0.36990    0.76150    1.000
    C20      C        0.70240    0.30860    0.66420    1.000
    C21      C        0.81050    0.27710    0.62840    1.000
    H15      H        0.83690    0.24850    0.57930    1.000
    C22      C        0.88130    0.28850    0.66650    1.000
    C23      C        0.84110    0.32960    0.73790    1.000
    H16      H        0.88830    0.33820    0.76200    1.000
    C24      C        0.78960    0.12190    0.86900    1.000
    H17      H        0.81120    0.18070    0.85030    1.000
    H18      H        0.73160    0.13390    0.91740    1.000
    H19      H        0.76690    0.09340    0.83280    1.000
    C25      C        0.97740    0.03170    0.80590    1.000
    H20      H        0.00310    0.08930    0.78800    1.000
    H21      H        0.95430    0.00610    0.76860    1.000
    H22      H        0.03380    0.98640    0.81330    1.000
    C26      C        0.88640    0.05260    0.87990    1.000
    C27      C        0.84520    0.95880    0.90700    1.000
    H23      H        0.78540    0.97490    0.95480    1.000
    H24      H        0.81620    0.94060    0.86980    1.000
    C28      C        0.91370    0.87170    0.91990    1.000
    C29      C        0.83900    0.80190    0.92020    1.000
    C30      C        0.00550    0.80170    0.00720    1.000
    H25      H        0.96970    0.74750    0.01620    1.000
    H26      H        0.07080    0.78550    0.96300    1.000
    C31      C        0.03190    0.82170    0.07500    1.000
    H27      H        0.08210    0.76880    0.08260    1.000
    H28      H        0.96810    0.83200    0.12060    1.000
    C32      C        0.49200    0.79930    0.92480    1.000
    H29      H        0.56170    0.81000    0.91970    1.000
    H30      H        0.44240    0.82160    0.97490    1.000
    H31      H        0.46950    0.83290    0.88650    1.000
    C33      C        0.57390    0.64960    0.83410    1.000
    H32      H        0.64420    0.65870    0.82900    1.000
    H33      H        0.55230    0.68360    0.79560    1.000
    H34      H        0.57440    0.58310    0.82780    1.000
    C34      C        0.49600    0.68670    0.91330    1.000
    C35      C        0.38240    0.67610    0.92260    1.000
    H35      H        0.33700    0.69630    0.97500    1.000
    H36      H        0.35880    0.72050    0.88940    1.000
    C36      C        0.36290    0.58370    0.90700    1.000
    H37      H        0.41750    0.55740    0.85820    1.000
    C37      C        0.25030    0.59480    0.89840    1.000
    H38      H        0.23790    0.53350    0.88790    1.000
    H39      H        0.24870    0.63520    0.85700    1.000
    H40      H        0.19590    0.62250    0.94520    1.000
    C38      C        0.35350    0.41830    0.95540    1.000
    H41      H        0.40600    0.39060    0.90700    1.000
    H42      H        0.28290    0.42050    0.95340    1.000
    C39      C        0.36630    0.35840    0.02210    1.000
    H43      H        0.31070    0.38350    0.07000    1.000
    H44      H        0.36100    0.29310    0.01360    1.000
    C40      C        0.15300    0.49020    0.38860    1.000
    C41      C        0.14030    0.37270    0.40280    1.000
    C42      C        0.13650    0.30650    0.34190    1.000
    H45      H        0.10300    0.34510    0.31040    1.000
    H46      H        0.20970    0.28270    0.30930    1.000
    C43      C        0.08570    0.22760    0.36150    1.000
    C44      C        0.97710    0.25760    0.40740    1.000
    H47      H        0.94330    0.20320    0.42110    1.000
    H48      H        0.94200    0.29910    0.37910    1.000
    H49      H        0.97210    0.29090    0.45310    1.000
    C45      C        0.08300    0.18670    0.28800    1.000
    H50      H        0.04440    0.13500    0.29960    1.000
    H51      H        0.15450    0.16390    0.25370    1.000
    H52      H        0.04810    0.23510    0.26410    1.000
    C46      C        0.10450    0.06380    0.42420    1.000
    H53      H        0.03330    0.07990    0.46240    1.000
    H54      H        0.10040    0.02830    0.38190    1.000
    C47      C        0.17320    0.00720    0.45700    1.000
    H55      H        0.14240    0.95250    0.47890    1.000
    H56      H        0.24120    0.98410    0.41680    1.000
    C48      C        0.23370    0.91980    0.59380    1.000
    C49      C        0.26940    0.00980    0.55240    1.000
    C50      C        0.27390    0.07380    0.61260    1.000
    C51      C        0.32850    0.16010    0.58800    1.000
    C52      C        0.43940    0.13840    0.54800    1.000
    C53      C        0.29390    0.31860    0.53790    1.000
    H57      H        0.36400    0.30580    0.49810    1.000
    H58      H        0.29960    0.35070    0.58130    1.000
    C54      C        0.21740    0.38170    0.50830    1.000
    H59      H        0.24300    0.44030    0.49120    1.000
    H60      H        0.14780    0.39740    0.54840    1.000
    N1       N        0.36860    0.62170    0.62930    1.000
    N2       N        0.62090    0.37660    0.56860    1.000
    O1       O        0.13670    0.94160    0.90150    1.000
    O2       O        0.25630    0.03300    0.88600    1.000
    O3       O        0.62480    0.93070    0.69350    1.000
    O4       O        0.63900    0.83460    0.59930    1.000
    O5       O        0.59570    0.43470    0.88770    1.000
    O6       O        0.76050    0.41120    0.88550    1.000
    O7       O        0.03720    0.22990    0.55850    1.000
    O8       O        0.05330    0.26320    0.66740    1.000
    N3       N        0.93580    0.88440    0.99020    1.000
    H61      H        0.89500    0.90000    0.02500    1.000
    N4       N        0.08040    0.90940    0.05950    1.000
    H62      H        0.15060    0.87940    0.04230    1.000
    N5       N        0.36880    0.51390    0.96890    1.000
    H63      H        0.30600    0.53200    0.00700    1.000
    N6       N        0.47560    0.36280    0.02530    1.000
    H64      H        0.50930    0.32600    0.98200    1.000
    N7       N        0.21020    0.32820    0.44220    1.000
    H65      H        0.27190    0.32400    0.40200    1.000
    N8       N        0.14520    0.15230    0.39610    1.000
    H66      H        0.21420    0.12400    0.37800    1.000
    N9       N        0.19150    0.05810    0.51610    1.000
    H67      H        0.12460    0.06670    0.55040    1.000
    N10      N        0.25910    0.23250    0.56070    1.000
    H68      H        0.19100    0.25500    0.59000    1.000
    C55      C        0.33400    0.19700    0.67780    1.000
    C56      C        0.70300    0.35700    0.50200    1.000
    C57      C        0.88000    0.77100    0.92400    1.000
    C58      C        0.92100    0.76500    0.89200    1.000
    C59      C        0.19100    0.45230    0.34750    1.000
    C60      C        0.31900    0.21900    0.66700    1.000
    C61      C        0.31700    0.04200    0.62500    1.000
    C62      C        0.37400    0.19900    0.63700    1.000
    C63      C        0.37900    0.96090    0.49930    1.000
    Ni2      Ni       0.79883    0.80640    0.52070    1.000
    C64      C        0.69740    0.09850    0.19920    1.000
    C65      C        0.59560    0.08170    0.23720    1.000
    H69      H        0.57440    0.03030    0.22080    1.000
    C66      C        0.52420    0.13900    0.29900    1.000
    C67      C        0.56020    0.21090    0.32550    1.000
    H70      H        0.51320    0.24860    0.36800    1.000
    C68      C        0.66420    0.23010    0.29130    1.000
    C69      C        0.73050    0.17160    0.22760    1.000
    H71      H        0.79980    0.18180    0.20300    1.000
    C70      C        0.77280    0.03430    0.13260    1.000
    C71      C        0.41420    0.12390    0.33900    1.000
    C72      C        0.71260    0.29290    0.33010    1.000
    H72      H        0.77320    0.31340    0.29180    1.000
    H73      H        0.73790    0.25650    0.36670    1.000
    C73      C        0.62720    0.44250    0.31350    1.000
    H74      H        0.69830    0.45540    0.28670    1.000
    H75      H        0.60550    0.41280    0.27660    1.000
    C74      C        0.55270    0.53440    0.34310    1.000
    H76      H        0.58280    0.56790    0.37260    1.000
    H77      H        0.55280    0.57180    0.29910    1.000
    C75      C        0.43660    0.53440    0.39240    1.000
    H78      H        0.43470    0.48660    0.43030    1.000
    H79      H        0.40030    0.51600    0.36000    1.000
    C76      C        0.39600    0.64370    0.49850    1.000
    C77      C        0.33320    0.58790    0.56830    1.000
    C78      C        0.37190    0.69890    0.37790    1.000
    H80      H        0.34880    0.75960    0.40650    1.000
    H81      H        0.44260    0.69850    0.34050    1.000
    C79      C        0.00010    0.74260    0.37450    1.000
    C80      C        0.30780    0.59370    0.14570    1.000
    C81      C        0.26630    0.64070    0.22330    1.000
    C82      C        0.33620    0.65100    0.26260    1.000
    H82      H        0.40920    0.63010    0.23850    1.000
    C83      C        0.29760    0.69140    0.33580    1.000
    C84      C        0.18950    0.72290    0.37160    1.000
    H83      H        0.16310    0.75150    0.42070    1.000
    C85      C        0.11870    0.71150    0.33350    1.000
    C86      C        0.15890    0.67040    0.26210    1.000
    H84      H        0.11170    0.66180    0.23800    1.000
    C87      C        0.21040    0.87810    0.13100    1.000
    H85      H        0.18880    0.81930    0.14970    1.000
    H86      H        0.26840    0.86610    0.08260    1.000
    H87      H        0.23310    0.90660    0.16720    1.000
    C88      C        0.02260    0.96830    0.19410    1.000
    H88      H        0.99690    0.91070    0.21200    1.000
    H89      H        0.04570    0.99390    0.23140    1.000
    H90      H        0.96620    0.01360    0.18670    1.000
    C89      C        0.11360    0.94740    0.12010    1.000
    C90      C        0.15480    0.04120    0.09300    1.000
    H91      H        0.21460    0.02510    0.04520    1.000
    H92      H        0.18380    0.05940    0.13020    1.000
    C91      C        0.08630    0.12830    0.08010    1.000
    C92      C        0.16100    0.19810    0.07980    1.000
    C93      C        0.99450    0.19830    0.99280    1.000
    H93      H        0.03030    0.25250    0.98380    1.000
    H94      H        0.92920    0.21450    0.03700    1.000
    C94      C        0.96810    0.17830    0.92500    1.000
    H95      H        0.91790    0.23120    0.91740    1.000
    H96      H        0.03190    0.16800    0.87940    1.000
    C95      C        0.50800    0.20070    0.07520    1.000
    H97      H        0.43830    0.19000    0.08030    1.000
    H98      H        0.55760    0.17840    0.02510    1.000
    H99      H        0.53050    0.16710    0.11350    1.000
    C96      C        0.42610    0.35040    0.16590    1.000
    H100     H        0.35580    0.34130    0.17100    1.000
    H101     H        0.44770    0.31640    0.20440    1.000
    H102     H        0.42560    0.41690    0.17220    1.000
    C97      C        0.50400    0.31330    0.08670    1.000
    C98      C        0.61760    0.32390    0.07740    1.000
    H103     H        0.66300    0.30370    0.02500    1.000
    H104     H        0.64120    0.27950    0.11060    1.000
    C99      C        0.63710    0.41630    0.09300    1.000
    H105     H        0.58250    0.44260    0.14180    1.000
    C100     C        0.74970    0.40520    0.10160    1.000
    H106     H        0.76210    0.46650    0.11210    1.000
    H107     H        0.75130    0.36480    0.14300    1.000
    H108     H        0.80410    0.37750    0.05480    1.000
    C101     C        0.64650    0.58170    0.04460    1.000
    H109     H        0.59400    0.60940    0.09300    1.000
    H110     H        0.71710    0.57950    0.04660    1.000
    C102     C        0.63370    0.64160    0.97790    1.000
    H111     H        0.68930    0.61650    0.93000    1.000
    H112     H        0.63900    0.70690    0.98640    1.000
    C103     C        0.84700    0.50980    0.61140    1.000
    C104     C        0.85970    0.62730    0.59720    1.000
    C105     C        0.86350    0.69350    0.65810    1.000
    H113     H        0.89700    0.65490    0.68960    1.000
    H114     H        0.79030    0.71730    0.69070    1.000
    C106     C        0.91430    0.77240    0.63850    1.000
    C107     C        0.02290    0.74240    0.59260    1.000
    H115     H        0.05670    0.79680    0.57890    1.000
    H116     H        0.05800    0.70090    0.62090    1.000
    H117     H        0.02790    0.70910    0.54690    1.000
    C108     C        0.91700    0.81330    0.71200    1.000
    H118     H        0.95560    0.86500    0.70040    1.000
    H119     H        0.84550    0.83610    0.74630    1.000
    H120     H        0.95190    0.76490    0.73590    1.000
    C109     C        0.89550    0.93620    0.57580    1.000
    H121     H        0.96670    0.92010    0.53760    1.000
    H122     H        0.89960    0.97170    0.61810    1.000
    C110     C        0.82680    0.99280    0.54300    1.000
    H123     H        0.85760    0.04750    0.52110    1.000
    H124     H        0.75880    0.01590    0.58320    1.000
    C111     C        0.76630    0.08020    0.40620    1.000
    C112     C        0.73060    0.99020    0.44760    1.000
    C113     C        0.72610    0.92620    0.38740    1.000
    C114     C        0.67150    0.83990    0.41200    1.000
    C115     C        0.56060    0.86160    0.45200    1.000
    C116     C        0.70610    0.68140    0.46210    1.000
    H125     H        0.63600    0.69420    0.50190    1.000
    H126     H        0.70040    0.64930    0.41870    1.000
    C117     C        0.78260    0.61830    0.49170    1.000
    H127     H        0.75700    0.55970    0.50880    1.000
    H128     H        0.85220    0.60260    0.45160    1.000
    N11      N        0.63140    0.37830    0.37070    1.000
    N12      N        0.37910    0.62340    0.43140    1.000
    O9       O        0.86330    0.05840    0.09850    1.000
    O10      O        0.74370    0.96700    0.11400    1.000
    O11      O        0.37520    0.06930    0.30650    1.000
    O12      O        0.36100    0.16540    0.40070    1.000
    O13      O        0.40430    0.56530    0.11230    1.000
    O14      O        0.23950    0.58880    0.11450    1.000
    O15      O        0.96280    0.77010    0.44150    1.000
    O16      O        0.94670    0.73680    0.33260    1.000
    N13      N        0.06420    0.11560    0.00980    1.000
    H129     H        0.10500    0.10000    0.97500    1.000
    N14      N        0.91960    0.09060    0.94050    1.000
    H130     H        0.84940    0.12060    0.95770    1.000
    N15      N        0.63120    0.48610    0.03110    1.000
    H131     H        0.69400    0.46800    0.99300    1.000
    N16      N        0.52440    0.63720    0.97470    1.000
    H132     H        0.49070    0.67400    0.01800    1.000
    N17      N        0.78980    0.67180    0.55780    1.000
    H133     H        0.72810    0.67600    0.59800    1.000
    N18      N        0.85480    0.84770    0.60390    1.000
    H134     H        0.78580    0.87600    0.62200    1.000
    N19      N        0.80850    0.94190    0.48390    1.000
    H135     H        0.87540    0.93330    0.44960    1.000
    N20      N        0.74090    0.76750    0.43930    1.000
    H136     H        0.80900    0.74500    0.41000    1.000
    C118     C        0.66600    0.80300    0.32220    1.000
    C119     C        0.29700    0.64300    0.49800    1.000
    C120     C        0.12000    0.22900    0.07600    1.000
    C121     C        0.07900    0.23500    0.10800    1.000
    C122     C        0.80900    0.54770    0.65250    1.000
    C123     C        0.68100    0.78100    0.33300    1.000
    C124     C        0.68300    0.95800    0.37500    1.000
    C125     C        0.62600    0.80100    0.36300    1.000
    C126     C        0.62100    0.03910    0.50070    1.000
    Ni3      Ni       0.00000    0.00000    0.00000    1.000
    Ni4      Ni       0.50000    0.50000    0.00000    1.000
