# CIF file generated by openbabel 3.1.0, see https://openbabel.org
data_I
_chemical_name_common 'image0'
_cell_length_a 19.455
_cell_length_b 19.455
_cell_length_c 3.5339
_cell_angle_alpha 90
_cell_angle_beta 90
_cell_angle_gamma 90
_space_group_name_H-M_alt 'P 1'
_space_group_name_Hall 'P 1'
loop_
    _symmetry_equiv_pos_as_xyz
    x,y,z
loop_
    _atom_site_label
    _atom_site_type_symbol
    _atom_site_fract_x
    _atom_site_fract_y
    _atom_site_fract_z
    _atom_site_occupancy
    Ag1      Ag       0.37507    0.45533    0.99760    1.000
    N1       N        0.32460    0.54110    0.21200    1.000
    N2       N        0.35410    0.60580    0.19300    1.000
    N3       N        0.24980    0.61970    0.45800    1.000
    N4       N        0.21200    0.50100    0.40000    1.000
    H1       H        0.17310    0.50960    0.50920    1.000
    H2       H        0.22150    0.46040    0.32680    1.000
    C1       C        0.26040    0.55520    0.35000    1.000
    C2       C        0.30550    0.65010    0.37000    1.000
    N5       N        0.32600    0.72200    0.38500    1.000
    H3       H        0.29750    0.75250    0.46630    1.000
    H4       H        0.36630    0.73410    0.31280    1.000
    H5       H        0.22640    0.52180    0.36770    1.000
    H6       H        0.31360    0.69640    0.41600    1.000
    Ag2      Ag       0.62493    0.54467    0.99760    1.000
    N6       N        0.67540    0.45890    0.21200    1.000
    N7       N        0.64590    0.39420    0.19300    1.000
    N8       N        0.75020    0.38030    0.45800    1.000
    N9       N        0.78800    0.49900    0.40000    1.000
    H7       H        0.82690    0.49040    0.50920    1.000
    H8       H        0.77850    0.53960    0.32680    1.000
    C3       C        0.73960    0.44480    0.35000    1.000
    C4       C        0.69450    0.34990    0.37000    1.000
    N10      N        0.67400    0.27800    0.38500    1.000
    H9       H        0.70250    0.24750    0.46630    1.000
    H10      H        0.63370    0.26590    0.31280    1.000
    H11      H        0.77360    0.47820    0.36770    1.000
    H12      H        0.68640    0.30360    0.41600    1.000
    Ag3      Ag       0.45533    0.62493    0.00240    1.000
    N11      N        0.54110    0.67540    0.78800    1.000
    N12      N        0.60580    0.64590    0.80700    1.000
    N13      N        0.61970    0.75020    0.54200    1.000
    N14      N        0.50100    0.78800    0.60000    1.000
    H13      H        0.50960    0.82690    0.49080    1.000
    H14      H        0.46040    0.77850    0.67320    1.000
    C5       C        0.55520    0.73960    0.65000    1.000
    C6       C        0.65010    0.69450    0.63000    1.000
    N15      N        0.72200    0.67400    0.61500    1.000
    H15      H        0.75250    0.70250    0.53370    1.000
    H16      H        0.73410    0.63370    0.68720    1.000
    H17      H        0.52180    0.77360    0.63230    1.000
    H18      H        0.69640    0.68640    0.58400    1.000
    Ag4      Ag       0.54467    0.37507    0.00240    1.000
    N16      N        0.45890    0.32460    0.78800    1.000
    N17      N        0.39420    0.35410    0.80700    1.000
    N18      N        0.38030    0.24980    0.54200    1.000
    N19      N        0.49900    0.21200    0.60000    1.000
    H19      H        0.49040    0.17310    0.49080    1.000
    H20      H        0.53960    0.22150    0.67320    1.000
    C7       C        0.44480    0.26040    0.65000    1.000
    C8       C        0.34990    0.30550    0.63000    1.000
    N20      N        0.27800    0.32600    0.61500    1.000
    H21      H        0.24750    0.29750    0.53370    1.000
    H22      H        0.26590    0.36630    0.68720    1.000
    H23      H        0.47820    0.22640    0.63230    1.000
    H24      H        0.30360    0.31360    0.58400    1.000
    Ag5      Ag       0.87507    0.04467    0.49760    1.000
    N21      N        0.82460    0.95890    0.71200    1.000
    N22      N        0.85410    0.89420    0.69300    1.000
    N23      N        0.74980    0.88030    0.95800    1.000
    N24      N        0.71200    0.99900    0.90000    1.000
    H25      H        0.67310    0.99040    0.00920    1.000
    H26      H        0.72150    0.03960    0.82680    1.000
    C9       C        0.76040    0.94480    0.85000    1.000
    C10      C        0.80550    0.84990    0.87000    1.000
    N25      N        0.82600    0.77800    0.88500    1.000
    H27      H        0.79750    0.74750    0.96630    1.000
    H28      H        0.86630    0.76590    0.81280    1.000
    H29      H        0.72640    0.97820    0.86770    1.000
    H30      H        0.81360    0.80360    0.91600    1.000
    Ag6      Ag       0.12493    0.95533    0.49760    1.000
    N26      N        0.17540    0.04110    0.71200    1.000
    N27      N        0.14590    0.10580    0.69300    1.000
    N28      N        0.25020    0.11970    0.95800    1.000
    N29      N        0.28800    0.00100    0.90000    1.000
    H31      H        0.32690    0.00960    0.00920    1.000
    H32      H        0.27850    0.96040    0.82680    1.000
    C11      C        0.23960    0.05520    0.85000    1.000
    C12      C        0.19450    0.15010    0.87000    1.000
    N30      N        0.17400    0.22200    0.88500    1.000
    H33      H        0.20250    0.25250    0.96630    1.000
    H34      H        0.13370    0.23410    0.81280    1.000
    H35      H        0.27360    0.02180    0.86770    1.000
    H36      H        0.18640    0.19640    0.91600    1.000
    Ag7      Ag       0.95533    0.87507    0.50240    1.000
    N31      N        0.04110    0.82460    0.28800    1.000
    N32      N        0.10580    0.85410    0.30700    1.000
    N33      N        0.11970    0.74980    0.04200    1.000
    N34      N        0.00100    0.71200    0.10000    1.000
    H37      H        0.00960    0.67310    0.99080    1.000
    H38      H        0.96040    0.72150    0.17320    1.000
    C13      C        0.05520    0.76040    0.15000    1.000
    C14      C        0.15010    0.80550    0.13000    1.000
    N35      N        0.22200    0.82600    0.11500    1.000
    H39      H        0.25250    0.79750    0.03370    1.000
    H40      H        0.23410    0.86630    0.18720    1.000
    H41      H        0.02180    0.72640    0.13230    1.000
    H42      H        0.19640    0.81360    0.08400    1.000
    Ag8      Ag       0.04467    0.12493    0.50240    1.000
    N36      N        0.95890    0.17540    0.28800    1.000
    N37      N        0.89420    0.14590    0.30700    1.000
    N38      N        0.88030    0.25020    0.04200    1.000
    N39      N        0.99900    0.28800    0.10000    1.000
    H43      H        0.99040    0.32690    0.99080    1.000
    H44      H        0.03960    0.27850    0.17320    1.000
    C15      C        0.94480    0.23960    0.15000    1.000
    C16      C        0.84990    0.19450    0.13000    1.000
    N40      N        0.77800    0.17400    0.11500    1.000
    H45      H        0.74750    0.20250    0.03370    1.000
    H46      H        0.76590    0.13370    0.18720    1.000
    H47      H        0.97820    0.27360    0.13230    1.000
    H48      H        0.80360    0.18640    0.08400    1.000
    Ag9      Ag       0.16610    0.66610    0.75000    1.000
    Ag10     Ag       0.83390    0.33390    0.75000    1.000
    Ag11     Ag       0.66610    0.83390    0.25000    1.000
    Ag12     Ag       0.33390    0.16610    0.25000    1.000
