data_functionalizedCrystal
_audit_creation_method	'EQeq! by Chris Wilmer'
_symmetry_space_group_name_H-M	'P1'
_symmetry_Int_Tables_number	1
_symmetry_cell_setting	triclinic
loop_
_symmetry_equiv_pos_as_xyz
  x,y,z
_cell_length_a	30.809
_cell_length_b	5.369
_cell_length_c	25.126
_cell_angle_alpha	90
_cell_angle_beta	127.61
_cell_angle_gamma	90
loop_
_atom_site_label
_atom_site_type_symbol
_atom_site_fract_x
_atom_site_fract_y
_atom_site_fract_z
_atom_site_charge
Mof_Cd	Cd	0.264	0.885	0.5768	0.445
Mof_Cd	Cd	0.6865	0	0.958	0.476
Mof_P 	P 	0.7018	0.542	0.0425	0.489
Mof_P 	P 	0.331	0.44	0.5921	0.498
Mof_O 	O 	0.7304	0.586	0.1213	-0.222
Mof_O 	O 	0.3921	0.492	0.6208	-0.242
Mof_O 	O 	0.7403	0.674	0.029	-0.279
Mof_O 	O 	0.2965	0.58	0.5256	-0.272
Mof_O 	O 	0.6455	0.663	0.0079	-0.206
Mof_O 	O 	0.3216	0.565	0.6387	-0.248
Mof_O 	O 	0.7029	0.282	0.0376	-0.267
Mof_O 	O 	0.3261	0.167	0.5874	-0.253
Mof_N 	N 	0.7458	0.353	0.2847	-0.146
Mof_N 	N 	0.5402	0.348	0.7903	-0.146
Mof_C 	C 	0.7536	0.2	0.3422	0.264
Mof_C 	C 	0.5908	0.253	0.8464	0.273
Mof_O 	O 	0.7959	0.226	0.4006	-0.217
Mof_O 	O 	0.634	0.317	0.8615	-0.244
Mof_N 	N 	0.714	0.044	0.3169	-0.163
Mof_N 	N 	0.5963	0.049	0.886	-0.158
Mof_C 	C 	0.6686	0.968	0.2533	0.137
Mof_C 	C 	0.5436	0.982	0.8639	0.122
Mof_N 	N 	0.634	0.787	0.241	-0.085
Mof_N 	N 	0.5441	0.781	0.8996	-0.073
Mof_C 	C 	0.6604	0.135	0.1969	-0.003
Mof_C 	C 	0.4899	0.085	0.8096	-0.001
Mof_C 	C 	0.6991	0.32	0.2181	0.112
Mof_C 	C 	0.4835	0.289	0.7677	0.104
Mof_C 	C 	0.7906	0.507	0.3085	0.144
Mof_C 	C 	0.5463	0.571	0.7526	0.156
Mof_C 	C 	0.8416	0.406	0.3225	0.001
Mof_C 	C 	0.5481	0.456	0.6945	0.02
Mof_C 	C 	0.8251	0.449	0.255	0.095
Mof_C 	C 	0.4917	0.532	0.6343	0.085
Mof_C 	C 	0.8033	0.724	0.235	0.058
Mof_C 	C 	0.4689	0.739	0.6496	0.06
Mof_O 	O 	0.7651	0.716	0.2549	-0.17
Mof_O 	O 	0.4982	0.702	0.7218	-0.187
Mof_O 	O 	0.8737	0.453	0.2548	-0.137
Mof_O 	O 	0.495	0.542	0.5743	-0.109
Mof_C 	C 	0.7624	0.796	0.1571	0.135
Mof_C 	C 	0.4075	0.718	0.6158	0.152
Mof_Cd	Cd	0.236	0.385	0.4232	0.461
Mof_Cd	Cd	0.8135	0.5	0.042	0.471
Mof_P 	P 	0.7982	0.042	0.9575	0.493
Mof_P 	P 	0.169	0.94	0.4079	0.481
Mof_O 	O 	0.7696	0.086	0.8787	-0.221
Mof_O 	O 	0.1079	0.992	0.3792	-0.254
Mof_O 	O 	0.7597	0.174	0.971	-0.277
Mof_O 	O 	0.2035	0.08	0.4744	-0.258
Mof_O 	O 	0.8545	0.163	0.9921	-0.204
Mof_O 	O 	0.1784	0.065	0.3613	-0.238
Mof_O 	O 	0.7971	0.782	0.9624	-0.272
Mof_O 	O 	0.1739	0.667	0.4126	-0.259
Mof_N 	N 	0.7542	0.853	0.7153	-0.152
Mof_N 	N 	0.9598	0.848	0.2097	-0.151
Mof_C 	C 	0.7464	0.7	0.6578	0.263
Mof_C 	C 	0.9092	0.753	0.1536	0.271
Mof_O 	O 	0.7041	0.726	0.5994	-0.222
Mof_O 	O 	0.866	0.817	0.1385	-0.245
Mof_N 	N 	0.786	0.544	0.6831	-0.174
Mof_N 	N 	0.9037	0.549	0.114	-0.163
Mof_C 	C 	0.8314	0.468	0.7467	0.156
Mof_C 	C 	0.9564	0.482	0.1361	0.136
Mof_N 	N 	0.866	0.287	0.759	-0.084
Mof_N 	N 	0.9559	0.281	0.1004	-0.072
Mof_C 	C 	0.8396	0.635	0.8031	-0.017
Mof_C 	C 	0.0101	0.585	0.1904	-0.013
Mof_C 	C 	0.8009	0.82	0.7819	0.111
Mof_C 	C 	0.0165	0.789	0.2323	0.102
Mof_C 	C 	0.7094	0.007	0.6915	0.159
Mof_C 	C 	0.9537	0.071	0.2474	0.169
Mof_C 	C 	0.6584	0.906	0.6775	-0.008
Mof_C 	C 	0.9519	0.956	0.3055	-0
Mof_C 	C 	0.6749	0.949	0.745	0.089
Mof_C 	C 	0.0083	0.032	0.3657	0.098
Mof_C 	C 	0.6967	0.224	0.765	0.065
Mof_C 	C 	0.0311	0.239	0.3504	0.057
Mof_O 	O 	0.7349	0.216	0.7451	-0.168
Mof_O 	O 	0.0018	0.202	0.2782	-0.185
Mof_O 	O 	0.6263	0.953	0.7452	-0.14
Mof_O 	O 	0.005	0.042	0.4257	-0.107
Mof_C 	C 	0.7376	0.296	0.8429	0.137
Mof_C 	C 	0.0925	0.218	0.3842	0.167
Mof_Cd	Cd	0.764	0.385	0.5768	0.461
Mof_Cd	Cd	0.1865	0.5	0.958	0.471
Mof_P 	P 	0.2018	0.042	0.0425	0.493
Mof_P 	P 	0.831	0.94	0.5921	0.481
Mof_O 	O 	0.2304	0.086	0.1213	-0.221
Mof_O 	O 	0.8921	0.992	0.6208	-0.254
Mof_O 	O 	0.2403	0.174	0.029	-0.277
Mof_O 	O 	0.7965	0.08	0.5256	-0.258
Mof_O 	O 	0.1455	0.163	0.0079	-0.204
Mof_O 	O 	0.8216	0.065	0.6387	-0.238
Mof_O 	O 	0.2029	0.782	0.0376	-0.272
Mof_O 	O 	0.8261	0.667	0.5874	-0.259
Mof_N 	N 	0.2458	0.853	0.2847	-0.152
Mof_N 	N 	0.0402	0.848	0.7903	-0.151
Mof_C 	C 	0.2536	0.7	0.3422	0.263
Mof_C 	C 	0.0908	0.753	0.8464	0.271
Mof_O 	O 	0.2959	0.726	0.4006	-0.222
Mof_O 	O 	0.134	0.817	0.8615	-0.245
Mof_N 	N 	0.214	0.544	0.3169	-0.174
Mof_N 	N 	0.0963	0.549	0.886	-0.163
Mof_C 	C 	0.1686	0.468	0.2533	0.156
Mof_C 	C 	0.0436	0.482	0.8639	0.136
Mof_N 	N 	0.134	0.287	0.241	-0.084
Mof_N 	N 	0.0441	0.281	0.8996	-0.072
Mof_C 	C 	0.1604	0.635	0.1969	-0.017
Mof_C 	C 	0.9899	0.585	0.8096	-0.013
Mof_C 	C 	0.1991	0.82	0.2181	0.111
Mof_C 	C 	0.9835	0.789	0.7677	0.102
Mof_C 	C 	0.2906	0.007	0.3085	0.159
Mof_C 	C 	0.0463	0.071	0.7526	0.169
Mof_C 	C 	0.3416	0.906	0.3225	-0.008
Mof_C 	C 	0.0481	0.956	0.6945	-0
Mof_C 	C 	0.3251	0.949	0.255	0.089
Mof_C 	C 	0.9917	0.032	0.6343	0.098
Mof_C 	C 	0.3033	0.224	0.235	0.065
Mof_C 	C 	0.9689	0.239	0.6496	0.057
Mof_O 	O 	0.2651	0.216	0.2549	-0.168
Mof_O 	O 	0.9982	0.202	0.7218	-0.185
Mof_O 	O 	0.3737	0.953	0.2548	-0.14
Mof_O 	O 	0.995	0.042	0.5743	-0.107
Mof_C 	C 	0.2624	0.296	0.1571	0.137
Mof_C 	C 	0.9075	0.218	0.6158	0.167
Mof_Cd	Cd	0.736	0.885	0.4232	0.445
Mof_Cd	Cd	0.3135	0	0.042	0.476
Mof_P 	P 	0.2982	0.542	0.9575	0.489
Mof_P 	P 	0.669	0.44	0.4079	0.498
Mof_O 	O 	0.2696	0.586	0.8787	-0.222
Mof_O 	O 	0.6079	0.492	0.3792	-0.242
Mof_O 	O 	0.2597	0.674	0.971	-0.279
Mof_O 	O 	0.7035	0.58	0.4744	-0.272
Mof_O 	O 	0.3545	0.663	0.9921	-0.206
Mof_O 	O 	0.6784	0.565	0.3613	-0.248
Mof_O 	O 	0.2971	0.282	0.9624	-0.267
Mof_O 	O 	0.6739	0.167	0.4126	-0.253
Mof_N 	N 	0.2542	0.353	0.7153	-0.146
Mof_N 	N 	0.4598	0.348	0.2097	-0.146
Mof_C 	C 	0.2464	0.2	0.6578	0.264
Mof_C 	C 	0.4092	0.253	0.1536	0.273
Mof_O 	O 	0.2041	0.226	0.5994	-0.217
Mof_O 	O 	0.366	0.317	0.1385	-0.244
Mof_N 	N 	0.286	0.044	0.6831	-0.163
Mof_N 	N 	0.4037	0.049	0.114	-0.158
Mof_C 	C 	0.3314	0.968	0.7467	0.137
Mof_C 	C 	0.4564	0.982	0.1361	0.122
Mof_N 	N 	0.366	0.787	0.759	-0.085
Mof_N 	N 	0.4559	0.781	0.1004	-0.073
Mof_C 	C 	0.3396	0.135	0.8031	-0.003
Mof_C 	C 	0.5101	0.085	0.1904	-0.001
Mof_C 	C 	0.3009	0.32	0.7819	0.112
Mof_C 	C 	0.5165	0.289	0.2323	0.104
Mof_C 	C 	0.2094	0.507	0.6915	0.144
Mof_C 	C 	0.4537	0.571	0.2474	0.156
Mof_C 	C 	0.1584	0.406	0.6775	0.001
Mof_C 	C 	0.4519	0.456	0.3055	0.02
Mof_C 	C 	0.1749	0.449	0.745	0.095
Mof_C 	C 	0.5083	0.532	0.3657	0.085
Mof_C 	C 	0.1967	0.724	0.765	0.058
Mof_C 	C 	0.5311	0.739	0.3504	0.06
Mof_O 	O 	0.2349	0.716	0.7451	-0.17
Mof_O 	O 	0.5018	0.702	0.2782	-0.187
Mof_O 	O 	0.1263	0.453	0.7452	-0.137
Mof_O 	O 	0.505	0.542	0.4257	-0.109
Mof_C 	C 	0.2376	0.796	0.8429	0.135
Mof_C 	C 	0.5925	0.718	0.3842	0.152
_end
