# CIF file generated by openbabel 3.1.0, see https://openbabel.org
data_I
_chemical_name_common 'ja907023c_si_004_clean'
_cell_length_a 20.0664
_cell_length_b 20.0662
_cell_length_c 20.0662
_cell_angle_alpha 109.471
_cell_angle_beta 109.471
_cell_angle_gamma 109.471
_space_group_name_H-M_alt 'P 1'
_space_group_name_Hall 'P 1'
loop_
    _symmetry_equiv_pos_as_xyz
    x,y,z
loop_
    _atom_site_label
    _atom_site_type_symbol
    _atom_site_fract_x
    _atom_site_fract_y
    _atom_site_fract_z
    _atom_site_occupancy
    Co1      Co       0.50000    0.50000    0.50000    1.000
    Co2      Co       0.50000    0.00000    0.00000    1.000
    Co3      Co       0.00000    0.00000    0.50000    1.000
    Co4      Co       0.00000    0.50000    0.00000    1.000
    H1       H        0.51310    0.89020    0.09030    1.000
    H2       H        0.25530    0.36000    0.33370    1.000
    H3       H        0.10980    0.62290    0.20010    1.000
    H4       H        0.89020    0.37710    0.79990    1.000
    H5       H        0.14910    0.27260    0.33610    1.000
    H6       H        0.10210    0.80330    0.38220    1.000
    H7       H        0.10980    0.90970    0.48690    1.000
    H8       H        0.92160    0.66630    0.02630    1.000
    H9       H        0.81300    0.87650    0.14910    1.000
    H10      H        0.10470    0.02630    0.36000    1.000
    H11      H        0.70120    0.42110    0.80330    1.000
    H12      H        0.28010    0.38220    0.57890    1.000
    H13      H        0.74470    0.07840    0.10470    1.000
    H14      H        0.90970    0.48690    0.10980    1.000
    H15      H        0.33370    0.25530    0.36000    1.000
    H16      H        0.87650    0.06350    0.72740    1.000
    H17      H        0.07840    0.10470    0.74470    1.000
    H18      H        0.62290    0.20010    0.10980    1.000
    H19      H        0.10210    0.71990    0.29880    1.000
    H20      H        0.48690    0.57720    0.37710    1.000
    H21      H        0.07840    0.33370    0.97370    1.000
    H22      H        0.48690    0.10980    0.90970    1.000
    H23      H        0.57720    0.37710    0.48690    1.000
    H24      H        0.09030    0.20010    0.57720    1.000
    H25      H        0.64000    0.89530    0.97370    1.000
    H26      H        0.89020    0.09030    0.51310    1.000
    H27      H        0.93650    0.27260    0.12350    1.000
    H28      H        0.29880    0.10210    0.71990    1.000
    H29      H        0.42280    0.90970    0.79990    1.000
    H30      H        0.51310    0.42280    0.62290    1.000
    H31      H        0.42110    0.71990    0.61780    1.000
    H32      H        0.33610    0.06350    0.18700    1.000
    H33      H        0.37710    0.79990    0.89020    1.000
    H34      H        0.66630    0.74470    0.64000    1.000
    H35      H        0.02630    0.92160    0.66630    1.000
    H36      H        0.27260    0.33610    0.14910    1.000
    H37      H        0.28010    0.70120    0.89790    1.000
    H38      H        0.57890    0.19670    0.29880    1.000
    H39      H        0.66630    0.02630    0.92160    1.000
    H40      H        0.64000    0.66630    0.74470    1.000
    H41      H        0.09030    0.51310    0.89020    1.000
    H42      H        0.12350    0.93650    0.27260    1.000
    H43      H        0.29880    0.57890    0.19670    1.000
    H44      H        0.61780    0.89790    0.19670    1.000
    H45      H        0.71990    0.61780    0.42110    1.000
    H46      H        0.57720    0.09030    0.20010    1.000
    H47      H        0.66390    0.85090    0.72740    1.000
    H48      H        0.72740    0.66390    0.85090    1.000
    H49      H        0.72740    0.87650    0.06350    1.000
    H50      H        0.89530    0.25530    0.92160    1.000
    H51      H        0.19670    0.61780    0.89790    1.000
    H52      H        0.10470    0.74470    0.07840    1.000
    H53      H        0.18700    0.33610    0.06350    1.000
    H54      H        0.27260    0.12350    0.93650    1.000
    H55      H        0.85090    0.72740    0.66390    1.000
    H56      H        0.36000    0.10470    0.02630    1.000
    H57      H        0.42110    0.80330    0.70120    1.000
    H58      H        0.61780    0.42110    0.71990    1.000
    H59      H        0.97370    0.64000    0.89530    1.000
    H60      H        0.74470    0.64000    0.66630    1.000
    H61      H        0.89790    0.19670    0.61780    1.000
    H62      H        0.33370    0.97370    0.07840    1.000
    H63      H        0.20010    0.10980    0.62290    1.000
    H64      H        0.42280    0.62290    0.51310    1.000
    H65      H        0.06350    0.72740    0.87650    1.000
    H66      H        0.79990    0.42280    0.90970    1.000
    H67      H        0.93650    0.81300    0.66390    1.000
    H68      H        0.87650    0.14910    0.81300    1.000
    H69      H        0.57890    0.28010    0.38220    1.000
    H70      H        0.02630    0.36000    0.10470    1.000
    H71      H        0.90970    0.79990    0.42280    1.000
    H72      H        0.79990    0.89020    0.37710    1.000
    H73      H        0.20010    0.57720    0.09030    1.000
    H74      H        0.36000    0.33370    0.25530    1.000
    H75      H        0.37710    0.48690    0.57720    1.000
    H76      H        0.38220    0.57890    0.28010    1.000
    H77      H        0.12350    0.85090    0.18700    1.000
    H78      H        0.33610    0.14910    0.27260    1.000
    H79      H        0.62290    0.51310    0.42280    1.000
    H80      H        0.14910    0.81300    0.87650    1.000
    H81      H        0.80330    0.38220    0.10210    1.000
    H82      H        0.97370    0.07840    0.33370    1.000
    H83      H        0.92160    0.89530    0.25530    1.000
    H84      H        0.85090    0.18700    0.12350    1.000
    H85      H        0.80330    0.70120    0.42110    1.000
    H86      H        0.81300    0.66390    0.93650    1.000
    H87      H        0.66390    0.93650    0.81300    1.000
    H88      H        0.38220    0.10210    0.80330    1.000
    H89      H        0.89530    0.97370    0.64000    1.000
    H90      H        0.06350    0.18700    0.33610    1.000
    H91      H        0.25530    0.92160    0.89530    1.000
    H92      H        0.71990    0.29880    0.10210    1.000
    H93      H        0.19670    0.29880    0.57890    1.000
    H94      H        0.89790    0.28010    0.70120    1.000
    H95      H        0.18700    0.12350    0.85090    1.000
    H96      H        0.70120    0.89790    0.28010    1.000
    C1       C        0.20445    0.31788    0.45773    1.000
    C2       C        0.89327    0.33292    0.80563    1.000
    C3       C        0.62052    0.47144    0.72728    1.000
    C4       C        0.61556    0.74054    0.63324    1.000
    C5       C        0.89270    0.01768    0.63324    1.000
    C6       C        0.63324    0.89270    0.01768    1.000
    C7       C        0.27272    0.74416    0.89324    1.000
    C8       C        0.33292    0.43965    0.52729    1.000
    C9       C        0.25584    0.52856    0.14908    1.000
    C10      C        0.54227    0.86015    0.74672    1.000
    C11      C        0.38594    0.19800    0.31374    1.000
    C12      C        0.56035    0.47271    0.66708    1.000
    C13      C        0.68626    0.61406    0.80200    1.000
    C14      C        0.61406    0.80200    0.68626    1.000
    C15      C        0.68212    0.88657    0.13985    1.000
    C16      C        0.85092    0.74416    0.47144    1.000
    C17      C        0.66708    0.56035    0.47271    1.000
    C18      C        0.08764    0.19437    0.52729    1.000
    C19      C        0.88426    0.19800    0.81206    1.000
    C20      C        0.91236    0.80563    0.47271    1.000
    C21      C        0.52729    0.08764    0.19437    1.000
    C22      C        0.13985    0.25328    0.45773    1.000
    C23      C        0.10673    0.91236    0.43965    1.000
    C24      C        0.61406    0.92780    0.81206    1.000
    C25      C        0.19437    0.10673    0.66708    1.000
    C26      C        0.86015    0.74672    0.54227    1.000
    C27      C        0.27272    0.37948    0.52856    1.000
    C28      C        0.25946    0.87502    0.89270    1.000
    C29      C        0.33292    0.80563    0.89327    1.000
    C30      C        0.80563    0.47271    0.91236    1.000
    C31      C        0.72728    0.25584    0.10676    1.000
    C32      C        0.80200    0.18794    0.11574    1.000
    C33      C        0.10676    0.72728    0.25584    1.000
    C34      C        0.43965    0.10673    0.91236    1.000
    C35      C        0.61556    0.98232    0.87502    1.000
    C36      C        0.74416    0.89324    0.27272    1.000
    C37      C        0.74054    0.12498    0.10730    1.000
    C38      C        0.68212    0.54227    0.79555    1.000
    C39      C        0.98232    0.87502    0.61556    1.000
    C40      C        0.31788    0.45773    0.20445    1.000
    C41      C        0.87502    0.89270    0.25946    1.000
    C42      C        0.19800    0.81206    0.88426    1.000
    C43      C        0.10730    0.98232    0.36676    1.000
    C44      C        0.98232    0.36676    0.10730    1.000
    C45      C        0.89324    0.27272    0.74416    1.000
    C46      C        0.92780    0.31374    0.11574    1.000
    C47      C        0.25946    0.36676    0.38444    1.000
    C48      C        0.54227    0.79555    0.68212    1.000
    C49      C        0.43965    0.52729    0.33292    1.000
    C50      C        0.86015    0.31788    0.11343    1.000
    C51      C        0.81206    0.61406    0.92780    1.000
    C52      C        0.07220    0.18794    0.38594    1.000
    C53      C        0.31374    0.38594    0.19800    1.000
    C54      C        0.10730    0.74054    0.12498    1.000
    C55      C        0.36676    0.38444    0.25946    1.000
    C56      C        0.85092    0.37948    0.10676    1.000
    C57      C        0.62052    0.89324    0.14908    1.000
    C58      C        0.88426    0.07220    0.68626    1.000
    C59      C        0.79555    0.68212    0.54227    1.000
    C60      C        0.52856    0.14908    0.25584    1.000
    C61      C        0.01768    0.12498    0.38444    1.000
    C62      C        0.18794    0.11574    0.80200    1.000
    C63      C        0.92780    0.81206    0.61406    1.000
    C64      C        0.88657    0.13985    0.68212    1.000
    C65      C        0.20445    0.74672    0.88657    1.000
    C66      C        0.38594    0.07220    0.18794    1.000
    C67      C        0.19800    0.31374    0.38594    1.000
    C68      C        0.08764    0.56035    0.89327    1.000
    C69      C        0.88657    0.20445    0.74672    1.000
    C70      C        0.45773    0.20445    0.31788    1.000
    C71      C        0.74672    0.54227    0.86015    1.000
    C72      C        0.10676    0.85092    0.37948    1.000
    C73      C        0.36676    0.10730    0.98232    1.000
    C74      C        0.11574    0.80200    0.18794    1.000
    C75      C        0.37948    0.52856    0.27272    1.000
    C76      C        0.91236    0.43965    0.10673    1.000
    C77      C        0.63324    0.61556    0.74054    1.000
    C78      C        0.19437    0.52729    0.08764    1.000
    C79      C        0.47271    0.66708    0.56035    1.000
    C80      C        0.66708    0.19437    0.10673    1.000
    C81      C        0.14908    0.62052    0.89324    1.000
    C82      C        0.25584    0.10676    0.72728    1.000
    C83      C        0.45773    0.13985    0.25328    1.000
    C84      C        0.72728    0.62052    0.47144    1.000
    C85      C        0.14908    0.25584    0.52856    1.000
    C86      C        0.47144    0.72728    0.62052    1.000
    C87      C        0.01768    0.63324    0.89270    1.000
    C88      C        0.18794    0.38594    0.07220    1.000
    C89      C        0.74054    0.63324    0.61556    1.000
    C90      C        0.87502    0.61556    0.98232    1.000
    C91      C        0.47144    0.85092    0.74416    1.000
    C92      C        0.52856    0.27272    0.37948    1.000
    C93      C        0.31788    0.11343    0.86015    1.000
    C94      C        0.74672    0.88657    0.20445    1.000
    C95      C        0.31374    0.11574    0.92780    1.000
    C96      C        0.11343    0.86015    0.31788    1.000
    C97      C        0.56035    0.89327    0.08764    1.000
    C98      C        0.13985    0.68212    0.88657    1.000
    C99      C        0.74416    0.47144    0.85092    1.000
    C100     C        0.80563    0.89327    0.33292    1.000
    C101     C        0.11574    0.92780    0.31374    1.000
    C102     C        0.07220    0.68626    0.88426    1.000
    C103     C        0.52729    0.33292    0.43965    1.000
    C104     C        0.38444    0.01768    0.12498    1.000
    C105     C        0.38444    0.25946    0.36676    1.000
    C106     C        0.89327    0.08764    0.56035    1.000
    C107     C        0.25328    0.45773    0.13985    1.000
    C108     C        0.68626    0.88426    0.07220    1.000
    C109     C        0.10673    0.66708    0.19437    1.000
    C110     C        0.47271    0.91236    0.80563    1.000
    C111     C        0.80200    0.68626    0.61406    1.000
    C112     C        0.81206    0.88426    0.19800    1.000
    C113     C        0.25328    0.11343    0.79555    1.000
    C114     C        0.89270    0.25946    0.87502    1.000
    C115     C        0.37948    0.10676    0.85092    1.000
    C116     C        0.12498    0.38444    0.01768    1.000
    C117     C        0.89324    0.14908    0.62052    1.000
    C118     C        0.12498    0.10730    0.74054    1.000
    C119     C        0.79555    0.25328    0.11343    1.000
    C120     C        0.11343    0.79555    0.25328    1.000
    N1       N        0.02607    0.56885    0.89758    1.000
    N2       N        0.97393    0.43115    0.10242    1.000
    N3       N        0.10242    0.97393    0.43115    1.000
    N4       N        0.56885    0.89758    0.02607    1.000
    N5       N        0.32873    0.43115    0.45722    1.000
    N6       N        0.45722    0.02607    0.12849    1.000
    N7       N        0.87151    0.89758    0.32873    1.000
    N8       N        0.56885    0.54278    0.67127    1.000
    N9       N        0.43115    0.10242    0.97393    1.000
    N10      N        0.10242    0.67127    0.12849    1.000
    N11      N        0.43115    0.45722    0.32873    1.000
    N12      N        0.02607    0.12849    0.45722    1.000
    N13      N        0.12849    0.10242    0.67127    1.000
    N14      N        0.45722    0.32873    0.43115    1.000
    N15      N        0.87151    0.54278    0.97393    1.000
    N16      N        0.54278    0.67127    0.56885    1.000
    N17      N        0.32873    0.87151    0.89758    1.000
    N18      N        0.67127    0.12849    0.10242    1.000
    N19      N        0.97393    0.87151    0.54278    1.000
    N20      N        0.67127    0.56885    0.54278    1.000
    N21      N        0.54278    0.97393    0.87151    1.000
    N22      N        0.89758    0.32873    0.87151    1.000
    N23      N        0.12849    0.45722    0.02607    1.000
    N24      N        0.89758    0.02607    0.56885    1.000
    O1       O        0.10113    0.03376    0.48679    1.000
    O2       O        0.54697    0.61434    0.51321    1.000
    O3       O        0.93263    0.54697    0.03376    1.000
    O4       O        0.06737    0.45303    0.96624    1.000
    O5       O        0.96624    0.06737    0.45303    1.000
    O6       O        0.03376    0.48679    0.10113    1.000
    O7       O        0.61434    0.06737    0.10113    1.000
    O8       O        0.61434    0.51321    0.54697    1.000
    O9       O        0.03376    0.93263    0.54697    1.000
    O10      O        0.45303    0.38566    0.48679    1.000
    O11      O        0.51321    0.54697    0.61434    1.000
    O12      O        0.48679    0.10113    0.03376    1.000
    O13      O        0.93263    0.89887    0.38566    1.000
    O14      O        0.06737    0.10113    0.61434    1.000
    O15      O        0.45303    0.96624    0.06737    1.000
    O16      O        0.38566    0.48679    0.45303    1.000
    O17      O        0.89887    0.96624    0.51321    1.000
    O18      O        0.10113    0.61434    0.06737    1.000
    O19      O        0.54697    0.03376    0.93263    1.000
    O20      O        0.96624    0.51321    0.89887    1.000
    O21      O        0.48679    0.45303    0.38566    1.000
    O22      O        0.89887    0.38566    0.93263    1.000
    O23      O        0.38566    0.93263    0.89887    1.000
    O24      O        0.51321    0.89887    0.96624    1.000
