data_functionalizedCrystal
_audit_creation_method	'EQeq! by Chris Wilmer'
_symmetry_space_group_name_H-M	'P1'
_symmetry_Int_Tables_number	1
_symmetry_cell_setting	triclinic
loop_
_symmetry_equiv_pos_as_xyz
  x,y,z
_cell_length_a	16.7705
_cell_length_b	16.7705
_cell_length_c	16.7705
_cell_angle_alpha	90
_cell_angle_beta	90
_cell_angle_gamma	90
loop_
_atom_site_label
_atom_site_type_symbol
_atom_site_fract_x
_atom_site_fract_y
_atom_site_fract_z
_atom_site_charge
Mof_O 	O 	0.98002	0.40658	0.69634	-0.468
Mof_O 	O 	0.48002	0.90658	0.19634	-0.492
Mof_O 	O 	0.01998	0.59342	0.69634	-0.822
Mof_O 	O 	0.51998	0.09342	0.19634	-0.741
Mof_O 	O 	0.01998	0.40658	0.30366	-0.841
Mof_O 	O 	0.51998	0.90658	0.80366	-0.48
Mof_O 	O 	0.98002	0.59342	0.30366	-0.453
Mof_O 	O 	0.48002	0.09342	0.80366	-0.727
Mof_O 	O 	0.69634	0.98002	0.40658	-0.468
Mof_O 	O 	0.19634	0.48002	0.90658	-0.492
Mof_O 	O 	0.69634	0.01998	0.59342	-0.822
Mof_O 	O 	0.19634	0.51998	0.09342	-0.741
Mof_O 	O 	0.30366	0.01998	0.40658	-0.841
Mof_O 	O 	0.80366	0.51998	0.90658	-0.48
Mof_O 	O 	0.30366	0.98002	0.59342	-0.453
Mof_O 	O 	0.80366	0.48002	0.09342	-0.727
Mof_O 	O 	0.40658	0.69634	0.98002	-0.468
Mof_O 	O 	0.90658	0.19634	0.48002	-0.492
Mof_O 	O 	0.59342	0.69634	0.01998	-0.822
Mof_O 	O 	0.09342	0.19634	0.51998	-0.741
Mof_O 	O 	0.40658	0.30366	0.01998	-0.841
Mof_O 	O 	0.90658	0.80366	0.51998	-0.48
Mof_O 	O 	0.59342	0.30366	0.98002	-0.453
Mof_O 	O 	0.09342	0.80366	0.48002	-0.727
Mof_O 	O 	0.40658	0.98002	0.69634	-0.468
Mof_O 	O 	0.90658	0.48002	0.19634	-0.492
Mof_O 	O 	0.59342	0.01998	0.69634	-0.822
Mof_O 	O 	0.09342	0.51998	0.19634	-0.742
Mof_O 	O 	0.40658	0.01998	0.30366	-0.842
Mof_O 	O 	0.90658	0.51998	0.80366	-0.481
Mof_O 	O 	0.59342	0.98002	0.30366	-0.454
Mof_O 	O 	0.09342	0.48002	0.80366	-0.728
Mof_O 	O 	0.98002	0.69634	0.40658	-0.469
Mof_O 	O 	0.48002	0.19634	0.90658	-0.493
Mof_O 	O 	0.01998	0.69634	0.59342	-0.823
Mof_O 	O 	0.51998	0.19634	0.09342	-0.742
Mof_O 	O 	0.01998	0.30366	0.40658	-0.842
Mof_O 	O 	0.51998	0.80366	0.90658	-0.481
Mof_O 	O 	0.98002	0.30366	0.59342	-0.454
Mof_O 	O 	0.48002	0.80366	0.09342	-0.728
Mof_O 	O 	0.69634	0.40658	0.98002	-0.469
Mof_O 	O 	0.19634	0.90658	0.48002	-0.493
Mof_O 	O 	0.69634	0.59342	0.01998	-0.823
Mof_O 	O 	0.19634	0.09342	0.51998	-0.742
Mof_O 	O 	0.30366	0.40658	0.01998	-0.842
Mof_O 	O 	0.80366	0.90658	0.51998	-0.481
Mof_O 	O 	0.30366	0.59342	0.98002	-0.454
Mof_O 	O 	0.80366	0.09342	0.48002	-0.728
Mof_Al	Al	1.8747e-33	0.5	0.5	2.873
Mof_Al	Al	0.5	0	-0	0.458
Mof_Al	Al	0.5	0	0.5	2.873
Mof_Al	Al	-0	0.5	-0	0.458
Mof_Al	Al	0.5	0.5	-0	2.873
Mof_Al	Al	1.8747e-33	0	0.5	0.458
Mof_Al	Al	-2.5399e-33	0.5	0.75	2.061
Mof_Al	Al	-1.73863e-33	0.5	0.25	1.941
Mof_Al	Al	0.75	0	0.5	2.061
Mof_Al	Al	0.25	0	0.5	1.941
Mof_Al	Al	0.5	0.75	-0	2.061
Mof_Al	Al	0.5	0.25	-0	1.941
Mof_Al	Al	0.5	-5.35195e-33	0.75	2.061
Mof_Al	Al	0.5	0	0.25	1.941
Mof_Al	Al	-3.47725e-33	0.75	0.5	2.061
Mof_Al	Al	-3.47725e-33	0.25	0.5	1.941
Mof_Al	Al	0.75	0.5	-0	2.061
Mof_Al	Al	0.25	0.5	-0	1.941
Mof_P 	P 	0.93327	0.3769	0.6231	0.763
Mof_O 	O 	0.84816	0.35684	0.64316	-0.21
Mof_O 	O 	0.93621	0.44192	0.55808	-0.773
Mof_P 	P 	0.43327	0.8769	0.1231	0.655
Mof_O 	O 	0.34816	0.85684	0.14316	-0.259
Mof_O 	O 	0.43621	0.94192	0.05808	-0.355
Mof_P 	P 	0.06673	0.6231	0.6231	0.782
Mof_O 	O 	0.15184	0.64316	0.64316	-0.257
Mof_O 	O 	0.06379	0.55808	0.55808	-1.069
Mof_P 	P 	0.56673	0.1231	0.1231	0.648
Mof_O 	O 	0.65184	0.14316	0.14316	-0.367
Mof_O 	O 	0.56379	0.05808	0.05808	-0.669
Mof_P 	P 	0.06673	0.3769	0.3769	0.769
Mof_O 	O 	0.15184	0.35684	0.35684	-0.314
Mof_O 	O 	0.06379	0.44192	0.44192	-1.065
Mof_P 	P 	0.56673	0.8769	0.8769	0.661
Mof_O 	O 	0.65184	0.85684	0.85684	-0.04
Mof_O 	O 	0.56379	0.94192	0.94192	-0.001
Mof_P 	P 	0.93327	0.6231	0.3769	0.763
Mof_O 	O 	0.84816	0.64316	0.35684	-0.21
Mof_O 	O 	0.93621	0.55808	0.44192	-0.773
Mof_P 	P 	0.43327	0.1231	0.8769	0.655
Mof_O 	O 	0.34816	0.14316	0.85684	-0.259
Mof_O 	O 	0.43621	0.05808	0.94192	-0.355
Mof_P 	P 	0.6231	0.93327	0.3769	0.763
Mof_O 	O 	0.64316	0.84816	0.35684	-0.21
Mof_O 	O 	0.55808	0.93621	0.44192	-0.773
Mof_P 	P 	0.1231	0.43327	0.8769	0.655
Mof_O 	O 	0.14316	0.34816	0.85684	-0.259
Mof_O 	O 	0.05808	0.43621	0.94192	-0.355
Mof_P 	P 	0.6231	0.06673	0.6231	0.782
Mof_O 	O 	0.64316	0.15184	0.64316	-0.257
Mof_O 	O 	0.55808	0.06379	0.55808	-1.069
Mof_P 	P 	0.1231	0.56673	0.1231	0.648
Mof_O 	O 	0.14316	0.65184	0.14316	-0.367
Mof_O 	O 	0.05808	0.56379	0.05808	-0.669
Mof_P 	P 	0.3769	0.06673	0.3769	0.769
Mof_O 	O 	0.35684	0.15184	0.35684	-0.314
Mof_O 	O 	0.44192	0.06379	0.44192	-1.065
Mof_P 	P 	0.8769	0.56673	0.8769	0.661
Mof_O 	O 	0.85684	0.65184	0.85684	-0.04
Mof_O 	O 	0.94192	0.56379	0.94192	-0.001
Mof_P 	P 	0.3769	0.93327	0.6231	0.763
Mof_O 	O 	0.35684	0.84816	0.64316	-0.21
Mof_O 	O 	0.44192	0.93621	0.55808	-0.773
Mof_P 	P 	0.8769	0.43327	0.1231	0.655
Mof_O 	O 	0.85684	0.34816	0.14316	-0.259
Mof_O 	O 	0.94192	0.43621	0.05808	-0.355
Mof_P 	P 	0.3769	0.6231	0.93327	0.763
Mof_O 	O 	0.35684	0.64316	0.84816	-0.21
Mof_O 	O 	0.44192	0.55808	0.93621	-0.773
Mof_P 	P 	0.8769	0.1231	0.43327	0.655
Mof_O 	O 	0.85684	0.14316	0.34816	-0.259
Mof_O 	O 	0.94192	0.05808	0.43621	-0.355
Mof_P 	P 	0.6231	0.6231	0.06673	0.782
Mof_O 	O 	0.64316	0.64316	0.15184	-0.257
Mof_O 	O 	0.55808	0.55808	0.06379	-1.069
Mof_P 	P 	0.1231	0.1231	0.56673	0.648
Mof_O 	O 	0.14316	0.14316	0.65184	-0.367
Mof_O 	O 	0.05808	0.05808	0.56379	-0.669
Mof_P 	P 	0.3769	0.3769	0.06673	0.769
Mof_O 	O 	0.35684	0.35684	0.15184	-0.314
Mof_O 	O 	0.44192	0.44192	0.06379	-1.065
Mof_P 	P 	0.8769	0.8769	0.56673	0.661
Mof_O 	O 	0.85684	0.85684	0.65184	-0.04
Mof_O 	O 	0.94192	0.94192	0.56379	-0.001
Mof_P 	P 	0.6231	0.3769	0.93327	0.763
Mof_O 	O 	0.64316	0.35684	0.84816	-0.21
Mof_O 	O 	0.55808	0.44192	0.93621	-0.773
Mof_P 	P 	0.1231	0.8769	0.43327	0.655
Mof_O 	O 	0.14316	0.85684	0.34816	-0.259
Mof_O 	O 	0.05808	0.94192	0.43621	-0.355
_end
