# CIF file generated by openbabel 3.1.0, see https://openbabel.org
data_I
_chemical_name_common 'SEFNIB_charged'
_cell_length_a 7.5918
_cell_length_b 10.0452
_cell_length_c 31.6961
_cell_angle_alpha 87.4062
_cell_angle_beta 83.1219
_cell_angle_gamma 67.7977
_space_group_name_H-M_alt 'P 1'
_space_group_name_Hall 'P 1'
loop_
    _symmetry_equiv_pos_as_xyz
    x,y,z
loop_
    _atom_site_label
    _atom_site_type_symbol
    _atom_site_fract_x
    _atom_site_fract_y
    _atom_site_fract_z
    _atom_site_occupancy
    Zn1      Zn       0.70000    0.19679    0.53147    1.000
    Zn2      Zn       0.42826    0.80321    0.46853    1.000
    Zn3      Zn       0.48147    0.69679    0.96853    1.000
    Zn4      Zn       0.14679    0.30321    0.03147    1.000
    H1       H        0.99950    0.01060    0.08960    1.000
    H2       H        0.92630    0.77160    0.40580    1.000
    H3       H        0.16440    0.56360    0.15180    1.000
    H4       H        0.03480    0.60920    0.08920    1.000
    H5       H        0.02530    0.80240    0.24480    1.000
    H6       H        0.11830    0.91800    0.23520    1.000
    H7       H        0.18850    0.02360    0.30980    1.000
    H8       H        0.02640    0.12220    0.37440    1.000
    H9       H        0.12870    0.97340    0.15260    1.000
    H10      H        0.84630    0.93320    0.04060    1.000
    H11      H        0.86450    0.77260    0.04060    1.000
    H12      H        0.07910    0.66700    0.34160    1.000
    H13      H        0.30030    0.65700    0.27900    1.000
    H14      H        0.37920    0.78080    0.27180    1.000
    H15      H        0.80110    0.96640    0.45100    1.000
    H16      H        0.78420    0.11780    0.43240    1.000
    H17      H        0.37830    0.75180    0.19440    1.000
    H18      H        0.29810    0.63100    0.20580    1.000
    H19      H        0.09970    0.98940    0.91040    1.000
    H20      H        0.10370    0.22840    0.59420    1.000
    H21      H        0.87980    0.43640    0.84820    1.000
    H22      H        0.73320    0.39080    0.91080    1.000
    H23      H        0.07250    0.19760    0.75520    1.000
    H24      H        0.27150    0.08200    0.76480    1.000
    H25      H        0.52190    0.97640    0.69020    1.000
    H26      H        0.52300    0.87780    0.62560    1.000
    H27      H        0.25470    0.02660    0.84740    1.000
    H28      H        0.82010    0.06680    0.95940    1.000
    H29      H        0.67770    0.22740    0.95940    1.000
    H30      H        0.08770    0.33300    0.65840    1.000
    H31      H        0.23630    0.34300    0.72100    1.000
    H32      H        0.43180    0.21920    0.72820    1.000
    H33      H        0.21850    0.03360    0.54900    1.000
    H34      H        0.33440    0.88220    0.56760    1.000
    H35      H        0.32450    0.24820    0.80560    1.000
    H36      H        0.13490    0.36900    0.79420    1.000
    H37      H        0.33910    0.51060    0.41040    1.000
    H38      H        0.58210    0.27160    0.09420    1.000
    H39      H        0.56620    0.06360    0.34820    1.000
    H40      H        0.37400    0.10920    0.41080    1.000
    H41      H        0.52010    0.30240    0.25520    1.000
    H42      H        0.60350    0.41800    0.26480    1.000
    H43      H        0.74830    0.52360    0.19020    1.000
    H44      H        0.65080    0.62220    0.12560    1.000
    H45      H        0.53130    0.47340    0.34740    1.000
    H46      H        0.13690    0.43320    0.45940    1.000
    H47      H        0.15510    0.27260    0.45940    1.000
    H48      H        0.67070    0.16700    0.15840    1.000
    H49      H        0.82930    0.15700    0.22100    1.000
    H50      H        0.90100    0.28080    0.22820    1.000
    H51      H        0.50210    0.46640    0.04900    1.000
    H52      H        0.46660    0.61780    0.06760    1.000
    H53      H        0.82270    0.25180    0.30560    1.000
    H54      H        0.75390    0.13100    0.29420    1.000
    H55      H        0.26010    0.48940    0.58960    1.000
    H56      H        0.94790    0.72840    0.90580    1.000
    H57      H        0.97800    0.93640    0.65180    1.000
    H58      H        0.89400    0.89080    0.58920    1.000
    H59      H        0.07770    0.69760    0.74480    1.000
    H60      H        0.28630    0.58200    0.73520    1.000
    H61      H        0.46210    0.47640    0.80980    1.000
    H62      H        0.39860    0.37780    0.87440    1.000
    H63      H        0.35210    0.52660    0.65260    1.000
    H64      H        0.02950    0.56680    0.54060    1.000
    H65      H        0.88710    0.72740    0.54060    1.000
    H66      H        0.99610    0.83300    0.84160    1.000
    H67      H        0.20730    0.84300    0.77900    1.000
    H68      H        0.41000    0.71920    0.77180    1.000
    H69      H        0.01750    0.53360    0.95100    1.000
    H70      H        0.15200    0.38220    0.93240    1.000
    H71      H        0.38010    0.74820    0.69440    1.000
    H72      H        0.17910    0.86900    0.70580    1.000
    C1       C        0.09060    0.80334    0.00506    1.000
    C2       C        0.02143    0.02394    0.46480    1.000
    C3       C        0.03391    0.92052    0.10246    1.000
    C4       C        0.97870    0.82180    0.38620    1.000
    C5       C        0.00665    0.81326    0.08384    1.000
    C6       C        0.96425    0.95444    0.39526    1.000
    C7       C        0.13306    0.65450    0.13958    1.000
    C8       C        0.05533    0.68210    0.10244    1.000
    C9       C        0.14578    0.81610    0.23934    1.000
    C10      C        0.13575    0.97168    0.32882    1.000
    C11      C        0.03958    0.02980    0.36744    1.000
    C12      C        0.11184    0.89772    0.14000    1.000
    C13      C        0.93519    0.83442    0.04260    1.000
    C14      C        0.07179    0.75878    0.34764    1.000
    C15      C        0.26320    0.76052    0.27688    1.000
    C16      C        0.87318    0.02050    0.43674    1.000
    C17      C        0.26143    0.73284    0.19970    1.000
    C18      C        0.89900    0.19666    0.99494    1.000
    C19      C        0.51017    0.97606    0.53520    1.000
    C20      C        0.05689    0.07948    0.89754    1.000
    C21      C        0.18670    0.17820    0.61380    1.000
    C22      C        0.90375    0.18674    0.91616    1.000
    C23      C        0.31395    0.04556    0.60474    1.000
    C24      C        0.92714    0.34550    0.86042    1.000
    C25      C        0.83987    0.31790    0.89756    1.000
    C26      C        0.20122    0.18390    0.76066    1.000
    C27      C        0.43625    0.02832    0.67118    1.000
    C28      C        0.43682    0.97020    0.63256    1.000
    C29      C        0.14956    0.10228    0.86000    1.000
    C30      C        0.81221    0.16558    0.95740    1.000
    C31      C        0.17821    0.24122    0.65236    1.000
    C32      C        0.30060    0.23948    0.72312    1.000
    C33      C        0.33042    0.97950    0.56326    1.000
    C34      C        0.19397    0.26716    0.80030    1.000
    C35      C        0.34566    0.30334    0.49494    1.000
    C36      C        0.73623    0.52394    0.03520    1.000
    C37      C        0.38637    0.42052    0.39754    1.000
    C38      C        0.61490    0.32180    0.11380    1.000
    C39      C        0.34049    0.31326    0.41616    1.000
    C40      C        0.60951    0.45444    0.10474    1.000
    C41      C        0.52264    0.15450    0.36042    1.000
    C42      C        0.40777    0.18210    0.39756    1.000
    C43      C        0.63512    0.31610    0.26066    1.000
    C44      C        0.71457    0.47168    0.17118    1.000
    C45      C        0.65702    0.52980    0.13256    1.000
    C46      C        0.50184    0.39772    0.36000    1.000
    C47      C        0.22779    0.33442    0.45740    1.000
    C48      C        0.66943    0.25878    0.15236    1.000
    C49      C        0.79008    0.26052    0.22312    1.000
    C50      C        0.55992    0.52050    0.06326    1.000
    C51      C        0.71113    0.23284    0.30030    1.000
    C52      C        0.14394    0.69666    0.50506    1.000
    C53      C        0.29537    0.47606    0.96480    1.000
    C54      C        0.20443    0.57948    0.60246    1.000
    C55      C        0.05050    0.67820    0.88620    1.000
    C56      C        0.06991    0.68674    0.58384    1.000
    C57      C        0.16869    0.54556    0.89526    1.000
    C58      C        0.03756    0.84550    0.63958    1.000
    C59      C        0.98743    0.81790    0.60244    1.000
    C60      C        0.21188    0.68390    0.73934    1.000
    C61      C        0.35743    0.52832    0.82882    1.000
    C62      C        0.31938    0.47020    0.86744    1.000
    C63      C        0.25956    0.60228    0.64000    1.000
    C64      C        0.01961    0.66558    0.54260    1.000
    C65      C        0.08057    0.74122    0.84764    1.000
    C66      C        0.27372    0.73948    0.77688    1.000
    C67      C        0.14368    0.47950    0.93674    1.000
    C68      C        0.24427    0.76716    0.69970    1.000
    N1       N        0.16699    0.76364    0.16018    1.000
    N2       N        0.15277    0.82862    0.31844    1.000
    N3       N        0.69222    0.22106    0.61610    1.000
    N4       N        0.09081    0.23636    0.83982    1.000
    N5       N        0.29983    0.17138    0.68156    1.000
    N6       N        0.52938    0.77894    0.38390    1.000
    N7       N        0.57717    0.26364    0.33982    1.000
    N8       N        0.72121    0.32862    0.18156    1.000
    N9       N        0.55832    0.72106    0.88390    1.000
    N10      N        0.18063    0.73636    0.66018    1.000
    N11      N        0.23139    0.67138    0.81844    1.000
    N12      N        0.16328    0.27894    0.11610    1.000
    O1       O        0.95864    0.07792    0.50096    1.000
    O2       O        0.19370    0.97558    0.44984    1.000
    O3       O        0.26118    0.76554    0.01290    1.000
    O4       O        0.83304    0.14308    0.59224    1.000
    O5       O        0.03525    0.81826    0.96944    1.000
    O6       O        0.54707    0.29598    0.59828    1.000
    O7       O        0.78482    0.37546    0.52830    1.000
    O8       O        0.69974    0.21850    0.65402    1.000
    O9       O        0.53752    0.92208    0.49904    1.000
    O10      O        0.61912    0.02442    0.55016    1.000
    O11      O        0.03962    0.23446    0.98710    1.000
    O12      O        0.56836    0.85692    0.40776    1.000
    O13      O        0.82295    0.18174    0.03056    1.000
    O14      O        0.44133    0.70402    0.40172    1.000
    O15      O        0.68858    0.62454    0.47170    1.000
    O16      O        0.57226    0.78150    0.34598    1.000
    O17      O        0.70960    0.57792    0.99904    1.000
    O18      O        0.89354    0.47558    0.05016    1.000
    O19      O        0.52408    0.26554    0.48710    1.000
    O20      O        0.67528    0.64308    0.90776    1.000
    O21      O        0.25469    0.31826    0.53056    1.000
    O22      O        0.39535    0.79598    0.90172    1.000
    O23      O        0.56312    0.87546    0.97170    1.000
    O24      O        0.60376    0.71850    0.84598    1.000
    O25      O        0.28656    0.42208    0.00096    1.000
    O26      O        0.41928    0.52442    0.94984    1.000
    O27      O        0.27672    0.73446    0.51290    1.000
    O28      O        0.22612    0.35692    0.09224    1.000
    O29      O        0.10351    0.68174    0.46944    1.000
    O30      O        0.09305    0.20402    0.09828    1.000
    O31      O        0.41028    0.12454    0.02830    1.000
    O32      O        0.16824    0.28150    0.15402    1.000
    N13      N        0.91965    0.41284    0.38666    1.000
    O33      O        0.00904    0.35006    0.35366    1.000
    O34      O        0.86138    0.34728    0.41576    1.000
    O35      O        0.89726    0.54134    0.39234    1.000
    N14      N        0.71915    0.58716    0.61334    1.000
    O36      O        0.71276    0.64994    0.64634    1.000
    O37      O        0.62442    0.65272    0.58424    1.000
    O38      O        0.83094    0.45866    0.60766    1.000
    N15      N        0.55631    0.91284    0.11334    1.000
    O39      O        0.61270    0.85006    0.14634    1.000
    O40      O        0.52714    0.84728    0.08424    1.000
    O41      O        0.53960    0.04134    0.10766    1.000
    N16      N        0.58249    0.08716    0.88666    1.000
    O42      O        0.60910    0.14994    0.85366    1.000
    O43      O        0.45866    0.15272    0.91576    1.000
    O44      O        0.68860    0.95866    0.89234    1.000
