# CIF file generated by openbabel 3.1.0, see https://openbabel.org
data_I
_chemical_name_common 'image0'
_cell_length_a 8.5947
_cell_length_b 13.187
_cell_length_c 9.6462
_cell_angle_alpha 90
_cell_angle_beta 96.496
_cell_angle_gamma 90
_space_group_name_H-M_alt 'P 1'
_space_group_name_Hall 'P 1'
loop_
    _symmetry_equiv_pos_as_xyz
    x,y,z
loop_
    _atom_site_label
    _atom_site_type_symbol
    _atom_site_fract_x
    _atom_site_fract_y
    _atom_site_fract_z
    _atom_site_occupancy
    Nd1      Nd       0.54956    0.26554    0.49658    1.000
    C1       C        0.54480    0.39050    0.74700    1.000
    C2       C        0.52670    0.45190    0.87610    1.000
    C3       C        0.62030    0.42730    0.00050    1.000
    C4       C        0.40730    0.52560    0.87290    1.000
    C5       C        0.76080    0.35830    0.99670    1.000
    C6       C        0.30310    0.55100    0.73840    1.000
    O1       O        0.54670    0.43350    0.63010    1.000
    O2       O        0.55370    0.29400    0.75850    1.000
    O3       O        0.78800    0.28830    0.08560    1.000
    O4       O        0.85320    0.37600    0.90370    1.000
    O5       O        0.35160    0.61580    0.65880    1.000
    O6       O        0.17170    0.50770    0.71900    1.000
    Nd2      Nd       0.95044    0.76554    0.00342    1.000
    C7       C        0.95520    0.89050    0.75300    1.000
    C8       C        0.97330    0.95190    0.62390    1.000
    C9       C        0.87970    0.92730    0.49950    1.000
    C10      C        0.09270    0.02560    0.62710    1.000
    C11      C        0.73920    0.85830    0.50330    1.000
    C12      C        0.19690    0.05100    0.76160    1.000
    O7       O        0.95330    0.93350    0.86990    1.000
    O8       O        0.94630    0.79400    0.74150    1.000
    O9       O        0.71200    0.78830    0.41440    1.000
    O10      O        0.64680    0.87600    0.59630    1.000
    O11      O        0.14840    0.11580    0.84120    1.000
    O12      O        0.32830    0.00770    0.78100    1.000
    Nd3      Nd       0.45044    0.73446    0.50342    1.000
    C13      C        0.45520    0.60950    0.25300    1.000
    C14      C        0.47330    0.54810    0.12390    1.000
    C15      C        0.37970    0.57270    0.99950    1.000
    C16      C        0.59270    0.47440    0.12710    1.000
    C17      C        0.23920    0.64170    0.00330    1.000
    C18      C        0.69690    0.44900    0.26160    1.000
    O13      O        0.45330    0.56650    0.36990    1.000
    O14      O        0.44630    0.70600    0.24150    1.000
    O15      O        0.21200    0.71170    0.91440    1.000
    O16      O        0.14680    0.62400    0.09630    1.000
    O17      O        0.64840    0.38420    0.34120    1.000
    O18      O        0.82830    0.49230    0.28100    1.000
    Nd4      Nd       0.04956    0.23446    0.99658    1.000
    C19      C        0.04480    0.10950    0.24700    1.000
    C20      C        0.02670    0.04810    0.37610    1.000
    C21      C        0.12030    0.07270    0.50050    1.000
    C22      C        0.90730    0.97440    0.37290    1.000
    C23      C        0.26080    0.14170    0.49670    1.000
    C24      C        0.80310    0.94900    0.23840    1.000
    O19      O        0.04670    0.06650    0.13010    1.000
    O20      O        0.05370    0.20600    0.25850    1.000
    O21      O        0.28800    0.21170    0.58560    1.000
    O22      O        0.35320    0.12400    0.40370    1.000
    O23      O        0.85160    0.88420    0.15880    1.000
    O24      O        0.67170    0.99230    0.21900    1.000
