# CIF file generated by openbabel 3.1.0, see https://openbabel.org
data_I
_chemical_name_common 'KIBDEF_clean'
_cell_length_a 9.1176
_cell_length_b 9.1176
_cell_length_c 14.5424
_cell_angle_alpha 79.7865
_cell_angle_beta 79.7864
_cell_angle_gamma 115.745
_space_group_name_H-M_alt 'P 1'
_space_group_name_Hall 'P 1'
loop_
    _symmetry_equiv_pos_as_xyz
    x,y,z
loop_
    _atom_site_label
    _atom_site_type_symbol
    _atom_site_fract_x
    _atom_site_fract_y
    _atom_site_fract_z
    _atom_site_occupancy
    Eu1      Eu       0.99051    0.24051    0.01898    1.000
    Eu2      Eu       0.75949    0.00949    0.48102    1.000
    Eu3      Eu       0.00949    0.75949    0.98102    1.000
    Eu4      Eu       0.24051    0.99051    0.51898    1.000
    H1       H        0.61420    0.18980    0.93340    1.000
    H2       H        0.45240    0.37680    0.93340    1.000
    H3       H        0.81020    0.38580    0.56660    1.000
    H4       H        0.62320    0.54760    0.56660    1.000
    H5       H        0.38580    0.81020    0.06660    1.000
    H6       H        0.54760    0.62320    0.06660    1.000
    H7       H        0.18980    0.61420    0.43340    1.000
    H8       H        0.37680    0.45240    0.43340    1.000
    C1       C        0.75403    0.43563    0.94154    1.000
    C2       C        0.60340    0.28580    0.93660    1.000
    C3       C        0.30443    0.12283    0.94154    1.000
    C4       C        0.46000    0.27760    0.93660    1.000
    C5       C        0.56437    0.24597    0.55846    1.000
    C6       C        0.71420    0.39660    0.56340    1.000
    C7       C        0.87717    0.69557    0.55846    1.000
    C8       C        0.72240    0.54000    0.56340    1.000
    C9       C        0.24597    0.56437    0.05846    1.000
    C10      C        0.39660    0.71420    0.06340    1.000
    C11      C        0.69557    0.87717    0.05846    1.000
    C12      C        0.54000    0.72240    0.06340    1.000
    C13      C        0.43563    0.75403    0.44154    1.000
    C14      C        0.28580    0.60340    0.43660    1.000
    C15      C        0.12283    0.30443    0.44154    1.000
    C16      C        0.27760    0.46000    0.43660    1.000
    C17      C        0.92460    0.07540    0.25000    1.000
    C18      C        0.82540    0.17460    0.25000    1.000
    C19      C        0.07540    0.92460    0.75000    1.000
    C20      C        0.17460    0.82540    0.75000    1.000
    O1       O        0.86595    0.40875    0.96710    1.000
    O2       O        0.76767    0.58167    0.92426    1.000
    O3       O        0.99120    0.06880    0.16920    1.000
    O4       O        0.16695    0.12415    0.96710    1.000
    O5       O        0.30807    0.99407    0.92426    1.000
    O6       O        0.83960    0.26200    0.16920    1.000
    O7       O        0.59125    0.13405    0.53290    1.000
    O8       O        0.41833    0.23233    0.57574    1.000
    O9       O        0.93120    0.00880    0.33080    1.000
    O10      O        0.87585    0.83305    0.53290    1.000
    O11      O        0.00593    0.69193    0.57574    1.000
    O12      O        0.73800    0.16040    0.33080    1.000
    O13      O        0.13405    0.59125    0.03290    1.000
    O14      O        0.23233    0.41833    0.07574    1.000
    O15      O        0.00880    0.93120    0.83080    1.000
    O16      O        0.83305    0.87585    0.03290    1.000
    O17      O        0.69193    0.00593    0.07574    1.000
    O18      O        0.16040    0.73800    0.83080    1.000
    O19      O        0.40875    0.86595    0.46710    1.000
    O20      O        0.58167    0.76767    0.42426    1.000
    O21      O        0.06880    0.99120    0.66920    1.000
    O22      O        0.12415    0.16695    0.46710    1.000
    O23      O        0.99407    0.30807    0.42426    1.000
    O24      O        0.26200    0.83960    0.66920    1.000
