data_functionalizedCrystal
_audit_creation_method	'EQeq! by Chris Wilmer'
_symmetry_space_group_name_H-M	'P1'
_symmetry_Int_Tables_number	1
_symmetry_cell_setting	triclinic
loop_
_symmetry_equiv_pos_as_xyz
  x,y,z
_cell_length_a	9.598
_cell_length_b	10.184
_cell_length_c	18.288
_cell_angle_alpha	102.759
_cell_angle_beta	96.644
_cell_angle_gamma	96.74
loop_
_atom_site_label
_atom_site_type_symbol
_atom_site_fract_x
_atom_site_fract_y
_atom_site_fract_z
_atom_site_charge
Mof_C 	C 	0.2302	0.7788	0.9149	0.317
Mof_C 	C 	0.7271	0.8308	0.9511	0.364
Mof_C 	C 	0.9195	0.866	0.0592	-0.119
Mof_H 	H 	0.8486	0.8854	0.0905	0.08
Mof_C 	C 	0.8823	0.8309	0.9808	0.011
Mof_C 	C 	0.9818	0.802	0.9347	-0.027
Mof_H 	H 	0.9551	0.7762	0.8813	0.071
Mof_C 	C 	0.1231	0.8101	0.9659	0.001
Mof_C 	C 	0.161	0.8446	0.0444	-0.124
Mof_H 	H 	0.257	0.849	0.0656	0.079
Mof_C 	C 	0.0586	0.873	0.0922	0.063
Mof_C 	C 	0.0987	0.911	0.1766	-0.026
Mof_C 	C 	0.1721	0.987	0.3351	0.082
Mof_C 	C 	0.2147	0.0285	0.4191	-0.038
Mof_C 	C 	0.3008	0.1095	0.5776	0.042
Mof_C 	C 	0.3484	0.1535	0.6611	-0.017
Mof_C 	C 	0.0055	0.8695	0.2251	-0.144
Mof_H 	H 	0.917	0.8145	0.2038	0.088
Mof_C 	C 	0.0428	0.9084	0.3029	0.064
Mof_H 	H 	0.9791	0.881	0.3346	0.014
Mof_C 	C 	0.2598	0.0343	0.2877	-0.075
Mof_H 	H 	0.3463	0.093	0.3089	0.059
Mof_C 	C 	0.2212	0.9963	0.2109	0.009
Mof_H 	H 	0.282	0.0306	0.1798	0.028
Mof_C 	C 	0.1716	0.1399	0.4637	-0.052
Mof_H 	H 	0.1126	0.1928	0.4408	0.041
Mof_C 	C 	0.2122	0.1746	0.5396	-0.018
Mof_H 	H 	0.1764	0.2496	0.5683	0.032
Mof_C 	C 	0.3449	0.996	0.5331	-0
Mof_H 	H 	0.4044	0.9448	0.557	0.03
Mof_C 	C 	0.3043	0.9555	0.4544	-0.062
Mof_H 	H 	0.3374	0.879	0.4254	0.048
Mof_C 	C 	0.0196	0.9908	0.2222	0.121
Mof_H 	H 	0.9395	0.0214	0.1993	-0.005
Mof_C 	C 	0.0546	0.0268	0.3	-0.207
Mof_H 	H 	0.997	0.0797	0.3299	0.103
Mof_C 	C 	0.2536	0.9052	0.2882	-0.058
Mof_H 	H 	0.3342	0.8753	0.311	0.053
Mof_C 	C 	0.2175	0.8679	0.2091	-0.019
Mof_H 	H 	0.2733	0.8142	0.1784	0.045
Mof_C 	C 	0.1748	0.9528	0.466	0.033
Mof_H 	H 	0.1135	0.8692	0.4454	0.015
Mof_C 	C 	0.2195	0.9914	0.545	-0.099
Mof_H 	H 	0.1908	0.9318	0.5755	0.061
Mof_C 	C 	0.3449	0.196	0.532	-0.085
Mof_H 	H 	0.403	0.2809	0.5542	0.058
Mof_C 	C 	0.3023	0.1557	0.4525	0.008
Mof_H 	H 	0.3322	0.2137	0.4213	0.026
Mof_C 	C 	0.3694	0.2908	0.6977	-0.028
Mof_H 	H 	0.355	0.3567	0.6691	0.054
Mof_C 	C 	0.4109	0.3322	0.7752	-0.056
Mof_C 	C 	0.4342	0.2385	0.8174	0.007
Mof_H 	H 	0.4609	0.2672	0.8708	0.068
Mof_C 	C 	0.4184	0.1015	0.7813	-0.086
Mof_C 	C 	0.3726	0.0595	0.7035	-0.028
Mof_H 	H 	0.3578	0.9652	0.6794	0.053
Mof_C 	C 	0.4334	0.4839	0.8136	0.308
Mof_C 	C 	0.4534	0.9977	0.826	0.375
Mof_O 	O 	0.1915	0.7199	0.8477	-0.309
Mof_O 	O 	0.3635	0.8101	0.94187	-0.507
Mof_O 	O 	0.6808	0.7678	0.8843	-0.44
Mof_O 	O 	0.6609	0.8961	0.9974	-0.441
Mof_O 	O 	0.4302	0.5667	0.7726	-0.407
Mof_O 	O 	0.456	0.5204	0.8838	-0.313
Mof_O 	O 	0.4327	0.8752	0.79174	-0.45
Mof_O 	O 	0.5083	0.044	0.89413	-0.433
Mof_Zn	Zn	0.46795	0.74118	0.85389	1.233
Mof_C 	C 	0.7698	0.2212	0.0851	0.379
Mof_C 	C 	0.2729	0.1692	0.0489	0.432
Mof_C 	C 	0.0805	0.134	0.9408	0.12
Mof_H 	H 	0.1514	0.1146	0.9095	0.015
Mof_C 	C 	0.1177	0.1691	0.0192	-0.211
Mof_C 	C 	0.0182	0.198	0.0653	0.121
Mof_H 	H 	0.0449	0.2238	0.1187	0.016
Mof_C 	C 	0.8769	0.1899	0.0341	-0.207
Mof_C 	C 	0.839	0.1554	0.9556	0.122
Mof_H 	H 	0.743	0.151	0.9344	0.013
Mof_C 	C 	0.9414	0.127	0.9078	-0.099
Mof_C 	C 	0.9013	0.089	0.8234	0.108
Mof_C 	C 	0.8279	0.013	0.6649	-0.033
Mof_C 	C 	0.7853	0.9715	0.5809	0.054
Mof_C 	C 	0.6992	0.8905	0.4224	0.044
Mof_C 	C 	0.6516	0.8465	0.3389	-0.024
Mof_C 	C 	0.9945	0.1305	0.7749	0.26
Mof_H 	H 	0.083	0.1855	0.7962	-0.052
Mof_C 	C 	0.9572	0.0916	0.6971	-0.34
Mof_H 	H 	0.0209	0.119	0.6654	0.138
Mof_C 	C 	0.7402	0.9657	0.7123	-0.197
Mof_H 	H 	0.6537	0.907	0.6911	0.101
Mof_C 	C 	0.7788	0.0037	0.7891	0.122
Mof_H 	H 	0.718	0.9694	0.8202	-0
Mof_C 	C 	0.8284	0.8601	0.5363	-0.098
Mof_H 	H 	0.8874	0.8072	0.5592	0.064
Mof_C 	C 	0.7878	0.8254	0.4604	0.019
Mof_H 	H 	0.8236	0.7504	0.4317	0.024
Mof_C 	C 	0.6551	0.004	0.4669	0.011
Mof_H 	H 	0.5956	0.0552	0.443	0.024
Mof_C 	C 	0.6957	0.0445	0.5456	-0.102
Mof_H 	H 	0.6626	0.121	0.5746	0.065
Mof_C 	C 	0.9804	0.0092	0.7778	-0.401
Mof_H 	H 	0.0605	0.9786	0.8007	0.172
Mof_C 	C 	0.9454	0.9732	0.7	0.343
Mof_H 	H 	0.003	0.9203	0.6701	-0.089
Mof_C 	C 	0.7464	0.0948	0.7118	0.165
Mof_H 	H 	0.6658	0.1247	0.689	-0.023
Mof_C 	C 	0.7825	0.1321	0.7909	-0.257
Mof_H 	H 	0.7267	0.1858	0.8216	0.13
Mof_C 	C 	0.8252	0.0472	0.534	0.005
Mof_H 	H 	0.8865	0.1308	0.5546	0.028
Mof_C 	C 	0.7805	0.0086	0.455	-0.101
Mof_H 	H 	0.8092	0.0682	0.4245	0.06
Mof_C 	C 	0.6551	0.804	0.468	-0.095
Mof_H 	H 	0.597	0.7191	0.4458	0.061
Mof_C 	C 	0.6977	0.8443	0.5475	0.002
Mof_H 	H 	0.6678	0.7863	0.5787	0.027
Mof_C 	C 	0.6306	0.7092	0.3023	-0.022
Mof_H 	H 	0.645	0.6433	0.3309	0.053
Mof_C 	C 	0.5891	0.6678	0.2248	-0.067
Mof_C 	C 	0.5658	0.7615	0.1826	0.011
Mof_H 	H 	0.5391	0.7328	0.1292	0.052
Mof_C 	C 	0.5816	0.8985	0.2187	-0.086
Mof_C 	C 	0.6274	0.9405	0.2965	-0.005
Mof_H 	H 	0.6422	0.0348	0.3206	0.039
Mof_C 	C 	0.5666	0.5161	0.1864	0.314
Mof_C 	C 	0.5466	0.0023	0.174	0.358
Mof_O 	O 	0.8085	0.2801	0.1523	-0.324
Mof_O 	O 	0.6365	0.1899	0.05813	-0.556
Mof_O 	O 	0.3192	0.2322	0.1157	-0.465
Mof_O 	O 	0.3391	0.1039	0.0026	-0.513
Mof_O 	O 	0.5698	0.4333	0.2274	-0.408
Mof_O 	O 	0.544	0.4796	0.1162	-0.334
Mof_O 	O 	0.5673	0.1248	0.20826	-0.447
Mof_O 	O 	0.4917	0.956	0.10587	-0.447
Mof_Zn	Zn	0.53205	0.25882	0.14611	1.232
Mof_Zn	Zn	0.5	0	-0	1.228
_end
