data_functionalizedCrystal
_audit_creation_method	'EQeq! by Chris Wilmer'
_symmetry_space_group_name_H-M	'P1'
_symmetry_Int_Tables_number	1
_symmetry_cell_setting	triclinic
loop_
_symmetry_equiv_pos_as_xyz
  x,y,z
_cell_length_a	26.329
_cell_length_b	26.329
_cell_length_c	26.329
_cell_angle_alpha	90
_cell_angle_beta	90
_cell_angle_gamma	90
loop_
_atom_site_label
_atom_site_type_symbol
_atom_site_fract_x
_atom_site_fract_y
_atom_site_fract_z
_atom_site_charge
Mof_O 	O 	0.55245	0.25676	0.68333	-0.729
Mof_O 	O 	0.55245	0.75676	0.18333	-0.731
Mof_O 	O 	0.05245	0.25676	0.18333	-0.754
Mof_O 	O 	0.05245	0.75676	0.68333	-0.745
Mof_O 	O 	0.44755	0.74324	0.68333	-0.724
Mof_O 	O 	0.44755	0.24324	0.18333	-0.734
Mof_O 	O 	0.94755	0.74324	0.18333	-0.696
Mof_O 	O 	0.94755	0.24324	0.68333	-0.694
Mof_O 	O 	0.44755	0.25676	0.31667	-0.73
Mof_O 	O 	0.44755	0.75676	0.81667	-0.719
Mof_O 	O 	0.94755	0.25676	0.81667	-0.689
Mof_O 	O 	0.94755	0.75676	0.31667	-0.692
Mof_O 	O 	0.55245	0.74324	0.31667	-0.725
Mof_O 	O 	0.55245	0.24324	0.81667	-0.722
Mof_O 	O 	0.05245	0.74324	0.81667	-0.736
Mof_O 	O 	0.05245	0.24324	0.31667	-0.748
Mof_O 	O 	0.68333	0.55245	0.25676	-0.73
Mof_O 	O 	0.68333	0.05245	0.75676	-0.745
Mof_O 	O 	0.18333	0.55245	0.75676	-0.732
Mof_O 	O 	0.18333	0.05245	0.25676	-0.755
Mof_O 	O 	0.68333	0.44755	0.74324	-0.724
Mof_O 	O 	0.68333	0.94755	0.24324	-0.694
Mof_O 	O 	0.18333	0.44755	0.24324	-0.734
Mof_O 	O 	0.18333	0.94755	0.74324	-0.696
Mof_O 	O 	0.31667	0.44755	0.25676	-0.73
Mof_O 	O 	0.31667	0.94755	0.75676	-0.692
Mof_O 	O 	0.81667	0.44755	0.75676	-0.719
Mof_O 	O 	0.81667	0.94755	0.25676	-0.689
Mof_O 	O 	0.31667	0.55245	0.74324	-0.725
Mof_O 	O 	0.31667	0.05245	0.24324	-0.748
Mof_O 	O 	0.81667	0.55245	0.24324	-0.722
Mof_O 	O 	0.81667	0.05245	0.74324	-0.736
Mof_O 	O 	0.25676	0.68333	0.55245	-0.73
Mof_O 	O 	0.25676	0.18333	0.05245	-0.755
Mof_O 	O 	0.75676	0.68333	0.05245	-0.745
Mof_O 	O 	0.75676	0.18333	0.55245	-0.732
Mof_O 	O 	0.74324	0.68333	0.44755	-0.724
Mof_O 	O 	0.74324	0.18333	0.94755	-0.696
Mof_O 	O 	0.24324	0.68333	0.94755	-0.694
Mof_O 	O 	0.24324	0.18333	0.44755	-0.734
Mof_O 	O 	0.25676	0.31667	0.44755	-0.73
Mof_O 	O 	0.25676	0.81667	0.94755	-0.689
Mof_O 	O 	0.75676	0.31667	0.94755	-0.692
Mof_O 	O 	0.75676	0.81667	0.44755	-0.719
Mof_O 	O 	0.74324	0.31667	0.55245	-0.725
Mof_O 	O 	0.74324	0.81667	0.05245	-0.736
Mof_O 	O 	0.24324	0.31667	0.05245	-0.748
Mof_O 	O 	0.24324	0.81667	0.55245	-0.722
Mof_O 	O 	0.25676	0.55245	0.31667	-0.73
Mof_O 	O 	0.25676	0.05245	0.81667	-0.742
Mof_O 	O 	0.75676	0.55245	0.81667	-0.72
Mof_O 	O 	0.75676	0.05245	0.31667	-0.745
Mof_O 	O 	0.74324	0.44755	0.31667	-0.724
Mof_O 	O 	0.74324	0.94755	0.81667	-0.683
Mof_O 	O 	0.24324	0.44755	0.81667	-0.722
Mof_O 	O 	0.24324	0.94755	0.31667	-0.694
Mof_O 	O 	0.25676	0.44755	0.68333	-0.73
Mof_O 	O 	0.25676	0.94755	0.18333	-0.702
Mof_O 	O 	0.75676	0.44755	0.18333	-0.732
Mof_O 	O 	0.75676	0.94755	0.68333	-0.691
Mof_O 	O 	0.74324	0.55245	0.68333	-0.724
Mof_O 	O 	0.74324	0.05245	0.18333	-0.749
Mof_O 	O 	0.24324	0.55245	0.18333	-0.735
Mof_O 	O 	0.24324	0.05245	0.68333	-0.747
Mof_O 	O 	0.55245	0.68333	0.74324	-0.724
Mof_O 	O 	0.55245	0.18333	0.24324	-0.735
Mof_O 	O 	0.05245	0.68333	0.24324	-0.747
Mof_O 	O 	0.05245	0.18333	0.74324	-0.749
Mof_O 	O 	0.44755	0.68333	0.25676	-0.73
Mof_O 	O 	0.44755	0.18333	0.75676	-0.732
Mof_O 	O 	0.94755	0.68333	0.75676	-0.691
Mof_O 	O 	0.94755	0.18333	0.25676	-0.702
Mof_O 	O 	0.44755	0.31667	0.74324	-0.724
Mof_O 	O 	0.44755	0.81667	0.24324	-0.722
Mof_O 	O 	0.94755	0.31667	0.24324	-0.694
Mof_O 	O 	0.94755	0.81667	0.74324	-0.683
Mof_O 	O 	0.55245	0.31667	0.25676	-0.73
Mof_O 	O 	0.55245	0.81667	0.75676	-0.72
Mof_O 	O 	0.05245	0.31667	0.75676	-0.745
Mof_O 	O 	0.05245	0.81667	0.25676	-0.742
Mof_O 	O 	0.68333	0.25676	0.44755	-0.73
Mof_O 	O 	0.68333	0.75676	0.94755	-0.691
Mof_O 	O 	0.18333	0.25676	0.94755	-0.702
Mof_O 	O 	0.18333	0.75676	0.44755	-0.732
Mof_O 	O 	0.68333	0.74324	0.55245	-0.724
Mof_O 	O 	0.68333	0.24324	0.05245	-0.747
Mof_O 	O 	0.18333	0.74324	0.05245	-0.749
Mof_O 	O 	0.18333	0.24324	0.55245	-0.735
Mof_O 	O 	0.31667	0.25676	0.55245	-0.73
Mof_O 	O 	0.31667	0.75676	0.05245	-0.745
Mof_O 	O 	0.81667	0.25676	0.05245	-0.742
Mof_O 	O 	0.81667	0.75676	0.55245	-0.72
Mof_O 	O 	0.31667	0.74324	0.44755	-0.724
Mof_O 	O 	0.31667	0.24324	0.94755	-0.694
Mof_O 	O 	0.81667	0.74324	0.94755	-0.683
Mof_O 	O 	0.81667	0.24324	0.44755	-0.722
Mof_O 	O 	0.44755	0.74324	0.31667	-0.724
Mof_O 	O 	0.44755	0.24324	0.81667	-0.722
Mof_O 	O 	0.94755	0.74324	0.81667	-0.683
Mof_O 	O 	0.94755	0.24324	0.31667	-0.694
Mof_O 	O 	0.55245	0.25676	0.31667	-0.73
Mof_O 	O 	0.55245	0.75676	0.81667	-0.72
Mof_O 	O 	0.05245	0.25676	0.81667	-0.742
Mof_O 	O 	0.05245	0.75676	0.31667	-0.745
Mof_O 	O 	0.55245	0.74324	0.68333	-0.724
Mof_O 	O 	0.55245	0.24324	0.18333	-0.735
Mof_O 	O 	0.05245	0.74324	0.18333	-0.749
Mof_O 	O 	0.05245	0.24324	0.68333	-0.747
Mof_O 	O 	0.44755	0.25676	0.68333	-0.73
Mof_O 	O 	0.44755	0.75676	0.18333	-0.732
Mof_O 	O 	0.94755	0.25676	0.18333	-0.702
Mof_O 	O 	0.94755	0.75676	0.68333	-0.691
Mof_O 	O 	0.31667	0.44755	0.74324	-0.724
Mof_O 	O 	0.31667	0.94755	0.24324	-0.694
Mof_O 	O 	0.81667	0.44755	0.24324	-0.722
Mof_O 	O 	0.81667	0.94755	0.74324	-0.683
Mof_O 	O 	0.31667	0.55245	0.25676	-0.73
Mof_O 	O 	0.31667	0.05245	0.75676	-0.745
Mof_O 	O 	0.81667	0.55245	0.75676	-0.72
Mof_O 	O 	0.81667	0.05245	0.25676	-0.742
Mof_O 	O 	0.68333	0.55245	0.74324	-0.724
Mof_O 	O 	0.68333	0.05245	0.24324	-0.747
Mof_O 	O 	0.18333	0.55245	0.24324	-0.735
Mof_O 	O 	0.18333	0.05245	0.74324	-0.749
Mof_O 	O 	0.68333	0.44755	0.25676	-0.73
Mof_O 	O 	0.68333	0.94755	0.75676	-0.691
Mof_O 	O 	0.18333	0.44755	0.75676	-0.732
Mof_O 	O 	0.18333	0.94755	0.25676	-0.702
Mof_O 	O 	0.74324	0.31667	0.44755	-0.724
Mof_O 	O 	0.74324	0.81667	0.94755	-0.683
Mof_O 	O 	0.24324	0.31667	0.94755	-0.694
Mof_O 	O 	0.24324	0.81667	0.44755	-0.722
Mof_O 	O 	0.25676	0.31667	0.55245	-0.73
Mof_O 	O 	0.25676	0.81667	0.05245	-0.742
Mof_O 	O 	0.75676	0.31667	0.05245	-0.745
Mof_O 	O 	0.75676	0.81667	0.55245	-0.72
Mof_O 	O 	0.74324	0.68333	0.55245	-0.724
Mof_O 	O 	0.74324	0.18333	0.05245	-0.749
Mof_O 	O 	0.24324	0.68333	0.05245	-0.747
Mof_O 	O 	0.24324	0.18333	0.55245	-0.735
Mof_O 	O 	0.25676	0.68333	0.44755	-0.73
Mof_O 	O 	0.25676	0.18333	0.94755	-0.702
Mof_O 	O 	0.75676	0.68333	0.94755	-0.691
Mof_O 	O 	0.75676	0.18333	0.44755	-0.732
Mof_O 	O 	0.74324	0.44755	0.68333	-0.724
Mof_O 	O 	0.74324	0.94755	0.18333	-0.696
Mof_O 	O 	0.24324	0.44755	0.18333	-0.734
Mof_O 	O 	0.24324	0.94755	0.68333	-0.694
Mof_O 	O 	0.25676	0.55245	0.68333	-0.73
Mof_O 	O 	0.25676	0.05245	0.18333	-0.755
Mof_O 	O 	0.75676	0.55245	0.18333	-0.732
Mof_O 	O 	0.75676	0.05245	0.68333	-0.745
Mof_O 	O 	0.74324	0.55245	0.31667	-0.725
Mof_O 	O 	0.74324	0.05245	0.81667	-0.736
Mof_O 	O 	0.24324	0.55245	0.81667	-0.722
Mof_O 	O 	0.24324	0.05245	0.31667	-0.748
Mof_O 	O 	0.25676	0.44755	0.31667	-0.73
Mof_O 	O 	0.25676	0.94755	0.81667	-0.689
Mof_O 	O 	0.75676	0.44755	0.81667	-0.719
Mof_O 	O 	0.75676	0.94755	0.31667	-0.692
Mof_O 	O 	0.44755	0.31667	0.25676	-0.73
Mof_O 	O 	0.44755	0.81667	0.75676	-0.719
Mof_O 	O 	0.94755	0.31667	0.75676	-0.692
Mof_O 	O 	0.94755	0.81667	0.25676	-0.689
Mof_O 	O 	0.55245	0.31667	0.74324	-0.725
Mof_O 	O 	0.55245	0.81667	0.24324	-0.722
Mof_O 	O 	0.05245	0.31667	0.24324	-0.748
Mof_O 	O 	0.05245	0.81667	0.74324	-0.736
Mof_O 	O 	0.55245	0.68333	0.25676	-0.73
Mof_O 	O 	0.55245	0.18333	0.75676	-0.732
Mof_O 	O 	0.05245	0.68333	0.75676	-0.745
Mof_O 	O 	0.05245	0.18333	0.25676	-0.755
Mof_O 	O 	0.44755	0.68333	0.74324	-0.724
Mof_O 	O 	0.44755	0.18333	0.24324	-0.734
Mof_O 	O 	0.94755	0.68333	0.24324	-0.694
Mof_O 	O 	0.94755	0.18333	0.74324	-0.696
Mof_O 	O 	0.31667	0.74324	0.55245	-0.725
Mof_O 	O 	0.31667	0.24324	0.05245	-0.748
Mof_O 	O 	0.81667	0.74324	0.05245	-0.736
Mof_O 	O 	0.81667	0.24324	0.55245	-0.722
Mof_O 	O 	0.31667	0.25676	0.44755	-0.73
Mof_O 	O 	0.31667	0.75676	0.94755	-0.692
Mof_O 	O 	0.81667	0.25676	0.94755	-0.689
Mof_O 	O 	0.81667	0.75676	0.44755	-0.719
Mof_O 	O 	0.68333	0.74324	0.44755	-0.724
Mof_O 	O 	0.68333	0.24324	0.94755	-0.694
Mof_O 	O 	0.18333	0.74324	0.94755	-0.696
Mof_O 	O 	0.18333	0.24324	0.44755	-0.734
Mof_O 	O 	0.68333	0.25676	0.55245	-0.73
Mof_O 	O 	0.68333	0.75676	0.05245	-0.745
Mof_O 	O 	0.18333	0.25676	0.05245	-0.755
Mof_O 	O 	0.18333	0.75676	0.55245	-0.732
Mof_Cu	Cu	0.5	0.21439	0.71439	0.907
Mof_Cu	Cu	8.03834e-34	0.21439	0.21439	0.876
Mof_Cu	Cu	0.5	0.78561	0.71439	0.911
Mof_Cu	Cu	-4.72849e-33	0.78561	0.21439	0.88
Mof_Cu	Cu	0.5	0.21439	0.28561	0.907
Mof_Cu	Cu	-2.58675e-33	0.21439	0.78561	0.88
Mof_Cu	Cu	0.5	0.78561	0.28561	0.911
Mof_Cu	Cu	2.94557e-33	0.78561	0.78561	0.883
Mof_Cu	Cu	0.71439	0.5	0.21439	0.907
Mof_Cu	Cu	0.71439	5.53232e-33	0.71439	0.879
Mof_Cu	Cu	0.71439	0.5	0.78561	0.911
Mof_Cu	Cu	0.71439	2.76616e-33	0.28561	0.879
Mof_Cu	Cu	0.28561	0.5	0.21439	0.907
Mof_Cu	Cu	0.28561	5.53232e-33	0.71439	0.879
Mof_Cu	Cu	0.28561	0.5	0.78561	0.911
Mof_Cu	Cu	0.28561	2.76616e-33	0.28561	0.88
Mof_Cu	Cu	0.21439	0.71439	0.5	0.907
Mof_Cu	Cu	0.21439	0.21439	-0	0.876
Mof_Cu	Cu	0.78561	0.71439	0.5	0.911
Mof_Cu	Cu	0.78561	0.21439	-0	0.88
Mof_Cu	Cu	0.21439	0.28561	0.5	0.907
Mof_Cu	Cu	0.21439	0.78561	-0	0.88
Mof_Cu	Cu	0.78561	0.28561	0.5	0.911
Mof_Cu	Cu	0.78561	0.78561	-0	0.883
Mof_Cu	Cu	0.21439	0.5	0.28561	0.907
Mof_Cu	Cu	0.21439	5.53232e-33	0.78561	0.88
Mof_Cu	Cu	0.78561	0.5	0.28561	0.911
Mof_Cu	Cu	0.78561	5.53232e-33	0.78561	0.883
Mof_Cu	Cu	0.21439	0.5	0.71439	0.907
Mof_Cu	Cu	0.21439	0	0.21439	0.876
Mof_Cu	Cu	0.78561	0.5	0.71439	0.911
Mof_Cu	Cu	0.78561	0	0.21439	0.88
Mof_Cu	Cu	0.5	0.71439	0.78561	0.911
Mof_Cu	Cu	1.07087e-33	0.71439	0.28561	0.879
Mof_Cu	Cu	0.5	0.71439	0.21439	0.907
Mof_Cu	Cu	-8.38611e-33	0.71439	0.71439	0.879
Mof_Cu	Cu	0.5	0.28561	0.78561	0.911
Mof_Cu	Cu	3.83703e-33	0.28561	0.28561	0.88
Mof_Cu	Cu	0.5	0.28561	0.21439	0.907
Mof_Cu	Cu	-2.85379e-33	0.28561	0.71439	0.879
Mof_Cu	Cu	0.71439	0.21439	0.5	0.907
Mof_Cu	Cu	0.71439	0.71439	-0	0.879
Mof_Cu	Cu	0.71439	0.78561	0.5	0.911
Mof_Cu	Cu	0.71439	0.28561	-0	0.879
Mof_Cu	Cu	0.28561	0.21439	0.5	0.907
Mof_Cu	Cu	0.28561	0.71439	-0	0.879
Mof_Cu	Cu	0.28561	0.78561	0.5	0.911
Mof_Cu	Cu	0.28561	0.28561	-0	0.88
Mof_C 	C 	0.56889	0.29648	0.70352	1.278
Mof_C 	C 	0.61257	0.32157	0.67843	-2.489
Mof_C 	C 	0.56889	0.79648	0.20352	1.278
Mof_C 	C 	0.61257	0.82157	0.17843	-2.489
Mof_C 	C 	0.06889	0.29648	0.20352	1.29
Mof_C 	C 	0.11257	0.32157	0.17843	-2.526
Mof_C 	C 	0.06889	0.79648	0.70352	1.28
Mof_C 	C 	0.11257	0.82157	0.67843	-2.497
Mof_C 	C 	0.43111	0.70352	0.70352	1.274
Mof_C 	C 	0.38743	0.67843	0.67843	-2.481
Mof_C 	C 	0.43111	0.20352	0.20352	1.284
Mof_C 	C 	0.38743	0.17843	0.17843	-2.51
Mof_C 	C 	0.93111	0.70352	0.20352	1.266
Mof_C 	C 	0.88743	0.67843	0.17843	-2.469
Mof_C 	C 	0.93111	0.20352	0.70352	1.266
Mof_C 	C 	0.88743	0.17843	0.67843	-2.469
Mof_C 	C 	0.43111	0.29648	0.29648	1.281
Mof_C 	C 	0.38743	0.32157	0.32157	-2.495
Mof_C 	C 	0.43111	0.79648	0.79648	1.271
Mof_C 	C 	0.38743	0.82157	0.82157	-2.465
Mof_C 	C 	0.93111	0.29648	0.79648	1.263
Mof_C 	C 	0.88743	0.32157	0.82157	-2.453
Mof_C 	C 	0.93111	0.79648	0.29648	1.263
Mof_C 	C 	0.88743	0.82157	0.32157	-2.453
Mof_C 	C 	0.56889	0.70352	0.29648	1.278
Mof_C 	C 	0.61257	0.67843	0.32157	-2.489
Mof_C 	C 	0.56889	0.20352	0.79648	1.278
Mof_C 	C 	0.61257	0.17843	0.82157	-2.489
Mof_C 	C 	0.06889	0.70352	0.79648	1.28
Mof_C 	C 	0.11257	0.67843	0.82157	-2.497
Mof_C 	C 	0.06889	0.20352	0.29648	1.29
Mof_C 	C 	0.11257	0.17843	0.32157	-2.526
Mof_C 	C 	0.70352	0.56889	0.29648	1.278
Mof_C 	C 	0.67843	0.61257	0.32157	-2.489
Mof_C 	C 	0.70352	0.06889	0.79648	1.28
Mof_C 	C 	0.67843	0.11257	0.82157	-2.497
Mof_C 	C 	0.20352	0.56889	0.79648	1.278
Mof_C 	C 	0.17843	0.61257	0.82157	-2.489
Mof_C 	C 	0.20352	0.06889	0.29648	1.29
Mof_C 	C 	0.17843	0.11257	0.32157	-2.526
Mof_C 	C 	0.70352	0.43111	0.70352	1.274
Mof_C 	C 	0.67843	0.38743	0.67843	-2.481
Mof_C 	C 	0.70352	0.93111	0.20352	1.266
Mof_C 	C 	0.67843	0.88743	0.17843	-2.469
Mof_C 	C 	0.20352	0.43111	0.20352	1.284
Mof_C 	C 	0.17843	0.38743	0.17843	-2.51
Mof_C 	C 	0.20352	0.93111	0.70352	1.266
Mof_C 	C 	0.17843	0.88743	0.67843	-2.469
Mof_C 	C 	0.29648	0.43111	0.29648	1.281
Mof_C 	C 	0.32157	0.38743	0.32157	-2.495
Mof_C 	C 	0.29648	0.93111	0.79648	1.263
Mof_C 	C 	0.32157	0.88743	0.82157	-2.453
Mof_C 	C 	0.79648	0.43111	0.79648	1.271
Mof_C 	C 	0.82157	0.38743	0.82157	-2.465
Mof_C 	C 	0.79648	0.93111	0.29648	1.263
Mof_C 	C 	0.82157	0.88743	0.32157	-2.453
Mof_C 	C 	0.29648	0.56889	0.70352	1.278
Mof_C 	C 	0.32157	0.61257	0.67843	-2.489
Mof_C 	C 	0.29648	0.06889	0.20352	1.29
Mof_C 	C 	0.32157	0.11257	0.17843	-2.526
Mof_C 	C 	0.79648	0.56889	0.20352	1.278
Mof_C 	C 	0.82157	0.61257	0.17843	-2.489
Mof_C 	C 	0.79648	0.06889	0.70352	1.28
Mof_C 	C 	0.82157	0.11257	0.67843	-2.497
Mof_C 	C 	0.29648	0.70352	0.56889	1.278
Mof_C 	C 	0.32157	0.67843	0.61257	-2.489
Mof_C 	C 	0.29648	0.20352	0.06889	1.29
Mof_C 	C 	0.32157	0.17843	0.11257	-2.526
Mof_C 	C 	0.79648	0.70352	0.06889	1.28
Mof_C 	C 	0.82157	0.67843	0.11257	-2.497
Mof_C 	C 	0.79648	0.20352	0.56889	1.278
Mof_C 	C 	0.82157	0.17843	0.61257	-2.489
Mof_C 	C 	0.70352	0.70352	0.43111	1.274
Mof_C 	C 	0.67843	0.67843	0.38743	-2.481
Mof_C 	C 	0.70352	0.20352	0.93111	1.266
Mof_C 	C 	0.67843	0.17843	0.88743	-2.469
Mof_C 	C 	0.20352	0.70352	0.93111	1.266
Mof_C 	C 	0.17843	0.67843	0.88743	-2.469
Mof_C 	C 	0.20352	0.20352	0.43111	1.284
Mof_C 	C 	0.17843	0.17843	0.38743	-2.51
Mof_C 	C 	0.29648	0.29648	0.43111	1.281
Mof_C 	C 	0.32157	0.32157	0.38743	-2.495
Mof_C 	C 	0.29648	0.79648	0.93111	1.263
Mof_C 	C 	0.32157	0.82157	0.88743	-2.453
Mof_C 	C 	0.79648	0.29648	0.93111	1.263
Mof_C 	C 	0.82157	0.32157	0.88743	-2.453
Mof_C 	C 	0.79648	0.79648	0.43111	1.271
Mof_C 	C 	0.82157	0.82157	0.38743	-2.465
Mof_C 	C 	0.70352	0.29648	0.56889	1.278
Mof_C 	C 	0.67843	0.32157	0.61257	-2.489
Mof_C 	C 	0.70352	0.79648	0.06889	1.28
Mof_C 	C 	0.67843	0.82157	0.11257	-2.497
Mof_C 	C 	0.20352	0.29648	0.06889	1.29
Mof_C 	C 	0.17843	0.32157	0.11257	-2.526
Mof_C 	C 	0.20352	0.79648	0.56889	1.278
Mof_C 	C 	0.17843	0.82157	0.61257	-2.489
Mof_C 	C 	0.29648	0.56889	0.29648	1.282
Mof_C 	C 	0.32157	0.61257	0.32157	-2.496
Mof_C 	C 	0.29648	0.06889	0.79648	1.283
Mof_C 	C 	0.32157	0.11257	0.82157	-2.504
Mof_C 	C 	0.79648	0.56889	0.79648	1.272
Mof_C 	C 	0.82157	0.61257	0.82157	-2.466
Mof_C 	C 	0.79648	0.06889	0.29648	1.283
Mof_C 	C 	0.82157	0.11257	0.32157	-2.504
Mof_C 	C 	0.70352	0.43111	0.29648	1.278
Mof_C 	C 	0.67843	0.38743	0.32157	-2.488
Mof_C 	C 	0.70352	0.93111	0.79648	1.26
Mof_C 	C 	0.67843	0.88743	0.82157	-2.446
Mof_C 	C 	0.20352	0.43111	0.79648	1.277
Mof_C 	C 	0.17843	0.38743	0.82157	-2.487
Mof_C 	C 	0.20352	0.93111	0.29648	1.27
Mof_C 	C 	0.17843	0.88743	0.32157	-2.475
Mof_C 	C 	0.29648	0.43111	0.70352	1.278
Mof_C 	C 	0.32157	0.38743	0.67843	-2.488
Mof_C 	C 	0.29648	0.93111	0.20352	1.27
Mof_C 	C 	0.32157	0.88743	0.17843	-2.475
Mof_C 	C 	0.79648	0.43111	0.20352	1.277
Mof_C 	C 	0.82157	0.38743	0.17843	-2.487
Mof_C 	C 	0.79648	0.93111	0.70352	1.26
Mof_C 	C 	0.82157	0.88743	0.67843	-2.446
Mof_C 	C 	0.70352	0.56889	0.70352	1.275
Mof_C 	C 	0.67843	0.61257	0.67843	-2.482
Mof_C 	C 	0.70352	0.06889	0.20352	1.286
Mof_C 	C 	0.67843	0.11257	0.17843	-2.519
Mof_C 	C 	0.20352	0.56889	0.20352	1.284
Mof_C 	C 	0.17843	0.61257	0.17843	-2.511
Mof_C 	C 	0.20352	0.06889	0.70352	1.286
Mof_C 	C 	0.17843	0.11257	0.67843	-2.519
Mof_C 	C 	0.56889	0.70352	0.70352	1.275
Mof_C 	C 	0.61257	0.67843	0.67843	-2.482
Mof_C 	C 	0.56889	0.20352	0.20352	1.284
Mof_C 	C 	0.61257	0.17843	0.17843	-2.511
Mof_C 	C 	0.06889	0.70352	0.20352	1.286
Mof_C 	C 	0.11257	0.67843	0.17843	-2.519
Mof_C 	C 	0.06889	0.20352	0.70352	1.286
Mof_C 	C 	0.11257	0.17843	0.67843	-2.519
Mof_C 	C 	0.43111	0.70352	0.29648	1.278
Mof_C 	C 	0.38743	0.67843	0.32157	-2.488
Mof_C 	C 	0.43111	0.20352	0.79648	1.277
Mof_C 	C 	0.38743	0.17843	0.82157	-2.487
Mof_C 	C 	0.93111	0.70352	0.79648	1.26
Mof_C 	C 	0.88743	0.67843	0.82157	-2.446
Mof_C 	C 	0.93111	0.20352	0.29648	1.27
Mof_C 	C 	0.88743	0.17843	0.32157	-2.475
Mof_C 	C 	0.43111	0.29648	0.70352	1.278
Mof_C 	C 	0.38743	0.32157	0.67843	-2.488
Mof_C 	C 	0.43111	0.79648	0.20352	1.277
Mof_C 	C 	0.38743	0.82157	0.17843	-2.487
Mof_C 	C 	0.93111	0.29648	0.20352	1.27
Mof_C 	C 	0.88743	0.32157	0.17843	-2.475
Mof_C 	C 	0.93111	0.79648	0.70352	1.26
Mof_C 	C 	0.88743	0.82157	0.67843	-2.446
Mof_C 	C 	0.56889	0.29648	0.29648	1.282
Mof_C 	C 	0.61257	0.32157	0.32157	-2.496
Mof_C 	C 	0.56889	0.79648	0.79648	1.272
Mof_C 	C 	0.61257	0.82157	0.82157	-2.466
Mof_C 	C 	0.06889	0.29648	0.79648	1.283
Mof_C 	C 	0.11257	0.32157	0.82157	-2.504
Mof_C 	C 	0.06889	0.79648	0.29648	1.283
Mof_C 	C 	0.11257	0.82157	0.32157	-2.504
Mof_C 	C 	0.70352	0.29648	0.43111	1.278
Mof_C 	C 	0.67843	0.32157	0.38743	-2.488
Mof_C 	C 	0.70352	0.79648	0.93111	1.26
Mof_C 	C 	0.67843	0.82157	0.88743	-2.446
Mof_C 	C 	0.20352	0.29648	0.93111	1.27
Mof_C 	C 	0.17843	0.32157	0.88743	-2.475
Mof_C 	C 	0.20352	0.79648	0.43111	1.277
Mof_C 	C 	0.17843	0.82157	0.38743	-2.487
Mof_C 	C 	0.70352	0.70352	0.56889	1.275
Mof_C 	C 	0.67843	0.67843	0.61257	-2.482
Mof_C 	C 	0.70352	0.20352	0.06889	1.286
Mof_C 	C 	0.67843	0.17843	0.11257	-2.519
Mof_C 	C 	0.20352	0.70352	0.06889	1.286
Mof_C 	C 	0.17843	0.67843	0.11257	-2.519
Mof_C 	C 	0.20352	0.20352	0.56889	1.284
Mof_C 	C 	0.17843	0.17843	0.61257	-2.511
Mof_C 	C 	0.29648	0.29648	0.56889	1.282
Mof_C 	C 	0.32157	0.32157	0.61257	-2.496
Mof_C 	C 	0.29648	0.79648	0.06889	1.283
Mof_C 	C 	0.32157	0.82157	0.11257	-2.504
Mof_C 	C 	0.79648	0.29648	0.06889	1.283
Mof_C 	C 	0.82157	0.32157	0.11257	-2.504
Mof_C 	C 	0.79648	0.79648	0.56889	1.272
Mof_C 	C 	0.82157	0.82157	0.61257	-2.466
Mof_C 	C 	0.29648	0.70352	0.43111	1.278
Mof_C 	C 	0.32157	0.67843	0.38743	-2.488
Mof_C 	C 	0.29648	0.20352	0.93111	1.27
Mof_C 	C 	0.32157	0.17843	0.88743	-2.475
Mof_C 	C 	0.79648	0.70352	0.93111	1.26
Mof_C 	C 	0.82157	0.67843	0.88743	-2.446
Mof_C 	C 	0.79648	0.20352	0.43111	1.277
Mof_C 	C 	0.82157	0.17843	0.38743	-2.487
Mof_C 	C 	0.63465	0.36535	0.69919	3.182
Mof_H 	H 	0.6195	0.3805	0.7282	-2.765
Mof_F 	F 	0.6116	0.3884	0.7427	1.79
Mof_C 	C 	0.63465	0.86535	0.19919	3.165
Mof_H 	H 	0.6195	0.8805	0.2282	-2.738
Mof_F 	F 	0.6116	0.8884	0.2427	1.771
Mof_C 	C 	0.13465	0.36535	0.19919	3.208
Mof_H 	H 	0.1195	0.3805	0.2282	-2.791
Mof_F 	F 	0.1116	0.3884	0.2427	1.798
Mof_C 	C 	0.13465	0.86535	0.69919	3.179
Mof_H 	H 	0.1195	0.8805	0.7282	-2.763
Mof_F 	F 	0.1116	0.8884	0.7427	1.789
Mof_C 	C 	0.36535	0.63465	0.69919	3.182
Mof_H 	H 	0.3805	0.6195	0.7282	-2.765
Mof_F 	F 	0.3884	0.6116	0.7427	1.79
Mof_C 	C 	0.36535	0.13465	0.19919	3.208
Mof_H 	H 	0.3805	0.1195	0.2282	-2.791
Mof_F 	F 	0.3884	0.1116	0.2427	1.798
Mof_C 	C 	0.86535	0.63465	0.19919	3.165
Mof_H 	H 	0.8805	0.6195	0.2282	-2.738
Mof_F 	F 	0.8884	0.6116	0.2427	1.771
Mof_C 	C 	0.86535	0.13465	0.69919	3.179
Mof_H 	H 	0.8805	0.1195	0.7282	-2.763
Mof_F 	F 	0.8884	0.1116	0.7427	1.789
Mof_C 	C 	0.36535	0.36535	0.30081	3.197
Mof_H 	H 	0.3805	0.3805	0.2718	-2.786
Mof_F 	F 	0.3884	0.3884	0.2573	1.802
Mof_C 	C 	0.36535	0.86535	0.80081	3.17
Mof_H 	H 	0.3805	0.8805	0.7718	-2.761
Mof_F 	F 	0.3884	0.8884	0.7573	1.795
Mof_C 	C 	0.86535	0.36535	0.80081	3.17
Mof_H 	H 	0.8805	0.3805	0.7718	-2.761
Mof_F 	F 	0.8884	0.3884	0.7573	1.795
Mof_C 	C 	0.86535	0.86535	0.30081	3.152
Mof_H 	H 	0.8805	0.8805	0.2718	-2.731
Mof_F 	F 	0.8884	0.8884	0.2573	1.774
Mof_C 	C 	0.63465	0.63465	0.30081	3.202
Mof_H 	H 	0.6195	0.6195	0.2718	-2.802
Mof_F 	F 	0.6116	0.6116	0.2573	1.816
Mof_C 	C 	0.63465	0.13465	0.80081	3.218
Mof_H 	H 	0.6195	0.1195	0.7718	-2.83
Mof_F 	F 	0.6116	0.1116	0.7573	1.836
Mof_C 	C 	0.13465	0.63465	0.80081	3.218
Mof_H 	H 	0.1195	0.6195	0.7718	-2.83
Mof_F 	F 	0.1116	0.6116	0.7573	1.836
Mof_C 	C 	0.13465	0.13465	0.30081	3.241
Mof_H 	H 	0.1195	0.1195	0.2718	-2.849
Mof_F 	F 	0.1116	0.1116	0.2573	1.839
Mof_C 	C 	0.69919	0.63465	0.36535	3.182
Mof_H 	H 	0.7282	0.6195	0.3805	-2.765
Mof_F 	F 	0.7427	0.6116	0.3884	1.79
Mof_C 	C 	0.69919	0.13465	0.86535	3.179
Mof_H 	H 	0.7282	0.1195	0.8805	-2.763
Mof_F 	F 	0.7427	0.1116	0.8884	1.789
Mof_C 	C 	0.19919	0.63465	0.86535	3.165
Mof_H 	H 	0.2282	0.6195	0.8805	-2.738
Mof_F 	F 	0.2427	0.6116	0.8884	1.771
Mof_C 	C 	0.19919	0.13465	0.36535	3.208
Mof_H 	H 	0.2282	0.1195	0.3805	-2.791
Mof_F 	F 	0.2427	0.1116	0.3884	1.798
Mof_C 	C 	0.69919	0.36535	0.63465	3.182
Mof_H 	H 	0.7282	0.3805	0.6195	-2.765
Mof_F 	F 	0.7427	0.3884	0.6116	1.79
Mof_C 	C 	0.69919	0.86535	0.13465	3.179
Mof_H 	H 	0.7282	0.8805	0.1195	-2.763
Mof_F 	F 	0.7427	0.8884	0.1116	1.789
Mof_C 	C 	0.19919	0.36535	0.13465	3.208
Mof_H 	H 	0.2282	0.3805	0.1195	-2.791
Mof_F 	F 	0.2427	0.3884	0.1116	1.798
Mof_C 	C 	0.19919	0.86535	0.63465	3.165
Mof_H 	H 	0.2282	0.8805	0.6195	-2.738
Mof_F 	F 	0.2427	0.8884	0.6116	1.771
Mof_C 	C 	0.30081	0.36535	0.36535	3.197
Mof_H 	H 	0.2718	0.3805	0.3805	-2.786
Mof_F 	F 	0.2573	0.3884	0.3884	1.802
Mof_C 	C 	0.30081	0.86535	0.86535	3.152
Mof_H 	H 	0.2718	0.8805	0.8805	-2.731
Mof_F 	F 	0.2573	0.8884	0.8884	1.774
Mof_C 	C 	0.80081	0.36535	0.86535	3.17
Mof_H 	H 	0.7718	0.3805	0.8805	-2.761
Mof_F 	F 	0.7573	0.3884	0.8884	1.795
Mof_C 	C 	0.80081	0.86535	0.36535	3.17
Mof_H 	H 	0.7718	0.8805	0.3805	-2.761
Mof_F 	F 	0.7573	0.8884	0.3884	1.795
Mof_C 	C 	0.30081	0.63465	0.63465	3.202
Mof_H 	H 	0.2718	0.6195	0.6195	-2.802
Mof_F 	F 	0.2573	0.6116	0.6116	1.816
Mof_C 	C 	0.30081	0.13465	0.13465	3.241
Mof_H 	H 	0.2718	0.1195	0.1195	-2.849
Mof_F 	F 	0.2573	0.1116	0.1116	1.839
Mof_C 	C 	0.80081	0.63465	0.13465	3.218
Mof_H 	H 	0.7718	0.6195	0.1195	-2.83
Mof_F 	F 	0.7573	0.6116	0.1116	1.836
Mof_C 	C 	0.80081	0.13465	0.63465	3.218
Mof_H 	H 	0.7718	0.1195	0.6195	-2.83
Mof_F 	F 	0.7573	0.1116	0.6116	1.836
Mof_C 	C 	0.36535	0.69919	0.63465	3.182
Mof_H 	H 	0.3805	0.7282	0.6195	-2.765
Mof_F 	F 	0.3884	0.7427	0.6116	1.79
Mof_C 	C 	0.36535	0.19919	0.13465	3.208
Mof_H 	H 	0.3805	0.2282	0.1195	-2.791
Mof_F 	F 	0.3884	0.2427	0.1116	1.798
Mof_C 	C 	0.86535	0.69919	0.13465	3.179
Mof_H 	H 	0.8805	0.7282	0.1195	-2.763
Mof_F 	F 	0.8884	0.7427	0.1116	1.789
Mof_C 	C 	0.86535	0.19919	0.63465	3.165
Mof_H 	H 	0.8805	0.2282	0.6195	-2.738
Mof_F 	F 	0.8884	0.2427	0.6116	1.771
Mof_C 	C 	0.63465	0.69919	0.36535	3.182
Mof_H 	H 	0.6195	0.7282	0.3805	-2.765
Mof_F 	F 	0.6116	0.7427	0.3884	1.79
Mof_C 	C 	0.63465	0.19919	0.86535	3.165
Mof_H 	H 	0.6195	0.2282	0.8805	-2.738
Mof_F 	F 	0.6116	0.2427	0.8884	1.771
Mof_C 	C 	0.13465	0.69919	0.86535	3.179
Mof_H 	H 	0.1195	0.7282	0.8805	-2.763
Mof_F 	F 	0.1116	0.7427	0.8884	1.789
Mof_C 	C 	0.13465	0.19919	0.36535	3.208
Mof_H 	H 	0.1195	0.2282	0.3805	-2.791
Mof_F 	F 	0.1116	0.2427	0.3884	1.798
Mof_C 	C 	0.36535	0.30081	0.36535	3.197
Mof_H 	H 	0.3805	0.2718	0.3805	-2.786
Mof_F 	F 	0.3884	0.2573	0.3884	1.802
Mof_C 	C 	0.36535	0.80081	0.86535	3.17
Mof_H 	H 	0.3805	0.7718	0.8805	-2.761
Mof_F 	F 	0.3884	0.7573	0.8884	1.795
Mof_C 	C 	0.86535	0.30081	0.86535	3.152
Mof_H 	H 	0.8805	0.2718	0.8805	-2.731
Mof_F 	F 	0.8884	0.2573	0.8884	1.774
Mof_C 	C 	0.86535	0.80081	0.36535	3.17
Mof_H 	H 	0.8805	0.7718	0.3805	-2.761
Mof_F 	F 	0.8884	0.7573	0.3884	1.795
Mof_C 	C 	0.63465	0.30081	0.63465	3.202
Mof_H 	H 	0.6195	0.2718	0.6195	-2.802
Mof_F 	F 	0.6116	0.2573	0.6116	1.816
Mof_C 	C 	0.63465	0.80081	0.13465	3.218
Mof_H 	H 	0.6195	0.7718	0.1195	-2.83
Mof_F 	F 	0.6116	0.7573	0.1116	1.836
Mof_C 	C 	0.13465	0.30081	0.13465	3.241
Mof_H 	H 	0.1195	0.2718	0.1195	-2.849
Mof_F 	F 	0.1116	0.2573	0.1116	1.839
Mof_C 	C 	0.13465	0.80081	0.63465	3.218
Mof_H 	H 	0.1195	0.7718	0.6195	-2.83
Mof_F 	F 	0.1116	0.7573	0.6116	1.836
Mof_C 	C 	0.36535	0.63465	0.30081	3.2
Mof_H 	H 	0.3805	0.6195	0.2718	-2.794
Mof_F 	F 	0.3884	0.6116	0.2573	1.809
Mof_C 	C 	0.36535	0.13465	0.80081	3.215
Mof_H 	H 	0.3805	0.1195	0.7718	-2.822
Mof_F 	F 	0.3884	0.1116	0.7573	1.829
Mof_C 	C 	0.86535	0.63465	0.80081	3.172
Mof_H 	H 	0.8805	0.6195	0.7718	-2.769
Mof_F 	F 	0.8884	0.6116	0.7573	1.802
Mof_C 	C 	0.86535	0.13465	0.30081	3.197
Mof_H 	H 	0.8805	0.1195	0.2718	-2.79
Mof_F 	F 	0.8884	0.1116	0.2573	1.807
Mof_C 	C 	0.63465	0.36535	0.30081	3.2
Mof_H 	H 	0.6195	0.3805	0.2718	-2.794
Mof_F 	F 	0.6116	0.3884	0.2573	1.809
Mof_C 	C 	0.63465	0.86535	0.80081	3.172
Mof_H 	H 	0.6195	0.8805	0.7718	-2.769
Mof_F 	F 	0.6116	0.8884	0.7573	1.802
Mof_C 	C 	0.13465	0.36535	0.80081	3.215
Mof_H 	H 	0.1195	0.3805	0.7718	-2.822
Mof_F 	F 	0.1116	0.3884	0.7573	1.829
Mof_C 	C 	0.13465	0.86535	0.30081	3.197
Mof_H 	H 	0.1195	0.8805	0.2718	-2.79
Mof_F 	F 	0.1116	0.8884	0.2573	1.807
Mof_C 	C 	0.36535	0.36535	0.69919	3.179
Mof_H 	H 	0.3805	0.3805	0.7282	-2.757
Mof_F 	F 	0.3884	0.3884	0.7427	1.783
Mof_C 	C 	0.36535	0.86535	0.19919	3.163
Mof_H 	H 	0.3805	0.8805	0.2282	-2.73
Mof_F 	F 	0.3884	0.8884	0.2427	1.765
Mof_C 	C 	0.86535	0.36535	0.19919	3.163
Mof_H 	H 	0.8805	0.3805	0.2282	-2.73
Mof_F 	F 	0.8884	0.3884	0.2427	1.765
Mof_C 	C 	0.86535	0.86535	0.69919	3.134
Mof_H 	H 	0.8805	0.8805	0.7282	-2.704
Mof_F 	F 	0.8884	0.8884	0.7427	1.756
Mof_C 	C 	0.63465	0.63465	0.69919	3.184
Mof_H 	H 	0.6195	0.6195	0.7282	-2.773
Mof_F 	F 	0.6116	0.6116	0.7427	1.797
Mof_C 	C 	0.63465	0.13465	0.19919	3.21
Mof_H 	H 	0.6195	0.1195	0.2282	-2.799
Mof_F 	F 	0.6116	0.1116	0.2427	1.805
Mof_C 	C 	0.13465	0.63465	0.19919	3.21
Mof_H 	H 	0.1195	0.6195	0.2282	-2.799
Mof_F 	F 	0.1116	0.6116	0.2427	1.805
Mof_C 	C 	0.13465	0.13465	0.69919	3.223
Mof_H 	H 	0.1195	0.1195	0.7282	-2.822
Mof_F 	F 	0.1116	0.1116	0.7427	1.821
Mof_C 	C 	0.63465	0.69919	0.63465	3.184
Mof_H 	H 	0.6195	0.7282	0.6195	-2.773
Mof_F 	F 	0.6116	0.7427	0.6116	1.797
Mof_C 	C 	0.63465	0.19919	0.13465	3.21
Mof_H 	H 	0.6195	0.2282	0.1195	-2.799
Mof_F 	F 	0.6116	0.2427	0.1116	1.805
Mof_C 	C 	0.13465	0.69919	0.13465	3.223
Mof_H 	H 	0.1195	0.7282	0.1195	-2.822
Mof_F 	F 	0.1116	0.7427	0.1116	1.821
Mof_C 	C 	0.13465	0.19919	0.63465	3.21
Mof_H 	H 	0.1195	0.2282	0.6195	-2.799
Mof_F 	F 	0.1116	0.2427	0.6116	1.805
Mof_C 	C 	0.36535	0.69919	0.36535	3.179
Mof_H 	H 	0.3805	0.7282	0.3805	-2.757
Mof_F 	F 	0.3884	0.7427	0.3884	1.783
Mof_C 	C 	0.36535	0.19919	0.86535	3.163
Mof_H 	H 	0.3805	0.2282	0.8805	-2.73
Mof_F 	F 	0.3884	0.2427	0.8884	1.765
Mof_C 	C 	0.86535	0.69919	0.86535	3.134
Mof_H 	H 	0.8805	0.7282	0.8805	-2.704
Mof_F 	F 	0.8884	0.7427	0.8884	1.756
Mof_C 	C 	0.86535	0.19919	0.36535	3.163
Mof_H 	H 	0.8805	0.2282	0.3805	-2.73
Mof_F 	F 	0.8884	0.2427	0.3884	1.765
Mof_C 	C 	0.36535	0.30081	0.63465	3.2
Mof_H 	H 	0.3805	0.2718	0.6195	-2.794
Mof_F 	F 	0.3884	0.2573	0.6116	1.809
Mof_C 	C 	0.36535	0.80081	0.13465	3.215
Mof_H 	H 	0.3805	0.7718	0.1195	-2.822
Mof_F 	F 	0.3884	0.7573	0.1116	1.829
Mof_C 	C 	0.86535	0.30081	0.13465	3.197
Mof_H 	H 	0.8805	0.2718	0.1195	-2.79
Mof_F 	F 	0.8884	0.2573	0.1116	1.807
Mof_C 	C 	0.86535	0.80081	0.63465	3.172
Mof_H 	H 	0.8805	0.7718	0.6195	-2.769
Mof_F 	F 	0.8884	0.7573	0.6116	1.802
Mof_C 	C 	0.63465	0.30081	0.36535	3.2
Mof_H 	H 	0.6195	0.2718	0.3805	-2.794
Mof_F 	F 	0.6116	0.2573	0.3884	1.809
Mof_C 	C 	0.63465	0.80081	0.86535	3.172
Mof_H 	H 	0.6195	0.7718	0.8805	-2.769
Mof_F 	F 	0.6116	0.7573	0.8884	1.802
Mof_C 	C 	0.13465	0.30081	0.86535	3.197
Mof_H 	H 	0.1195	0.2718	0.8805	-2.79
Mof_F 	F 	0.1116	0.2573	0.8884	1.807
Mof_C 	C 	0.13465	0.80081	0.36535	3.215
Mof_H 	H 	0.1195	0.7718	0.3805	-2.822
Mof_F 	F 	0.1116	0.7573	0.3884	1.829
Mof_C 	C 	0.69919	0.36535	0.36535	3.179
Mof_H 	H 	0.7282	0.3805	0.3805	-2.757
Mof_F 	F 	0.7427	0.3884	0.3884	1.783
Mof_C 	C 	0.69919	0.86535	0.86535	3.134
Mof_H 	H 	0.7282	0.8805	0.8805	-2.704
Mof_F 	F 	0.7427	0.8884	0.8884	1.756
Mof_C 	C 	0.19919	0.36535	0.86535	3.163
Mof_H 	H 	0.2282	0.3805	0.8805	-2.73
Mof_F 	F 	0.2427	0.3884	0.8884	1.765
Mof_C 	C 	0.19919	0.86535	0.36535	3.163
Mof_H 	H 	0.2282	0.8805	0.3805	-2.73
Mof_F 	F 	0.2427	0.8884	0.3884	1.765
Mof_C 	C 	0.69919	0.63465	0.63465	3.184
Mof_H 	H 	0.7282	0.6195	0.6195	-2.773
Mof_F 	F 	0.7427	0.6116	0.6116	1.797
Mof_C 	C 	0.69919	0.13465	0.13465	3.223
Mof_H 	H 	0.7282	0.1195	0.1195	-2.822
Mof_F 	F 	0.7427	0.1116	0.1116	1.821
Mof_C 	C 	0.19919	0.63465	0.13465	3.21
Mof_H 	H 	0.2282	0.6195	0.1195	-2.799
Mof_F 	F 	0.2427	0.6116	0.1116	1.805
Mof_C 	C 	0.19919	0.13465	0.63465	3.21
Mof_H 	H 	0.2282	0.1195	0.6195	-2.799
Mof_F 	F 	0.2427	0.1116	0.6116	1.805
Mof_C 	C 	0.30081	0.36535	0.63465	3.2
Mof_H 	H 	0.2718	0.3805	0.6195	-2.794
Mof_F 	F 	0.2573	0.3884	0.6116	1.809
Mof_C 	C 	0.30081	0.86535	0.13465	3.197
Mof_H 	H 	0.2718	0.8805	0.1195	-2.79
Mof_F 	F 	0.2573	0.8884	0.1116	1.807
Mof_C 	C 	0.80081	0.36535	0.13465	3.215
Mof_H 	H 	0.7718	0.3805	0.1195	-2.822
Mof_F 	F 	0.7573	0.3884	0.1116	1.829
Mof_C 	C 	0.80081	0.86535	0.63465	3.172
Mof_H 	H 	0.7718	0.8805	0.6195	-2.769
Mof_F 	F 	0.7573	0.8884	0.6116	1.802
Mof_C 	C 	0.30081	0.63465	0.36535	3.2
Mof_H 	H 	0.2718	0.6195	0.3805	-2.794
Mof_F 	F 	0.2573	0.6116	0.3884	1.809
Mof_C 	C 	0.30081	0.13465	0.86535	3.197
Mof_H 	H 	0.2718	0.1195	0.8805	-2.79
Mof_F 	F 	0.2573	0.1116	0.8884	1.807
Mof_C 	C 	0.80081	0.63465	0.86535	3.172
Mof_H 	H 	0.7718	0.6195	0.8805	-2.769
Mof_F 	F 	0.7573	0.6116	0.8884	1.802
Mof_C 	C 	0.80081	0.13465	0.36535	3.215
Mof_H 	H 	0.7718	0.1195	0.3805	-2.822
Mof_F 	F 	0.7573	0.1116	0.3884	1.829
_end
