# CIF file generated by openbabel 3.1.0, see https://openbabel.org
data_I
_chemical_name_common 'ic2017598_si_001_clean'
_cell_length_a 18.1065
_cell_length_b 18.1065
_cell_length_c 18.1065
_cell_angle_alpha 60
_cell_angle_beta 60
_cell_angle_gamma 60
_space_group_name_H-M_alt 'P 1'
_space_group_name_Hall 'P 1'
loop_
    _symmetry_equiv_pos_as_xyz
    x,y,z
loop_
    _atom_site_label
    _atom_site_type_symbol
    _atom_site_fract_x
    _atom_site_fract_y
    _atom_site_fract_z
    _atom_site_occupancy
    Zn1      Zn       0.79354    0.61938    0.79354    1.000
    Zn2      Zn       0.61938    0.79354    0.79354    1.000
    Zn3      Zn       0.20646    0.20646    0.38062    1.000
    Zn4      Zn       0.79354    0.79354    0.79354    1.000
    Zn5      Zn       0.20646    0.38062    0.20646    1.000
    Zn6      Zn       0.20646    0.20646    0.20646    1.000
    Zn7      Zn       0.38062    0.20646    0.20646    1.000
    Zn8      Zn       0.79354    0.79354    0.61938    1.000
    C9       C        0.41290    0.53690    0.02510    1.000
    C10      C        0.97490    0.46310    0.97490    1.000
    C11      C        0.53690    0.02510    0.02510    1.000
    C12      C        0.94610    0.55390    0.55390    1.000
    C13      C        0.41290    0.02510    0.53690    1.000
    C14      C        0.55390    0.55390    0.94610    1.000
    C15      C        0.38730    0.38730    0.11270    1.000
    C16      C        0.46310    0.58710    0.97490    1.000
    C17      C        0.58710    0.46310    0.97490    1.000
    C18      C        0.94610    0.94610    0.55390    1.000
    C19      C        0.94610    0.55390    0.94610    1.000
    C20      C        0.02510    0.53690    0.41290    1.000
    C21      C        0.02510    0.41290    0.02510    1.000
    C22      C        0.88730    0.61270    0.88730    1.000
    C23      C        0.61270    0.88730    0.61270    1.000
    C24      C        0.38730    0.11270    0.11270    1.000
    C25      C        0.61270    0.88730    0.88730    1.000
    C26      C        0.61270    0.61270    0.88730    1.000
    C27      C        0.53690    0.41290    0.02510    1.000
    C28      C        0.58710    0.97490    0.97490    1.000
    C29      C        0.11270    0.38730    0.11270    1.000
    C30      C        0.46310    0.97490    0.97490    1.000
    C31      C        0.02510    0.41290    0.53690    1.000
    C32      C        0.88730    0.88730    0.61270    1.000
    C33      C        0.46310    0.97490    0.58710    1.000
    C34      C        0.38730    0.11270    0.38730    1.000
    C35      C        0.05390    0.44610    0.05390    1.000
    C36      C        0.41290    0.02510    0.02510    1.000
    C37      C        0.97490    0.97490    0.46310    1.000
    C38      C        0.88730    0.61270    0.61270    1.000
    C39      C        0.53690    0.02510    0.41290    1.000
    C40      C        0.97490    0.97490    0.58710    1.000
    C41      C        0.44610    0.05390    0.44610    1.000
    C42      C        0.02510    0.53690    0.02510    1.000
    C43      C        0.02510    0.02510    0.41290    1.000
    C44      C        0.11270    0.38730    0.38730    1.000
    C45      C        0.02510    0.02510    0.53690    1.000
    C46      C        0.97490    0.46310    0.58710    1.000
    C47      C        0.97490    0.58710    0.46310    1.000
    C48      C        0.55390    0.94610    0.94610    1.000
    C49      C        0.97490    0.58710    0.97490    1.000
    C50      C        0.44610    0.05390    0.05390    1.000
    C51      C        0.05390    0.44610    0.44610    1.000
    C52      C        0.11270    0.11270    0.38730    1.000
    C53      C        0.05390    0.05390    0.44610    1.000
    C54      C        0.55390    0.94610    0.55390    1.000
    C55      C        0.58710    0.97490    0.46310    1.000
    C56      C        0.44610    0.44610    0.05390    1.000
    O57      O        0.13360    0.42978    0.13360    1.000
    O58      O        0.13360    0.42978    0.30302    1.000
    O59      O        0.86640    0.57022    0.86640    1.000
    O60      O        0.30302    0.13360    0.42978    1.000
    O61      O        0.13360    0.13360    0.42978    1.000
    O62      O        0.86640    0.57022    0.69698    1.000
    O63      O        0.69698    0.86640    0.57022    1.000
    O64      O        0.86640    0.86640    0.57022    1.000
    O65      O        0.13360    0.30302    0.13360    1.000
    O66      O        0.42978    0.30302    0.13360    1.000
    O67      O        0.86640    0.69698    0.86640    1.000
    O68      O        0.13360    0.13360    0.30302    1.000
    O69      O        0.69698    0.86640    0.86640    1.000
    O70      O        0.57022    0.69698    0.86640    1.000
    O71      O        0.57022    0.86640    0.86640    1.000
    O72      O        0.13360    0.30302    0.42978    1.000
    O73      O        0.25000    0.25000    0.25000    1.000
    O74      O        0.30302    0.42978    0.13360    1.000
    O75      O        0.69698    0.57022    0.86640    1.000
    O76      O        0.57022    0.86640    0.69698    1.000
    O77      O        0.42978    0.13360    0.13360    1.000
    O78      O        0.86640    0.86640    0.69698    1.000
    O79      O        0.75000    0.75000    0.75000    1.000
    O80      O        0.30302    0.13360    0.13360    1.000
    O81      O        0.86640    0.69698    0.57022    1.000
    O82      O        0.42978    0.13360    0.30302    1.000
    H83      H        0.33611    0.56917    0.04736    1.000
    H84      H        0.95490    0.42685    0.95490    1.000
    H85      H        0.56917    0.04736    0.04736    1.000
    H86      H        0.33611    0.04736    0.56917    1.000
    H87      H        0.43083    0.66389    0.95264    1.000
    H88      H        0.66335    0.42685    0.95490    1.000
    H89      H        0.04736    0.56917    0.33611    1.000
    H90      H        0.04736    0.33611    0.04736    1.000
    H91      H        0.56917    0.33611    0.04736    1.000
    H92      H        0.66389    0.95264    0.95264    1.000
    H93      H        0.43083    0.95264    0.95264    1.000
    H94      H        0.04736    0.33611    0.56917    1.000
    H95      H        0.43083    0.95264    0.66389    1.000
    H96      H        0.33611    0.04736    0.04736    1.000
    H97      H        0.95490    0.95490    0.42685    1.000
    H98      H        0.57315    0.04510    0.33665    1.000
    H99      H        0.95490    0.95490    0.66335    1.000
    H100     H        0.04510    0.57315    0.04510    1.000
    H101     H        0.04736    0.04736    0.33611    1.000
    H102     H        0.04736    0.04736    0.56917    1.000
    H103     H        0.95490    0.42685    0.66335    1.000
    H104     H        0.95264    0.66389    0.43083    1.000
    H105     H        0.95490    0.66335    0.95490    1.000
    H106     H        0.66389    0.95264    0.43083    1.000
