data_functionalizedCrystal
_audit_creation_method	'EQeq! by Chris Wilmer'
_symmetry_space_group_name_H-M	'P1'
_symmetry_Int_Tables_number	1
_symmetry_cell_setting	triclinic
loop_
_symmetry_equiv_pos_as_xyz
  x,y,z
_cell_length_a	7.9674
_cell_length_b	9.7304
_cell_length_c	21.296
_cell_angle_alpha	90
_cell_angle_beta	90
_cell_angle_gamma	114.168
loop_
_atom_site_label
_atom_site_type_symbol
_atom_site_fract_x
_atom_site_fract_y
_atom_site_fract_z
_atom_site_charge
Mof_Na	Na	0.1131	0	0.5	2.515
Mof_Na	Na	0.8869	0	-0	2.05
Mof_U 	U 	0.54105	0.14324	0.38191	-0.027
Mof_U 	U 	0.45895	0.85676	0.88191	0.086
Mof_U 	U 	0.60219	0.14324	0.11809	-0.027
Mof_U 	U 	0.39781	0.85676	0.61809	0.082
Mof_H 	H 	0.0178	0.3364	0.4589	0.034
Mof_H 	H 	0.0178	0.6014	0.4524	0.042
Mof_H 	H 	0.1497	0.557	0.2823	0.102
Mof_H 	H 	0.9822	0.6636	0.9589	0.094
Mof_H 	H 	0.9822	0.3986	0.9524	0.049
Mof_H 	H 	0.8503	0.443	0.7823	0.068
Mof_H 	H 	0.3186	0.3364	0.0411	0.029
Mof_H 	H 	0.5836	0.6014	0.0476	0.03
Mof_H 	H 	0.4073	0.557	0.2177	0.102
Mof_H 	H 	0.6814	0.6636	0.5411	0.07
Mof_H 	H 	0.4164	0.3986	0.5476	0.016
Mof_H 	H 	0.5927	0.443	0.7177	0.071
Mof_C 	C 	0.3689	0.3392	0.4131	0.389
Mof_C 	C 	0.2795	0.4438	0.4251	-0.023
Mof_C 	C 	0.0444	0.3266	0.2771	0.063
Mof_C 	C 	0.2758	0.667	0.4227	0.013
Mof_C 	C 	0.363	0.8282	0.4116	0.353
Mof_C 	C 	0.1131	0.425	0.4456	-0.013
Mof_C 	C 	0.1149	0.5758	0.4423	-0.016
Mof_C 	C 	0.8766	0.2576	0.3132	0.26
Mof_C 	C 	0.1636	0.4722	0.2676	-0.033
Mof_C 	C 	0.6311	0.6608	0.9131	0.337
Mof_C 	C 	0.7205	0.5562	0.9251	0.042
Mof_C 	C 	0.9556	0.6734	0.7771	0.069
Mof_C 	C 	0.7242	0.333	0.9227	-0.009
Mof_C 	C 	0.637	0.1718	0.9116	0.386
Mof_C 	C 	0.8869	0.575	0.9456	-0.039
Mof_C 	C 	0.8851	0.4242	0.9423	0.023
Mof_C 	C 	0.1234	0.7424	0.8132	0.237
Mof_C 	C 	0.8364	0.5278	0.7676	-0.039
Mof_C 	C 	0.9703	0.3392	0.0869	0.345
Mof_C 	C 	0.1643	0.4438	0.0749	-0.009
Mof_C 	C 	0.2822	0.3266	0.2229	0.061
Mof_C 	C 	0.3912	0.667	0.0773	0.013
Mof_C 	C 	0.4652	0.8282	0.0884	0.322
Mof_C 	C 	0.3119	0.425	0.0544	-0.036
Mof_C 	C 	0.4609	0.5758	0.0577	-0.028
Mof_C 	C 	0.381	0.2576	0.1868	0.264
Mof_C 	C 	0.3086	0.4722	0.2324	-0.031
Mof_C 	C 	0.0297	0.6608	0.5869	0.351
Mof_C 	C 	0.8357	0.5562	0.5749	0.014
Mof_C 	C 	0.7178	0.6734	0.7229	0.075
Mof_C 	C 	0.6088	0.333	0.5773	-0.045
Mof_C 	C 	0.5348	0.1718	0.5884	0.404
Mof_C 	C 	0.6881	0.575	0.5544	-0.049
Mof_C 	C 	0.5391	0.4242	0.5577	0.025
Mof_C 	C 	0.619	0.7424	0.6868	0.233
Mof_C 	C 	0.6914	0.5278	0.7324	-0.043
Mof_O 	O 	0.5231	0.3872	0.3883	-0.198
Mof_O 	O 	0.2889	0.2006	0.4296	-0.563
Mof_O 	O 	0.5206	0.8844	0.3839	-0.058
Mof_O 	O 	0.8094	0.1224	0.3286	-0.232
Mof_O 	O 	0.2833	0.911	0.4253	-0.353
Mof_O 	O 	0.8008	0.3446	0.3309	-0.156
Mof_O 	O 	0.3846	0.5898	0.4101	-0.126
Mof_O 	O 	0.4191	0.1074	0.3103	-0.117
Mof_O 	O 	0.6616	0.1792	0.4538	-0.162
Mof_O 	O 	0.9765	0.1192	0.5615	-0.511
Mof_O 	O 	0.4769	0.6128	0.8883	-0.18
Mof_O 	O 	0.7111	0.7994	0.9296	-0.351
Mof_O 	O 	0.4794	0.1156	0.8839	-0.267
Mof_O 	O 	0.1906	0.8776	0.8286	-0.068
Mof_O 	O 	0.7167	0.089	0.9253	-0.507
Mof_O 	O 	0.1992	0.6554	0.8309	-0.156
Mof_O 	O 	0.6154	0.4102	0.9101	-0.133
Mof_O 	O 	0.5809	0.8926	0.8103	0.022
Mof_O 	O 	0.3384	0.8208	0.9538	-0.002
Mof_O 	O 	0.0235	0.8808	0.0615	-0.28
Mof_O 	O 	0.8641	0.3872	0.1117	-0.198
Mof_O 	O 	0.9117	0.2006	0.0704	-0.52
Mof_O 	O 	0.3638	0.8844	0.1161	-0.055
Mof_O 	O 	0.313	0.1224	0.1714	-0.231
Mof_O 	O 	0.6277	0.911	0.0747	-0.314
Mof_O 	O 	0.5438	0.3446	0.1691	-0.158
Mof_O 	O 	0.2052	0.5898	0.0899	-0.138
Mof_O 	O 	0.6883	0.1074	0.1897	-0.116
Mof_O 	O 	0.5176	0.1792	0.0462	-0.193
Mof_O 	O 	0.1427	0.1192	0.9385	-0.401
Mof_O 	O 	0.1359	0.6128	0.6117	-0.199
Mof_O 	O 	0.0883	0.7994	0.5704	-0.44
Mof_O 	O 	0.6362	0.1156	0.6161	-0.284
Mof_O 	O 	0.687	0.8776	0.6714	-0.073
Mof_O 	O 	0.3723	0.089	0.5747	-0.594
Mof_O 	O 	0.4562	0.6554	0.6691	-0.159
Mof_O 	O 	0.7948	0.4102	0.5899	-0.137
Mof_O 	O 	0.3117	0.8926	0.6897	0.022
Mof_O 	O 	0.4824	0.8208	0.5462	-0.052
Mof_O 	O 	0.8573	0.8808	0.4385	-0.319
Mof_O 	O 	0.1162	0.2324	0.25	-0.173
Mof_O 	O 	0.8838	0.7676	0.75	-0.122
_end
