data_functionalizedCrystal
_audit_creation_method	'EQeq! by Chris Wilmer'
_symmetry_space_group_name_H-M	'P1'
_symmetry_Int_Tables_number	1
_symmetry_cell_setting	triclinic
loop_
_symmetry_equiv_pos_as_xyz
  x,y,z
_cell_length_a	18.6179
_cell_length_b	18.6179
_cell_length_c	34.147
_cell_angle_alpha	90
_cell_angle_beta	90
_cell_angle_gamma	120
loop_
_atom_site_label
_atom_site_type_symbol
_atom_site_fract_x
_atom_site_fract_y
_atom_site_fract_z
_atom_site_charge
Mof_O 	O 	0.58919	0.0292	0.05004	-0.405
Mof_O 	O 	0.62896	0.10993	0.99662	-0.401
Mof_C 	C 	0.6397	0.0915	0.0311	0.358
Mof_C 	C 	0.7211	0.1497	0.05002	-0.085
Mof_C 	C 	0.7378	0.1343	0.08805	-0.007
Mof_H 	H 	0.7001	0.0857	0.1007	0.05
Mof_C 	C 	0.8005	0.0985	0.1624	-0.059
Mof_H 	H 	0.7822	0.0557	0.1442	0.055
Mof_C 	C 	0.8037	0.0799	0.2015	-0.032
Mof_H 	H 	0.7836	0.0262	0.2107	0.046
Mof_C 	C 	0.8519	0.2417	0.1763	-0.059
Mof_H 	H 	0.8681	0.2957	0.1686	0.069
Mof_C 	C 	0.8552	0.2219	0.2162	0.004
Mof_O 	O 	0.9708	0.55999	0.05004	-0.405
Mof_O 	O 	0.89007	0.51903	0.99662	-0.401
Mof_C 	C 	0.9085	0.5482	0.0311	0.358
Mof_C 	C 	0.8503	0.5714	0.05002	-0.085
Mof_C 	C 	0.8657	0.6035	0.08805	-0.007
Mof_H 	H 	0.9143	0.6144	0.1007	0.05
Mof_C 	C 	0.9015	0.702	0.1624	-0.059
Mof_H 	H 	0.9443	0.7265	0.1442	0.055
Mof_C 	C 	0.9201	0.7238	0.2015	-0.033
Mof_H 	H 	0.9738	0.7574	0.2107	0.046
Mof_C 	C 	0.7583	0.6102	0.1763	-0.059
Mof_H 	H 	0.7043	0.5724	0.1686	0.069
Mof_C 	C 	0.7781	0.6333	0.2162	0.003
Mof_O 	O 	0.44001	0.41081	0.05004	-0.405
Mof_O 	O 	0.48097	0.37104	0.99662	-0.4
Mof_C 	C 	0.4518	0.3603	0.0311	0.357
Mof_C 	C 	0.4286	0.2789	0.05002	-0.086
Mof_C 	C 	0.3965	0.2622	0.08805	-0.008
Mof_H 	H 	0.3856	0.2999	0.1007	0.049
Mof_C 	C 	0.298	0.1995	0.1624	-0.06
Mof_H 	H 	0.2735	0.2178	0.1442	0.054
Mof_C 	C 	0.2762	0.1963	0.2015	-0.034
Mof_H 	H 	0.2426	0.2164	0.2107	0.045
Mof_C 	C 	0.3898	0.1481	0.1763	-0.06
Mof_H 	H 	0.4276	0.1319	0.1686	0.068
Mof_C 	C 	0.3667	0.1448	0.2162	0.003
Mof_O 	O 	0.41081	0.9708	0.55004	-0.406
Mof_O 	O 	0.37104	0.89007	0.49662	-0.401
Mof_C 	C 	0.3603	0.9085	0.5311	0.357
Mof_C 	C 	0.2789	0.8503	0.55002	-0.086
Mof_C 	C 	0.2622	0.8657	0.58805	-0.008
Mof_H 	H 	0.2999	0.9143	0.6007	0.049
Mof_C 	C 	0.1995	0.9015	0.6624	-0.06
Mof_H 	H 	0.2178	0.9443	0.6442	0.054
Mof_C 	C 	0.1963	0.9201	0.7015	-0.034
Mof_H 	H 	0.2164	0.9738	0.7107	0.045
Mof_C 	C 	0.1481	0.7583	0.6763	-0.06
Mof_H 	H 	0.1319	0.7043	0.6686	0.068
Mof_C 	C 	0.1448	0.7781	0.7162	0.002
Mof_O 	O 	0.0292	0.44001	0.55004	-0.406
Mof_O 	O 	0.10993	0.48097	0.49662	-0.401
Mof_C 	C 	0.0915	0.4518	0.5311	0.357
Mof_C 	C 	0.1497	0.4286	0.55002	-0.086
Mof_C 	C 	0.1343	0.3965	0.58805	-0.008
Mof_H 	H 	0.0857	0.3856	0.6007	0.049
Mof_C 	C 	0.0985	0.298	0.6624	-0.06
Mof_H 	H 	0.0557	0.2735	0.6442	0.054
Mof_C 	C 	0.0799	0.2762	0.7015	-0.034
Mof_H 	H 	0.0262	0.2426	0.7107	0.045
Mof_C 	C 	0.2417	0.3898	0.6763	-0.06
Mof_H 	H 	0.2957	0.4276	0.6686	0.068
Mof_C 	C 	0.2219	0.3667	0.7162	0.002
Mof_O 	O 	0.55999	0.58919	0.55004	-0.406
Mof_O 	O 	0.51903	0.62896	0.49662	-0.401
Mof_C 	C 	0.5482	0.6397	0.5311	0.357
Mof_C 	C 	0.5714	0.7211	0.55002	-0.086
Mof_C 	C 	0.6035	0.7378	0.58805	-0.008
Mof_H 	H 	0.6144	0.7001	0.6007	0.049
Mof_C 	C 	0.702	0.8005	0.6624	-0.06
Mof_H 	H 	0.7265	0.7822	0.6442	0.054
Mof_C 	C 	0.7238	0.8037	0.7015	-0.034
Mof_H 	H 	0.7574	0.7836	0.7107	0.045
Mof_C 	C 	0.6102	0.8519	0.6763	-0.06
Mof_H 	H 	0.5724	0.8681	0.6686	0.068
Mof_C 	C 	0.6333	0.8552	0.7162	0.003
Mof_O 	O 	0.0292	0.58919	0.94996	-0.406
Mof_O 	O 	0.10993	0.62896	0.00338	-0.402
Mof_C 	C 	0.0915	0.6397	0.9689	0.357
Mof_C 	C 	0.1497	0.7211	0.94998	-0.086
Mof_C 	C 	0.1343	0.7378	0.91195	-0.008
Mof_H 	H 	0.0857	0.7001	0.8993	0.049
Mof_C 	C 	0.0985	0.8005	0.8376	-0.06
Mof_H 	H 	0.0557	0.7822	0.8558	0.054
Mof_C 	C 	0.0799	0.8037	0.7985	-0.033
Mof_H 	H 	0.0262	0.7836	0.7893	0.045
Mof_C 	C 	0.2417	0.8519	0.8237	-0.06
Mof_H 	H 	0.2957	0.8681	0.8314	0.068
Mof_C 	C 	0.2219	0.8552	0.7838	0.003
Mof_O 	O 	0.55999	0.9708	0.94996	-0.406
Mof_O 	O 	0.51903	0.89007	0.00338	-0.402
Mof_C 	C 	0.5482	0.9085	0.9689	0.357
Mof_C 	C 	0.5714	0.8503	0.94998	-0.086
Mof_C 	C 	0.6035	0.8657	0.91195	-0.008
Mof_H 	H 	0.6144	0.9143	0.8993	0.049
Mof_C 	C 	0.702	0.9015	0.8376	-0.06
Mof_H 	H 	0.7265	0.9443	0.8558	0.054
Mof_C 	C 	0.7238	0.9201	0.7985	-0.034
Mof_H 	H 	0.7574	0.9738	0.7893	0.045
Mof_C 	C 	0.6102	0.7583	0.8237	-0.06
Mof_H 	H 	0.5724	0.7043	0.8314	0.068
Mof_C 	C 	0.6333	0.7781	0.7838	0.002
Mof_O 	O 	0.41081	0.44001	0.94996	-0.406
Mof_O 	O 	0.37104	0.48097	0.00338	-0.401
Mof_C 	C 	0.3603	0.4518	0.9689	0.357
Mof_C 	C 	0.2789	0.4286	0.94998	-0.086
Mof_C 	C 	0.2622	0.3965	0.91195	-0.008
Mof_H 	H 	0.2999	0.3856	0.8993	0.049
Mof_C 	C 	0.1995	0.298	0.8376	-0.06
Mof_H 	H 	0.2178	0.2735	0.8558	0.054
Mof_C 	C 	0.1963	0.2762	0.7985	-0.034
Mof_H 	H 	0.2164	0.2426	0.7893	0.045
Mof_C 	C 	0.1481	0.3898	0.8237	-0.06
Mof_H 	H 	0.1319	0.4276	0.8314	0.068
Mof_C 	C 	0.1448	0.3667	0.7838	0.003
Mof_O 	O 	0.9708	0.41081	0.44996	-0.406
Mof_O 	O 	0.89007	0.37104	0.50338	-0.401
Mof_C 	C 	0.9085	0.3603	0.4689	0.357
Mof_C 	C 	0.8503	0.2789	0.44998	-0.086
Mof_C 	C 	0.8657	0.2622	0.41195	-0.008
Mof_H 	H 	0.9143	0.2999	0.3993	0.049
Mof_C 	C 	0.9015	0.1995	0.3376	-0.06
Mof_H 	H 	0.9443	0.2178	0.3558	0.054
Mof_C 	C 	0.9201	0.1963	0.2985	-0.034
Mof_H 	H 	0.9738	0.2164	0.2893	0.045
Mof_C 	C 	0.7583	0.1481	0.3237	-0.06
Mof_H 	H 	0.7043	0.1319	0.3314	0.068
Mof_C 	C 	0.7781	0.1448	0.2838	0.002
Mof_O 	O 	0.44001	0.0292	0.44996	-0.406
Mof_O 	O 	0.48097	0.10993	0.50338	-0.401
Mof_C 	C 	0.4518	0.0915	0.4689	0.357
Mof_C 	C 	0.4286	0.1497	0.44998	-0.086
Mof_C 	C 	0.3965	0.1343	0.41195	-0.008
Mof_H 	H 	0.3856	0.0857	0.3993	0.049
Mof_C 	C 	0.298	0.0985	0.3376	-0.06
Mof_H 	H 	0.2735	0.0557	0.3558	0.054
Mof_C 	C 	0.2762	0.0799	0.2985	-0.034
Mof_H 	H 	0.2426	0.0262	0.2893	0.045
Mof_C 	C 	0.3898	0.2417	0.3237	-0.06
Mof_H 	H 	0.4276	0.2957	0.3314	0.068
Mof_C 	C 	0.3667	0.2219	0.2838	0.002
Mof_O 	O 	0.58919	0.55999	0.44996	-0.406
Mof_O 	O 	0.62896	0.51903	0.50338	-0.401
Mof_C 	C 	0.6397	0.5482	0.4689	0.357
Mof_C 	C 	0.7211	0.5714	0.44998	-0.086
Mof_C 	C 	0.7378	0.6035	0.41195	-0.008
Mof_H 	H 	0.7001	0.6144	0.3993	0.049
Mof_C 	C 	0.8005	0.702	0.3376	-0.06
Mof_H 	H 	0.7822	0.7265	0.3558	0.054
Mof_C 	C 	0.8037	0.7238	0.2985	-0.034
Mof_H 	H 	0.7836	0.7574	0.2893	0.045
Mof_C 	C 	0.8519	0.6102	0.3237	-0.06
Mof_H 	H 	0.8681	0.5724	0.3314	0.068
Mof_C 	C 	0.8552	0.6333	0.2838	0.003
Mof_O 	O 	0.41081	0.9708	0.94996	-0.406
Mof_O 	O 	0.37104	0.89007	0.00338	-0.402
Mof_C 	C 	0.3603	0.9085	0.9689	0.357
Mof_C 	C 	0.2789	0.8503	0.94998	-0.086
Mof_C 	C 	0.2622	0.8657	0.91195	-0.008
Mof_H 	H 	0.2999	0.9143	0.8993	0.049
Mof_C 	C 	0.1995	0.9015	0.8376	-0.06
Mof_H 	H 	0.2178	0.9443	0.8558	0.054
Mof_C 	C 	0.1963	0.9201	0.7985	-0.033
Mof_H 	H 	0.2164	0.9738	0.7893	0.045
Mof_C 	C 	0.1481	0.7583	0.8237	-0.06
Mof_H 	H 	0.1319	0.7043	0.8314	0.068
Mof_C 	C 	0.1448	0.7781	0.7838	0.003
Mof_O 	O 	0.0292	0.44001	0.94996	-0.406
Mof_O 	O 	0.10993	0.48097	0.00338	-0.402
Mof_C 	C 	0.0915	0.4518	0.9689	0.357
Mof_C 	C 	0.1497	0.4286	0.94998	-0.086
Mof_C 	C 	0.1343	0.3965	0.91195	-0.008
Mof_H 	H 	0.0857	0.3856	0.8993	0.049
Mof_C 	C 	0.0985	0.298	0.8376	-0.06
Mof_H 	H 	0.0557	0.2735	0.8558	0.054
Mof_C 	C 	0.0799	0.2762	0.7985	-0.034
Mof_H 	H 	0.0262	0.2426	0.7893	0.045
Mof_C 	C 	0.2417	0.3898	0.8237	-0.06
Mof_H 	H 	0.2957	0.4276	0.8314	0.068
Mof_C 	C 	0.2219	0.3667	0.7838	0.002
Mof_O 	O 	0.55999	0.58919	0.94996	-0.406
Mof_O 	O 	0.51903	0.62896	0.00338	-0.401
Mof_C 	C 	0.5482	0.6397	0.9689	0.357
Mof_C 	C 	0.5714	0.7211	0.94998	-0.086
Mof_C 	C 	0.6035	0.7378	0.91195	-0.008
Mof_H 	H 	0.6144	0.7001	0.8993	0.049
Mof_C 	C 	0.702	0.8005	0.8376	-0.06
Mof_H 	H 	0.7265	0.7822	0.8558	0.054
Mof_C 	C 	0.7238	0.8037	0.7985	-0.034
Mof_H 	H 	0.7574	0.7836	0.7893	0.045
Mof_C 	C 	0.6102	0.8519	0.8237	-0.06
Mof_H 	H 	0.5724	0.8681	0.8314	0.068
Mof_C 	C 	0.6333	0.8552	0.7838	0.003
Mof_O 	O 	0.58919	0.0292	0.44996	-0.406
Mof_O 	O 	0.62896	0.10993	0.50338	-0.401
Mof_C 	C 	0.6397	0.0915	0.4689	0.357
Mof_C 	C 	0.7211	0.1497	0.44998	-0.086
Mof_C 	C 	0.7378	0.1343	0.41195	-0.008
Mof_H 	H 	0.7001	0.0857	0.3993	0.049
Mof_C 	C 	0.8005	0.0985	0.3376	-0.06
Mof_H 	H 	0.7822	0.0557	0.3558	0.054
Mof_C 	C 	0.8037	0.0799	0.2985	-0.034
Mof_H 	H 	0.7836	0.0262	0.2893	0.045
Mof_C 	C 	0.8519	0.2417	0.3237	-0.06
Mof_H 	H 	0.8681	0.2957	0.3314	0.068
Mof_C 	C 	0.8552	0.2219	0.2838	0.002
Mof_O 	O 	0.9708	0.55999	0.44996	-0.406
Mof_O 	O 	0.89007	0.51903	0.50338	-0.401
Mof_C 	C 	0.9085	0.5482	0.4689	0.357
Mof_C 	C 	0.8503	0.5714	0.44998	-0.086
Mof_C 	C 	0.8657	0.6035	0.41195	-0.008
Mof_H 	H 	0.9143	0.6144	0.3993	0.049
Mof_C 	C 	0.9015	0.702	0.3376	-0.06
Mof_H 	H 	0.9443	0.7265	0.3558	0.054
Mof_C 	C 	0.9201	0.7238	0.2985	-0.034
Mof_H 	H 	0.9738	0.7574	0.2893	0.045
Mof_C 	C 	0.7583	0.6102	0.3237	-0.06
Mof_H 	H 	0.7043	0.5724	0.3314	0.068
Mof_C 	C 	0.7781	0.6333	0.2838	0.002
Mof_O 	O 	0.44001	0.41081	0.44996	-0.406
Mof_O 	O 	0.48097	0.37104	0.50338	-0.401
Mof_C 	C 	0.4518	0.3603	0.4689	0.357
Mof_C 	C 	0.4286	0.2789	0.44998	-0.086
Mof_C 	C 	0.3965	0.2622	0.41195	-0.008
Mof_H 	H 	0.3856	0.2999	0.3993	0.049
Mof_C 	C 	0.298	0.1995	0.3376	-0.06
Mof_H 	H 	0.2735	0.2178	0.3558	0.054
Mof_C 	C 	0.2762	0.1963	0.2985	-0.034
Mof_H 	H 	0.2426	0.2164	0.2893	0.045
Mof_C 	C 	0.3898	0.1481	0.3237	-0.06
Mof_H 	H 	0.4276	0.1319	0.3314	0.068
Mof_C 	C 	0.3667	0.1448	0.2838	0.003
Mof_O 	O 	0.9708	0.41081	0.05004	-0.406
Mof_O 	O 	0.89007	0.37104	0.99662	-0.402
Mof_C 	C 	0.9085	0.3603	0.0311	0.357
Mof_C 	C 	0.8503	0.2789	0.05002	-0.086
Mof_C 	C 	0.8657	0.2622	0.08805	-0.008
Mof_H 	H 	0.9143	0.2999	0.1007	0.049
Mof_C 	C 	0.9015	0.1995	0.1624	-0.06
Mof_H 	H 	0.9443	0.2178	0.1442	0.054
Mof_C 	C 	0.9201	0.1963	0.2015	-0.033
Mof_H 	H 	0.9738	0.2164	0.2107	0.045
Mof_C 	C 	0.7583	0.1481	0.1763	-0.06
Mof_H 	H 	0.7043	0.1319	0.1686	0.068
Mof_C 	C 	0.7781	0.1448	0.2162	0.003
Mof_O 	O 	0.44001	0.0292	0.05004	-0.406
Mof_O 	O 	0.48097	0.10993	0.99662	-0.402
Mof_C 	C 	0.4518	0.0915	0.0311	0.357
Mof_C 	C 	0.4286	0.1497	0.05002	-0.086
Mof_C 	C 	0.3965	0.1343	0.08805	-0.008
Mof_H 	H 	0.3856	0.0857	0.1007	0.049
Mof_C 	C 	0.298	0.0985	0.1624	-0.06
Mof_H 	H 	0.2735	0.0557	0.1442	0.054
Mof_C 	C 	0.2762	0.0799	0.2015	-0.034
Mof_H 	H 	0.2426	0.0262	0.2107	0.045
Mof_C 	C 	0.3898	0.2417	0.1763	-0.06
Mof_H 	H 	0.4276	0.2957	0.1686	0.068
Mof_C 	C 	0.3667	0.2219	0.2162	0.002
Mof_O 	O 	0.58919	0.55999	0.05004	-0.406
Mof_O 	O 	0.62896	0.51903	0.99662	-0.401
Mof_C 	C 	0.6397	0.5482	0.0311	0.357
Mof_C 	C 	0.7211	0.5714	0.05002	-0.086
Mof_C 	C 	0.7378	0.6035	0.08805	-0.008
Mof_H 	H 	0.7001	0.6144	0.1007	0.049
Mof_C 	C 	0.8005	0.702	0.1624	-0.06
Mof_H 	H 	0.7822	0.7265	0.1442	0.054
Mof_C 	C 	0.8037	0.7238	0.2015	-0.034
Mof_H 	H 	0.7836	0.7574	0.2107	0.045
Mof_C 	C 	0.8519	0.6102	0.1763	-0.06
Mof_H 	H 	0.8681	0.5724	0.1686	0.068
Mof_C 	C 	0.8552	0.6333	0.2162	0.003
Mof_O 	O 	0.0292	0.58919	0.55004	-0.406
Mof_O 	O 	0.10993	0.62896	0.49662	-0.401
Mof_C 	C 	0.0915	0.6397	0.5311	0.357
Mof_C 	C 	0.1497	0.7211	0.55002	-0.086
Mof_C 	C 	0.1343	0.7378	0.58805	-0.008
Mof_H 	H 	0.0857	0.7001	0.6007	0.049
Mof_C 	C 	0.0985	0.8005	0.6624	-0.06
Mof_H 	H 	0.0557	0.7822	0.6442	0.054
Mof_C 	C 	0.0799	0.8037	0.7015	-0.034
Mof_H 	H 	0.0262	0.7836	0.7107	0.045
Mof_C 	C 	0.2417	0.8519	0.6763	-0.06
Mof_H 	H 	0.2957	0.8681	0.6686	0.068
Mof_C 	C 	0.2219	0.8552	0.7162	0.002
Mof_O 	O 	0.55999	0.9708	0.55004	-0.406
Mof_O 	O 	0.51903	0.89007	0.49662	-0.401
Mof_C 	C 	0.5482	0.9085	0.5311	0.357
Mof_C 	C 	0.5714	0.8503	0.55002	-0.086
Mof_C 	C 	0.6035	0.8657	0.58805	-0.008
Mof_H 	H 	0.6144	0.9143	0.6007	0.049
Mof_C 	C 	0.702	0.9015	0.6624	-0.06
Mof_H 	H 	0.7265	0.9443	0.6442	0.054
Mof_C 	C 	0.7238	0.9201	0.7015	-0.034
Mof_H 	H 	0.7574	0.9738	0.7107	0.045
Mof_C 	C 	0.6102	0.7583	0.6763	-0.06
Mof_H 	H 	0.5724	0.7043	0.6686	0.068
Mof_C 	C 	0.6333	0.7781	0.7162	0.002
Mof_O 	O 	0.41081	0.44001	0.55004	-0.406
Mof_O 	O 	0.37104	0.48097	0.49662	-0.401
Mof_C 	C 	0.3603	0.4518	0.5311	0.357
Mof_C 	C 	0.2789	0.4286	0.55002	-0.086
Mof_C 	C 	0.2622	0.3965	0.58805	-0.008
Mof_H 	H 	0.2999	0.3856	0.6007	0.049
Mof_C 	C 	0.1995	0.298	0.6624	-0.06
Mof_H 	H 	0.2178	0.2735	0.6442	0.054
Mof_C 	C 	0.1963	0.2762	0.7015	-0.034
Mof_H 	H 	0.2164	0.2426	0.7107	0.045
Mof_C 	C 	0.1481	0.3898	0.6763	-0.06
Mof_H 	H 	0.1319	0.4276	0.6686	0.068
Mof_C 	C 	0.1448	0.3667	0.7162	0.003
Mof_Cu	Cu	0.4761	0.95219	0.03172	0.905
Mof_Cu	Cu	0.04781	0.5239	0.03172	0.905
Mof_Cu	Cu	0.4761	0.5239	0.03172	0.905
Mof_Cu	Cu	0.5239	0.04781	0.53172	0.905
Mof_Cu	Cu	0.95219	0.4761	0.53172	0.905
Mof_Cu	Cu	0.5239	0.4761	0.53172	0.905
Mof_Cu	Cu	0.95219	0.47609	0.96828	0.905
Mof_Cu	Cu	0.5239	0.04781	0.96828	0.905
Mof_Cu	Cu	0.5239	0.4761	0.96828	0.905
Mof_Cu	Cu	0.04781	0.5239	0.46828	0.905
Mof_Cu	Cu	0.4761	0.95219	0.46828	0.905
Mof_Cu	Cu	0.4761	0.5239	0.46828	0.905
Mof_O 	O 	0.9034	0.3546	0.25	-0.174
Mof_C 	C 	0.8741	0.277	0.25	0.107
Mof_O 	O 	0.6454	0.5488	0.25	-0.174
Mof_C 	C 	0.723	0.5971	0.25	0.107
Mof_O 	O 	0.4512	0.0966	0.25	-0.174
Mof_C 	C 	0.4029	0.1259	0.25	0.107
Mof_O 	O 	0.0966	0.6454	0.75	-0.174
Mof_C 	C 	0.1259	0.723	0.75	0.107
Mof_O 	O 	0.3546	0.4512	0.75	-0.174
Mof_C 	C 	0.277	0.4029	0.75	0.107
Mof_O 	O 	0.5488	0.9034	0.75	-0.174
Mof_C 	C 	0.5971	0.8741	0.75	0.107
Mof_O 	O 	0.3546	0.9034	0.75	-0.174
Mof_C 	C 	0.277	0.8741	0.75	0.107
Mof_O 	O 	0.5488	0.6454	0.75	-0.174
Mof_C 	C 	0.5971	0.723	0.75	0.107
Mof_O 	O 	0.0966	0.4512	0.75	-0.174
Mof_C 	C 	0.1259	0.4029	0.75	0.107
Mof_O 	O 	0.6454	0.0966	0.25	-0.174
Mof_C 	C 	0.723	0.1259	0.25	0.107
Mof_O 	O 	0.4512	0.3546	0.25	-0.174
Mof_C 	C 	0.4029	0.277	0.25	0.107
Mof_O 	O 	0.9034	0.5488	0.25	-0.174
Mof_C 	C 	0.8741	0.5971	0.25	0.107
Mof_C 	C 	0.77804	0.22196	0.03147	0.03
Mof_H 	H 	0.7676	0.2324	0.0061	0.052
Mof_C 	C 	0.80956	0.19044	0.10695	-0.027
Mof_C 	C 	0.8231	0.1769	0.14895	0.067
Mof_C 	C 	0.8434	0.1566	0.22809	-0.003
Mof_C 	C 	0.77804	0.55608	0.03147	0.03
Mof_H 	H 	0.7676	0.5352	0.0061	0.052
Mof_C 	C 	0.80956	0.61912	0.10695	-0.027
Mof_C 	C 	0.8231	0.6462	0.14895	0.067
Mof_C 	C 	0.8434	0.6868	0.22809	-0.003
Mof_C 	C 	0.44392	0.22196	0.03147	0.03
Mof_H 	H 	0.4648	0.2324	0.0061	0.052
Mof_C 	C 	0.38088	0.19044	0.10695	-0.027
Mof_C 	C 	0.3538	0.1769	0.14895	0.067
Mof_C 	C 	0.3132	0.1566	0.22809	-0.003
Mof_C 	C 	0.22196	0.77804	0.53147	0.03
Mof_H 	H 	0.2324	0.7676	0.5061	0.052
Mof_C 	C 	0.19044	0.80956	0.60695	-0.027
Mof_C 	C 	0.1769	0.8231	0.64895	0.067
Mof_C 	C 	0.1566	0.8434	0.72809	-0.003
Mof_C 	C 	0.22196	0.44392	0.53147	0.03
Mof_H 	H 	0.2324	0.4648	0.5061	0.052
Mof_C 	C 	0.19044	0.38088	0.60695	-0.027
Mof_C 	C 	0.1769	0.3538	0.64895	0.067
Mof_C 	C 	0.1566	0.3132	0.72809	-0.003
Mof_C 	C 	0.55608	0.77804	0.53147	0.03
Mof_H 	H 	0.5352	0.7676	0.5061	0.052
Mof_C 	C 	0.61912	0.80956	0.60695	-0.027
Mof_C 	C 	0.6462	0.8231	0.64895	0.067
Mof_C 	C 	0.6868	0.8434	0.72809	-0.003
Mof_C 	C 	0.22196	0.77804	0.96853	0.03
Mof_H 	H 	0.2324	0.7676	0.9939	0.052
Mof_C 	C 	0.19044	0.80956	0.89305	-0.027
Mof_C 	C 	0.1769	0.8231	0.85105	0.067
Mof_C 	C 	0.1566	0.8434	0.77191	-0.003
Mof_C 	C 	0.55608	0.77804	0.96853	0.03
Mof_H 	H 	0.5352	0.7676	0.9939	0.052
Mof_C 	C 	0.61912	0.80956	0.89305	-0.027
Mof_C 	C 	0.6462	0.8231	0.85105	0.067
Mof_C 	C 	0.6868	0.8434	0.77191	-0.003
Mof_C 	C 	0.22196	0.44392	0.96853	0.03
Mof_H 	H 	0.2324	0.4648	0.9939	0.052
Mof_C 	C 	0.19044	0.38088	0.89305	-0.027
Mof_C 	C 	0.1769	0.3538	0.85105	0.067
Mof_C 	C 	0.1566	0.3132	0.77191	-0.003
Mof_C 	C 	0.77804	0.22196	0.46853	0.03
Mof_H 	H 	0.7676	0.2324	0.4939	0.052
Mof_C 	C 	0.80956	0.19044	0.39305	-0.027
Mof_C 	C 	0.8231	0.1769	0.35105	0.067
Mof_C 	C 	0.8434	0.1566	0.27191	-0.003
Mof_C 	C 	0.44392	0.22196	0.46853	0.03
Mof_H 	H 	0.4648	0.2324	0.4939	0.052
Mof_C 	C 	0.38088	0.19044	0.39305	-0.027
Mof_C 	C 	0.3538	0.1769	0.35105	0.067
Mof_C 	C 	0.3132	0.1566	0.27191	-0.003
Mof_C 	C 	0.77804	0.55608	0.46853	0.03
Mof_H 	H 	0.7676	0.5352	0.4939	0.052
Mof_C 	C 	0.80956	0.61912	0.39305	-0.027
Mof_C 	C 	0.8231	0.6462	0.35105	0.067
Mof_C 	C 	0.8434	0.6868	0.27191	-0.003
_end
