data_functionalizedCrystal
_audit_creation_method	'EQeq! by Chris Wilmer'
_symmetry_space_group_name_H-M	'P1'
_symmetry_Int_Tables_number	1
_symmetry_cell_setting	triclinic
loop_
_symmetry_equiv_pos_as_xyz
  x,y,z
_cell_length_a	29.044
_cell_length_b	29.044
_cell_length_c	29.044
_cell_angle_alpha	90
_cell_angle_beta	90
_cell_angle_gamma	90
loop_
_atom_site_label
_atom_site_type_symbol
_atom_site_fract_x
_atom_site_fract_y
_atom_site_fract_z
_atom_site_charge
Mof_O 	O 	0.32029	0.4137	0.03783	-0.172
Mof_C 	C 	0.1894	0.3692	0.0237	-0.055
Mof_H 	H 	0.1646	0.3611	0.0423	0.067
Mof_N 	N 	0.23212	0.38329	0.03901	-0.255
Mof_C 	C 	0.3196	0.3532	0.1704	0.092
Mof_C 	C 	0.3077	0.3749	0.2095	-0.254
Mof_H 	H 	0.2852	0.3977	0.2096	0.111
Mof_C 	C 	0.3291	0.3629	0.2472	0.145
Mof_H 	H 	0.3214	0.3773	0.2748	-0.436
Mof_N 	N 	0.30193	0.35762	0.12689	-0.287
Mof_O 	O 	0.139	0.237	0.0373	0.943
Mof_C 	C 	0.151	0.2457	0.0241	-1.555
Mof_N 	N 	0.3245	0.4623	0.2944	-0.244
Mof_O 	O 	0.82029	0.9137	0.53783	-0.154
Mof_C 	C 	0.6894	0.8692	0.5237	0.029
Mof_H 	H 	0.6646	0.8611	0.5423	0.05
Mof_N 	N 	0.73212	0.88329	0.53901	-0.269
Mof_C 	C 	0.8196	0.8532	0.6704	0.094
Mof_C 	C 	0.8077	0.8749	0.7095	-0.255
Mof_H 	H 	0.7852	0.8977	0.7096	0.116
Mof_C 	C 	0.8291	0.8629	0.7472	0.146
Mof_H 	H 	0.8214	0.8773	0.7748	-0.437
Mof_N 	N 	0.80193	0.85762	0.62689	-0.286
Mof_O 	O 	0.639	0.737	0.5373	0.937
Mof_C 	C 	0.651	0.7457	0.5241	-1.517
Mof_N 	N 	0.8245	0.9623	0.7944	-0.218
Mof_O 	O 	0.67971	0.5863	0.03783	-0.172
Mof_C 	C 	0.8106	0.6308	0.0237	-0.054
Mof_H 	H 	0.8354	0.6389	0.0423	0.072
Mof_N 	N 	0.76788	0.61671	0.03901	-0.255
Mof_C 	C 	0.6804	0.6468	0.1704	0.091
Mof_C 	C 	0.6923	0.6251	0.2095	-0.254
Mof_H 	H 	0.7148	0.6023	0.2096	0.111
Mof_C 	C 	0.6709	0.6371	0.2472	0.145
Mof_H 	H 	0.6786	0.6227	0.2748	-0.436
Mof_N 	N 	0.69807	0.64238	0.12689	-0.287
Mof_O 	O 	0.861	0.763	0.0373	0.943
Mof_C 	C 	0.849	0.7543	0.0241	-1.54
Mof_N 	N 	0.6755	0.5377	0.2944	-0.244
Mof_O 	O 	0.17971	0.0863	0.53783	-0.172
Mof_C 	C 	0.3106	0.1308	0.5237	0.026
Mof_H 	H 	0.3354	0.1389	0.5423	0.047
Mof_N 	N 	0.26788	0.11671	0.53901	-0.269
Mof_C 	C 	0.1804	0.1468	0.6704	0.091
Mof_C 	C 	0.1923	0.1251	0.7095	-0.254
Mof_H 	H 	0.2148	0.1023	0.7096	0.111
Mof_C 	C 	0.1709	0.1371	0.7472	0.144
Mof_H 	H 	0.1786	0.1227	0.7748	-0.436
Mof_N 	N 	0.19807	0.14238	0.62689	-0.286
Mof_O 	O 	0.361	0.263	0.5373	0.937
Mof_C 	C 	0.349	0.2543	0.5241	-1.516
Mof_N 	N 	0.1755	0.0377	0.7944	-0.236
Mof_O 	O 	0.67971	0.4137	0.96217	-0.129
Mof_C 	C 	0.8106	0.3692	0.9763	0.115
Mof_H 	H 	0.8354	0.3611	0.9577	0.032
Mof_N 	N 	0.76788	0.38329	0.96099	-0.256
Mof_C 	C 	0.6804	0.3532	0.8296	0.093
Mof_C 	C 	0.6923	0.3749	0.7905	-0.253
Mof_H 	H 	0.7148	0.3977	0.7904	0.112
Mof_C 	C 	0.6709	0.3629	0.7528	0.146
Mof_H 	H 	0.6786	0.3773	0.7252	-0.435
Mof_N 	N 	0.69807	0.35762	0.87311	-0.284
Mof_O 	O 	0.861	0.237	0.9627	1.055
Mof_C 	C 	0.849	0.2457	0.9759	-1.635
Mof_N 	N 	0.6755	0.4623	0.7056	-0.244
Mof_O 	O 	0.17971	0.9137	0.46217	-0.158
Mof_C 	C 	0.3106	0.8692	0.4763	0.03
Mof_H 	H 	0.3354	0.8611	0.4577	0.051
Mof_N 	N 	0.26788	0.88329	0.46099	-0.268
Mof_C 	C 	0.1804	0.8532	0.3296	0.098
Mof_C 	C 	0.1923	0.8749	0.2905	-0.261
Mof_H 	H 	0.2148	0.8977	0.2904	0.119
Mof_C 	C 	0.1709	0.8629	0.2528	0.154
Mof_H 	H 	0.1786	0.8773	0.2252	-0.439
Mof_N 	N 	0.19807	0.85762	0.37311	-0.286
Mof_O 	O 	0.361	0.737	0.4627	0.938
Mof_C 	C 	0.349	0.7457	0.4759	-1.517
Mof_N 	N 	0.1755	0.9623	0.2056	-0.218
Mof_O 	O 	0.32029	0.5863	0.96217	-0.129
Mof_C 	C 	0.1894	0.6308	0.9763	0.114
Mof_H 	H 	0.1646	0.6389	0.9577	0.028
Mof_N 	N 	0.23212	0.61671	0.96099	-0.256
Mof_C 	C 	0.3196	0.6468	0.8296	0.093
Mof_C 	C 	0.3077	0.6251	0.7905	-0.253
Mof_H 	H 	0.2852	0.6023	0.7904	0.112
Mof_C 	C 	0.3291	0.6371	0.7528	0.146
Mof_H 	H 	0.3214	0.6227	0.7252	-0.435
Mof_N 	N 	0.30193	0.64238	0.87311	-0.284
Mof_O 	O 	0.139	0.763	0.9627	1.052
Mof_C 	C 	0.151	0.7543	0.9759	-1.639
Mof_N 	N 	0.3245	0.5377	0.7056	-0.244
Mof_O 	O 	0.82029	0.0863	0.46217	-0.166
Mof_C 	C 	0.6894	0.1308	0.4763	0.027
Mof_H 	H 	0.6646	0.1389	0.4577	0.048
Mof_N 	N 	0.73212	0.11671	0.46099	-0.269
Mof_C 	C 	0.8196	0.1468	0.3296	0.088
Mof_C 	C 	0.8077	0.1251	0.2905	-0.247
Mof_H 	H 	0.7852	0.1023	0.2904	0.109
Mof_C 	C 	0.8291	0.1371	0.2528	0.137
Mof_H 	H 	0.8214	0.1227	0.2252	-0.433
Mof_N 	N 	0.80193	0.14238	0.37311	-0.285
Mof_O 	O 	0.639	0.263	0.4627	0.937
Mof_C 	C 	0.651	0.2543	0.4759	-1.516
Mof_N 	N 	0.8245	0.0377	0.2056	-0.236
Mof_O 	O 	0.03783	0.32029	0.4137	-0.171
Mof_C 	C 	0.0237	0.1894	0.3692	-0.054
Mof_H 	H 	0.0423	0.1646	0.3611	0.068
Mof_N 	N 	0.03901	0.23212	0.38329	-0.254
Mof_C 	C 	0.1704	0.3196	0.3532	0.093
Mof_C 	C 	0.2095	0.3077	0.3749	-0.253
Mof_H 	H 	0.2096	0.2852	0.3977	0.112
Mof_C 	C 	0.2472	0.3291	0.3629	0.146
Mof_H 	H 	0.2748	0.3214	0.3773	-0.435
Mof_N 	N 	0.12689	0.30193	0.35762	-0.286
Mof_O 	O 	0.0373	0.139	0.237	0.944
Mof_C 	C 	0.0241	0.151	0.2457	-1.554
Mof_N 	N 	0.2944	0.3245	0.4623	-0.243
Mof_O 	O 	0.53783	0.82029	0.9137	-0.153
Mof_C 	C 	0.5237	0.6894	0.8692	0.03
Mof_H 	H 	0.5423	0.6646	0.8611	0.051
Mof_N 	N 	0.53901	0.73212	0.88329	-0.268
Mof_C 	C 	0.6704	0.8196	0.8532	0.095
Mof_C 	C 	0.7095	0.8077	0.8749	-0.254
Mof_H 	H 	0.7096	0.7852	0.8977	0.117
Mof_C 	C 	0.7472	0.8291	0.8629	0.147
Mof_H 	H 	0.7748	0.8214	0.8773	-0.436
Mof_N 	N 	0.62689	0.80193	0.85762	-0.285
Mof_O 	O 	0.5373	0.639	0.737	0.938
Mof_C 	C 	0.5241	0.651	0.7457	-1.516
Mof_N 	N 	0.7944	0.8245	0.9623	-0.217
Mof_O 	O 	0.03783	0.67971	0.5863	-0.171
Mof_C 	C 	0.0237	0.8106	0.6308	-0.053
Mof_H 	H 	0.0423	0.8354	0.6389	0.073
Mof_N 	N 	0.03901	0.76788	0.61671	-0.254
Mof_C 	C 	0.1704	0.6804	0.6468	0.092
Mof_C 	C 	0.2095	0.6923	0.6251	-0.253
Mof_H 	H 	0.2096	0.7148	0.6023	0.112
Mof_C 	C 	0.2472	0.6709	0.6371	0.146
Mof_H 	H 	0.2748	0.6786	0.6227	-0.435
Mof_N 	N 	0.12689	0.69807	0.64238	-0.286
Mof_O 	O 	0.0373	0.861	0.763	0.944
Mof_C 	C 	0.0241	0.849	0.7543	-1.539
Mof_N 	N 	0.2944	0.6755	0.5377	-0.243
Mof_O 	O 	0.53783	0.17971	0.0863	-0.171
Mof_C 	C 	0.5237	0.3106	0.1308	0.027
Mof_H 	H 	0.5423	0.3354	0.1389	0.048
Mof_N 	N 	0.53901	0.26788	0.11671	-0.269
Mof_C 	C 	0.6704	0.1804	0.1468	0.091
Mof_C 	C 	0.7095	0.1923	0.1251	-0.254
Mof_H 	H 	0.7096	0.2148	0.1023	0.111
Mof_C 	C 	0.7472	0.1709	0.1371	0.144
Mof_H 	H 	0.7748	0.1786	0.1227	-0.436
Mof_N 	N 	0.62689	0.19807	0.14238	-0.286
Mof_O 	O 	0.5373	0.361	0.263	0.937
Mof_C 	C 	0.5241	0.349	0.2543	-1.516
Mof_N 	N 	0.7944	0.1755	0.0377	-0.236
Mof_O 	O 	0.96217	0.67971	0.4137	-0.129
Mof_C 	C 	0.9763	0.8106	0.3692	0.115
Mof_H 	H 	0.9577	0.8354	0.3611	0.032
Mof_N 	N 	0.96099	0.76788	0.38329	-0.256
Mof_C 	C 	0.8296	0.6804	0.3532	0.093
Mof_C 	C 	0.7905	0.6923	0.3749	-0.253
Mof_H 	H 	0.7904	0.7148	0.3977	0.112
Mof_C 	C 	0.7528	0.6709	0.3629	0.146
Mof_H 	H 	0.7252	0.6786	0.3773	-0.435
Mof_N 	N 	0.87311	0.69807	0.35762	-0.284
Mof_O 	O 	0.9627	0.861	0.237	1.055
Mof_C 	C 	0.9759	0.849	0.2457	-1.635
Mof_N 	N 	0.7056	0.6755	0.4623	-0.244
Mof_O 	O 	0.46217	0.17971	0.9137	-0.158
Mof_C 	C 	0.4763	0.3106	0.8692	0.03
Mof_H 	H 	0.4577	0.3354	0.8611	0.051
Mof_N 	N 	0.46099	0.26788	0.88329	-0.268
Mof_C 	C 	0.3296	0.1804	0.8532	0.098
Mof_C 	C 	0.2905	0.1923	0.8749	-0.261
Mof_H 	H 	0.2904	0.2148	0.8977	0.119
Mof_C 	C 	0.2528	0.1709	0.8629	0.154
Mof_H 	H 	0.2252	0.1786	0.8773	-0.439
Mof_N 	N 	0.37311	0.19807	0.85762	-0.286
Mof_O 	O 	0.4627	0.361	0.737	0.938
Mof_C 	C 	0.4759	0.349	0.7457	-1.517
Mof_N 	N 	0.2056	0.1755	0.9623	-0.218
Mof_O 	O 	0.96217	0.32029	0.5863	-0.129
Mof_C 	C 	0.9763	0.1894	0.6308	0.114
Mof_H 	H 	0.9577	0.1646	0.6389	0.028
Mof_N 	N 	0.96099	0.23212	0.61671	-0.256
Mof_C 	C 	0.8296	0.3196	0.6468	0.093
Mof_C 	C 	0.7905	0.3077	0.6251	-0.253
Mof_H 	H 	0.7904	0.2852	0.6023	0.112
Mof_C 	C 	0.7528	0.3291	0.6371	0.146
Mof_H 	H 	0.7252	0.3214	0.6227	-0.435
Mof_N 	N 	0.87311	0.30193	0.64238	-0.284
Mof_O 	O 	0.9627	0.139	0.763	1.052
Mof_C 	C 	0.9759	0.151	0.7543	-1.639
Mof_N 	N 	0.7056	0.3245	0.5377	-0.244
Mof_O 	O 	0.46217	0.82029	0.0863	-0.166
Mof_C 	C 	0.4763	0.6894	0.1308	0.027
Mof_H 	H 	0.4577	0.6646	0.1389	0.048
Mof_N 	N 	0.46099	0.73212	0.11671	-0.269
Mof_C 	C 	0.3296	0.8196	0.1468	0.088
Mof_C 	C 	0.2905	0.8077	0.1251	-0.247
Mof_H 	H 	0.2904	0.7852	0.1023	0.109
Mof_C 	C 	0.2528	0.8291	0.1371	0.137
Mof_H 	H 	0.2252	0.8214	0.1227	-0.433
Mof_N 	N 	0.37311	0.80193	0.14238	-0.285
Mof_O 	O 	0.4627	0.639	0.263	0.937
Mof_C 	C 	0.4759	0.651	0.2543	-1.516
Mof_N 	N 	0.2056	0.8245	0.0377	-0.236
Mof_O 	O 	0.4137	0.03783	0.32029	-0.171
Mof_C 	C 	0.3692	0.0237	0.1894	-0.054
Mof_H 	H 	0.3611	0.0423	0.1646	0.068
Mof_N 	N 	0.38329	0.03901	0.23212	-0.254
Mof_C 	C 	0.3532	0.1704	0.3196	0.093
Mof_C 	C 	0.3749	0.2095	0.3077	-0.253
Mof_H 	H 	0.3977	0.2096	0.2852	0.112
Mof_C 	C 	0.3629	0.2472	0.3291	0.146
Mof_H 	H 	0.3773	0.2748	0.3214	-0.435
Mof_N 	N 	0.35762	0.12689	0.30193	-0.286
Mof_O 	O 	0.237	0.0373	0.139	0.944
Mof_C 	C 	0.2457	0.0241	0.151	-1.554
Mof_N 	N 	0.4623	0.2944	0.3245	-0.243
Mof_O 	O 	0.9137	0.53783	0.82029	-0.153
Mof_C 	C 	0.8692	0.5237	0.6894	0.03
Mof_H 	H 	0.8611	0.5423	0.6646	0.051
Mof_N 	N 	0.88329	0.53901	0.73212	-0.268
Mof_C 	C 	0.8532	0.6704	0.8196	0.095
Mof_C 	C 	0.8749	0.7095	0.8077	-0.254
Mof_H 	H 	0.8977	0.7096	0.7852	0.117
Mof_C 	C 	0.8629	0.7472	0.8291	0.147
Mof_H 	H 	0.8773	0.7748	0.8214	-0.436
Mof_N 	N 	0.85762	0.62689	0.80193	-0.285
Mof_O 	O 	0.737	0.5373	0.639	0.938
Mof_C 	C 	0.7457	0.5241	0.651	-1.516
Mof_N 	N 	0.9623	0.7944	0.8245	-0.217
Mof_O 	O 	0.5863	0.03783	0.67971	-0.171
Mof_C 	C 	0.6308	0.0237	0.8106	-0.053
Mof_H 	H 	0.6389	0.0423	0.8354	0.073
Mof_N 	N 	0.61671	0.03901	0.76788	-0.254
Mof_C 	C 	0.6468	0.1704	0.6804	0.092
Mof_C 	C 	0.6251	0.2095	0.6923	-0.253
Mof_H 	H 	0.6023	0.2096	0.7148	0.112
Mof_C 	C 	0.6371	0.2472	0.6709	0.146
Mof_H 	H 	0.6227	0.2748	0.6786	-0.435
Mof_N 	N 	0.64238	0.12689	0.69807	-0.286
Mof_O 	O 	0.763	0.0373	0.861	0.944
Mof_C 	C 	0.7543	0.0241	0.849	-1.539
Mof_N 	N 	0.5377	0.2944	0.6755	-0.243
Mof_O 	O 	0.0863	0.53783	0.17971	-0.171
Mof_C 	C 	0.1308	0.5237	0.3106	0.027
Mof_H 	H 	0.1389	0.5423	0.3354	0.048
Mof_N 	N 	0.11671	0.53901	0.26788	-0.269
Mof_C 	C 	0.1468	0.6704	0.1804	0.091
Mof_C 	C 	0.1251	0.7095	0.1923	-0.254
Mof_H 	H 	0.1023	0.7096	0.2148	0.111
Mof_C 	C 	0.1371	0.7472	0.1709	0.144
Mof_H 	H 	0.1227	0.7748	0.1786	-0.436
Mof_N 	N 	0.14238	0.62689	0.19807	-0.286
Mof_O 	O 	0.263	0.5373	0.361	0.937
Mof_C 	C 	0.2543	0.5241	0.349	-1.516
Mof_N 	N 	0.0377	0.7944	0.1755	-0.236
Mof_O 	O 	0.4137	0.96217	0.67971	-0.129
Mof_C 	C 	0.3692	0.9763	0.8106	0.115
Mof_H 	H 	0.3611	0.9577	0.8354	0.032
Mof_N 	N 	0.38329	0.96099	0.76788	-0.256
Mof_C 	C 	0.3532	0.8296	0.6804	0.093
Mof_C 	C 	0.3749	0.7905	0.6923	-0.253
Mof_H 	H 	0.3977	0.7904	0.7148	0.112
Mof_C 	C 	0.3629	0.7528	0.6709	0.146
Mof_H 	H 	0.3773	0.7252	0.6786	-0.435
Mof_N 	N 	0.35762	0.87311	0.69807	-0.284
Mof_O 	O 	0.237	0.9627	0.861	1.055
Mof_C 	C 	0.2457	0.9759	0.849	-1.635
Mof_N 	N 	0.4623	0.7056	0.6755	-0.244
Mof_O 	O 	0.9137	0.46217	0.17971	-0.158
Mof_C 	C 	0.8692	0.4763	0.3106	0.03
Mof_H 	H 	0.8611	0.4577	0.3354	0.051
Mof_N 	N 	0.88329	0.46099	0.26788	-0.268
Mof_C 	C 	0.8532	0.3296	0.1804	0.098
Mof_C 	C 	0.8749	0.2905	0.1923	-0.261
Mof_H 	H 	0.8977	0.2904	0.2148	0.119
Mof_C 	C 	0.8629	0.2528	0.1709	0.154
Mof_H 	H 	0.8773	0.2252	0.1786	-0.439
Mof_N 	N 	0.85762	0.37311	0.19807	-0.286
Mof_O 	O 	0.737	0.4627	0.361	0.938
Mof_C 	C 	0.7457	0.4759	0.349	-1.517
Mof_N 	N 	0.9623	0.2056	0.1755	-0.218
Mof_O 	O 	0.5863	0.96217	0.32029	-0.129
Mof_C 	C 	0.6308	0.9763	0.1894	0.114
Mof_H 	H 	0.6389	0.9577	0.1646	0.028
Mof_N 	N 	0.61671	0.96099	0.23212	-0.256
Mof_C 	C 	0.6468	0.8296	0.3196	0.093
Mof_C 	C 	0.6251	0.7905	0.3077	-0.253
Mof_H 	H 	0.6023	0.7904	0.2852	0.112
Mof_C 	C 	0.6371	0.7528	0.3291	0.146
Mof_H 	H 	0.6227	0.7252	0.3214	-0.435
Mof_N 	N 	0.64238	0.87311	0.30193	-0.284
Mof_O 	O 	0.763	0.9627	0.139	1.052
Mof_C 	C 	0.7543	0.9759	0.151	-1.639
Mof_N 	N 	0.5377	0.7056	0.3245	-0.244
Mof_O 	O 	0.0863	0.46217	0.82029	-0.166
Mof_C 	C 	0.1308	0.4763	0.6894	0.027
Mof_H 	H 	0.1389	0.4577	0.6646	0.048
Mof_N 	N 	0.11671	0.46099	0.73212	-0.269
Mof_C 	C 	0.1468	0.3296	0.8196	0.088
Mof_C 	C 	0.1251	0.2905	0.8077	-0.247
Mof_H 	H 	0.1023	0.2904	0.7852	0.109
Mof_C 	C 	0.1371	0.2528	0.8291	0.137
Mof_H 	H 	0.1227	0.2252	0.8214	-0.433
Mof_N 	N 	0.14238	0.37311	0.80193	-0.285
Mof_O 	O 	0.263	0.4627	0.639	0.937
Mof_C 	C 	0.2543	0.4759	0.651	-1.516
Mof_N 	N 	0.0377	0.2056	0.8245	-0.236
Mof_O 	O 	0.4137	0.32029	0.96217	-0.129
Mof_C 	C 	0.3692	0.1894	0.9763	0.114
Mof_H 	H 	0.3611	0.1646	0.9577	0.028
Mof_N 	N 	0.38329	0.23212	0.96099	-0.256
Mof_C 	C 	0.3532	0.3196	0.8296	0.093
Mof_C 	C 	0.3749	0.3077	0.7905	-0.253
Mof_H 	H 	0.3977	0.2852	0.7904	0.112
Mof_C 	C 	0.3629	0.3291	0.7528	0.146
Mof_H 	H 	0.3773	0.3214	0.7252	-0.435
Mof_N 	N 	0.35762	0.30193	0.87311	-0.284
Mof_O 	O 	0.237	0.139	0.9627	1.054
Mof_C 	C 	0.2457	0.151	0.9759	-1.645
Mof_N 	N 	0.4623	0.3245	0.7056	-0.244
Mof_O 	O 	0.9137	0.82029	0.46217	-0.153
Mof_C 	C 	0.8692	0.6894	0.4763	0.03
Mof_H 	H 	0.8611	0.6646	0.4577	0.051
Mof_N 	N 	0.88329	0.73212	0.46099	-0.268
Mof_C 	C 	0.8532	0.8196	0.3296	0.095
Mof_C 	C 	0.8749	0.8077	0.2905	-0.254
Mof_H 	H 	0.8977	0.7852	0.2904	0.117
Mof_C 	C 	0.8629	0.8291	0.2528	0.147
Mof_H 	H 	0.8773	0.8214	0.2252	-0.436
Mof_N 	N 	0.85762	0.80193	0.37311	-0.285
Mof_O 	O 	0.737	0.639	0.4627	0.938
Mof_C 	C 	0.7457	0.651	0.4759	-1.516
Mof_N 	N 	0.9623	0.8245	0.2056	-0.218
Mof_O 	O 	0.5863	0.67971	0.96217	-0.13
Mof_C 	C 	0.6308	0.8106	0.9763	0.115
Mof_H 	H 	0.6389	0.8354	0.9577	0.032
Mof_N 	N 	0.61671	0.76788	0.96099	-0.256
Mof_C 	C 	0.6468	0.6804	0.8296	0.093
Mof_C 	C 	0.6251	0.6923	0.7905	-0.253
Mof_H 	H 	0.6023	0.7148	0.7904	0.112
Mof_C 	C 	0.6371	0.6709	0.7528	0.146
Mof_H 	H 	0.6227	0.6786	0.7252	-0.435
Mof_N 	N 	0.64238	0.69807	0.87311	-0.284
Mof_O 	O 	0.763	0.861	0.9627	1.054
Mof_C 	C 	0.7543	0.849	0.9759	-1.63
Mof_N 	N 	0.5377	0.6755	0.7056	-0.244
Mof_O 	O 	0.0863	0.17971	0.46217	-0.171
Mof_C 	C 	0.1308	0.3106	0.4763	0.027
Mof_H 	H 	0.1389	0.3354	0.4577	0.048
Mof_N 	N 	0.11671	0.26788	0.46099	-0.269
Mof_C 	C 	0.1468	0.1804	0.3296	0.091
Mof_C 	C 	0.1251	0.1923	0.2905	-0.253
Mof_H 	H 	0.1023	0.2148	0.2904	0.111
Mof_C 	C 	0.1371	0.1709	0.2528	0.144
Mof_H 	H 	0.1227	0.1786	0.2252	-0.436
Mof_N 	N 	0.14238	0.19807	0.37311	-0.286
Mof_O 	O 	0.263	0.361	0.4627	0.937
Mof_C 	C 	0.2543	0.349	0.4759	-1.516
Mof_N 	N 	0.0377	0.1755	0.2056	-0.237
Mof_O 	O 	0.4137	0.67971	0.03783	-0.171
Mof_C 	C 	0.3692	0.8106	0.0237	-0.053
Mof_H 	H 	0.3611	0.8354	0.0423	0.073
Mof_N 	N 	0.38329	0.76788	0.03901	-0.254
Mof_C 	C 	0.3532	0.6804	0.1704	0.092
Mof_C 	C 	0.3749	0.6923	0.2095	-0.253
Mof_H 	H 	0.3977	0.7148	0.2096	0.112
Mof_C 	C 	0.3629	0.6709	0.2472	0.146
Mof_H 	H 	0.3773	0.6786	0.2748	-0.435
Mof_N 	N 	0.35762	0.69807	0.12689	-0.286
Mof_O 	O 	0.237	0.861	0.0373	0.946
Mof_C 	C 	0.2457	0.849	0.0241	-1.544
Mof_N 	N 	0.4623	0.6755	0.2944	-0.243
Mof_O 	O 	0.9137	0.17971	0.53783	-0.158
Mof_C 	C 	0.8692	0.3106	0.5237	0.03
Mof_H 	H 	0.8611	0.3354	0.5423	0.051
Mof_N 	N 	0.88329	0.26788	0.53901	-0.268
Mof_C 	C 	0.8532	0.1804	0.6704	0.098
Mof_C 	C 	0.8749	0.1923	0.7095	-0.261
Mof_H 	H 	0.8977	0.2148	0.7096	0.119
Mof_C 	C 	0.8629	0.1709	0.7472	0.154
Mof_H 	H 	0.8773	0.1786	0.7748	-0.439
Mof_N 	N 	0.85762	0.19807	0.62689	-0.286
Mof_O 	O 	0.737	0.361	0.5373	0.938
Mof_C 	C 	0.7457	0.349	0.5241	-1.517
Mof_N 	N 	0.9623	0.1755	0.7944	-0.218
Mof_O 	O 	0.5863	0.32029	0.03783	-0.171
Mof_C 	C 	0.6308	0.1894	0.0237	-0.054
Mof_H 	H 	0.6389	0.1646	0.0423	0.068
Mof_N 	N 	0.61671	0.23212	0.03901	-0.254
Mof_C 	C 	0.6468	0.3196	0.1704	0.093
Mof_C 	C 	0.6251	0.3077	0.2095	-0.253
Mof_H 	H 	0.6023	0.2852	0.2096	0.112
Mof_C 	C 	0.6371	0.3291	0.2472	0.146
Mof_H 	H 	0.6227	0.3214	0.2748	-0.435
Mof_N 	N 	0.64238	0.30193	0.12689	-0.286
Mof_O 	O 	0.763	0.139	0.0373	0.943
Mof_C 	C 	0.7543	0.151	0.0241	-1.549
Mof_N 	N 	0.5377	0.3245	0.2944	-0.243
Mof_O 	O 	0.0863	0.82029	0.53783	-0.166
Mof_C 	C 	0.1308	0.6894	0.5237	0.027
Mof_H 	H 	0.1389	0.6646	0.5423	0.048
Mof_N 	N 	0.11671	0.73212	0.53901	-0.269
Mof_C 	C 	0.1468	0.8196	0.6704	0.088
Mof_C 	C 	0.1251	0.8077	0.7095	-0.247
Mof_H 	H 	0.1023	0.7852	0.7096	0.109
Mof_C 	C 	0.1371	0.8291	0.7472	0.137
Mof_H 	H 	0.1227	0.8214	0.7748	-0.433
Mof_N 	N 	0.14238	0.80193	0.62689	-0.285
Mof_O 	O 	0.263	0.639	0.5373	0.937
Mof_C 	C 	0.2543	0.651	0.5241	-1.516
Mof_N 	N 	0.0377	0.8245	0.7944	-0.236
Mof_O 	O 	0.32029	0.03783	0.5863	-0.171
Mof_C 	C 	0.1894	0.0237	0.6308	-0.054
Mof_H 	H 	0.1646	0.0423	0.6389	0.068
Mof_N 	N 	0.23212	0.03901	0.61671	-0.254
Mof_C 	C 	0.3196	0.1704	0.6468	0.093
Mof_C 	C 	0.3077	0.2095	0.6251	-0.253
Mof_H 	H 	0.2852	0.2096	0.6023	0.112
Mof_C 	C 	0.3291	0.2472	0.6371	0.146
Mof_H 	H 	0.3214	0.2748	0.6227	-0.435
Mof_N 	N 	0.30193	0.12689	0.64238	-0.286
Mof_O 	O 	0.139	0.0373	0.763	0.943
Mof_C 	C 	0.151	0.0241	0.7543	-1.549
Mof_N 	N 	0.3245	0.2944	0.5377	-0.243
Mof_O 	O 	0.82029	0.53783	0.0863	-0.166
Mof_C 	C 	0.6894	0.5237	0.1308	0.027
Mof_H 	H 	0.6646	0.5423	0.1389	0.048
Mof_N 	N 	0.73212	0.53901	0.11671	-0.269
Mof_C 	C 	0.8196	0.6704	0.1468	0.088
Mof_C 	C 	0.8077	0.7095	0.1251	-0.247
Mof_H 	H 	0.7852	0.7096	0.1023	0.109
Mof_C 	C 	0.8291	0.7472	0.1371	0.137
Mof_H 	H 	0.8214	0.7748	0.1227	-0.433
Mof_N 	N 	0.80193	0.62689	0.14238	-0.285
Mof_O 	O 	0.639	0.5373	0.263	0.937
Mof_C 	C 	0.651	0.5241	0.2543	-1.516
Mof_N 	N 	0.8245	0.7944	0.0377	-0.236
Mof_O 	O 	0.67971	0.03783	0.4137	-0.171
Mof_C 	C 	0.8106	0.0237	0.3692	-0.053
Mof_H 	H 	0.8354	0.0423	0.3611	0.073
Mof_N 	N 	0.76788	0.03901	0.38329	-0.254
Mof_C 	C 	0.6804	0.1704	0.3532	0.092
Mof_C 	C 	0.6923	0.2095	0.3749	-0.253
Mof_H 	H 	0.7148	0.2096	0.3977	0.112
Mof_C 	C 	0.6709	0.2472	0.3629	0.146
Mof_H 	H 	0.6786	0.2748	0.3773	-0.435
Mof_N 	N 	0.69807	0.12689	0.35762	-0.286
Mof_O 	O 	0.861	0.0373	0.237	0.946
Mof_C 	C 	0.849	0.0241	0.2457	-1.544
Mof_N 	N 	0.6755	0.2944	0.4623	-0.243
Mof_O 	O 	0.17971	0.53783	0.9137	-0.158
Mof_C 	C 	0.3106	0.5237	0.8692	0.03
Mof_H 	H 	0.3354	0.5423	0.8611	0.051
Mof_N 	N 	0.26788	0.53901	0.88329	-0.268
Mof_C 	C 	0.1804	0.6704	0.8532	0.098
Mof_C 	C 	0.1923	0.7095	0.8749	-0.261
Mof_H 	H 	0.2148	0.7096	0.8977	0.119
Mof_C 	C 	0.1709	0.7472	0.8629	0.154
Mof_H 	H 	0.1786	0.7748	0.8773	-0.439
Mof_N 	N 	0.19807	0.62689	0.85762	-0.286
Mof_O 	O 	0.361	0.5373	0.737	0.938
Mof_C 	C 	0.349	0.5241	0.7457	-1.517
Mof_N 	N 	0.1755	0.7944	0.9623	-0.218
Mof_O 	O 	0.67971	0.96217	0.5863	-0.13
Mof_C 	C 	0.8106	0.9763	0.6308	0.115
Mof_H 	H 	0.8354	0.9577	0.6389	0.032
Mof_N 	N 	0.76788	0.96099	0.61671	-0.256
Mof_C 	C 	0.6804	0.8296	0.6468	0.093
Mof_C 	C 	0.6923	0.7905	0.6251	-0.253
Mof_H 	H 	0.7148	0.7904	0.6023	0.112
Mof_C 	C 	0.6709	0.7528	0.6371	0.146
Mof_H 	H 	0.6786	0.7252	0.6227	-0.435
Mof_N 	N 	0.69807	0.87311	0.64238	-0.284
Mof_O 	O 	0.861	0.9627	0.763	1.054
Mof_C 	C 	0.849	0.9759	0.7543	-1.63
Mof_N 	N 	0.6755	0.7056	0.5377	-0.244
Mof_O 	O 	0.17971	0.46217	0.0863	-0.171
Mof_C 	C 	0.3106	0.4763	0.1308	0.027
Mof_H 	H 	0.3354	0.4577	0.1389	0.048
Mof_N 	N 	0.26788	0.46099	0.11671	-0.269
Mof_C 	C 	0.1804	0.3296	0.1468	0.091
Mof_C 	C 	0.1923	0.2905	0.1251	-0.253
Mof_H 	H 	0.2148	0.2904	0.1023	0.111
Mof_C 	C 	0.1709	0.2528	0.1371	0.144
Mof_H 	H 	0.1786	0.2252	0.1227	-0.436
Mof_N 	N 	0.19807	0.37311	0.14238	-0.286
Mof_O 	O 	0.361	0.4627	0.263	0.937
Mof_C 	C 	0.349	0.4759	0.2543	-1.516
Mof_N 	N 	0.1755	0.2056	0.0377	-0.237
Mof_O 	O 	0.32029	0.96217	0.4137	-0.129
Mof_C 	C 	0.1894	0.9763	0.3692	0.114
Mof_H 	H 	0.1646	0.9577	0.3611	0.028
Mof_N 	N 	0.23212	0.96099	0.38329	-0.256
Mof_C 	C 	0.3196	0.8296	0.3532	0.093
Mof_C 	C 	0.3077	0.7905	0.3749	-0.253
Mof_H 	H 	0.2852	0.7904	0.3977	0.112
Mof_C 	C 	0.3291	0.7528	0.3629	0.146
Mof_H 	H 	0.3214	0.7252	0.3773	-0.435
Mof_N 	N 	0.30193	0.87311	0.35762	-0.284
Mof_O 	O 	0.139	0.9627	0.237	1.054
Mof_C 	C 	0.151	0.9759	0.2457	-1.645
Mof_N 	N 	0.3245	0.7056	0.4623	-0.244
Mof_O 	O 	0.82029	0.46217	0.9137	-0.153
Mof_C 	C 	0.6894	0.4763	0.8692	0.03
Mof_H 	H 	0.6646	0.4577	0.8611	0.051
Mof_N 	N 	0.73212	0.46099	0.88329	-0.268
Mof_C 	C 	0.8196	0.3296	0.8532	0.095
Mof_C 	C 	0.8077	0.2905	0.8749	-0.254
Mof_H 	H 	0.7852	0.2904	0.8977	0.117
Mof_C 	C 	0.8291	0.2528	0.8629	0.147
Mof_H 	H 	0.8214	0.2252	0.8773	-0.436
Mof_N 	N 	0.80193	0.37311	0.85762	-0.285
Mof_O 	O 	0.639	0.4627	0.737	0.938
Mof_C 	C 	0.651	0.4759	0.7457	-1.516
Mof_N 	N 	0.8245	0.2056	0.9623	-0.218
Mof_O 	O 	0.03783	0.4137	0.67971	-0.171
Mof_C 	C 	0.0237	0.3692	0.8106	-0.053
Mof_H 	H 	0.0423	0.3611	0.8354	0.073
Mof_N 	N 	0.03901	0.38329	0.76788	-0.254
Mof_C 	C 	0.1704	0.3532	0.6804	0.092
Mof_C 	C 	0.2095	0.3749	0.6923	-0.253
Mof_H 	H 	0.2096	0.3977	0.7148	0.112
Mof_C 	C 	0.2472	0.3629	0.6709	0.146
Mof_H 	H 	0.2748	0.3773	0.6786	-0.435
Mof_N 	N 	0.12689	0.35762	0.69807	-0.286
Mof_O 	O 	0.0373	0.237	0.861	0.946
Mof_C 	C 	0.0241	0.2457	0.849	-1.544
Mof_N 	N 	0.2944	0.4623	0.6755	-0.243
Mof_O 	O 	0.53783	0.9137	0.17971	-0.158
Mof_C 	C 	0.5237	0.8692	0.3106	0.03
Mof_H 	H 	0.5423	0.8611	0.3354	0.051
Mof_N 	N 	0.53901	0.88329	0.26788	-0.268
Mof_C 	C 	0.6704	0.8532	0.1804	0.098
Mof_C 	C 	0.7095	0.8749	0.1923	-0.261
Mof_H 	H 	0.7096	0.8977	0.2148	0.119
Mof_C 	C 	0.7472	0.8629	0.1709	0.154
Mof_H 	H 	0.7748	0.8773	0.1786	-0.439
Mof_N 	N 	0.62689	0.85762	0.19807	-0.286
Mof_O 	O 	0.5373	0.737	0.361	0.938
Mof_C 	C 	0.5241	0.7457	0.349	-1.517
Mof_N 	N 	0.7944	0.9623	0.1755	-0.218
Mof_O 	O 	0.03783	0.5863	0.32029	-0.171
Mof_C 	C 	0.0237	0.6308	0.1894	-0.054
Mof_H 	H 	0.0423	0.6389	0.1646	0.068
Mof_N 	N 	0.03901	0.61671	0.23212	-0.254
Mof_C 	C 	0.1704	0.6468	0.3196	0.093
Mof_C 	C 	0.2095	0.6251	0.3077	-0.253
Mof_H 	H 	0.2096	0.6023	0.2852	0.112
Mof_C 	C 	0.2472	0.6371	0.3291	0.146
Mof_H 	H 	0.2748	0.6227	0.3214	-0.435
Mof_N 	N 	0.12689	0.64238	0.30193	-0.286
Mof_O 	O 	0.0373	0.763	0.139	0.943
Mof_C 	C 	0.0241	0.7543	0.151	-1.549
Mof_N 	N 	0.2944	0.5377	0.3245	-0.243
Mof_O 	O 	0.53783	0.0863	0.82029	-0.166
Mof_C 	C 	0.5237	0.1308	0.6894	0.027
Mof_H 	H 	0.5423	0.1389	0.6646	0.048
Mof_N 	N 	0.53901	0.11671	0.73212	-0.269
Mof_C 	C 	0.6704	0.1468	0.8196	0.088
Mof_C 	C 	0.7095	0.1251	0.8077	-0.247
Mof_H 	H 	0.7096	0.1023	0.7852	0.109
Mof_C 	C 	0.7472	0.1371	0.8291	0.137
Mof_H 	H 	0.7748	0.1227	0.8214	-0.433
Mof_N 	N 	0.62689	0.14238	0.80193	-0.285
Mof_O 	O 	0.5373	0.263	0.639	0.937
Mof_C 	C 	0.5241	0.2543	0.651	-1.516
Mof_N 	N 	0.7944	0.0377	0.8245	-0.236
Mof_O 	O 	0.96217	0.4137	0.32029	-0.129
Mof_C 	C 	0.9763	0.3692	0.1894	0.114
Mof_H 	H 	0.9577	0.3611	0.1646	0.028
Mof_N 	N 	0.96099	0.38329	0.23212	-0.256
Mof_C 	C 	0.8296	0.3532	0.3196	0.093
Mof_C 	C 	0.7905	0.3749	0.3077	-0.253
Mof_H 	H 	0.7904	0.3977	0.2852	0.112
Mof_C 	C 	0.7528	0.3629	0.3291	0.146
Mof_H 	H 	0.7252	0.3773	0.3214	-0.435
Mof_N 	N 	0.87311	0.35762	0.30193	-0.284
Mof_O 	O 	0.9627	0.237	0.139	1.054
Mof_C 	C 	0.9759	0.2457	0.151	-1.645
Mof_N 	N 	0.7056	0.4623	0.3245	-0.244
Mof_O 	O 	0.46217	0.9137	0.82029	-0.153
Mof_C 	C 	0.4763	0.8692	0.6894	0.03
Mof_H 	H 	0.4577	0.8611	0.6646	0.051
Mof_N 	N 	0.46099	0.88329	0.73212	-0.268
Mof_C 	C 	0.3296	0.8532	0.8196	0.095
Mof_C 	C 	0.2905	0.8749	0.8077	-0.254
Mof_H 	H 	0.2904	0.8977	0.7852	0.117
Mof_C 	C 	0.2528	0.8629	0.8291	0.147
Mof_H 	H 	0.2252	0.8773	0.8214	-0.436
Mof_N 	N 	0.37311	0.85762	0.80193	-0.285
Mof_O 	O 	0.4627	0.737	0.639	0.938
Mof_C 	C 	0.4759	0.7457	0.651	-1.516
Mof_N 	N 	0.2056	0.9623	0.8245	-0.218
Mof_O 	O 	0.96217	0.5863	0.67971	-0.13
Mof_C 	C 	0.9763	0.6308	0.8106	0.115
Mof_H 	H 	0.9577	0.6389	0.8354	0.032
Mof_N 	N 	0.96099	0.61671	0.76788	-0.256
Mof_C 	C 	0.8296	0.6468	0.6804	0.093
Mof_C 	C 	0.7905	0.6251	0.6923	-0.253
Mof_H 	H 	0.7904	0.6023	0.7148	0.112
Mof_C 	C 	0.7528	0.6371	0.6709	0.146
Mof_H 	H 	0.7252	0.6227	0.6786	-0.435
Mof_N 	N 	0.87311	0.64238	0.69807	-0.284
Mof_O 	O 	0.9627	0.763	0.861	1.054
Mof_C 	C 	0.9759	0.7543	0.849	-1.63
Mof_N 	N 	0.7056	0.5377	0.6755	-0.244
Mof_O 	O 	0.46217	0.0863	0.17971	-0.171
Mof_C 	C 	0.4763	0.1308	0.3106	0.027
Mof_H 	H 	0.4577	0.1389	0.3354	0.048
Mof_N 	N 	0.46099	0.11671	0.26788	-0.269
Mof_C 	C 	0.3296	0.1468	0.1804	0.091
Mof_C 	C 	0.2905	0.1251	0.1923	-0.253
Mof_H 	H 	0.2904	0.1023	0.2148	0.111
Mof_C 	C 	0.2528	0.1371	0.1709	0.144
Mof_H 	H 	0.2252	0.1227	0.1786	-0.436
Mof_N 	N 	0.37311	0.14238	0.19807	-0.286
Mof_O 	O 	0.4627	0.263	0.361	0.937
Mof_C 	C 	0.4759	0.2543	0.349	-1.516
Mof_N 	N 	0.2056	0.0377	0.1755	-0.237
Mof_O 	O 	0.67971	0.5863	0.96217	-0.13
Mof_C 	C 	0.8106	0.6308	0.9763	0.115
Mof_H 	H 	0.8354	0.6389	0.9577	0.032
Mof_N 	N 	0.76788	0.61671	0.96099	-0.256
Mof_C 	C 	0.6804	0.6468	0.8296	0.093
Mof_C 	C 	0.6923	0.6251	0.7905	-0.253
Mof_H 	H 	0.7148	0.6023	0.7904	0.112
Mof_C 	C 	0.6709	0.6371	0.7528	0.146
Mof_H 	H 	0.6786	0.6227	0.7252	-0.435
Mof_N 	N 	0.69807	0.64238	0.87311	-0.284
Mof_O 	O 	0.861	0.763	0.9627	1.054
Mof_C 	C 	0.849	0.7543	0.9759	-1.63
Mof_N 	N 	0.6755	0.5377	0.7056	-0.244
Mof_O 	O 	0.17971	0.0863	0.46217	-0.171
Mof_C 	C 	0.3106	0.1308	0.4763	0.027
Mof_H 	H 	0.3354	0.1389	0.4577	0.048
Mof_N 	N 	0.26788	0.11671	0.46099	-0.269
Mof_C 	C 	0.1804	0.1468	0.3296	0.091
Mof_C 	C 	0.1923	0.1251	0.2905	-0.253
Mof_H 	H 	0.2148	0.1023	0.2904	0.111
Mof_C 	C 	0.1709	0.1371	0.2528	0.144
Mof_H 	H 	0.1786	0.1227	0.2252	-0.436
Mof_N 	N 	0.19807	0.14238	0.37311	-0.286
Mof_O 	O 	0.361	0.263	0.4627	0.937
Mof_C 	C 	0.349	0.2543	0.4759	-1.516
Mof_N 	N 	0.1755	0.0377	0.2056	-0.237
Mof_O 	O 	0.32029	0.4137	0.96217	-0.129
Mof_C 	C 	0.1894	0.3692	0.9763	0.114
Mof_H 	H 	0.1646	0.3611	0.9577	0.028
Mof_N 	N 	0.23212	0.38329	0.96099	-0.256
Mof_C 	C 	0.3196	0.3532	0.8296	0.093
Mof_C 	C 	0.3077	0.3749	0.7905	-0.253
Mof_H 	H 	0.2852	0.3977	0.7904	0.112
Mof_C 	C 	0.3291	0.3629	0.7528	0.146
Mof_H 	H 	0.3214	0.3773	0.7252	-0.435
Mof_N 	N 	0.30193	0.35762	0.87311	-0.284
Mof_O 	O 	0.139	0.237	0.9627	1.054
Mof_C 	C 	0.151	0.2457	0.9759	-1.645
Mof_N 	N 	0.3245	0.4623	0.7056	-0.244
Mof_O 	O 	0.82029	0.9137	0.46217	-0.153
Mof_C 	C 	0.6894	0.8692	0.4763	0.03
Mof_H 	H 	0.6646	0.8611	0.4577	0.051
Mof_N 	N 	0.73212	0.88329	0.46099	-0.268
Mof_C 	C 	0.8196	0.8532	0.3296	0.095
Mof_C 	C 	0.8077	0.8749	0.2905	-0.254
Mof_H 	H 	0.7852	0.8977	0.2904	0.117
Mof_C 	C 	0.8291	0.8629	0.2528	0.147
Mof_H 	H 	0.8214	0.8773	0.2252	-0.436
Mof_N 	N 	0.80193	0.85762	0.37311	-0.285
Mof_O 	O 	0.639	0.737	0.4627	0.938
Mof_C 	C 	0.651	0.7457	0.4759	-1.516
Mof_N 	N 	0.8245	0.9623	0.2056	-0.218
Mof_O 	O 	0.32029	0.5863	0.03783	-0.171
Mof_C 	C 	0.1894	0.6308	0.0237	-0.054
Mof_H 	H 	0.1646	0.6389	0.0423	0.068
Mof_N 	N 	0.23212	0.61671	0.03901	-0.254
Mof_C 	C 	0.3196	0.6468	0.1704	0.093
Mof_C 	C 	0.3077	0.6251	0.2095	-0.253
Mof_H 	H 	0.2852	0.6023	0.2096	0.112
Mof_C 	C 	0.3291	0.6371	0.2472	0.146
Mof_H 	H 	0.3214	0.6227	0.2748	-0.435
Mof_N 	N 	0.30193	0.64238	0.12689	-0.286
Mof_O 	O 	0.139	0.763	0.0373	0.943
Mof_C 	C 	0.151	0.7543	0.0241	-1.549
Mof_N 	N 	0.3245	0.5377	0.2944	-0.243
Mof_O 	O 	0.82029	0.0863	0.53783	-0.166
Mof_C 	C 	0.6894	0.1308	0.5237	0.027
Mof_H 	H 	0.6646	0.1389	0.5423	0.048
Mof_N 	N 	0.73212	0.11671	0.53901	-0.269
Mof_C 	C 	0.8196	0.1468	0.6704	0.088
Mof_C 	C 	0.8077	0.1251	0.7095	-0.247
Mof_H 	H 	0.7852	0.1023	0.7096	0.109
Mof_C 	C 	0.8291	0.1371	0.7472	0.137
Mof_H 	H 	0.8214	0.1227	0.7748	-0.433
Mof_N 	N 	0.80193	0.14238	0.62689	-0.285
Mof_O 	O 	0.639	0.263	0.5373	0.937
Mof_C 	C 	0.651	0.2543	0.5241	-1.516
Mof_N 	N 	0.8245	0.0377	0.7944	-0.236
Mof_O 	O 	0.67971	0.4137	0.03783	-0.171
Mof_C 	C 	0.8106	0.3692	0.0237	-0.053
Mof_H 	H 	0.8354	0.3611	0.0423	0.073
Mof_N 	N 	0.76788	0.38329	0.03901	-0.254
Mof_C 	C 	0.6804	0.3532	0.1704	0.092
Mof_C 	C 	0.6923	0.3749	0.2095	-0.253
Mof_H 	H 	0.7148	0.3977	0.2096	0.112
Mof_C 	C 	0.6709	0.3629	0.2472	0.146
Mof_H 	H 	0.6786	0.3773	0.2748	-0.435
Mof_N 	N 	0.69807	0.35762	0.12689	-0.286
Mof_O 	O 	0.861	0.237	0.0373	0.946
Mof_C 	C 	0.849	0.2457	0.0241	-1.544
Mof_N 	N 	0.6755	0.4623	0.2944	-0.243
Mof_O 	O 	0.17971	0.9137	0.53783	-0.158
Mof_C 	C 	0.3106	0.8692	0.5237	0.03
Mof_H 	H 	0.3354	0.8611	0.5423	0.051
Mof_N 	N 	0.26788	0.88329	0.53901	-0.268
Mof_C 	C 	0.1804	0.8532	0.6704	0.098
Mof_C 	C 	0.1923	0.8749	0.7095	-0.261
Mof_H 	H 	0.2148	0.8977	0.7096	0.119
Mof_C 	C 	0.1709	0.8629	0.7472	0.154
Mof_H 	H 	0.1786	0.8773	0.7748	-0.439
Mof_N 	N 	0.19807	0.85762	0.62689	-0.286
Mof_O 	O 	0.361	0.737	0.5373	0.938
Mof_C 	C 	0.349	0.7457	0.5241	-1.517
Mof_N 	N 	0.1755	0.9623	0.7944	-0.218
Mof_O 	O 	0.96217	0.67971	0.5863	-0.13
Mof_C 	C 	0.9763	0.8106	0.6308	0.115
Mof_H 	H 	0.9577	0.8354	0.6389	0.032
Mof_N 	N 	0.96099	0.76788	0.61671	-0.256
Mof_C 	C 	0.8296	0.6804	0.6468	0.093
Mof_C 	C 	0.7905	0.6923	0.6251	-0.253
Mof_H 	H 	0.7904	0.7148	0.6023	0.112
Mof_C 	C 	0.7528	0.6709	0.6371	0.146
Mof_H 	H 	0.7252	0.6786	0.6227	-0.435
Mof_N 	N 	0.87311	0.69807	0.64238	-0.284
Mof_O 	O 	0.9627	0.861	0.763	1.054
Mof_C 	C 	0.9759	0.849	0.7543	-1.63
Mof_N 	N 	0.7056	0.6755	0.5377	-0.244
Mof_O 	O 	0.46217	0.17971	0.0863	-0.171
Mof_C 	C 	0.4763	0.3106	0.1308	0.027
Mof_H 	H 	0.4577	0.3354	0.1389	0.048
Mof_N 	N 	0.46099	0.26788	0.11671	-0.269
Mof_C 	C 	0.3296	0.1804	0.1468	0.091
Mof_C 	C 	0.2905	0.1923	0.1251	-0.253
Mof_H 	H 	0.2904	0.2148	0.1023	0.111
Mof_C 	C 	0.2528	0.1709	0.1371	0.144
Mof_H 	H 	0.2252	0.1786	0.1227	-0.436
Mof_N 	N 	0.37311	0.19807	0.14238	-0.286
Mof_O 	O 	0.4627	0.361	0.263	0.937
Mof_C 	C 	0.4759	0.349	0.2543	-1.516
Mof_N 	N 	0.2056	0.1755	0.0377	-0.237
Mof_O 	O 	0.96217	0.32029	0.4137	-0.129
Mof_C 	C 	0.9763	0.1894	0.3692	0.114
Mof_H 	H 	0.9577	0.1646	0.3611	0.028
Mof_N 	N 	0.96099	0.23212	0.38329	-0.256
Mof_C 	C 	0.8296	0.3196	0.3532	0.093
Mof_C 	C 	0.7905	0.3077	0.3749	-0.253
Mof_H 	H 	0.7904	0.2852	0.3977	0.112
Mof_C 	C 	0.7528	0.3291	0.3629	0.146
Mof_H 	H 	0.7252	0.3214	0.3773	-0.435
Mof_N 	N 	0.87311	0.30193	0.35762	-0.284
Mof_O 	O 	0.9627	0.139	0.237	1.054
Mof_C 	C 	0.9759	0.151	0.2457	-1.645
Mof_N 	N 	0.7056	0.3245	0.4623	-0.244
Mof_O 	O 	0.46217	0.82029	0.9137	-0.153
Mof_C 	C 	0.4763	0.6894	0.8692	0.03
Mof_H 	H 	0.4577	0.6646	0.8611	0.051
Mof_N 	N 	0.46099	0.73212	0.88329	-0.268
Mof_C 	C 	0.3296	0.8196	0.8532	0.095
Mof_C 	C 	0.2905	0.8077	0.8749	-0.254
Mof_H 	H 	0.2904	0.7852	0.8977	0.117
Mof_C 	C 	0.2528	0.8291	0.8629	0.147
Mof_H 	H 	0.2252	0.8214	0.8773	-0.436
Mof_N 	N 	0.37311	0.80193	0.85762	-0.285
Mof_O 	O 	0.4627	0.639	0.737	0.938
Mof_C 	C 	0.4759	0.651	0.7457	-1.516
Mof_N 	N 	0.2056	0.8245	0.9623	-0.218
Mof_O 	O 	0.03783	0.32029	0.5863	-0.171
Mof_C 	C 	0.0237	0.1894	0.6308	-0.054
Mof_H 	H 	0.0423	0.1646	0.6389	0.068
Mof_N 	N 	0.03901	0.23212	0.61671	-0.254
Mof_C 	C 	0.1704	0.3196	0.6468	0.093
Mof_C 	C 	0.2095	0.3077	0.6251	-0.253
Mof_H 	H 	0.2096	0.2852	0.6023	0.112
Mof_C 	C 	0.2472	0.3291	0.6371	0.146
Mof_H 	H 	0.2748	0.3214	0.6227	-0.435
Mof_N 	N 	0.12689	0.30193	0.64238	-0.286
Mof_O 	O 	0.0373	0.139	0.763	0.943
Mof_C 	C 	0.0241	0.151	0.7543	-1.549
Mof_N 	N 	0.2944	0.3245	0.5377	-0.243
Mof_O 	O 	0.53783	0.82029	0.0863	-0.166
Mof_C 	C 	0.5237	0.6894	0.1308	0.027
Mof_H 	H 	0.5423	0.6646	0.1389	0.048
Mof_N 	N 	0.53901	0.73212	0.11671	-0.269
Mof_C 	C 	0.6704	0.8196	0.1468	0.088
Mof_C 	C 	0.7095	0.8077	0.1251	-0.247
Mof_H 	H 	0.7096	0.7852	0.1023	0.109
Mof_C 	C 	0.7472	0.8291	0.1371	0.137
Mof_H 	H 	0.7748	0.8214	0.1227	-0.433
Mof_N 	N 	0.62689	0.80193	0.14238	-0.285
Mof_O 	O 	0.5373	0.639	0.263	0.937
Mof_C 	C 	0.5241	0.651	0.2543	-1.516
Mof_N 	N 	0.7944	0.8245	0.0377	-0.236
Mof_O 	O 	0.03783	0.67971	0.4137	-0.171
Mof_C 	C 	0.0237	0.8106	0.3692	-0.053
Mof_H 	H 	0.0423	0.8354	0.3611	0.073
Mof_N 	N 	0.03901	0.76788	0.38329	-0.254
Mof_C 	C 	0.1704	0.6804	0.3532	0.092
Mof_C 	C 	0.2095	0.6923	0.3749	-0.253
Mof_H 	H 	0.2096	0.7148	0.3977	0.112
Mof_C 	C 	0.2472	0.6709	0.3629	0.146
Mof_H 	H 	0.2748	0.6786	0.3773	-0.435
Mof_N 	N 	0.12689	0.69807	0.35762	-0.286
Mof_O 	O 	0.0373	0.861	0.237	0.946
Mof_C 	C 	0.0241	0.849	0.2457	-1.544
Mof_N 	N 	0.2944	0.6755	0.4623	-0.243
Mof_O 	O 	0.53783	0.17971	0.9137	-0.158
Mof_C 	C 	0.5237	0.3106	0.8692	0.03
Mof_H 	H 	0.5423	0.3354	0.8611	0.051
Mof_N 	N 	0.53901	0.26788	0.88329	-0.268
Mof_C 	C 	0.6704	0.1804	0.8532	0.098
Mof_C 	C 	0.7095	0.1923	0.8749	-0.261
Mof_H 	H 	0.7096	0.2148	0.8977	0.119
Mof_C 	C 	0.7472	0.1709	0.8629	0.154
Mof_H 	H 	0.7748	0.1786	0.8773	-0.439
Mof_N 	N 	0.62689	0.19807	0.85762	-0.286
Mof_O 	O 	0.5373	0.361	0.737	0.938
Mof_C 	C 	0.5241	0.349	0.7457	-1.517
Mof_N 	N 	0.7944	0.1755	0.9623	-0.218
Mof_O 	O 	0.5863	0.96217	0.67971	-0.13
Mof_C 	C 	0.6308	0.9763	0.8106	0.115
Mof_H 	H 	0.6389	0.9577	0.8354	0.032
Mof_N 	N 	0.61671	0.96099	0.76788	-0.256
Mof_C 	C 	0.6468	0.8296	0.6804	0.093
Mof_C 	C 	0.6251	0.7905	0.6923	-0.253
Mof_H 	H 	0.6023	0.7904	0.7148	0.112
Mof_C 	C 	0.6371	0.7528	0.6709	0.146
Mof_H 	H 	0.6227	0.7252	0.6786	-0.435
Mof_N 	N 	0.64238	0.87311	0.69807	-0.284
Mof_O 	O 	0.763	0.9627	0.861	1.054
Mof_C 	C 	0.7543	0.9759	0.849	-1.63
Mof_N 	N 	0.5377	0.7056	0.6755	-0.244
Mof_O 	O 	0.0863	0.46217	0.17971	-0.171
Mof_C 	C 	0.1308	0.4763	0.3106	0.027
Mof_H 	H 	0.1389	0.4577	0.3354	0.048
Mof_N 	N 	0.11671	0.46099	0.26788	-0.269
Mof_C 	C 	0.1468	0.3296	0.1804	0.091
Mof_C 	C 	0.1251	0.2905	0.1923	-0.253
Mof_H 	H 	0.1023	0.2904	0.2148	0.111
Mof_C 	C 	0.1371	0.2528	0.1709	0.144
Mof_H 	H 	0.1227	0.2252	0.1786	-0.436
Mof_N 	N 	0.14238	0.37311	0.19807	-0.286
Mof_O 	O 	0.263	0.4627	0.361	0.937
Mof_C 	C 	0.2543	0.4759	0.349	-1.516
Mof_N 	N 	0.0377	0.2056	0.1755	-0.237
Mof_O 	O 	0.4137	0.96217	0.32029	-0.129
Mof_C 	C 	0.3692	0.9763	0.1894	0.114
Mof_H 	H 	0.3611	0.9577	0.1646	0.028
Mof_N 	N 	0.38329	0.96099	0.23212	-0.256
Mof_C 	C 	0.3532	0.8296	0.3196	0.093
Mof_C 	C 	0.3749	0.7905	0.3077	-0.253
Mof_H 	H 	0.3977	0.7904	0.2852	0.112
Mof_C 	C 	0.3629	0.7528	0.3291	0.146
Mof_H 	H 	0.3773	0.7252	0.3214	-0.435
Mof_N 	N 	0.35762	0.87311	0.30193	-0.284
Mof_O 	O 	0.237	0.9627	0.139	1.054
Mof_C 	C 	0.2457	0.9759	0.151	-1.645
Mof_N 	N 	0.4623	0.7056	0.3245	-0.244
Mof_O 	O 	0.9137	0.46217	0.82029	-0.153
Mof_C 	C 	0.8692	0.4763	0.6894	0.03
Mof_H 	H 	0.8611	0.4577	0.6646	0.051
Mof_N 	N 	0.88329	0.46099	0.73212	-0.268
Mof_C 	C 	0.8532	0.3296	0.8196	0.095
Mof_C 	C 	0.8749	0.2905	0.8077	-0.254
Mof_H 	H 	0.8977	0.2904	0.7852	0.117
Mof_C 	C 	0.8629	0.2528	0.8291	0.147
Mof_H 	H 	0.8773	0.2252	0.8214	-0.436
Mof_N 	N 	0.85762	0.37311	0.80193	-0.285
Mof_O 	O 	0.737	0.4627	0.639	0.938
Mof_C 	C 	0.7457	0.4759	0.651	-1.516
Mof_N 	N 	0.9623	0.2056	0.8245	-0.218
Mof_O 	O 	0.5863	0.03783	0.32029	-0.171
Mof_C 	C 	0.6308	0.0237	0.1894	-0.054
Mof_H 	H 	0.6389	0.0423	0.1646	0.068
Mof_N 	N 	0.61671	0.03901	0.23212	-0.254
Mof_C 	C 	0.6468	0.1704	0.3196	0.093
Mof_C 	C 	0.6251	0.2095	0.3077	-0.253
Mof_H 	H 	0.6023	0.2096	0.2852	0.112
Mof_C 	C 	0.6371	0.2472	0.3291	0.146
Mof_H 	H 	0.6227	0.2748	0.3214	-0.435
Mof_N 	N 	0.64238	0.12689	0.30193	-0.286
Mof_O 	O 	0.763	0.0373	0.139	0.943
Mof_C 	C 	0.7543	0.0241	0.151	-1.549
Mof_N 	N 	0.5377	0.2944	0.3245	-0.243
Mof_O 	O 	0.0863	0.53783	0.82029	-0.166
Mof_C 	C 	0.1308	0.5237	0.6894	0.027
Mof_H 	H 	0.1389	0.5423	0.6646	0.048
Mof_N 	N 	0.11671	0.53901	0.73212	-0.269
Mof_C 	C 	0.1468	0.6704	0.8196	0.088
Mof_C 	C 	0.1251	0.7095	0.8077	-0.247
Mof_H 	H 	0.1023	0.7096	0.7852	0.109
Mof_C 	C 	0.1371	0.7472	0.8291	0.137
Mof_H 	H 	0.1227	0.7748	0.8214	-0.433
Mof_N 	N 	0.14238	0.62689	0.80193	-0.285
Mof_O 	O 	0.263	0.5373	0.639	0.937
Mof_C 	C 	0.2543	0.5241	0.651	-1.516
Mof_N 	N 	0.0377	0.7944	0.8245	-0.236
Mof_O 	O 	0.4137	0.03783	0.67971	-0.171
Mof_C 	C 	0.3692	0.0237	0.8106	-0.053
Mof_H 	H 	0.3611	0.0423	0.8354	0.073
Mof_N 	N 	0.38329	0.03901	0.76788	-0.254
Mof_C 	C 	0.3532	0.1704	0.6804	0.092
Mof_C 	C 	0.3749	0.2095	0.6923	-0.253
Mof_H 	H 	0.3977	0.2096	0.7148	0.112
Mof_C 	C 	0.3629	0.2472	0.6709	0.146
Mof_H 	H 	0.3773	0.2748	0.6786	-0.435
Mof_N 	N 	0.35762	0.12689	0.69807	-0.286
Mof_O 	O 	0.237	0.0373	0.861	0.946
Mof_C 	C 	0.2457	0.0241	0.849	-1.544
Mof_N 	N 	0.4623	0.2944	0.6755	-0.243
Mof_O 	O 	0.9137	0.53783	0.17971	-0.158
Mof_C 	C 	0.8692	0.5237	0.3106	0.03
Mof_H 	H 	0.8611	0.5423	0.3354	0.051
Mof_N 	N 	0.88329	0.53901	0.26788	-0.268
Mof_C 	C 	0.8532	0.6704	0.1804	0.098
Mof_C 	C 	0.8749	0.7095	0.1923	-0.261
Mof_H 	H 	0.8977	0.7096	0.2148	0.119
Mof_C 	C 	0.8629	0.7472	0.1709	0.154
Mof_H 	H 	0.8773	0.7748	0.1786	-0.439
Mof_N 	N 	0.85762	0.62689	0.19807	-0.286
Mof_O 	O 	0.737	0.5373	0.361	0.938
Mof_C 	C 	0.7457	0.5241	0.349	-1.517
Mof_N 	N 	0.9623	0.7944	0.1755	-0.218
Mof_O 	O 	0.5863	0.67971	0.03783	-0.171
Mof_C 	C 	0.6308	0.8106	0.0237	-0.053
Mof_H 	H 	0.6389	0.8354	0.0423	0.073
Mof_N 	N 	0.61671	0.76788	0.03901	-0.254
Mof_C 	C 	0.6468	0.6804	0.1704	0.092
Mof_C 	C 	0.6251	0.6923	0.2095	-0.253
Mof_H 	H 	0.6023	0.7148	0.2096	0.112
Mof_C 	C 	0.6371	0.6709	0.2472	0.146
Mof_H 	H 	0.6227	0.6786	0.2748	-0.435
Mof_N 	N 	0.64238	0.69807	0.12689	-0.286
Mof_O 	O 	0.763	0.861	0.0373	0.944
Mof_C 	C 	0.7543	0.849	0.0241	-1.539
Mof_N 	N 	0.5377	0.6755	0.2944	-0.243
Mof_O 	O 	0.0863	0.17971	0.53783	-0.171
Mof_C 	C 	0.1308	0.3106	0.5237	0.027
Mof_H 	H 	0.1389	0.3354	0.5423	0.048
Mof_N 	N 	0.11671	0.26788	0.53901	-0.269
Mof_C 	C 	0.1468	0.1804	0.6704	0.091
Mof_C 	C 	0.1251	0.1923	0.7095	-0.254
Mof_H 	H 	0.1023	0.2148	0.7096	0.111
Mof_C 	C 	0.1371	0.1709	0.7472	0.144
Mof_H 	H 	0.1227	0.1786	0.7748	-0.436
Mof_N 	N 	0.14238	0.19807	0.62689	-0.286
Mof_O 	O 	0.263	0.361	0.5373	0.937
Mof_C 	C 	0.2543	0.349	0.5241	-1.516
Mof_N 	N 	0.0377	0.1755	0.7944	-0.236
Mof_O 	O 	0.4137	0.32029	0.03783	-0.171
Mof_C 	C 	0.3692	0.1894	0.0237	-0.054
Mof_H 	H 	0.3611	0.1646	0.0423	0.068
Mof_N 	N 	0.38329	0.23212	0.03901	-0.254
Mof_C 	C 	0.3532	0.3196	0.1704	0.093
Mof_C 	C 	0.3749	0.3077	0.2095	-0.253
Mof_H 	H 	0.3977	0.2852	0.2096	0.112
Mof_C 	C 	0.3629	0.3291	0.2472	0.146
Mof_H 	H 	0.3773	0.3214	0.2748	-0.435
Mof_N 	N 	0.35762	0.30193	0.12689	-0.286
Mof_O 	O 	0.237	0.139	0.0373	0.944
Mof_C 	C 	0.2457	0.151	0.0241	-1.554
Mof_N 	N 	0.4623	0.3245	0.2944	-0.243
Mof_O 	O 	0.9137	0.82029	0.53783	-0.153
Mof_C 	C 	0.8692	0.6894	0.5237	0.03
Mof_H 	H 	0.8611	0.6646	0.5423	0.051
Mof_N 	N 	0.88329	0.73212	0.53901	-0.268
Mof_C 	C 	0.8532	0.8196	0.6704	0.095
Mof_C 	C 	0.8749	0.8077	0.7095	-0.254
Mof_H 	H 	0.8977	0.7852	0.7096	0.117
Mof_C 	C 	0.8629	0.8291	0.7472	0.147
Mof_H 	H 	0.8773	0.8214	0.7748	-0.436
Mof_N 	N 	0.85762	0.80193	0.62689	-0.285
Mof_O 	O 	0.737	0.639	0.5373	0.938
Mof_C 	C 	0.7457	0.651	0.5241	-1.516
Mof_N 	N 	0.9623	0.8245	0.7944	-0.217
Mof_O 	O 	0.5863	0.32029	0.96217	-0.129
Mof_C 	C 	0.6308	0.1894	0.9763	0.114
Mof_H 	H 	0.6389	0.1646	0.9577	0.028
Mof_N 	N 	0.61671	0.23212	0.96099	-0.256
Mof_C 	C 	0.6468	0.3196	0.8296	0.093
Mof_C 	C 	0.6251	0.3077	0.7905	-0.253
Mof_H 	H 	0.6023	0.2852	0.7904	0.112
Mof_C 	C 	0.6371	0.3291	0.7528	0.146
Mof_H 	H 	0.6227	0.3214	0.7252	-0.435
Mof_N 	N 	0.64238	0.30193	0.87311	-0.284
Mof_O 	O 	0.763	0.139	0.9627	1.052
Mof_C 	C 	0.7543	0.151	0.9759	-1.639
Mof_N 	N 	0.5377	0.3245	0.7056	-0.244
Mof_O 	O 	0.0863	0.82029	0.46217	-0.166
Mof_C 	C 	0.1308	0.6894	0.4763	0.027
Mof_H 	H 	0.1389	0.6646	0.4577	0.048
Mof_N 	N 	0.11671	0.73212	0.46099	-0.269
Mof_C 	C 	0.1468	0.8196	0.3296	0.088
Mof_C 	C 	0.1251	0.8077	0.2905	-0.247
Mof_H 	H 	0.1023	0.7852	0.2904	0.109
Mof_C 	C 	0.1371	0.8291	0.2528	0.137
Mof_H 	H 	0.1227	0.8214	0.2252	-0.433
Mof_N 	N 	0.14238	0.80193	0.37311	-0.285
Mof_O 	O 	0.263	0.639	0.4627	0.937
Mof_C 	C 	0.2543	0.651	0.4759	-1.516
Mof_N 	N 	0.0377	0.8245	0.2056	-0.236
Mof_O 	O 	0.4137	0.67971	0.96217	-0.129
Mof_C 	C 	0.3692	0.8106	0.9763	0.115
Mof_H 	H 	0.3611	0.8354	0.9577	0.032
Mof_N 	N 	0.38329	0.76788	0.96099	-0.256
Mof_C 	C 	0.3532	0.6804	0.8296	0.093
Mof_C 	C 	0.3749	0.6923	0.7905	-0.253
Mof_H 	H 	0.3977	0.7148	0.7904	0.112
Mof_C 	C 	0.3629	0.6709	0.7528	0.146
Mof_H 	H 	0.3773	0.6786	0.7252	-0.435
Mof_N 	N 	0.35762	0.69807	0.87311	-0.284
Mof_O 	O 	0.237	0.861	0.9627	1.055
Mof_C 	C 	0.2457	0.849	0.9759	-1.635
Mof_N 	N 	0.4623	0.6755	0.7056	-0.244
Mof_O 	O 	0.9137	0.17971	0.46217	-0.158
Mof_C 	C 	0.8692	0.3106	0.4763	0.03
Mof_H 	H 	0.8611	0.3354	0.4577	0.051
Mof_N 	N 	0.88329	0.26788	0.46099	-0.268
Mof_C 	C 	0.8532	0.1804	0.3296	0.098
Mof_C 	C 	0.8749	0.1923	0.2905	-0.261
Mof_H 	H 	0.8977	0.2148	0.2904	0.119
Mof_C 	C 	0.8629	0.1709	0.2528	0.154
Mof_H 	H 	0.8773	0.1786	0.2252	-0.439
Mof_N 	N 	0.85762	0.19807	0.37311	-0.286
Mof_O 	O 	0.737	0.361	0.4627	0.938
Mof_C 	C 	0.7457	0.349	0.4759	-1.517
Mof_N 	N 	0.9623	0.1755	0.2056	-0.218
Mof_O 	O 	0.67971	0.96217	0.4137	-0.129
Mof_C 	C 	0.8106	0.9763	0.3692	0.115
Mof_H 	H 	0.8354	0.9577	0.3611	0.032
Mof_N 	N 	0.76788	0.96099	0.38329	-0.256
Mof_C 	C 	0.6804	0.8296	0.3532	0.093
Mof_C 	C 	0.6923	0.7905	0.3749	-0.253
Mof_H 	H 	0.7148	0.7904	0.3977	0.112
Mof_C 	C 	0.6709	0.7528	0.3629	0.146
Mof_H 	H 	0.6786	0.7252	0.3773	-0.435
Mof_N 	N 	0.69807	0.87311	0.35762	-0.284
Mof_O 	O 	0.861	0.9627	0.237	1.055
Mof_C 	C 	0.849	0.9759	0.2457	-1.635
Mof_N 	N 	0.6755	0.7056	0.4623	-0.244
Mof_O 	O 	0.17971	0.46217	0.9137	-0.158
Mof_C 	C 	0.3106	0.4763	0.8692	0.03
Mof_H 	H 	0.3354	0.4577	0.8611	0.051
Mof_N 	N 	0.26788	0.46099	0.88329	-0.268
Mof_C 	C 	0.1804	0.3296	0.8532	0.098
Mof_C 	C 	0.1923	0.2905	0.8749	-0.261
Mof_H 	H 	0.2148	0.2904	0.8977	0.119
Mof_C 	C 	0.1709	0.2528	0.8629	0.154
Mof_H 	H 	0.1786	0.2252	0.8773	-0.439
Mof_N 	N 	0.19807	0.37311	0.85762	-0.286
Mof_O 	O 	0.361	0.4627	0.737	0.938
Mof_C 	C 	0.349	0.4759	0.7457	-1.517
Mof_N 	N 	0.1755	0.2056	0.9623	-0.218
Mof_O 	O 	0.32029	0.96217	0.5863	-0.129
Mof_C 	C 	0.1894	0.9763	0.6308	0.114
Mof_H 	H 	0.1646	0.9577	0.6389	0.028
Mof_N 	N 	0.23212	0.96099	0.61671	-0.256
Mof_C 	C 	0.3196	0.8296	0.6468	0.093
Mof_C 	C 	0.3077	0.7905	0.6251	-0.253
Mof_H 	H 	0.2852	0.7904	0.6023	0.112
Mof_C 	C 	0.3291	0.7528	0.6371	0.146
Mof_H 	H 	0.3214	0.7252	0.6227	-0.435
Mof_N 	N 	0.30193	0.87311	0.64238	-0.284
Mof_O 	O 	0.139	0.9627	0.763	1.052
Mof_C 	C 	0.151	0.9759	0.7543	-1.639
Mof_N 	N 	0.3245	0.7056	0.5377	-0.244
Mof_O 	O 	0.82029	0.46217	0.0863	-0.166
Mof_C 	C 	0.6894	0.4763	0.1308	0.027
Mof_H 	H 	0.6646	0.4577	0.1389	0.048
Mof_N 	N 	0.73212	0.46099	0.11671	-0.269
Mof_C 	C 	0.8196	0.3296	0.1468	0.088
Mof_C 	C 	0.8077	0.2905	0.1251	-0.247
Mof_H 	H 	0.7852	0.2904	0.1023	0.109
Mof_C 	C 	0.8291	0.2528	0.1371	0.137
Mof_H 	H 	0.8214	0.2252	0.1227	-0.433
Mof_N 	N 	0.80193	0.37311	0.14238	-0.285
Mof_O 	O 	0.639	0.4627	0.263	0.937
Mof_C 	C 	0.651	0.4759	0.2543	-1.516
Mof_N 	N 	0.8245	0.2056	0.0377	-0.236
Mof_O 	O 	0.32029	0.03783	0.4137	-0.171
Mof_C 	C 	0.1894	0.0237	0.3692	-0.054
Mof_H 	H 	0.1646	0.0423	0.3611	0.068
Mof_N 	N 	0.23212	0.03901	0.38329	-0.254
Mof_C 	C 	0.3196	0.1704	0.3532	0.093
Mof_C 	C 	0.3077	0.2095	0.3749	-0.253
Mof_H 	H 	0.2852	0.2096	0.3977	0.112
Mof_C 	C 	0.3291	0.2472	0.3629	0.146
Mof_H 	H 	0.3214	0.2748	0.3773	-0.435
Mof_N 	N 	0.30193	0.12689	0.35762	-0.286
Mof_O 	O 	0.139	0.0373	0.237	0.944
Mof_C 	C 	0.151	0.0241	0.2457	-1.554
Mof_N 	N 	0.3245	0.2944	0.4623	-0.243
Mof_O 	O 	0.82029	0.53783	0.9137	-0.153
Mof_C 	C 	0.6894	0.5237	0.8692	0.03
Mof_H 	H 	0.6646	0.5423	0.8611	0.051
Mof_N 	N 	0.73212	0.53901	0.88329	-0.268
Mof_C 	C 	0.8196	0.6704	0.8532	0.095
Mof_C 	C 	0.8077	0.7095	0.8749	-0.254
Mof_H 	H 	0.7852	0.7096	0.8977	0.117
Mof_C 	C 	0.8291	0.7472	0.8629	0.147
Mof_H 	H 	0.8214	0.7748	0.8773	-0.436
Mof_N 	N 	0.80193	0.62689	0.85762	-0.285
Mof_O 	O 	0.639	0.5373	0.737	0.938
Mof_C 	C 	0.651	0.5241	0.7457	-1.516
Mof_N 	N 	0.8245	0.7944	0.9623	-0.217
Mof_O 	O 	0.67971	0.03783	0.5863	-0.171
Mof_C 	C 	0.8106	0.0237	0.6308	-0.053
Mof_H 	H 	0.8354	0.0423	0.6389	0.073
Mof_N 	N 	0.76788	0.03901	0.61671	-0.254
Mof_C 	C 	0.6804	0.1704	0.6468	0.092
Mof_C 	C 	0.6923	0.2095	0.6251	-0.253
Mof_H 	H 	0.7148	0.2096	0.6023	0.112
Mof_C 	C 	0.6709	0.2472	0.6371	0.146
Mof_H 	H 	0.6786	0.2748	0.6227	-0.435
Mof_N 	N 	0.69807	0.12689	0.64238	-0.286
Mof_O 	O 	0.861	0.0373	0.763	0.944
Mof_C 	C 	0.849	0.0241	0.7543	-1.539
Mof_N 	N 	0.6755	0.2944	0.5377	-0.243
Mof_O 	O 	0.17971	0.53783	0.0863	-0.171
Mof_C 	C 	0.3106	0.5237	0.1308	0.027
Mof_H 	H 	0.3354	0.5423	0.1389	0.048
Mof_N 	N 	0.26788	0.53901	0.11671	-0.269
Mof_C 	C 	0.1804	0.6704	0.1468	0.091
Mof_C 	C 	0.1923	0.7095	0.1251	-0.254
Mof_H 	H 	0.2148	0.7096	0.1023	0.111
Mof_C 	C 	0.1709	0.7472	0.1371	0.144
Mof_H 	H 	0.1786	0.7748	0.1227	-0.436
Mof_N 	N 	0.19807	0.62689	0.14238	-0.286
Mof_O 	O 	0.361	0.5373	0.263	0.937
Mof_C 	C 	0.349	0.5241	0.2543	-1.516
Mof_N 	N 	0.1755	0.7944	0.0377	-0.236
Mof_O 	O 	0.96217	0.5863	0.32029	-0.129
Mof_C 	C 	0.9763	0.6308	0.1894	0.114
Mof_H 	H 	0.9577	0.6389	0.1646	0.028
Mof_N 	N 	0.96099	0.61671	0.23212	-0.256
Mof_C 	C 	0.8296	0.6468	0.3196	0.093
Mof_C 	C 	0.7905	0.6251	0.3077	-0.253
Mof_H 	H 	0.7904	0.6023	0.2852	0.112
Mof_C 	C 	0.7528	0.6371	0.3291	0.146
Mof_H 	H 	0.7252	0.6227	0.3214	-0.435
Mof_N 	N 	0.87311	0.64238	0.30193	-0.284
Mof_O 	O 	0.9627	0.763	0.139	1.052
Mof_C 	C 	0.9759	0.7543	0.151	-1.639
Mof_N 	N 	0.7056	0.5377	0.3245	-0.244
Mof_O 	O 	0.46217	0.0863	0.82029	-0.166
Mof_C 	C 	0.4763	0.1308	0.6894	0.027
Mof_H 	H 	0.4577	0.1389	0.6646	0.048
Mof_N 	N 	0.46099	0.11671	0.73212	-0.269
Mof_C 	C 	0.3296	0.1468	0.8196	0.088
Mof_C 	C 	0.2905	0.1251	0.8077	-0.247
Mof_H 	H 	0.2904	0.1023	0.7852	0.109
Mof_C 	C 	0.2528	0.1371	0.8291	0.137
Mof_H 	H 	0.2252	0.1227	0.8214	-0.433
Mof_N 	N 	0.37311	0.14238	0.80193	-0.285
Mof_O 	O 	0.4627	0.263	0.639	0.937
Mof_C 	C 	0.4759	0.2543	0.651	-1.516
Mof_N 	N 	0.2056	0.0377	0.8245	-0.236
Mof_O 	O 	0.96217	0.4137	0.67971	-0.129
Mof_C 	C 	0.9763	0.3692	0.8106	0.115
Mof_H 	H 	0.9577	0.3611	0.8354	0.032
Mof_N 	N 	0.96099	0.38329	0.76788	-0.256
Mof_C 	C 	0.8296	0.3532	0.6804	0.093
Mof_C 	C 	0.7905	0.3749	0.6923	-0.253
Mof_H 	H 	0.7904	0.3977	0.7148	0.112
Mof_C 	C 	0.7528	0.3629	0.6709	0.146
Mof_H 	H 	0.7252	0.3773	0.6786	-0.435
Mof_N 	N 	0.87311	0.35762	0.69807	-0.284
Mof_O 	O 	0.9627	0.237	0.861	1.055
Mof_C 	C 	0.9759	0.2457	0.849	-1.635
Mof_N 	N 	0.7056	0.4623	0.6755	-0.244
Mof_O 	O 	0.46217	0.9137	0.17971	-0.158
Mof_C 	C 	0.4763	0.8692	0.3106	0.03
Mof_H 	H 	0.4577	0.8611	0.3354	0.051
Mof_N 	N 	0.46099	0.88329	0.26788	-0.268
Mof_C 	C 	0.3296	0.8532	0.1804	0.098
Mof_C 	C 	0.2905	0.8749	0.1923	-0.261
Mof_H 	H 	0.2904	0.8977	0.2148	0.119
Mof_C 	C 	0.2528	0.8629	0.1709	0.154
Mof_H 	H 	0.2252	0.8773	0.1786	-0.439
Mof_N 	N 	0.37311	0.85762	0.19807	-0.286
Mof_O 	O 	0.4627	0.737	0.361	0.938
Mof_C 	C 	0.4759	0.7457	0.349	-1.517
Mof_N 	N 	0.2056	0.9623	0.1755	-0.218
Mof_O 	O 	0.03783	0.5863	0.67971	-0.171
Mof_C 	C 	0.0237	0.6308	0.8106	-0.053
Mof_H 	H 	0.0423	0.6389	0.8354	0.073
Mof_N 	N 	0.03901	0.61671	0.76788	-0.254
Mof_C 	C 	0.1704	0.6468	0.6804	0.092
Mof_C 	C 	0.2095	0.6251	0.6923	-0.253
Mof_H 	H 	0.2096	0.6023	0.7148	0.112
Mof_C 	C 	0.2472	0.6371	0.6709	0.146
Mof_H 	H 	0.2748	0.6227	0.6786	-0.435
Mof_N 	N 	0.12689	0.64238	0.69807	-0.286
Mof_O 	O 	0.0373	0.763	0.861	0.944
Mof_C 	C 	0.0241	0.7543	0.849	-1.539
Mof_N 	N 	0.2944	0.5377	0.6755	-0.243
Mof_O 	O 	0.53783	0.0863	0.17971	-0.171
Mof_C 	C 	0.5237	0.1308	0.3106	0.027
Mof_H 	H 	0.5423	0.1389	0.3354	0.048
Mof_N 	N 	0.53901	0.11671	0.26788	-0.269
Mof_C 	C 	0.6704	0.1468	0.1804	0.091
Mof_C 	C 	0.7095	0.1251	0.1923	-0.254
Mof_H 	H 	0.7096	0.1023	0.2148	0.111
Mof_C 	C 	0.7472	0.1371	0.1709	0.144
Mof_H 	H 	0.7748	0.1227	0.1786	-0.436
Mof_N 	N 	0.62689	0.14238	0.19807	-0.286
Mof_O 	O 	0.5373	0.263	0.361	0.937
Mof_C 	C 	0.5241	0.2543	0.349	-1.516
Mof_N 	N 	0.7944	0.0377	0.1755	-0.236
Mof_O 	O 	0.03783	0.4137	0.32029	-0.171
Mof_C 	C 	0.0237	0.3692	0.1894	-0.054
Mof_H 	H 	0.0423	0.3611	0.1646	0.068
Mof_N 	N 	0.03901	0.38329	0.23212	-0.254
Mof_C 	C 	0.1704	0.3532	0.3196	0.093
Mof_C 	C 	0.2095	0.3749	0.3077	-0.253
Mof_H 	H 	0.2096	0.3977	0.2852	0.112
Mof_C 	C 	0.2472	0.3629	0.3291	0.146
Mof_H 	H 	0.2748	0.3773	0.3214	-0.435
Mof_N 	N 	0.12689	0.35762	0.30193	-0.286
Mof_O 	O 	0.0373	0.237	0.139	0.944
Mof_C 	C 	0.0241	0.2457	0.151	-1.554
Mof_N 	N 	0.2944	0.4623	0.3245	-0.243
Mof_O 	O 	0.53783	0.9137	0.82029	-0.153
Mof_C 	C 	0.5237	0.8692	0.6894	0.03
Mof_H 	H 	0.5423	0.8611	0.6646	0.051
Mof_N 	N 	0.53901	0.88329	0.73212	-0.268
Mof_C 	C 	0.6704	0.8532	0.8196	0.095
Mof_C 	C 	0.7095	0.8749	0.8077	-0.254
Mof_H 	H 	0.7096	0.8977	0.7852	0.117
Mof_C 	C 	0.7472	0.8629	0.8291	0.147
Mof_H 	H 	0.7748	0.8773	0.8214	-0.436
Mof_N 	N 	0.62689	0.85762	0.80193	-0.285
Mof_O 	O 	0.5373	0.737	0.639	0.938
Mof_C 	C 	0.5241	0.7457	0.651	-1.516
Mof_N 	N 	0.7944	0.9623	0.8245	-0.217
Mof_Zn	Zn	0.25	0.39602	0.10398	1.19
Mof_Zn	Zn	0.75	0.60398	0.10398	1.19
Mof_Zn	Zn	0.75	0.39602	0.89602	1.192
Mof_Zn	Zn	0.25	0.60398	0.89602	1.192
Mof_Zn	Zn	0.10398	0.25	0.39602	1.19
Mof_Zn	Zn	0.10398	0.75	0.60398	1.19
Mof_Zn	Zn	0.89602	0.75	0.39602	1.192
Mof_Zn	Zn	0.89602	0.25	0.60398	1.192
Mof_Zn	Zn	0.39602	0.10398	0.25	1.19
Mof_Zn	Zn	0.60398	0.10398	0.75	1.19
Mof_Zn	Zn	0.39602	0.89602	0.75	1.192
Mof_Zn	Zn	0.60398	0.89602	0.25	1.192
Mof_Zn	Zn	0.39602	0.25	0.89602	1.192
Mof_Zn	Zn	0.60398	0.75	0.89602	1.192
Mof_Zn	Zn	0.39602	0.75	0.10398	1.19
Mof_Zn	Zn	0.60398	0.25	0.10398	1.19
Mof_Zn	Zn	0.25	0.10398	0.60398	1.19
Mof_Zn	Zn	0.75	0.10398	0.39602	1.19
Mof_Zn	Zn	0.75	0.89602	0.60398	1.192
Mof_Zn	Zn	0.25	0.89602	0.39602	1.192
Mof_Zn	Zn	0.10398	0.39602	0.75	1.19
Mof_Zn	Zn	0.10398	0.60398	0.25	1.19
Mof_Zn	Zn	0.89602	0.39602	0.25	1.192
Mof_Zn	Zn	0.89602	0.60398	0.75	1.192
Mof_Zn	Zn	0.75	0.60398	0.89602	1.192
Mof_Zn	Zn	0.25	0.10398	0.39602	1.19
Mof_Zn	Zn	0.25	0.39602	0.89602	1.192
Mof_Zn	Zn	0.25	0.60398	0.10398	1.19
Mof_Zn	Zn	0.75	0.39602	0.10398	1.19
Mof_Zn	Zn	0.89602	0.75	0.60398	1.192
Mof_Zn	Zn	0.39602	0.25	0.10398	1.19
Mof_Zn	Zn	0.89602	0.25	0.39602	1.192
Mof_Zn	Zn	0.10398	0.25	0.60398	1.19
Mof_Zn	Zn	0.10398	0.75	0.39602	1.19
Mof_Zn	Zn	0.60398	0.89602	0.75	1.192
Mof_Zn	Zn	0.10398	0.39602	0.25	1.19
Mof_Zn	Zn	0.39602	0.89602	0.25	1.192
Mof_Zn	Zn	0.60398	0.10398	0.25	1.19
Mof_Zn	Zn	0.39602	0.10398	0.75	1.19
Mof_Zn	Zn	0.60398	0.75	0.10398	1.19
Mof_Zn	Zn	0.60398	0.25	0.89602	1.192
Mof_Zn	Zn	0.39602	0.75	0.89602	1.192
Mof_Zn	Zn	0.75	0.89602	0.39602	1.192
Mof_Zn	Zn	0.25	0.89602	0.60398	1.192
Mof_Zn	Zn	0.75	0.10398	0.60398	1.19
Mof_Zn	Zn	0.89602	0.60398	0.25	1.192
Mof_Zn	Zn	0.89602	0.39602	0.75	1.192
Mof_Zn	Zn	0.10398	0.60398	0.75	1.19
Mof_Zn	Zn	0.31112	0.39628	0.31112	1.226
Mof_Zn	Zn	0.81112	0.89628	0.81112	1.226
Mof_Zn	Zn	0.68888	0.60372	0.31112	1.226
Mof_Zn	Zn	0.18888	0.10372	0.81112	1.224
Mof_Zn	Zn	0.68888	0.39628	0.68888	1.226
Mof_Zn	Zn	0.18888	0.89628	0.18888	1.224
Mof_Zn	Zn	0.31112	0.60372	0.68888	1.226
Mof_Zn	Zn	0.81112	0.10372	0.18888	1.224
Mof_Zn	Zn	0.31112	0.31112	0.39628	1.226
Mof_Zn	Zn	0.81112	0.81112	0.89628	1.226
Mof_Zn	Zn	0.31112	0.68888	0.60372	1.226
Mof_Zn	Zn	0.81112	0.18888	0.10372	1.224
Mof_Zn	Zn	0.68888	0.68888	0.39628	1.226
Mof_Zn	Zn	0.18888	0.18888	0.89628	1.224
Mof_Zn	Zn	0.68888	0.31112	0.60372	1.226
Mof_Zn	Zn	0.18888	0.81112	0.10372	1.224
Mof_Zn	Zn	0.39628	0.31112	0.31112	1.226
Mof_Zn	Zn	0.89628	0.81112	0.81112	1.226
Mof_Zn	Zn	0.60372	0.31112	0.68888	1.226
Mof_Zn	Zn	0.10372	0.81112	0.18888	1.224
Mof_Zn	Zn	0.39628	0.68888	0.68888	1.226
Mof_Zn	Zn	0.89628	0.18888	0.18888	1.224
Mof_Zn	Zn	0.60372	0.68888	0.31112	1.226
Mof_Zn	Zn	0.10372	0.18888	0.81112	1.224
Mof_Zn	Zn	0.39628	0.31112	0.68888	1.226
Mof_Zn	Zn	0.89628	0.81112	0.18888	1.225
Mof_Zn	Zn	0.60372	0.68888	0.68888	1.226
Mof_Zn	Zn	0.10372	0.18888	0.18888	1.223
Mof_Zn	Zn	0.39628	0.68888	0.31112	1.226
Mof_Zn	Zn	0.89628	0.18888	0.81112	1.225
Mof_Zn	Zn	0.60372	0.31112	0.31112	1.226
Mof_Zn	Zn	0.10372	0.81112	0.81112	1.225
Mof_Zn	Zn	0.31112	0.31112	0.60372	1.226
Mof_Zn	Zn	0.81112	0.81112	0.10372	1.225
Mof_Zn	Zn	0.68888	0.31112	0.39628	1.226
Mof_Zn	Zn	0.18888	0.81112	0.89628	1.225
Mof_Zn	Zn	0.68888	0.68888	0.60372	1.226
Mof_Zn	Zn	0.18888	0.18888	0.10372	1.223
Mof_Zn	Zn	0.31112	0.68888	0.39628	1.226
Mof_Zn	Zn	0.81112	0.18888	0.89628	1.225
Mof_Zn	Zn	0.31112	0.39628	0.68888	1.226
Mof_Zn	Zn	0.81112	0.89628	0.18888	1.225
Mof_Zn	Zn	0.31112	0.60372	0.31112	1.226
Mof_Zn	Zn	0.81112	0.10372	0.81112	1.225
Mof_Zn	Zn	0.68888	0.39628	0.31112	1.226
Mof_Zn	Zn	0.18888	0.89628	0.81112	1.225
Mof_Zn	Zn	0.68888	0.60372	0.68888	1.226
Mof_Zn	Zn	0.18888	0.10372	0.18888	1.223
Mof_C 	C 	0.2551	0.3919	-0	0.116
Mof_N 	N 	0.301	0.4071	-0	-0.051
Mof_C 	C 	0.7551	0.8919	0.5	0.163
Mof_N 	N 	0.801	0.9071	0.5	-0.032
Mof_C 	C 	0.7449	0.6081	-0	0.116
Mof_N 	N 	0.699	0.5929	-0	-0.051
Mof_C 	C 	0.2449	0.1081	0.5	0.156
Mof_N 	N 	0.199	0.0929	0.5	-0.032
Mof_C 	C 	0.7449	0.3919	-0	0.116
Mof_N 	N 	0.699	0.4071	-0	-0.051
Mof_C 	C 	0.2449	0.8919	0.5	0.163
Mof_N 	N 	0.199	0.9071	0.5	-0.031
Mof_C 	C 	0.2551	0.6081	-0	0.116
Mof_N 	N 	0.301	0.5929	-0	-0.051
Mof_C 	C 	0.7551	0.1081	0.5	0.156
Mof_N 	N 	0.801	0.0929	0.5	-0.032
Mof_C 	C 	5.59076e-33	0.2551	0.3919	0.116
Mof_N 	N 	5.64775e-33	0.301	0.4071	-0.051
Mof_C 	C 	0.5	0.7551	0.8919	0.163
Mof_N 	N 	0.5	0.801	0.9071	-0.032
Mof_C 	C 	2.28001e-33	0.7449	0.6081	0.116
Mof_N 	N 	-6.01971e-33	0.699	0.5929	-0.051
Mof_C 	C 	0.5	0.2449	0.1081	0.156
Mof_N 	N 	0.5	0.199	0.0929	-0.032
Mof_C 	C 	1.46939e-33	0.7449	0.3919	0.116
Mof_N 	N 	-2.59498e-33	0.699	0.4071	-0.051
Mof_C 	C 	0.5	0.2449	0.8919	0.163
Mof_N 	N 	0.5	0.199	0.9071	-0.031
Mof_C 	C 	2.28001e-33	0.2551	0.6081	0.116
Mof_N 	N 	-6.01971e-33	0.301	0.5929	-0.051
Mof_C 	C 	0.5	0.7551	0.1081	0.156
Mof_N 	N 	0.5	0.801	0.0929	-0.032
Mof_C 	C 	0.3919	0	0.2551	0.116
Mof_N 	N 	0.4071	4.12137e-33	0.301	-0.051
Mof_C 	C 	0.8919	0.5	0.7551	0.163
Mof_N 	N 	0.9071	0.5	0.801	-0.032
Mof_C 	C 	0.6081	-8.24273e-33	0.7449	0.116
Mof_N 	N 	0.5929	8.24273e-33	0.699	-0.051
Mof_C 	C 	0.1081	0.5	0.2449	0.156
Mof_N 	N 	0.0929	0.5	0.199	-0.032
Mof_C 	C 	0.3919	-8.24273e-33	0.7449	0.116
Mof_N 	N 	0.4071	8.24273e-33	0.699	-0.051
Mof_C 	C 	0.8919	0.5	0.2449	0.163
Mof_N 	N 	0.9071	0.5	0.199	-0.031
Mof_C 	C 	0.6081	0	0.2551	0.116
Mof_N 	N 	0.5929	4.12137e-33	0.301	-0.051
Mof_C 	C 	0.1081	0.5	0.7551	0.156
Mof_N 	N 	0.0929	0.5	0.801	-0.032
Mof_C 	C 	0.3919	0.2551	-0	0.116
Mof_N 	N 	0.4071	0.301	-0	-0.051
Mof_C 	C 	0.8919	0.7551	0.5	0.163
Mof_N 	N 	0.9071	0.801	0.5	-0.032
Mof_C 	C 	0.6081	0.7449	-0	0.116
Mof_N 	N 	0.5929	0.699	-0	-0.051
Mof_C 	C 	0.1081	0.2449	0.5	0.156
Mof_N 	N 	0.0929	0.199	0.5	-0.032
Mof_C 	C 	0.3919	0.7449	-0	0.116
Mof_N 	N 	0.4071	0.699	-0	-0.051
Mof_C 	C 	0.8919	0.2449	0.5	0.163
Mof_N 	N 	0.9071	0.199	0.5	-0.031
Mof_C 	C 	0.6081	0.2551	-0	0.116
Mof_N 	N 	0.5929	0.301	-0	-0.051
Mof_C 	C 	0.1081	0.7551	0.5	0.156
Mof_N 	N 	0.0929	0.801	0.5	-0.032
Mof_C 	C 	0.2551	0	0.6081	0.116
Mof_N 	N 	0.301	0	0.5929	-0.051
Mof_C 	C 	0.7551	0.5	0.1081	0.156
Mof_N 	N 	0.801	0.5	0.0929	-0.032
Mof_C 	C 	0.7449	4.12137e-33	0.3919	0.116
Mof_N 	N 	0.699	0	0.4071	-0.051
Mof_C 	C 	0.2449	0.5	0.8919	0.163
Mof_N 	N 	0.199	0.5	0.9071	-0.031
Mof_C 	C 	0.7449	0	0.6081	0.116
Mof_N 	N 	0.699	0	0.5929	-0.051
Mof_C 	C 	0.2449	0.5	0.1081	0.156
Mof_N 	N 	0.199	0.5	0.0929	-0.032
Mof_C 	C 	0.2551	4.12137e-33	0.3919	0.116
Mof_N 	N 	0.301	0	0.4071	-0.051
Mof_C 	C 	0.7551	0.5	0.8919	0.163
Mof_N 	N 	0.801	0.5	0.9071	-0.032
Mof_C 	C 	2.79293e-33	0.3919	0.7449	0.116
Mof_N 	N 	-5.6219e-33	0.4071	0.699	-0.051
Mof_C 	C 	0.5	0.8919	0.2449	0.163
Mof_N 	N 	0.5	0.9071	0.199	-0.031
Mof_C 	C 	5.07784e-33	0.6081	0.2551	0.116
Mof_N 	N 	-9.32113e-34	0.5929	0.301	-0.051
Mof_C 	C 	0.5	0.1081	0.7551	0.156
Mof_N 	N 	0.5	0.0929	0.801	-0.032
Mof_C 	C 	5.07784e-33	0.3919	0.2551	0.116
Mof_N 	N 	3.18925e-33	0.4071	0.301	-0.051
Mof_C 	C 	0.5	0.8919	0.7551	0.163
Mof_N 	N 	0.5	0.9071	0.801	-0.032
Mof_C 	C 	2.79293e-33	0.6081	0.7449	0.116
Mof_N 	N 	-5.6219e-33	0.5929	0.699	-0.051
Mof_C 	C 	0.5	0.1081	0.2449	0.156
Mof_N 	N 	0.5	0.0929	0.199	-0.032
Mof_C 	C 	0.3281	0.3281	0.1023	0.091
Mof_H 	H 	0.3259	0.3259	0.0704	-0.015
Mof_C 	C 	0.8281	0.8281	0.6023	0.092
Mof_H 	H 	0.8259	0.8259	0.5704	-0.012
Mof_C 	C 	0.6719	0.6719	0.1023	0.091
Mof_H 	H 	0.6741	0.6741	0.0704	-0.015
Mof_C 	C 	0.1719	0.1719	0.6023	0.089
Mof_H 	H 	0.1741	0.1741	0.5704	-0.011
Mof_C 	C 	0.6719	0.3281	0.8977	0.09
Mof_H 	H 	0.6741	0.3259	0.9296	-0.002
Mof_C 	C 	0.1719	0.8281	0.3977	0.091
Mof_H 	H 	0.1741	0.8259	0.4296	-0.011
Mof_C 	C 	0.3281	0.6719	0.8977	0.09
Mof_H 	H 	0.3259	0.6741	0.9296	-0.002
Mof_C 	C 	0.8281	0.1719	0.3977	0.091
Mof_H 	H 	0.8259	0.1741	0.4296	-0.011
Mof_C 	C 	0.1023	0.3281	0.3281	0.091
Mof_H 	H 	0.0704	0.3259	0.3259	-0.015
Mof_C 	C 	0.6023	0.8281	0.8281	0.092
Mof_H 	H 	0.5704	0.8259	0.8259	-0.012
Mof_C 	C 	0.1023	0.6719	0.6719	0.091
Mof_H 	H 	0.0704	0.6741	0.6741	-0.015
Mof_C 	C 	0.6023	0.1719	0.1719	0.089
Mof_H 	H 	0.5704	0.1741	0.1741	-0.011
Mof_C 	C 	0.8977	0.6719	0.3281	0.09
Mof_H 	H 	0.9296	0.6741	0.3259	-0.002
Mof_C 	C 	0.3977	0.1719	0.8281	0.091
Mof_H 	H 	0.4296	0.1741	0.8259	-0.011
Mof_C 	C 	0.8977	0.3281	0.6719	0.09
Mof_H 	H 	0.9296	0.3259	0.6741	-0.002
Mof_C 	C 	0.3977	0.8281	0.1719	0.091
Mof_H 	H 	0.4296	0.8259	0.1741	-0.011
Mof_C 	C 	0.3281	0.1023	0.3281	0.091
Mof_H 	H 	0.3259	0.0704	0.3259	-0.015
Mof_C 	C 	0.8281	0.6023	0.8281	0.092
Mof_H 	H 	0.8259	0.5704	0.8259	-0.012
Mof_C 	C 	0.6719	0.1023	0.6719	0.091
Mof_H 	H 	0.6741	0.0704	0.6741	-0.015
Mof_C 	C 	0.1719	0.6023	0.1719	0.089
Mof_H 	H 	0.1741	0.5704	0.1741	-0.011
Mof_C 	C 	0.3281	0.8977	0.6719	0.09
Mof_H 	H 	0.3259	0.9296	0.6741	-0.002
Mof_C 	C 	0.8281	0.3977	0.1719	0.091
Mof_H 	H 	0.8259	0.4296	0.1741	-0.011
Mof_C 	C 	0.6719	0.8977	0.3281	0.09
Mof_H 	H 	0.6741	0.9296	0.3259	-0.002
Mof_C 	C 	0.1719	0.3977	0.8281	0.091
Mof_H 	H 	0.1741	0.4296	0.8259	-0.011
Mof_C 	C 	0.3281	0.3281	0.8977	0.09
Mof_H 	H 	0.3259	0.3259	0.9296	-0.002
Mof_C 	C 	0.8281	0.8281	0.3977	0.092
Mof_H 	H 	0.8259	0.8259	0.4296	-0.012
Mof_C 	C 	0.6719	0.6719	0.8977	0.089
Mof_H 	H 	0.6741	0.6741	0.9296	-0.002
Mof_C 	C 	0.1719	0.1719	0.3977	0.089
Mof_H 	H 	0.1741	0.1741	0.4296	-0.011
Mof_C 	C 	0.3281	0.6719	0.1023	0.091
Mof_H 	H 	0.3259	0.6741	0.0704	-0.015
Mof_C 	C 	0.8281	0.1719	0.6023	0.091
Mof_H 	H 	0.8259	0.1741	0.5704	-0.011
Mof_C 	C 	0.6719	0.3281	0.1023	0.091
Mof_H 	H 	0.6741	0.3259	0.0704	-0.015
Mof_C 	C 	0.1719	0.8281	0.6023	0.091
Mof_H 	H 	0.1741	0.8259	0.5704	-0.011
Mof_C 	C 	0.3281	0.1023	0.6719	0.091
Mof_H 	H 	0.3259	0.0704	0.6741	-0.015
Mof_C 	C 	0.8281	0.6023	0.1719	0.091
Mof_H 	H 	0.8259	0.5704	0.1741	-0.011
Mof_C 	C 	0.6719	0.1023	0.3281	0.091
Mof_H 	H 	0.6741	0.0704	0.3259	-0.015
Mof_C 	C 	0.1719	0.6023	0.8281	0.091
Mof_H 	H 	0.1741	0.5704	0.8259	-0.011
Mof_C 	C 	0.6719	0.8977	0.6719	0.089
Mof_H 	H 	0.6741	0.9296	0.6741	-0.002
Mof_C 	C 	0.1719	0.3977	0.1719	0.089
Mof_H 	H 	0.1741	0.4296	0.1741	-0.011
Mof_C 	C 	0.3281	0.8977	0.3281	0.09
Mof_H 	H 	0.3259	0.9296	0.3259	-0.002
Mof_C 	C 	0.8281	0.3977	0.8281	0.092
Mof_H 	H 	0.8259	0.4296	0.8259	-0.012
Mof_C 	C 	0.1023	0.3281	0.6719	0.091
Mof_H 	H 	0.0704	0.3259	0.6741	-0.015
Mof_C 	C 	0.6023	0.8281	0.1719	0.091
Mof_H 	H 	0.5704	0.8259	0.1741	-0.011
Mof_C 	C 	0.1023	0.6719	0.3281	0.091
Mof_H 	H 	0.0704	0.6741	0.3259	-0.015
Mof_C 	C 	0.6023	0.1719	0.8281	0.091
Mof_H 	H 	0.5704	0.1741	0.8259	-0.011
Mof_C 	C 	0.8977	0.3281	0.3281	0.09
Mof_H 	H 	0.9296	0.3259	0.3259	-0.002
Mof_C 	C 	0.3977	0.8281	0.8281	0.092
Mof_H 	H 	0.4296	0.8259	0.8259	-0.012
Mof_C 	C 	0.8977	0.6719	0.6719	0.089
Mof_H 	H 	0.9296	0.6741	0.6741	-0.002
Mof_C 	C 	0.3977	0.1719	0.1719	0.089
Mof_H 	H 	0.4296	0.1741	0.1741	-0.011
Mof_C 	C 	0.1891	0.1891	-0	-0.154
Mof_C 	C 	0.6891	0.6891	0.5	-0.069
Mof_C 	C 	0.8109	0.8109	-0	-0.143
Mof_C 	C 	0.3109	0.3109	0.5	-0.069
Mof_C 	C 	0.8109	0.1891	-0	-0.148
Mof_C 	C 	0.3109	0.6891	0.5	-0.069
Mof_C 	C 	0.1891	0.8109	-0	-0.148
Mof_C 	C 	0.6891	0.3109	0.5	-0.069
Mof_C 	C 	7.09011e-34	0.1891	0.1891	-0.154
Mof_C 	C 	0.5	0.6891	0.6891	-0.069
Mof_C 	C 	3.04039e-33	0.8109	0.8109	-0.143
Mof_C 	C 	0.5	0.3109	0.3109	-0.069
Mof_C 	C 	7.09011e-34	0.8109	0.1891	-0.148
Mof_C 	C 	0.5	0.3109	0.6891	-0.069
Mof_C 	C 	3.04039e-33	0.1891	0.8109	-0.148
Mof_C 	C 	0.5	0.6891	0.3109	-0.069
Mof_C 	C 	0.1891	0	0.1891	-0.154
Mof_C 	C 	0.6891	0.5	0.6891	-0.069
Mof_C 	C 	0.8109	0	0.8109	-0.143
Mof_C 	C 	0.3109	0.5	0.3109	-0.069
Mof_C 	C 	0.1891	0	0.8109	-0.148
Mof_C 	C 	0.6891	0.5	0.3109	-0.069
Mof_C 	C 	0.8109	0	0.1891	-0.148
Mof_C 	C 	0.3109	0.5	0.6891	-0.069
Mof_N 	N 	0.3394	0.5	0.2715	1.012
Mof_N 	N 	0.8394	8.24273e-33	0.7715	1.034
Mof_N 	N 	0.6606	0.5	0.2715	1.012
Mof_N 	N 	0.1606	8.24273e-33	0.7715	1.042
Mof_N 	N 	0.6606	0.5	0.7285	1.012
Mof_N 	N 	0.1606	0	0.2285	1.046
Mof_N 	N 	0.3394	0.5	0.7285	1.012
Mof_N 	N 	0.8394	0	0.2285	1.038
Mof_N 	N 	0.2715	0.3394	0.5	1.012
Mof_N 	N 	0.7715	0.8394	-0	1.034
Mof_N 	N 	0.2715	0.6606	0.5	1.012
Mof_N 	N 	0.7715	0.1606	-0	1.042
Mof_N 	N 	0.7285	0.6606	0.5	1.012
Mof_N 	N 	0.2285	0.1606	-0	1.046
Mof_N 	N 	0.7285	0.3394	0.5	1.012
Mof_N 	N 	0.2285	0.8394	-0	1.038
Mof_N 	N 	0.5	0.2715	0.3394	1.012
Mof_N 	N 	-1.33382e-32	0.7715	0.8394	1.034
Mof_N 	N 	0.5	0.2715	0.6606	1.012
Mof_N 	N 	-7.64058e-33	0.7715	0.1606	1.042
Mof_N 	N 	0.5	0.7285	0.6606	1.012
Mof_N 	N 	-1.45853e-33	0.2285	0.1606	1.046
Mof_N 	N 	0.5	0.7285	0.3394	1.012
Mof_N 	N 	-5.09548e-33	0.2285	0.8394	1.038
Mof_N 	N 	0.5	0.3394	0.7285	1.012
Mof_N 	N 	-5.32531e-33	0.8394	0.2285	1.038
Mof_N 	N 	0.5	0.6606	0.7285	1.012
Mof_N 	N 	-1.20394e-33	0.1606	0.2285	1.046
Mof_N 	N 	0.5	0.6606	0.2715	1.012
Mof_N 	N 	-1.35928e-32	0.1606	0.7715	1.042
Mof_N 	N 	0.5	0.3394	0.2715	1.012
Mof_N 	N 	-1.35928e-32	0.8394	0.7715	1.034
Mof_N 	N 	0.3394	0.2715	0.5	1.012
Mof_N 	N 	0.8394	0.7715	-0	1.034
Mof_N 	N 	0.6606	0.2715	0.5	1.012
Mof_N 	N 	0.1606	0.7715	-0	1.042
Mof_N 	N 	0.6606	0.7285	0.5	1.012
Mof_N 	N 	0.1606	0.2285	-0	1.046
Mof_N 	N 	0.3394	0.7285	0.5	1.012
Mof_N 	N 	0.8394	0.2285	-0	1.038
Mof_N 	N 	0.2715	0.5	0.6606	1.012
Mof_N 	N 	0.7715	0	0.1606	1.042
Mof_N 	N 	0.2715	0.5	0.3394	1.012
Mof_N 	N 	0.7715	8.24273e-33	0.8394	1.034
Mof_N 	N 	0.7285	0.5	0.3394	1.012
Mof_N 	N 	0.2285	8.24273e-33	0.8394	1.038
Mof_N 	N 	0.7285	0.5	0.6606	1.012
Mof_N 	N 	0.2285	0	0.1606	1.046
_end
