data_functionalizedCrystal
_audit_creation_method	'EQeq! by Chris Wilmer'
_symmetry_space_group_name_H-M	'P1'
_symmetry_Int_Tables_number	1
_symmetry_cell_setting	triclinic
loop_
_symmetry_equiv_pos_as_xyz
  x,y,z
_cell_length_a	21.2737
_cell_length_b	21.2737
_cell_length_c	30.086
_cell_angle_alpha	90
_cell_angle_beta	90
_cell_angle_gamma	90
loop_
_atom_site_label
_atom_site_type_symbol
_atom_site_fract_x
_atom_site_fract_y
_atom_site_fract_z
_atom_site_charge
Mof_C 	C 	0.1752	0.8133	0.3214	0.09
Mof_H 	H 	0.1887	0.8512	0.3093	-0.005
Mof_C 	C 	0.1393	0.8128	0.3566	-0.162
Mof_H 	H 	0.129	0.8507	0.3701	0.099
Mof_C 	C 	0.1145	0.7535	0.3758	0.122
Mof_C 	C 	0.1353	0.6978	0.3569	-0.158
Mof_H 	H 	0.1239	0.6595	0.3695	0.091
Mof_C 	C 	0.1731	0.6987	0.3193	0.08
Mof_H 	H 	0.1849	0.6612	0.3058	-0.005
Mof_C 	C 	0.7496	0.0721	0.0862	-0.096
Mof_C 	C 	0.692	0.0451	0.0697	0.086
Mof_H 	H 	0.6553	0.0523	0.0857	0.018
Mof_C 	C 	0.6881	0.0112	0.0339	-0.206
Mof_C 	C 	0.7435	0.9915	0.0129	0.154
Mof_H 	H 	0.7418	0.9642	0.9888	0.041
Mof_C 	C 	0.8006	0.0128	0.0283	-0.211
Mof_C 	C 	0.8043	0.0524	0.0657	0.074
Mof_H 	H 	0.8432	0.0653	0.0765	0.016
Mof_C 	C 	0.6259	0.9863	0.0187	0.379
Mof_C 	C 	0.8607	0.9934	0.0076	0.397
Mof_C 	C 	0.0091	0.8624	0.0075	-0.047
Mof_H 	H 	0.9868	0.8621	0.9809	0.09
Mof_C 	C 	0.0254	0.8098	0.0254	-0.069
Mof_H 	H 	0.0134	0.7726	0.0116	0.053
Mof_C 	C 	0.0615	0.8064	0.0658	0.061
Mof_C 	C 	0.0798	0.8684	0.0837	-0.129
Mof_H 	H 	0.1043	0.8705	0.1093	0.086
Mof_C 	C 	0.0625	0.9194	0.0644	0.078
Mof_H 	H 	0.0761	0.9577	0.0758	0.009
Mof_C 	C 	0.0815	0.7483	0.0863	-0.037
Mof_C 	C 	0.0583	0.6897	0.0724	0.019
Mof_H 	H 	0.0265	0.6892	0.0512	0.039
Mof_C 	C 	0.0792	0.6347	0.0878	-0.118
Mof_C 	C 	0.1208	0.6347	0.1243	0.056
Mof_H 	H 	0.1334	0.5967	0.1367	0.042
Mof_C 	C 	0.143	0.6905	0.142	-0.127
Mof_C 	C 	0.1227	0.7467	0.1247	0.018
Mof_H 	H 	0.1356	0.7842	0.1377	0.045
Mof_C 	C 	0.0617	0.5759	0.0697	0.328
Mof_C 	C 	0.1782	0.692	0.1807	0.355
Mof_N 	N 	0.1932	0.7555	0.3018	-0.221
Mof_N 	N 	0.0241	0.9193	0.0271	-0.198
Mof_O 	O 	0.5783	0.0144	0.0342	-0.398
Mof_O 	O 	0.6251	0.9331	0.9992	-0.222
Mof_O 	O 	0.8592	0.9541	0.9766	-0.241
Mof_O 	O 	0.9131	0.0167	0.0203	-0.417
Mof_O 	O 	0.0227	0.5728	0.0369	-0.367
Mof_O 	O 	0.076	0.5228	0.0856	-0.259
Mof_O 	O 	0.1927	0.6439	0.2029	-0.282
Mof_O 	O 	0.1954	0.7438	0.1974	-0.379
Mof_C 	C 	0.3248	0.6867	0.3214	0.077
Mof_H 	H 	0.3113	0.6488	0.3093	-0.003
Mof_C 	C 	0.3607	0.6872	0.3566	-0.136
Mof_H 	H 	0.371	0.6493	0.3701	0.087
Mof_C 	C 	0.3855	0.7465	0.3758	0.081
Mof_C 	C 	0.3647	0.8022	0.3569	-0.13
Mof_H 	H 	0.3761	0.8405	0.3695	0.085
Mof_C 	C 	0.3269	0.8013	0.3193	0.069
Mof_H 	H 	0.3151	0.8388	0.3058	0.003
Mof_C 	C 	0.7504	0.4279	0.0862	0.01
Mof_C 	C 	0.808	0.4549	0.0697	-0.061
Mof_H 	H 	0.8447	0.4477	0.0857	0.075
Mof_C 	C 	0.8119	0.4888	0.0339	0.001
Mof_C 	C 	0.7565	0.5085	0.0129	-0.085
Mof_H 	H 	0.7582	0.5358	0.9888	0.114
Mof_C 	C 	0.6994	0.4872	0.0283	-0.022
Mof_C 	C 	0.6957	0.4476	0.0657	-0.052
Mof_H 	H 	0.6568	0.4347	0.0765	0.061
Mof_C 	C 	0.8741	0.5137	0.0187	0.242
Mof_C 	C 	0.6393	0.5066	0.0076	0.27
Mof_C 	C 	0.4909	0.6376	0.0075	0.038
Mof_H 	H 	0.5132	0.6379	0.9809	0.035
Mof_C 	C 	0.4746	0.6902	0.0254	-0.124
Mof_H 	H 	0.4866	0.7274	0.0116	0.079
Mof_C 	C 	0.4385	0.6936	0.0658	0.086
Mof_C 	C 	0.4202	0.6316	0.0837	-0.148
Mof_H 	H 	0.3957	0.6295	0.1093	0.091
Mof_C 	C 	0.4375	0.5806	0.0644	0.092
Mof_H 	H 	0.4239	0.5423	0.0758	-0.004
Mof_C 	C 	0.4185	0.7517	0.0863	-0.044
Mof_C 	C 	0.4417	0.8103	0.0724	0.021
Mof_H 	H 	0.4735	0.8108	0.0512	0.043
Mof_C 	C 	0.4208	0.8653	0.0878	-0.109
Mof_C 	C 	0.3792	0.8653	0.1243	0.055
Mof_H 	H 	0.3666	0.9033	0.1367	0.049
Mof_C 	C 	0.357	0.8095	0.142	-0.125
Mof_C 	C 	0.3773	0.7533	0.1247	0.022
Mof_H 	H 	0.3644	0.7158	0.1377	0.043
Mof_C 	C 	0.4383	0.9241	0.0697	0.324
Mof_C 	C 	0.3218	0.808	0.1807	0.355
Mof_N 	N 	0.3068	0.7445	0.3018	-0.216
Mof_N 	N 	0.4759	0.5807	0.0271	-0.217
Mof_O 	O 	0.9217	0.4856	0.0342	-0.329
Mof_O 	O 	0.8749	0.5669	0.9992	-0.193
Mof_O 	O 	0.6408	0.5459	0.9766	-0.228
Mof_O 	O 	0.5869	0.4833	0.0203	-0.377
Mof_O 	O 	0.4773	0.9272	0.0369	-0.343
Mof_O 	O 	0.424	0.9772	0.0856	-0.233
Mof_O 	O 	0.3073	0.8561	0.2029	-0.274
Mof_O 	O 	0.3046	0.7562	0.1974	-0.378
Mof_C 	C 	0.1867	0.6752	0.8214	0.081
Mof_H 	H 	0.1488	0.6887	0.8093	-0.005
Mof_C 	C 	0.1872	0.6393	0.8566	-0.145
Mof_H 	H 	0.1493	0.629	0.8701	0.089
Mof_C 	C 	0.2465	0.6145	0.8758	0.094
Mof_C 	C 	0.3022	0.6353	0.8569	-0.139
Mof_H 	H 	0.3405	0.6239	0.8695	0.087
Mof_C 	C 	0.3013	0.6731	0.8193	0.072
Mof_H 	H 	0.3388	0.6849	0.8058	0
Mof_C 	C 	0.9279	0.2496	0.5862	0.081
Mof_C 	C 	0.9549	0.192	0.5697	-0.156
Mof_H 	H 	0.9477	0.1553	0.5857	0.107
Mof_C 	C 	0.9888	0.1881	0.5339	0.139
Mof_C 	C 	0.0085	0.2435	0.5129	-0.22
Mof_H 	H 	0.0358	0.2418	0.4888	0.132
Mof_C 	C 	0.9872	0.3006	0.5283	0.113
Mof_C 	C 	0.9476	0.3043	0.5657	-0.137
Mof_H 	H 	0.9347	0.3432	0.5765	0.095
Mof_C 	C 	0.0137	0.1259	0.5187	0.167
Mof_C 	C 	0.0066	0.3607	0.5076	0.195
Mof_C 	C 	0.1376	0.5091	0.5075	0.112
Mof_H 	H 	0.1379	0.4868	0.4809	-0.013
Mof_C 	C 	0.1902	0.5254	0.5254	-0.173
Mof_H 	H 	0.2274	0.5134	0.5116	0.1
Mof_C 	C 	0.1936	0.5615	0.5658	0.109
Mof_C 	C 	0.1316	0.5798	0.5837	-0.167
Mof_H 	H 	0.1295	0.6043	0.6093	0.095
Mof_C 	C 	0.0806	0.5625	0.5644	0.105
Mof_H 	H 	0.0423	0.5761	0.5758	-0.014
Mof_C 	C 	0.2517	0.5815	0.5863	-0.058
Mof_C 	C 	0.3103	0.5583	0.5724	0.032
Mof_H 	H 	0.3108	0.5265	0.5512	0.039
Mof_C 	C 	0.3653	0.5792	0.5878	-0.118
Mof_C 	C 	0.3653	0.6208	0.6243	0.061
Mof_H 	H 	0.4033	0.6334	0.6367	0.044
Mof_C 	C 	0.3095	0.643	0.642	-0.132
Mof_C 	C 	0.2533	0.6227	0.6247	0.03
Mof_H 	H 	0.2158	0.6356	0.6377	0.039
Mof_C 	C 	0.4241	0.5617	0.5697	0.329
Mof_C 	C 	0.308	0.6782	0.6807	0.357
Mof_N 	N 	0.2445	0.6932	0.8018	-0.218
Mof_N 	N 	0.0807	0.5241	0.5271	-0.229
Mof_O 	O 	0.9856	0.0783	0.5342	-0.299
Mof_O 	O 	0.0669	0.1251	0.4992	-0.228
Mof_O 	O 	0.0459	0.3592	0.4766	-0.244
Mof_O 	O 	0.9833	0.4131	0.5203	-0.324
Mof_O 	O 	0.4272	0.5227	0.5369	-0.352
Mof_O 	O 	0.4772	0.576	0.5856	-0.247
Mof_O 	O 	0.3561	0.6927	0.7029	-0.278
Mof_O 	O 	0.2562	0.6954	0.6974	-0.38
Mof_C 	C 	0.3133	0.8248	0.8214	0.065
Mof_H 	H 	0.3512	0.8113	0.8093	0.006
Mof_C 	C 	0.3128	0.8607	0.8566	-0.11
Mof_H 	H 	0.3507	0.871	0.8701	0.081
Mof_C 	C 	0.2535	0.8855	0.8758	0.043
Mof_C 	C 	0.1978	0.8647	0.8569	-0.104
Mof_H 	H 	0.1595	0.8761	0.8695	0.072
Mof_C 	C 	0.1987	0.8269	0.8193	0.057
Mof_H 	H 	0.1612	0.8151	0.8058	0.005
Mof_C 	C 	0.5721	0.2504	0.5862	-0.021
Mof_C 	C 	0.5451	0.308	0.5697	-0.018
Mof_H 	H 	0.5523	0.3447	0.5857	0.058
Mof_C 	C 	0.5112	0.3119	0.5339	-0.055
Mof_C 	C 	0.4915	0.2565	0.5129	0.009
Mof_H 	H 	0.4642	0.2582	0.4888	0.061
Mof_C 	C 	0.5128	0.1994	0.5283	-0.074
Mof_C 	C 	0.5524	0.1957	0.5657	-0.014
Mof_H 	H 	0.5653	0.1568	0.5765	0.046
Mof_C 	C 	0.4863	0.3741	0.5187	0.294
Mof_C 	C 	0.4934	0.1393	0.5076	0.321
Mof_C 	C 	0.3624	0.9909	0.5075	0.223
Mof_H 	H 	0.3621	0.0132	0.4809	-0.078
Mof_C 	C 	0.3098	0.9746	0.5254	-0.242
Mof_H 	H 	0.2726	0.9866	0.5116	0.133
Mof_C 	C 	0.3064	0.9385	0.5658	0.144
Mof_C 	C 	0.3684	0.9202	0.5837	-0.187
Mof_H 	H 	0.3705	0.8957	0.6093	0.108
Mof_C 	C 	0.4194	0.9375	0.5644	0.126
Mof_H 	H 	0.4577	0.9239	0.5758	-0.007
Mof_C 	C 	0.2483	0.9185	0.5863	-0.07
Mof_C 	C 	0.1897	0.9417	0.5724	0.042
Mof_H 	H 	0.1892	0.9735	0.5512	0.041
Mof_C 	C 	0.1347	0.9208	0.5878	-0.121
Mof_C 	C 	0.1347	0.8792	0.6243	0.067
Mof_H 	H 	0.0967	0.8666	0.6367	0.041
Mof_C 	C 	0.1905	0.857	0.642	-0.137
Mof_C 	C 	0.2467	0.8773	0.6247	0.041
Mof_H 	H 	0.2842	0.8644	0.6377	0.038
Mof_C 	C 	0.0759	0.9383	0.5697	0.329
Mof_C 	C 	0.192	0.8218	0.6807	0.361
Mof_N 	N 	0.2555	0.8068	0.8018	-0.211
Mof_N 	N 	0.4193	0.9759	0.5271	-0.236
Mof_O 	O 	0.5144	0.4217	0.5342	-0.348
Mof_O 	O 	0.4331	0.3749	0.4992	-0.241
Mof_O 	O 	0.4541	0.1408	0.4766	-0.269
Mof_O 	O 	0.5167	0.0869	0.5203	-0.388
Mof_O 	O 	0.0728	0.9773	0.5369	-0.34
Mof_O 	O 	0.0228	0.924	0.5856	-0.251
Mof_O 	O 	0.1439	0.8073	0.7029	-0.281
Mof_O 	O 	0.2438	0.8046	0.6974	-0.378
Mof_C 	C 	0.8248	0.1867	0.6786	0.061
Mof_H 	H 	0.8113	0.1488	0.6907	0.002
Mof_C 	C 	0.8607	0.1872	0.6434	-0.107
Mof_H 	H 	0.871	0.1493	0.6299	0.074
Mof_C 	C 	0.8855	0.2465	0.6242	0.036
Mof_C 	C 	0.8647	0.3022	0.6431	-0.101
Mof_H 	H 	0.8761	0.3405	0.6305	0.072
Mof_C 	C 	0.8269	0.3013	0.6807	0.054
Mof_H 	H 	0.8151	0.3388	0.6942	0.007
Mof_C 	C 	0.2504	0.9279	0.9138	0.073
Mof_C 	C 	0.308	0.9549	0.9303	-0.14
Mof_H 	H 	0.3447	0.9477	0.9143	0.106
Mof_C 	C 	0.3119	0.9888	0.9661	0.123
Mof_C 	C 	0.2565	0.0085	0.9871	-0.168
Mof_H 	H 	0.2582	0.0358	0.0112	0.097
Mof_C 	C 	0.1994	0.9872	0.9717	0.098
Mof_C 	C 	0.1957	0.9476	0.9343	-0.122
Mof_H 	H 	0.1568	0.9347	0.9235	0.09
Mof_C 	C 	0.3741	0.0137	0.9813	0.196
Mof_C 	C 	0.1393	0.0066	0.9924	0.22
Mof_C 	C 	0.9909	0.1376	0.9925	0.282
Mof_H 	H 	0.0132	0.1379	0.0191	-0.114
Mof_C 	C 	0.9746	0.1902	0.9746	-0.281
Mof_H 	H 	0.9866	0.2274	0.9884	0.153
Mof_C 	C 	0.9385	0.1936	0.9342	0.162
Mof_C 	C 	0.9202	0.1316	0.9163	-0.202
Mof_H 	H 	0.8957	0.1295	0.8907	0.11
Mof_C 	C 	0.9375	0.0806	0.9356	0.137
Mof_H 	H 	0.9239	0.0423	0.9242	-0.018
Mof_C 	C 	0.9185	0.2517	0.9137	-0.076
Mof_C 	C 	0.9417	0.3103	0.9276	0.044
Mof_H 	H 	0.9735	0.3108	0.9488	0.043
Mof_C 	C 	0.9208	0.3653	0.9122	-0.116
Mof_C 	C 	0.8792	0.3653	0.8757	0.067
Mof_H 	H 	0.8666	0.4033	0.8633	0.045
Mof_C 	C 	0.857	0.3095	0.858	-0.136
Mof_C 	C 	0.8773	0.2533	0.8753	0.044
Mof_H 	H 	0.8644	0.2158	0.8623	0.035
Mof_C 	C 	0.9383	0.4241	0.9303	0.328
Mof_C 	C 	0.8218	0.308	0.8193	0.361
Mof_N 	N 	0.8068	0.2445	0.6982	-0.211
Mof_N 	N 	0.9759	0.0807	0.9729	-0.244
Mof_O 	O 	0.4217	0.9856	0.9658	-0.284
Mof_O 	O 	0.3749	0.0669	0.0008	-0.247
Mof_O 	O 	0.1408	0.0459	0.0234	-0.274
Mof_O 	O 	0.0869	0.9833	0.9797	-0.319
Mof_O 	O 	0.9773	0.4272	0.9631	-0.325
Mof_O 	O 	0.924	0.4772	0.9144	-0.234
Mof_O 	O 	0.8073	0.3561	0.7971	-0.277
Mof_O 	O 	0.8046	0.2562	0.8026	-0.379
Mof_C 	C 	0.6752	0.3133	0.6786	0.076
Mof_H 	H 	0.6887	0.3512	0.6907	-0.001
Mof_C 	C 	0.6393	0.3128	0.6434	-0.137
Mof_H 	H 	0.629	0.3507	0.6299	0.087
Mof_C 	C 	0.6145	0.2535	0.6242	0.08
Mof_C 	C 	0.6353	0.1978	0.6431	-0.132
Mof_H 	H 	0.6239	0.1595	0.6305	0.079
Mof_C 	C 	0.6731	0.1987	0.6807	0.067
Mof_H 	H 	0.6849	0.1612	0.6942	-0.002
Mof_C 	C 	0.2496	0.5721	0.9138	-0.045
Mof_C 	C 	0.192	0.5451	0.9303	0.022
Mof_H 	H 	0.1553	0.5523	0.9143	0.044
Mof_C 	C 	0.1881	0.5112	0.9661	-0.105
Mof_C 	C 	0.2435	0.4915	0.9871	0.099
Mof_H 	H 	0.2418	0.4642	0.0112	0.015
Mof_C 	C 	0.3006	0.5128	0.9717	-0.117
Mof_C 	C 	0.3043	0.5524	0.9343	0.02
Mof_H 	H 	0.3432	0.5653	0.9235	0.039
Mof_C 	C 	0.1259	0.4863	0.9813	0.345
Mof_C 	C 	0.3607	0.4934	0.9924	0.367
Mof_C 	C 	0.5091	0.3624	0.9925	0.186
Mof_H 	H 	0.4868	0.3621	0.0191	-0.054
Mof_C 	C 	0.5254	0.3098	0.9746	-0.219
Mof_H 	H 	0.5134	0.2726	0.9884	0.123
Mof_C 	C 	0.5615	0.3064	0.9342	0.133
Mof_C 	C 	0.5798	0.3684	0.9163	-0.181
Mof_H 	H 	0.6043	0.3705	0.8907	0.104
Mof_C 	C 	0.5625	0.4194	0.9356	0.121
Mof_H 	H 	0.5761	0.4577	0.9242	-0.008
Mof_C 	C 	0.5815	0.2483	0.9137	-0.068
Mof_C 	C 	0.5583	0.1897	0.9276	0.041
Mof_H 	H 	0.5265	0.1892	0.9488	0.039
Mof_C 	C 	0.5792	0.1347	0.9122	-0.124
Mof_C 	C 	0.6208	0.1347	0.8757	0.067
Mof_H 	H 	0.6334	0.0967	0.8633	0.039
Mof_C 	C 	0.643	0.1905	0.858	-0.138
Mof_C 	C 	0.6227	0.2467	0.8753	0.039
Mof_H 	H 	0.6356	0.2842	0.8623	0.038
Mof_C 	C 	0.5617	0.0759	0.9303	0.332
Mof_C 	C 	0.6782	0.192	0.8193	0.36
Mof_N 	N 	0.6932	0.2555	0.6982	-0.216
Mof_N 	N 	0.5241	0.4193	0.9729	-0.232
Mof_O 	O 	0.0783	0.5144	0.9658	-0.358
Mof_O 	O 	0.1251	0.4331	0.0008	-0.281
Mof_O 	O 	0.3592	0.4541	0.0234	-0.294
Mof_O 	O 	0.4131	0.5167	0.9797	-0.38
Mof_O 	O 	0.5227	0.0728	0.9631	-0.348
Mof_O 	O 	0.576	0.0228	0.9144	-0.259
Mof_O 	O 	0.6927	0.1439	0.7971	-0.284
Mof_O 	O 	0.6954	0.2438	0.8026	-0.38
Mof_C 	C 	0.8133	0.3248	0.1786	0.072
Mof_H 	H 	0.8512	0.3113	0.1907	0.002
Mof_C 	C 	0.8128	0.3607	0.1434	-0.128
Mof_H 	H 	0.8507	0.371	0.1299	0.085
Mof_C 	C 	0.7535	0.3855	0.1242	0.067
Mof_C 	C 	0.6978	0.3647	0.1431	-0.122
Mof_H 	H 	0.6595	0.3761	0.1305	0.077
Mof_C 	C 	0.6987	0.3269	0.1807	0.064
Mof_H 	H 	0.6612	0.3151	0.1942	0.001
Mof_C 	C 	0.0721	0.7504	0.4138	-0.107
Mof_C 	C 	0.0451	0.808	0.4303	0.104
Mof_H 	H 	0.0523	0.8447	0.4143	0.017
Mof_C 	C 	0.0112	0.8119	0.4661	-0.223
Mof_C 	C 	0.9915	0.7565	0.4871	0.213
Mof_H 	H 	0.9642	0.7582	0.5112	0.004
Mof_C 	C 	0.0128	0.6994	0.4717	-0.236
Mof_C 	C 	0.0524	0.6957	0.4343	0.094
Mof_H 	H 	0.0653	0.6568	0.4235	0.009
Mof_C 	C 	0.9863	0.8741	0.4813	0.404
Mof_C 	C 	0.9934	0.6393	0.4924	0.434
Mof_C 	C 	0.8624	0.4909	0.4925	0.113
Mof_H 	H 	0.8621	0.5132	0.5191	-0.006
Mof_C 	C 	0.8098	0.4746	0.4746	-0.17
Mof_H 	H 	0.7726	0.4866	0.4884	0.102
Mof_C 	C 	0.8064	0.4385	0.4342	0.111
Mof_C 	C 	0.8684	0.4202	0.4163	-0.162
Mof_H 	H 	0.8705	0.3957	0.3907	0.1
Mof_C 	C 	0.9194	0.4375	0.4356	0.108
Mof_H 	H 	0.9577	0.4239	0.4242	0.003
Mof_C 	C 	0.7483	0.4185	0.4137	-0.055
Mof_C 	C 	0.6897	0.4417	0.4276	0.032
Mof_H 	H 	0.6892	0.4735	0.4488	0.042
Mof_C 	C 	0.6347	0.4208	0.4122	-0.117
Mof_C 	C 	0.6347	0.3792	0.3757	0.062
Mof_H 	H 	0.5967	0.3666	0.3633	0.043
Mof_C 	C 	0.6905	0.357	0.358	-0.131
Mof_C 	C 	0.7467	0.3773	0.3753	0.031
Mof_H 	H 	0.7842	0.3644	0.3623	0.042
Mof_C 	C 	0.5759	0.4383	0.4303	0.33
Mof_C 	C 	0.692	0.3218	0.3193	0.358
Mof_N 	N 	0.7555	0.3068	0.1982	-0.215
Mof_N 	N 	0.9193	0.4759	0.4729	-0.219
Mof_O 	O 	0.0144	0.9217	0.4658	-0.379
Mof_O 	O 	0.9331	0.8749	0.5008	-0.243
Mof_O 	O 	0.9541	0.6408	0.5234	-0.275
Mof_O 	O 	0.0167	0.5869	0.4797	-0.428
Mof_O 	O 	0.5728	0.4773	0.4631	-0.35
Mof_O 	O 	0.5228	0.424	0.4144	-0.249
Mof_O 	O 	0.6439	0.3073	0.2971	-0.281
Mof_O 	O 	0.7438	0.3046	0.3026	-0.378
Mof_C 	C 	0.6867	0.1752	0.1786	0.088
Mof_H 	H 	0.6488	0.1887	0.1907	-0.009
Mof_C 	C 	0.6872	0.1393	0.1434	-0.159
Mof_H 	H 	0.6493	0.129	0.1299	0.092
Mof_C 	C 	0.7465	0.1145	0.1242	0.113
Mof_C 	C 	0.8022	0.1353	0.1431	-0.154
Mof_H 	H 	0.8405	0.1239	0.1305	0.091
Mof_C 	C 	0.8013	0.1731	0.1807	0.078
Mof_H 	H 	0.8388	0.1849	0.1942	-0.002
Mof_C 	C 	0.4279	0.7496	0.4138	-0.015
Mof_C 	C 	0.4549	0.692	0.4303	-0.02
Mof_H 	H 	0.4477	0.6553	0.4143	0.06
Mof_C 	C 	0.4888	0.6881	0.4661	-0.049
Mof_C 	C 	0.5085	0.7435	0.4871	0.005
Mof_H 	H 	0.5358	0.7418	0.5112	0.068
Mof_C 	C 	0.4872	0.8006	0.4717	-0.064
Mof_C 	C 	0.4476	0.8043	0.4343	-0.018
Mof_H 	H 	0.4347	0.8432	0.4235	0.054
Mof_C 	C 	0.5137	0.6259	0.4813	0.293
Mof_C 	C 	0.5066	0.8607	0.4924	0.316
Mof_C 	C 	0.6376	0.0091	0.4925	0.007
Mof_H 	H 	0.6379	0.9868	0.5191	0.056
Mof_C 	C 	0.6902	0.0254	0.4746	-0.103
Mof_H 	H 	0.7274	0.0134	0.4884	0.071
Mof_C 	C 	0.6936	0.0615	0.4342	0.077
Mof_C 	C 	0.6316	0.0798	0.4163	-0.143
Mof_H 	H 	0.6295	0.1043	0.3907	0.087
Mof_C 	C 	0.5806	0.0625	0.4356	0.088
Mof_H 	H 	0.5423	0.0761	0.4242	-0.004
Mof_C 	C 	0.7517	0.0815	0.4137	-0.042
Mof_C 	C 	0.8103	0.0583	0.4276	0.02
Mof_H 	H 	0.8108	0.0265	0.4488	0.042
Mof_C 	C 	0.8653	0.0792	0.4122	-0.111
Mof_C 	C 	0.8653	0.1208	0.3757	0.055
Mof_H 	H 	0.9033	0.1334	0.3633	0.048
Mof_C 	C 	0.8095	0.143	0.358	-0.125
Mof_C 	C 	0.7533	0.1227	0.3753	0.02
Mof_H 	H 	0.7158	0.1356	0.3623	0.043
Mof_C 	C 	0.9241	0.0617	0.4303	0.326
Mof_C 	C 	0.808	0.1782	0.3193	0.355
Mof_N 	N 	0.7445	0.1932	0.1982	-0.22
Mof_N 	N 	0.5807	0.0241	0.4729	-0.212
Mof_O 	O 	0.4856	0.5783	0.4658	-0.348
Mof_O 	O 	0.5669	0.6251	0.5008	-0.235
Mof_O 	O 	0.5459	0.8592	0.5234	-0.252
Mof_O 	O 	0.4833	0.9131	0.4797	-0.366
Mof_O 	O 	0.9272	0.0227	0.4631	-0.348
Mof_O 	O 	0.9772	0.076	0.4144	-0.239
Mof_O 	O 	0.8561	0.1927	0.2971	-0.276
Mof_O 	O 	0.7562	0.1954	0.3026	-0.379
Mof_Cu	Cu	0.25	0.75	0.2484	0.908
Mof_Cu	Cu	0.25	0.75	0.7484	0.908
Mof_Cu	Cu	0.75	0.25	0.7516	0.908
Mof_Cu	Cu	0.75	0.25	0.2516	0.908
Mof_Cu	Cu	-0	0	-0	0.859
Mof_Cu	Cu	0.5	0.5	-0	0.889
Mof_Cu	Cu	2.65126e-33	0.5	0.5	0.886
Mof_Cu	Cu	0.5	0	0.5	0.884
Mof_Cu	Cu	-0	0.5	-0	0.918
Mof_Cu	Cu	0.5	0	-0	0.916
Mof_Cu	Cu	0.5	0.5	0.5	0.943
Mof_Cu	Cu	2.65126e-33	0	0.5	0.911
_end
