data_functionalizedCrystal
_audit_creation_method	'EQeq! by Chris Wilmer'
_symmetry_space_group_name_H-M	'P1'
_symmetry_Int_Tables_number	1
_symmetry_cell_setting	triclinic
loop_
_symmetry_equiv_pos_as_xyz
  x,y,z
_cell_length_a	9.8523
_cell_length_b	19.5244
_cell_length_c	19.6699
_cell_angle_alpha	89.715
_cell_angle_beta	83.058
_cell_angle_gamma	87.776
loop_
_atom_site_label
_atom_site_type_symbol
_atom_site_fract_x
_atom_site_fract_y
_atom_site_fract_z
_atom_site_charge
Mof_Cd	Cd	0.99924	0.15416	0.07684	0.455
Mof_Cd	Cd	0.06366	0.57392	0.34431	0.46
Mof_C 	C 	0.9839	0.2223	0.196	0.391
Mof_C 	C 	0.9857	0.2587	0.2638	-0.343
Mof_C 	C 	0.0055	0.3293	0.2663	0.194
Mof_H 	H 	0.0159	0.3553	0.2263	-0.036
Mof_C 	C 	0.0094	0.3599	0.3299	-0.358
Mof_C 	C 	0.9971	0.3201	0.3902	0.411
Mof_H 	H 	0.0001	0.3411	0.4324	-0.145
Mof_C 	C 	0.9807	0.2508	0.3874	-0.759
Mof_C 	C 	0.9707	0.2204	0.3237	0.39
Mof_H 	H 	0.9538	0.174	0.3216	-0.208
Mof_C 	C 	0.0334	0.4344	0.3326	0.352
Mof_C 	C 	0.9744	0.2076	0.4524	1.558
Mof_C 	C 	0.984	0.1321	0.4426	-1.853
Mof_H 	H 	0.0664	0.1197	0.4134	0.447
Mof_H 	H 	0.9063	0.1179	0.4218	0.451
Mof_H 	H 	0.9851	0.1099	0.4862	0.455
Mof_C 	C 	0.092	0.2221	0.4916	-1.992
Mof_H 	H 	0.0918	0.2703	0.5012	0.614
Mof_H 	H 	0.1766	0.2084	0.4648	0.542
Mof_H 	H 	0.0829	0.197	0.5339	0.545
Mof_C 	C 	0.846	0.2274	0.497	-2.102
Mof_H 	H 	0.8407	0.2763	0.503	0.65
Mof_H 	H 	0.8467	0.2055	0.5408	0.591
Mof_H 	H 	0.7689	0.2133	0.476	0.583
Mof_C 	C 	0.7524	0.0847	0.0837	0.371
Mof_C 	C 	0.6261	0.0448	0.0894	-0.388
Mof_C 	C 	0.5	0.0733	0.0789	0.308
Mof_H 	H 	0.4921	0.1195	0.0676	-0.09
Mof_C 	C 	0.3872	0.0348	0.0849	-0.423
Mof_C 	C 	0.4013	0.9659	0.1035	0.523
Mof_H 	H 	0.3241	0.9395	0.1062	-0.204
Mof_C 	C 	0.5207	0.9349	0.1179	-0.896
Mof_C 	C 	0.6375	0.9749	0.1082	0.465
Mof_H 	H 	0.7227	0.9552	0.1141	-0.181
Mof_C 	C 	0.2488	0.0628	0.0736	0.392
Mof_C 	C 	0.407	0.8321	0.1703	-2.699
Mof_H 	H 	0.3353	0.844	0.1428	0.827
Mof_H 	H 	0.3839	0.8511	0.2154	0.754
Mof_H 	H 	0.417	0.7832	0.1734	0.803
Mof_C 	C 	0.558	0.8191	0.0719	-1.973
Mof_H 	H 	0.6416	0.8327	0.046	0.619
Mof_H 	H 	0.4831	0.8283	0.0458	0.612
Mof_H 	H 	0.5645	0.771	0.0818	0.577
Mof_C 	C 	0.668	0.8333	0.1583	-2.389
Mof_H 	H 	0.7411	0.8508	0.1268	0.732
Mof_H 	H 	0.6725	0.7841	0.1565	0.711
Mof_H 	H 	0.6783	0.848	0.2038	0.674
Mof_C 	C 	0.7948	0.5827	0.412	0.397
Mof_C 	C 	0.6571	0.5891	0.4534	-0.372
Mof_C 	C 	0.5405	0.5777	0.424	0.286
Mof_H 	H 	0.547	0.5658	0.378	-0.083
Mof_C 	C 	0.4121	0.5838	0.4628	-0.382
Mof_C 	C 	0.4048	0.604	0.5324	0.516
Mof_H 	H 	0.3197	0.6074	0.5586	-0.205
Mof_C 	C 	0.5186	0.6185	0.5621	-0.898
Mof_C 	C 	0.6511	0.608	0.5214	0.457
Mof_H 	H 	0.7312	0.6141	0.5409	-0.166
Mof_C 	C 	0.2802	0.5712	0.4355	0.404
Mof_C 	C 	0.502	0.6414	0.6379	2.117
Mof_C 	C 	0.633	0.6446	0.6684	-2.919
Mof_H 	H 	0.6932	0.6071	0.6515	0.907
Mof_H 	H 	0.6145	0.6416	0.7174	0.87
Mof_H 	H 	0.6749	0.6871	0.656	0.864
Mof_C 	C 	0.422	0.5864	0.6773	-2.555
Mof_H 	H 	0.3415	0.5781	0.6563	0.8
Mof_H 	H 	0.3968	0.6012	0.7237	0.759
Mof_H 	H 	0.4781	0.5449	0.677	0.786
Mof_C 	C 	0.4	0.6994	0.6513	-2.743
Mof_H 	H 	0.3146	0.6869	0.6374	0.838
Mof_H 	H 	0.4325	0.7389	0.6258	0.766
Mof_H 	H 	0.3882	0.71	0.6993	0.804
Mof_C 	C 	0.0668	0.6934	0.274	0.502
Mof_C 	C 	0.0486	0.7595	0.2381	-0.725
Mof_C 	C 	0.0341	0.8196	0.2757	1.049
Mof_H 	H 	0.0308	0.8165	0.323	-0.437
Mof_C 	C 	0.0242	0.8851	0.2464	-1.839
Mof_C 	C 	0.0425	0.7642	0.168	0.588
Mof_H 	H 	0.0508	0.7248	0.1411	-0.164
Mof_C 	C 	0.0241	0.827	0.1388	-0.74
Mof_C 	C 	0.0161	0.8859	0.175	1.048
Mof_H 	H 	0.0052	0.9275	0.1527	-0.41
Mof_C 	C 	0.0076	0.8323	0.0625	0.443
Mof_C 	C 	0.0111	0.9501	0.2884	3.874
Mof_C 	C 	0.119	0.0002	0.2593	-4.129
Mof_H 	H 	0.116	0.005	0.2109	1.256
Mof_H 	H 	0.2077	0.9829	0.2676	1.185
Mof_H 	H 	0.0998	0.044	0.281	1.188
Mof_C 	C 	0.889	0.9935	0.2779	-4.356
Mof_H 	H 	0.8849	0.9995	0.2297	1.32
Mof_H 	H 	0.8949	0.0374	0.2989	1.25
Mof_H 	H 	0.8083	0.9718	0.2982	1.236
Mof_C 	C 	0.012	0.9443	0.3601	-5.321
Mof_H 	H 	0.0919	0.9182	0.3695	1.525
Mof_H 	H 	0.9315	0.9216	0.3796	1.522
Mof_H 	H 	0.0121	0.9892	0.3797	1.507
Mof_O 	O 	0.9721	0.1602	0.1965	-0.397
Mof_O 	O 	0.997	0.2564	0.1411	-0.308
Mof_O 	O 	0.048	0.4584	0.3923	-0.335
Mof_O 	O 	0.0455	0.4713	0.2812	-0.314
Mof_O 	O 	0.7391	0.1494	0.0747	-0.311
Mof_O 	O 	0.8691	0.0544	0.0885	-0.359
Mof_O 	O 	0.1616	0.0194	0.0649	-0.354
Mof_O 	O 	0.2247	0.1272	0.0728	-0.357
Mof_O 	O 	0.7985	0.5773	0.3498	-0.314
Mof_O 	O 	0.9007	0.5864	0.4436	-0.333
Mof_O 	O 	0.1798	0.5655	0.4785	-0.346
Mof_O 	O 	0.2761	0.5696	0.3704	-0.346
Mof_O 	O 	0.0599	0.637	0.2409	-0.326
Mof_O 	O 	0.0739	0.6935	0.3368	-0.384
Mof_O 	O 	0.0217	0.779	0.0257	-0.333
Mof_O 	O 	0.9826	0.8907	0.0377	-0.346
Mof_C 	C 	0.5342	0.8596	0.1391	1.878
Mof_Cd	Cd	0.00076	0.84584	0.92316	0.454
Mof_Cd	Cd	0.93634	0.42608	0.65569	0.473
Mof_C 	C 	0.0161	0.7777	0.804	0.388
Mof_C 	C 	0.0143	0.7413	0.7362	-0.351
Mof_C 	C 	0.9945	0.6707	0.7337	0.196
Mof_H 	H 	0.9841	0.6447	0.7737	-0.027
Mof_C 	C 	0.9906	0.6401	0.6701	-0.293
Mof_C 	C 	0.0029	0.6799	0.6098	0.287
Mof_H 	H 	0.9999	0.6589	0.5676	-0.084
Mof_C 	C 	0.0193	0.7492	0.6126	-0.708
Mof_C 	C 	0.0293	0.7796	0.6763	0.362
Mof_H 	H 	0.0462	0.826	0.6784	-0.198
Mof_C 	C 	0.9666	0.5656	0.6674	0.332
Mof_C 	C 	0.0256	0.7924	0.5476	1.506
Mof_C 	C 	0.016	0.8679	0.5574	-1.91
Mof_H 	H 	0.9336	0.8803	0.5866	0.489
Mof_H 	H 	0.0937	0.8821	0.5782	0.47
Mof_H 	H 	0.0149	0.8901	0.5138	0.463
Mof_C 	C 	0.908	0.7779	0.5084	-1.906
Mof_H 	H 	0.9082	0.7297	0.4988	0.595
Mof_H 	H 	0.8234	0.7916	0.5352	0.521
Mof_H 	H 	0.9171	0.803	0.4661	0.527
Mof_C 	C 	0.154	0.7726	0.503	-2.046
Mof_H 	H 	0.1593	0.7237	0.497	0.628
Mof_H 	H 	0.1533	0.7945	0.4592	0.569
Mof_H 	H 	0.2311	0.7867	0.524	0.567
Mof_C 	C 	0.2476	0.9153	0.9163	0.366
Mof_C 	C 	0.3739	0.9552	0.9106	-0.35
Mof_C 	C 	0.5	0.9267	0.9211	0.281
Mof_H 	H 	0.5079	0.8805	0.9324	-0.072
Mof_C 	C 	0.6128	0.9652	0.9151	-0.38
Mof_C 	C 	0.5987	0.0341	0.8965	0.488
Mof_H 	H 	0.6759	0.0605	0.8938	-0.19
Mof_C 	C 	0.4793	0.0651	0.8821	-0.868
Mof_C 	C 	0.3625	0.0251	0.8918	0.434
Mof_H 	H 	0.2773	0.0448	0.8859	-0.172
Mof_C 	C 	0.7512	0.9372	0.9264	0.381
Mof_C 	C 	0.593	0.1679	0.8297	-2.686
Mof_H 	H 	0.6647	0.156	0.8572	0.825
Mof_H 	H 	0.6161	0.1489	0.7846	0.752
Mof_H 	H 	0.583	0.2168	0.8266	0.801
Mof_C 	C 	0.442	0.1809	0.9281	-1.983
Mof_H 	H 	0.3584	0.1673	0.954	0.628
Mof_H 	H 	0.5169	0.1717	0.9542	0.625
Mof_H 	H 	0.4355	0.229	0.9182	0.584
Mof_C 	C 	0.332	0.1667	0.8417	-2.364
Mof_H 	H 	0.2589	0.1492	0.8732	0.72
Mof_H 	H 	0.3275	0.2159	0.8435	0.701
Mof_H 	H 	0.3217	0.152	0.7962	0.664
Mof_C 	C 	0.2052	0.4173	0.588	0.397
Mof_C 	C 	0.3429	0.4109	0.5466	-0.372
Mof_C 	C 	0.4595	0.4223	0.576	0.283
Mof_H 	H 	0.453	0.4342	0.622	-0.083
Mof_C 	C 	0.5879	0.4162	0.5372	-0.378
Mof_C 	C 	0.5952	0.396	0.4676	0.51
Mof_H 	H 	0.6803	0.3926	0.4414	-0.201
Mof_C 	C 	0.4814	0.3815	0.4379	-0.889
Mof_C 	C 	0.3489	0.392	0.4786	0.452
Mof_H 	H 	0.2688	0.3859	0.4591	-0.165
Mof_C 	C 	0.7198	0.4288	0.5645	0.401
Mof_C 	C 	0.498	0.3586	0.3621	2.097
Mof_C 	C 	0.367	0.3554	0.3316	-2.888
Mof_H 	H 	0.3068	0.3929	0.3485	0.897
Mof_H 	H 	0.3855	0.3584	0.2826	0.858
Mof_H 	H 	0.3251	0.3129	0.344	0.85
Mof_C 	C 	0.578	0.4136	0.3227	-2.539
Mof_H 	H 	0.6585	0.4219	0.3437	0.798
Mof_H 	H 	0.6032	0.3988	0.2763	0.755
Mof_H 	H 	0.5219	0.4551	0.323	0.781
Mof_C 	C 	0.6	0.3006	0.3487	-2.718
Mof_H 	H 	0.6854	0.3131	0.3626	0.831
Mof_H 	H 	0.5675	0.2611	0.3742	0.756
Mof_H 	H 	0.6118	0.29	0.3007	0.795
Mof_C 	C 	0.9332	0.3066	0.726	0.485
Mof_C 	C 	0.9514	0.2405	0.7619	-0.674
Mof_C 	C 	0.9659	0.1804	0.7243	0.97
Mof_H 	H 	0.9692	0.1835	0.677	-0.4
Mof_C 	C 	0.9758	0.1149	0.7536	-1.703
Mof_C 	C 	0.9575	0.2358	0.832	0.547
Mof_H 	H 	0.9492	0.2752	0.8589	-0.144
Mof_C 	C 	0.9759	0.173	0.8612	-0.694
Mof_C 	C 	0.9839	0.1141	0.825	0.972
Mof_H 	H 	0.9948	0.0725	0.8473	-0.372
Mof_C 	C 	0.9924	0.1677	0.9375	0.461
Mof_C 	C 	0.9889	0.0499	0.7116	3.598
Mof_C 	C 	0.881	0.9998	0.7407	-3.807
Mof_H 	H 	0.884	0.995	0.7891	1.17
Mof_H 	H 	0.7923	0.0171	0.7324	1.084
Mof_H 	H 	0.9002	0.956	0.719	1.105
Mof_C 	C 	0.111	0.0065	0.7221	-4.146
Mof_H 	H 	0.1151	0.0005	0.7703	1.247
Mof_H 	H 	0.1051	0.9626	0.7011	1.19
Mof_H 	H 	0.1917	0.0282	0.7018	1.17
Mof_C 	C 	0.988	0.0557	0.6399	-4.855
Mof_H 	H 	0.9081	0.0818	0.6305	1.388
Mof_H 	H 	0.0685	0.0784	0.6204	1.365
Mof_H 	H 	0.9879	0.0108	0.6203	1.374
Mof_O 	O 	0.0279	0.8398	0.8035	-0.397
Mof_O 	O 	0.003	0.7436	0.8589	-0.31
Mof_O 	O 	0.952	0.5416	0.6077	-0.322
Mof_O 	O 	0.9545	0.5287	0.7188	-0.3
Mof_O 	O 	0.2609	0.8506	0.9253	-0.299
Mof_O 	O 	0.1309	0.9456	0.9115	-0.352
Mof_O 	O 	0.8384	0.9806	0.9351	-0.326
Mof_O 	O 	0.7753	0.8728	0.9272	-0.332
Mof_O 	O 	0.2015	0.4227	0.6502	-0.325
Mof_O 	O 	0.0993	0.4136	0.5564	-0.347
Mof_O 	O 	0.8202	0.4345	0.5215	-0.337
Mof_O 	O 	0.7239	0.4304	0.6296	-0.345
Mof_O 	O 	0.9401	0.363	0.7591	-0.314
Mof_O 	O 	0.9261	0.3065	0.6632	-0.373
Mof_O 	O 	0.9783	0.221	0.9743	-0.314
Mof_O 	O 	0.0174	0.1093	0.9623	-0.364
Mof_C 	C 	0.4658	0.1404	0.8609	1.865
Mof_Cd	Cd	-0	0	-0	0.494
Mof_Cd	Cd	-1.51345e-17	0.5	0.5	0.497
_end
