# CIF file generated by openbabel 3.1.0, see https://openbabel.org
data_I
_chemical_name_common 'image0'
_cell_length_a 10.744
_cell_length_b 11.971
_cell_length_c 13.304
_cell_angle_alpha 91.512
_cell_angle_beta 111.418
_cell_angle_gamma 106.334
_space_group_name_H-M_alt 'P 1'
_space_group_name_Hall 'P 1'
loop_
    _symmetry_equiv_pos_as_xyz
    x,y,z
loop_
    _atom_site_label
    _atom_site_type_symbol
    _atom_site_fract_x
    _atom_site_fract_y
    _atom_site_fract_z
    _atom_site_occupancy
    N1       N        0.75770    0.05510    0.67930    1.000
    O1       O        0.59620    0.86990    0.97790    1.000
    O2       O        0.81890    0.98240    0.02590    1.000
    N2       N        0.19630    0.92970    0.66990    1.000
    N3       N        0.34690    0.93050    0.83510    1.000
    N4       N        0.76380    0.29760    0.92820    1.000
    N5       N        0.87520    0.82820    0.91830    1.000
    C1       C        0.96340    0.88280    0.52200    1.000
    C2       C        0.71810    0.88930    0.98150    1.000
    C3       C        0.74790    0.79470    0.92330    1.000
    C4       C        0.25300    0.97690    0.77570    1.000
    H1       H        0.22830    0.03570    0.80340    1.000
    N6       N        0.91270    0.06140    0.84540    1.000
    N7       N        0.61130    0.13360    0.93190    1.000
    C5       C        0.85450    0.57420    0.73330    1.000
    C6       C        0.77990    0.01990    0.77740    1.000
    H2       H        0.70920    0.97150    0.79560    1.000
    C7       C        0.09390    0.96440    0.58210    1.000
    C8       C        0.99130    0.40910    0.92950    1.000
    H3       H        0.98310    0.34630    0.88230    1.000
    C9       C        0.88380    0.40320    0.96600    1.000
    C10      C        0.72230    0.22110    0.98960    1.000
    H4       H        0.76750    0.22930    0.06500    1.000
    C11      C        0.11050    0.50740    0.96250    1.000
    C12      C        0.62530    0.02440    0.58690    1.000
    C13      C        0.25850    0.84500    0.66160    1.000
    H5       H        0.24080    0.79690    0.59860    1.000
    C14      C        0.54900    0.90840    0.54850    1.000
    C15      C        0.88420    0.12860    0.68620    1.000
    H6       H        0.90180    0.16910    0.63160    1.000
    C16      C        0.41990    0.88490    0.45830    1.000
    H7       H        0.36480    0.80740    0.42910    1.000
    O3       O        0.97970    0.61030    0.74430    1.000
    C17      C        0.98000    0.13130    0.78810    1.000
    H8       H        0.07540    0.17360    0.81470    1.000
    C18      C        0.65080    0.68650    0.87450    1.000
    H9       H        0.56460    0.66340    0.88170    1.000
    C19      C        0.87000    0.92110    0.43830    1.000
    H10      H        0.78200    0.86890    0.39550    1.000
    C20      C        0.81090    0.64730    0.80400    1.000
    C21      C        0.90640    0.75610    0.85880    1.000
    H11      H        0.99410    0.77960    0.85420    1.000
    C22      C        0.57820    0.15700    0.82580    1.000
    H12      H        0.50220    0.11040    0.76540    1.000
    C23      C        0.67280    0.25760    0.82270    1.000
    H13      H        0.67510    0.29220    0.76130    1.000
    C24      C        0.34960    0.84630    0.76300    1.000
    H14      H        0.40610    0.79770    0.78210    1.000
    O4       O        0.75790    0.48400    0.67420    1.000
    C25      C        0.22590    0.51160    0.92550    1.000
    H15      H        0.22790    0.43310    0.91160    1.000
    H16      H        0.31410    0.55750    0.98120    1.000
    H17      H        0.21050    0.54670    0.85980    1.000
    C26      C        0.68550    0.61220    0.81350    1.000
    H18      H        0.62190    0.53840    0.77950    1.000
    C27      C        0.59430    0.80500    0.59490    1.000
    H19      H        0.69420    0.82320    0.61630    1.000
    H20      H        0.54680    0.73650    0.54040    1.000
    H21      H        0.57070    0.79000    0.65730    1.000
    C28      C        0.91650    0.75610    0.54140    1.000
    H22      H        0.97840    0.71620    0.53210    1.000
    H23      H        0.82220    0.71740    0.49020    1.000
    H24      H        0.91930    0.75480    0.61430    1.000
    N8       N        0.24230    0.94490    0.32070    1.000
    O5       O        0.40380    0.13010    0.02210    1.000
    O6       O        0.18110    0.01760    0.97410    1.000
    N9       N        0.80370    0.07030    0.33010    1.000
    N10      N        0.65310    0.06950    0.16490    1.000
    N11      N        0.23620    0.70240    0.07180    1.000
    N12      N        0.12480    0.17180    0.08170    1.000
    C29      C        0.03660    0.11720    0.47800    1.000
    C30      C        0.28190    0.11070    0.01850    1.000
    C31      C        0.25210    0.20530    0.07670    1.000
    C32      C        0.74700    0.02310    0.22430    1.000
    H25      H        0.77170    0.96430    0.19660    1.000
    N13      N        0.08730    0.93860    0.15460    1.000
    N14      N        0.38870    0.86640    0.06810    1.000
    C33      C        0.14550    0.42580    0.26670    1.000
    C34      C        0.22010    0.98010    0.22260    1.000
    H26      H        0.29080    0.02850    0.20440    1.000
    C35      C        0.90610    0.03560    0.41790    1.000
    C36      C        0.00870    0.59090    0.07050    1.000
    H27      H        0.01690    0.65370    0.11770    1.000
    C37      C        0.11620    0.59680    0.03400    1.000
    C38      C        0.27770    0.77890    0.01040    1.000
    H28      H        0.23250    0.77070    0.93500    1.000
    C39      C        0.88950    0.49260    0.03750    1.000
    C40      C        0.37470    0.97560    0.41310    1.000
    C41      C        0.74150    0.15500    0.33840    1.000
    H29      H        0.75920    0.20310    0.40140    1.000
    C42      C        0.45100    0.09160    0.45150    1.000
    C43      C        0.11580    0.87140    0.31380    1.000
    H30      H        0.09820    0.83090    0.36840    1.000
    C44      C        0.58010    0.11510    0.54170    1.000
    H31      H        0.63520    0.19260    0.57090    1.000
    O7       O        0.02030    0.38970    0.25570    1.000
    C45      C        0.02000    0.86870    0.21190    1.000
    H32      H        0.92460    0.82640    0.18530    1.000
    C46      C        0.34920    0.31350    0.12550    1.000
    H33      H        0.43540    0.33660    0.11830    1.000
    C47      C        0.13000    0.07890    0.56170    1.000
    H34      H        0.21800    0.13110    0.60450    1.000
    C48      C        0.18910    0.35270    0.19600    1.000
    C49      C        0.09360    0.24390    0.14120    1.000
    H35      H        0.00590    0.22040    0.14580    1.000
    C50      C        0.42180    0.84300    0.17420    1.000
    H36      H        0.49780    0.88960    0.23460    1.000
    C51      C        0.32720    0.74240    0.17730    1.000
    H37      H        0.32490    0.70780    0.23870    1.000
    C52      C        0.65040    0.15370    0.23700    1.000
    H38      H        0.59390    0.20230    0.21790    1.000
    O8       O        0.24210    0.51600    0.32580    1.000
    C53      C        0.77410    0.48840    0.07450    1.000
    H39      H        0.77210    0.56690    0.08840    1.000
    H40      H        0.68590    0.44250    0.01880    1.000
    H41      H        0.78950    0.45330    0.14020    1.000
    C54      C        0.31450    0.38780    0.18650    1.000
    H42      H        0.37810    0.46160    0.22050    1.000
    C55      C        0.40570    0.19500    0.40510    1.000
    H43      H        0.30580    0.17680    0.38370    1.000
    H44      H        0.45320    0.26350    0.45960    1.000
    H45      H        0.42930    0.21000    0.34270    1.000
    C56      C        0.08350    0.24390    0.45860    1.000
    H46      H        0.02160    0.28380    0.46790    1.000
    H47      H        0.17780    0.28260    0.50980    1.000
    H48      H        0.08070    0.24520    0.38570    1.000
    Co1      Co       0.50000    0.00000    0.00000    1.000
    Co2      Co       0.00000    0.00000    0.00000    1.000
