# CIF file generated by openbabel 3.1.0, see https://openbabel.org
data_I
_chemical_name_common 'image0'
_cell_length_a 11.9869
_cell_length_b 17.717
_cell_length_c 12.6414
_cell_angle_alpha 90
_cell_angle_beta 103.65
_cell_angle_gamma 90
_space_group_name_H-M_alt 'P 1'
_space_group_name_Hall 'P 1'
loop_
    _symmetry_equiv_pos_as_xyz
    x,y,z
loop_
    _atom_site_label
    _atom_site_type_symbol
    _atom_site_fract_x
    _atom_site_fract_y
    _atom_site_fract_z
    _atom_site_occupancy
    Cd1      Cd       0.76625    0.43524    0.95578    1.000
    O1       O        0.64350    0.52420    0.73660    1.000
    O2       O        0.58910    0.43680    0.84020    1.000
    O3       O        0.22500    0.94695    0.51640    1.000
    O4       O        0.36720    0.95061    0.43410    1.000
    N1       N        0.30580    0.54900    0.56450    1.000
    N2       N        0.86350    0.36210    0.85790    1.000
    N3       N        0.17490    0.14220    0.55790    1.000
    C1       C        0.41650    0.53920    0.61670    1.000
    H1       H        0.47430    0.55750    0.58580    1.000
    C2       C        0.44500    0.50260    0.71490    1.000
    C3       C        0.35810    0.47950    0.76340    1.000
    H2       H        0.37600    0.45500    0.83030    1.000
    C4       C        0.24480    0.49320    0.71180    1.000
    H3       H        0.18610    0.48020    0.74500    1.000
    C5       C        0.22060    0.52610    0.61100    1.000
    H4       H        0.14450    0.53290    0.57390    1.000
    C6       C        0.57120    0.48780    0.76630    1.000
    C7       C        0.27720    0.58670    0.45690    1.000
    H5       H        0.19910    0.57420    0.41950    1.000
    H6       H        0.32790    0.56830    0.41310    1.000
    C8       C        0.28920    0.67240    0.46840    1.000
    C9       C        0.23980    0.71190    0.53870    1.000
    H7       H        0.20230    0.68590    0.58410    1.000
    C10      C        0.24510    0.78950    0.54320    1.000
    H8       H        0.21050    0.81550    0.59090    1.000
    C11      C        0.30130    0.82870    0.47720    1.000
    C12      C        0.35080    0.79020    0.40680    1.000
    H9       H        0.38830    0.81640    0.36160    1.000
    C13      C        0.34560    0.71120    0.40210    1.000
    H10      H        0.38010    0.68510    0.35450    1.000
    C14      C        0.29770    0.91420    0.47620    1.000
    C15      C        0.85850    0.28610    0.85750    1.000
    H11      H        0.81140    0.26270    0.89660    1.000
    C16      C        0.91940    0.24120    0.80250    1.000
    H12      H        0.91390    0.18890    0.80530    1.000
    C17      C        0.98940    0.27510    0.74260    1.000
    C18      C        0.99300    0.35300    0.74260    1.000
    H13      H        0.03860    0.37780    0.70340    1.000
    C19      C        0.93050    0.39390    0.79940    1.000
    H14      H        0.93460    0.44630    0.79740    1.000
    C20      C        0.06880    0.12390    0.56660    1.000
    H15      H        0.03430    0.08140    0.52960    1.000
    C21      C        0.00880    0.16390    0.62610    1.000
    H16      H        0.93640    0.14740    0.63070    1.000
    C22      C        0.05440    0.22920    0.68050    1.000
    C23      C        0.16430    0.24880    0.67130    1.000
    H17      H        0.19950    0.29190    0.70590    1.000
    C24      C        0.22080    0.20480    0.61120    1.000
    H18      H        0.29440    0.21890    0.60710    1.000
    Cd2      Cd       0.26625    0.06476    0.45578    1.000
    O5       O        0.14350    0.97580    0.23660    1.000
    O6       O        0.08910    0.06320    0.34020    1.000
    O7       O        0.72500    0.55305    0.01640    1.000
    O8       O        0.86720    0.54939    0.93410    1.000
    N4       N        0.80580    0.95100    0.06450    1.000
    N5       N        0.36350    0.13790    0.35790    1.000
    N6       N        0.67490    0.35780    0.05790    1.000
    C25      C        0.91650    0.96080    0.11670    1.000
    H19      H        0.97430    0.94250    0.08580    1.000
    C26      C        0.94500    0.99740    0.21490    1.000
    C27      C        0.85810    0.02050    0.26340    1.000
    H20      H        0.87600    0.04500    0.33030    1.000
    C28      C        0.74480    0.00680    0.21180    1.000
    H21      H        0.68610    0.01980    0.24500    1.000
    C29      C        0.72060    0.97390    0.11100    1.000
    H22      H        0.64450    0.96710    0.07390    1.000
    C30      C        0.07120    0.01220    0.26630    1.000
    C31      C        0.77720    0.91330    0.95690    1.000
    H23      H        0.69910    0.92580    0.91950    1.000
    H24      H        0.82790    0.93170    0.91310    1.000
    C32      C        0.78920    0.82760    0.96840    1.000
    C33      C        0.73980    0.78810    0.03870    1.000
    H25      H        0.70230    0.81410    0.08410    1.000
    C34      C        0.74510    0.71050    0.04320    1.000
    H26      H        0.71050    0.68450    0.09090    1.000
    C35      C        0.80130    0.67130    0.97720    1.000
    C36      C        0.85080    0.70980    0.90680    1.000
    H27      H        0.88830    0.68360    0.86160    1.000
    C37      C        0.84560    0.78880    0.90210    1.000
    H28      H        0.88010    0.81490    0.85450    1.000
    C38      C        0.79770    0.58580    0.97620    1.000
    C39      C        0.35850    0.21390    0.35750    1.000
    H29      H        0.31140    0.23730    0.39660    1.000
    C40      C        0.41940    0.25880    0.30250    1.000
    H30      H        0.41390    0.31110    0.30530    1.000
    C41      C        0.48940    0.22490    0.24260    1.000
    C42      C        0.49300    0.14700    0.24260    1.000
    H31      H        0.53860    0.12220    0.20340    1.000
    C43      C        0.43050    0.10610    0.29940    1.000
    H32      H        0.43460    0.05370    0.29740    1.000
    C44      C        0.56880    0.37610    0.06660    1.000
    H33      H        0.53430    0.41860    0.02960    1.000
    C45      C        0.50880    0.33610    0.12610    1.000
    H34      H        0.43640    0.35260    0.13070    1.000
    C46      C        0.55440    0.27080    0.18050    1.000
    C47      C        0.66430    0.25120    0.17130    1.000
    H35      H        0.69950    0.20810    0.20590    1.000
    C48      C        0.72080    0.29520    0.11120    1.000
    H36      H        0.79440    0.28110    0.10710    1.000
    Cd3      Cd       0.73375    0.93524    0.54422    1.000
    O9       O        0.85650    0.02420    0.76340    1.000
    O10      O        0.91090    0.93680    0.65980    1.000
    O11      O        0.27500    0.44695    0.98360    1.000
    O12      O        0.13280    0.45061    0.06590    1.000
    N7       N        0.19420    0.04900    0.93550    1.000
    N8       N        0.63650    0.86210    0.64210    1.000
    N9       N        0.32510    0.64220    0.94210    1.000
    C49      C        0.08350    0.03920    0.88330    1.000
    H37      H        0.02570    0.05750    0.91420    1.000
    C50      C        0.05500    0.00260    0.78510    1.000
    C51      C        0.14190    0.97950    0.73660    1.000
    H38      H        0.12400    0.95500    0.66970    1.000
    C52      C        0.25520    0.99320    0.78820    1.000
    H39      H        0.31390    0.98020    0.75500    1.000
    C53      C        0.27940    0.02610    0.88900    1.000
    H40      H        0.35550    0.03290    0.92610    1.000
    C54      C        0.92880    0.98780    0.73370    1.000
    C55      C        0.22280    0.08670    0.04310    1.000
    H41      H        0.30090    0.07420    0.08050    1.000
    H42      H        0.17210    0.06830    0.08690    1.000
    C56      C        0.21080    0.17240    0.03160    1.000
    C57      C        0.26020    0.21190    0.96130    1.000
    H43      H        0.29770    0.18590    0.91590    1.000
    C58      C        0.25490    0.28950    0.95680    1.000
    H44      H        0.28950    0.31550    0.90910    1.000
    C59      C        0.19870    0.32870    0.02280    1.000
    C60      C        0.14920    0.29020    0.09320    1.000
    H45      H        0.11170    0.31640    0.13840    1.000
    C61      C        0.15440    0.21120    0.09790    1.000
    H46      H        0.11990    0.18510    0.14550    1.000
    C62      C        0.20230    0.41420    0.02380    1.000
    C63      C        0.64150    0.78610    0.64250    1.000
    H47      H        0.68860    0.76270    0.60340    1.000
    C64      C        0.58060    0.74120    0.69750    1.000
    H48      H        0.58610    0.68890    0.69470    1.000
    C65      C        0.51060    0.77510    0.75740    1.000
    C66      C        0.50700    0.85300    0.75740    1.000
    H49      H        0.46140    0.87780    0.79660    1.000
    C67      C        0.56950    0.89390    0.70060    1.000
    H50      H        0.56540    0.94630    0.70260    1.000
    C68      C        0.43120    0.62390    0.93340    1.000
    H51      H        0.46570    0.58140    0.97040    1.000
    C69      C        0.49120    0.66390    0.87390    1.000
    H52      H        0.56360    0.64740    0.86930    1.000
    C70      C        0.44560    0.72920    0.81950    1.000
    C71      C        0.33570    0.74880    0.82870    1.000
    H53      H        0.30050    0.79190    0.79410    1.000
    C72      C        0.27920    0.70480    0.88880    1.000
    H54      H        0.20560    0.71890    0.89290    1.000
    Cd4      Cd       0.23375    0.56476    0.04422    1.000
    O13      O        0.35650    0.47580    0.26340    1.000
    O14      O        0.41090    0.56320    0.15980    1.000
    O15      O        0.77500    0.05305    0.48360    1.000
    O16      O        0.63280    0.04939    0.56590    1.000
    N10      N        0.69420    0.45100    0.43550    1.000
    N11      N        0.13650    0.63790    0.14210    1.000
    N12      N        0.82510    0.85780    0.44210    1.000
    C73      C        0.58350    0.46080    0.38330    1.000
    H55      H        0.52570    0.44250    0.41420    1.000
    C74      C        0.55500    0.49740    0.28510    1.000
    C75      C        0.64190    0.52050    0.23660    1.000
    H56      H        0.62400    0.54500    0.16970    1.000
    C76      C        0.75520    0.50680    0.28820    1.000
    H57      H        0.81390    0.51980    0.25500    1.000
    C77      C        0.77940    0.47390    0.38900    1.000
    H58      H        0.85550    0.46710    0.42610    1.000
    C78      C        0.42880    0.51220    0.23370    1.000
    C79      C        0.72280    0.41330    0.54310    1.000
    H59      H        0.80090    0.42580    0.58050    1.000
    H60      H        0.67210    0.43170    0.58690    1.000
    C80      C        0.71080    0.32760    0.53160    1.000
    C81      C        0.76020    0.28810    0.46130    1.000
    H61      H        0.79770    0.31410    0.41590    1.000
    C82      C        0.75490    0.21050    0.45680    1.000
    H62      H        0.78950    0.18450    0.40910    1.000
    C83      C        0.69870    0.17130    0.52280    1.000
    C84      C        0.64920    0.20980    0.59320    1.000
    H63      H        0.61170    0.18360    0.63840    1.000
    C85      C        0.65440    0.28880    0.59790    1.000
    H64      H        0.61990    0.31490    0.64550    1.000
    C86      C        0.70230    0.08580    0.52380    1.000
    C87      C        0.14150    0.71390    0.14250    1.000
    H65      H        0.18860    0.73730    0.10340    1.000
    C88      C        0.08060    0.75880    0.19750    1.000
    H66      H        0.08610    0.81110    0.19470    1.000
    C89      C        0.01060    0.72490    0.25740    1.000
    C90      C        0.00700    0.64700    0.25740    1.000
    H67      H        0.96140    0.62220    0.29660    1.000
    C91      C        0.06950    0.60610    0.20060    1.000
    H68      H        0.06540    0.55370    0.20260    1.000
    C92      C        0.93120    0.87610    0.43340    1.000
    H69      H        0.96570    0.91860    0.47040    1.000
    C93      C        0.99120    0.83610    0.37390    1.000
    H70      H        0.06360    0.85260    0.36930    1.000
    C94      C        0.94560    0.77080    0.31950    1.000
    C95      C        0.83570    0.75120    0.32870    1.000
    H71      H        0.80050    0.70810    0.29410    1.000
    C96      C        0.77920    0.79520    0.38880    1.000
    H72      H        0.70560    0.78110    0.39290    1.000
