data_functionalizedCrystal
_audit_creation_method	'EQeq! by Chris Wilmer'
_symmetry_space_group_name_H-M	'P1'
_symmetry_Int_Tables_number	1
_symmetry_cell_setting	triclinic
loop_
_symmetry_equiv_pos_as_xyz
  x,y,z
_cell_length_a	14.3997
_cell_length_b	23.362
_cell_length_c	15.543
_cell_angle_alpha	90
_cell_angle_beta	106.309
_cell_angle_gamma	90
loop_
_atom_site_label
_atom_site_type_symbol
_atom_site_fract_x
_atom_site_fract_y
_atom_site_fract_z
_atom_site_charge
Mof_Cd	Cd	0.25889	0.05907	0.9245	0.526
Mof_C 	C 	0.4179	0.8997	0.5154	0.194
Mof_C 	C 	0.4811	0.9083	0.5958	-0.239
Mof_H 	H 	0.4751	0.9418	0.6261	0.124
Mof_C 	C 	0.553	0.8719	0.6362	0.12
Mof_H 	H 	0.5942	0.8813	0.692	0.012
Mof_C 	C 	0.5661	0.8223	0.5971	-0.142
Mof_C 	C 	0.501	0.8126	0.5186	0.089
Mof_H 	H 	0.5071	0.7783	0.4903	0.02
Mof_C 	C 	0.4225	0.849	0.4728	-0.208
Mof_H 	H 	0.3784	0.839	0.4186	0.108
Mof_C 	C 	0.6456	0.7764	0.6244	0.32
Mof_C 	C 	0.3447	0.9574	0.3742	0.25
Mof_C 	C 	0.417	0.9452	0.3407	-0.281
Mof_H 	H 	0.47	0.9246	0.3744	0.136
Mof_C 	C 	0.4132	0.9636	0.2535	0.161
Mof_H 	H 	0.4654	0.9569	0.2307	-0.002
Mof_C 	C 	0.3371	0.9899	0.2049	-0.189
Mof_C 	C 	0.2643	0.0011	0.2388	0.157
Mof_H 	H 	0.2116	0.0221	0.2055	0.001
Mof_C 	C 	0.2662	0.9819	0.3225	-0.279
Mof_H 	H 	0.2118	0.9861	0.343	0.142
Mof_C 	C 	0.3352	0.0082	0.1103	0.336
Mof_C 	C 	0.314	0.9838	0.5168	0.19
Mof_C 	C 	0.2631	0.9635	0.5768	-0.171
Mof_H 	H 	0.2478	0.925	0.5796	0.1
Mof_C 	C 	0.2358	0.0066	0.6343	0.063
Mof_H 	H 	0.2087	0.9947	0.679	0.038
Mof_C 	C 	0.2497	0.0644	0.6231	-0.151
Mof_C 	C 	0.2954	0.0771	0.5635	0.138
Mof_H 	H 	0.3074	0.1157	0.5561	0.007
Mof_C 	C 	0.327	0.039	0.5116	-0.251
Mof_H 	H 	0.3588	0.0526	0.4712	0.125
Mof_C 	C 	0.2181	0.1022	0.68	0.297
Mof_C 	C 	0.6444	0.2089	0.8307	0.185
Mof_C 	C 	0.6653	0.1854	0.9179	-0.222
Mof_H 	H 	0.7268	0.1881	0.9578	0.121
Mof_C 	C 	0.5937	0.1593	0.9409	0.141
Mof_H 	H 	0.6063	0.1448	0.9987	0.006
Mof_C 	C 	0.5035	0.1528	0.8848	-0.165
Mof_C 	C 	0.4837	0.1745	0.7999	0.122
Mof_H 	H 	0.4218	0.1707	0.761	0.029
Mof_C 	C 	0.5536	0.2017	0.7715	-0.216
Mof_H 	H 	0.5403	0.2153	0.713	0.117
Mof_C 	C 	0.4266	0.1205	0.9142	0.373
Mof_C 	C 	0.7098	0.2857	0.7544	0.173
Mof_C 	C 	0.6392	0.3265	0.761	-0.224
Mof_H 	H 	0.5949	0.3175	0.7925	0.121
Mof_C 	C 	0.6361	0.3778	0.722	0.147
Mof_H 	H 	0.5886	0.4035	0.7271	0
Mof_C 	C 	0.6949	0.3935	0.6779	-0.166
Mof_C 	C 	0.7674	0.3553	0.6696	0.096
Mof_H 	H 	0.8118	0.3673	0.6401	0.02
Mof_C 	C 	0.7747	0.3	0.704	-0.194
Mof_H 	H 	0.8196	0.2738	0.6945	0.109
Mof_C 	C 	0.6972	0.4515	0.6387	0.323
Mof_C 	C 	0.8174	0.2049	0.8266	0.188
Mof_C 	C 	0.897	0.2365	0.8627	-0.215
Mof_H 	H 	0.8922	0.2755	0.8729	0.118
Mof_C 	C 	0.9855	0.2099	0.8841	0.106
Mof_H 	H 	0.0408	0.2321	0.9053	0.027
Mof_C 	C 	0.996	0.1498	0.8752	-0.141
Mof_C 	C 	0.9111	0.1213	0.8366	0.107
Mof_H 	H 	0.9137	0.0819	0.8293	0.02
Mof_C 	C 	0.8204	0.1484	0.8077	-0.21
Mof_H 	H 	0.765	0.1285	0.777	0.116
Mof_C 	C 	0.0899	0.1235	0.899	0.332
Mof_N 	N 	0.3519	0.9426	0.4651	-0.205
Mof_N 	N 	0.7218	0.2331	0.8018	-0.19
Mof_O 	O 	0.6841	0.7845	0.715	-0.186
Mof_O 	O 	0.6667	0.7444	0.5776	-0.23
Mof_O 	O 	0.3958	0.9855	0.0774	-0.286
Mof_O 	O 	0.2722	0.0448	0.0668	-0.268
Mof_O 	O 	0.1821	0.0847	0.7421	-0.212
Mof_O 	O 	0.2453	0.1563	0.6754	-0.185
Mof_O 	O 	0.4479	0.0926	0.9839	-0.294
Mof_O 	O 	0.3427	0.1207	0.8657	-0.26
Mof_O 	O 	0.6217	0.481	0.6285	-0.283
Mof_O 	O 	0.7737	0.4696	0.6192	-0.262
Mof_O 	O 	0.0922	0.0696	0.9	-0.244
Mof_O 	O 	0.1665	0.1518	0.914	-0.219
Mof_Cd	Cd	0.74111	0.55907	0.5755	0.524
Mof_C 	C 	0.5821	0.3997	0.9846	0.235
Mof_C 	C 	0.5189	0.4083	0.9042	-0.28
Mof_H 	H 	0.5249	0.4418	0.8739	0.135
Mof_C 	C 	0.447	0.3719	0.8638	0.158
Mof_H 	H 	0.4058	0.3813	0.808	-0.002
Mof_C 	C 	0.4339	0.3223	0.9029	-0.177
Mof_C 	C 	0.499	0.3126	0.9814	0.146
Mof_H 	H 	0.4929	0.2783	0.0097	-0.005
Mof_C 	C 	0.5775	0.349	0.0272	-0.265
Mof_H 	H 	0.6216	0.339	0.0814	0.126
Mof_C 	C 	0.3544	0.2764	0.8756	0.333
Mof_C 	C 	0.6553	0.4574	0.1258	0.286
Mof_C 	C 	0.583	0.4452	0.1593	-0.325
Mof_H 	H 	0.53	0.4246	0.1256	0.15
Mof_C 	C 	0.5868	0.4636	0.2465	0.211
Mof_H 	H 	0.5346	0.4569	0.2693	-0.02
Mof_C 	C 	0.6629	0.4899	0.2951	-0.246
Mof_C 	C 	0.7357	0.5011	0.2612	0.224
Mof_H 	H 	0.7884	0.5221	0.2945	-0.02
Mof_C 	C 	0.7338	0.4819	0.1775	-0.336
Mof_H 	H 	0.7882	0.4861	0.157	0.158
Mof_C 	C 	0.6648	0.5082	0.3897	0.367
Mof_C 	C 	0.686	0.4838	0.9832	0.185
Mof_C 	C 	0.7369	0.4635	0.9232	-0.18
Mof_H 	H 	0.7522	0.425	0.9204	0.103
Mof_C 	C 	0.7642	0.5066	0.8657	0.08
Mof_H 	H 	0.7913	0.4947	0.821	0.029
Mof_C 	C 	0.7503	0.5644	0.8769	-0.151
Mof_C 	C 	0.7046	0.5771	0.9365	0.129
Mof_H 	H 	0.6926	0.6157	0.9439	0.012
Mof_C 	C 	0.673	0.539	0.9884	-0.228
Mof_H 	H 	0.6412	0.5526	0.0288	0.114
Mof_C 	C 	0.7819	0.6022	0.82	0.298
Mof_C 	C 	0.3556	0.7089	0.6693	0.186
Mof_C 	C 	0.3347	0.6854	0.5821	-0.224
Mof_H 	H 	0.2732	0.6881	0.5422	0.12
Mof_C 	C 	0.4063	0.6593	0.5591	0.142
Mof_H 	H 	0.3937	0.6448	0.5013	0.003
Mof_C 	C 	0.4965	0.6528	0.6152	-0.167
Mof_C 	C 	0.5163	0.6745	0.7001	0.123
Mof_H 	H 	0.5782	0.6707	0.739	0.028
Mof_C 	C 	0.4464	0.7017	0.7285	-0.217
Mof_H 	H 	0.4597	0.7153	0.787	0.118
Mof_C 	C 	0.5734	0.6205	0.5858	0.374
Mof_C 	C 	0.2902	0.7857	0.7456	0.172
Mof_C 	C 	0.3608	0.8265	0.739	-0.222
Mof_H 	H 	0.4051	0.8175	0.7075	0.121
Mof_C 	C 	0.3639	0.8778	0.778	0.145
Mof_H 	H 	0.4114	0.9035	0.7729	0.002
Mof_C 	C 	0.3051	0.8935	0.8221	-0.163
Mof_C 	C 	0.2326	0.8553	0.8304	0.094
Mof_H 	H 	0.1882	0.8673	0.8599	0.022
Mof_C 	C 	0.2253	0.8	0.796	-0.193
Mof_H 	H 	0.1804	0.7738	0.8055	0.109
Mof_C 	C 	0.3028	0.9515	0.8613	0.321
Mof_C 	C 	0.1826	0.7049	0.6734	0.189
Mof_C 	C 	0.103	0.7365	0.6373	-0.216
Mof_H 	H 	0.1078	0.7755	0.6271	0.118
Mof_C 	C 	0.0145	0.7099	0.6159	0.108
Mof_H 	H 	0.9592	0.7321	0.5947	0.026
Mof_C 	C 	0.004	0.6498	0.6248	-0.142
Mof_C 	C 	0.0889	0.6213	0.6634	0.107
Mof_H 	H 	0.0863	0.5819	0.6707	0.021
Mof_C 	C 	0.1796	0.6484	0.6923	-0.21
Mof_H 	H 	0.235	0.6285	0.723	0.117
Mof_C 	C 	0.9101	0.6235	0.601	0.332
Mof_N 	N 	0.6481	0.4426	0.0349	-0.221
Mof_N 	N 	0.2782	0.7331	0.6982	-0.19
Mof_O 	O 	0.3159	0.2845	0.785	-0.189
Mof_O 	O 	0.3333	0.2444	0.9224	-0.232
Mof_O 	O 	0.6042	0.4855	0.4226	-0.298
Mof_O 	O 	0.7278	0.5448	0.4332	-0.27
Mof_O 	O 	0.8179	0.5847	0.7579	-0.21
Mof_O 	O 	0.7547	0.6563	0.8246	-0.184
Mof_O 	O 	0.5521	0.5926	0.5161	-0.299
Mof_O 	O 	0.6573	0.6207	0.6343	-0.261
Mof_O 	O 	0.3783	0.981	0.8715	-0.277
Mof_O 	O 	0.2263	0.9696	0.8808	-0.259
Mof_O 	O 	0.9078	0.5696	0.6	-0.244
Mof_O 	O 	0.8335	0.6518	0.586	-0.22
Mof_Cd	Cd	0.74111	0.94093	0.0755	0.526
Mof_C 	C 	0.5821	0.1003	0.4846	0.195
Mof_C 	C 	0.5189	0.0917	0.4042	-0.242
Mof_H 	H 	0.5249	0.0582	0.3739	0.121
Mof_C 	C 	0.447	0.1281	0.3638	0.121
Mof_H 	H 	0.4058	0.1187	0.308	0.01
Mof_C 	C 	0.4339	0.1777	0.4029	-0.144
Mof_C 	C 	0.499	0.1874	0.4814	0.09
Mof_H 	H 	0.4929	0.2217	0.5097	0.02
Mof_C 	C 	0.5775	0.151	0.5272	-0.211
Mof_H 	H 	0.6216	0.161	0.5814	0.108
Mof_C 	C 	0.3544	0.2236	0.3756	0.321
Mof_C 	C 	0.6553	0.0426	0.6258	0.31
Mof_C 	C 	0.583	0.0548	0.6593	-0.354
Mof_H 	H 	0.53	0.0754	0.6256	0.16
Mof_C 	C 	0.5868	0.0364	0.7465	0.244
Mof_H 	H 	0.5346	0.0431	0.7693	-0.032
Mof_C 	C 	0.6629	0.0101	0.7951	-0.285
Mof_C 	C 	0.7357	0.9989	0.7612	0.272
Mof_H 	H 	0.7884	0.9779	0.7945	-0.035
Mof_C 	C 	0.7338	0.0181	0.6775	-0.376
Mof_H 	H 	0.7882	0.0139	0.657	0.172
Mof_C 	C 	0.6648	0.9918	0.8897	0.387
Mof_C 	C 	0.686	0.0162	0.4832	0.187
Mof_C 	C 	0.7369	0.0365	0.4232	-0.197
Mof_H 	H 	0.7522	0.075	0.4204	0.108
Mof_C 	C 	0.7642	0.9934	0.3657	0.106
Mof_H 	H 	0.7913	0.0053	0.321	0.016
Mof_C 	C 	0.7503	0.9356	0.3769	-0.168
Mof_C 	C 	0.7046	0.9229	0.4365	0.147
Mof_H 	H 	0.6926	0.8843	0.4439	0.005
Mof_C 	C 	0.673	0.961	0.4884	-0.246
Mof_H 	H 	0.6412	0.9474	0.5288	0.126
Mof_C 	C 	0.7819	0.8978	0.32	0.304
Mof_C 	C 	0.3556	0.7911	0.1693	0.185
Mof_C 	C 	0.3347	0.8146	0.0821	-0.225
Mof_H 	H 	0.2732	0.8119	0.0422	0.119
Mof_C 	C 	0.4063	0.8407	0.0591	0.142
Mof_H 	H 	0.3937	0.8552	0.0013	0.001
Mof_C 	C 	0.4965	0.8472	0.1152	-0.168
Mof_C 	C 	0.5163	0.8255	0.2001	0.123
Mof_H 	H 	0.5782	0.8293	0.239	0.028
Mof_C 	C 	0.4464	0.7983	0.2285	-0.217
Mof_H 	H 	0.4597	0.7847	0.287	0.118
Mof_C 	C 	0.5734	0.8795	0.0858	0.373
Mof_C 	C 	0.2902	0.7143	0.2456	0.173
Mof_C 	C 	0.3608	0.6735	0.239	-0.224
Mof_H 	H 	0.4051	0.6825	0.2075	0.121
Mof_C 	C 	0.3639	0.6222	0.278	0.147
Mof_H 	H 	0.4114	0.5965	0.2729	0
Mof_C 	C 	0.3051	0.6065	0.3221	-0.166
Mof_C 	C 	0.2326	0.6447	0.3304	0.095
Mof_H 	H 	0.1882	0.6327	0.3599	0.02
Mof_C 	C 	0.2253	0.7	0.296	-0.194
Mof_H 	H 	0.1804	0.7262	0.3055	0.109
Mof_C 	C 	0.3028	0.5485	0.3613	0.323
Mof_C 	C 	0.1826	0.7951	0.1734	0.188
Mof_C 	C 	0.103	0.7635	0.1373	-0.216
Mof_H 	H 	0.1078	0.7245	0.1271	0.117
Mof_C 	C 	0.0145	0.7901	0.1159	0.107
Mof_H 	H 	0.9592	0.7679	0.0947	0.024
Mof_C 	C 	0.004	0.8502	0.1248	-0.141
Mof_C 	C 	0.0889	0.8787	0.1634	0.106
Mof_H 	H 	0.0863	0.9181	0.1707	0.022
Mof_C 	C 	0.1796	0.8516	0.1923	-0.209
Mof_H 	H 	0.235	0.8715	0.223	0.116
Mof_C 	C 	0.9101	0.8765	0.101	0.331
Mof_N 	N 	0.6481	0.0574	0.5349	-0.215
Mof_N 	N 	0.2782	0.7669	0.1982	-0.191
Mof_O 	O 	0.3159	0.2155	0.285	-0.188
Mof_O 	O 	0.3333	0.2556	0.4224	-0.23
Mof_O 	O 	0.6042	0.0145	0.9226	-0.302
Mof_O 	O 	0.7278	0.9552	0.9332	-0.27
Mof_O 	O 	0.8179	0.9153	0.2579	-0.211
Mof_O 	O 	0.7547	0.8437	0.3246	-0.186
Mof_O 	O 	0.5521	0.9074	0.0161	-0.299
Mof_O 	O 	0.6573	0.8793	0.1343	-0.26
Mof_O 	O 	0.3783	0.519	0.3715	-0.283
Mof_O 	O 	0.2263	0.5304	0.3808	-0.263
Mof_O 	O 	0.9078	0.9304	0.1	-0.244
Mof_O 	O 	0.8335	0.8482	0.086	-0.221
Mof_Cd	Cd	0.25889	0.44093	0.4245	0.525
Mof_C 	C 	0.4179	0.6003	0.0154	0.157
Mof_C 	C 	0.4811	0.5917	0.0958	-0.206
Mof_H 	H 	0.4751	0.5582	0.1261	0.11
Mof_C 	C 	0.553	0.6281	0.1362	0.087
Mof_H 	H 	0.5942	0.6187	0.192	0.022
Mof_C 	C 	0.5661	0.6777	0.0971	-0.112
Mof_C 	C 	0.501	0.6874	0.0186	0.037
Mof_H 	H 	0.5071	0.7217	0.9903	0.042
Mof_C 	C 	0.4225	0.651	0.9728	-0.159
Mof_H 	H 	0.3784	0.661	0.9186	0.092
Mof_C 	C 	0.6456	0.7236	0.1244	0.309
Mof_C 	C 	0.3447	0.5426	0.8742	0.284
Mof_C 	C 	0.417	0.5548	0.8407	-0.322
Mof_H 	H 	0.47	0.5754	0.8744	0.151
Mof_C 	C 	0.4132	0.5364	0.7535	0.208
Mof_H 	H 	0.4654	0.5431	0.7307	-0.02
Mof_C 	C 	0.3371	0.5101	0.7049	-0.244
Mof_C 	C 	0.2643	0.4989	0.7388	0.222
Mof_H 	H 	0.2116	0.4779	0.7055	-0.019
Mof_C 	C 	0.2662	0.5181	0.8225	-0.334
Mof_H 	H 	0.2118	0.5139	0.843	0.16
Mof_C 	C 	0.3352	0.4918	0.6103	0.366
Mof_C 	C 	0.314	0.5162	0.0168	0.192
Mof_C 	C 	0.2631	0.5365	0.0768	-0.188
Mof_H 	H 	0.2478	0.575	0.0796	0.104
Mof_C 	C 	0.2358	0.4934	0.1343	0.09
Mof_H 	H 	0.2087	0.5053	0.179	0.025
Mof_C 	C 	0.2497	0.4356	0.1231	-0.168
Mof_C 	C 	0.2954	0.4229	0.0635	0.157
Mof_H 	H 	0.3074	0.3843	0.0561	-0
Mof_C 	C 	0.327	0.461	0.0116	-0.269
Mof_H 	H 	0.3588	0.4474	0.9712	0.137
Mof_C 	C 	0.2181	0.3978	0.18	0.304
Mof_C 	C 	0.6444	0.2911	0.3307	0.185
Mof_C 	C 	0.6653	0.3146	0.4179	-0.224
Mof_H 	H 	0.7268	0.3119	0.4578	0.12
Mof_C 	C 	0.5937	0.3407	0.4409	0.142
Mof_H 	H 	0.6063	0.3552	0.4987	0.003
Mof_C 	C 	0.5035	0.3472	0.3848	-0.167
Mof_C 	C 	0.4837	0.3255	0.2999	0.123
Mof_H 	H 	0.4218	0.3293	0.261	0.028
Mof_C 	C 	0.5536	0.2983	0.2715	-0.217
Mof_H 	H 	0.5403	0.2847	0.213	0.117
Mof_C 	C 	0.4266	0.3795	0.4142	0.374
Mof_C 	C 	0.7098	0.2143	0.2544	0.173
Mof_C 	C 	0.6392	0.1735	0.261	-0.225
Mof_H 	H 	0.5949	0.1825	0.2925	0.121
Mof_C 	C 	0.6361	0.1222	0.222	0.149
Mof_H 	H 	0.5886	0.0965	0.2271	-0.001
Mof_C 	C 	0.6949	0.1065	0.1779	-0.168
Mof_C 	C 	0.7674	0.1447	0.1696	0.096
Mof_H 	H 	0.8118	0.1327	0.1401	0.018
Mof_C 	C 	0.7747	0.2	0.204	-0.196
Mof_H 	H 	0.8196	0.2262	0.1945	0.108
Mof_C 	C 	0.6972	0.0485	0.1387	0.323
Mof_C 	C 	0.8174	0.2951	0.3266	0.188
Mof_C 	C 	0.897	0.2635	0.3627	-0.215
Mof_H 	H 	0.8922	0.2245	0.3729	0.117
Mof_C 	C 	0.9855	0.2901	0.3841	0.106
Mof_H 	H 	0.0408	0.2679	0.4053	0.026
Mof_C 	C 	0.996	0.3502	0.3752	-0.142
Mof_C 	C 	0.9111	0.3787	0.3366	0.106
Mof_H 	H 	0.9137	0.4181	0.3293	0.02
Mof_C 	C 	0.8204	0.3516	0.3077	-0.21
Mof_H 	H 	0.765	0.3715	0.277	0.116
Mof_C 	C 	0.0899	0.3765	0.399	0.332
Mof_N 	N 	0.3519	0.5574	0.9651	-0.202
Mof_N 	N 	0.7218	0.2669	0.3018	-0.191
Mof_O 	O 	0.6841	0.7155	0.215	-0.186
Mof_O 	O 	0.6667	0.7556	0.0776	-0.229
Mof_O 	O 	0.3958	0.5145	0.5774	-0.298
Mof_O 	O 	0.2722	0.4552	0.5668	-0.269
Mof_O 	O 	0.1821	0.4153	0.2421	-0.213
Mof_O 	O 	0.2453	0.3437	0.1754	-0.187
Mof_O 	O 	0.4479	0.4074	0.4839	-0.299
Mof_O 	O 	0.3427	0.3793	0.3657	-0.261
Mof_O 	O 	0.6217	0.019	0.1285	-0.286
Mof_O 	O 	0.7737	0.0304	0.1192	-0.267
Mof_O 	O 	0.0922	0.4304	0.4	-0.244
Mof_O 	O 	0.1665	0.3482	0.414	-0.221
Mof_Cd	Cd	0.5	0	-0	0.512
Mof_Cd	Cd	0.5	0.5	0.5	0.525
_end
