# CIF file generated by openbabel 3.1.0, see https://openbabel.org
data_I
_chemical_name_common 'image0'
_cell_length_a 33.2277
_cell_length_b 9.7252
_cell_length_c 18.2913
_cell_angle_alpha 90
_cell_angle_beta 93.676
_cell_angle_gamma 90
_space_group_name_H-M_alt 'P 1'
_space_group_name_Hall 'P 1'
loop_
    _symmetry_equiv_pos_as_xyz
    x,y,z
loop_
    _atom_site_label
    _atom_site_type_symbol
    _atom_site_fract_x
    _atom_site_fract_y
    _atom_site_fract_z
    _atom_site_occupancy
    Co1      Co       0.34780    0.19901    0.51686    1.000
    Co2      Co       0.25220    0.25400    0.50530    1.000
    O1       O        0.34052    0.32140    0.60029    1.000
    O2       O        0.34657    0.69040    0.92560    1.000
    O3       O        0.27320    0.31530    0.60004    1.000
    O4       O        0.29733    0.09120    0.49470    1.000
    O5       O        0.28456    0.61790    0.94386    1.000
    C1       C        0.27326    0.86370    0.51930    1.000
    C2       C        0.31459    0.62700    0.90630    1.000
    C3       C        0.30707    0.34720    0.62720    1.000
    C4       C        0.29953    0.98570    0.53980    1.000
    O6       O        0.32245    0.98520    0.59470    1.000
    C5       C        0.25144    0.85980    0.45220    1.000
    C6       C        0.27654    0.49910    0.80570    1.000
    C7       C        0.34513    0.47810    0.72690    1.000
    C8       C        0.31284    0.55600    0.83390    1.000
    O7       O        0.40480    0.15600    0.53920    1.000
    C9       C        0.34685    0.54630    0.79450    1.000
    C10      C        0.30917    0.42190    0.69920    1.000
    C11      C        0.27472    0.43290    0.73820    1.000
    C12      C        0.27168    0.75310    0.56690    1.000
    C13      C        0.46010    0.03830    0.49850    1.000
    O8       O        0.39100    0.02900    0.44710    1.000
    C14      C        0.41510    0.07910    0.49740    1.000
    C15      C        0.48760    0.10410    0.54410    1.000
    C16      C        0.47200    0.93850    0.45130    1.000
    Co3      Co       0.84780    0.69901    0.51686    1.000
    Co4      Co       0.75220    0.75400    0.50530    1.000
    O9       O        0.84052    0.82140    0.60029    1.000
    O10      O        0.84657    0.19040    0.92560    1.000
    O11      O        0.77320    0.81530    0.60004    1.000
    O12      O        0.79733    0.59120    0.49470    1.000
    O13      O        0.78456    0.11790    0.94386    1.000
    C17      C        0.77326    0.36370    0.51930    1.000
    C18      C        0.81459    0.12700    0.90630    1.000
    C19      C        0.80707    0.84720    0.62720    1.000
    C20      C        0.79953    0.48570    0.53980    1.000
    O14      O        0.82245    0.48520    0.59470    1.000
    C21      C        0.75144    0.35980    0.45220    1.000
    C22      C        0.77654    0.99910    0.80570    1.000
    C23      C        0.84513    0.97810    0.72690    1.000
    C24      C        0.81284    0.05600    0.83390    1.000
    O15      O        0.90480    0.65600    0.53920    1.000
    C25      C        0.84685    0.04630    0.79450    1.000
    C26      C        0.80917    0.92190    0.69920    1.000
    C27      C        0.77472    0.93290    0.73820    1.000
    C28      C        0.77168    0.25310    0.56690    1.000
    C29      C        0.96010    0.53830    0.49850    1.000
    O16      O        0.89100    0.52900    0.44710    1.000
    C30      C        0.91510    0.57910    0.49740    1.000
    C31      C        0.98760    0.60410    0.54410    1.000
    C32      C        0.97200    0.43850    0.45130    1.000
    Co5      Co       0.65220    0.19901    0.98314    1.000
    Co6      Co       0.74780    0.25400    0.99470    1.000
    O17      O        0.65948    0.32140    0.89971    1.000
    O18      O        0.65343    0.69040    0.57440    1.000
    O19      O        0.72680    0.31530    0.89996    1.000
    O20      O        0.70267    0.09120    0.00530    1.000
    O21      O        0.71544    0.61790    0.55614    1.000
    C33      C        0.72674    0.86370    0.98070    1.000
    C34      C        0.68541    0.62700    0.59370    1.000
    C35      C        0.69293    0.34720    0.87280    1.000
    C36      C        0.70047    0.98570    0.96020    1.000
    O22      O        0.67755    0.98520    0.90530    1.000
    C37      C        0.74856    0.85980    0.04780    1.000
    C38      C        0.72346    0.49910    0.69430    1.000
    C39      C        0.65487    0.47810    0.77310    1.000
    C40      C        0.68716    0.55600    0.66610    1.000
    O23      O        0.59520    0.15600    0.96080    1.000
    C41      C        0.65315    0.54630    0.70550    1.000
    C42      C        0.69083    0.42190    0.80080    1.000
    C43      C        0.72528    0.43290    0.76180    1.000
    C44      C        0.72832    0.75310    0.93310    1.000
    C45      C        0.53990    0.03830    0.00150    1.000
    O24      O        0.60900    0.02900    0.05290    1.000
    C46      C        0.58490    0.07910    0.00260    1.000
    C47      C        0.51240    0.10410    0.95590    1.000
    C48      C        0.52800    0.93850    0.04870    1.000
    Co7      Co       0.15220    0.69901    0.98314    1.000
    Co8      Co       0.24780    0.75400    0.99470    1.000
    O25      O        0.15948    0.82140    0.89971    1.000
    O26      O        0.15343    0.19040    0.57440    1.000
    O27      O        0.22680    0.81530    0.89996    1.000
    O28      O        0.20267    0.59120    0.00530    1.000
    O29      O        0.21544    0.11790    0.55614    1.000
    C49      C        0.22674    0.36370    0.98070    1.000
    C50      C        0.18541    0.12700    0.59370    1.000
    C51      C        0.19293    0.84720    0.87280    1.000
    C52      C        0.20047    0.48570    0.96020    1.000
    O30      O        0.17755    0.48520    0.90530    1.000
    C53      C        0.24856    0.35980    0.04780    1.000
    C54      C        0.22346    0.99910    0.69430    1.000
    C55      C        0.15487    0.97810    0.77310    1.000
    C56      C        0.18716    0.05600    0.66610    1.000
    O31      O        0.09520    0.65600    0.96080    1.000
    C57      C        0.15315    0.04630    0.70550    1.000
    C58      C        0.19083    0.92190    0.80080    1.000
    C59      C        0.22528    0.93290    0.76180    1.000
    C60      C        0.22832    0.25310    0.93310    1.000
    C61      C        0.03990    0.53830    0.00150    1.000
    O32      O        0.10900    0.52900    0.05290    1.000
    C62      C        0.08490    0.57910    0.00260    1.000
    C63      C        0.01240    0.60410    0.95590    1.000
    C64      C        0.02800    0.43850    0.04870    1.000
    Co9      Co       0.65220    0.80099    0.48314    1.000
    Co10     Co       0.74780    0.74600    0.49470    1.000
    O33      O        0.65948    0.67860    0.39971    1.000
    O34      O        0.65343    0.30960    0.07440    1.000
    O35      O        0.72680    0.68470    0.39996    1.000
    O36      O        0.70267    0.90880    0.50530    1.000
    O37      O        0.71544    0.38210    0.05614    1.000
    C65      C        0.72674    0.13630    0.48070    1.000
    C66      C        0.68541    0.37300    0.09370    1.000
    C67      C        0.69293    0.65280    0.37280    1.000
    C68      C        0.70047    0.01430    0.46020    1.000
    O38      O        0.67755    0.01480    0.40530    1.000
    C69      C        0.74856    0.14020    0.54780    1.000
    C70      C        0.72346    0.50090    0.19430    1.000
    C71      C        0.65487    0.52190    0.27310    1.000
    C72      C        0.68716    0.44400    0.16610    1.000
    O39      O        0.59520    0.84400    0.46080    1.000
    C73      C        0.65315    0.45370    0.20550    1.000
    C74      C        0.69083    0.57810    0.30080    1.000
    C75      C        0.72528    0.56710    0.26180    1.000
    C76      C        0.72832    0.24690    0.43310    1.000
    C77      C        0.53990    0.96170    0.50150    1.000
    O40      O        0.60900    0.97100    0.55290    1.000
    C78      C        0.58490    0.92090    0.50260    1.000
    C79      C        0.51240    0.89590    0.45590    1.000
    C80      C        0.52800    0.06150    0.54870    1.000
    Co11     Co       0.15220    0.30099    0.48314    1.000
    Co12     Co       0.24780    0.24600    0.49470    1.000
    O41      O        0.15948    0.17860    0.39971    1.000
    O42      O        0.15343    0.80960    0.07440    1.000
    O43      O        0.22680    0.18470    0.39996    1.000
    O44      O        0.20267    0.40880    0.50530    1.000
    O45      O        0.21544    0.88210    0.05614    1.000
    C81      C        0.22674    0.63630    0.48070    1.000
    C82      C        0.18541    0.87300    0.09370    1.000
    C83      C        0.19293    0.15280    0.37280    1.000
    C84      C        0.20047    0.51430    0.46020    1.000
    O46      O        0.17755    0.51480    0.40530    1.000
    C85      C        0.24856    0.64020    0.54780    1.000
    C86      C        0.22346    0.00090    0.19430    1.000
    C87      C        0.15487    0.02190    0.27310    1.000
    C88      C        0.18716    0.94400    0.16610    1.000
    O47      O        0.09520    0.34400    0.46080    1.000
    C89      C        0.15315    0.95370    0.20550    1.000
    C90      C        0.19083    0.07810    0.30080    1.000
    C91      C        0.22528    0.06710    0.26180    1.000
    C92      C        0.22832    0.74690    0.43310    1.000
    C93      C        0.03990    0.46170    0.50150    1.000
    O48      O        0.10900    0.47100    0.55290    1.000
    C94      C        0.08490    0.42090    0.50260    1.000
    C95      C        0.01240    0.39590    0.45590    1.000
    C96      C        0.02800    0.56150    0.54870    1.000
    Co13     Co       0.34780    0.80099    0.01686    1.000
    Co14     Co       0.25220    0.74600    0.00530    1.000
    O49      O        0.34052    0.67860    0.10029    1.000
    O50      O        0.34657    0.30960    0.42560    1.000
    O51      O        0.27320    0.68470    0.10004    1.000
    O52      O        0.29733    0.90880    0.99470    1.000
    O53      O        0.28456    0.38210    0.44386    1.000
    C97      C        0.27326    0.13630    0.01930    1.000
    C98      C        0.31459    0.37300    0.40630    1.000
    C99      C        0.30707    0.65280    0.12720    1.000
    C100     C        0.29953    0.01430    0.03980    1.000
    O54      O        0.32245    0.01480    0.09470    1.000
    C101     C        0.25144    0.14020    0.95220    1.000
    C102     C        0.27654    0.50090    0.30570    1.000
    C103     C        0.34513    0.52190    0.22690    1.000
    C104     C        0.31284    0.44400    0.33390    1.000
    O55      O        0.40480    0.84400    0.03920    1.000
    C105     C        0.34685    0.45370    0.29450    1.000
    C106     C        0.30917    0.57810    0.19920    1.000
    C107     C        0.27472    0.56710    0.23820    1.000
    C108     C        0.27168    0.24690    0.06690    1.000
    C109     C        0.46010    0.96170    0.99850    1.000
    O56      O        0.39100    0.97100    0.94710    1.000
    C110     C        0.41510    0.92090    0.99740    1.000
    C111     C        0.48760    0.89590    0.04410    1.000
    C112     C        0.47200    0.06150    0.95130    1.000
    Co15     Co       0.84780    0.30099    0.01686    1.000
    Co16     Co       0.75220    0.24600    0.00530    1.000
    O57      O        0.84052    0.17860    0.10029    1.000
    O58      O        0.84657    0.80960    0.42560    1.000
    O59      O        0.77320    0.18470    0.10004    1.000
    O60      O        0.79733    0.40880    0.99470    1.000
    O61      O        0.78456    0.88210    0.44386    1.000
    C113     C        0.77326    0.63630    0.01930    1.000
    C114     C        0.81459    0.87300    0.40630    1.000
    C115     C        0.80707    0.15280    0.12720    1.000
    C116     C        0.79953    0.51430    0.03980    1.000
    O62      O        0.82245    0.51480    0.09470    1.000
    C117     C        0.75144    0.64020    0.95220    1.000
    C118     C        0.77654    0.00090    0.30570    1.000
    C119     C        0.84513    0.02190    0.22690    1.000
    C120     C        0.81284    0.94400    0.33390    1.000
    O63      O        0.90480    0.34400    0.03920    1.000
    C121     C        0.84685    0.95370    0.29450    1.000
    C122     C        0.80917    0.07810    0.19920    1.000
    C123     C        0.77472    0.06710    0.23820    1.000
    C124     C        0.77168    0.74690    0.06690    1.000
    C125     C        0.96010    0.46170    0.99850    1.000
    O64      O        0.89100    0.47100    0.94710    1.000
    C126     C        0.91510    0.42090    0.99740    1.000
    C127     C        0.98760    0.39590    0.04410    1.000
    C128     C        0.97200    0.56150    0.95130    1.000
