data_functionalizedCrystal
_audit_creation_method	'EQeq! by Chris Wilmer'
_symmetry_space_group_name_H-M	'P1'
_symmetry_Int_Tables_number	1
_symmetry_cell_setting	triclinic
loop_
_symmetry_equiv_pos_as_xyz
  x,y,z
_cell_length_a	15.096
_cell_length_b	15.6776
_cell_length_c	31.846
_cell_angle_alpha	93.6305
_cell_angle_beta	90
_cell_angle_gamma	118.78
loop_
_atom_site_label
_atom_site_type_symbol
_atom_site_fract_x
_atom_site_fract_y
_atom_site_fract_z
_atom_site_charge
Mof_Zn	Zn	0.93855	0.5862	0.19575	1.162
Mof_Zn	Zn	0.54568	0.85646	0.88353	1.157
Mof_Zn	Zn	0.10126	0.37982	0.00221	1.162
Mof_Zn	Zn	0.64765	0.5862	0.69575	1.163
Mof_Zn	Zn	0.31078	0.85646	0.38353	1.158
Mof_Zn	Zn	0.27856	0.37982	0.50221	1.162
Mof_H 	H 	0.1962	0.2682	0.9513	-0.004
Mof_H 	H 	0.2298	0.1432	0.9608	0.076
Mof_H 	H 	0.0429	0.068	0.0594	0.078
Mof_H 	H 	0.0169	0.1988	0.048	-0.012
Mof_H 	H 	0.4102	0.769	0.9529	-0.008
Mof_H 	H 	0.3069	0.7972	0.0004	0.09
Mof_H 	H 	0.4042	0.06	0.9546	0.078
Mof_H 	H 	0.5145	0.0294	0.9125	-0.014
Mof_H 	H 	0.1082	0.6522	0.1389	-0.021
Mof_H 	H 	0.1835	0.7534	0.0855	0.087
Mof_H 	H 	0.9868	0.856	0.1024	0.077
Mof_H 	H 	0.9115	0.7468	0.1541	-0.01
Mof_H 	H 	0.1001	0.4822	0.0869	-0.008
Mof_H 	H 	0.1985	0.5508	0.1478	0.077
Mof_H 	H 	0.3899	0.4566	0.103	0.097
Mof_H 	H 	0.2888	0.3982	0.0418	-0.004
Mof_H 	H 	0.5017	0.8588	0.3473	-0.009
Mof_H 	H 	0.5439	0.784	0.291	0.085
Mof_H 	H 	0.247	0.6294	0.2573	0.078
Mof_H 	H 	0.2118	0.697	0.3177	-0.001
Mof_H 	H 	0.8256	0.6554	0.2575	-0.006
Mof_H 	H 	0.68	0.6678	0.2583	0.087
Mof_H 	H 	0.5965	0.515	0.1453	0.09
Mof_H 	H 	0.7423	0.5034	0.1473	0
Mof_H 	H 	0.072	0.2682	0.4513	-0.002
Mof_H 	H 	0.9134	0.1432	0.4608	0.077
Mof_H 	H 	0.0251	0.068	0.5594	0.079
Mof_H 	H 	0.1819	0.1988	0.548	-0.011
Mof_H 	H 	0.3588	0.769	0.4529	-0.007
Mof_H 	H 	0.4903	0.7972	0.5004	0.091
Mof_H 	H 	0.6558	0.06	0.4546	0.081
Mof_H 	H 	0.5149	0.0294	0.4125	-0.013
Mof_H 	H 	0.544	0.6522	0.6389	-0.022
Mof_H 	H 	0.5699	0.7534	0.5855	0.088
Mof_H 	H 	0.8692	0.856	0.6024	0.082
Mof_H 	H 	0.8353	0.7468	0.6541	-0.013
Mof_H 	H 	0.3821	0.4822	0.5869	-0.008
Mof_H 	H 	0.3523	0.5508	0.6478	0.077
Mof_H 	H 	0.0667	0.4566	0.603	0.097
Mof_H 	H 	0.1094	0.3982	0.5418	-0.004
Mof_H 	H 	0.3571	0.8588	0.8473	-0.009
Mof_H 	H 	0.2401	0.784	0.791	0.085
Mof_H 	H 	0.3824	0.6294	0.7573	0.078
Mof_H 	H 	0.4852	0.697	0.8177	-0.001
Mof_H 	H 	0.8298	0.6554	0.7575	-0.005
Mof_H 	H 	0.9878	0.6678	0.7583	0.087
Mof_H 	H 	0.9185	0.515	0.6453	0.091
Mof_H 	H 	0.7611	0.5034	0.6473	0
Mof_C 	C 	0.1487	0.8894	0.0575	0.083
Mof_C 	C 	0.2667	0.9436	0.0076	0.09
Mof_C 	C 	0.1694	0.0162	0.0203	0.088
Mof_C 	C 	0.1664	0.228	0.9739	0.056
Mof_C 	C 	0.1862	0.1536	0.9794	-0.11
Mof_C 	C 	0.1437	0.0928	0.0116	0.051
Mof_C 	C 	0.0766	0.1094	0.0375	-0.113
Mof_C 	C 	0.0613	0.1874	0.0302	0.075
Mof_C 	C 	0.4101	0.8296	0.9537	0.068
Mof_C 	C 	0.3466	0.845	0.9816	-0.116
Mof_C 	C 	0.3428	0.9318	0.981	0.06
Mof_C 	C 	0.4047	0.9998	0.9553	-0.123
Mof_C 	C 	0.4696	0.9804	0.9296	0.073
Mof_C 	C 	0.0821	0.6934	0.1308	0.07
Mof_C 	C 	0.1294	0.7554	0.0999	-0.13
Mof_C 	C 	0.0974	0.8204	0.0901	0.054
Mof_C 	C 	0.0135	0.8148	0.1097	-0.126
Mof_C 	C 	0.968	0.7486	0.1402	0.069
Mof_C 	C 	0.378	0.5598	0.1691	0.099
Mof_C 	C 	0.4224	0.6494	0.2317	0.085
Mof_C 	C 	0.5284	0.6022	0.2005	0.093
Mof_C 	C 	0.1608	0.4786	0.09	0.08
Mof_C 	C 	0.2191	0.5198	0.1264	-0.12
Mof_C 	C 	0.309	0.5156	0.1318	0.057
Mof_C 	C 	0.3324	0.4656	0.1001	-0.117
Mof_C 	C 	0.2703	0.4288	0.0642	0.072
Mof_C 	C 	0.4491	0.81	0.3293	0.074
Mof_C 	C 	0.4751	0.7668	0.2953	-0.114
Mof_C 	C 	0.3993	0.6986	0.268	0.048
Mof_C 	C 	0.3005	0.6746	0.276	-0.113
Mof_C 	C 	0.2803	0.7172	0.3115	0.059
Mof_C 	C 	0.7786	0.6268	0.2343	0.07
Mof_C 	C 	0.692	0.634	0.2351	-0.128
Mof_C 	C 	0.6218	0.592	0.2019	0.059
Mof_C 	C 	0.6427	0.544	0.1687	-0.118
Mof_C 	C 	0.7299	0.5384	0.1699	0.059
Mof_C 	C 	0.7407	0.8894	0.5575	0.081
Mof_C 	C 	0.6769	0.9436	0.5076	0.088
Mof_C 	C 	0.8468	0.0162	0.5203	0.092
Mof_C 	C 	0.0616	0.228	0.4739	0.054
Mof_C 	C 	0.9674	0.1536	0.4794	-0.108
Mof_C 	C 	0.9491	0.0928	0.5116	0.053
Mof_C 	C 	0.0328	0.1094	0.5375	-0.116
Mof_C 	C 	0.1261	0.1874	0.5302	0.076
Mof_C 	C 	0.4195	0.8296	0.4537	0.069
Mof_C 	C 	0.4984	0.845	0.4816	-0.117
Mof_C 	C 	0.589	0.9318	0.481	0.061
Mof_C 	C 	0.5951	0.9998	0.4553	-0.127
Mof_C 	C 	0.5108	0.9804	0.4296	0.076
Mof_C 	C 	0.6113	0.6934	0.6308	0.072
Mof_C 	C 	0.626	0.7554	0.5999	-0.134
Mof_C 	C 	0.723	0.8204	0.5901	0.059
Mof_C 	C 	0.8013	0.8148	0.6097	-0.137
Mof_C 	C 	0.7806	0.7486	0.6402	0.077
Mof_C 	C 	0.1818	0.5598	0.6691	0.099
Mof_C 	C 	0.227	0.6494	0.7317	0.085
Mof_C 	C 	0.0738	0.6022	0.7005	0.092
Mof_C 	C 	0.3178	0.4786	0.59	0.08
Mof_C 	C 	0.3007	0.5198	0.6264	-0.12
Mof_C 	C 	0.2066	0.5156	0.6318	0.057
Mof_C 	C 	0.1332	0.4656	0.6001	-0.117
Mof_C 	C 	0.1585	0.4288	0.5642	0.071
Mof_C 	C 	0.3609	0.81	0.8293	0.074
Mof_C 	C 	0.2917	0.7668	0.7953	-0.114
Mof_C 	C 	0.2993	0.6986	0.768	0.048
Mof_C 	C 	0.3741	0.6746	0.776	-0.113
Mof_C 	C 	0.4369	0.7172	0.8115	0.059
Mof_C 	C 	0.8482	0.6268	0.7343	0.071
Mof_C 	C 	0.942	0.634	0.7351	-0.128
Mof_C 	C 	0.9702	0.592	0.7019	0.059
Mof_C 	C 	0.9013	0.544	0.6687	-0.118
Mof_C 	C 	0.8085	0.5384	0.6699	0.059
Mof_I 	I 	0.0276	0.6544	0.2673	-0.38
Mof_I 	I 	0.93	0.43294	0.15992	-0.37
Mof_I 	I 	0.6749	0.0144	0.8475	-0.344
Mof_I 	I 	0.5836	0.727	0.91655	-0.349
Mof_I 	I 	0.22149	0.48062	0.94708	-0.379
Mof_I 	I 	0.92615	0.34902	0.01891	-0.396
Mof_I 	I 	0.6268	0.6544	0.7673	-0.382
Mof_I 	I 	0.50294	0.43294	0.65992	-0.37
Mof_I 	I 	0.3395	0.0144	0.3475	-0.346
Mof_I 	I 	0.1434	0.727	0.41655	-0.347
Mof_I 	I 	0.25913	0.48062	0.44708	-0.379
Mof_I 	I 	0.42287	0.34902	0.51891	-0.397
Mof_N 	N 	0.2259	0.8836	0.0376	-0.137
Mof_N 	N 	0.2436	0.0126	0.9972	-0.139
Mof_N 	N 	0.1183	0.954	0.04937	-0.136
Mof_N 	N 	0.1044	0.247	0.0002	-0.263
Mof_N 	N 	0.4703	0.8964	0.9284	-0.275
Mof_N 	N 	0.001	0.6878	0.1504	-0.27
Mof_N 	N 	0.3523	0.603	0.2009	-0.14
Mof_N 	N 	0.5147	0.6544	0.2328	-0.138
Mof_N 	N 	0.4652	0.5576	0.16735	-0.133
Mof_N 	N 	0.185	0.4348	0.0596	-0.266
Mof_N 	N 	0.353	0.7856	0.3374	-0.27
Mof_N 	N 	0.7999	0.581	0.20206	-0.271
Mof_N 	N 	0.6577	0.8836	0.5376	-0.137
Mof_N 	N 	0.769	0.0126	0.4972	-0.138
Mof_N 	N 	0.8357	0.954	0.54937	-0.138
Mof_N 	N 	0.1426	0.247	0.5002	-0.263
Mof_N 	N 	0.4261	0.8964	0.4284	-0.275
Mof_N 	N 	0.6868	0.6878	0.6504	-0.273
Mof_N 	N 	0.2507	0.603	0.7009	-0.14
Mof_N 	N 	0.1397	0.6544	0.7328	-0.138
Mof_N 	N 	0.0924	0.5576	0.66735	-0.133
Mof_N 	N 	0.2498	0.4348	0.5596	-0.266
Mof_N 	N 	0.4326	0.7856	0.8374	-0.27
Mof_N 	N 	0.7811	0.581	0.70206	-0.271
Mof_Zn	Zn	0.35235	0.4138	0.30425	1.164
Mof_Zn	Zn	0.68922	0.14354	0.61647	1.159
Mof_Zn	Zn	0.72144	0.62018	0.49779	1.163
Mof_Zn	Zn	0.06145	0.4138	0.80425	1.163
Mof_Zn	Zn	0.45432	0.14354	0.11647	1.158
Mof_Zn	Zn	0.89874	0.62018	0.99779	1.163
Mof_H 	H 	0.928	0.7318	0.5487	-0.002
Mof_H 	H 	0.0866	0.8568	0.5392	0.077
Mof_H 	H 	0.9749	0.932	0.4406	0.079
Mof_H 	H 	0.8181	0.8012	0.452	-0.011
Mof_H 	H 	0.6412	0.231	0.5471	-0.007
Mof_H 	H 	0.5097	0.2028	0.4996	0.091
Mof_H 	H 	0.3442	0.94	0.5454	0.081
Mof_H 	H 	0.4851	0.9706	0.5875	-0.013
Mof_H 	H 	0.456	0.3478	0.3611	-0.022
Mof_H 	H 	0.4301	0.2466	0.4145	0.088
Mof_H 	H 	0.1308	0.144	0.3976	0.082
Mof_H 	H 	0.1647	0.2532	0.3459	-0.013
Mof_H 	H 	0.6179	0.5178	0.4131	-0.008
Mof_H 	H 	0.6477	0.4492	0.3522	0.077
Mof_H 	H 	0.9333	0.5434	0.397	0.097
Mof_H 	H 	0.8906	0.6018	0.4582	-0.004
Mof_H 	H 	0.6429	0.1412	0.1527	-0.009
Mof_H 	H 	0.7599	0.216	0.209	0.085
Mof_H 	H 	0.6176	0.3706	0.2427	0.078
Mof_H 	H 	0.5148	0.303	0.1823	-0.001
Mof_H 	H 	0.1702	0.3446	0.2425	-0.005
Mof_H 	H 	0.0122	0.3322	0.2417	0.087
Mof_H 	H 	0.0815	0.485	0.3547	0.091
Mof_H 	H 	0.2389	0.4966	0.3527	0
Mof_H 	H 	0.8038	0.7318	0.0487	-0.003
Mof_H 	H 	0.7702	0.8568	0.0392	0.077
Mof_H 	H 	0.9571	0.932	0.9406	0.079
Mof_H 	H 	0.9831	0.8012	0.952	-0.011
Mof_H 	H 	0.5898	0.231	0.0471	-0.007
Mof_H 	H 	0.6931	0.2028	0.9996	0.091
Mof_H 	H 	0.5958	0.94	0.0454	0.079
Mof_H 	H 	0.4855	0.9706	0.0875	-0.013
Mof_H 	H 	0.8918	0.3478	0.8611	-0.021
Mof_H 	H 	0.8165	0.2466	0.9145	0.087
Mof_H 	H 	0.0132	0.144	0.8976	0.077
Mof_H 	H 	0.0885	0.2532	0.8459	-0.01
Mof_H 	H 	0.8999	0.5178	0.9131	-0.008
Mof_H 	H 	0.8015	0.4492	0.8522	0.077
Mof_H 	H 	0.6101	0.5434	0.897	0.097
Mof_H 	H 	0.7112	0.6018	0.9582	-0.004
Mof_H 	H 	0.4983	0.1412	0.6527	-0.009
Mof_H 	H 	0.4561	0.216	0.709	0.085
Mof_H 	H 	0.753	0.3706	0.7427	0.078
Mof_H 	H 	0.7882	0.303	0.6823	-0.001
Mof_H 	H 	0.1744	0.3446	0.7425	-0.006
Mof_H 	H 	0.32	0.3322	0.7417	0.087
Mof_H 	H 	0.4035	0.485	0.8547	0.09
Mof_H 	H 	0.2577	0.4966	0.8527	0
Mof_C 	C 	0.2593	0.1106	0.4425	0.081
Mof_C 	C 	0.3231	0.0564	0.4924	0.088
Mof_C 	C 	0.1532	0.9838	0.4797	0.092
Mof_C 	C 	0.9384	0.772	0.5261	0.054
Mof_C 	C 	0.0326	0.8464	0.5206	-0.108
Mof_C 	C 	0.0509	0.9072	0.4884	0.053
Mof_C 	C 	0.9672	0.8906	0.4625	-0.116
Mof_C 	C 	0.8739	0.8126	0.4698	0.076
Mof_C 	C 	0.5805	0.1704	0.5463	0.069
Mof_C 	C 	0.5016	0.155	0.5184	-0.117
Mof_C 	C 	0.411	0.0682	0.519	0.061
Mof_C 	C 	0.4049	0.0002	0.5447	-0.127
Mof_C 	C 	0.4892	0.0196	0.5704	0.076
Mof_C 	C 	0.3887	0.3066	0.3692	0.072
Mof_C 	C 	0.374	0.2446	0.4001	-0.134
Mof_C 	C 	0.277	0.1796	0.4099	0.059
Mof_C 	C 	0.1987	0.1852	0.3903	-0.137
Mof_C 	C 	0.2194	0.2514	0.3598	0.077
Mof_C 	C 	0.8182	0.4402	0.3309	0.099
Mof_C 	C 	0.773	0.3506	0.2683	0.085
Mof_C 	C 	0.9262	0.3978	0.2995	0.092
Mof_C 	C 	0.6822	0.5214	0.41	0.08
Mof_C 	C 	0.6993	0.4802	0.3736	-0.12
Mof_C 	C 	0.7934	0.4844	0.3682	0.057
Mof_C 	C 	0.8668	0.5344	0.3999	-0.117
Mof_C 	C 	0.8415	0.5712	0.4358	0.071
Mof_C 	C 	0.6391	0.19	0.1707	0.074
Mof_C 	C 	0.7083	0.2332	0.2047	-0.114
Mof_C 	C 	0.7007	0.3014	0.232	0.048
Mof_C 	C 	0.6259	0.3254	0.224	-0.113
Mof_C 	C 	0.5631	0.2828	0.1885	0.059
Mof_C 	C 	0.1518	0.3732	0.2657	0.071
Mof_C 	C 	0.058	0.366	0.2649	-0.128
Mof_C 	C 	0.0298	0.408	0.2981	0.059
Mof_C 	C 	0.0987	0.456	0.3313	-0.118
Mof_C 	C 	0.1915	0.4616	0.3301	0.059
Mof_C 	C 	0.8513	0.1106	0.9425	0.083
Mof_C 	C 	0.7333	0.0564	0.9924	0.09
Mof_C 	C 	0.8306	0.9838	0.9797	0.088
Mof_C 	C 	0.8336	0.772	0.0261	0.056
Mof_C 	C 	0.8138	0.8464	0.0206	-0.11
Mof_C 	C 	0.8563	0.9072	0.9884	0.051
Mof_C 	C 	0.9234	0.8906	0.9625	-0.113
Mof_C 	C 	0.9387	0.8126	0.9698	0.075
Mof_C 	C 	0.5899	0.1704	0.0463	0.068
Mof_C 	C 	0.6534	0.155	0.0184	-0.116
Mof_C 	C 	0.6572	0.0682	0.019	0.06
Mof_C 	C 	0.5953	0.0002	0.0447	-0.123
Mof_C 	C 	0.5304	0.0196	0.0704	0.073
Mof_C 	C 	0.9179	0.3066	0.8692	0.07
Mof_C 	C 	0.8706	0.2446	0.9001	-0.13
Mof_C 	C 	0.9026	0.1796	0.9099	0.054
Mof_C 	C 	0.9865	0.1852	0.8903	-0.126
Mof_C 	C 	0.032	0.2514	0.8598	0.069
Mof_C 	C 	0.622	0.4402	0.8309	0.099
Mof_C 	C 	0.5776	0.3506	0.7683	0.085
Mof_C 	C 	0.4716	0.3978	0.7995	0.093
Mof_C 	C 	0.8392	0.5214	0.91	0.08
Mof_C 	C 	0.7809	0.4802	0.8736	-0.12
Mof_C 	C 	0.691	0.4844	0.8682	0.057
Mof_C 	C 	0.6676	0.5344	0.8999	-0.117
Mof_C 	C 	0.7297	0.5712	0.9358	0.072
Mof_C 	C 	0.5509	0.19	0.6707	0.074
Mof_C 	C 	0.5249	0.2332	0.7047	-0.114
Mof_C 	C 	0.6007	0.3014	0.732	0.048
Mof_C 	C 	0.6995	0.3254	0.724	-0.113
Mof_C 	C 	0.7197	0.2828	0.6885	0.059
Mof_C 	C 	0.2214	0.3732	0.7657	0.07
Mof_C 	C 	0.308	0.366	0.7649	-0.128
Mof_C 	C 	0.3782	0.408	0.7981	0.059
Mof_C 	C 	0.3573	0.456	0.8313	-0.118
Mof_C 	C 	0.2701	0.4616	0.8301	0.059
Mof_I 	I 	0.3732	0.3456	0.2327	-0.382
Mof_I 	I 	0.49706	0.56706	0.34008	-0.37
Mof_I 	I 	0.6605	0.9856	0.6525	-0.346
Mof_I 	I 	0.8566	0.273	0.58345	-0.347
Mof_I 	I 	0.74087	0.51938	0.55292	-0.379
Mof_I 	I 	0.57713	0.65098	0.48109	-0.397
Mof_I 	I 	0.9724	0.3456	0.7327	-0.38
Mof_I 	I 	0.07	0.56706	0.84008	-0.37
Mof_I 	I 	0.3251	0.9856	0.1525	-0.344
Mof_I 	I 	0.4164	0.273	0.08345	-0.349
Mof_I 	I 	0.77851	0.51938	0.05292	-0.379
Mof_I 	I 	0.07385	0.65098	0.98109	-0.396
Mof_N 	N 	0.3423	0.1164	0.4624	-0.137
Mof_N 	N 	0.231	0.9874	0.5028	-0.138
Mof_N 	N 	0.1643	0.046	0.45063	-0.138
Mof_N 	N 	0.8574	0.753	0.4998	-0.263
Mof_N 	N 	0.5739	0.1036	0.5716	-0.275
Mof_N 	N 	0.3132	0.3122	0.3496	-0.273
Mof_N 	N 	0.7493	0.397	0.2991	-0.14
Mof_N 	N 	0.8603	0.3456	0.2672	-0.138
Mof_N 	N 	0.9076	0.4424	0.33265	-0.133
Mof_N 	N 	0.7502	0.5652	0.4404	-0.266
Mof_N 	N 	0.5674	0.2144	0.1626	-0.27
Mof_N 	N 	0.2189	0.419	0.29794	-0.271
Mof_N 	N 	0.7741	0.1164	0.9624	-0.137
Mof_N 	N 	0.7564	0.9874	0.0028	-0.139
Mof_N 	N 	0.8817	0.046	0.95063	-0.136
Mof_N 	N 	0.8956	0.753	0.9998	-0.263
Mof_N 	N 	0.5297	0.1036	0.0716	-0.275
Mof_N 	N 	0.999	0.3122	0.8496	-0.27
Mof_N 	N 	0.6477	0.397	0.7991	-0.14
Mof_N 	N 	0.4853	0.3456	0.7672	-0.138
Mof_N 	N 	0.5348	0.4424	0.83265	-0.133
Mof_N 	N 	0.815	0.5652	0.9404	-0.266
Mof_N 	N 	0.647	0.2144	0.6626	-0.27
Mof_N 	N 	0.2001	0.419	0.79794	-0.271
_end
