data_functionalizedCrystal
_audit_creation_method	'EQeq! by Chris Wilmer'
_symmetry_space_group_name_H-M	'P1'
_symmetry_Int_Tables_number	1
_symmetry_cell_setting	triclinic
loop_
_symmetry_equiv_pos_as_xyz
  x,y,z
_cell_length_a	16.18
_cell_length_b	43.077
_cell_length_c	45.485
_cell_angle_alpha	90
_cell_angle_beta	90
_cell_angle_gamma	90
loop_
_atom_site_label
_atom_site_type_symbol
_atom_site_fract_x
_atom_site_fract_y
_atom_site_fract_z
_atom_site_charge
Mof_Cu	Cu	0.50118	0.42879	0.06245	0.839
Mof_Cu	Cu	0.43155	0.40796	0.98948	0.839
Mof_C 	C 	0.5333	0.49541	0.16348	-0.024
Mof_C 	C 	0.5823	0.47863	0.18251	-0.03
Mof_H 	H 	0.5962	0.4583	0.1778	-0.006
Mof_C 	C 	0.6116	0.49157	0.20858	-0.03
Mof_C 	C 	0.5909	0.52226	0.21518	-0.033
Mof_H 	H 	0.61	0.5313	0.2325	0.024
Mof_C 	C 	0.5421	0.53926	0.19614	-0.022
Mof_C 	C 	0.5118	0.52553	0.1705	-0.039
Mof_H 	H 	0.477	0.5367	0.1581	0.068
Mof_C 	C 	0.3026	0.36899	0.12112	-0.021
Mof_H 	H 	0.254	0.365	0.1109	-0.009
Mof_C 	C 	0.3023	0.36891	0.15178	-0.033
Mof_N 	N 	0.4347	0.49453	0.12222	-0.084
Mof_C 	C 	0.4994	0.48255	0.13639	0.117
Mof_N 	N 	0.5279	0.45872	0.12062	-0.204
Mof_N 	N 	0.48074	0.456	0.09671	-0.178
Mof_N 	N 	0.4231	0.47812	0.09769	-0.054
Mof_N 	N 	0.71463	0.45163	0.22553	-0.201
Mof_N 	N 	0.7425	0.44224	0.25162	-0.176
Mof_N 	N 	0.7057	0.4593	0.27226	-0.055
Mof_N 	N 	0.6551	0.47923	0.25892	-0.087
Mof_C 	C 	0.66062	0.47448	0.23004	0.12
Mof_N 	N 	0.5251	0.61853	0.21847	-0.161
Mof_N 	N 	0.4569	0.61507	0.20313	-0.047
Mof_N 	N 	0.4529	0.58603	0.19246	-0.083
Mof_N 	N 	0.3986	0.3874	0.02872	-0.174
Mof_N 	N 	0.415	0.39574	0.05676	-0.211
Mof_C 	C 	0.22713	0.3639	0.1688	0.118
Mof_N 	N 	0.2183	0.3723	0.19679	-0.085
Mof_N 	N 	0.14379	0.36321	0.20574	-0.055
Mof_N 	N 	0.10657	0.34919	0.18326	-0.163
Mof_N 	N 	0.15806	0.34961	0.16044	-0.206
Mof_C 	C 	0.5208	0.57175	0.20259	0.115
Mof_N 	N 	0.5676	0.59127	0.21874	-0.205
Mof_Cu	Cu	0.50118	0.92879	0.56245	0.838
Mof_Cu	Cu	0.43155	0.90796	0.48948	0.838
Mof_C 	C 	0.5333	0.99541	0.66348	-0.026
Mof_C 	C 	0.5823	0.97863	0.68251	-0.031
Mof_H 	H 	0.5962	0.9583	0.6778	-0.007
Mof_C 	C 	0.6116	0.99157	0.70858	-0.031
Mof_C 	C 	0.5909	0.02226	0.71518	-0.034
Mof_H 	H 	0.61	0.0313	0.7325	0.023
Mof_C 	C 	0.5421	0.03926	0.69614	-0.023
Mof_C 	C 	0.5118	0.02553	0.6705	-0.04
Mof_H 	H 	0.477	0.0367	0.6581	0.067
Mof_C 	C 	0.3026	0.86899	0.62112	-0.022
Mof_H 	H 	0.254	0.865	0.6109	-0.01
Mof_C 	C 	0.3023	0.86891	0.65178	-0.034
Mof_N 	N 	0.4347	0.99453	0.62222	-0.085
Mof_C 	C 	0.4994	0.98255	0.63639	0.116
Mof_N 	N 	0.5279	0.95872	0.62062	-0.205
Mof_N 	N 	0.48074	0.956	0.59671	-0.179
Mof_N 	N 	0.4231	0.97812	0.59769	-0.055
Mof_N 	N 	0.71463	0.95163	0.72553	-0.202
Mof_N 	N 	0.7425	0.94224	0.75162	-0.177
Mof_N 	N 	0.7057	0.9593	0.77226	-0.056
Mof_N 	N 	0.6551	0.97923	0.75892	-0.088
Mof_C 	C 	0.66062	0.97448	0.73004	0.119
Mof_N 	N 	0.5251	0.11853	0.71847	-0.162
Mof_N 	N 	0.4569	0.11507	0.70313	-0.048
Mof_N 	N 	0.4529	0.08603	0.69246	-0.084
Mof_N 	N 	0.3986	0.8874	0.52872	-0.175
Mof_N 	N 	0.415	0.89574	0.55676	-0.211
Mof_C 	C 	0.22713	0.8639	0.6688	0.118
Mof_N 	N 	0.2183	0.8723	0.69679	-0.085
Mof_N 	N 	0.14379	0.86321	0.70574	-0.055
Mof_N 	N 	0.10657	0.84919	0.68326	-0.163
Mof_N 	N 	0.15806	0.84961	0.66044	-0.206
Mof_C 	C 	0.5208	0.07175	0.70259	0.115
Mof_N 	N 	0.5676	0.09127	0.71874	-0.205
Mof_Cu	Cu	0.00118	0.42879	0.56245	0.838
Mof_Cu	Cu	0.93155	0.40796	0.48948	0.838
Mof_C 	C 	0.0333	0.49541	0.66348	-0.026
Mof_C 	C 	0.0823	0.47863	0.68251	-0.031
Mof_H 	H 	0.0962	0.4583	0.6778	-0.007
Mof_C 	C 	0.1116	0.49157	0.70858	-0.031
Mof_C 	C 	0.0909	0.52226	0.71518	-0.034
Mof_H 	H 	0.11	0.5313	0.7325	0.023
Mof_C 	C 	0.0421	0.53926	0.69614	-0.023
Mof_C 	C 	0.0118	0.52553	0.6705	-0.04
Mof_H 	H 	0.977	0.5367	0.6581	0.067
Mof_C 	C 	0.8026	0.36899	0.62112	-0.022
Mof_H 	H 	0.754	0.365	0.6109	-0.01
Mof_C 	C 	0.8023	0.36891	0.65178	-0.034
Mof_N 	N 	0.9347	0.49453	0.62222	-0.085
Mof_C 	C 	0.9994	0.48255	0.63639	0.116
Mof_N 	N 	0.0279	0.45872	0.62062	-0.205
Mof_N 	N 	0.98074	0.456	0.59671	-0.179
Mof_N 	N 	0.9231	0.47812	0.59769	-0.055
Mof_N 	N 	0.21463	0.45163	0.72553	-0.202
Mof_N 	N 	0.2425	0.44224	0.75162	-0.177
Mof_N 	N 	0.2057	0.4593	0.77226	-0.056
Mof_N 	N 	0.1551	0.47923	0.75892	-0.088
Mof_C 	C 	0.16062	0.47448	0.73004	0.119
Mof_N 	N 	0.0251	0.61853	0.71847	-0.162
Mof_N 	N 	0.9569	0.61507	0.70313	-0.048
Mof_N 	N 	0.9529	0.58603	0.69246	-0.084
Mof_N 	N 	0.8986	0.3874	0.52872	-0.175
Mof_N 	N 	0.915	0.39574	0.55676	-0.211
Mof_C 	C 	0.72713	0.3639	0.6688	0.118
Mof_N 	N 	0.7183	0.3723	0.69679	-0.085
Mof_N 	N 	0.64379	0.36321	0.70574	-0.055
Mof_N 	N 	0.60657	0.34919	0.68326	-0.163
Mof_N 	N 	0.65806	0.34961	0.66044	-0.206
Mof_C 	C 	0.0208	0.57175	0.70259	0.115
Mof_N 	N 	0.0676	0.59127	0.71874	-0.205
Mof_Cu	Cu	0.00118	0.92879	0.06245	0.838
Mof_Cu	Cu	0.93155	0.90796	0.98948	0.838
Mof_C 	C 	0.0333	0.99541	0.16348	-0.026
Mof_C 	C 	0.0823	0.97863	0.18251	-0.031
Mof_H 	H 	0.0962	0.9583	0.1778	-0.007
Mof_C 	C 	0.1116	0.99157	0.20858	-0.031
Mof_C 	C 	0.0909	0.02226	0.21518	-0.034
Mof_H 	H 	0.11	0.0313	0.2325	0.023
Mof_C 	C 	0.0421	0.03926	0.19614	-0.023
Mof_C 	C 	0.0118	0.02553	0.1705	-0.04
Mof_H 	H 	0.977	0.0367	0.1581	0.067
Mof_C 	C 	0.8026	0.86899	0.12112	-0.022
Mof_H 	H 	0.754	0.865	0.1109	-0.01
Mof_C 	C 	0.8023	0.86891	0.15178	-0.034
Mof_N 	N 	0.9347	0.99453	0.12222	-0.085
Mof_C 	C 	0.9994	0.98255	0.13639	0.116
Mof_N 	N 	0.0279	0.95872	0.12062	-0.205
Mof_N 	N 	0.98074	0.956	0.09671	-0.179
Mof_N 	N 	0.9231	0.97812	0.09769	-0.055
Mof_N 	N 	0.21463	0.95163	0.22553	-0.202
Mof_N 	N 	0.2425	0.94224	0.25162	-0.177
Mof_N 	N 	0.2057	0.9593	0.27226	-0.056
Mof_N 	N 	0.1551	0.97923	0.25892	-0.088
Mof_C 	C 	0.16062	0.97448	0.23004	0.119
Mof_N 	N 	0.0251	0.11853	0.21847	-0.162
Mof_N 	N 	0.9569	0.11507	0.20313	-0.048
Mof_N 	N 	0.9529	0.08603	0.19246	-0.084
Mof_N 	N 	0.8986	0.8874	0.02872	-0.175
Mof_N 	N 	0.915	0.89574	0.05676	-0.211
Mof_C 	C 	0.72713	0.8639	0.1688	0.118
Mof_N 	N 	0.7183	0.8723	0.19679	-0.085
Mof_N 	N 	0.64379	0.86321	0.20574	-0.055
Mof_N 	N 	0.60657	0.84919	0.18326	-0.163
Mof_N 	N 	0.65806	0.84961	0.16044	-0.206
Mof_C 	C 	0.0208	0.07175	0.20259	0.115
Mof_N 	N 	0.0676	0.09127	0.21874	-0.205
Mof_Cu	Cu	0.24882	0.32121	0.06245	0.838
Mof_Cu	Cu	0.31845	0.34204	0.98948	0.838
Mof_C 	C 	0.2167	0.25459	0.16348	-0.025
Mof_C 	C 	0.1677	0.27137	0.18251	-0.031
Mof_H 	H 	0.1538	0.2917	0.1778	-0.007
Mof_C 	C 	0.1384	0.25843	0.20858	-0.031
Mof_C 	C 	0.1591	0.22774	0.21518	-0.034
Mof_H 	H 	0.14	0.2187	0.2325	0.023
Mof_C 	C 	0.2079	0.21074	0.19614	-0.023
Mof_C 	C 	0.2382	0.22447	0.1705	-0.04
Mof_H 	H 	0.273	0.2133	0.1581	0.067
Mof_C 	C 	0.4474	0.38101	0.12112	-0.022
Mof_H 	H 	0.496	0.385	0.1109	-0.01
Mof_C 	C 	0.4477	0.38109	0.15178	-0.034
Mof_N 	N 	0.3153	0.25547	0.12222	-0.085
Mof_C 	C 	0.2506	0.26745	0.13639	0.116
Mof_N 	N 	0.2221	0.29128	0.12062	-0.205
Mof_N 	N 	0.26926	0.294	0.09671	-0.179
Mof_N 	N 	0.3269	0.27188	0.09769	-0.055
Mof_N 	N 	0.03537	0.29837	0.22553	-0.202
Mof_N 	N 	0.0075	0.30776	0.25162	-0.177
Mof_N 	N 	0.0443	0.2907	0.27226	-0.056
Mof_N 	N 	0.0949	0.27077	0.25892	-0.088
Mof_C 	C 	0.08938	0.27552	0.23004	0.119
Mof_N 	N 	0.2249	0.13147	0.21847	-0.162
Mof_N 	N 	0.2931	0.13493	0.20313	-0.048
Mof_N 	N 	0.2971	0.16397	0.19246	-0.084
Mof_N 	N 	0.3514	0.3626	0.02872	-0.175
Mof_N 	N 	0.335	0.35426	0.05676	-0.211
Mof_C 	C 	0.52287	0.3861	0.1688	0.118
Mof_N 	N 	0.5317	0.3777	0.19679	-0.085
Mof_N 	N 	0.60621	0.38679	0.20574	-0.055
Mof_N 	N 	0.64343	0.40081	0.18326	-0.163
Mof_N 	N 	0.59194	0.40039	0.16044	-0.206
Mof_C 	C 	0.2292	0.17825	0.20259	0.115
Mof_N 	N 	0.1824	0.15873	0.21874	-0.205
Mof_Cu	Cu	0.24882	0.82121	0.56245	0.838
Mof_Cu	Cu	0.31845	0.84204	0.48948	0.838
Mof_C 	C 	0.2167	0.75459	0.66348	-0.025
Mof_C 	C 	0.1677	0.77137	0.68251	-0.031
Mof_H 	H 	0.1538	0.7917	0.6778	-0.007
Mof_C 	C 	0.1384	0.75843	0.70858	-0.031
Mof_C 	C 	0.1591	0.72774	0.71518	-0.034
Mof_H 	H 	0.14	0.7187	0.7325	0.023
Mof_C 	C 	0.2079	0.71074	0.69614	-0.023
Mof_C 	C 	0.2382	0.72447	0.6705	-0.04
Mof_H 	H 	0.273	0.7133	0.6581	0.067
Mof_C 	C 	0.4474	0.88101	0.62112	-0.022
Mof_H 	H 	0.496	0.885	0.6109	-0.01
Mof_C 	C 	0.4477	0.88109	0.65178	-0.034
Mof_N 	N 	0.3153	0.75547	0.62222	-0.085
Mof_C 	C 	0.2506	0.76745	0.63639	0.116
Mof_N 	N 	0.2221	0.79128	0.62062	-0.205
Mof_N 	N 	0.26926	0.794	0.59671	-0.179
Mof_N 	N 	0.3269	0.77188	0.59769	-0.055
Mof_N 	N 	0.03537	0.79837	0.72553	-0.202
Mof_N 	N 	0.0075	0.80776	0.75162	-0.177
Mof_N 	N 	0.0443	0.7907	0.77226	-0.056
Mof_N 	N 	0.0949	0.77077	0.75892	-0.088
Mof_C 	C 	0.08938	0.77552	0.73004	0.119
Mof_N 	N 	0.2249	0.63147	0.71847	-0.162
Mof_N 	N 	0.2931	0.63493	0.70313	-0.048
Mof_N 	N 	0.2971	0.66397	0.69246	-0.084
Mof_N 	N 	0.3514	0.8626	0.52872	-0.175
Mof_N 	N 	0.335	0.85426	0.55676	-0.211
Mof_C 	C 	0.52287	0.8861	0.6688	0.118
Mof_N 	N 	0.5317	0.8777	0.69679	-0.085
Mof_N 	N 	0.60621	0.88679	0.70574	-0.055
Mof_N 	N 	0.64343	0.90081	0.68326	-0.163
Mof_N 	N 	0.59194	0.90039	0.66044	-0.206
Mof_C 	C 	0.2292	0.67825	0.70259	0.115
Mof_N 	N 	0.1824	0.65873	0.71874	-0.205
Mof_Cu	Cu	0.74882	0.32121	0.56245	0.838
Mof_Cu	Cu	0.81845	0.34204	0.48948	0.838
Mof_C 	C 	0.7167	0.25459	0.66348	-0.025
Mof_C 	C 	0.6677	0.27137	0.68251	-0.031
Mof_H 	H 	0.6538	0.2917	0.6778	-0.007
Mof_C 	C 	0.6384	0.25843	0.70858	-0.031
Mof_C 	C 	0.6591	0.22774	0.71518	-0.034
Mof_H 	H 	0.64	0.2187	0.7325	0.023
Mof_C 	C 	0.7079	0.21074	0.69614	-0.023
Mof_C 	C 	0.7382	0.22447	0.6705	-0.04
Mof_H 	H 	0.773	0.2133	0.6581	0.067
Mof_C 	C 	0.9474	0.38101	0.62112	-0.022
Mof_H 	H 	0.996	0.385	0.6109	-0.01
Mof_C 	C 	0.9477	0.38109	0.65178	-0.034
Mof_N 	N 	0.8153	0.25547	0.62222	-0.085
Mof_C 	C 	0.7506	0.26745	0.63639	0.116
Mof_N 	N 	0.7221	0.29128	0.62062	-0.205
Mof_N 	N 	0.76926	0.294	0.59671	-0.179
Mof_N 	N 	0.8269	0.27188	0.59769	-0.055
Mof_N 	N 	0.53537	0.29837	0.72553	-0.202
Mof_N 	N 	0.5075	0.30776	0.75162	-0.177
Mof_N 	N 	0.5443	0.2907	0.77226	-0.056
Mof_N 	N 	0.5949	0.27077	0.75892	-0.088
Mof_C 	C 	0.58938	0.27552	0.73004	0.119
Mof_N 	N 	0.7249	0.13147	0.71847	-0.162
Mof_N 	N 	0.7931	0.13493	0.70313	-0.048
Mof_N 	N 	0.7971	0.16397	0.69246	-0.084
Mof_N 	N 	0.8514	0.3626	0.52872	-0.175
Mof_N 	N 	0.835	0.35426	0.55676	-0.211
Mof_C 	C 	0.02287	0.3861	0.6688	0.118
Mof_N 	N 	0.0317	0.3777	0.69679	-0.085
Mof_N 	N 	0.10621	0.38679	0.70574	-0.055
Mof_N 	N 	0.14343	0.40081	0.68326	-0.163
Mof_N 	N 	0.09194	0.40039	0.66044	-0.206
Mof_C 	C 	0.7292	0.17825	0.70259	0.115
Mof_N 	N 	0.6824	0.15873	0.71874	-0.205
Mof_Cu	Cu	0.74882	0.82121	0.06245	0.838
Mof_Cu	Cu	0.81845	0.84204	0.98948	0.838
Mof_C 	C 	0.7167	0.75459	0.16348	-0.025
Mof_C 	C 	0.6677	0.77137	0.18251	-0.031
Mof_H 	H 	0.6538	0.7917	0.1778	-0.007
Mof_C 	C 	0.6384	0.75843	0.20858	-0.031
Mof_C 	C 	0.6591	0.72774	0.21518	-0.034
Mof_H 	H 	0.64	0.7187	0.2325	0.023
Mof_C 	C 	0.7079	0.71074	0.19614	-0.023
Mof_C 	C 	0.7382	0.72447	0.1705	-0.04
Mof_H 	H 	0.773	0.7133	0.1581	0.067
Mof_C 	C 	0.9474	0.88101	0.12112	-0.022
Mof_H 	H 	0.996	0.885	0.1109	-0.01
Mof_C 	C 	0.9477	0.88109	0.15178	-0.034
Mof_N 	N 	0.8153	0.75547	0.12222	-0.085
Mof_C 	C 	0.7506	0.76745	0.13639	0.116
Mof_N 	N 	0.7221	0.79128	0.12062	-0.205
Mof_N 	N 	0.76926	0.794	0.09671	-0.179
Mof_N 	N 	0.8269	0.77188	0.09769	-0.055
Mof_N 	N 	0.53537	0.79837	0.22553	-0.202
Mof_N 	N 	0.5075	0.80776	0.25162	-0.177
Mof_N 	N 	0.5443	0.7907	0.27226	-0.056
Mof_N 	N 	0.5949	0.77077	0.25892	-0.088
Mof_C 	C 	0.58938	0.77552	0.23004	0.119
Mof_N 	N 	0.7249	0.63147	0.21847	-0.162
Mof_N 	N 	0.7931	0.63493	0.20313	-0.048
Mof_N 	N 	0.7971	0.66397	0.19246	-0.084
Mof_N 	N 	0.8514	0.8626	0.02872	-0.175
Mof_N 	N 	0.835	0.85426	0.05676	-0.211
Mof_C 	C 	0.02287	0.8861	0.1688	0.118
Mof_N 	N 	0.0317	0.8777	0.19679	-0.085
Mof_N 	N 	0.10621	0.88679	0.20574	-0.055
Mof_N 	N 	0.14343	0.90081	0.18326	-0.163
Mof_N 	N 	0.09194	0.90039	0.16044	-0.206
Mof_C 	C 	0.7292	0.67825	0.20259	0.115
Mof_N 	N 	0.6824	0.65873	0.21874	-0.205
Mof_Cu	Cu	0.24882	0.42879	0.68755	0.838
Mof_Cu	Cu	0.31845	0.40796	0.76052	0.838
Mof_C 	C 	0.2167	0.49541	0.58652	-0.025
Mof_C 	C 	0.1677	0.47863	0.56749	-0.031
Mof_H 	H 	0.1538	0.4583	0.5722	-0.007
Mof_C 	C 	0.1384	0.49157	0.54142	-0.031
Mof_C 	C 	0.1591	0.52226	0.53482	-0.034
Mof_H 	H 	0.14	0.5313	0.5175	0.023
Mof_C 	C 	0.2079	0.53926	0.55386	-0.023
Mof_C 	C 	0.2382	0.52553	0.5795	-0.04
Mof_H 	H 	0.273	0.5367	0.5919	0.067
Mof_C 	C 	0.4474	0.36899	0.62888	-0.022
Mof_H 	H 	0.496	0.365	0.6391	-0.01
Mof_C 	C 	0.4477	0.36891	0.59822	-0.034
Mof_N 	N 	0.3153	0.49453	0.62778	-0.085
Mof_C 	C 	0.2506	0.48255	0.61361	0.116
Mof_N 	N 	0.2221	0.45872	0.62938	-0.205
Mof_N 	N 	0.26926	0.456	0.65329	-0.179
Mof_N 	N 	0.3269	0.47812	0.65231	-0.055
Mof_N 	N 	0.03537	0.45163	0.52447	-0.202
Mof_N 	N 	0.0075	0.44224	0.49838	-0.177
Mof_N 	N 	0.0443	0.4593	0.47774	-0.056
Mof_N 	N 	0.0949	0.47923	0.49108	-0.088
Mof_C 	C 	0.08938	0.47448	0.51996	0.119
Mof_N 	N 	0.2249	0.61853	0.53153	-0.162
Mof_N 	N 	0.2931	0.61507	0.54687	-0.048
Mof_N 	N 	0.2971	0.58603	0.55754	-0.084
Mof_N 	N 	0.3514	0.3874	0.72128	-0.175
Mof_N 	N 	0.335	0.39574	0.69324	-0.211
Mof_C 	C 	0.52287	0.3639	0.5812	0.118
Mof_N 	N 	0.5317	0.3723	0.55321	-0.085
Mof_N 	N 	0.60621	0.36321	0.54426	-0.055
Mof_N 	N 	0.64343	0.34919	0.56674	-0.163
Mof_N 	N 	0.59194	0.34961	0.58956	-0.206
Mof_C 	C 	0.2292	0.57175	0.54741	0.115
Mof_N 	N 	0.1824	0.59127	0.53126	-0.205
Mof_Cu	Cu	0.24882	0.92879	0.18755	0.838
Mof_Cu	Cu	0.31845	0.90796	0.26052	0.838
Mof_C 	C 	0.2167	0.99541	0.08652	-0.026
Mof_C 	C 	0.1677	0.97863	0.06749	-0.031
Mof_H 	H 	0.1538	0.9583	0.0722	-0.007
Mof_C 	C 	0.1384	0.99157	0.04142	-0.031
Mof_C 	C 	0.1591	0.02226	0.03482	-0.034
Mof_H 	H 	0.14	0.0313	0.0175	0.023
Mof_C 	C 	0.2079	0.03926	0.05386	-0.023
Mof_C 	C 	0.2382	0.02553	0.0795	-0.04
Mof_H 	H 	0.273	0.0367	0.0919	0.067
Mof_C 	C 	0.4474	0.86899	0.12888	-0.022
Mof_H 	H 	0.496	0.865	0.1391	-0.01
Mof_C 	C 	0.4477	0.86891	0.09822	-0.034
Mof_N 	N 	0.3153	0.99453	0.12778	-0.085
Mof_C 	C 	0.2506	0.98255	0.11361	0.116
Mof_N 	N 	0.2221	0.95872	0.12938	-0.205
Mof_N 	N 	0.26926	0.956	0.15329	-0.179
Mof_N 	N 	0.3269	0.97812	0.15231	-0.055
Mof_N 	N 	0.03537	0.95163	0.02447	-0.202
Mof_N 	N 	0.0075	0.94224	0.99838	-0.177
Mof_N 	N 	0.0443	0.9593	0.97774	-0.056
Mof_N 	N 	0.0949	0.97923	0.99108	-0.088
Mof_C 	C 	0.08938	0.97448	0.01996	0.119
Mof_N 	N 	0.2249	0.11853	0.03153	-0.162
Mof_N 	N 	0.2931	0.11507	0.04687	-0.048
Mof_N 	N 	0.2971	0.08603	0.05754	-0.084
Mof_N 	N 	0.3514	0.8874	0.22128	-0.175
Mof_N 	N 	0.335	0.89574	0.19324	-0.211
Mof_C 	C 	0.52287	0.8639	0.0812	0.118
Mof_N 	N 	0.5317	0.8723	0.05321	-0.085
Mof_N 	N 	0.60621	0.86321	0.04426	-0.055
Mof_N 	N 	0.64343	0.84919	0.06674	-0.163
Mof_N 	N 	0.59194	0.84961	0.08956	-0.206
Mof_C 	C 	0.2292	0.07175	0.04741	0.115
Mof_N 	N 	0.1824	0.09127	0.03126	-0.205
Mof_Cu	Cu	0.74882	0.42879	0.18755	0.838
Mof_Cu	Cu	0.81845	0.40796	0.26052	0.838
Mof_C 	C 	0.7167	0.49541	0.08652	-0.025
Mof_C 	C 	0.6677	0.47863	0.06749	-0.031
Mof_H 	H 	0.6538	0.4583	0.0722	-0.007
Mof_C 	C 	0.6384	0.49157	0.04142	-0.031
Mof_C 	C 	0.6591	0.52226	0.03482	-0.034
Mof_H 	H 	0.64	0.5313	0.0175	0.023
Mof_C 	C 	0.7079	0.53926	0.05386	-0.023
Mof_C 	C 	0.7382	0.52553	0.0795	-0.04
Mof_H 	H 	0.773	0.5367	0.0919	0.067
Mof_C 	C 	0.9474	0.36899	0.12888	-0.022
Mof_H 	H 	0.996	0.365	0.1391	-0.01
Mof_C 	C 	0.9477	0.36891	0.09822	-0.034
Mof_N 	N 	0.8153	0.49453	0.12778	-0.085
Mof_C 	C 	0.7506	0.48255	0.11361	0.116
Mof_N 	N 	0.7221	0.45872	0.12938	-0.205
Mof_N 	N 	0.76926	0.456	0.15329	-0.179
Mof_N 	N 	0.8269	0.47812	0.15231	-0.055
Mof_N 	N 	0.53537	0.45163	0.02447	-0.202
Mof_N 	N 	0.5075	0.44224	0.99838	-0.177
Mof_N 	N 	0.5443	0.4593	0.97774	-0.056
Mof_N 	N 	0.5949	0.47923	0.99108	-0.088
Mof_C 	C 	0.58938	0.47448	0.01996	0.119
Mof_N 	N 	0.7249	0.61853	0.03153	-0.162
Mof_N 	N 	0.7931	0.61507	0.04687	-0.048
Mof_N 	N 	0.7971	0.58603	0.05754	-0.084
Mof_N 	N 	0.8514	0.3874	0.22128	-0.175
Mof_N 	N 	0.835	0.39574	0.19324	-0.211
Mof_C 	C 	0.02287	0.3639	0.0812	0.118
Mof_N 	N 	0.0317	0.3723	0.05321	-0.085
Mof_N 	N 	0.10621	0.36321	0.04426	-0.055
Mof_N 	N 	0.14343	0.34919	0.06674	-0.163
Mof_N 	N 	0.09194	0.34961	0.08956	-0.206
Mof_C 	C 	0.7292	0.57175	0.04741	0.115
Mof_N 	N 	0.6824	0.59127	0.03126	-0.205
Mof_Cu	Cu	0.74882	0.92879	0.68755	0.838
Mof_Cu	Cu	0.81845	0.90796	0.76052	0.838
Mof_C 	C 	0.7167	0.99541	0.58652	-0.025
Mof_C 	C 	0.6677	0.97863	0.56749	-0.031
Mof_H 	H 	0.6538	0.9583	0.5722	-0.007
Mof_C 	C 	0.6384	0.99157	0.54142	-0.031
Mof_C 	C 	0.6591	0.02226	0.53482	-0.034
Mof_H 	H 	0.64	0.0313	0.5175	0.023
Mof_C 	C 	0.7079	0.03926	0.55386	-0.023
Mof_C 	C 	0.7382	0.02553	0.5795	-0.04
Mof_H 	H 	0.773	0.0367	0.5919	0.067
Mof_C 	C 	0.9474	0.86899	0.62888	-0.022
Mof_H 	H 	0.996	0.865	0.6391	-0.01
Mof_C 	C 	0.9477	0.86891	0.59822	-0.034
Mof_N 	N 	0.8153	0.99453	0.62778	-0.085
Mof_C 	C 	0.7506	0.98255	0.61361	0.116
Mof_N 	N 	0.7221	0.95872	0.62938	-0.205
Mof_N 	N 	0.76926	0.956	0.65329	-0.179
Mof_N 	N 	0.8269	0.97812	0.65231	-0.055
Mof_N 	N 	0.53537	0.95163	0.52447	-0.202
Mof_N 	N 	0.5075	0.94224	0.49838	-0.177
Mof_N 	N 	0.5443	0.9593	0.47774	-0.056
Mof_N 	N 	0.5949	0.97923	0.49108	-0.088
Mof_C 	C 	0.58938	0.97448	0.51996	0.119
Mof_N 	N 	0.7249	0.11853	0.53153	-0.162
Mof_N 	N 	0.7931	0.11507	0.54687	-0.048
Mof_N 	N 	0.7971	0.08603	0.55754	-0.084
Mof_N 	N 	0.8514	0.8874	0.72128	-0.175
Mof_N 	N 	0.835	0.89574	0.69324	-0.211
Mof_C 	C 	0.02287	0.8639	0.5812	0.118
Mof_N 	N 	0.0317	0.8723	0.55321	-0.085
Mof_N 	N 	0.10621	0.86321	0.54426	-0.055
Mof_N 	N 	0.14343	0.84919	0.56674	-0.163
Mof_N 	N 	0.09194	0.84961	0.58956	-0.206
Mof_C 	C 	0.7292	0.07175	0.54741	0.115
Mof_N 	N 	0.6824	0.09127	0.53126	-0.205
Mof_Cu	Cu	0.50118	0.32121	0.68755	0.838
Mof_Cu	Cu	0.43155	0.34204	0.76052	0.838
Mof_C 	C 	0.5333	0.25459	0.58652	-0.025
Mof_C 	C 	0.5823	0.27137	0.56749	-0.031
Mof_H 	H 	0.5962	0.2917	0.5722	-0.007
Mof_C 	C 	0.6116	0.25843	0.54142	-0.031
Mof_C 	C 	0.5909	0.22774	0.53482	-0.034
Mof_H 	H 	0.61	0.2187	0.5175	0.023
Mof_C 	C 	0.5421	0.21074	0.55386	-0.023
Mof_C 	C 	0.5118	0.22447	0.5795	-0.04
Mof_H 	H 	0.477	0.2133	0.5919	0.067
Mof_C 	C 	0.3026	0.38101	0.62888	-0.022
Mof_H 	H 	0.254	0.385	0.6391	-0.01
Mof_C 	C 	0.3023	0.38109	0.59822	-0.034
Mof_N 	N 	0.4347	0.25547	0.62778	-0.085
Mof_C 	C 	0.4994	0.26745	0.61361	0.116
Mof_N 	N 	0.5279	0.29128	0.62938	-0.205
Mof_N 	N 	0.48074	0.294	0.65329	-0.179
Mof_N 	N 	0.4231	0.27188	0.65231	-0.055
Mof_N 	N 	0.71463	0.29837	0.52447	-0.202
Mof_N 	N 	0.7425	0.30776	0.49838	-0.177
Mof_N 	N 	0.7057	0.2907	0.47774	-0.056
Mof_N 	N 	0.6551	0.27077	0.49108	-0.088
Mof_C 	C 	0.66062	0.27552	0.51996	0.119
Mof_N 	N 	0.5251	0.13147	0.53153	-0.162
Mof_N 	N 	0.4569	0.13493	0.54687	-0.048
Mof_N 	N 	0.4529	0.16397	0.55754	-0.084
Mof_N 	N 	0.3986	0.3626	0.72128	-0.175
Mof_N 	N 	0.415	0.35426	0.69324	-0.211
Mof_C 	C 	0.22713	0.3861	0.5812	0.118
Mof_N 	N 	0.2183	0.3777	0.55321	-0.085
Mof_N 	N 	0.14379	0.38679	0.54426	-0.055
Mof_N 	N 	0.10657	0.40081	0.56674	-0.163
Mof_N 	N 	0.15806	0.40039	0.58956	-0.206
Mof_C 	C 	0.5208	0.17825	0.54741	0.115
Mof_N 	N 	0.5676	0.15873	0.53126	-0.205
Mof_Cu	Cu	0.50118	0.82121	0.18755	0.838
Mof_Cu	Cu	0.43155	0.84204	0.26052	0.838
Mof_C 	C 	0.5333	0.75459	0.08652	-0.025
Mof_C 	C 	0.5823	0.77137	0.06749	-0.031
Mof_H 	H 	0.5962	0.7917	0.0722	-0.007
Mof_C 	C 	0.6116	0.75843	0.04142	-0.031
Mof_C 	C 	0.5909	0.72774	0.03482	-0.034
Mof_H 	H 	0.61	0.7187	0.0175	0.023
Mof_C 	C 	0.5421	0.71074	0.05386	-0.023
Mof_C 	C 	0.5118	0.72447	0.0795	-0.04
Mof_H 	H 	0.477	0.7133	0.0919	0.067
Mof_C 	C 	0.3026	0.88101	0.12888	-0.022
Mof_H 	H 	0.254	0.885	0.1391	-0.01
Mof_C 	C 	0.3023	0.88109	0.09822	-0.034
Mof_N 	N 	0.4347	0.75547	0.12778	-0.085
Mof_C 	C 	0.4994	0.76745	0.11361	0.116
Mof_N 	N 	0.5279	0.79128	0.12938	-0.205
Mof_N 	N 	0.48074	0.794	0.15329	-0.179
Mof_N 	N 	0.4231	0.77188	0.15231	-0.055
Mof_N 	N 	0.71463	0.79837	0.02447	-0.202
Mof_N 	N 	0.7425	0.80776	0.99838	-0.177
Mof_N 	N 	0.7057	0.7907	0.97774	-0.056
Mof_N 	N 	0.6551	0.77077	0.99108	-0.088
Mof_C 	C 	0.66062	0.77552	0.01996	0.119
Mof_N 	N 	0.5251	0.63147	0.03153	-0.162
Mof_N 	N 	0.4569	0.63493	0.04687	-0.048
Mof_N 	N 	0.4529	0.66397	0.05754	-0.084
Mof_N 	N 	0.3986	0.8626	0.22128	-0.175
Mof_N 	N 	0.415	0.85426	0.19324	-0.211
Mof_C 	C 	0.22713	0.8861	0.0812	0.118
Mof_N 	N 	0.2183	0.8777	0.05321	-0.085
Mof_N 	N 	0.14379	0.88679	0.04426	-0.055
Mof_N 	N 	0.10657	0.90081	0.06674	-0.163
Mof_N 	N 	0.15806	0.90039	0.08956	-0.206
Mof_C 	C 	0.5208	0.67825	0.04741	0.115
Mof_N 	N 	0.5676	0.65873	0.03126	-0.205
Mof_Cu	Cu	0.00118	0.32121	0.18755	0.838
Mof_Cu	Cu	0.93155	0.34204	0.26052	0.838
Mof_C 	C 	0.0333	0.25459	0.08652	-0.026
Mof_C 	C 	0.0823	0.27137	0.06749	-0.031
Mof_H 	H 	0.0962	0.2917	0.0722	-0.007
Mof_C 	C 	0.1116	0.25843	0.04142	-0.031
Mof_C 	C 	0.0909	0.22774	0.03482	-0.034
Mof_H 	H 	0.11	0.2187	0.0175	0.023
Mof_C 	C 	0.0421	0.21074	0.05386	-0.023
Mof_C 	C 	0.0118	0.22447	0.0795	-0.04
Mof_H 	H 	0.977	0.2133	0.0919	0.067
Mof_C 	C 	0.8026	0.38101	0.12888	-0.022
Mof_H 	H 	0.754	0.385	0.1391	-0.01
Mof_C 	C 	0.8023	0.38109	0.09822	-0.034
Mof_N 	N 	0.9347	0.25547	0.12778	-0.085
Mof_C 	C 	0.9994	0.26745	0.11361	0.116
Mof_N 	N 	0.0279	0.29128	0.12938	-0.205
Mof_N 	N 	0.98074	0.294	0.15329	-0.179
Mof_N 	N 	0.9231	0.27188	0.15231	-0.055
Mof_N 	N 	0.21463	0.29837	0.02447	-0.202
Mof_N 	N 	0.2425	0.30776	0.99838	-0.177
Mof_N 	N 	0.2057	0.2907	0.97774	-0.056
Mof_N 	N 	0.1551	0.27077	0.99108	-0.088
Mof_C 	C 	0.16062	0.27552	0.01996	0.119
Mof_N 	N 	0.0251	0.13147	0.03153	-0.162
Mof_N 	N 	0.9569	0.13493	0.04687	-0.048
Mof_N 	N 	0.9529	0.16397	0.05754	-0.084
Mof_N 	N 	0.8986	0.3626	0.22128	-0.175
Mof_N 	N 	0.915	0.35426	0.19324	-0.211
Mof_C 	C 	0.72713	0.3861	0.0812	0.118
Mof_N 	N 	0.7183	0.3777	0.05321	-0.085
Mof_N 	N 	0.64379	0.38679	0.04426	-0.055
Mof_N 	N 	0.60657	0.40081	0.06674	-0.163
Mof_N 	N 	0.65806	0.40039	0.08956	-0.206
Mof_C 	C 	0.0208	0.17825	0.04741	0.115
Mof_N 	N 	0.0676	0.15873	0.03126	-0.205
Mof_Cu	Cu	0.00118	0.82121	0.68755	0.838
Mof_Cu	Cu	0.93155	0.84204	0.76052	0.838
Mof_C 	C 	0.0333	0.75459	0.58652	-0.026
Mof_C 	C 	0.0823	0.77137	0.56749	-0.031
Mof_H 	H 	0.0962	0.7917	0.5722	-0.007
Mof_C 	C 	0.1116	0.75843	0.54142	-0.031
Mof_C 	C 	0.0909	0.72774	0.53482	-0.034
Mof_H 	H 	0.11	0.7187	0.5175	0.023
Mof_C 	C 	0.0421	0.71074	0.55386	-0.023
Mof_C 	C 	0.0118	0.72447	0.5795	-0.04
Mof_H 	H 	0.977	0.7133	0.5919	0.067
Mof_C 	C 	0.8026	0.88101	0.62888	-0.022
Mof_H 	H 	0.754	0.885	0.6391	-0.01
Mof_C 	C 	0.8023	0.88109	0.59822	-0.034
Mof_N 	N 	0.9347	0.75547	0.62778	-0.085
Mof_C 	C 	0.9994	0.76745	0.61361	0.116
Mof_N 	N 	0.0279	0.79128	0.62938	-0.205
Mof_N 	N 	0.98074	0.794	0.65329	-0.179
Mof_N 	N 	0.9231	0.77188	0.65231	-0.055
Mof_N 	N 	0.21463	0.79837	0.52447	-0.202
Mof_N 	N 	0.2425	0.80776	0.49838	-0.177
Mof_N 	N 	0.2057	0.7907	0.47774	-0.056
Mof_N 	N 	0.1551	0.77077	0.49108	-0.088
Mof_C 	C 	0.16062	0.77552	0.51996	0.119
Mof_N 	N 	0.0251	0.63147	0.53153	-0.162
Mof_N 	N 	0.9569	0.63493	0.54687	-0.048
Mof_N 	N 	0.9529	0.66397	0.55754	-0.084
Mof_N 	N 	0.8986	0.8626	0.72128	-0.175
Mof_N 	N 	0.915	0.85426	0.69324	-0.211
Mof_C 	C 	0.72713	0.8861	0.5812	0.118
Mof_N 	N 	0.7183	0.8777	0.55321	-0.085
Mof_N 	N 	0.64379	0.88679	0.54426	-0.055
Mof_N 	N 	0.60657	0.90081	0.56674	-0.163
Mof_N 	N 	0.65806	0.90039	0.58956	-0.206
Mof_C 	C 	0.0208	0.67825	0.54741	0.115
Mof_N 	N 	0.0676	0.65873	0.53126	-0.205
Mof_Cu	Cu	0.49882	0.57121	0.93755	0.838
Mof_Cu	Cu	0.56845	0.59204	0.01052	0.838
Mof_C 	C 	0.4667	0.50459	0.83652	-0.025
Mof_C 	C 	0.4177	0.52137	0.81749	-0.031
Mof_H 	H 	0.4038	0.5417	0.8222	-0.007
Mof_C 	C 	0.3884	0.50843	0.79142	-0.031
Mof_C 	C 	0.4091	0.47774	0.78482	-0.034
Mof_H 	H 	0.39	0.4687	0.7675	0.023
Mof_C 	C 	0.4579	0.46074	0.80386	-0.023
Mof_C 	C 	0.4882	0.47447	0.8295	-0.04
Mof_H 	H 	0.523	0.4633	0.8419	0.067
Mof_C 	C 	0.6974	0.63101	0.87888	-0.022
Mof_H 	H 	0.746	0.635	0.8891	-0.01
Mof_C 	C 	0.6977	0.63109	0.84822	-0.034
Mof_N 	N 	0.5653	0.50547	0.87778	-0.085
Mof_C 	C 	0.5006	0.51745	0.86361	0.116
Mof_N 	N 	0.4721	0.54128	0.87938	-0.205
Mof_N 	N 	0.51926	0.544	0.90329	-0.179
Mof_N 	N 	0.5769	0.52188	0.90231	-0.055
Mof_N 	N 	0.28537	0.54837	0.77447	-0.202
Mof_N 	N 	0.2575	0.55776	0.74838	-0.177
Mof_N 	N 	0.2943	0.5407	0.72774	-0.056
Mof_N 	N 	0.3449	0.52077	0.74108	-0.088
Mof_C 	C 	0.33938	0.52552	0.76996	0.119
Mof_N 	N 	0.4749	0.38147	0.78153	-0.162
Mof_N 	N 	0.5431	0.38493	0.79687	-0.048
Mof_N 	N 	0.5471	0.41397	0.80754	-0.084
Mof_N 	N 	0.6014	0.6126	0.97128	-0.175
Mof_N 	N 	0.585	0.60426	0.94324	-0.211
Mof_C 	C 	0.77287	0.6361	0.8312	0.118
Mof_N 	N 	0.7817	0.6277	0.80321	-0.085
Mof_N 	N 	0.85621	0.63679	0.79426	-0.055
Mof_N 	N 	0.89343	0.65081	0.81674	-0.163
Mof_N 	N 	0.84194	0.65039	0.83956	-0.206
Mof_C 	C 	0.4792	0.42825	0.79741	0.115
Mof_N 	N 	0.4324	0.40873	0.78126	-0.205
Mof_Cu	Cu	0.49882	0.07121	0.43755	0.838
Mof_Cu	Cu	0.56845	0.09204	0.51052	0.838
Mof_C 	C 	0.4667	0.00459	0.33652	-0.026
Mof_C 	C 	0.4177	0.02137	0.31749	-0.031
Mof_H 	H 	0.4038	0.0417	0.3222	-0.007
Mof_C 	C 	0.3884	0.00843	0.29142	-0.031
Mof_C 	C 	0.4091	0.97774	0.28482	-0.034
Mof_H 	H 	0.39	0.9687	0.2675	0.023
Mof_C 	C 	0.4579	0.96074	0.30386	-0.023
Mof_C 	C 	0.4882	0.97447	0.3295	-0.04
Mof_H 	H 	0.523	0.9633	0.3419	0.067
Mof_C 	C 	0.6974	0.13101	0.37888	-0.022
Mof_H 	H 	0.746	0.135	0.3891	-0.01
Mof_C 	C 	0.6977	0.13109	0.34822	-0.034
Mof_N 	N 	0.5653	0.00547	0.37778	-0.085
Mof_C 	C 	0.5006	0.01745	0.36361	0.116
Mof_N 	N 	0.4721	0.04128	0.37938	-0.205
Mof_N 	N 	0.51926	0.044	0.40329	-0.179
Mof_N 	N 	0.5769	0.02188	0.40231	-0.055
Mof_N 	N 	0.28537	0.04837	0.27447	-0.202
Mof_N 	N 	0.2575	0.05776	0.24838	-0.177
Mof_N 	N 	0.2943	0.0407	0.22774	-0.056
Mof_N 	N 	0.3449	0.02077	0.24108	-0.088
Mof_C 	C 	0.33938	0.02552	0.26996	0.119
Mof_N 	N 	0.4749	0.88147	0.28153	-0.162
Mof_N 	N 	0.5431	0.88493	0.29687	-0.048
Mof_N 	N 	0.5471	0.91397	0.30754	-0.084
Mof_N 	N 	0.6014	0.1126	0.47128	-0.175
Mof_N 	N 	0.585	0.10426	0.44324	-0.211
Mof_C 	C 	0.77287	0.1361	0.3312	0.118
Mof_N 	N 	0.7817	0.1277	0.30321	-0.085
Mof_N 	N 	0.85621	0.13679	0.29426	-0.055
Mof_N 	N 	0.89343	0.15081	0.31674	-0.163
Mof_N 	N 	0.84194	0.15039	0.33956	-0.206
Mof_C 	C 	0.4792	0.92825	0.29741	0.115
Mof_N 	N 	0.4324	0.90873	0.28126	-0.205
Mof_Cu	Cu	0.99882	0.57121	0.43755	0.838
Mof_Cu	Cu	0.06845	0.59204	0.51052	0.838
Mof_C 	C 	0.9667	0.50459	0.33652	-0.026
Mof_C 	C 	0.9177	0.52137	0.31749	-0.031
Mof_H 	H 	0.9038	0.5417	0.3222	-0.007
Mof_C 	C 	0.8884	0.50843	0.29142	-0.031
Mof_C 	C 	0.9091	0.47774	0.28482	-0.034
Mof_H 	H 	0.89	0.4687	0.2675	0.023
Mof_C 	C 	0.9579	0.46074	0.30386	-0.023
Mof_C 	C 	0.9882	0.47447	0.3295	-0.04
Mof_H 	H 	0.023	0.4633	0.3419	0.067
Mof_C 	C 	0.1974	0.63101	0.37888	-0.022
Mof_H 	H 	0.246	0.635	0.3891	-0.01
Mof_C 	C 	0.1977	0.63109	0.34822	-0.034
Mof_N 	N 	0.0653	0.50547	0.37778	-0.085
Mof_C 	C 	0.0006	0.51745	0.36361	0.116
Mof_N 	N 	0.9721	0.54128	0.37938	-0.205
Mof_N 	N 	0.01926	0.544	0.40329	-0.179
Mof_N 	N 	0.0769	0.52188	0.40231	-0.055
Mof_N 	N 	0.78537	0.54837	0.27447	-0.202
Mof_N 	N 	0.7575	0.55776	0.24838	-0.177
Mof_N 	N 	0.7943	0.5407	0.22774	-0.056
Mof_N 	N 	0.8449	0.52077	0.24108	-0.088
Mof_C 	C 	0.83938	0.52552	0.26996	0.119
Mof_N 	N 	0.9749	0.38147	0.28153	-0.162
Mof_N 	N 	0.0431	0.38493	0.29687	-0.048
Mof_N 	N 	0.0471	0.41397	0.30754	-0.084
Mof_N 	N 	0.1014	0.6126	0.47128	-0.175
Mof_N 	N 	0.085	0.60426	0.44324	-0.211
Mof_C 	C 	0.27287	0.6361	0.3312	0.118
Mof_N 	N 	0.2817	0.6277	0.30321	-0.085
Mof_N 	N 	0.35621	0.63679	0.29426	-0.055
Mof_N 	N 	0.39343	0.65081	0.31674	-0.163
Mof_N 	N 	0.34194	0.65039	0.33956	-0.206
Mof_C 	C 	0.9792	0.42825	0.29741	0.115
Mof_N 	N 	0.9324	0.40873	0.28126	-0.205
Mof_Cu	Cu	0.99882	0.07121	0.93755	0.838
Mof_Cu	Cu	0.06845	0.09204	0.01052	0.838
Mof_C 	C 	0.9667	0.00459	0.83652	-0.026
Mof_C 	C 	0.9177	0.02137	0.81749	-0.031
Mof_H 	H 	0.9038	0.0417	0.8222	-0.007
Mof_C 	C 	0.8884	0.00843	0.79142	-0.031
Mof_C 	C 	0.9091	0.97774	0.78482	-0.034
Mof_H 	H 	0.89	0.9687	0.7675	0.023
Mof_C 	C 	0.9579	0.96074	0.80386	-0.023
Mof_C 	C 	0.9882	0.97447	0.8295	-0.04
Mof_H 	H 	0.023	0.9633	0.8419	0.067
Mof_C 	C 	0.1974	0.13101	0.87888	-0.022
Mof_H 	H 	0.246	0.135	0.8891	-0.01
Mof_C 	C 	0.1977	0.13109	0.84822	-0.034
Mof_N 	N 	0.0653	0.00547	0.87778	-0.085
Mof_C 	C 	0.0006	0.01745	0.86361	0.116
Mof_N 	N 	0.9721	0.04128	0.87938	-0.205
Mof_N 	N 	0.01926	0.044	0.90329	-0.179
Mof_N 	N 	0.0769	0.02188	0.90231	-0.055
Mof_N 	N 	0.78537	0.04837	0.77447	-0.202
Mof_N 	N 	0.7575	0.05776	0.74838	-0.177
Mof_N 	N 	0.7943	0.0407	0.72774	-0.056
Mof_N 	N 	0.8449	0.02077	0.74108	-0.088
Mof_C 	C 	0.83938	0.02552	0.76996	0.119
Mof_N 	N 	0.9749	0.88147	0.78153	-0.162
Mof_N 	N 	0.0431	0.88493	0.79687	-0.048
Mof_N 	N 	0.0471	0.91397	0.80754	-0.084
Mof_N 	N 	0.1014	0.1126	0.97128	-0.175
Mof_N 	N 	0.085	0.10426	0.94324	-0.211
Mof_C 	C 	0.27287	0.1361	0.8312	0.118
Mof_N 	N 	0.2817	0.1277	0.80321	-0.085
Mof_N 	N 	0.35621	0.13679	0.79426	-0.055
Mof_N 	N 	0.39343	0.15081	0.81674	-0.163
Mof_N 	N 	0.34194	0.15039	0.83956	-0.206
Mof_C 	C 	0.9792	0.92825	0.79741	0.115
Mof_N 	N 	0.9324	0.90873	0.78126	-0.205
Mof_Cu	Cu	0.75118	0.67879	0.93755	0.838
Mof_Cu	Cu	0.68155	0.65796	0.01052	0.838
Mof_C 	C 	0.7833	0.74541	0.83652	-0.025
Mof_C 	C 	0.8323	0.72863	0.81749	-0.031
Mof_H 	H 	0.8462	0.7083	0.8222	-0.007
Mof_C 	C 	0.8616	0.74157	0.79142	-0.031
Mof_C 	C 	0.8409	0.77226	0.78482	-0.034
Mof_H 	H 	0.86	0.7813	0.7675	0.023
Mof_C 	C 	0.7921	0.78926	0.80386	-0.023
Mof_C 	C 	0.7618	0.77553	0.8295	-0.04
Mof_H 	H 	0.727	0.7867	0.8419	0.067
Mof_C 	C 	0.5526	0.61899	0.87888	-0.022
Mof_H 	H 	0.504	0.615	0.8891	-0.01
Mof_C 	C 	0.5523	0.61891	0.84822	-0.034
Mof_N 	N 	0.6847	0.74453	0.87778	-0.085
Mof_C 	C 	0.7494	0.73255	0.86361	0.116
Mof_N 	N 	0.7779	0.70872	0.87938	-0.205
Mof_N 	N 	0.73074	0.706	0.90329	-0.179
Mof_N 	N 	0.6731	0.72812	0.90231	-0.055
Mof_N 	N 	0.96463	0.70163	0.77447	-0.202
Mof_N 	N 	0.9925	0.69224	0.74838	-0.177
Mof_N 	N 	0.9557	0.7093	0.72774	-0.056
Mof_N 	N 	0.9051	0.72923	0.74108	-0.088
Mof_C 	C 	0.91062	0.72448	0.76996	0.119
Mof_N 	N 	0.7751	0.86853	0.78153	-0.162
Mof_N 	N 	0.7069	0.86507	0.79687	-0.048
Mof_N 	N 	0.7029	0.83603	0.80754	-0.084
Mof_N 	N 	0.6486	0.6374	0.97128	-0.175
Mof_N 	N 	0.665	0.64574	0.94324	-0.211
Mof_C 	C 	0.47713	0.6139	0.8312	0.118
Mof_N 	N 	0.4683	0.6223	0.80321	-0.085
Mof_N 	N 	0.39379	0.61321	0.79426	-0.055
Mof_N 	N 	0.35657	0.59919	0.81674	-0.163
Mof_N 	N 	0.40806	0.59961	0.83956	-0.206
Mof_C 	C 	0.7708	0.82175	0.79741	0.115
Mof_N 	N 	0.8176	0.84127	0.78126	-0.205
Mof_Cu	Cu	0.75118	0.17879	0.43755	0.838
Mof_Cu	Cu	0.68155	0.15796	0.51052	0.838
Mof_C 	C 	0.7833	0.24541	0.33652	-0.025
Mof_C 	C 	0.8323	0.22863	0.31749	-0.031
Mof_H 	H 	0.8462	0.2083	0.3222	-0.007
Mof_C 	C 	0.8616	0.24157	0.29142	-0.031
Mof_C 	C 	0.8409	0.27226	0.28482	-0.034
Mof_H 	H 	0.86	0.2813	0.2675	0.023
Mof_C 	C 	0.7921	0.28926	0.30386	-0.023
Mof_C 	C 	0.7618	0.27553	0.3295	-0.04
Mof_H 	H 	0.727	0.2867	0.3419	0.067
Mof_C 	C 	0.5526	0.11899	0.37888	-0.022
Mof_H 	H 	0.504	0.115	0.3891	-0.01
Mof_C 	C 	0.5523	0.11891	0.34822	-0.034
Mof_N 	N 	0.6847	0.24453	0.37778	-0.085
Mof_C 	C 	0.7494	0.23255	0.36361	0.116
Mof_N 	N 	0.7779	0.20872	0.37938	-0.205
Mof_N 	N 	0.73074	0.206	0.40329	-0.179
Mof_N 	N 	0.6731	0.22812	0.40231	-0.055
Mof_N 	N 	0.96463	0.20163	0.27447	-0.202
Mof_N 	N 	0.9925	0.19224	0.24838	-0.177
Mof_N 	N 	0.9557	0.2093	0.22774	-0.056
Mof_N 	N 	0.9051	0.22923	0.24108	-0.088
Mof_C 	C 	0.91062	0.22448	0.26996	0.119
Mof_N 	N 	0.7751	0.36853	0.28153	-0.162
Mof_N 	N 	0.7069	0.36507	0.29687	-0.048
Mof_N 	N 	0.7029	0.33603	0.30754	-0.084
Mof_N 	N 	0.6486	0.1374	0.47128	-0.175
Mof_N 	N 	0.665	0.14574	0.44324	-0.211
Mof_C 	C 	0.47713	0.1139	0.3312	0.118
Mof_N 	N 	0.4683	0.1223	0.30321	-0.085
Mof_N 	N 	0.39379	0.11321	0.29426	-0.055
Mof_N 	N 	0.35657	0.09919	0.31674	-0.163
Mof_N 	N 	0.40806	0.09961	0.33956	-0.206
Mof_C 	C 	0.7708	0.32175	0.29741	0.115
Mof_N 	N 	0.8176	0.34127	0.28126	-0.205
Mof_Cu	Cu	0.25118	0.67879	0.43755	0.838
Mof_Cu	Cu	0.18155	0.65796	0.51052	0.838
Mof_C 	C 	0.2833	0.74541	0.33652	-0.025
Mof_C 	C 	0.3323	0.72863	0.31749	-0.031
Mof_H 	H 	0.3462	0.7083	0.3222	-0.007
Mof_C 	C 	0.3616	0.74157	0.29142	-0.031
Mof_C 	C 	0.3409	0.77226	0.28482	-0.034
Mof_H 	H 	0.36	0.7813	0.2675	0.023
Mof_C 	C 	0.2921	0.78926	0.30386	-0.023
Mof_C 	C 	0.2618	0.77553	0.3295	-0.04
Mof_H 	H 	0.227	0.7867	0.3419	0.067
Mof_C 	C 	0.0526	0.61899	0.37888	-0.022
Mof_H 	H 	0.004	0.615	0.3891	-0.01
Mof_C 	C 	0.0523	0.61891	0.34822	-0.034
Mof_N 	N 	0.1847	0.74453	0.37778	-0.085
Mof_C 	C 	0.2494	0.73255	0.36361	0.116
Mof_N 	N 	0.2779	0.70872	0.37938	-0.205
Mof_N 	N 	0.23074	0.706	0.40329	-0.179
Mof_N 	N 	0.1731	0.72812	0.40231	-0.055
Mof_N 	N 	0.46463	0.70163	0.27447	-0.202
Mof_N 	N 	0.4925	0.69224	0.24838	-0.177
Mof_N 	N 	0.4557	0.7093	0.22774	-0.056
Mof_N 	N 	0.4051	0.72923	0.24108	-0.088
Mof_C 	C 	0.41062	0.72448	0.26996	0.119
Mof_N 	N 	0.2751	0.86853	0.28153	-0.162
Mof_N 	N 	0.2069	0.86507	0.29687	-0.048
Mof_N 	N 	0.2029	0.83603	0.30754	-0.084
Mof_N 	N 	0.1486	0.6374	0.47128	-0.175
Mof_N 	N 	0.165	0.64574	0.44324	-0.211
Mof_C 	C 	0.97713	0.6139	0.3312	0.118
Mof_N 	N 	0.9683	0.6223	0.30321	-0.085
Mof_N 	N 	0.89379	0.61321	0.29426	-0.055
Mof_N 	N 	0.85657	0.59919	0.31674	-0.163
Mof_N 	N 	0.90806	0.59961	0.33956	-0.206
Mof_C 	C 	0.2708	0.82175	0.29741	0.115
Mof_N 	N 	0.3176	0.84127	0.28126	-0.205
Mof_Cu	Cu	0.25118	0.17879	0.93755	0.838
Mof_Cu	Cu	0.18155	0.15796	0.01052	0.838
Mof_C 	C 	0.2833	0.24541	0.83652	-0.025
Mof_C 	C 	0.3323	0.22863	0.81749	-0.031
Mof_H 	H 	0.3462	0.2083	0.8222	-0.007
Mof_C 	C 	0.3616	0.24157	0.79142	-0.031
Mof_C 	C 	0.3409	0.27226	0.78482	-0.034
Mof_H 	H 	0.36	0.2813	0.7675	0.023
Mof_C 	C 	0.2921	0.28926	0.80386	-0.023
Mof_C 	C 	0.2618	0.27553	0.8295	-0.04
Mof_H 	H 	0.227	0.2867	0.8419	0.067
Mof_C 	C 	0.0526	0.11899	0.87888	-0.022
Mof_H 	H 	0.004	0.115	0.8891	-0.01
Mof_C 	C 	0.0523	0.11891	0.84822	-0.034
Mof_N 	N 	0.1847	0.24453	0.87778	-0.085
Mof_C 	C 	0.2494	0.23255	0.86361	0.116
Mof_N 	N 	0.2779	0.20872	0.87938	-0.205
Mof_N 	N 	0.23074	0.206	0.90329	-0.179
Mof_N 	N 	0.1731	0.22812	0.90231	-0.055
Mof_N 	N 	0.46463	0.20163	0.77447	-0.202
Mof_N 	N 	0.4925	0.19224	0.74838	-0.177
Mof_N 	N 	0.4557	0.2093	0.72774	-0.056
Mof_N 	N 	0.4051	0.22923	0.74108	-0.088
Mof_C 	C 	0.41062	0.22448	0.76996	0.119
Mof_N 	N 	0.2751	0.36853	0.78153	-0.162
Mof_N 	N 	0.2069	0.36507	0.79687	-0.048
Mof_N 	N 	0.2029	0.33603	0.80754	-0.084
Mof_N 	N 	0.1486	0.1374	0.97128	-0.175
Mof_N 	N 	0.165	0.14574	0.94324	-0.211
Mof_C 	C 	0.97713	0.1139	0.8312	0.118
Mof_N 	N 	0.9683	0.1223	0.80321	-0.085
Mof_N 	N 	0.89379	0.11321	0.79426	-0.055
Mof_N 	N 	0.85657	0.09919	0.81674	-0.163
Mof_N 	N 	0.90806	0.09961	0.83956	-0.206
Mof_C 	C 	0.2708	0.32175	0.79741	0.115
Mof_N 	N 	0.3176	0.34127	0.78126	-0.205
Mof_Cu	Cu	0.75118	0.57121	0.31245	0.838
Mof_Cu	Cu	0.68155	0.59204	0.23948	0.838
Mof_C 	C 	0.7833	0.50459	0.41348	-0.025
Mof_C 	C 	0.8323	0.52137	0.43251	-0.031
Mof_H 	H 	0.8462	0.5417	0.4278	-0.007
Mof_C 	C 	0.8616	0.50843	0.45858	-0.031
Mof_C 	C 	0.8409	0.47774	0.46518	-0.034
Mof_H 	H 	0.86	0.4687	0.4825	0.023
Mof_C 	C 	0.7921	0.46074	0.44614	-0.023
Mof_C 	C 	0.7618	0.47447	0.4205	-0.04
Mof_H 	H 	0.727	0.4633	0.4081	0.067
Mof_C 	C 	0.5526	0.63101	0.37112	-0.022
Mof_H 	H 	0.504	0.635	0.3609	-0.01
Mof_C 	C 	0.5523	0.63109	0.40178	-0.034
Mof_N 	N 	0.6847	0.50547	0.37222	-0.085
Mof_C 	C 	0.7494	0.51745	0.38639	0.116
Mof_N 	N 	0.7779	0.54128	0.37062	-0.205
Mof_N 	N 	0.73074	0.544	0.34671	-0.179
Mof_N 	N 	0.6731	0.52188	0.34769	-0.055
Mof_N 	N 	0.96463	0.54837	0.47553	-0.202
Mof_N 	N 	0.9925	0.55776	0.50162	-0.177
Mof_N 	N 	0.9557	0.5407	0.52226	-0.056
Mof_N 	N 	0.9051	0.52077	0.50892	-0.088
Mof_C 	C 	0.91062	0.52552	0.48004	0.119
Mof_N 	N 	0.7751	0.38147	0.46847	-0.162
Mof_N 	N 	0.7069	0.38493	0.45313	-0.048
Mof_N 	N 	0.7029	0.41397	0.44246	-0.084
Mof_N 	N 	0.6486	0.6126	0.27872	-0.175
Mof_N 	N 	0.665	0.60426	0.30676	-0.211
Mof_C 	C 	0.47713	0.6361	0.4188	0.118
Mof_N 	N 	0.4683	0.6277	0.44679	-0.085
Mof_N 	N 	0.39379	0.63679	0.45574	-0.055
Mof_N 	N 	0.35657	0.65081	0.43326	-0.163
Mof_N 	N 	0.40806	0.65039	0.41044	-0.206
Mof_C 	C 	0.7708	0.42825	0.45259	0.115
Mof_N 	N 	0.8176	0.40873	0.46874	-0.205
Mof_Cu	Cu	0.75118	0.07121	0.81245	0.838
Mof_Cu	Cu	0.68155	0.09204	0.73948	0.838
Mof_C 	C 	0.7833	0.00459	0.91348	-0.026
Mof_C 	C 	0.8323	0.02137	0.93251	-0.031
Mof_H 	H 	0.8462	0.0417	0.9278	-0.007
Mof_C 	C 	0.8616	0.00843	0.95858	-0.031
Mof_C 	C 	0.8409	0.97774	0.96518	-0.034
Mof_H 	H 	0.86	0.9687	0.9825	0.023
Mof_C 	C 	0.7921	0.96074	0.94614	-0.023
Mof_C 	C 	0.7618	0.97447	0.9205	-0.04
Mof_H 	H 	0.727	0.9633	0.9081	0.067
Mof_C 	C 	0.5526	0.13101	0.87112	-0.022
Mof_H 	H 	0.504	0.135	0.8609	-0.01
Mof_C 	C 	0.5523	0.13109	0.90178	-0.034
Mof_N 	N 	0.6847	0.00547	0.87222	-0.085
Mof_C 	C 	0.7494	0.01745	0.88639	0.116
Mof_N 	N 	0.7779	0.04128	0.87062	-0.205
Mof_N 	N 	0.73074	0.044	0.84671	-0.179
Mof_N 	N 	0.6731	0.02188	0.84769	-0.055
Mof_N 	N 	0.96463	0.04837	0.97553	-0.202
Mof_N 	N 	0.9925	0.05776	0.00162	-0.177
Mof_N 	N 	0.9557	0.0407	0.02226	-0.056
Mof_N 	N 	0.9051	0.02077	0.00892	-0.088
Mof_C 	C 	0.91062	0.02552	0.98004	0.119
Mof_N 	N 	0.7751	0.88147	0.96847	-0.162
Mof_N 	N 	0.7069	0.88493	0.95313	-0.048
Mof_N 	N 	0.7029	0.91397	0.94246	-0.084
Mof_N 	N 	0.6486	0.1126	0.77872	-0.175
Mof_N 	N 	0.665	0.10426	0.80676	-0.211
Mof_C 	C 	0.47713	0.1361	0.9188	0.118
Mof_N 	N 	0.4683	0.1277	0.94679	-0.085
Mof_N 	N 	0.39379	0.13679	0.95574	-0.055
Mof_N 	N 	0.35657	0.15081	0.93326	-0.163
Mof_N 	N 	0.40806	0.15039	0.91044	-0.206
Mof_C 	C 	0.7708	0.92825	0.95259	0.115
Mof_N 	N 	0.8176	0.90873	0.96874	-0.205
Mof_Cu	Cu	0.25118	0.57121	0.81245	0.838
Mof_Cu	Cu	0.18155	0.59204	0.73948	0.838
Mof_C 	C 	0.2833	0.50459	0.91348	-0.025
Mof_C 	C 	0.3323	0.52137	0.93251	-0.031
Mof_H 	H 	0.3462	0.5417	0.9278	-0.007
Mof_C 	C 	0.3616	0.50843	0.95858	-0.031
Mof_C 	C 	0.3409	0.47774	0.96518	-0.034
Mof_H 	H 	0.36	0.4687	0.9825	0.023
Mof_C 	C 	0.2921	0.46074	0.94614	-0.023
Mof_C 	C 	0.2618	0.47447	0.9205	-0.04
Mof_H 	H 	0.227	0.4633	0.9081	0.067
Mof_C 	C 	0.0526	0.63101	0.87112	-0.022
Mof_H 	H 	0.004	0.635	0.8609	-0.01
Mof_C 	C 	0.0523	0.63109	0.90178	-0.034
Mof_N 	N 	0.1847	0.50547	0.87222	-0.085
Mof_C 	C 	0.2494	0.51745	0.88639	0.116
Mof_N 	N 	0.2779	0.54128	0.87062	-0.205
Mof_N 	N 	0.23074	0.544	0.84671	-0.179
Mof_N 	N 	0.1731	0.52188	0.84769	-0.055
Mof_N 	N 	0.46463	0.54837	0.97553	-0.202
Mof_N 	N 	0.4925	0.55776	0.00162	-0.177
Mof_N 	N 	0.4557	0.5407	0.02226	-0.056
Mof_N 	N 	0.4051	0.52077	0.00892	-0.088
Mof_C 	C 	0.41062	0.52552	0.98004	0.119
Mof_N 	N 	0.2751	0.38147	0.96847	-0.162
Mof_N 	N 	0.2069	0.38493	0.95313	-0.048
Mof_N 	N 	0.2029	0.41397	0.94246	-0.084
Mof_N 	N 	0.1486	0.6126	0.77872	-0.175
Mof_N 	N 	0.165	0.60426	0.80676	-0.211
Mof_C 	C 	0.97713	0.6361	0.9188	0.118
Mof_N 	N 	0.9683	0.6277	0.94679	-0.085
Mof_N 	N 	0.89379	0.63679	0.95574	-0.055
Mof_N 	N 	0.85657	0.65081	0.93326	-0.163
Mof_N 	N 	0.90806	0.65039	0.91044	-0.206
Mof_C 	C 	0.2708	0.42825	0.95259	0.115
Mof_N 	N 	0.3176	0.40873	0.96874	-0.205
Mof_Cu	Cu	0.25118	0.07121	0.31245	0.838
Mof_Cu	Cu	0.18155	0.09204	0.23948	0.838
Mof_C 	C 	0.2833	0.00459	0.41348	-0.025
Mof_C 	C 	0.3323	0.02137	0.43251	-0.031
Mof_H 	H 	0.3462	0.0417	0.4278	-0.007
Mof_C 	C 	0.3616	0.00843	0.45858	-0.031
Mof_C 	C 	0.3409	0.97774	0.46518	-0.034
Mof_H 	H 	0.36	0.9687	0.4825	0.023
Mof_C 	C 	0.2921	0.96074	0.44614	-0.023
Mof_C 	C 	0.2618	0.97447	0.4205	-0.04
Mof_H 	H 	0.227	0.9633	0.4081	0.067
Mof_C 	C 	0.0526	0.13101	0.37112	-0.022
Mof_H 	H 	0.004	0.135	0.3609	-0.01
Mof_C 	C 	0.0523	0.13109	0.40178	-0.034
Mof_N 	N 	0.1847	0.00547	0.37222	-0.085
Mof_C 	C 	0.2494	0.01745	0.38639	0.116
Mof_N 	N 	0.2779	0.04128	0.37062	-0.205
Mof_N 	N 	0.23074	0.044	0.34671	-0.179
Mof_N 	N 	0.1731	0.02188	0.34769	-0.055
Mof_N 	N 	0.46463	0.04837	0.47553	-0.202
Mof_N 	N 	0.4925	0.05776	0.50162	-0.177
Mof_N 	N 	0.4557	0.0407	0.52226	-0.056
Mof_N 	N 	0.4051	0.02077	0.50892	-0.088
Mof_C 	C 	0.41062	0.02552	0.48004	0.119
Mof_N 	N 	0.2751	0.88147	0.46847	-0.162
Mof_N 	N 	0.2069	0.88493	0.45313	-0.048
Mof_N 	N 	0.2029	0.91397	0.44246	-0.084
Mof_N 	N 	0.1486	0.1126	0.27872	-0.175
Mof_N 	N 	0.165	0.10426	0.30676	-0.211
Mof_C 	C 	0.97713	0.1361	0.4188	0.118
Mof_N 	N 	0.9683	0.1277	0.44679	-0.085
Mof_N 	N 	0.89379	0.13679	0.45574	-0.055
Mof_N 	N 	0.85657	0.15081	0.43326	-0.163
Mof_N 	N 	0.90806	0.15039	0.41044	-0.206
Mof_C 	C 	0.2708	0.92825	0.45259	0.115
Mof_N 	N 	0.3176	0.90873	0.46874	-0.205
Mof_Cu	Cu	0.49882	0.67879	0.31245	0.838
Mof_Cu	Cu	0.56845	0.65796	0.23948	0.838
Mof_C 	C 	0.4667	0.74541	0.41348	-0.025
Mof_C 	C 	0.4177	0.72863	0.43251	-0.031
Mof_H 	H 	0.4038	0.7083	0.4278	-0.007
Mof_C 	C 	0.3884	0.74157	0.45858	-0.031
Mof_C 	C 	0.4091	0.77226	0.46518	-0.034
Mof_H 	H 	0.39	0.7813	0.4825	0.023
Mof_C 	C 	0.4579	0.78926	0.44614	-0.023
Mof_C 	C 	0.4882	0.77553	0.4205	-0.04
Mof_H 	H 	0.523	0.7867	0.4081	0.067
Mof_C 	C 	0.6974	0.61899	0.37112	-0.022
Mof_H 	H 	0.746	0.615	0.3609	-0.01
Mof_C 	C 	0.6977	0.61891	0.40178	-0.034
Mof_N 	N 	0.5653	0.74453	0.37222	-0.085
Mof_C 	C 	0.5006	0.73255	0.38639	0.116
Mof_N 	N 	0.4721	0.70872	0.37062	-0.205
Mof_N 	N 	0.51926	0.706	0.34671	-0.179
Mof_N 	N 	0.5769	0.72812	0.34769	-0.055
Mof_N 	N 	0.28537	0.70163	0.47553	-0.202
Mof_N 	N 	0.2575	0.69224	0.50162	-0.177
Mof_N 	N 	0.2943	0.7093	0.52226	-0.056
Mof_N 	N 	0.3449	0.72923	0.50892	-0.088
Mof_C 	C 	0.33938	0.72448	0.48004	0.119
Mof_N 	N 	0.4749	0.86853	0.46847	-0.162
Mof_N 	N 	0.5431	0.86507	0.45313	-0.048
Mof_N 	N 	0.5471	0.83603	0.44246	-0.084
Mof_N 	N 	0.6014	0.6374	0.27872	-0.175
Mof_N 	N 	0.585	0.64574	0.30676	-0.211
Mof_C 	C 	0.77287	0.6139	0.4188	0.118
Mof_N 	N 	0.7817	0.6223	0.44679	-0.085
Mof_N 	N 	0.85621	0.61321	0.45574	-0.055
Mof_N 	N 	0.89343	0.59919	0.43326	-0.163
Mof_N 	N 	0.84194	0.59961	0.41044	-0.206
Mof_C 	C 	0.4792	0.82175	0.45259	0.115
Mof_N 	N 	0.4324	0.84127	0.46874	-0.205
Mof_Cu	Cu	0.49882	0.17879	0.81245	0.838
Mof_Cu	Cu	0.56845	0.15796	0.73948	0.838
Mof_C 	C 	0.4667	0.24541	0.91348	-0.025
Mof_C 	C 	0.4177	0.22863	0.93251	-0.031
Mof_H 	H 	0.4038	0.2083	0.9278	-0.007
Mof_C 	C 	0.3884	0.24157	0.95858	-0.031
Mof_C 	C 	0.4091	0.27226	0.96518	-0.034
Mof_H 	H 	0.39	0.2813	0.9825	0.023
Mof_C 	C 	0.4579	0.28926	0.94614	-0.023
Mof_C 	C 	0.4882	0.27553	0.9205	-0.04
Mof_H 	H 	0.523	0.2867	0.9081	0.067
Mof_C 	C 	0.6974	0.11899	0.87112	-0.022
Mof_H 	H 	0.746	0.115	0.8609	-0.01
Mof_C 	C 	0.6977	0.11891	0.90178	-0.034
Mof_N 	N 	0.5653	0.24453	0.87222	-0.085
Mof_C 	C 	0.5006	0.23255	0.88639	0.116
Mof_N 	N 	0.4721	0.20872	0.87062	-0.205
Mof_N 	N 	0.51926	0.206	0.84671	-0.179
Mof_N 	N 	0.5769	0.22812	0.84769	-0.055
Mof_N 	N 	0.28537	0.20163	0.97553	-0.202
Mof_N 	N 	0.2575	0.19224	0.00162	-0.177
Mof_N 	N 	0.2943	0.2093	0.02226	-0.056
Mof_N 	N 	0.3449	0.22923	0.00892	-0.088
Mof_C 	C 	0.33938	0.22448	0.98004	0.119
Mof_N 	N 	0.4749	0.36853	0.96847	-0.162
Mof_N 	N 	0.5431	0.36507	0.95313	-0.048
Mof_N 	N 	0.5471	0.33603	0.94246	-0.084
Mof_N 	N 	0.6014	0.1374	0.77872	-0.175
Mof_N 	N 	0.585	0.14574	0.80676	-0.211
Mof_C 	C 	0.77287	0.1139	0.9188	0.118
Mof_N 	N 	0.7817	0.1223	0.94679	-0.085
Mof_N 	N 	0.85621	0.11321	0.95574	-0.055
Mof_N 	N 	0.89343	0.09919	0.93326	-0.163
Mof_N 	N 	0.84194	0.09961	0.91044	-0.206
Mof_C 	C 	0.4792	0.32175	0.95259	0.115
Mof_N 	N 	0.4324	0.34127	0.96874	-0.205
Mof_Cu	Cu	0.99882	0.67879	0.81245	0.838
Mof_Cu	Cu	0.06845	0.65796	0.73948	0.838
Mof_C 	C 	0.9667	0.74541	0.91348	-0.026
Mof_C 	C 	0.9177	0.72863	0.93251	-0.031
Mof_H 	H 	0.9038	0.7083	0.9278	-0.007
Mof_C 	C 	0.8884	0.74157	0.95858	-0.031
Mof_C 	C 	0.9091	0.77226	0.96518	-0.034
Mof_H 	H 	0.89	0.7813	0.9825	0.023
Mof_C 	C 	0.9579	0.78926	0.94614	-0.023
Mof_C 	C 	0.9882	0.77553	0.9205	-0.04
Mof_H 	H 	0.023	0.7867	0.9081	0.067
Mof_C 	C 	0.1974	0.61899	0.87112	-0.022
Mof_H 	H 	0.246	0.615	0.8609	-0.01
Mof_C 	C 	0.1977	0.61891	0.90178	-0.034
Mof_N 	N 	0.0653	0.74453	0.87222	-0.085
Mof_C 	C 	0.0006	0.73255	0.88639	0.116
Mof_N 	N 	0.9721	0.70872	0.87062	-0.205
Mof_N 	N 	0.01926	0.706	0.84671	-0.179
Mof_N 	N 	0.0769	0.72812	0.84769	-0.055
Mof_N 	N 	0.78537	0.70163	0.97553	-0.202
Mof_N 	N 	0.7575	0.69224	0.00162	-0.177
Mof_N 	N 	0.7943	0.7093	0.02226	-0.056
Mof_N 	N 	0.8449	0.72923	0.00892	-0.088
Mof_C 	C 	0.83938	0.72448	0.98004	0.119
Mof_N 	N 	0.9749	0.86853	0.96847	-0.162
Mof_N 	N 	0.0431	0.86507	0.95313	-0.048
Mof_N 	N 	0.0471	0.83603	0.94246	-0.084
Mof_N 	N 	0.1014	0.6374	0.77872	-0.175
Mof_N 	N 	0.085	0.64574	0.80676	-0.211
Mof_C 	C 	0.27287	0.6139	0.9188	0.118
Mof_N 	N 	0.2817	0.6223	0.94679	-0.085
Mof_N 	N 	0.35621	0.61321	0.95574	-0.055
Mof_N 	N 	0.39343	0.59919	0.93326	-0.163
Mof_N 	N 	0.34194	0.59961	0.91044	-0.206
Mof_C 	C 	0.9792	0.82175	0.95259	0.115
Mof_N 	N 	0.9324	0.84127	0.96874	-0.205
Mof_Cu	Cu	0.99882	0.17879	0.31245	0.838
Mof_Cu	Cu	0.06845	0.15796	0.23948	0.838
Mof_C 	C 	0.9667	0.24541	0.41348	-0.026
Mof_C 	C 	0.9177	0.22863	0.43251	-0.031
Mof_H 	H 	0.9038	0.2083	0.4278	-0.007
Mof_C 	C 	0.8884	0.24157	0.45858	-0.031
Mof_C 	C 	0.9091	0.27226	0.46518	-0.034
Mof_H 	H 	0.89	0.2813	0.4825	0.023
Mof_C 	C 	0.9579	0.28926	0.44614	-0.023
Mof_C 	C 	0.9882	0.27553	0.4205	-0.04
Mof_H 	H 	0.023	0.2867	0.4081	0.067
Mof_C 	C 	0.1974	0.11899	0.37112	-0.022
Mof_H 	H 	0.246	0.115	0.3609	-0.01
Mof_C 	C 	0.1977	0.11891	0.40178	-0.034
Mof_N 	N 	0.0653	0.24453	0.37222	-0.085
Mof_C 	C 	0.0006	0.23255	0.38639	0.116
Mof_N 	N 	0.9721	0.20872	0.37062	-0.205
Mof_N 	N 	0.01926	0.206	0.34671	-0.179
Mof_N 	N 	0.0769	0.22812	0.34769	-0.055
Mof_N 	N 	0.78537	0.20163	0.47553	-0.202
Mof_N 	N 	0.7575	0.19224	0.50162	-0.177
Mof_N 	N 	0.7943	0.2093	0.52226	-0.056
Mof_N 	N 	0.8449	0.22923	0.50892	-0.088
Mof_C 	C 	0.83938	0.22448	0.48004	0.119
Mof_N 	N 	0.9749	0.36853	0.46847	-0.162
Mof_N 	N 	0.0431	0.36507	0.45313	-0.048
Mof_N 	N 	0.0471	0.33603	0.44246	-0.084
Mof_N 	N 	0.1014	0.1374	0.27872	-0.175
Mof_N 	N 	0.085	0.14574	0.30676	-0.211
Mof_C 	C 	0.27287	0.1139	0.4188	0.118
Mof_N 	N 	0.2817	0.1223	0.44679	-0.085
Mof_N 	N 	0.35621	0.11321	0.45574	-0.055
Mof_N 	N 	0.39343	0.09919	0.43326	-0.163
Mof_N 	N 	0.34194	0.09961	0.41044	-0.206
Mof_C 	C 	0.9792	0.32175	0.45259	0.115
Mof_N 	N 	0.9324	0.34127	0.46874	-0.205
Mof_Cu	Cu	0.625	0.42783	0.125	0.831
Mof_Cu	Cu	0.625	0.92783	0.625	0.831
Mof_Cu	Cu	0.125	0.32217	0.125	0.831
Mof_Cu	Cu	0.125	0.82217	0.625	0.831
Mof_Cu	Cu	0.625	0.32217	0.625	0.831
Mof_Cu	Cu	0.125	0.42783	0.625	0.831
Mof_Cu	Cu	0.125	0.92783	0.125	0.831
Mof_Cu	Cu	0.625	0.82217	0.125	0.831
Mof_Cu	Cu	0.375	0.57217	0.875	0.831
Mof_Cu	Cu	0.375	0.07217	0.375	0.831
Mof_Cu	Cu	0.875	0.67783	0.875	0.831
Mof_Cu	Cu	0.875	0.17783	0.375	0.831
Mof_Cu	Cu	0.875	0.57217	0.375	0.831
Mof_Cu	Cu	0.875	0.07217	0.875	0.831
Mof_Cu	Cu	0.375	0.67783	0.375	0.831
Mof_Cu	Cu	0.375	0.17783	0.875	0.831
Mof_C 	C 	0.375	0.375	0.10576	-0.061
Mof_C 	C 	0.375	0.375	0.16647	-0.03
Mof_H 	H 	0.375	0.375	0.1869	0.065
Mof_C 	C 	0.375	0.375	0.07342	0.122
Mof_C 	C 	0.375	0.875	0.60576	-0.061
Mof_C 	C 	0.375	0.875	0.66647	-0.03
Mof_H 	H 	0.375	0.875	0.6869	0.065
Mof_C 	C 	0.375	0.875	0.57342	0.122
Mof_C 	C 	0.875	0.375	0.60576	-0.061
Mof_C 	C 	0.875	0.375	0.66647	-0.03
Mof_H 	H 	0.875	0.375	0.6869	0.065
Mof_C 	C 	0.875	0.375	0.57342	0.122
Mof_C 	C 	0.875	0.875	0.10576	-0.061
Mof_C 	C 	0.875	0.875	0.16647	-0.03
Mof_H 	H 	0.875	0.875	0.1869	0.065
Mof_C 	C 	0.875	0.875	0.07342	0.122
Mof_C 	C 	0.375	0.375	0.64424	-0.061
Mof_C 	C 	0.375	0.375	0.58353	-0.03
Mof_H 	H 	0.375	0.375	0.5631	0.065
Mof_C 	C 	0.375	0.375	0.67658	0.122
Mof_C 	C 	0.375	0.875	0.14424	-0.061
Mof_C 	C 	0.375	0.875	0.08353	-0.03
Mof_H 	H 	0.375	0.875	0.0631	0.065
Mof_C 	C 	0.375	0.875	0.17658	0.122
Mof_C 	C 	0.875	0.375	0.14424	-0.061
Mof_C 	C 	0.875	0.375	0.08353	-0.03
Mof_H 	H 	0.875	0.375	0.0631	0.065
Mof_C 	C 	0.875	0.375	0.17658	0.122
Mof_C 	C 	0.875	0.875	0.64424	-0.061
Mof_C 	C 	0.875	0.875	0.58353	-0.03
Mof_H 	H 	0.875	0.875	0.5631	0.065
Mof_C 	C 	0.875	0.875	0.67658	0.122
Mof_C 	C 	0.625	0.625	0.89424	-0.061
Mof_C 	C 	0.625	0.625	0.83353	-0.03
Mof_H 	H 	0.625	0.625	0.8131	0.065
Mof_C 	C 	0.625	0.625	0.92658	0.122
Mof_C 	C 	0.625	0.125	0.39424	-0.061
Mof_C 	C 	0.625	0.125	0.33353	-0.03
Mof_H 	H 	0.625	0.125	0.3131	0.065
Mof_C 	C 	0.625	0.125	0.42658	0.122
Mof_C 	C 	0.125	0.625	0.39424	-0.061
Mof_C 	C 	0.125	0.625	0.33353	-0.03
Mof_H 	H 	0.125	0.625	0.3131	0.065
Mof_C 	C 	0.125	0.625	0.42658	0.122
Mof_C 	C 	0.125	0.125	0.89424	-0.061
Mof_C 	C 	0.125	0.125	0.83353	-0.03
Mof_H 	H 	0.125	0.125	0.8131	0.065
Mof_C 	C 	0.125	0.125	0.92658	0.122
Mof_C 	C 	0.625	0.625	0.35576	-0.061
Mof_C 	C 	0.625	0.625	0.41647	-0.03
Mof_H 	H 	0.625	0.625	0.4369	0.065
Mof_C 	C 	0.625	0.625	0.32342	0.122
Mof_C 	C 	0.625	0.125	0.85576	-0.061
Mof_C 	C 	0.625	0.125	0.91647	-0.03
Mof_H 	H 	0.625	0.125	0.9369	0.065
Mof_C 	C 	0.625	0.125	0.82342	0.122
Mof_C 	C 	0.125	0.625	0.85576	-0.061
Mof_C 	C 	0.125	0.625	0.91647	-0.03
Mof_H 	H 	0.125	0.625	0.9369	0.065
Mof_C 	C 	0.125	0.625	0.82342	0.122
Mof_C 	C 	0.125	0.125	0.35576	-0.061
Mof_C 	C 	0.125	0.125	0.41647	-0.03
Mof_H 	H 	0.125	0.125	0.4369	0.065
Mof_C 	C 	0.125	0.125	0.32342	0.122
_end
