# CIF file generated by openbabel 3.1.0, see https://openbabel.org
data_I
_chemical_name_common 'image0'
_cell_length_a 13.35
_cell_length_b 13.35
_cell_length_c 17.843
_cell_angle_alpha 90
_cell_angle_beta 90
_cell_angle_gamma 120
_space_group_name_H-M_alt 'P 1'
_space_group_name_Hall 'P 1'
loop_
    _symmetry_equiv_pos_as_xyz
    x,y,z
loop_
    _atom_site_label
    _atom_site_type_symbol
    _atom_site_fract_x
    _atom_site_fract_y
    _atom_site_fract_z
    _atom_site_occupancy
    Ga1      Ga       0.85886    0.29249    0.03983    1.000
    P1       P        0.63163    0.12718    0.94623    1.000
    H1       H        0.68800    0.18000    0.88430    1.000
    P2       P        0.97445    0.16139    0.12923    1.000
    H2       H        0.05400    0.25800    0.16000    1.000
    O1       O        0.57140    0.99950    0.92690    1.000
    O2       O        0.02800    0.13520    0.06080    1.000
    O3       O        0.71900    0.15230    0.00820    1.000
    O4       O        0.88190    0.19050    0.10760    1.000
    O5       O        0.92560    0.06680    0.18810    1.000
    O6       O        0.54840    0.17030    0.96380    1.000
    O7       O        0.77460    0.32460    0.11730    1.000
    Ga2      Ga       0.70751    0.56637    0.03983    1.000
    P3       P        0.87282    0.50445    0.94623    1.000
    H3       H        0.82000    0.50800    0.88430    1.000
    P4       P        0.83861    0.81306    0.12923    1.000
    H4       H        0.74200    0.79600    0.16000    1.000
    O8       O        0.00050    0.57190    0.92690    1.000
    O9       O        0.86480    0.89280    0.06080    1.000
    O10      O        0.84770    0.56670    0.00820    1.000
    O11      O        0.80950    0.69140    0.10760    1.000
    O12      O        0.93320    0.85880    0.18810    1.000
    O13      O        0.82970    0.37810    0.96380    1.000
    O14      O        0.67540    0.45000    0.11730    1.000
    Ga3      Ga       0.43363    0.14114    0.03983    1.000
    P5       P        0.49555    0.36837    0.94623    1.000
    H5       H        0.49200    0.31200    0.88430    1.000
    P6       P        0.18694    0.02555    0.12923    1.000
    H6       H        0.20400    0.94600    0.16000    1.000
    O15      O        0.42810    0.42860    0.92690    1.000
    O16      O        0.10720    0.97200    0.06080    1.000
    O17      O        0.43330    0.28100    0.00820    1.000
    O18      O        0.30860    0.11810    0.10760    1.000
    O19      O        0.14120    0.07440    0.18810    1.000
    O20      O        0.62190    0.45160    0.96380    1.000
    O21      O        0.55000    0.22540    0.11730    1.000
    Ga4      Ga       0.29249    0.85886    0.46017    1.000
    P7       P        0.12718    0.63163    0.55377    1.000
    H7       H        0.18000    0.68800    0.61570    1.000
    P8       P        0.16139    0.97445    0.37077    1.000
    H8       H        0.25800    0.05400    0.34000    1.000
    O22      O        0.99950    0.57140    0.57310    1.000
    O23      O        0.13520    0.02800    0.43920    1.000
    O24      O        0.15230    0.71900    0.49180    1.000
    O25      O        0.19050    0.88190    0.39240    1.000
    O26      O        0.06680    0.92560    0.31190    1.000
    O27      O        0.17030    0.54840    0.53620    1.000
    O28      O        0.32460    0.77460    0.38270    1.000
    Ga5      Ga       0.56637    0.70751    0.46017    1.000
    P9       P        0.50445    0.87282    0.55377    1.000
    H9       H        0.50800    0.82000    0.61570    1.000
    P10      P        0.81306    0.83861    0.37077    1.000
    H10      H        0.79600    0.74200    0.34000    1.000
    O29      O        0.57190    0.00050    0.57310    1.000
    O30      O        0.89280    0.86480    0.43920    1.000
    O31      O        0.56670    0.84770    0.49180    1.000
    O32      O        0.69140    0.80950    0.39240    1.000
    O33      O        0.85880    0.93320    0.31190    1.000
    O34      O        0.37810    0.82970    0.53620    1.000
    O35      O        0.45000    0.67540    0.38270    1.000
    Ga6      Ga       0.14114    0.43363    0.46017    1.000
    P11      P        0.36837    0.49555    0.55377    1.000
    H11      H        0.31200    0.49200    0.61570    1.000
    P12      P        0.02555    0.18694    0.37077    1.000
    H12      H        0.94600    0.20400    0.34000    1.000
    O36      O        0.42860    0.42810    0.57310    1.000
    O37      O        0.97200    0.10720    0.43920    1.000
    O38      O        0.28100    0.43330    0.49180    1.000
    O39      O        0.11810    0.30860    0.39240    1.000
    O40      O        0.07440    0.14120    0.31190    1.000
    O41      O        0.45160    0.62190    0.53620    1.000
    O42      O        0.22540    0.55000    0.38270    1.000
    Ga7      Ga       0.14114    0.70751    0.96017    1.000
    P13      P        0.36837    0.87282    0.05377    1.000
    H13      H        0.31200    0.82000    0.11570    1.000
    P14      P        0.02555    0.83861    0.87077    1.000
    H14      H        0.94600    0.74200    0.84000    1.000
    O43      O        0.42860    0.00050    0.07310    1.000
    O44      O        0.97200    0.86480    0.93920    1.000
    O45      O        0.28100    0.84770    0.99180    1.000
    O46      O        0.11810    0.80950    0.89240    1.000
    O47      O        0.07440    0.93320    0.81190    1.000
    O48      O        0.45160    0.82970    0.03620    1.000
    O49      O        0.22540    0.67540    0.88270    1.000
    Ga8      Ga       0.29249    0.43363    0.96017    1.000
    P15      P        0.12718    0.49555    0.05377    1.000
    H15      H        0.18000    0.49200    0.11570    1.000
    P16      P        0.16139    0.18694    0.87077    1.000
    H16      H        0.25800    0.20400    0.84000    1.000
    O50      O        0.99950    0.42810    0.07310    1.000
    O51      O        0.13520    0.10720    0.93920    1.000
    O52      O        0.15230    0.43330    0.99180    1.000
    O53      O        0.19050    0.30860    0.89240    1.000
    O54      O        0.06680    0.14120    0.81190    1.000
    O55      O        0.17030    0.62190    0.03620    1.000
    O56      O        0.32460    0.55000    0.88270    1.000
    Ga9      Ga       0.56637    0.85886    0.96017    1.000
    P17      P        0.50445    0.63163    0.05377    1.000
    H17      H        0.50800    0.68800    0.11570    1.000
    P18      P        0.81306    0.97445    0.87077    1.000
    H18      H        0.79600    0.05400    0.84000    1.000
    O57      O        0.57190    0.57140    0.07310    1.000
    O58      O        0.89280    0.02800    0.93920    1.000
    O59      O        0.56670    0.71900    0.99180    1.000
    O60      O        0.69140    0.88190    0.89240    1.000
    O61      O        0.85880    0.92560    0.81190    1.000
    O62      O        0.37810    0.54840    0.03620    1.000
    O63      O        0.45000    0.77460    0.88270    1.000
    Ga10     Ga       0.70751    0.14114    0.53983    1.000
    P19      P        0.87282    0.36837    0.44623    1.000
    H19      H        0.82000    0.31200    0.38430    1.000
    P20      P        0.83861    0.02555    0.62923    1.000
    H20      H        0.74200    0.94600    0.66000    1.000
    O64      O        0.00050    0.42860    0.42690    1.000
    O65      O        0.86480    0.97200    0.56080    1.000
    O66      O        0.84770    0.28100    0.50820    1.000
    O67      O        0.80950    0.11810    0.60760    1.000
    O68      O        0.93320    0.07440    0.68810    1.000
    O69      O        0.82970    0.45160    0.46380    1.000
    O70      O        0.67540    0.22540    0.61730    1.000
    Ga11     Ga       0.43363    0.29249    0.53983    1.000
    P21      P        0.49555    0.12718    0.44623    1.000
    H21      H        0.49200    0.18000    0.38430    1.000
    P22      P        0.18694    0.16139    0.62923    1.000
    H22      H        0.20400    0.25800    0.66000    1.000
    O71      O        0.42810    0.99950    0.42690    1.000
    O72      O        0.10720    0.13520    0.56080    1.000
    O73      O        0.43330    0.15230    0.50820    1.000
    O74      O        0.30860    0.19050    0.60760    1.000
    O75      O        0.14120    0.06680    0.68810    1.000
    O76      O        0.62190    0.17030    0.46380    1.000
    O77      O        0.55000    0.32460    0.61730    1.000
    Ga12     Ga       0.85886    0.56637    0.53983    1.000
    P23      P        0.63163    0.50445    0.44623    1.000
    H23      H        0.68800    0.50800    0.38430    1.000
    P24      P        0.97445    0.81306    0.62923    1.000
    H24      H        0.05400    0.79600    0.66000    1.000
    O78      O        0.57140    0.57190    0.42690    1.000
    O79      O        0.02800    0.89280    0.56080    1.000
    O80      O        0.71900    0.56670    0.50820    1.000
    O81      O        0.88190    0.69140    0.60760    1.000
    O82      O        0.92560    0.85880    0.68810    1.000
    O83      O        0.54840    0.37810    0.46380    1.000
    O84      O        0.77460    0.45000    0.61730    1.000
    Ga13     Ga       0.00000    0.00000    0.25000    1.000
    Ga14     Ga       0.00000    0.00000    0.75000    1.000
    Ga15     Ga       0.00000    0.00000    0.00000    1.000
    Ga16     Ga       0.00000    0.00000    0.50000    1.000
    P25      P        0.66667    0.33333    0.13770    1.000
    H25      H        0.66667    0.33333    0.21100    1.000
    P26      P        0.33333    0.66667    0.36230    1.000
    H26      H        0.33333    0.66667    0.28900    1.000
    P27      P        0.33333    0.66667    0.86230    1.000
    H27      H        0.33333    0.66667    0.78900    1.000
    P28      P        0.66667    0.33333    0.63770    1.000
    H28      H        0.66667    0.33333    0.71100    1.000
