data_functionalizedCrystal
_audit_creation_method	'EQeq! by Chris Wilmer'
_symmetry_space_group_name_H-M	'P1'
_symmetry_Int_Tables_number	1
_symmetry_cell_setting	triclinic
loop_
_symmetry_equiv_pos_as_xyz
  x,y,z
_cell_length_a	13.9538
_cell_length_b	13.9538
_cell_length_c	24.9246
_cell_angle_alpha	90
_cell_angle_beta	90
_cell_angle_gamma	120
loop_
_atom_site_label
_atom_site_type_symbol
_atom_site_fract_x
_atom_site_fract_y
_atom_site_fract_z
_atom_site_charge
Mof_Zn	Zn	0.14997	0.69248	0.04676	1.223
Mof_O 	O 	0.0029	0.6128	0.10615	-0.587
Mof_O 	O 	0.9773	0.606	0.02073	-0.412
Mof_O 	O 	0.2967	0.6918	0.07393	-0.397
Mof_O 	O 	0.161	0.5467	0.03872	-0.419
Mof_O 	O 	0.1289	0.8496	0.16232	-0.517
Mof_O 	O 	0.2058	0.8332	0.08817	-0.516
Mof_N 	N 	0.4748	0.3525	0.10448	-0.206
Mof_N 	N 	0.2038	0.7683	0.97348	-0.267
Mof_N 	N 	0.3047	0.9491	0.83063	-0.09
Mof_C 	C 	0.5896	0.4061	0.09372	0.206
Mof_C 	C 	0.662	0.4039	0.13218	-0.25
Mof_H 	H 	0.6345	0.3649	0.164	0.138
Mof_C 	C 	0.7737	0.46	0.12235	0.162
Mof_H 	H 	0.8218	0.4589	0.1479	-0.03
Mof_C 	C 	0.8157	0.5178	0.0754	-0.236
Mof_C 	C 	0.7446	0.5179	0.03729	0.165
Mof_H 	H 	0.7729	0.5553	0.0051	-0.009
Mof_C 	C 	0.6318	0.4633	0.046	-0.246
Mof_H 	H 	0.5845	0.4648	0.0201	0.124
Mof_C 	C 	0.4179	0.4113	0.09403	0.186
Mof_C 	C 	0.4666	0.5217	0.1084	-0.223
Mof_H 	H 	0.5349	0.556	0.1256	0.118
Mof_C 	C 	0.4145	0.5803	0.09734	0.113
Mof_H 	H 	0.4483	0.6547	0.1067	0.006
Mof_C 	C 	0.312	0.5304	0.07238	-0.168
Mof_C 	C 	0.2637	0.4194	0.05866	0.114
Mof_H 	H 	0.1946	0.3846	0.0422	0.002
Mof_C 	C 	0.3153	0.3605	0.06875	-0.223
Mof_H 	H 	0.2821	0.2864	0.0588	0.11
Mof_C 	C 	0.4153	0.2373	0.1148	0.219
Mof_C 	C 	0.3245	0.1942	0.14968	-0.262
Mof_H 	H 	0.3087	0.2415	0.1691	0.126
Mof_C 	C 	0.2586	0.0811	0.15507	0.179
Mof_H 	H 	0.1982	0.0526	0.1782	-0.028
Mof_C 	C 	0.2809	0.0096	0.12676	-0.266
Mof_C 	C 	0.3748	0.053	0.09571	0.182
Mof_H 	H 	0.3936	0.0055	0.0785	-0.023
Mof_C 	C 	0.4419	0.1664	0.0897	-0.267
Mof_H 	H 	0.5051	0.1944	0.0685	0.134
Mof_C 	C 	0.9378	0.5814	0.066	0.425
Mof_C 	C 	0.2524	0.5928	0.06079	0.351
Mof_C 	C 	0.2001	0.8879	0.1256	0.5
Mof_C 	C 	0.2923	0.8694	0.97233	0.11
Mof_H 	H 	0.3313	0.8977	0.0041	0.001
Mof_C 	C 	0.3298	0.9348	0.92708	-0.171
Mof_H 	H 	0.3899	0.0064	0.9284	0.106
Mof_C 	C 	0.2751	0.8903	0.8804	0.183
Mof_C 	C 	0.189	0.7825	0.87948	-0.218
Mof_H 	H 	0.1545	0.7494	0.8473	0.114
Mof_C 	C 	0.1552	0.7251	0.92655	0.126
Mof_H 	H 	0.0958	0.653	0.9259	-0.02
Mof_Zn	Zn	0.30752	0.45749	0.3801	1.223
Mof_O 	O 	0.3872	0.3901	0.43948	-0.564
Mof_O 	O 	0.394	0.3713	0.35406	-0.42
Mof_O 	O 	0.3082	0.6049	0.40726	-0.396
Mof_O 	O 	0.4533	0.6143	0.37205	-0.413
Mof_O 	O 	0.1504	0.2793	0.49565	-0.512
Mof_O 	O 	0.1668	0.3726	0.4215	-0.51
Mof_N 	N 	0.6475	0.1223	0.43781	-0.19
Mof_N 	N 	0.2317	0.4355	0.30681	-0.282
Mof_N 	N 	0.0509	0.3556	0.16396	-0.12
Mof_C 	C 	0.5939	0.1835	0.42705	0.195
Mof_C 	C 	0.5961	0.2581	0.46551	-0.241
Mof_H 	H 	0.6351	0.2696	0.49733	0.133
Mof_C 	C 	0.54	0.3137	0.45568	0.15
Mof_H 	H 	0.5411	0.3629	0.48123	-0.028
Mof_C 	C 	0.4822	0.2979	0.40873	-0.226
Mof_C 	C 	0.4821	0.2267	0.37062	0.152
Mof_H 	H 	0.4447	0.2176	0.33843	-0.009
Mof_C 	C 	0.5367	0.1685	0.37933	-0.237
Mof_H 	H 	0.5352	0.1197	0.35343	0.117
Mof_C 	C 	0.5887	0.0066	0.42736	0.108
Mof_C 	C 	0.4783	0.9449	0.44173	-0.144
Mof_H 	H 	0.444	0.9789	0.45893	0.097
Mof_C 	C 	0.4197	0.8342	0.43067	0.059
Mof_H 	H 	0.3453	0.7936	0.44003	0.023
Mof_C 	C 	0.4696	0.7816	0.40571	-0.127
Mof_C 	C 	0.5806	0.8443	0.39199	0.061
Mof_H 	H 	0.6154	0.81	0.37553	0.026
Mof_C 	C 	0.6395	0.9548	0.40208	-0.143
Mof_H 	H 	0.7136	0.9957	0.39213	0.096
Mof_C 	C 	0.7627	0.178	0.44813	0.189
Mof_C 	C 	0.8058	0.1303	0.48301	-0.222
Mof_H 	H 	0.7585	0.0672	0.50243	0.109
Mof_C 	C 	0.9189	0.1775	0.4884	0.13
Mof_H 	H 	0.9474	0.1456	0.51153	-0.001
Mof_C 	C 	0.9904	0.2713	0.46009	-0.191
Mof_C 	C 	0.947	0.3218	0.42904	0.132
Mof_H 	H 	0.9945	0.3881	0.41183	0.009
Mof_C 	C 	0.8336	0.2755	0.42303	-0.226
Mof_H 	H 	0.8056	0.3107	0.40183	0.122
Mof_C 	C 	0.4186	0.3564	0.39933	0.395
Mof_C 	C 	0.4072	0.6596	0.39412	0.336
Mof_C 	C 	0.1121	0.3122	0.45893	0.447
Mof_C 	C 	0.1306	0.4229	0.30566	0.167
Mof_H 	H 	0.1023	0.4336	0.33743	-0.029
Mof_C 	C 	0.0652	0.395	0.26041	-0.3
Mof_H 	H 	0.9936	0.3835	0.26173	0.179
Mof_C 	C 	0.1097	0.3848	0.21373	0.229
Mof_C 	C 	0.2175	0.4065	0.21281	-0.253
Mof_H 	H 	0.2506	0.4051	0.18063	0.127
Mof_C 	C 	0.2749	0.4301	0.25988	0.147
Mof_H 	H 	0.347	0.4428	0.25923	-0.023
Mof_Zn	Zn	0.54251	0.85003	0.71343	1.226
Mof_O 	O 	0.6099	0.9971	0.77282	-0.536
Mof_O 	O 	0.6287	0.0227	0.6874	-0.423
Mof_O 	O 	0.3951	0.7033	0.7406	-0.402
Mof_O 	O 	0.3857	0.839	0.70539	-0.418
Mof_O 	O 	0.7207	0.8711	0.82899	-0.501
Mof_O 	O 	0.6274	0.7942	0.75484	-0.508
Mof_N 	N 	0.8777	0.5252	0.77115	-0.213
Mof_N 	N 	0.5645	0.7962	0.64015	-0.272
Mof_N 	N 	0.6444	0.6953	0.4973	-0.103
Mof_C 	C 	0.8165	0.4104	0.76039	0.205
Mof_C 	C 	0.7419	0.338	0.79885	-0.242
Mof_H 	H 	0.7304	0.3655	0.83067	0.136
Mof_C 	C 	0.6863	0.2263	0.78902	0.149
Mof_H 	H 	0.6371	0.1782	0.81457	-0.03
Mof_C 	C 	0.7021	0.1843	0.74207	-0.219
Mof_C 	C 	0.7733	0.2554	0.70396	0.153
Mof_H 	H 	0.7824	0.2271	0.67177	-0.007
Mof_C 	C 	0.8315	0.3682	0.71267	-0.24
Mof_H 	H 	0.8803	0.4155	0.68677	0.125
Mof_C 	C 	0.9934	0.5821	0.7607	0.262
Mof_C 	C 	0.0551	0.5334	0.77507	-0.298
Mof_H 	H 	0.0211	0.4651	0.79227	0.137
Mof_C 	C 	0.1658	0.5855	0.76401	0.165
Mof_H 	H 	0.2064	0.5517	0.77337	-0.014
Mof_C 	C 	0.2184	0.688	0.73905	-0.205
Mof_C 	C 	0.1557	0.7363	0.72533	0.166
Mof_H 	H 	0.19	0.8054	0.70887	-0.012
Mof_C 	C 	0.0452	0.6847	0.73542	-0.298
Mof_H 	H 	0.0043	0.7179	0.72547	0.131
Mof_C 	C 	0.822	0.5847	0.78147	0.213
Mof_C 	C 	0.8697	0.6755	0.81635	-0.244
Mof_H 	H 	0.9328	0.6913	0.83577	0.128
Mof_C 	C 	0.8225	0.7414	0.82174	0.16
Mof_H 	H 	0.8544	0.8018	0.84487	-0.006
Mof_C 	C 	0.7287	0.7191	0.79343	-0.227
Mof_C 	C 	0.6782	0.6252	0.76238	0.161
Mof_H 	H 	0.6119	0.6064	0.74517	-0.008
Mof_C 	C 	0.7245	0.5581	0.75637	-0.25
Mof_H 	H 	0.6893	0.4949	0.73517	0.129
Mof_C 	C 	0.6436	0.0622	0.73267	0.37
Mof_C 	C 	0.3404	0.7476	0.72746	0.364
Mof_C 	C 	0.6878	0.7999	0.79227	0.474
Mof_C 	C 	0.5771	0.7077	0.639	0.138
Mof_H 	H 	0.5664	0.6687	0.67077	-0.012
Mof_C 	C 	0.605	0.6702	0.59375	-0.234
Mof_H 	H 	0.6165	0.6101	0.59507	0.143
Mof_C 	C 	0.6152	0.7249	0.54707	0.209
Mof_C 	C 	0.5935	0.811	0.54615	-0.233
Mof_H 	H 	0.5949	0.8455	0.51397	0.125
Mof_C 	C 	0.5699	0.8448	0.59322	0.14
Mof_H 	H 	0.5572	0.9042	0.59257	-0.014
Mof_Zn	Zn	0.69248	0.14997	0.95324	1.222
Mof_O 	O 	0.6128	0.0029	0.89385	-0.588
Mof_O 	O 	0.606	0.9773	0.97927	-0.413
Mof_O 	O 	0.6918	0.2967	0.92607	-0.398
Mof_O 	O 	0.5467	0.161	0.96128	-0.42
Mof_O 	O 	0.8496	0.1289	0.83768	-0.518
Mof_O 	O 	0.8332	0.2058	0.91183	-0.517
Mof_N 	N 	0.3525	0.4748	0.89552	-0.206
Mof_N 	N 	0.7683	0.2038	0.02652	-0.267
Mof_N 	N 	0.9491	0.3047	0.16937	-0.09
Mof_C 	C 	0.4061	0.5896	0.90628	0.206
Mof_C 	C 	0.4039	0.662	0.86782	-0.25
Mof_H 	H 	0.3649	0.6345	0.836	0.138
Mof_C 	C 	0.46	0.7737	0.87765	0.162
Mof_H 	H 	0.4589	0.8218	0.8521	-0.03
Mof_C 	C 	0.5178	0.8157	0.9246	-0.236
Mof_C 	C 	0.5179	0.7446	0.96271	0.165
Mof_H 	H 	0.5553	0.7729	0.9949	-0.009
Mof_C 	C 	0.4633	0.6318	0.954	-0.246
Mof_H 	H 	0.4648	0.5845	0.9799	0.124
Mof_C 	C 	0.4113	0.4179	0.90597	0.186
Mof_C 	C 	0.5217	0.4666	0.8916	-0.223
Mof_H 	H 	0.556	0.5349	0.8744	0.118
Mof_C 	C 	0.5803	0.4145	0.90266	0.113
Mof_H 	H 	0.6547	0.4483	0.8933	0.006
Mof_C 	C 	0.5304	0.312	0.92762	-0.168
Mof_C 	C 	0.4194	0.2637	0.94134	0.114
Mof_H 	H 	0.3846	0.1946	0.9578	0.002
Mof_C 	C 	0.3605	0.3153	0.93125	-0.223
Mof_H 	H 	0.2864	0.2821	0.9412	0.11
Mof_C 	C 	0.2373	0.4153	0.8852	0.219
Mof_C 	C 	0.1942	0.3245	0.85032	-0.262
Mof_H 	H 	0.2415	0.3087	0.8309	0.126
Mof_C 	C 	0.0811	0.2586	0.84493	0.179
Mof_H 	H 	0.0526	0.1982	0.8218	-0.028
Mof_C 	C 	0.0096	0.2809	0.87324	-0.266
Mof_C 	C 	0.053	0.3748	0.90429	0.182
Mof_H 	H 	0.0055	0.3936	0.9215	-0.023
Mof_C 	C 	0.1664	0.4419	0.9103	-0.267
Mof_H 	H 	0.1944	0.5051	0.9315	0.134
Mof_C 	C 	0.5814	0.9378	0.934	0.425
Mof_C 	C 	0.5928	0.2524	0.93921	0.351
Mof_C 	C 	0.8879	0.2001	0.8744	0.5
Mof_C 	C 	0.8694	0.2923	0.02767	0.11
Mof_H 	H 	0.8977	0.3313	0.9959	0.001
Mof_C 	C 	0.9348	0.3298	0.07292	-0.171
Mof_H 	H 	0.0064	0.3899	0.0716	0.106
Mof_C 	C 	0.8903	0.2751	0.1196	0.183
Mof_C 	C 	0.7825	0.189	0.12052	-0.218
Mof_H 	H 	0.7494	0.1545	0.1527	0.114
Mof_C 	C 	0.7251	0.1552	0.07345	0.126
Mof_H 	H 	0.653	0.0958	0.0741	-0.02
Mof_Zn	Zn	0.45749	0.30752	0.6199	1.223
Mof_O 	O 	0.3901	0.3872	0.56052	-0.564
Mof_O 	O 	0.3713	0.394	0.64594	-0.42
Mof_O 	O 	0.6049	0.3082	0.59274	-0.396
Mof_O 	O 	0.6143	0.4533	0.62795	-0.413
Mof_O 	O 	0.2793	0.1504	0.50435	-0.512
Mof_O 	O 	0.3726	0.1668	0.5785	-0.51
Mof_N 	N 	0.1223	0.6475	0.56219	-0.19
Mof_N 	N 	0.4355	0.2317	0.69319	-0.282
Mof_N 	N 	0.3556	0.0509	0.83604	-0.12
Mof_C 	C 	0.1835	0.5939	0.57295	0.195
Mof_C 	C 	0.2581	0.5961	0.53449	-0.241
Mof_H 	H 	0.2696	0.6351	0.50267	0.133
Mof_C 	C 	0.3137	0.54	0.54432	0.15
Mof_H 	H 	0.3629	0.5411	0.51877	-0.028
Mof_C 	C 	0.2979	0.4822	0.59127	-0.226
Mof_C 	C 	0.2267	0.4821	0.62938	0.152
Mof_H 	H 	0.2176	0.4447	0.66157	-0.009
Mof_C 	C 	0.1685	0.5367	0.62067	-0.237
Mof_H 	H 	0.1197	0.5352	0.64657	0.117
Mof_C 	C 	0.0066	0.5887	0.57264	0.108
Mof_C 	C 	0.9449	0.4783	0.55827	-0.144
Mof_H 	H 	0.9789	0.444	0.54107	0.097
Mof_C 	C 	0.8342	0.4197	0.56933	0.059
Mof_H 	H 	0.7936	0.3453	0.55997	0.023
Mof_C 	C 	0.7816	0.4696	0.59429	-0.127
Mof_C 	C 	0.8443	0.5806	0.60801	0.061
Mof_H 	H 	0.81	0.6154	0.62447	0.026
Mof_C 	C 	0.9548	0.6395	0.59792	-0.143
Mof_H 	H 	0.9957	0.7136	0.60787	0.096
Mof_C 	C 	0.178	0.7627	0.55187	0.189
Mof_C 	C 	0.1303	0.8058	0.51699	-0.222
Mof_H 	H 	0.0672	0.7585	0.49757	0.109
Mof_C 	C 	0.1775	0.9189	0.5116	0.13
Mof_H 	H 	0.1456	0.9474	0.48847	-0.001
Mof_C 	C 	0.2713	0.9904	0.53991	-0.191
Mof_C 	C 	0.3218	0.947	0.57096	0.132
Mof_H 	H 	0.3881	0.9945	0.58817	0.009
Mof_C 	C 	0.2755	0.8336	0.57697	-0.226
Mof_H 	H 	0.3107	0.8056	0.59817	0.122
Mof_C 	C 	0.3564	0.4186	0.60067	0.395
Mof_C 	C 	0.6596	0.4072	0.60588	0.336
Mof_C 	C 	0.3122	0.1121	0.54107	0.447
Mof_C 	C 	0.4229	0.1306	0.69434	0.167
Mof_H 	H 	0.4336	0.1023	0.66257	-0.029
Mof_C 	C 	0.395	0.0652	0.73959	-0.3
Mof_H 	H 	0.3835	0.9936	0.73827	0.179
Mof_C 	C 	0.3848	0.1097	0.78627	0.229
Mof_C 	C 	0.4065	0.2175	0.78719	-0.253
Mof_H 	H 	0.4051	0.2506	0.81937	0.127
Mof_C 	C 	0.4301	0.2749	0.74012	0.147
Mof_H 	H 	0.4428	0.347	0.74077	-0.023
Mof_Zn	Zn	0.85003	0.54251	0.28657	1.226
Mof_O 	O 	0.9971	0.6099	0.22718	-0.536
Mof_O 	O 	0.0227	0.6287	0.3126	-0.423
Mof_O 	O 	0.7033	0.3951	0.2594	-0.402
Mof_O 	O 	0.839	0.3857	0.29461	-0.418
Mof_O 	O 	0.8711	0.7207	0.17101	-0.501
Mof_O 	O 	0.7942	0.6274	0.24516	-0.508
Mof_N 	N 	0.5252	0.8777	0.22885	-0.213
Mof_N 	N 	0.7962	0.5645	0.35985	-0.272
Mof_N 	N 	0.6953	0.6444	0.5027	-0.103
Mof_C 	C 	0.4104	0.8165	0.23961	0.205
Mof_C 	C 	0.338	0.7419	0.20115	-0.242
Mof_H 	H 	0.3655	0.7304	0.16933	0.136
Mof_C 	C 	0.2263	0.6863	0.21098	0.149
Mof_H 	H 	0.1782	0.6371	0.18543	-0.03
Mof_C 	C 	0.1843	0.7021	0.25793	-0.219
Mof_C 	C 	0.2554	0.7733	0.29604	0.153
Mof_H 	H 	0.2271	0.7824	0.32823	-0.007
Mof_C 	C 	0.3682	0.8315	0.28733	-0.24
Mof_H 	H 	0.4155	0.8803	0.31323	0.125
Mof_C 	C 	0.5821	0.9934	0.2393	0.262
Mof_C 	C 	0.5334	0.0551	0.22493	-0.298
Mof_H 	H 	0.4651	0.0211	0.20773	0.137
Mof_C 	C 	0.5855	0.1658	0.23599	0.165
Mof_H 	H 	0.5517	0.2064	0.22663	-0.014
Mof_C 	C 	0.688	0.2184	0.26095	-0.205
Mof_C 	C 	0.7363	0.1557	0.27467	0.166
Mof_H 	H 	0.8054	0.19	0.29113	-0.012
Mof_C 	C 	0.6847	0.0452	0.26458	-0.298
Mof_H 	H 	0.7179	0.0043	0.27453	0.131
Mof_C 	C 	0.5847	0.822	0.21853	0.213
Mof_C 	C 	0.6755	0.8697	0.18365	-0.244
Mof_H 	H 	0.6913	0.9328	0.16423	0.128
Mof_C 	C 	0.7414	0.8225	0.17826	0.16
Mof_H 	H 	0.8018	0.8544	0.15513	-0.006
Mof_C 	C 	0.7191	0.7287	0.20657	-0.227
Mof_C 	C 	0.6252	0.6782	0.23762	0.161
Mof_H 	H 	0.6064	0.6119	0.25483	-0.008
Mof_C 	C 	0.5581	0.7245	0.24363	-0.25
Mof_H 	H 	0.4949	0.6893	0.26483	0.129
Mof_C 	C 	0.0622	0.6436	0.26733	0.37
Mof_C 	C 	0.7476	0.3404	0.27254	0.364
Mof_C 	C 	0.7999	0.6878	0.20773	0.474
Mof_C 	C 	0.7077	0.5771	0.361	0.138
Mof_H 	H 	0.6687	0.5664	0.32923	-0.012
Mof_C 	C 	0.6702	0.605	0.40625	-0.234
Mof_H 	H 	0.6101	0.6165	0.40493	0.143
Mof_C 	C 	0.7249	0.6152	0.45293	0.209
Mof_C 	C 	0.811	0.5935	0.45385	-0.233
Mof_H 	H 	0.8455	0.5949	0.48603	0.125
Mof_C 	C 	0.8448	0.5699	0.40678	0.14
Mof_H 	H 	0.9042	0.5572	0.40743	-0.014
Mof_Zn	Zn	-9.05588e-17	0.70335	0.16667	1.225
Mof_Zn	Zn	0.29665	0.29665	0.5	1.231
Mof_Zn	Zn	0.70335	0	0.83333	1.225
_end
