data_functionalizedCrystal
_audit_creation_method	'EQeq! by Chris Wilmer'
_symmetry_space_group_name_H-M	'P1'
_symmetry_Int_Tables_number	1
_symmetry_cell_setting	triclinic
loop_
_symmetry_equiv_pos_as_xyz
  x,y,z
_cell_length_a	10.4157
_cell_length_b	11.2176
_cell_length_c	11.806
_cell_angle_alpha	93.298
_cell_angle_beta	109.635
_cell_angle_gamma	106.949
loop_
_atom_site_label
_atom_site_type_symbol
_atom_site_fract_x
_atom_site_fract_y
_atom_site_fract_z
_atom_site_charge
Mof_Eu	Eu	0.39272	0.46538	0.81718	2.217
Mof_N 	N 	0.891	0.132	0.629	-0.117
Mof_N 	N 	0.794	0.342	0.781	-0.118
Mof_N 	N 	0.557	0.907	0.225	-0.119
Mof_N 	N 	0.4264	0.5772	0.646	-0.238
Mof_N 	N 	0.5274	0.6528	0.5147	-0.172
Mof_C 	C 	0.1948	0.2399	0.6502	0.36
Mof_C 	C 	0.0924	0.1164	0.5753	-0.09
Mof_C 	C 	0.1326	0.0584	0.4931	-0.062
Mof_H 	H 	0.2217	0.0965	0.4871	0.07
Mof_C 	C 	0.96	0.0579	0.5816	0.099
Mof_C 	C 	0.7035	0.4952	0.921	0.448
Mof_C 	C 	0.8566	0.4988	0.9605	-0.143
Mof_C 	C 	0.8985	0.4242	0.893	0.099
Mof_C 	C 	0.9574	0.5751	0.0657	-0.044
Mof_H 	H 	0.9309	0.6275	0.111	0.048
Mof_C 	C 	0.5253	0.7501	0.9998	0.507
Mof_C 	C 	0.5131	0.8793	0.0041	-0.151
Mof_C 	C 	0.4908	0.9314	0.8957	-0.05
Mof_H 	H 	0.4883	0.8863	0.8259	0.056
Mof_C 	C 	0.5278	0.9482	0.108	0.12
Mof_C 	C 	0.38	0.6684	0.5938	-0.14
Mof_H 	H 	0.3117	0.6953	0.6125	0.053
Mof_C 	C 	0.437	0.7185	0.5129	0.304
Mof_C 	C 	0.521	0.5698	0.5931	0.117
Mof_H 	H 	0.5745	0.5151	0.6084	0.007
Mof_C 	C 	0.425	0.82	0.437	-0.842
Mof_H 	H 	0.4803	0.8212	0.3859	0.306
Mof_H 	H 	0.4621	0.901	0.4894	0.267
Mof_H 	H 	0.3258	0.8042	0.3867	0.302
Mof_O 	O 	0.1599	0.2886	0.7323	-0.443
Mof_O 	O 	0.3061	0.2941	0.6381	-0.451
Mof_O 	O 	0.6261	0.4672	0.812	-0.483
Mof_O 	O 	0.6579	0.5245	0.0043	-0.632
Mof_O 	O 	0.4916	0.6844	0.8984	-0.57
Mof_O 	O 	0.5683	0.7171	0.1009	-0.517
Mof_Eu	Eu	0.60728	0.53462	0.18282	2.218
Mof_N 	N 	0.109	0.868	0.371	-0.116
Mof_N 	N 	0.206	0.658	0.219	-0.117
Mof_N 	N 	0.443	0.093	0.775	-0.118
Mof_N 	N 	0.5736	0.4228	0.354	-0.238
Mof_N 	N 	0.4726	0.3472	0.4853	-0.172
Mof_C 	C 	0.8052	0.7601	0.3498	0.36
Mof_C 	C 	0.9076	0.8836	0.4247	-0.09
Mof_C 	C 	0.8674	0.9416	0.5069	-0.062
Mof_H 	H 	0.7783	0.9035	0.5129	0.07
Mof_C 	C 	0.04	0.9421	0.4184	0.099
Mof_C 	C 	0.2965	0.5048	0.079	0.448
Mof_C 	C 	0.1434	0.5012	0.0395	-0.143
Mof_C 	C 	0.1015	0.5758	0.107	0.099
Mof_C 	C 	0.0426	0.4249	0.9343	-0.044
Mof_H 	H 	0.0691	0.3725	0.889	0.048
Mof_C 	C 	0.4747	0.2499	0.0002	0.507
Mof_C 	C 	0.4869	0.1207	0.9959	-0.151
Mof_C 	C 	0.5092	0.0686	0.1043	-0.05
Mof_H 	H 	0.5117	0.1137	0.1741	0.056
Mof_C 	C 	0.4722	0.0518	0.892	0.12
Mof_C 	C 	0.62	0.3316	0.4062	-0.14
Mof_H 	H 	0.6883	0.3047	0.3875	0.053
Mof_C 	C 	0.563	0.2815	0.4871	0.304
Mof_C 	C 	0.479	0.4302	0.4069	0.117
Mof_H 	H 	0.4255	0.4849	0.3916	0.007
Mof_C 	C 	0.575	0.18	0.563	-0.842
Mof_H 	H 	0.5197	0.1788	0.6141	0.306
Mof_H 	H 	0.5379	0.099	0.5106	0.267
Mof_H 	H 	0.6742	0.1958	0.6133	0.302
Mof_O 	O 	0.8401	0.7114	0.2677	-0.443
Mof_O 	O 	0.6939	0.7059	0.3619	-0.451
Mof_O 	O 	0.3739	0.5328	0.188	-0.483
Mof_O 	O 	0.3421	0.4755	0.9957	-0.632
Mof_O 	O 	0.5084	0.3156	0.1016	-0.57
Mof_O 	O 	0.4317	0.2829	0.8991	-0.517
_end
