data_functionalizedCrystal
_audit_creation_method	'EQeq! by Chris Wilmer'
_symmetry_space_group_name_H-M	'P1'
_symmetry_Int_Tables_number	1
_symmetry_cell_setting	triclinic
loop_
_symmetry_equiv_pos_as_xyz
  x,y,z
_cell_length_a	11.5516
_cell_length_b	17.1677
_cell_length_c	8.7185
_cell_angle_alpha	90
_cell_angle_beta	130.635
_cell_angle_gamma	90
loop_
_atom_site_label
_atom_site_type_symbol
_atom_site_fract_x
_atom_site_fract_y
_atom_site_fract_z
_atom_site_charge
Mof_Y 	Y 	0.441	0.128	0.2605	1.59
Mof_O 	O 	0.6706	0.1705	0.3615	-0.339
Mof_O 	O 	0.5685	0.0759	0.5843	-0.366
Mof_O 	O 	0.5238	0.2365	0.4722	-0.339
Mof_O 	O 	0.7081	0.325	0.6524	-0.367
Mof_O 	O 	0.8523	0.2631	0.5384	-0.359
Mof_O 	O 	0.5722	0.9834	0.77	-0.332
Mof_O 	O 	0.3185	0.9216	0.433	-0.303
Mof_O 	O 	0.3093	0.0176	0.253	-0.309
Mof_C 	C 	0.7371	0.2343	0.4842	0.227
Mof_C 	C 	0.6529	0.2717	0.5495	0.303
Mof_C 	C 	0.519	0.0194	0.6056	0.281
Mof_C 	C 	0.3714	0.9844	0.413	0.244
Mof_Y 	Y 	0.941	0.628	0.2605	1.253
Mof_O 	O 	0.1706	0.6705	0.3615	-0.24
Mof_O 	O 	0.0685	0.5759	0.5843	-0.303
Mof_O 	O 	0.0238	0.7365	0.4722	-0.225
Mof_O 	O 	0.2081	0.825	0.6524	-0.35
Mof_O 	O 	0.3523	0.7631	0.5384	-0.323
Mof_O 	O 	0.0722	0.4834	0.77	-0.257
Mof_O 	O 	0.8185	0.4216	0.433	-0.289
Mof_O 	O 	0.8093	0.5176	0.253	-0.291
Mof_C 	C 	0.2371	0.7343	0.4842	0.241
Mof_C 	C 	0.1529	0.7717	0.5495	0.314
Mof_C 	C 	0.019	0.5194	0.6056	0.429
Mof_C 	C 	0.8714	0.4844	0.413	0.082
Mof_Y 	Y 	0.441	0.872	0.7605	1.617
Mof_O 	O 	0.6706	0.8295	0.8615	-0.347
Mof_O 	O 	0.5685	0.9241	0.0843	-0.381
Mof_O 	O 	0.5238	0.7635	0.9722	-0.311
Mof_O 	O 	0.7081	0.675	0.1524	-0.355
Mof_O 	O 	0.8523	0.7369	0.0384	-0.391
Mof_O 	O 	0.5722	0.0166	0.27	-0.339
Mof_O 	O 	0.3185	0.0784	0.933	-0.287
Mof_O 	O 	0.3093	0.9824	0.753	-0.302
Mof_C 	C 	0.7371	0.7657	0.9842	0.286
Mof_C 	C 	0.6529	0.7283	0.0495	0.245
Mof_C 	C 	0.519	0.9806	0.1056	0.267
Mof_C 	C 	0.3714	0.0156	0.913	0.258
Mof_Y 	Y 	0.941	0.372	0.7605	1.281
Mof_O 	O 	0.1706	0.3295	0.8615	-0.246
Mof_O 	O 	0.0685	0.4241	0.0843	-0.317
Mof_O 	O 	0.0238	0.2635	0.9722	-0.195
Mof_O 	O 	0.2081	0.175	0.1524	-0.336
Mof_O 	O 	0.3523	0.2369	0.0384	-0.359
Mof_O 	O 	0.0722	0.5166	0.27	-0.261
Mof_O 	O 	0.8185	0.5784	0.933	-0.275
Mof_O 	O 	0.8093	0.4824	0.753	-0.289
Mof_C 	C 	0.2371	0.2657	0.9842	0.305
Mof_C 	C 	0.1529	0.2283	0.0495	0.25
Mof_C 	C 	0.019	0.4806	0.1056	0.406
Mof_C 	C 	0.8714	0.5156	0.913	0.104
_end
