data_functionalizedCrystal
_audit_creation_method	'EQeq! by Chris Wilmer'
_symmetry_space_group_name_H-M	'P1'
_symmetry_Int_Tables_number	1
_symmetry_cell_setting	triclinic
loop_
_symmetry_equiv_pos_as_xyz
  x,y,z
_cell_length_a	32.6205
_cell_length_b	32.6205
_cell_length_c	32.6205
_cell_angle_alpha	90
_cell_angle_beta	90
_cell_angle_gamma	90
loop_
_atom_site_label
_atom_site_type_symbol
_atom_site_fract_x
_atom_site_fract_y
_atom_site_fract_z
_atom_site_charge
Mof_O 	O 	0.1046	0.05413	0.99937	-0.587
Mof_O 	O 	0.89361	0.05439	0.00215	-0.654
Mof_O 	O 	0.00057	0.10414	0.94496	-0.595
Mof_O 	O 	0.99762	0.10435	0.0561	-0.683
Mof_O 	O 	0.99744	0.0545	0.10617	-0.648
Mof_O 	O 	0.00057	0.05414	0.89515	-0.598
Mof_O 	O 	0.94362	0.10429	0.002	-0.686
Mof_O 	O 	0.05467	0.10413	0.99914	-0.588
Mof_Zr	Zr	0.99911	0.07087	0.00062	3.218
Mof_O 	O 	0.96183	0.03608	0.03791	-1.287
Mof_O 	O 	0.03632	0.0358	0.96357	-1.221
Mof_C 	C 	0.09264	0.09212	0.9985	0.471
Mof_C 	C 	0.90563	0.09237	0.00281	0.481
Mof_C 	C 	0.00127	0.09225	0.9069	0.49
Mof_C 	C 	0.99677	0.09246	0.09411	0.481
Mof_H 	H 	0.94459	0.05322	0.94611	0.333
Mof_O 	O 	0.96207	0.03573	0.96365	-1.47
Mof_H 	H 	0.05354	0.0533	0.05528	0.328
Mof_O 	O 	0.03605	0.03579	0.03779	-1.483
Mof_O 	O 	0.89358	0.94335	0.9993	-0.623
Mof_O 	O 	0.10453	0.94302	0.0024	-0.69
Mof_O 	O 	0.94362	0.99704	0.89531	-0.68
Mof_O 	O 	0.94328	0.00035	0.10631	-0.631
Mof_O 	O 	0.05439	0.99741	0.10635	-0.65
Mof_O 	O 	0.0547	2e-05	0.89537	-0.593
Mof_O 	O 	0.9976	0.89313	0.94538	-0.648
Mof_O 	O 	0.00043	0.89334	0.05652	-0.633
Mof_O 	O 	0.99767	0.94294	0.89537	-0.683
Mof_O 	O 	0.00034	0.94341	0.10638	-0.63
Mof_O 	O 	0.89365	0.99723	0.94526	-0.645
Mof_O 	O 	0.10458	2e-05	0.9454	-0.589
Mof_O 	O 	0.10443	0.9972	0.05646	-0.685
Mof_O 	O 	0.89345	0.00031	0.05635	-0.635
Mof_O 	O 	0.94348	0.89332	0.99938	-0.622
Mof_O 	O 	0.0546	0.89316	0.00243	-0.66
Mof_Zr	Zr	0.92693	0.99883	0.0008	3.218
Mof_Zr	Zr	0.07118	0.99862	0.00088	3.218
Mof_Zr	Zr	0.99913	0.9986	0.92864	3.22
Mof_Zr	Zr	0.9989	0.99888	0.07295	3.221
Mof_Zr	Zr	0.99905	0.92658	0.0009	3.219
Mof_O 	O 	0.03615	0.96158	0.03811	-1.288
Mof_O 	O 	0.9619	0.96154	0.96369	-1.279
Mof_C 	C 	0.90552	0.90536	0.99856	0.482
Mof_C 	C 	0.09269	0.90494	0.00314	0.504
Mof_C 	C 	0.90565	0.99634	0.90729	0.481
Mof_C 	C 	0.90521	0.00104	0.09445	0.502
Mof_C 	C 	0.09239	0.99655	0.09442	0.482
Mof_C 	C 	0.09266	0.00076	0.90741	0.472
Mof_C 	C 	0.99691	0.90488	0.90728	0.502
Mof_C 	C 	0.00112	0.9054	0.09449	0.482
Mof_H 	H 	0.05363	0.94402	0.94637	0.332
Mof_O 	O 	0.03613	0.96157	0.96382	-1.474
Mof_H 	H 	0.94441	0.94432	0.05539	0.292
Mof_O 	O 	0.96195	0.96177	0.03788	-1.578
Mof_O 	O 	0.60426	0.55488	0.99924	-0.607
Mof_O 	O 	0.39325	0.55471	0.00204	-0.671
Mof_O 	O 	0.50021	0.60459	0.94483	-0.622
Mof_O 	O 	0.49714	0.60482	0.05593	-0.661
Mof_O 	O 	0.4972	0.55501	0.10606	-0.643
Mof_O 	O 	0.50038	0.55454	0.8951	-0.643
Mof_O 	O 	0.44313	0.60474	0.00185	-0.671
Mof_O 	O 	0.55421	0.60476	0.99899	-0.606
Mof_Zr	Zr	0.49873	0.57138	0.00051	3.227
Mof_O 	O 	0.46163	0.53648	0.03786	-1.292
Mof_O 	O 	0.53607	0.53637	0.96353	-1.254
Mof_C 	C 	0.5922	0.59283	0.99833	0.478
Mof_C 	C 	0.40515	0.59273	0.00264	0.479
Mof_C 	C 	0.50102	0.59265	0.90679	0.498
Mof_C 	C 	0.49637	0.59293	0.09394	0.484
Mof_H 	H 	0.44429	0.55358	0.94601	0.333
Mof_O 	O 	0.46179	0.53614	0.96357	-1.477
Mof_H 	H 	0.55327	0.554	0.0552	0.31
Mof_O 	O 	0.53581	0.53642	0.03774	-1.534
Mof_O 	O 	0.39349	0.44361	0.99939	-0.605
Mof_O 	O 	0.60447	0.44384	0.00251	-0.673
Mof_O 	O 	0.44344	0.49738	0.89527	-0.639
Mof_O 	O 	0.44326	0.50084	0.10631	-0.64
Mof_O 	O 	0.55439	0.4982	0.10643	-0.64
Mof_O 	O 	0.55459	0.50052	0.89537	-0.643
Mof_O 	O 	0.4976	0.39362	0.94554	-0.617
Mof_O 	O 	0.50045	0.39387	0.05659	-0.66
Mof_O 	O 	0.4976	0.44343	0.89542	-0.638
Mof_O 	O 	0.50038	0.44393	0.10644	-0.642
Mof_O 	O 	0.39348	0.49746	0.94524	-0.618
Mof_O 	O 	0.60443	0.50067	0.94534	-0.622
Mof_O 	O 	0.60442	0.49813	0.05654	-0.658
Mof_O 	O 	0.39334	0.50072	0.05631	-0.659
Mof_O 	O 	0.4435	0.3937	0.99953	-0.605
Mof_O 	O 	0.55457	0.39382	0.00256	-0.672
Mof_Zr	Zr	0.42674	0.49919	0.00078	3.227
Mof_Zr	Zr	0.57105	0.49932	0.00089	3.227
Mof_Zr	Zr	0.49897	0.49907	0.92864	3.237
Mof_Zr	Zr	0.49885	0.4994	0.07296	3.238
Mof_Zr	Zr	0.499	0.42711	0.00099	3.227
Mof_O 	O 	0.53613	0.46217	0.03815	-1.293
Mof_O 	O 	0.46181	0.46196	0.96371	-1.254
Mof_C 	C 	0.40551	0.40564	0.99871	0.477
Mof_C 	C 	0.59254	0.40584	0.00331	0.481
Mof_C 	C 	0.40546	0.4966	0.90727	0.477
Mof_C 	C 	0.40527	0.50152	0.09432	0.481
Mof_C 	C 	0.59242	0.49751	0.09454	0.479
Mof_C 	C 	0.59265	0.5013	0.90725	0.498
Mof_C 	C 	0.49688	0.40547	0.90751	0.476
Mof_C 	C 	0.50117	0.40592	0.09455	0.483
Mof_H 	H 	0.55357	0.44464	0.94644	0.333
Mof_O 	O 	0.53603	0.46216	0.96389	-1.476
Mof_H 	H 	0.44438	0.44476	0.05545	0.311
Mof_O 	O 	0.46186	0.46225	0.03792	-1.535
Mof_O 	O 	0.10365	0.55425	0.5	-0.638
Mof_O 	O 	0.89266	0.55467	0.50306	-0.646
Mof_O 	O 	0.99968	0.60451	0.4462	-0.735
Mof_O 	O 	0.99683	0.60431	0.55731	-0.661
Mof_O 	O 	0.99679	0.55424	0.60717	-0.661
Mof_O 	O 	0.99957	0.55467	0.39611	-0.736
Mof_O 	O 	0.94267	0.60447	0.5032	-0.652
Mof_O 	O 	0.05376	0.6043	0.5002	-0.612
Mof_Zr	Zr	0.99817	0.57104	0.50167	3.232
Mof_O 	O 	0.96094	0.53607	0.53879	-1.288
Mof_O 	O 	0.03525	0.53609	0.46434	-1.246
Mof_C 	C 	0.09173	0.59226	0.49935	0.475
Mof_C 	C 	0.90458	0.59271	0.50386	0.503
Mof_C 	C 	0.0004	0.59262	0.40818	0.63
Mof_C 	C 	0.99612	0.59228	0.59529	0.477
Mof_H 	H 	0.94356	0.55367	0.44706	0.32
Mof_O 	O 	0.96105	0.53611	0.46451	-1.522
Mof_H 	H 	0.05272	0.55321	0.55609	0.33
Mof_O 	O 	0.03518	0.53577	0.53857	-1.482
Mof_O 	O 	0.89256	0.44357	0.49983	-0.642
Mof_O 	O 	0.10355	0.44318	0.50269	-0.638
Mof_O 	O 	0.94236	0.49781	0.39595	-0.65
Mof_O 	O 	0.94253	0.50021	0.607	-0.646
Mof_O 	O 	0.05367	0.49707	0.6069	-0.612
Mof_O 	O 	0.05351	0.5005	0.39588	-0.611
Mof_O 	O 	0.99646	0.3935	0.44571	-0.661
Mof_O 	O 	0.99941	0.39322	0.55683	-0.733
Mof_O 	O 	0.9964	0.44358	0.39585	-0.662
Mof_O 	O 	0.99945	0.44305	0.60693	-0.733
Mof_O 	O 	0.89248	0.49781	0.44588	-0.644
Mof_O 	O 	0.10353	0.50032	0.44578	-0.638
Mof_O 	O 	0.10359	0.49713	0.55688	-0.639
Mof_O 	O 	0.89255	0.50041	0.55705	-0.64
Mof_O 	O 	0.94246	0.39354	0.49975	-0.647
Mof_O 	O 	0.05353	0.39328	0.50268	-0.611
Mof_Zr	Zr	0.92591	0.49906	0.50147	3.237
Mof_Zr	Zr	0.07022	0.49876	0.50138	3.237
Mof_Zr	Zr	0.99798	0.49905	0.4293	3.232
Mof_Zr	Zr	0.99809	0.49872	0.57366	3.232
Mof_Zr	Zr	0.99802	0.42674	0.50133	3.232
Mof_O 	O 	0.03524	0.46157	0.53857	-1.247
Mof_O 	O 	0.96081	0.46185	0.46423	-1.287
Mof_C 	C 	0.90451	0.40559	0.49898	0.482
Mof_C 	C 	0.09155	0.40519	0.50339	0.474
Mof_C 	C 	0.90428	0.49716	0.40778	0.501
Mof_C 	C 	0.90453	0.50104	0.59505	0.479
Mof_C 	C 	0.09164	0.4963	0.59487	0.476
Mof_C 	C 	0.09153	0.50117	0.4078	0.474
Mof_C 	C 	0.99567	0.40556	0.40774	0.478
Mof_C 	C 	0.00015	0.40507	0.59488	0.627
Mof_H 	H 	0.0525	0.44438	0.44674	0.33
Mof_O 	O 	0.03504	0.46187	0.46429	-1.483
Mof_H 	H 	0.94348	0.44433	0.5559	0.319
Mof_O 	O 	0.961	0.46185	0.53843	-1.521
Mof_O 	O 	0.6046	0.05403	0.49923	-0.612
Mof_O 	O 	0.39362	0.05383	0.50245	-0.609
Mof_O 	O 	0.50049	0.10406	0.44555	-0.639
Mof_O 	O 	0.4977	0.10375	0.5566	-0.638
Mof_O 	O 	0.49788	0.05367	0.60643	-0.609
Mof_O 	O 	0.5006	0.05425	0.39544	-0.621
Mof_O 	O 	0.44349	0.10387	0.50255	-0.637
Mof_O 	O 	0.55454	0.10389	0.49948	-0.64
Mof_Zr	Zr	0.49909	0.07053	0.50097	3.237
Mof_O 	O 	0.46202	0.03546	0.53814	-1.246
Mof_O 	O 	0.53635	0.03574	0.46366	-1.252
Mof_C 	C 	0.59252	0.09198	0.49859	0.477
Mof_C 	C 	0.40551	0.09185	0.50326	0.473
Mof_C 	C 	0.50128	0.0922	0.40752	0.476
Mof_C 	C 	0.49705	0.09168	0.59455	0.475
Mof_H 	H 	0.44456	0.05303	0.44642	0.331
Mof_O 	O 	0.4621	0.03551	0.46386	-1.482
Mof_H 	H 	0.55376	0.05283	0.55535	0.331
Mof_O 	O 	0.53626	0.03535	0.53784	-1.479
Mof_O 	O 	0.3938	0.94281	0.49933	-0.646
Mof_O 	O 	0.6048	0.94291	0.50201	-0.647
Mof_O 	O 	0.44365	0.99713	0.39536	-0.666
Mof_O 	O 	0.44384	0.99961	0.60634	-0.742
Mof_O 	O 	0.55488	0.99669	0.60614	-0.664
Mof_O 	O 	0.55474	0.0001	0.39515	-0.627
Mof_O 	O 	0.4977	0.89308	0.44508	-0.643
Mof_O 	O 	0.50082	0.89272	0.55619	-0.64
Mof_O 	O 	0.49763	0.94319	0.39525	-0.658
Mof_O 	O 	0.50082	0.94258	0.60624	-0.645
Mof_O 	O 	0.39374	0.99691	0.44538	-0.664
Mof_O 	O 	0.60477	0.99998	0.44503	-0.723
Mof_O 	O 	0.6048	0.9969	0.55613	-0.664
Mof_O 	O 	0.39382	0.9997	0.55644	-0.742
Mof_O 	O 	0.44376	0.89284	0.4992	-0.64
Mof_O 	O 	0.55488	0.8929	0.50202	-0.641
Mof_Zr	Zr	0.4271	0.99835	0.50088	3.231
Mof_Zr	Zr	0.5714	0.99843	0.50064	3.231
Mof_Zr	Zr	0.49921	0.99861	0.42865	3.229
Mof_Zr	Zr	0.49931	0.9982	0.57293	3.231
Mof_Zr	Zr	0.4993	0.92623	0.50069	3.237
Mof_O 	O 	0.53652	0.96115	0.53785	-1.289
Mof_O 	O 	0.4621	0.96131	0.4636	-1.288
Mof_C 	C 	0.40577	0.90483	0.49851	0.48
Mof_C 	C 	0.59286	0.90491	0.50275	0.479
Mof_C 	C 	0.40568	0.99627	0.40739	0.481
Mof_C 	C 	0.40585	0.00039	0.5944	0.641
Mof_C 	C 	0.59284	0.99602	0.59412	0.48
Mof_C 	C 	0.59277	0.00079	0.40704	0.556
Mof_C 	C 	0.49686	0.9052	0.40715	0.484
Mof_C 	C 	0.50156	0.9046	0.59421	0.478
Mof_H 	H 	0.55377	0.94399	0.44606	0.316
Mof_O 	O 	0.53627	0.96144	0.46361	-1.527
Mof_H 	H 	0.44478	0.94368	0.55531	0.32
Mof_O 	O 	0.46225	0.96122	0.53782	-1.523
Mof_C 	C 	0.18616	0.18586	0.99587	0.022
Mof_C 	C 	0.19692	0.14413	0.99638	-0.055
Mof_C 	C 	0.16666	0.11375	0.99708	0.044
Mof_C 	C 	0.12484	0.12434	0.99725	-0.109
Mof_C 	C 	0.11412	0.16612	0.99646	0.044
Mof_C 	C 	0.14439	0.19646	0.9958	-0.051
Mof_C 	C 	0.21834	0.21821	0.99571	0.086
Mof_C 	C 	0.2136	0.25396	0.01932	-0.118
Mof_C 	C 	0.24387	0.28432	0.01934	-0.118
Mof_C 	C 	0.27965	0.2797	0.99576	0.084
Mof_C 	C 	0.28439	0.24396	0.97212	-0.043
Mof_C 	C 	0.25411	0.21359	0.9721	-0.044
Mof_C 	C 	0.31193	0.31196	0.99599	0.023
Mof_C 	C 	0.35368	0.30128	0.99651	-0.059
Mof_C 	C 	0.384	0.3316	0.99725	0.045
Mof_C 	C 	0.37333	0.3734	0.99747	-0.118
Mof_C 	C 	0.33153	0.38405	0.99669	0.044
Mof_C 	C 	0.30124	0.35371	0.99598	-0.056
Mof_H 	H 	0.2288	0.13493	0.99694	0.063
Mof_H 	H 	0.17613	0.08194	0.99772	0.063
Mof_H 	H 	0.08227	0.1755	0.99637	0.062
Mof_H 	H 	0.13506	0.2283	0.99481	0.068
Mof_H 	H 	0.18676	0.25818	0.03838	0.036
Mof_H 	H 	0.23957	0.31114	0.03843	0.033
Mof_H 	H 	0.31128	0.23974	0.95313	0.048
Mof_H 	H 	0.25842	0.18673	0.95309	0.049
Mof_H 	H 	0.36295	0.26942	0.99704	0.06
Mof_H 	H 	0.41582	0.32218	0.99789	0.053
Mof_H 	H 	0.3221	0.41587	0.99663	0.053
Mof_H 	H 	0.26939	0.36298	0.99499	0.065
Mof_C 	C 	0.18553	0.68577	0.49649	0.037
Mof_C 	C 	0.19615	0.644	0.49678	-0.077
Mof_C 	C 	0.16579	0.61371	0.49758	0.044
Mof_C 	C 	0.124	0.62442	0.49808	-0.13
Mof_C 	C 	0.11342	0.66624	0.49754	0.046
Mof_C 	C 	0.14379	0.6965	0.49678	-0.076
Mof_C 	C 	0.21785	0.71802	0.49617	-0.001
Mof_C 	C 	0.21341	0.75376	0.51986	-0.037
Mof_C 	C 	0.24382	0.78398	0.51976	-0.036
Mof_C 	C 	0.27946	0.77925	0.49597	-0.004
Mof_C 	C 	0.28391	0.74352	0.47226	-0.036
Mof_C 	C 	0.25348	0.71328	0.47235	-0.037
Mof_C 	C 	0.31187	0.8114	0.49604	0.038
Mof_C 	C 	0.3536	0.80059	0.49626	-0.081
Mof_C 	C 	0.38403	0.83082	0.49689	0.046
Mof_C 	C 	0.3735	0.87266	0.49729	-0.139
Mof_C 	C 	0.33173	0.88342	0.49678	0.045
Mof_C 	C 	0.30134	0.85319	0.49619	-0.082
Mof_H 	H 	0.228	0.63468	0.49709	0.049
Mof_H 	H 	0.17518	0.58188	0.49803	0.037
Mof_H 	H 	0.0816	0.67572	0.49771	0.047
Mof_H 	H 	0.13455	0.72837	0.49597	0.052
Mof_H 	H 	0.1867	0.75806	0.53908	0.04
Mof_H 	H 	0.23974	0.81079	0.5389	0.036
Mof_H 	H 	0.31067	0.7392	0.45311	0.037
Mof_H 	H 	0.25758	0.68643	0.45328	0.038
Mof_H 	H 	0.36277	0.7687	0.49665	0.049
Mof_H 	H 	0.41583	0.82131	0.49731	0.035
Mof_H 	H 	0.32238	0.91527	0.49687	0.029
Mof_H 	H 	0.2695	0.86257	0.49542	0.046
Mof_C 	C 	0.81166	0.81212	0.99555	0.021
Mof_C 	C 	0.80112	0.8539	0.99567	-0.061
Mof_C 	C 	0.83152	0.88409	0.99647	0.043
Mof_C 	C 	0.87326	0.87327	0.99722	-0.128
Mof_C 	C 	0.88379	0.83144	0.99685	0.044
Mof_C 	C 	0.85336	0.80126	0.99602	-0.065
Mof_C 	C 	0.77928	0.78003	0.99524	0.081
Mof_C 	C 	0.7838	0.74445	0.97135	-0.046
Mof_C 	C 	0.75342	0.71419	0.9713	-0.047
Mof_C 	C 	0.71781	0.71881	0.99512	0.084
Mof_C 	C 	0.71326	0.75443	0.01895	-0.123
Mof_C 	C 	0.74363	0.78467	0.01901	-0.122
Mof_C 	C 	0.68562	0.68652	0.99536	0.02
Mof_C 	C 	0.64386	0.69716	0.99546	-0.056
Mof_C 	C 	0.6136	0.66682	0.99622	0.043
Mof_C 	C 	0.62434	0.62506	0.99697	-0.119
Mof_C 	C 	0.66615	0.61445	0.99663	0.044
Mof_C 	C 	0.69639	0.6448	0.99583	-0.06
Mof_H 	H 	0.7693	0.86329	0.99472	0.059
Mof_H 	H 	0.8222	0.91596	0.99652	0.042
Mof_H 	H 	0.91558	0.8219	0.99745	0.041
Mof_H 	H 	0.86249	0.76935	0.99644	0.051
Mof_H 	H 	0.8106	0.74024	0.95222	0.043
Mof_H 	H 	0.75756	0.68741	0.95213	0.044
Mof_H 	H 	0.68652	0.75861	0.03817	0.028
Mof_H 	H 	0.73952	0.81139	0.03827	0.025
Mof_H 	H 	0.63455	0.729	0.99452	0.062
Mof_H 	H 	0.58175	0.6762	0.99626	0.052
Mof_H 	H 	0.67563	0.58264	0.99723	0.051
Mof_H 	H 	0.72828	0.6356	0.99628	0.054
Mof_C 	C 	0.81096	0.31212	0.49581	0.039
Mof_C 	C 	0.80026	0.35385	0.4961	-0.081
Mof_C 	C 	0.83055	0.38415	0.49695	0.047
Mof_C 	C 	0.87233	0.37345	0.49758	-0.141
Mof_C 	C 	0.88299	0.33165	0.49705	0.046
Mof_C 	C 	0.85268	0.30138	0.49617	-0.082
Mof_C 	C 	0.77873	0.2799	0.49549	-0.004
Mof_C 	C 	0.78333	0.24443	0.47145	-0.036
Mof_C 	C 	0.75314	0.21401	0.47145	-0.037
Mof_C 	C 	0.71763	0.21835	0.49548	-0.001
Mof_C 	C 	0.713	0.25386	0.51946	-0.037
Mof_C 	C 	0.74319	0.28427	0.51947	-0.036
Mof_C 	C 	0.6856	0.18593	0.49572	0.038
Mof_C 	C 	0.64382	0.19643	0.49594	-0.078
Mof_C 	C 	0.61368	0.166	0.49669	0.045
Mof_C 	C 	0.62457	0.12426	0.49729	-0.131
Mof_C 	C 	0.66641	0.11379	0.49682	0.047
Mof_C 	C 	0.69654	0.14426	0.49603	-0.076
Mof_H 	H 	0.7684	0.36313	0.49526	0.049
Mof_H 	H 	0.82114	0.41599	0.49713	0.035
Mof_H 	H 	0.91481	0.32221	0.49756	0.03
Mof_H 	H 	0.86192	0.2695	0.49647	0.047
Mof_H 	H 	0.81006	0.24044	0.45218	0.037
Mof_H 	H 	0.75732	0.18731	0.45216	0.039
Mof_H 	H 	0.68634	0.25781	0.53883	0.039
Mof_H 	H 	0.73903	0.3109	0.53884	0.037
Mof_H 	H 	0.63439	0.22824	0.49511	0.049
Mof_H 	H 	0.5818	0.17527	0.49682	0.037
Mof_H 	H 	0.67599	0.082	0.4973	0.047
Mof_H 	H 	0.72847	0.13518	0.49637	0.053
Mof_C 	C 	0.8122	0.18625	0.00559	0.054
Mof_C 	C 	0.85399	0.19681	0.00528	-0.104
Mof_C 	C 	0.88423	0.16642	0.00453	0.047
Mof_C 	C 	0.87347	0.12465	0.00404	-0.154
Mof_C 	C 	0.83164	0.11411	0.00456	0.049
Mof_C 	C 	0.80141	0.14452	0.00534	-0.097
Mof_C 	C 	0.78003	0.21863	0.00591	-0.089
Mof_C 	C 	0.74442	0.21407	0.02978	-0.028
Mof_C 	C 	0.71412	0.24443	0.02988	-0.028
Mof_C 	C 	0.71867	0.28011	0.0061	-0.089
Mof_C 	C 	0.75431	0.28468	0.98228	0.046
Mof_C 	C 	0.7846	0.25433	0.98219	0.046
Mof_C 	C 	0.68634	0.31233	0.00595	0.054
Mof_C 	C 	0.69694	0.3541	0.00569	-0.103
Mof_C 	C 	0.66658	0.38438	0.00504	0.048
Mof_C 	C 	0.6248	0.37366	0.00457	-0.154
Mof_C 	C 	0.61422	0.33184	0.00506	0.048
Mof_C 	C 	0.6446	0.30158	0.00575	-0.099
Mof_H 	H 	0.86336	0.22864	0.00605	0.029
Mof_H 	H 	0.91609	0.17577	0.00435	0.011
Mof_H 	H 	0.82214	0.0823	0.00415	0.03
Mof_H 	H 	0.76952	0.13534	0.00506	0.047
Mof_H 	H 	0.74024	0.18726	0.04889	0.033
Mof_H 	H 	0.68736	0.24024	0.04906	0.032
Mof_H 	H 	0.75847	0.31144	0.96309	0.042
Mof_H 	H 	0.81131	0.2585	0.96293	0.041
Mof_H 	H 	0.72878	0.36343	0.00643	0.032
Mof_H 	H 	0.67596	0.41622	0.00487	0.018
Mof_H 	H 	0.5824	0.32236	0.00467	0.021
Mof_H 	H 	0.63538	0.2697	0.00543	0.043
Mof_C 	C 	0.81263	0.68519	0.50631	0.043
Mof_C 	C 	0.8544	0.6957	0.50621	-0.091
Mof_C 	C 	0.88467	0.66533	0.50562	0.061
Mof_C 	C 	0.87404	0.6234	0.50503	-0.173
Mof_C 	C 	0.83205	0.61302	0.50539	0.062
Mof_C 	C 	0.80185	0.64348	0.50603	-0.089
Mof_C 	C 	0.78044	0.7176	0.50639	-0.007
Mof_C 	C 	0.74463	0.71305	0.52996	-0.036
Mof_C 	C 	0.71431	0.74341	0.5298	-0.038
Mof_C 	C 	0.71904	0.77909	0.50606	-0.004
Mof_C 	C 	0.75488	0.78365	0.48254	-0.04
Mof_C 	C 	0.78518	0.7533	0.4827	-0.038
Mof_C 	C 	0.68668	0.81133	0.50566	0.036
Mof_C 	C 	0.69728	0.85312	0.50541	-0.082
Mof_C 	C 	0.66692	0.88341	0.50461	0.043
Mof_C 	C 	0.62513	0.87271	0.504	-0.139
Mof_C 	C 	0.61455	0.83088	0.50444	0.045
Mof_C 	C 	0.64494	0.80061	0.50528	-0.08
Mof_H 	H 	0.86376	0.72754	0.50703	0.044
Mof_H 	H 	0.91645	0.67495	0.50558	0.024
Mof_H 	H 	0.82224	0.5813	0.50494	0.032
Mof_H 	H 	0.76995	0.63432	0.50559	0.05
Mof_H 	H 	0.74029	0.68624	0.54905	0.037
Mof_H 	H 	0.6874	0.73921	0.54877	0.038
Mof_H 	H 	0.7592	0.81041	0.46338	0.03
Mof_H 	H 	0.81204	0.75748	0.46365	0.03
Mof_H 	H 	0.72912	0.86245	0.50629	0.042
Mof_H 	H 	0.6763	0.91525	0.50449	0.027
Mof_H 	H 	0.58274	0.82141	0.50394	0.035
Mof_H 	H 	0.63571	0.76873	0.50493	0.048
Mof_C 	C 	0.1852	0.31132	0.50591	0.038
Mof_C 	C 	0.19589	0.35308	0.50566	-0.077
Mof_C 	C 	0.1656	0.38347	0.50498	0.044
Mof_C 	C 	0.12377	0.3729	0.50455	-0.129
Mof_C 	C 	0.11309	0.3311	0.50503	0.046
Mof_C 	C 	0.1434	0.30073	0.50568	-0.075
Mof_C 	C 	0.21747	0.27895	0.50615	-0.001
Mof_C 	C 	0.21285	0.24312	0.48261	-0.035
Mof_C 	C 	0.24322	0.21282	0.48261	-0.035
Mof_C 	C 	0.27904	0.21754	0.50614	-0.001
Mof_C 	C 	0.28365	0.25334	0.52973	-0.036
Mof_C 	C 	0.25327	0.28365	0.52973	-0.036
Mof_C 	C 	0.31148	0.18534	0.50592	0.038
Mof_C 	C 	0.35323	0.19611	0.50566	-0.077
Mof_C 	C 	0.38367	0.16588	0.50495	0.044
Mof_C 	C 	0.37318	0.12402	0.50451	-0.128
Mof_C 	C 	0.33139	0.11328	0.50503	0.046
Mof_C 	C 	0.30098	0.14352	0.5057	-0.075
Mof_H 	H 	0.22777	0.36232	0.50531	0.049
Mof_H 	H 	0.17507	0.41528	0.50457	0.037
Mof_H 	H 	0.08125	0.32171	0.50491	0.048
Mof_H 	H 	0.13407	0.26889	0.50645	0.056
Mof_H 	H 	0.18601	0.2388	0.46356	0.044
Mof_H 	H 	0.23897	0.18598	0.46355	0.044
Mof_H 	H 	0.31054	0.25768	0.54871	0.038
Mof_H 	H 	0.25754	0.31054	0.54871	0.038
Mof_H 	H 	0.36241	0.228	0.5053	0.049
Mof_H 	H 	0.41547	0.1754	0.50452	0.037
Mof_H 	H 	0.32206	0.08142	0.5049	0.049
Mof_H 	H 	0.26915	0.13413	0.50649	0.056
Mof_C 	C 	0.18487	0.81251	0.00553	0.06
Mof_C 	C 	0.19555	0.85426	0.00531	-0.108
Mof_C 	C 	0.16529	0.88469	0.00468	0.062
Mof_C 	C 	0.12329	0.87427	0.00426	-0.187
Mof_C 	C 	0.11276	0.83231	0.00477	0.066
Mof_C 	C 	0.14309	0.80196	0.00537	-0.109
Mof_C 	C 	0.21716	0.7801	0.00566	-0.091
Mof_C 	C 	0.21243	0.74424	0.98218	0.048
Mof_C 	C 	0.24279	0.71391	0.9821	0.047
Mof_C 	C 	0.27871	0.71861	0.00549	-0.089
Mof_C 	C 	0.28343	0.75445	0.02901	-0.03
Mof_C 	C 	0.25306	0.78479	0.02909	-0.028
Mof_C 	C 	0.31114	0.68635	0.00519	0.053
Mof_C 	C 	0.3529	0.69707	0.00489	-0.098
Mof_C 	C 	0.38333	0.6668	0.00419	0.046
Mof_C 	C 	0.37281	0.62495	0.00379	-0.153
Mof_C 	C 	0.33101	0.61425	0.00431	0.047
Mof_C 	C 	0.30061	0.64454	0.00497	-0.102
Mof_H 	H 	0.22743	0.86349	0.00492	0.038
Mof_H 	H 	0.17505	0.91642	0.00428	0.008
Mof_H 	H 	0.08099	0.82264	0.00469	0.025
Mof_H 	H 	0.13376	0.77012	0.00614	0.041
Mof_H 	H 	0.18552	0.73992	0.96324	0.046
Mof_H 	H 	0.23843	0.68705	0.96309	0.046
Mof_H 	H 	0.31039	0.7588	0.04788	0.029
Mof_H 	H 	0.25743	0.81169	0.04803	0.028
Mof_H 	H 	0.36212	0.72895	0.00453	0.039
Mof_H 	H 	0.41513	0.6763	0.00375	0.02
Mof_H 	H 	0.32165	0.5824	0.00421	0.021
Mof_H 	H 	0.26878	0.63516	0.00579	0.036
Mof_C 	C 	0.99372	0.18633	0.18759	0.05
Mof_C 	C 	0.99406	0.19691	0.14581	-0.1
Mof_C 	C 	0.99489	0.16654	0.11554	0.046
Mof_C 	C 	0.99545	0.12475	0.12627	-0.151
Mof_C 	C 	0.9949	0.1142	0.1681	0.049
Mof_C 	C 	0.99404	0.1446	0.19835	-0.093
Mof_C 	C 	0.9933	0.21869	0.21981	-0.07
Mof_C 	C 	0.96948	0.21401	0.25544	-0.03
Mof_C 	C 	0.96934	0.24431	0.28581	-0.03
Mof_C 	C 	0.99302	0.28005	0.28132	-0.07
Mof_C 	C 	0.01678	0.28476	0.24566	0.027
Mof_C 	C 	0.01692	0.25447	0.2153	0.028
Mof_C 	C 	0.99313	0.31221	0.31374	0.05
Mof_C 	C 	0.9933	0.35401	0.30323	-0.097
Mof_C 	C 	0.99391	0.38423	0.33365	0.046
Mof_C 	C 	0.99443	0.37343	0.37542	-0.149
Mof_C 	C 	0.99401	0.33159	0.38591	0.047
Mof_C 	C 	0.99336	0.30138	0.35546	-0.094
Mof_H 	H 	0.99324	0.22875	0.13645	0.031
Mof_H 	H 	0.9951	0.1759	0.08369	0.013
Mof_H 	H 	0.99536	0.0824	0.1776	0.033
Mof_H 	H 	0.99431	0.13539	0.23023	0.048
Mof_H 	H 	0.95044	0.18714	0.25959	0.034
Mof_H 	H 	0.9502	0.24	0.31259	0.033
Mof_H 	H 	0.03589	0.31158	0.24153	0.04
Mof_H 	H 	0.03614	0.25875	0.18858	0.038
Mof_H 	H 	0.99253	0.36341	0.27141	0.035
Mof_H 	H 	0.99402	0.41609	0.32434	0.023
Mof_H 	H 	0.99444	0.32205	0.41771	0.026
Mof_H 	H 	0.99374	0.26948	0.36462	0.045
Mof_C 	C 	0.49427	0.3114	0.81423	0.039
Mof_C 	C 	0.49455	0.35312	0.80337	-0.077
Mof_C 	C 	0.49526	0.38359	0.83355	0.045
Mof_C 	C 	0.49568	0.37313	0.87541	-0.13
Mof_C 	C 	0.49515	0.33137	0.88623	0.047
Mof_C 	C 	0.49448	0.30092	0.85603	-0.075
Mof_C 	C 	0.49403	0.27896	0.78209	-0.001
Mof_C 	C 	0.51771	0.24324	0.78678	-0.034
Mof_C 	C 	0.51772	0.21286	0.75651	-0.034
Mof_C 	C 	0.49405	0.21741	0.72077	-0.001
Mof_C 	C 	0.4703	0.25309	0.71611	-0.036
Mof_C 	C 	0.47029	0.28348	0.74639	-0.036
Mof_C 	C 	0.49433	0.18518	0.68842	0.039
Mof_C 	C 	0.49461	0.19592	0.64668	-0.077
Mof_C 	C 	0.49536	0.16567	0.61629	0.045
Mof_C 	C 	0.49583	0.12384	0.62685	-0.129
Mof_C 	C 	0.49531	0.11312	0.66863	0.047
Mof_C 	C 	0.4946	0.14339	0.699	-0.075
Mof_H 	H 	0.49492	0.36225	0.77146	0.049
Mof_H 	H 	0.49571	0.41537	0.82399	0.037
Mof_H 	H 	0.49526	0.32207	0.9181	0.049
Mof_H 	H 	0.49368	0.26911	0.86546	0.057
Mof_H 	H 	0.53686	0.23908	0.81357	0.046
Mof_H 	H 	0.53688	0.18609	0.76077	0.045
Mof_H 	H 	0.45122	0.25727	0.68927	0.038
Mof_H 	H 	0.45121	0.3103	0.7421	0.038
Mof_H 	H 	0.49494	0.22781	0.63747	0.049
Mof_H 	H 	0.49579	0.17517	0.58449	0.037
Mof_H 	H 	0.49546	0.08127	0.678	0.049
Mof_H 	H 	0.49381	0.13405	0.73084	0.057
Mof_C 	C 	0.99421	0.81229	0.81527	0.056
Mof_C 	C 	0.99451	0.85402	0.80451	-0.103
Mof_C 	C 	0.99527	0.8845	0.83471	0.062
Mof_C 	C 	0.99574	0.87416	0.87672	-0.182
Mof_C 	C 	0.99517	0.83222	0.88734	0.065
Mof_C 	C 	0.99445	0.80182	0.85706	-0.103
Mof_C 	C 	0.99389	0.77983	0.78305	-0.072
Mof_C 	C 	0.01731	0.74392	0.78777	0.03
Mof_C 	C 	0.01721	0.71353	0.75748	0.029
Mof_C 	C 	0.9937	0.71822	0.72163	-0.069
Mof_C 	C 	0.97023	0.75409	0.71693	-0.031
Mof_C 	C 	0.97033	0.78449	0.74724	-0.03
Mof_C 	C 	0.99384	0.68593	0.68924	0.05
Mof_C 	C 	0.99404	0.69662	0.64748	-0.094
Mof_C 	C 	0.99463	0.66633	0.61708	0.045
Mof_C 	C 	0.99503	0.62449	0.62762	-0.148
Mof_C 	C 	0.9946	0.61381	0.66942	0.047
Mof_C 	C 	0.99404	0.64412	0.6998	-0.096
Mof_H 	H 	0.99486	0.86318	0.77261	0.04
Mof_H 	H 	0.99572	0.91622	0.8249	0.012
Mof_H 	H 	0.99528	0.8226	0.91912	0.031
Mof_H 	H 	0.99361	0.76999	0.86646	0.045
Mof_H 	H 	0.03635	0.73961	0.81462	0.046
Mof_H 	H 	0.03618	0.68664	0.76181	0.045
Mof_H 	H 	0.95126	0.75843	0.69004	0.031
Mof_H 	H 	0.95143	0.81143	0.74289	0.03
Mof_H 	H 	0.99442	0.72849	0.63823	0.041
Mof_H 	H 	0.99501	0.67582	0.58526	0.024
Mof_H 	H 	0.9947	0.58197	0.6788	0.025
Mof_H 	H 	0.99331	0.63477	0.73164	0.04
Mof_C 	C 	0.49327	0.68667	0.1872	0.037
Mof_C 	C 	0.49342	0.69728	0.14545	-0.084
Mof_C 	C 	0.49423	0.66693	0.11522	0.045
Mof_C 	C 	0.49497	0.62518	0.12601	-0.144
Mof_C 	C 	0.49458	0.61459	0.16783	0.047
Mof_C 	C 	0.49373	0.64497	0.19803	-0.082
Mof_C 	C 	0.49301	0.71896	0.21934	-0.005
Mof_C 	C 	0.46907	0.71439	0.25489	-0.037
Mof_C 	C 	0.46916	0.74463	0.28527	-0.038
Mof_C 	C 	0.49318	0.78012	0.2808	-0.005
Mof_C 	C 	0.51704	0.78472	0.24521	-0.04
Mof_C 	C 	0.51696	0.7545	0.21485	-0.039
Mof_C 	C 	0.49356	0.81215	0.3132	0.037
Mof_C 	C 	0.49373	0.85393	0.3027	-0.084
Mof_C 	C 	0.49463	0.88407	0.33313	0.045
Mof_C 	C 	0.49542	0.87317	0.37486	-0.143
Mof_C 	C 	0.49501	0.83133	0.38534	0.047
Mof_C 	C 	0.49408	0.80121	0.35487	-0.082
Mof_H 	H 	0.4925	0.72912	0.13611	0.041
Mof_H 	H 	0.49431	0.67627	0.08336	0.023
Mof_H 	H 	0.49518	0.5828	0.17734	0.035
Mof_H 	H 	0.49415	0.6358	0.22993	0.048
Mof_H 	H 	0.44982	0.68767	0.25897	0.037
Mof_H 	H 	0.44996	0.74048	0.31203	0.037
Mof_H 	H 	0.53639	0.81138	0.24116	0.029
Mof_H 	H 	0.53625	0.75861	0.18815	0.029
Mof_H 	H 	0.49276	0.86336	0.27089	0.042
Mof_H 	H 	0.49471	0.91595	0.32386	0.025
Mof_H 	H 	0.49564	0.82175	0.41711	0.035
Mof_H 	H 	0.49447	0.76928	0.36395	0.048
Mof_C 	C 	0.00368	0.81213	0.1885	0.024
Mof_C 	C 	0.00341	0.80127	0.14679	-0.07
Mof_C 	C 	0.00273	0.83145	0.11633	0.043
Mof_C 	C 	0.00232	0.8733	0.12681	-0.133
Mof_C 	C 	0.00285	0.88412	0.16856	0.043
Mof_C 	C 	0.00349	0.85393	0.19899	-0.066
Mof_C 	C 	0.00386	0.78001	0.22093	0.063
Mof_C 	C 	0.98009	0.78471	0.25659	-0.105
Mof_C 	C 	0.98004	0.75446	0.28698	-0.103
Mof_C 	C 	0.00373	0.71874	0.28248	0.061
Mof_C 	C 	0.02756	0.71406	0.24686	-0.044
Mof_C 	C 	0.02762	0.74433	0.21646	-0.045
Mof_C 	C 	0.00338	0.68642	0.3147	0.033
Mof_C 	C 	0.00302	0.64469	0.30395	-0.077
Mof_C 	C 	0.00219	0.61431	0.33421	0.07
Mof_C 	C 	0.00173	0.62489	0.37603	-0.17
Mof_C 	C 	0.00233	0.66667	0.38676	0.07
Mof_C 	C 	0.00312	0.69703	0.35648	-0.074
Mof_H 	H 	0.00303	0.76936	0.13766	0.048
Mof_H 	H 	0.00229	0.82189	0.08454	0.035
Mof_H 	H 	0.00275	0.91599	0.17786	0.038
Mof_H 	H 	0.00429	0.86335	0.23081	0.055
Mof_H 	H 	0.96092	0.8115	0.2607	0.026
Mof_H 	H 	0.96082	0.75872	0.31371	0.028
Mof_H 	H 	0.04665	0.68723	0.24272	0.041
Mof_H 	H 	0.04675	0.74004	0.18968	0.041
Mof_H 	H 	0.00269	0.63547	0.27207	0.055
Mof_H 	H 	0.0017	0.5825	0.32472	0.046
Mof_H 	H 	0.00218	0.67604	0.4186	0.047
Mof_H 	H 	0.00397	0.72887	0.36581	0.062
Mof_C 	C 	0.50377	0.6846	0.81416	0.044
Mof_C 	C 	0.50339	0.69538	0.85588	-0.083
Mof_C 	C 	0.50261	0.6652	0.88637	0.063
Mof_C 	C 	0.5022	0.62318	0.87605	-0.163
Mof_C 	C 	0.50286	0.61254	0.83412	0.061
Mof_C 	C 	0.5036	0.6428	0.80371	-0.085
Mof_C 	C 	0.5041	0.7168	0.78169	-0.003
Mof_C 	C 	0.48073	0.71205	0.74576	-0.036
Mof_C 	C 	0.4808	0.74235	0.71538	-0.037
Mof_C 	C 	0.50426	0.77823	0.7201	-0.003
Mof_C 	C 	0.52769	0.78295	0.75599	-0.036
Mof_C 	C 	0.52761	0.75264	0.78638	-0.036
Mof_C 	C 	0.50408	0.81063	0.68783	0.037
Mof_C 	C 	0.50378	0.8524	0.69854	-0.081
Mof_C 	C 	0.50312	0.88281	0.66827	0.044
Mof_C 	C 	0.50276	0.87228	0.62642	-0.138
Mof_C 	C 	0.50331	0.83048	0.61573	0.045
Mof_C 	C 	0.50393	0.80009	0.64602	-0.08
Mof_H 	H 	0.50299	0.72728	0.86502	0.056
Mof_H 	H 	0.5021	0.67503	0.91808	0.044
Mof_H 	H 	0.50279	0.58075	0.82453	0.034
Mof_H 	H 	0.50449	0.63339	0.77189	0.051
Mof_H 	H 	0.46173	0.68518	0.74143	0.038
Mof_H 	H 	0.46186	0.738	0.68847	0.037
Mof_H 	H 	0.54661	0.80987	0.76035	0.038
Mof_H 	H 	0.54648	0.75702	0.81334	0.039
Mof_H 	H 	0.50335	0.86162	0.73042	0.047
Mof_H 	H 	0.50265	0.91461	0.67776	0.029
Mof_H 	H 	0.50324	0.82111	0.58388	0.036
Mof_H 	H 	0.50475	0.76825	0.63666	0.049
Mof_C 	C 	0.50395	0.31244	0.18841	0.038
Mof_C 	C 	0.50368	0.30168	0.14668	-0.083
Mof_C 	C 	0.50292	0.33193	0.11628	0.045
Mof_C 	C 	0.50243	0.37376	0.12684	-0.142
Mof_C 	C 	0.50296	0.38449	0.16863	0.047
Mof_C 	C 	0.50368	0.35422	0.199	-0.081
Mof_C 	C 	0.50422	0.28022	0.22076	-0.004
Mof_C 	C 	0.48052	0.28477	0.25648	-0.036
Mof_C 	C 	0.48052	0.2544	0.28676	-0.037
Mof_C 	C 	0.50421	0.21869	0.2821	-0.001
Mof_C 	C 	0.52798	0.21416	0.24641	-0.037
Mof_C 	C 	0.52798	0.24454	0.21613	-0.036
Mof_C 	C 	0.50395	0.18626	0.31423	0.038
Mof_C 	C 	0.50367	0.14454	0.30338	-0.076
Mof_C 	C 	0.50294	0.11408	0.33357	0.046
Mof_C 	C 	0.5025	0.12455	0.37542	-0.131
Mof_C 	C 	0.50302	0.16631	0.38624	0.045
Mof_C 	C 	0.50372	0.19674	0.35604	-0.077
Mof_H 	H 	0.50335	0.2698	0.13747	0.045
Mof_H 	H 	0.50248	0.32244	0.08448	0.025
Mof_H 	H 	0.50279	0.41634	0.17799	0.035
Mof_H 	H 	0.50446	0.36357	0.23083	0.049
Mof_H 	H 	0.46134	0.31153	0.26072	0.037
Mof_H 	H 	0.46134	0.25856	0.31353	0.038
Mof_H 	H 	0.54707	0.18735	0.24215	0.039
Mof_H 	H 	0.54708	0.24036	0.18931	0.037
Mof_H 	H 	0.50333	0.13541	0.27148	0.052
Mof_H 	H 	0.5025	0.08229	0.32401	0.045
Mof_H 	H 	0.5029	0.1756	0.41811	0.037
Mof_H 	H 	0.50452	0.22856	0.36546	0.049
Mof_C 	C 	0.00352	0.18444	0.81441	0.032
Mof_C 	C 	0.00333	0.19511	0.85617	-0.066
Mof_C 	C 	0.00275	0.16485	0.8866	0.06
Mof_C 	C 	0.00234	0.12285	0.8762	-0.142
Mof_C 	C 	0.00281	0.11231	0.83423	0.059
Mof_C 	C 	0.00335	0.14265	0.80388	-0.063
Mof_C 	C 	0.0036	0.21675	0.78201	0.066
Mof_C 	C 	0.98012	0.21202	0.74615	-0.099
Mof_C 	C 	0.97996	0.24243	0.71585	-0.098
Mof_C 	C 	0.00327	0.2784	0.72058	0.062
Mof_C 	C 	0.02681	0.2831	0.75641	-0.04
Mof_C 	C 	0.02698	0.25269	0.78672	-0.042
Mof_C 	C 	0.00289	0.31089	0.68837	0.036
Mof_C 	C 	0.0026	0.35264	0.69915	-0.076
Mof_C 	C 	0.00182	0.38312	0.66892	0.071
Mof_C 	C 	0.00135	0.37268	0.62705	-0.167
Mof_C 	C 	0.00186	0.33089	0.61629	0.07
Mof_C 	C 	0.0026	0.30044	0.64653	-0.073
Mof_H 	H 	0.00293	0.22699	0.8654	0.063
Mof_H 	H 	0.00238	0.17461	0.91833	0.057
Mof_H 	H 	0.00273	0.08054	0.82457	0.056
Mof_H 	H 	0.00409	0.13332	0.77203	0.068
Mof_H 	H 	0.96122	0.18509	0.7418	0.039
Mof_H 	H 	0.96094	0.23807	0.689	0.036
Mof_H 	H 	0.04564	0.31008	0.76079	0.046
Mof_H 	H 	0.04592	0.25707	0.81361	0.048
Mof_H 	H 	0.00228	0.36182	0.73104	0.061
Mof_H 	H 	0.00139	0.41491	0.67847	0.048
Mof_H 	H 	0.00171	0.32158	0.58443	0.049
Mof_H 	H 	0.00341	0.26863	0.6371	0.066
Mof_C 	C 	0.18584	0.9937	0.18819	0.052
Mof_C 	C 	0.1966	0.994	0.14647	-0.098
Mof_C 	C 	0.16636	0.99479	0.11609	0.046
Mof_C 	C 	0.12454	0.99527	0.12668	-0.152
Mof_C 	C 	0.1138	0.99471	0.16845	0.05
Mof_C 	C 	0.14407	0.99396	0.1988	-0.097
Mof_C 	C 	0.21803	0.99341	0.22052	-0.075
Mof_C 	C 	0.21351	0.0172	0.25618	0.033
Mof_C 	C 	0.24385	0.01717	0.28646	0.034
Mof_C 	C 	0.27948	0.99335	0.28185	-0.075
Mof_C 	C 	0.28399	0.96951	0.24622	-0.03
Mof_C 	C 	0.25363	0.96954	0.21593	-0.03
Mof_C 	C 	0.31184	0.99356	0.314	0.052
Mof_C 	C 	0.35356	0.99386	0.3032	-0.096
Mof_C 	C 	0.38397	0.99459	0.33342	0.047
Mof_C 	C 	0.37342	0.99501	0.37525	-0.151
Mof_C 	C 	0.33165	0.99443	0.38602	0.048
Mof_C 	C 	0.30127	0.99374	0.35578	-0.099
Mof_H 	H 	0.22849	0.99433	0.13726	0.036
Mof_H 	H 	0.17584	0.99525	0.08428	0.012
Mof_H 	H 	0.08196	0.99486	0.17782	0.031
Mof_H 	H 	0.13474	0.99314	0.23065	0.042
Mof_H 	H 	0.1868	0.03645	0.26036	0.046
Mof_H 	H 	0.23973	0.0364	0.3132	0.045
Mof_H 	H 	0.31076	0.95034	0.24202	0.03
Mof_H 	H 	0.25777	0.95039	0.18913	0.029
Mof_H 	H 	0.36273	0.99424	0.2713	0.04
Mof_H 	H 	0.41577	0.99506	0.32391	0.022
Mof_H 	H 	0.3223	0.99453	0.41787	0.024
Mof_H 	H 	0.26944	0.99292	0.36514	0.039
Mof_C 	C 	0.31161	0.49356	0.81392	0.039
Mof_C 	C 	0.30106	0.49367	0.8557	-0.075
Mof_C 	C 	0.33145	0.49445	0.88591	0.048
Mof_C 	C 	0.37321	0.4952	0.87512	-0.131
Mof_C 	C 	0.38375	0.49484	0.83329	0.045
Mof_C 	C 	0.35332	0.49401	0.80308	-0.078
Mof_C 	C 	0.27921	0.4933	0.7818	-0.001
Mof_C 	C 	0.28373	0.46952	0.74614	-0.036
Mof_C 	C 	0.2533	0.46946	0.71591	-0.036
Mof_C 	C 	0.21763	0.4932	0.72061	-0.001
Mof_C 	C 	0.21311	0.51695	0.75629	-0.035
Mof_C 	C 	0.24351	0.517	0.7865	-0.035
Mof_C 	C 	0.18535	0.49339	0.68837	0.039
Mof_C 	C 	0.14361	0.49351	0.6991	-0.076
Mof_C 	C 	0.11325	0.49425	0.66883	0.047
Mof_C 	C 	0.12387	0.49494	0.62703	-0.13
Mof_C 	C 	0.16567	0.49458	0.61633	0.045
Mof_C 	C 	0.196	0.4938	0.64662	-0.078
Mof_H 	H 	0.26924	0.49272	0.86508	0.057
Mof_H 	H 	0.32211	0.4945	0.91777	0.048
Mof_H 	H 	0.41554	0.49544	0.82377	0.037
Mof_H 	H 	0.36247	0.49444	0.77118	0.049
Mof_H 	H 	0.31055	0.45044	0.74186	0.038
Mof_H 	H 	0.25745	0.45035	0.68909	0.038
Mof_H 	H 	0.18634	0.53611	0.76055	0.044
Mof_H 	H 	0.23939	0.5362	0.81327	0.045
Mof_H 	H 	0.13436	0.49261	0.73097	0.056
Mof_H 	H 	0.08143	0.49431	0.67829	0.048
Mof_H 	H 	0.17507	0.49514	0.5845	0.037
Mof_H 	H 	0.22786	0.49423	0.63733	0.049
Mof_C 	C 	0.81205	0.99336	0.81375	0.052
Mof_C 	C 	0.80138	0.99349	0.8555	-0.096
Mof_C 	C 	0.83168	0.99427	0.8858	0.05
Mof_C 	C 	0.87346	0.99498	0.87511	-0.15
Mof_C 	C 	0.88411	0.9946	0.83331	0.047
Mof_C 	C 	0.85378	0.99379	0.80303	-0.097
Mof_C 	C 	0.77977	0.9931	0.78154	-0.074
Mof_C 	C 	0.7844	0.96926	0.74593	-0.03
Mof_C 	C 	0.75411	0.96924	0.71558	-0.03
Mof_C 	C 	0.71847	0.99306	0.72012	-0.075
Mof_C 	C 	0.71384	0.01686	0.75575	0.034
Mof_C 	C 	0.74411	0.01688	0.78608	0.033
Mof_C 	C 	0.68631	0.99324	0.68779	0.052
Mof_C 	C 	0.64456	0.9933	0.69842	-0.099
Mof_C 	C 	0.61429	0.99401	0.66809	0.049
Mof_C 	C 	0.62502	0.99473	0.62631	-0.151
Mof_C 	C 	0.66683	0.99441	0.6157	0.047
Mof_C 	C 	0.69708	0.99366	0.64607	-0.096
Mof_H 	H 	0.76952	0.99257	0.86479	0.044
Mof_H 	H 	0.82227	0.99434	0.91764	0.034
Mof_H 	H 	0.91593	0.99518	0.82386	0.015
Mof_H 	H 	0.86301	0.9942	0.77115	0.038
Mof_H 	H 	0.81121	0.95013	0.74179	0.03
Mof_H 	H 	0.75832	0.9501	0.68879	0.03
Mof_H 	H 	0.68709	0.03607	0.75987	0.046
Mof_H 	H 	0.73992	0.03611	0.81281	0.048
Mof_H 	H 	0.63523	0.99238	0.73026	0.04
Mof_H 	H 	0.58245	0.99403	0.67748	0.024
Mof_H 	H 	0.6763	0.99498	0.58389	0.023
Mof_H 	H 	0.72897	0.99412	0.63687	0.041
Mof_C 	C 	0.68598	0.49524	0.18873	0.035
Mof_C 	C 	0.69674	0.49546	0.14697	-0.083
Mof_C 	C 	0.66651	0.49607	0.11648	0.042
Mof_C 	C 	0.62463	0.49646	0.12692	-0.14
Mof_C 	C 	0.61389	0.49603	0.16872	0.045
Mof_C 	C 	0.64414	0.49545	0.19917	-0.08
Mof_C 	C 	0.7182	0.49501	0.22125	-0.005
Mof_C 	C 	0.71337	0.51831	0.25722	-0.039
Mof_C 	C 	0.74363	0.51824	0.28767	-0.038
Mof_C 	C 	0.77958	0.49487	0.283	-0.007
Mof_C 	C 	0.78439	0.47152	0.24705	-0.038
Mof_C 	C 	0.75412	0.47159	0.21659	-0.04
Mof_C 	C 	0.81193	0.49501	0.31539	0.042
Mof_C 	C 	0.85371	0.4952	0.30481	-0.09
Mof_C 	C 	0.88409	0.49577	0.33513	0.059
Mof_C 	C 	0.87362	0.49617	0.37712	-0.171
Mof_C 	C 	0.83163	0.49573	0.38756	0.061
Mof_C 	C 	0.80133	0.4952	0.35716	-0.088
Mof_H 	H 	0.72864	0.49583	0.13779	0.039
Mof_H 	H 	0.67604	0.49645	0.08469	0.023
Mof_H 	H 	0.58203	0.49612	0.17804	0.035
Mof_H 	H 	0.63471	0.49469	0.23099	0.048
Mof_H 	H 	0.68646	0.53724	0.26155	0.035
Mof_H 	H 	0.73918	0.53713	0.31459	0.035
Mof_H 	H 	0.81135	0.45265	0.2427	0.033
Mof_H 	H 	0.75859	0.45277	0.18962	0.033
Mof_H 	H 	0.863	0.49559	0.27295	0.042
Mof_H 	H 	0.91584	0.49613	0.32542	0.024
Mof_H 	H 	0.82191	0.49581	0.41932	0.032
Mof_H 	H 	0.76947	0.49445	0.36644	0.051
Mof_C 	C 	0.18649	0.00338	0.81403	0.025
Mof_C 	C 	0.14477	0.00307	0.80323	-0.058
Mof_C 	C 	0.11436	0.00236	0.83345	0.045
Mof_C 	C 	0.12492	0.00197	0.87528	-0.111
Mof_C 	C 	0.16669	0.00254	0.88605	0.045
Mof_C 	C 	0.19706	0.00321	0.8558	-0.054
Mof_C 	C 	0.21884	0.00357	0.78187	0.073
Mof_C 	C 	0.25446	0.97975	0.78648	-0.105
Mof_C 	C 	0.28478	0.9797	0.75618	-0.101
Mof_C 	C 	0.28024	0.00347	0.72051	0.066
Mof_C 	C 	0.24464	0.02734	0.71592	-0.039
Mof_C 	C 	0.21431	0.02739	0.74623	-0.044
Mof_C 	C 	0.31242	0.00317	0.68818	0.037
Mof_C 	C 	0.30164	0.00282	0.64646	-0.077
Mof_C 	C 	0.33188	0.00205	0.61607	0.074
Mof_C 	C 	0.3737	0.00163	0.62665	-0.173
Mof_C 	C 	0.38445	0.00223	0.66843	0.074
Mof_C 	C 	0.35419	0.00297	0.69878	-0.073
Mof_H 	H 	0.13559	0.00267	0.77133	0.061
Mof_H 	H 	0.08256	0.00189	0.82394	0.059
Mof_H 	H 	0.17604	0.00246	0.9179	0.062
Mof_H 	H 	0.2289	0.00403	0.86516	0.067
Mof_H 	H 	0.25859	0.96053	0.81323	0.04
Mof_H 	H 	0.3115	0.96045	0.76035	0.036
Mof_H 	H 	0.24049	0.04648	0.68912	0.046
Mof_H 	H 	0.18754	0.04656	0.74204	0.048
Mof_H 	H 	0.26975	0.00246	0.63726	0.062
Mof_H 	H 	0.32239	0.00156	0.58427	0.049
Mof_H 	H 	0.41629	0.00213	0.67779	0.05
Mof_H 	H 	0.36353	0.00382	0.73062	0.068
Mof_C 	C 	0.31133	0.50406	0.18788	0.038
Mof_C 	C 	0.30079	0.50389	0.14608	-0.083
Mof_C 	C 	0.33118	0.50325	0.11581	0.045
Mof_C 	C 	0.37297	0.50273	0.12652	-0.141
Mof_C 	C 	0.3835	0.50313	0.16836	0.046
Mof_C 	C 	0.35308	0.5038	0.19862	-0.081
Mof_C 	C 	0.27892	0.50424	0.22011	-0.004
Mof_C 	C 	0.28355	0.5278	0.25593	-0.036
Mof_C 	C 	0.25319	0.52776	0.28625	-0.038
Mof_C 	C 	0.2174	0.50417	0.28155	-0.001
Mof_C 	C 	0.21276	0.48066	0.2457	-0.038
Mof_C 	C 	0.24311	0.4807	0.21539	-0.036
Mof_C 	C 	0.18514	0.5039	0.31392	0.037
Mof_C 	C 	0.14335	0.50371	0.30334	-0.076
Mof_C 	C 	0.11305	0.503	0.33371	0.045
Mof_C 	C 	0.12374	0.50242	0.37551	-0.129
Mof_C 	C 	0.16557	0.50283	0.38607	0.044
Mof_C 	C 	0.19585	0.50358	0.35568	-0.077
Mof_H 	H 	0.26896	0.50468	0.13671	0.044
Mof_H 	H 	0.32181	0.50316	0.08396	0.025
Mof_H 	H 	0.41531	0.50269	0.17786	0.035
Mof_H 	H 	0.36229	0.50341	0.23051	0.049
Mof_H 	H 	0.31043	0.54679	0.26026	0.037
Mof_H 	H 	0.25747	0.54672	0.31316	0.038
Mof_H 	H 	0.18593	0.46161	0.24138	0.039
Mof_H 	H 	0.23885	0.46166	0.18853	0.034
Mof_H 	H 	0.13401	0.50455	0.27151	0.051
Mof_H 	H 	0.08121	0.5029	0.32433	0.046
Mof_H 	H 	0.17505	0.50235	0.41788	0.037
Mof_H 	H 	0.22773	0.5032	0.36491	0.048
Mof_C 	C 	0.81269	0.0035	0.18665	0.029
Mof_C 	C 	0.80218	0.00329	0.14486	-0.073
Mof_C 	C 	0.83254	0.00266	0.11452	0.059
Mof_C 	C 	0.87451	0.00217	0.12506	-0.163
Mof_C 	C 	0.88489	0.00262	0.16706	0.06
Mof_C 	C 	0.85445	0.00329	0.19732	-0.076
Mof_C 	C 	0.78026	0.0037	0.21895	0.065
Mof_C 	C 	0.78499	0.02708	0.25488	-0.044
Mof_C 	C 	0.75463	0.02705	0.28526	-0.045
Mof_C 	C 	0.71872	0.00363	0.28053	0.068
Mof_C 	C 	0.71397	0.9803	0.24457	-0.109
Mof_C 	C 	0.74432	0.98033	0.2142	-0.108
Mof_C 	C 	0.68644	0.00339	0.31298	0.027
Mof_C 	C 	0.64461	0.00316	0.30247	-0.065
Mof_C 	C 	0.61432	0.0025	0.33288	0.054
Mof_C 	C 	0.625	0.002	0.37469	-0.145
Mof_C 	C 	0.66686	0.00243	0.38519	0.058
Mof_C 	C 	0.69714	0.00313	0.35475	-0.07
Mof_H 	H 	0.77034	0.00406	0.1355	0.057
Mof_H 	H 	0.82288	0.00255	0.08275	0.034
Mof_H 	H 	0.91663	0.00223	0.17683	0.036
Mof_H 	H 	0.86367	0.00293	0.2292	0.052
Mof_H 	H 	0.81194	0.04594	0.25929	0.041
Mof_H 	H 	0.75903	0.04588	0.31223	0.043
Mof_H 	H 	0.68706	0.96137	0.24018	0.028
Mof_H 	H 	0.73994	0.96142	0.18728	0.025
Mof_H 	H 	0.63523	0.00395	0.27064	0.06
Mof_H 	H 	0.58247	0.00237	0.32352	0.045
Mof_H 	H 	0.67636	0.00201	0.41699	0.051
Mof_H 	H 	0.72902	0.00277	0.36398	0.055
Mof_C 	C 	0.685	0.50383	0.81513	0.044
Mof_C 	C 	0.64327	0.50354	0.80444	-0.085
Mof_C 	C 	0.61286	0.50285	0.83469	0.061
Mof_C 	C 	0.6233	0.50244	0.87667	-0.164
Mof_C 	C 	0.66525	0.50302	0.88722	0.063
Mof_C 	C 	0.69558	0.50367	0.85689	-0.084
Mof_C 	C 	0.71735	0.50402	0.78287	-0.004
Mof_C 	C 	0.75312	0.4804	0.78751	-0.036
Mof_C 	C 	0.78343	0.48035	0.75715	-0.036
Mof_C 	C 	0.77876	0.50393	0.72135	-0.003
Mof_C 	C 	0.74301	0.52759	0.71673	-0.037
Mof_C 	C 	0.7127	0.52763	0.7471	-0.036
Mof_C 	C 	0.81098	0.50368	0.68895	0.038
Mof_C 	C 	0.80023	0.50342	0.6472	-0.08
Mof_C 	C 	0.83049	0.50271	0.61679	0.046
Mof_C 	C 	0.87233	0.50225	0.62733	-0.139
Mof_C 	C 	0.88304	0.50276	0.66912	0.045
Mof_C 	C 	0.85277	0.50344	0.6995	-0.081
Mof_H 	H 	0.63405	0.50315	0.77255	0.051
Mof_H 	H 	0.58112	0.50241	0.82493	0.034
Mof_H 	H 	0.67492	0.50295	0.91899	0.043
Mof_H 	H 	0.72742	0.50449	0.86621	0.055
Mof_H 	H 	0.75739	0.46133	0.81433	0.04
Mof_H 	H 	0.81023	0.46125	0.76139	0.036
Mof_H 	H 	0.73872	0.54659	0.68985	0.038
Mof_H 	H 	0.68584	0.54667	0.74283	0.038
Mof_H 	H 	0.76835	0.50308	0.63799	0.049
Mof_H 	H 	0.821	0.50228	0.58498	0.035
Mof_H 	H 	0.91489	0.50262	0.67849	0.03
Mof_H 	H 	0.86214	0.50423	0.73134	0.046
_end
