data_functionalizedCrystal
_audit_creation_method	'EQeq! by Chris Wilmer'
_symmetry_space_group_name_H-M	'P1'
_symmetry_Int_Tables_number	1
_symmetry_cell_setting	triclinic
loop_
_symmetry_equiv_pos_as_xyz
  x,y,z
_cell_length_a	6.8419
_cell_length_b	12.0877
_cell_length_c	14.207
_cell_angle_alpha	90
_cell_angle_beta	122.547
_cell_angle_gamma	90
loop_
_atom_site_label
_atom_site_type_symbol
_atom_site_fract_x
_atom_site_fract_y
_atom_site_fract_z
_atom_site_charge
Mof_O 	O 	0.24705	0.40015	0.11591	-0.698
Mof_O 	O 	0.53844	0.36877	0.08438	-0.873
Mof_O 	O 	0.4506	0.0933	0.37967	-1.023
Mof_O 	O 	0.78276	0.11334	0.39942	-0.661
Mof_C 	C 	0.42977	0.34699	0.13382	0.476
Mof_C 	C 	0.55444	0.26496	0.22203	-0.129
Mof_C 	C 	0.45578	0.22792	0.27381	-0.244
Mof_C 	C 	0.57869	0.14099	0.3604	0.75
Mof_H 	H 	0.72968	0.23217	0.24306	0.067
Mof_H 	H 	0.27772	0.25787	0.25162	0.027
Mof_O 	O 	0.81988	0.48269	0.05985	-1.203
Mof_H 	H 	0.92295	0.52558	0.13066	0.336
Mof_O 	O 	0.75295	0.90015	0.38409	-0.355
Mof_O 	O 	0.46156	0.86877	0.41562	-0.687
Mof_O 	O 	0.5494	0.5933	0.12033	-0.952
Mof_O 	O 	0.21724	0.61334	0.10058	-0.833
Mof_C 	C 	0.57023	0.84699	0.36618	0.487
Mof_C 	C 	0.44556	0.76496	0.27797	-0.049
Mof_C 	C 	0.54422	0.72792	0.22619	-0.249
Mof_C 	C 	0.42131	0.64099	0.1396	0.768
Mof_H 	H 	0.27032	0.73217	0.25694	0.013
Mof_H 	H 	0.72228	0.75787	0.24838	0.143
Mof_O 	O 	0.18012	0.98269	0.44015	-0.721
Mof_H 	H 	0.07705	0.02558	0.36934	-0.126
Mof_O 	O 	0.75295	0.59985	0.88409	-0.365
Mof_O 	O 	0.46156	0.63123	0.91562	-0.6
Mof_O 	O 	0.5494	0.9067	0.62033	-0.744
Mof_O 	O 	0.21724	0.88666	0.60058	-0.633
Mof_C 	C 	0.57023	0.65301	0.86618	0.499
Mof_C 	C 	0.44556	0.73504	0.77797	-0.036
Mof_C 	C 	0.54422	0.77208	0.72619	-0.175
Mof_C 	C 	0.42131	0.85901	0.6396	0.743
Mof_H 	H 	0.27032	0.76783	0.75694	0.062
Mof_H 	H 	0.72228	0.74213	0.74838	0.165
Mof_O 	O 	0.18012	0.51731	0.94015	-0.889
Mof_H 	H 	0.07705	0.47442	0.86934	0.181
Mof_O 	O 	0.24705	0.09985	0.61591	-0.735
Mof_O 	O 	0.53844	0.13123	0.58438	-0.828
Mof_O 	O 	0.4506	0.4067	0.87967	-0.769
Mof_O 	O 	0.78276	0.38666	0.89942	-0.441
Mof_C 	C 	0.42977	0.15301	0.63382	0.509
Mof_C 	C 	0.55444	0.23504	0.72203	-0.127
Mof_C 	C 	0.45578	0.27208	0.77381	-0.158
Mof_C 	C 	0.57869	0.35901	0.8604	0.698
Mof_H 	H 	0.72968	0.26783	0.74306	0.117
Mof_H 	H 	0.27772	0.24213	0.75162	0.046
Mof_O 	O 	0.81988	0.01731	0.55985	-1.421
Mof_H 	H 	0.92295	0.97442	0.63066	0.637
Mof_Al	Al	0.5	0.5	-0	3.072
Mof_Al	Al	0.5	0	0.5	3.178
Mof_Al	Al	-0	0.5	-0	1.847
Mof_Al	Al	-1.14785e-16	0	0.5	1.903
_end
