# CIF file generated by openbabel 3.1.0, see https://openbabel.org
data_I
_chemical_name_common 'image0'
_cell_length_a 12.487
_cell_length_b 12.487
_cell_length_c 9.776
_cell_angle_alpha 90
_cell_angle_beta 90
_cell_angle_gamma 90
_space_group_name_H-M_alt 'P 1'
_space_group_name_Hall 'P 1'
loop_
    _symmetry_equiv_pos_as_xyz
    x,y,z
loop_
    _atom_site_label
    _atom_site_type_symbol
    _atom_site_fract_x
    _atom_site_fract_y
    _atom_site_fract_z
    _atom_site_occupancy
    N1       N        0.94100    0.56310    0.25100    1.000
    H1       H        0.97240    0.57930    0.16260    1.000
    N2       N        0.67060    0.85640    0.10100    1.000
    C1       C        0.75230    0.80820    0.02600    1.000
    H2       H        0.77460    0.83790    0.94390    1.000
    C2       C        0.80070    0.71560    0.07500    1.000
    H3       H        0.85540    0.68330    0.02560    1.000
    C3       C        0.76740    0.67120    0.19900    1.000
    C4       C        0.68570    0.71940    0.27300    1.000
    H4       H        0.66340    0.68970    0.35530    1.000
    C5       C        0.63730    0.81200    0.22400    1.000
    H5       H        0.58260    0.84430    0.27360    1.000
    C6       C        0.81200    0.57600    0.24200    1.000
    H6       H        0.78690    0.51980    0.18100    1.000
    H7       H        0.78380    0.56010    0.33180    1.000
    C7       C        0.98500    0.64000    0.35800    1.000
    H8       H        0.93010    0.69100    0.38730    1.000
    C8       C        0.07900    0.69700    0.30500    1.000
    H9       H        0.10320    0.74030    0.36190    1.000
    H10      H        0.06060    0.73370    0.22210    1.000
    H11      H        0.13540    0.64620    0.28610    1.000
    C9       C        0.01700    0.56600    0.47600    1.000
    O1       O        0.05250    0.62690    0.57700    1.000
    O2       O        0.02070    0.47470    0.46900    1.000
    Zn1      Zn       0.59020    0.98420    0.02790    1.000
    N3       N        0.05900    0.43690    0.75100    1.000
    H12      H        0.02760    0.42070    0.66260    1.000
    N4       N        0.32940    0.14360    0.60100    1.000
    C10      C        0.24770    0.19180    0.52600    1.000
    H13      H        0.22540    0.16210    0.44390    1.000
    C11      C        0.19930    0.28440    0.57500    1.000
    H14      H        0.14460    0.31670    0.52560    1.000
    C12      C        0.23260    0.32880    0.69900    1.000
    C13      C        0.31430    0.28060    0.77300    1.000
    H15      H        0.33660    0.31030    0.85530    1.000
    C14      C        0.36270    0.18800    0.72400    1.000
    H16      H        0.41740    0.15570    0.77360    1.000
    C15      C        0.18800    0.42400    0.74200    1.000
    H17      H        0.21310    0.48020    0.68100    1.000
    H18      H        0.21620    0.43990    0.83180    1.000
    C16      C        0.01500    0.36000    0.85800    1.000
    H19      H        0.06990    0.30900    0.88730    1.000
    C17      C        0.92100    0.30300    0.80500    1.000
    H20      H        0.89680    0.25970    0.86190    1.000
    H21      H        0.93940    0.26630    0.72210    1.000
    H22      H        0.86460    0.35380    0.78610    1.000
    C18      C        0.98300    0.43400    0.97600    1.000
    O3       O        0.94750    0.37310    0.07700    1.000
    O4       O        0.97930    0.52530    0.96900    1.000
    Zn2      Zn       0.40980    0.01580    0.52790    1.000
    N5       N        0.43690    0.94100    0.00100    1.000
    H23      H        0.42070    0.97240    0.91260    1.000
    N6       N        0.14360    0.67060    0.85100    1.000
    C19      C        0.19180    0.75230    0.77600    1.000
    H24      H        0.16210    0.77460    0.69390    1.000
    C20      C        0.28440    0.80070    0.82500    1.000
    H25      H        0.31670    0.85540    0.77560    1.000
    C21      C        0.32880    0.76740    0.94900    1.000
    C22      C        0.28060    0.68570    0.02300    1.000
    H26      H        0.31030    0.66340    0.10530    1.000
    C23      C        0.18800    0.63730    0.97400    1.000
    H27      H        0.15570    0.58260    0.02360    1.000
    C24      C        0.42400    0.81200    0.99200    1.000
    H28      H        0.48020    0.78690    0.93100    1.000
    H29      H        0.43990    0.78380    0.08180    1.000
    C25      C        0.36000    0.98500    0.10800    1.000
    H30      H        0.30900    0.93010    0.13730    1.000
    C26      C        0.30300    0.07900    0.05500    1.000
    H31      H        0.25970    0.10320    0.11190    1.000
    H32      H        0.26630    0.06060    0.97210    1.000
    H33      H        0.35380    0.13540    0.03610    1.000
    C27      C        0.43400    0.01700    0.22600    1.000
    O5       O        0.37310    0.05250    0.32700    1.000
    O6       O        0.52530    0.02070    0.21900    1.000
    Zn3      Zn       0.01580    0.59020    0.77790    1.000
    N7       N        0.56310    0.05900    0.50100    1.000
    H34      H        0.57930    0.02760    0.41260    1.000
    N8       N        0.85640    0.32940    0.35100    1.000
    C28      C        0.80820    0.24770    0.27600    1.000
    H35      H        0.83790    0.22540    0.19390    1.000
    C29      C        0.71560    0.19930    0.32500    1.000
    H36      H        0.68330    0.14460    0.27560    1.000
    C30      C        0.67120    0.23260    0.44900    1.000
    C31      C        0.71940    0.31430    0.52300    1.000
    H37      H        0.68970    0.33660    0.60530    1.000
    C32      C        0.81200    0.36270    0.47400    1.000
    H38      H        0.84430    0.41740    0.52360    1.000
    C33      C        0.57600    0.18800    0.49200    1.000
    H39      H        0.51980    0.21310    0.43100    1.000
    H40      H        0.56010    0.21620    0.58180    1.000
    C34      C        0.64000    0.01500    0.60800    1.000
    H41      H        0.69100    0.06990    0.63730    1.000
    C35      C        0.69700    0.92100    0.55500    1.000
    H42      H        0.74030    0.89680    0.61190    1.000
    H43      H        0.73370    0.93940    0.47210    1.000
    H44      H        0.64620    0.86460    0.53610    1.000
    C36      C        0.56600    0.98300    0.72600    1.000
    O7       O        0.62690    0.94750    0.82700    1.000
    O8       O        0.47470    0.97930    0.71900    1.000
    Zn4      Zn       0.98420    0.40980    0.27790    1.000
