data_functionalizedCrystal
_audit_creation_method	'EQeq! by Chris Wilmer'
_symmetry_space_group_name_H-M	'P1'
_symmetry_Int_Tables_number	1
_symmetry_cell_setting	triclinic
loop_
_symmetry_equiv_pos_as_xyz
  x,y,z
_cell_length_a	20.92
_cell_length_b	9.4373
_cell_length_c	22.981
_cell_angle_alpha	90
_cell_angle_beta	108.736
_cell_angle_gamma	90
loop_
_atom_site_label
_atom_site_type_symbol
_atom_site_fract_x
_atom_site_fract_y
_atom_site_fract_z
_atom_site_charge
Mof_Zn	Zn	0.71273	0.64295	0.76117	1.229
Mof_C 	C 	0.8286	0.7586	0.6665	-0.134
Mof_C 	C 	0.8369	0.6246	0.693	-0.01
Mof_C 	C 	0.8302	0.5067	0.6566	-0.108
Mof_C 	C 	0.8166	0.5199	0.5949	0.052
Mof_H 	H 	0.8133	0.4395	0.5707	0.033
Mof_C 	C 	0.8078	0.6521	0.5681	-0.118
Mof_H 	H 	0.7987	0.661	0.5259	0.075
Mof_C 	C 	0.8125	0.7697	0.6036	0.056
Mof_H 	H 	0.8048	0.8586	0.5852	0.02
Mof_C 	C 	0.839	0.8916	0.7047	0.401
Mof_C 	C 	0.8553	0.612	0.7636	0.324
Mof_C 	C 	0.8321	0.357	0.682	0.435
Mof_C 	C 	0.6565	0.4932	0.6435	0.081
Mof_H 	H 	0.669	0.4122	0.6675	0.004
Mof_C 	C 	0.6263	0.4794	0.5811	-0.129
Mof_H 	H 	0.6194	0.3893	0.5639	0.081
Mof_C 	C 	0.6063	0.5946	0.5439	0.052
Mof_C 	C 	0.6183	0.7267	0.5731	-0.126
Mof_H 	H 	0.606	0.8091	0.55	0.078
Mof_C 	C 	0.648	0.7351	0.6351	0.075
Mof_H 	H 	0.6545	0.8239	0.6536	0.01
Mof_C 	C 	0.5103	0.6833	0.3798	0.08
Mof_H 	H 	0.4828	0.7562	0.3584	0.005
Mof_C 	C 	0.5343	0.6909	0.4423	-0.142
Mof_H 	H 	0.5234	0.7684	0.4623	0.083
Mof_C 	C 	0.5743	0.5857	0.476	0.069
Mof_C 	C 	0.5878	0.4751	0.4452	-0.141
Mof_H 	H 	0.6147	0.4007	0.4661	0.088
Mof_C 	C 	0.5602	0.474	0.38	0.086
Mof_H 	H 	0.5685	0.3951	0.3592	-0.002
Mof_N 	N 	0.6683	0.6202	0.6704	-0.267
Mof_N 	N 	0.5243	0.5755	0.3477	-0.26
Mof_O 	O 	0.8947	0.916	0.7439	-0.471
Mof_O 	O 	0.7893	0.972	0.6924	-0.47
Mof_O 	O 	0.8125	0.6557	0.7874	-0.423
Mof_O 	O 	0.9107	0.5645	0.7927	-0.25
Mof_O 	O 	0.8071	0.3386	0.7223	-0.49
Mof_O 	O 	0.876	0.273	0.67	-0.165
Mof_O 	O 	0.329	0.243	0.1474	-0.24
Mof_Zn	Zn	0.21273	0.14295	0.76117	1.227
Mof_C 	C 	0.3286	0.2586	0.6665	-0.139
Mof_C 	C 	0.3369	0.1246	0.693	-0.013
Mof_C 	C 	0.3302	0.0067	0.6566	-0.113
Mof_C 	C 	0.3166	0.0199	0.5949	0.051
Mof_H 	H 	0.3133	0.9395	0.5707	0.03
Mof_C 	C 	0.3078	0.1521	0.5681	-0.122
Mof_H 	H 	0.2987	0.161	0.5259	0.075
Mof_C 	C 	0.3125	0.2697	0.6036	0.059
Mof_H 	H 	0.3048	0.3586	0.5852	0.019
Mof_C 	C 	0.339	0.3916	0.7047	0.405
Mof_C 	C 	0.3553	0.112	0.7636	0.326
Mof_C 	C 	0.3321	0.857	0.682	0.435
Mof_C 	C 	0.1565	0.9932	0.6435	0.084
Mof_H 	H 	0.169	0.9122	0.6675	0
Mof_C 	C 	0.1263	0.9794	0.5811	-0.146
Mof_H 	H 	0.1194	0.8893	0.5639	0.081
Mof_C 	C 	0.1063	0.0946	0.5439	0.07
Mof_C 	C 	0.1183	0.2267	0.5731	-0.142
Mof_H 	H 	0.106	0.3091	0.55	0.079
Mof_C 	C 	0.148	0.2351	0.6351	0.077
Mof_H 	H 	0.1545	0.3239	0.6536	0.006
Mof_C 	C 	0.0103	0.1833	0.3798	-0.064
Mof_H 	H 	0.9828	0.2562	0.3584	0.092
Mof_C 	C 	0.0343	0.1909	0.4423	-0.056
Mof_H 	H 	0.0234	0.2684	0.4623	0.037
Mof_C 	C 	0.0743	0.0857	0.476	0.015
Mof_C 	C 	0.0878	0.9751	0.4452	-0.108
Mof_H 	H 	0.1147	0.9007	0.4661	0.072
Mof_C 	C 	0.0602	0.974	0.38	0.059
Mof_H 	H 	0.0685	0.8951	0.3592	0
Mof_N 	N 	0.1683	0.1202	0.6704	-0.271
Mof_N 	N 	0.0243	0.0755	0.3477	-0.242
Mof_O 	O 	0.3947	0.416	0.7439	-0.488
Mof_O 	O 	0.2893	0.472	0.6924	-0.473
Mof_O 	O 	0.3125	0.1557	0.7874	-0.425
Mof_O 	O 	0.4107	0.0645	0.7927	-0.263
Mof_O 	O 	0.3071	0.8386	0.7223	-0.492
Mof_O 	O 	0.376	0.773	0.67	-0.176
Mof_O 	O 	0.829	0.743	0.1474	-0.243
Mof_Zn	Zn	0.28727	0.64295	0.73883	1.228
Mof_C 	C 	0.1714	0.7586	0.8335	-0.141
Mof_C 	C 	0.1631	0.6246	0.807	-0.015
Mof_C 	C 	0.1698	0.5067	0.8434	-0.115
Mof_C 	C 	0.1834	0.5199	0.9051	0.05
Mof_H 	H 	0.1867	0.4395	0.9293	0.028
Mof_C 	C 	0.1922	0.6521	0.9319	-0.124
Mof_H 	H 	0.2013	0.661	0.9741	0.075
Mof_C 	C 	0.1875	0.7697	0.8964	0.059
Mof_H 	H 	0.1952	0.8586	0.9148	0.02
Mof_C 	C 	0.161	0.8916	0.7953	0.408
Mof_C 	C 	0.1447	0.612	0.7364	0.328
Mof_C 	C 	0.1679	0.357	0.818	0.434
Mof_C 	C 	0.3435	0.4932	0.8565	0.081
Mof_H 	H 	0.331	0.4122	0.8325	0.004
Mof_C 	C 	0.3737	0.4794	0.9189	-0.129
Mof_H 	H 	0.3806	0.3893	0.9361	0.081
Mof_C 	C 	0.3937	0.5946	0.9561	0.052
Mof_C 	C 	0.3817	0.7267	0.9269	-0.126
Mof_H 	H 	0.394	0.8091	0.95	0.078
Mof_C 	C 	0.352	0.7351	0.8649	0.075
Mof_H 	H 	0.3455	0.8239	0.8464	0.01
Mof_C 	C 	0.4897	0.6833	0.1202	0.08
Mof_H 	H 	0.5172	0.7562	0.1416	0.005
Mof_C 	C 	0.4657	0.6909	0.0577	-0.142
Mof_H 	H 	0.4766	0.7684	0.0377	0.083
Mof_C 	C 	0.4257	0.5857	0.024	0.069
Mof_C 	C 	0.4122	0.4751	0.0548	-0.141
Mof_H 	H 	0.3853	0.4007	0.0339	0.088
Mof_C 	C 	0.4398	0.474	0.12	0.086
Mof_H 	H 	0.4315	0.3951	0.1408	-0.002
Mof_N 	N 	0.3317	0.6202	0.8296	-0.267
Mof_N 	N 	0.4757	0.5755	0.1523	-0.26
Mof_O 	O 	0.1053	0.916	0.7561	-0.497
Mof_O 	O 	0.2107	0.972	0.8076	-0.473
Mof_O 	O 	0.1875	0.6557	0.7126	-0.427
Mof_O 	O 	0.0893	0.5645	0.7073	-0.274
Mof_O 	O 	0.1929	0.3386	0.7777	-0.494
Mof_O 	O 	0.124	0.273	0.83	-0.186
Mof_O 	O 	0.671	0.243	0.3526	-0.24
Mof_Zn	Zn	0.78727	0.14295	0.73883	1.228
Mof_C 	C 	0.6714	0.2586	0.8335	-0.138
Mof_C 	C 	0.6631	0.1246	0.807	-0.014
Mof_C 	C 	0.6698	0.0067	0.8434	-0.112
Mof_C 	C 	0.6834	0.0199	0.9051	0.048
Mof_H 	H 	0.6867	0.9395	0.9293	0.031
Mof_C 	C 	0.6922	0.1521	0.9319	-0.12
Mof_H 	H 	0.7013	0.161	0.9741	0.074
Mof_C 	C 	0.6875	0.2697	0.8964	0.057
Mof_H 	H 	0.6952	0.3586	0.9148	0.02
Mof_C 	C 	0.661	0.3916	0.7953	0.405
Mof_C 	C 	0.6447	0.112	0.7364	0.326
Mof_C 	C 	0.6679	0.857	0.818	0.435
Mof_C 	C 	0.8435	0.9932	0.8565	0.078
Mof_H 	H 	0.831	0.9122	0.8325	0.007
Mof_C 	C 	0.8737	0.9794	0.9189	-0.109
Mof_H 	H 	0.8806	0.8893	0.9361	0.081
Mof_C 	C 	0.8937	0.0946	0.9561	0.032
Mof_C 	C 	0.8817	0.2267	0.9269	-0.108
Mof_H 	H 	0.894	0.3091	0.95	0.077
Mof_C 	C 	0.852	0.2351	0.8649	0.072
Mof_H 	H 	0.8455	0.3239	0.8464	0.014
Mof_C 	C 	0.9897	0.1833	0.1202	0.225
Mof_H 	H 	0.0172	0.2562	0.1416	-0.08
Mof_C 	C 	0.9657	0.1909	0.0577	-0.229
Mof_H 	H 	0.9766	0.2684	0.0377	0.13
Mof_C 	C 	0.9257	0.0857	0.024	0.126
Mof_C 	C 	0.9122	0.9751	0.0548	-0.176
Mof_H 	H 	0.8853	0.9007	0.0339	0.103
Mof_C 	C 	0.9398	0.974	0.12	0.113
Mof_H 	H 	0.9315	0.8951	0.1408	-0.002
Mof_N 	N 	0.8317	0.1202	0.8296	-0.264
Mof_N 	N 	0.9757	0.0755	0.1523	-0.274
Mof_O 	O 	0.6053	0.416	0.7561	-0.487
Mof_O 	O 	0.7107	0.472	0.8076	-0.472
Mof_O 	O 	0.6875	0.1557	0.7126	-0.425
Mof_O 	O 	0.5893	0.0645	0.7073	-0.263
Mof_O 	O 	0.6929	0.8386	0.7777	-0.492
Mof_O 	O 	0.624	0.773	0.83	-0.176
Mof_O 	O 	0.171	0.743	0.3526	-0.237
Mof_Zn	Zn	0.28727	0.35705	0.23883	1.228
Mof_C 	C 	0.1714	0.2414	0.3335	-0.141
Mof_C 	C 	0.1631	0.3754	0.307	-0.015
Mof_C 	C 	0.1698	0.4933	0.3434	-0.115
Mof_C 	C 	0.1834	0.4801	0.4051	0.05
Mof_H 	H 	0.1867	0.5605	0.4293	0.028
Mof_C 	C 	0.1922	0.3479	0.4319	-0.124
Mof_H 	H 	0.2013	0.339	0.4741	0.075
Mof_C 	C 	0.1875	0.2303	0.3964	0.059
Mof_H 	H 	0.1952	0.1414	0.4148	0.02
Mof_C 	C 	0.161	0.1084	0.2953	0.408
Mof_C 	C 	0.1447	0.388	0.2364	0.328
Mof_C 	C 	0.1679	0.643	0.318	0.434
Mof_C 	C 	0.3435	0.5068	0.3565	0.081
Mof_H 	H 	0.331	0.5878	0.3325	0.004
Mof_C 	C 	0.3737	0.5206	0.4189	-0.129
Mof_H 	H 	0.3806	0.6107	0.4361	0.081
Mof_C 	C 	0.3937	0.4054	0.4561	0.052
Mof_C 	C 	0.3817	0.2733	0.4269	-0.126
Mof_H 	H 	0.394	0.1909	0.45	0.078
Mof_C 	C 	0.352	0.2649	0.3649	0.075
Mof_H 	H 	0.3455	0.1761	0.3464	0.01
Mof_C 	C 	0.4897	0.3167	0.6202	0.08
Mof_H 	H 	0.5172	0.2438	0.6416	0.005
Mof_C 	C 	0.4657	0.3091	0.5577	-0.142
Mof_H 	H 	0.4766	0.2316	0.5377	0.083
Mof_C 	C 	0.4257	0.4143	0.524	0.069
Mof_C 	C 	0.4122	0.5249	0.5548	-0.141
Mof_H 	H 	0.3853	0.5993	0.5339	0.087
Mof_C 	C 	0.4398	0.526	0.62	0.086
Mof_H 	H 	0.4315	0.6049	0.6408	-0.002
Mof_N 	N 	0.3317	0.3798	0.3296	-0.267
Mof_N 	N 	0.4757	0.4245	0.6523	-0.26
Mof_O 	O 	0.1053	0.084	0.2561	-0.497
Mof_O 	O 	0.2107	0.028	0.3076	-0.473
Mof_O 	O 	0.1875	0.3443	0.2126	-0.427
Mof_O 	O 	0.0893	0.4355	0.2073	-0.274
Mof_O 	O 	0.1929	0.6614	0.2777	-0.494
Mof_O 	O 	0.124	0.727	0.33	-0.186
Mof_O 	O 	0.671	0.757	0.8526	-0.24
Mof_Zn	Zn	0.78727	0.85705	0.23883	1.228
Mof_C 	C 	0.6714	0.7414	0.3335	-0.138
Mof_C 	C 	0.6631	0.8754	0.307	-0.013
Mof_C 	C 	0.6698	0.9933	0.3434	-0.113
Mof_C 	C 	0.6834	0.9801	0.4051	0.049
Mof_H 	H 	0.6867	0.0605	0.4293	0.03
Mof_C 	C 	0.6922	0.8479	0.4319	-0.121
Mof_H 	H 	0.7013	0.839	0.4741	0.075
Mof_C 	C 	0.6875	0.7303	0.3964	0.058
Mof_H 	H 	0.6952	0.6414	0.4148	0.02
Mof_C 	C 	0.661	0.6084	0.2953	0.405
Mof_C 	C 	0.6447	0.888	0.2364	0.326
Mof_C 	C 	0.6679	0.143	0.318	0.435
Mof_C 	C 	0.8435	0.0068	0.3565	0.079
Mof_H 	H 	0.831	0.0878	0.3325	0.007
Mof_C 	C 	0.8737	0.0206	0.4189	-0.111
Mof_H 	H 	0.8806	0.1107	0.4361	0.082
Mof_C 	C 	0.8937	0.9054	0.4561	0.035
Mof_C 	C 	0.8817	0.7733	0.4269	-0.11
Mof_H 	H 	0.894	0.6909	0.45	0.077
Mof_C 	C 	0.852	0.7649	0.3649	0.073
Mof_H 	H 	0.8455	0.6761	0.3464	0.014
Mof_C 	C 	0.9897	0.8167	0.6202	0.225
Mof_H 	H 	0.0172	0.7438	0.6416	-0.08
Mof_C 	C 	0.9657	0.8091	0.5577	-0.227
Mof_H 	H 	0.9766	0.7316	0.5377	0.129
Mof_C 	C 	0.9257	0.9143	0.524	0.123
Mof_C 	C 	0.9122	0.0249	0.5548	-0.174
Mof_H 	H 	0.8853	0.0993	0.5339	0.103
Mof_C 	C 	0.9398	0.026	0.62	0.112
Mof_H 	H 	0.9315	0.1049	0.6408	-0.002
Mof_N 	N 	0.8317	0.8798	0.3296	-0.264
Mof_N 	N 	0.9757	0.9245	0.6523	-0.274
Mof_O 	O 	0.6053	0.584	0.2561	-0.487
Mof_O 	O 	0.7107	0.528	0.3076	-0.472
Mof_O 	O 	0.6875	0.8443	0.2126	-0.425
Mof_O 	O 	0.5893	0.9355	0.2073	-0.263
Mof_O 	O 	0.6929	0.1614	0.2777	-0.492
Mof_O 	O 	0.624	0.227	0.33	-0.176
Mof_O 	O 	0.171	0.257	0.8526	-0.237
Mof_Zn	Zn	0.71273	0.35705	0.26117	1.228
Mof_C 	C 	0.8286	0.2414	0.1665	-0.135
Mof_C 	C 	0.8369	0.3754	0.193	-0.011
Mof_C 	C 	0.8302	0.4933	0.1566	-0.109
Mof_C 	C 	0.8166	0.4801	0.0949	0.051
Mof_H 	H 	0.8133	0.5605	0.0707	0.032
Mof_C 	C 	0.8078	0.3479	0.0681	-0.119
Mof_H 	H 	0.7987	0.339	0.0259	0.075
Mof_C 	C 	0.8125	0.2303	0.1036	0.056
Mof_H 	H 	0.8048	0.1414	0.0852	0.02
Mof_C 	C 	0.839	0.1084	0.2047	0.401
Mof_C 	C 	0.8553	0.388	0.2636	0.324
Mof_C 	C 	0.8321	0.643	0.182	0.435
Mof_C 	C 	0.6565	0.5068	0.1435	0.081
Mof_H 	H 	0.669	0.5878	0.1675	0.003
Mof_C 	C 	0.6263	0.5206	0.0811	-0.129
Mof_H 	H 	0.6194	0.6107	0.0639	0.081
Mof_C 	C 	0.6063	0.4054	0.0439	0.053
Mof_C 	C 	0.6183	0.2733	0.0731	-0.126
Mof_H 	H 	0.606	0.1909	0.05	0.078
Mof_C 	C 	0.648	0.2649	0.1351	0.075
Mof_H 	H 	0.6545	0.1761	0.1536	0.01
Mof_C 	C 	0.5103	0.3167	0.8798	0.08
Mof_H 	H 	0.4828	0.2438	0.8584	0.005
Mof_C 	C 	0.5343	0.3091	0.9423	-0.141
Mof_H 	H 	0.5234	0.2316	0.9623	0.083
Mof_C 	C 	0.5743	0.4143	0.976	0.068
Mof_C 	C 	0.5878	0.5249	0.9452	-0.141
Mof_H 	H 	0.6147	0.5993	0.9661	0.087
Mof_C 	C 	0.5602	0.526	0.88	0.086
Mof_H 	H 	0.5685	0.6049	0.8592	-0.002
Mof_N 	N 	0.6683	0.3798	0.1704	-0.267
Mof_N 	N 	0.5243	0.4245	0.8477	-0.26
Mof_O 	O 	0.8947	0.084	0.2439	-0.471
Mof_O 	O 	0.7893	0.028	0.1924	-0.47
Mof_O 	O 	0.8125	0.3443	0.2874	-0.423
Mof_O 	O 	0.9107	0.4355	0.2927	-0.25
Mof_O 	O 	0.8071	0.6614	0.2223	-0.49
Mof_O 	O 	0.876	0.727	0.17	-0.165
Mof_O 	O 	0.329	0.757	0.6474	-0.24
Mof_Zn	Zn	0.21273	0.85705	0.26117	1.227
Mof_C 	C 	0.3286	0.7414	0.1665	-0.139
Mof_C 	C 	0.3369	0.8754	0.193	-0.013
Mof_C 	C 	0.3302	0.9933	0.1566	-0.112
Mof_C 	C 	0.3166	0.9801	0.0949	0.049
Mof_H 	H 	0.3133	0.0605	0.0707	0.031
Mof_C 	C 	0.3078	0.8479	0.0681	-0.121
Mof_H 	H 	0.2987	0.839	0.0259	0.075
Mof_C 	C 	0.3125	0.7303	0.1036	0.058
Mof_H 	H 	0.3048	0.6414	0.0852	0.019
Mof_C 	C 	0.339	0.6084	0.2047	0.405
Mof_C 	C 	0.3553	0.888	0.2636	0.326
Mof_C 	C 	0.3321	0.143	0.182	0.435
Mof_C 	C 	0.1565	0.0068	0.1435	0.083
Mof_H 	H 	0.169	0.0878	0.1675	0
Mof_C 	C 	0.1263	0.0206	0.0811	-0.145
Mof_H 	H 	0.1194	0.1107	0.0639	0.08
Mof_C 	C 	0.1063	0.9054	0.0439	0.068
Mof_C 	C 	0.1183	0.7733	0.0731	-0.14
Mof_H 	H 	0.106	0.6909	0.05	0.078
Mof_C 	C 	0.148	0.7649	0.1351	0.076
Mof_H 	H 	0.1545	0.6761	0.1536	0.006
Mof_C 	C 	0.0103	0.8167	0.8798	-0.062
Mof_H 	H 	0.9828	0.7438	0.8584	0.091
Mof_C 	C 	0.0343	0.8091	0.9423	-0.059
Mof_H 	H 	0.0234	0.7316	0.9623	0.038
Mof_C 	C 	0.0743	0.9143	0.976	0.018
Mof_C 	C 	0.0878	0.0249	0.9452	-0.111
Mof_H 	H 	0.1147	0.0993	0.9661	0.073
Mof_C 	C 	0.0602	0.026	0.88	0.059
Mof_H 	H 	0.0685	0.1049	0.8592	-0
Mof_N 	N 	0.1683	0.8798	0.1704	-0.271
Mof_N 	N 	0.0243	0.9245	0.8477	-0.242
Mof_O 	O 	0.3947	0.584	0.2439	-0.488
Mof_O 	O 	0.2893	0.528	0.1924	-0.473
Mof_O 	O 	0.3125	0.8443	0.2874	-0.425
Mof_O 	O 	0.4107	0.9355	0.2927	-0.263
Mof_O 	O 	0.3071	0.1614	0.2223	-0.492
Mof_O 	O 	0.376	0.227	0.17	-0.176
Mof_O 	O 	0.829	0.257	0.6474	-0.243
Mof_Zn	Zn	5.29185e-17	0.91529	0.75	1.161
Mof_Zn	Zn	0.5	0.41529	0.75	1.177
Mof_Zn	Zn	1.36044e-33	0.08471	0.25	1.161
Mof_Zn	Zn	0.5	0.58471	0.25	1.177
_end
