# CIF file generated by openbabel 3.1.0, see https://openbabel.org
data_I
_chemical_name_common 'image0'
_cell_length_a 10.5626
_cell_length_b 11.4559
_cell_length_c 13.4839
_cell_angle_alpha 69.112
_cell_angle_beta 78.889
_cell_angle_gamma 63.614
_space_group_name_H-M_alt 'P 1'
_space_group_name_Hall 'P 1'
loop_
    _symmetry_equiv_pos_as_xyz
    x,y,z
loop_
    _atom_site_label
    _atom_site_type_symbol
    _atom_site_fract_x
    _atom_site_fract_y
    _atom_site_fract_z
    _atom_site_occupancy
    U1       U        0.62316    0.71341    0.83667    1.000
    Ho1      Ho       0.59942    0.23148    0.75050    1.000
    C1       C        0.99770    0.34570    0.85000    1.000
    C2       C        0.11300    0.31650    0.90720    1.000
    H1       H        0.09870    0.36320    0.95530    1.000
    C3       C        0.24830    0.21870    0.89270    1.000
    C4       C        0.26690    0.14400    0.82260    1.000
    C5       C        0.14700    0.16620    0.77460    1.000
    H2       H        0.15710    0.11150    0.73410    1.000
    C6       C        0.01460    0.26740    0.78620    1.000
    C7       C        0.62810    0.99960    0.45010    1.000
    H3       H        0.71380    0.99980    0.41690    1.000
    C8       C        0.61800    0.87430    0.50570    1.000
    C9       C        0.49100    0.87370    0.55610    1.000
    C10      C        0.86180    0.46560    0.85410    1.000
    C11      C        0.36340    0.19570    0.95540    1.000
    C12      C        0.40740    0.04240    0.79780    1.000
    C13      C        0.89430    0.29210    0.72490    1.000
    C14      C        0.47170    0.74420    0.62200    1.000
    C15      C        0.74430    0.74730    0.50790    1.000
    O1       O        0.85090    0.53870    0.91190    1.000
    O2       O        0.76220    0.49580    0.80100    1.000
    O3       O        0.81450    0.23540    0.77090    1.000
    O4       O        0.88720    0.36170    0.62800    1.000
    O5       O        0.41680    0.92210    0.81750    1.000
    O6       O        0.50230    0.08010    0.75400    1.000
    O7       O        0.48160    0.18060    0.91510    1.000
    O8       O        0.32700    0.19520    0.05190    1.000
    O9       O        0.50270    0.69400    0.71840    1.000
    O10      O        0.41700    0.69730    0.58010    1.000
    O11      O        0.73700    0.63460    0.53680    1.000
    O12      O        0.86590    0.75100    0.47760    1.000
    U2       U        0.37684    0.28659    0.16333    1.000
    Ho2      Ho       0.40058    0.76852    0.24950    1.000
    C16      C        0.00230    0.65430    0.15000    1.000
    C17      C        0.88700    0.68350    0.09280    1.000
    H4       H        0.90130    0.63680    0.04470    1.000
    C18      C        0.75170    0.78130    0.10730    1.000
    C19      C        0.73310    0.85600    0.17740    1.000
    C20      C        0.85300    0.83380    0.22540    1.000
    H5       H        0.84290    0.88850    0.26590    1.000
    C21      C        0.98540    0.73260    0.21380    1.000
    C22      C        0.37190    0.00040    0.54990    1.000
    H6       H        0.28620    0.00020    0.58310    1.000
    C23      C        0.38200    0.12570    0.49430    1.000
    C24      C        0.50900    0.12630    0.44390    1.000
    C25      C        0.13820    0.53440    0.14590    1.000
    C26      C        0.63660    0.80430    0.04460    1.000
    C27      C        0.59260    0.95760    0.20220    1.000
    C28      C        0.10570    0.70790    0.27510    1.000
    C29      C        0.52830    0.25580    0.37800    1.000
    C30      C        0.25570    0.25270    0.49210    1.000
    O13      O        0.14910    0.46130    0.08810    1.000
    O14      O        0.23780    0.50420    0.19900    1.000
    O15      O        0.18550    0.76460    0.22910    1.000
    O16      O        0.11280    0.63830    0.37200    1.000
    O17      O        0.58320    0.07790    0.18250    1.000
    O18      O        0.49770    0.91990    0.24600    1.000
    O19      O        0.51840    0.81940    0.08490    1.000
    O20      O        0.67300    0.80480    0.94810    1.000
    O21      O        0.49730    0.30600    0.28160    1.000
    O22      O        0.58300    0.30270    0.41990    1.000
    O23      O        0.26300    0.36540    0.46320    1.000
    O24      O        0.13410    0.24900    0.52240    1.000
    U3       U        0.00000    0.50000    0.50000    1.000
