data_functionalizedCrystal
_audit_creation_method	'EQeq! by Chris Wilmer'
_symmetry_space_group_name_H-M	'P1'
_symmetry_Int_Tables_number	1
_symmetry_cell_setting	triclinic
loop_
_symmetry_equiv_pos_as_xyz
  x,y,z
_cell_length_a	38.4265
_cell_length_b	38.4265
_cell_length_c	38.4265
_cell_angle_alpha	90
_cell_angle_beta	90
_cell_angle_gamma	90
loop_
_atom_site_label
_atom_site_type_symbol
_atom_site_fract_x
_atom_site_fract_y
_atom_site_fract_z
_atom_site_charge
Mof_C 	C 	0.26205	0.07435	0.02415	0.1
Mof_C 	C 	0.26896	0.11006	0.01241	-0.062
Mof_H 	H 	0.27377	0.13272	0.0284	0.055
Mof_C 	C 	0.24077	0.92842	0.97294	0.099
Mof_C 	C 	0.23387	0.8927	0.98465	-0.063
Mof_H 	H 	0.22883	0.87011	0.96863	0.055
Mof_C 	C 	0.24759	0.97056	0.92468	0.089
Mof_C 	C 	0.24964	0.98128	0.8883	-0.055
Mof_H 	H 	0.24905	0.96533	0.86513	0.053
Mof_C 	C 	0.25511	0.03224	0.07244	0.089
Mof_C 	C 	0.25296	0.02152	0.10881	-0.057
Mof_H 	H 	0.25329	0.03752	0.13196	0.053
Mof_C 	C 	0.26221	0.07434	0.96754	0.089
Mof_C 	C 	0.26897	0.11013	0.97828	-0.057
Mof_H 	H 	0.2737	0.13267	0.96206	0.052
Mof_C 	C 	0.24113	0.92829	0.02957	0.088
Mof_C 	C 	0.23414	0.89255	0.01878	-0.057
Mof_H 	H 	0.22941	0.86998	0.03496	0.052
Mof_C 	C 	0.25324	0.02695	0.9248	0.099
Mof_C 	C 	0.25215	0.01528	0.88842	-0.064
Mof_H 	H 	0.25348	0.03105	0.86518	0.054
Mof_C 	C 	0.24998	0.97573	0.07235	0.098
Mof_C 	C 	0.2508	0.98747	0.10871	-0.062
Mof_H 	H 	0.24951	0.9717	0.13196	0.053
Mof_Fe	Fe	0.25156	0.00135	0.99857	0.626
Mof_C 	C 	0.25873	0.06523	0.06143	-0.106
Mof_C 	C 	0.24372	0.93763	0.93565	-0.106
Mof_C 	C 	0.25816	0.0639	0.93448	-0.108
Mof_C 	C 	0.24517	0.9387	0.06266	-0.106
Mof_N 	N 	0.25909	0.05311	0.99789	-0.209
Mof_N 	N 	0.24405	0.94958	0.99924	-0.209
Mof_N 	N 	0.25042	0.00078	0.9462	-0.209
Mof_N 	N 	0.25268	0.00193	0.05095	-0.209
Mof_C 	C 	0.76383	0.57119	0.52438	0.098
Mof_C 	C 	0.76965	0.60735	0.51348	-0.062
Mof_H 	H 	0.77426	0.62968	0.52998	0.054
Mof_C 	C 	0.74622	0.42587	0.4696	0.097
Mof_C 	C 	0.7404	0.38973	0.48054	-0.063
Mof_H 	H 	0.73561	0.36741	0.46407	0.051
Mof_C 	C 	0.75076	0.46952	0.42233	0.088
Mof_C 	C 	0.75165	0.48131	0.38623	-0.056
Mof_H 	H 	0.75094	0.46597	0.36265	0.053
Mof_C 	C 	0.75905	0.52764	0.57167	0.087
Mof_C 	C 	0.75783	0.51593	0.60777	-0.057
Mof_H 	H 	0.75822	0.53131	0.63133	0.052
Mof_C 	C 	0.76302	0.57268	0.46773	0.088
Mof_C 	C 	0.76912	0.60832	0.47936	-0.057
Mof_H 	H 	0.77315	0.63139	0.46372	0.055
Mof_C 	C 	0.74733	0.42435	0.52631	0.087
Mof_C 	C 	0.7411	0.38874	0.51467	-0.057
Mof_H 	H 	0.73702	0.36568	0.53031	0.051
Mof_C 	C 	0.75487	0.52612	0.42386	0.098
Mof_C 	C 	0.75325	0.51537	0.38723	-0.063
Mof_H 	H 	0.75355	0.53178	0.3644	0.052
Mof_C 	C 	0.75517	0.47102	0.57019	0.098
Mof_C 	C 	0.75642	0.48186	0.60681	-0.063
Mof_H 	H 	0.75597	0.46548	0.62967	0.053
Mof_Fe	Fe	0.75515	0.49853	0.49701	0.625
Mof_C 	C 	0.76157	0.56104	0.56152	-0.105
Mof_C 	C 	0.74782	0.43614	0.43242	-0.104
Mof_C 	C 	0.75889	0.56304	0.43439	-0.105
Mof_C 	C 	0.75095	0.43409	0.5597	-0.105
Mof_N 	N 	0.76094	0.55057	0.49758	-0.209
Mof_N 	N 	0.74941	0.44646	0.49642	-0.208
Mof_N 	N 	0.75329	0.49928	0.4446	-0.208
Mof_N 	N 	0.75696	0.49782	0.54941	-0.208
Mof_C 	C 	0.74421	0.96801	0.07137	0.087
Mof_C 	C 	0.74551	0.97924	0.10763	-0.056
Mof_H 	H 	0.74553	0.96352	0.13097	0.052
Mof_C 	C 	0.74966	0.02838	0.92284	0.087
Mof_C 	C 	0.74856	0.01711	0.88658	-0.057
Mof_H 	H 	0.74866	0.03282	0.86323	0.052
Mof_C 	C 	0.75404	0.07142	0.97067	0.097
Mof_C 	C 	0.75928	0.10752	0.98205	-0.063
Mof_H 	H 	0.76343	0.13015	0.96584	0.053
Mof_C 	C 	0.73988	0.925	0.02352	0.098
Mof_C 	C 	0.73485	0.88887	0.01213	-0.063
Mof_H 	H 	0.73087	0.8662	0.02834	0.054
Mof_C 	C 	0.74721	0.0247	0.07067	0.097
Mof_C 	C 	0.74644	0.01334	0.10714	-0.064
Mof_H 	H 	0.74685	0.02942	0.13022	0.053
Mof_C 	C 	0.74677	0.97169	0.92355	0.098
Mof_C 	C 	0.74768	0.98302	0.88708	-0.063
Mof_H 	H 	0.74744	0.96695	0.864	0.054
Mof_C 	C 	0.75361	0.07211	0.02738	0.087
Mof_C 	C 	0.75899	0.10801	0.01619	-0.057
Mof_H 	H 	0.76281	0.13092	0.0321	0.052
Mof_C 	C 	0.74037	0.92431	0.96683	0.088
Mof_C 	C 	0.73522	0.88838	0.978	-0.056
Mof_H 	H 	0.73163	0.86544	0.96206	0.052
Mof_Fe	Fe	0.74688	0.99821	0.9971	0.626
Mof_C 	C 	0.74198	0.93472	0.06079	-0.105
Mof_C 	C 	0.75219	0.06165	0.93339	-0.105
Mof_C 	C 	0.7505	0.06185	0.06066	-0.106
Mof_C 	C 	0.74377	0.93454	0.93357	-0.106
Mof_N 	N 	0.74572	0.99816	0.04953	-0.208
Mof_N 	N 	0.74803	0.99825	0.94469	-0.208
Mof_N 	N 	0.75159	0.05039	0.99722	-0.208
Mof_N 	N 	0.74217	0.94605	0.99698	-0.208
Mof_C 	C 	0.24359	0.46663	0.5722	0.088
Mof_C 	C 	0.24553	0.4768	0.60874	-0.057
Mof_H 	H 	0.24564	0.46041	0.63161	0.053
Mof_C 	C 	0.24654	0.53088	0.42538	0.088
Mof_C 	C 	0.24447	0.52062	0.38886	-0.056
Mof_H 	H 	0.24403	0.53696	0.36595	0.053
Mof_C 	C 	0.2524	0.57258	0.47424	0.097
Mof_C 	C 	0.25817	0.60832	0.48644	-0.064
Mof_H 	H 	0.2621	0.63135	0.47073	0.052
Mof_C 	C 	0.23812	0.42498	0.5233	0.098
Mof_C 	C 	0.23279	0.38917	0.51106	-0.063
Mof_H 	H 	0.22908	0.36608	0.52673	0.054
Mof_C 	C 	0.24718	0.52327	0.57304	0.098
Mof_C 	C 	0.24683	0.51089	0.6092	-0.062
Mof_H 	H 	0.24772	0.52631	0.63271	0.055
Mof_C 	C 	0.24342	0.47427	0.42462	0.099
Mof_C 	C 	0.24345	0.48655	0.38845	-0.063
Mof_H 	H 	0.24251	0.47109	0.36497	0.054
Mof_C 	C 	0.25322	0.57178	0.53094	0.086
Mof_C 	C 	0.25866	0.60791	0.52058	-0.057
Mof_H 	H 	0.263	0.63037	0.53701	0.051
Mof_C 	C 	0.23762	0.42581	0.46669	0.089
Mof_C 	C 	0.23258	0.3896	0.47694	-0.057
Mof_H 	H 	0.2287	0.3671	0.46044	0.053
Mof_Fe	Fe	0.24518	0.4988	0.49881	0.626
Mof_C 	C 	0.24099	0.4337	0.5607	-0.106
Mof_C 	C 	0.2496	0.56378	0.43679	-0.105
Mof_C 	C 	0.25072	0.56064	0.564	-0.104
Mof_C 	C 	0.24056	0.43693	0.43372	-0.107
Mof_N 	N 	0.24504	0.49735	0.5512	-0.208
Mof_N 	N 	0.24528	0.50022	0.44643	-0.208
Mof_N 	N 	0.25035	0.55089	0.50027	-0.208
Mof_N 	N 	0.24001	0.44673	0.49734	-0.209
Mof_C 	C 	0.07387	0.25523	0.0251	0.089
Mof_C 	C 	0.10951	0.26052	0.01308	-0.057
Mof_H 	H 	0.13256	0.26571	0.02839	0.054
Mof_C 	C 	0.92535	0.25376	0.96722	0.089
Mof_C 	C 	0.88972	0.25965	0.97896	-0.057
Mof_H 	H 	0.86669	0.26434	0.96344	0.054
Mof_C 	C 	0.97196	0.24549	0.92363	0.099
Mof_C 	C 	0.98253	0.23823	0.88762	-0.066
Mof_H 	H 	0.96583	0.23366	0.86543	0.053
Mof_C 	C 	0.02723	0.24906	0.06908	0.098
Mof_C 	C 	0.01662	0.24353	0.10539	-0.062
Mof_H 	H 	0.03329	0.24009	0.12781	0.053
Mof_C 	C 	0.07232	0.25216	0.96856	0.099
Mof_C 	C 	0.10853	0.25855	0.979	-0.064
Mof_H 	H 	0.13086	0.26205	0.96222	0.055
Mof_C 	C 	0.92685	0.2529	0.02378	0.099
Mof_C 	C 	0.89065	0.25897	0.01307	-0.063
Mof_H 	H 	0.86833	0.2632	0.02968	0.056
Mof_C 	C 	0.0285	0.2436	0.92216	0.089
Mof_C 	C 	0.01662	0.23695	0.8867	-0.056
Mof_H 	H 	0.03204	0.23135	0.86381	0.05
Mof_C 	C 	0.97067	0.24697	0.07058	0.088
Mof_C 	C 	0.98252	0.24214	0.10633	-0.059
Mof_H 	H 	0.96709	0.23758	0.12945	0.051
Mof_Fe	Fe	0.9996	0.24994	0.99627	0.627
Mof_C 	C 	0.06408	0.25287	0.05853	-0.106
Mof_C 	C 	0.93517	0.25004	0.93395	-0.108
Mof_C 	C 	0.06182	0.2472	0.93184	-0.107
Mof_C 	C 	0.9373	0.24952	0.06066	-0.107
Mof_N 	N 	0.05181	0.25108	0.99551	-0.209
Mof_N 	N 	0.94739	0.25074	0.99694	-0.21
Mof_N 	N 	0.99885	0.24768	0.94411	-0.21
Mof_N 	N 	0.00034	0.25022	0.0485	-0.209
Mof_C 	C 	0.57509	0.75758	0.52997	0.089
Mof_C 	C 	0.61065	0.76268	0.51762	-0.057
Mof_H 	H 	0.63402	0.76694	0.53275	0.054
Mof_C 	C 	0.42582	0.76134	0.47453	0.09
Mof_C 	C 	0.39046	0.76745	0.48695	-0.057
Mof_H 	H 	0.36731	0.77299	0.4719	0.053
Mof_C 	C 	0.47159	0.75358	0.42989	0.099
Mof_C 	C 	0.48146	0.74748	0.39347	-0.064
Mof_H 	H 	0.46435	0.74396	0.3714	0.054
Mof_C 	C 	0.52897	0.7508	0.57448	0.098
Mof_C 	C 	0.51879	0.74423	0.61074	-0.064
Mof_H 	H 	0.53574	0.7396	0.63273	0.053
Mof_C 	C 	0.57271	0.7566	0.47341	0.099
Mof_C 	C 	0.60917	0.76197	0.48353	-0.064
Mof_H 	H 	0.63131	0.76572	0.46656	0.056
Mof_C 	C 	0.42806	0.7586	0.53098	0.099
Mof_C 	C 	0.39185	0.7657	0.521	-0.063
Mof_H 	H 	0.36983	0.76977	0.53805	0.054
Mof_C 	C 	0.52809	0.75085	0.42738	0.088
Mof_C 	C 	0.51552	0.7457	0.39192	-0.057
Mof_H 	H 	0.53045	0.74064	0.36858	0.051
Mof_C 	C 	0.47235	0.75005	0.57688	0.088
Mof_C 	C 	0.48467	0.74365	0.61222	-0.057
Mof_H 	H 	0.46951	0.73863	0.63542	0.051
Mof_Fe	Fe	0.50035	0.75502	0.5022	0.629
Mof_C 	C 	0.56576	0.75402	0.56342	-0.106
Mof_C 	C 	0.43502	0.75806	0.44104	-0.108
Mof_C 	C 	0.56167	0.75307	0.43667	-0.107
Mof_C 	C 	0.43885	0.75343	0.56756	-0.107
Mof_N 	N 	0.55254	0.75498	0.5006	-0.21
Mof_N 	N 	0.44821	0.75704	0.5038	-0.21
Mof_N 	N 	0.49885	0.75469	0.44997	-0.21
Mof_N 	N 	0.50179	0.75342	0.55442	-0.209
Mof_C 	C 	0.02948	0.73704	0.92609	0.089
Mof_C 	C 	0.01694	0.73085	0.89079	-0.056
Mof_H 	H 	0.03189	0.72482	0.8677	0.052
Mof_C 	C 	0.97329	0.74227	0.07528	0.087
Mof_C 	C 	0.98553	0.73709	0.11086	-0.058
Mof_H 	H 	0.97033	0.73292	0.13419	0.052
Mof_C 	C 	0.9292	0.74984	0.029	0.098
Mof_C 	C 	0.89322	0.75754	0.01863	-0.064
Mof_H 	H 	0.87126	0.76276	0.03545	0.053
Mof_C 	C 	0.07404	0.74451	0.97193	0.099
Mof_C 	C 	0.11045	0.7504	0.98198	-0.064
Mof_H 	H 	0.13264	0.75369	0.96499	0.054
Mof_C 	C 	0.97304	0.74087	0.92829	0.099
Mof_C 	C 	0.98292	0.73327	0.89214	-0.065
Mof_H 	H 	0.96581	0.72934	0.87014	0.055
Mof_C 	C 	0.02992	0.74292	0.073	0.099
Mof_C 	C 	0.01965	0.73767	0.10945	-0.063
Mof_H 	H 	0.03657	0.73391	0.13163	0.055
Mof_C 	C 	0.92723	0.75103	0.97241	0.088
Mof_C 	C 	0.892	0.75842	0.98452	-0.058
Mof_H 	H 	0.86908	0.76422	0.96924	0.051
Mof_C 	C 	0.07624	0.74773	0.02845	0.088
Mof_C 	C 	0.11181	0.75246	0.01604	-0.057
Mof_H 	H 	0.1351	0.75749	0.03105	0.051
Mof_Fe	Fe	0.00156	0.74436	0.00057	0.629
Mof_C 	C 	0.06305	0.73999	0.93525	-0.107
Mof_C 	C 	0.93985	0.74598	0.06584	-0.106
Mof_C 	C 	0.93659	0.74705	0.93902	-0.107
Mof_C 	C 	0.06671	0.74606	0.062	-0.107
Mof_N 	N 	0.00023	0.74202	0.94843	-0.209
Mof_N 	N 	0.00279	0.74471	0.05279	-0.209
Mof_N 	N 	0.94939	0.74694	0.00192	-0.21
Mof_N 	N 	0.0538	0.7438	0.99913	-0.209
Mof_C 	C 	0.52597	0.23805	0.42067	0.089
Mof_C 	C 	0.51273	0.23377	0.38535	-0.057
Mof_H 	H 	0.5272	0.22876	0.36171	0.055
Mof_C 	C 	0.47312	0.23739	0.57104	0.089
Mof_C 	C 	0.48603	0.23082	0.60615	-0.056
Mof_H 	H 	0.47126	0.2261	0.62965	0.055
Mof_C 	C 	0.42806	0.24714	0.52608	0.098
Mof_C 	C 	0.39185	0.25521	0.51685	-0.064
Mof_H 	H 	0.37027	0.25966	0.53437	0.052
Mof_C 	C 	0.57153	0.2429	0.46586	0.099
Mof_C 	C 	0.6082	0.2482	0.4753	-0.064
Mof_H 	H 	0.63003	0.25205	0.45797	0.053
Mof_C 	C 	0.46964	0.24242	0.42413	0.099
Mof_C 	C 	0.47877	0.2365	0.38747	-0.063
Mof_H 	H 	0.46122	0.23384	0.36562	0.055
Mof_C 	C 	0.52963	0.23747	0.56757	0.1
Mof_C 	C 	0.52011	0.23101	0.60402	-0.063
Mof_H 	H 	0.53747	0.22631	0.62568	0.056
Mof_C 	C 	0.4248	0.25063	0.46963	0.088
Mof_C 	C 	0.38986	0.25748	0.48283	-0.058
Mof_H 	H 	0.36659	0.26385	0.46832	0.051
Mof_C 	C 	0.57499	0.24386	0.52232	0.089
Mof_C 	C 	0.61031	0.24894	0.50935	-0.058
Mof_H 	H 	0.63395	0.2533	0.52402	0.051
Mof_Fe	Fe	0.4997	0.24227	0.49591	0.629
Mof_C 	C 	0.55971	0.23999	0.42935	-0.107
Mof_C 	C 	0.43959	0.24193	0.56248	-0.106
Mof_C 	C 	0.43344	0.24825	0.43588	-0.107
Mof_C 	C 	0.56617	0.24094	0.55593	-0.108
Mof_N 	N 	0.49722	0.24232	0.44377	-0.21
Mof_N 	N 	0.50212	0.24028	0.54802	-0.21
Mof_N 	N 	0.44761	0.24527	0.49845	-0.209
Mof_N 	N 	0.55188	0.24122	0.4934	-0.21
Mof_C 	C 	0.0745	0.02698	0.24545	0.089
Mof_C 	C 	0.11009	0.01377	0.24579	-0.057
Mof_H 	H 	0.13423	0.02821	0.24462	0.053
Mof_C 	C 	0.92339	0.97509	0.24336	0.089
Mof_C 	C 	0.88821	0.98797	0.23714	-0.057
Mof_H 	H 	0.86458	0.97321	0.23312	0.052
Mof_C 	C 	0.96826	0.92987	0.25321	0.099
Mof_C 	C 	0.97724	0.89341	0.26047	-0.065
Mof_H 	H 	0.95958	0.87188	0.26454	0.055
Mof_C 	C 	0.02923	0.07291	0.24338	0.099
Mof_C 	C 	0.02004	0.11001	0.24268	-0.062
Mof_H 	H 	0.03753	0.13205	0.24209	0.054
Mof_C 	C 	0.07063	0.9706	0.24928	0.099
Mof_C 	C 	0.10769	0.97979	0.24742	-0.063
Mof_H 	H 	0.1298	0.96241	0.24729	0.055
Mof_C 	C 	0.92705	0.03158	0.24203	0.098
Mof_C 	C 	0.89045	0.02203	0.23657	-0.064
Mof_H 	H 	0.86877	0.03935	0.23182	0.054
Mof_C 	C 	0.02467	0.926	0.25598	0.089
Mof_C 	C 	0.01125	0.89102	0.26208	-0.055
Mof_H 	H 	0.02565	0.86744	0.26755	0.052
Mof_C 	C 	0.97271	0.07695	0.2432	0.087
Mof_C 	C 	0.98603	0.11251	0.24339	-0.058
Mof_H 	H 	0.97168	0.13672	0.24387	0.051
Mof_Fe	Fe	0.9988	0.00125	0.24701	0.625
Mof_C 	C 	0.06575	0.06073	0.24433	-0.108
Mof_C 	C 	0.93199	0.94154	0.24763	-0.107
Mof_C 	C 	0.05848	0.93423	0.25347	-0.106
Mof_C 	C 	0.93888	0.06823	0.24277	-0.106
Mof_N 	N 	0.05104	0.99827	0.24773	-0.208
Mof_N 	N 	0.94659	0.00405	0.24521	-0.209
Mof_N 	N 	0.99599	0.94925	0.25159	-0.21
Mof_N 	N 	0.00153	0.05339	0.24343	-0.208
Mof_C 	C 	0.57822	0.52153	0.74679	0.089
Mof_C 	C 	0.61317	0.50807	0.7405	-0.058
Mof_H 	H 	0.63699	0.52243	0.7361	0.051
Mof_C 	C 	0.42646	0.47174	0.74854	0.09
Mof_C 	C 	0.39107	0.48549	0.74864	-0.057
Mof_H 	H 	0.36672	0.47145	0.74702	0.053
Mof_C 	C 	0.471	0.42519	0.74697	0.1
Mof_C 	C 	0.47967	0.38797	0.74664	-0.064
Mof_H 	H 	0.46189	0.36617	0.74587	0.054
Mof_C 	C 	0.53407	0.56736	0.75675	0.1
Mof_C 	C 	0.52559	0.60391	0.76415	-0.063
Mof_H 	H 	0.54354	0.62524	0.76801	0.056
Mof_C 	C 	0.57374	0.46512	0.74627	0.099
Mof_C 	C 	0.61045	0.47405	0.74049	-0.064
Mof_H 	H 	0.63185	0.45635	0.73586	0.053
Mof_C 	C 	0.4312	0.52794	0.75311	0.099
Mof_C 	C 	0.394	0.51938	0.75079	-0.063
Mof_H 	H 	0.37217	0.53712	0.75067	0.054
Mof_C 	C 	0.52741	0.42042	0.74775	0.089
Mof_C 	C 	0.51362	0.38502	0.74795	-0.057
Mof_H 	H 	0.52766	0.36064	0.74877	0.054
Mof_C 	C 	0.47779	0.57184	0.76016	0.09
Mof_C 	C 	0.49163	0.60667	0.76615	-0.057
Mof_H 	H 	0.47752	0.6304	0.77172	0.054
Mof_Fe	Fe	0.50251	0.49639	0.75088	0.628
Mof_C 	C 	0.57012	0.55523	0.75078	-0.107
Mof_C 	C 	0.43469	0.43791	0.74727	-0.109
Mof_C 	C 	0.56131	0.42872	0.74738	-0.107
Mof_C 	C 	0.44392	0.56399	0.75765	-0.108
Mof_N 	N 	0.55463	0.49294	0.74919	-0.209
Mof_N 	N 	0.45034	0.50002	0.75143	-0.21
Mof_N 	N 	0.49896	0.44433	0.74741	-0.21
Mof_N 	N 	0.50611	0.5483	0.75544	-0.21
Mof_C 	C 	0.97565	0.07226	0.74682	0.089
Mof_C 	C 	0.98836	0.10802	0.74666	-0.059
Mof_H 	H 	0.97357	0.13195	0.74559	0.052
Mof_C 	C 	0.02978	0.92181	0.74431	0.089
Mof_C 	C 	0.01719	0.88644	0.73853	-0.056
Mof_H 	H 	0.03214	0.86293	0.73451	0.053
Mof_C 	C 	0.07456	0.96729	0.7531	0.098
Mof_C 	C 	0.11102	0.97693	0.75943	-0.063
Mof_H 	H 	0.13292	0.95968	0.76326	0.052
Mof_C 	C 	0.93039	0.02641	0.74602	0.099
Mof_C 	C 	0.89343	0.01668	0.7464	-0.064
Mof_H 	H 	0.87114	0.03386	0.74648	0.056
Mof_C 	C 	0.0321	0.06912	0.74955	0.099
Mof_C 	C 	0.02239	0.10607	0.74768	-0.062
Mof_H 	H 	0.03947	0.12841	0.74707	0.053
Mof_C 	C 	0.97325	0.92485	0.74368	0.098
Mof_C 	C 	0.98311	0.88831	0.73836	-0.065
Mof_H 	H 	0.96596	0.8664	0.73404	0.054
Mof_C 	C 	0.07757	0.0238	0.75522	0.088
Mof_C 	C 	0.1129	0.011	0.76061	-0.058
Mof_H 	H 	0.13635	0.02585	0.76539	0.052
Mof_C 	C 	0.92726	0.96989	0.746	0.089
Mof_C 	C 	0.89149	0.98264	0.74714	-0.056
Mof_H 	H 	0.86755	0.96788	0.74826	0.053
Mof_Fe	Fe	0.00258	0.99691	0.74806	0.628
Mof_C 	C 	0.94202	0.06309	0.74636	-0.108
Mof_C 	C 	0.06328	0.93073	0.74842	-0.106
Mof_C 	C 	0.06867	0.05745	0.75291	-0.107
Mof_C 	C 	0.93652	0.93624	0.74526	-0.107
Mof_N 	N 	0.00471	0.04918	0.74869	-0.209
Mof_N 	N 	0.00058	0.94471	0.7463	-0.209
Mof_N 	N 	0.05472	0.99473	0.75157	-0.209
Mof_N 	N 	0.95034	0.99902	0.74562	-0.209
Mof_C 	C 	0.47045	0.57847	0.24378	0.089
Mof_C 	C 	0.48343	0.61414	0.24404	-0.056
Mof_H 	H 	0.46879	0.63818	0.24383	0.054
Mof_C 	C 	0.52399	0.42766	0.23852	0.088
Mof_C 	C 	0.5111	0.39243	0.23264	-0.057
Mof_H 	H 	0.52585	0.36888	0.22808	0.053
Mof_C 	C 	0.56909	0.47281	0.24701	0.098
Mof_C 	C 	0.60567	0.48222	0.25295	-0.064
Mof_H 	H 	0.62753	0.46485	0.25642	0.053
Mof_C 	C 	0.42499	0.5328	0.24316	0.099
Mof_C 	C 	0.38802	0.52313	0.24407	-0.063
Mof_H 	H 	0.36576	0.54034	0.24462	0.053
Mof_C 	C 	0.52701	0.57494	0.24523	0.099
Mof_C 	C 	0.51748	0.61196	0.24427	-0.063
Mof_H 	H 	0.53472	0.63418	0.24382	0.057
Mof_C 	C 	0.46748	0.43101	0.2391	0.099
Mof_C 	C 	0.47704	0.39448	0.23319	-0.063
Mof_H 	H 	0.4597	0.3727	0.22901	0.054
Mof_C 	C 	0.57237	0.52928	0.24955	0.088
Mof_C 	C 	0.60771	0.51626	0.2544	-0.057
Mof_H 	H 	0.63129	0.53093	0.25909	0.051
Mof_C 	C 	0.4217	0.47623	0.24273	0.089
Mof_C 	C 	0.38601	0.48908	0.24461	-0.057
Mof_H 	H 	0.36205	0.47438	0.24603	0.053
Mof_Fe	Fe	0.49714	0.50291	0.2435	0.627
Mof_C 	C 	0.43671	0.5695	0.2439	-0.106
Mof_C 	C 	0.55762	0.43631	0.24225	-0.106
Mof_C 	C 	0.5636	0.563	0.24777	-0.106
Mof_C 	C 	0.43086	0.44255	0.24172	-0.107
Mof_N 	N 	0.49947	0.55518	0.24461	-0.209
Mof_N 	N 	0.49494	0.45072	0.24128	-0.209
Mof_N 	N 	0.54934	0.50037	0.24597	-0.209
Mof_N 	N 	0.44486	0.50532	0.24211	-0.209
Mof_O 	O 	0.2004	0.2534	0.15735	-0.601
Mof_O 	O 	0.23526	0.28447	0.14581	-0.537
Mof_O 	O 	0.25335	0.16249	0.19716	-0.623
Mof_O 	O 	0.29061	0.15733	0.23817	-0.562
Mof_O 	O 	0.16034	0.19857	0.24612	-0.665
Mof_O 	O 	0.15472	0.24845	0.28856	-0.596
Mof_O 	O 	0.33957	0.25754	0.2963	-0.624
Mof_O 	O 	0.34689	0.21659	0.25852	-0.6
Mof_O 	O 	0.29479	0.34217	0.24486	-0.601
Mof_O 	O 	0.25715	0.35736	0.22024	-0.51
Mof_O 	O 	0.24859	0.30077	0.33617	-0.664
Mof_O 	O 	0.20624	0.24528	0.33703	-0.589
Mof_O 	O 	0.29659	0.25323	0.33736	-0.609
Mof_O 	O 	0.25913	0.22572	0.35253	-0.527
Mof_O 	O 	0.24441	0.34106	0.29289	-0.654
Mof_O 	O 	0.20566	0.34046	0.23568	-0.564
Mof_O 	O 	0.33837	0.30226	0.25173	-0.642
Mof_O 	O 	0.34365	0.25665	0.20793	-0.578
Mof_O 	O 	0.15783	0.24973	0.19894	-0.605
Mof_O 	O 	0.14243	0.27613	0.24044	-0.524
Mof_O 	O 	0.20405	0.15832	0.24274	-0.623
Mof_O 	O 	0.24167	0.1514	0.2803	-0.554
Mof_O 	O 	0.25022	0.20636	0.15721	-0.643
Mof_O 	O 	0.28985	0.25462	0.15603	-0.578
Mof_Zr	Zr	0.24521	0.2516	0.18885	3.204
Mof_O 	O 	0.28184	0.28422	0.21216	-1.609
Mof_Zr	Zr	0.24758	0.19151	0.243	3.212
Mof_O 	O 	0.28017	0.21791	0.2784	-1.582
Mof_Zr	Zr	0.18818	0.24594	0.24469	3.208
Mof_O 	O 	0.21357	0.28249	0.27779	-1.563
Mof_Zr	Zr	0.30904	0.25597	0.25099	3.208
Mof_O 	O 	0.2839	0.22177	0.21506	-1.277
Mof_Zr	Zr	0.25019	0.30999	0.24744	3.203
Mof_O 	O 	0.21285	0.28624	0.21574	-1.339
Mof_Zr	Zr	0.25116	0.25488	0.30656	3.209
Mof_O 	O 	0.2185	0.21787	0.28159	-1.312
Mof_O 	O 	0.21286	0.2141	0.20945	-1.667
Mof_O 	O 	0.28424	0.29067	0.28422	-1.368
Mof_C 	C 	0.16811	0.25242	0.16695	0.449
Mof_C 	C 	0.25369	0.17389	0.1656	0.478
Mof_C 	C 	0.17163	0.16691	0.24513	0.47
Mof_C 	C 	0.32894	0.25514	0.32814	0.458
Mof_C 	C 	0.32728	0.33378	0.2479	0.466
Mof_C 	C 	0.24558	0.33236	0.32538	0.49
Mof_H 	H 	0.29509	0.30013	0.19679	0.371
Mof_H 	H 	0.19747	0.29706	0.29165	0.341
Mof_H 	H 	0.19864	0.19942	0.19364	0.406
Mof_H 	H 	0.29433	0.20284	0.29373	0.326
Mof_H 	H 	0.34368	0.19962	0.23941	0.194
Mof_H 	H 	0.30223	0.15555	0.26107	0.164
Mof_H 	H 	0.19358	0.34622	0.25768	0.173
Mof_H 	H 	0.14954	0.30049	0.24495	0.172
Mof_H 	H 	0.36771	0.25916	0.21694	0.202
Mof_H 	H 	0.28344	0.25031	0.13139	0.218
Mof_H 	H 	0.19704	0.26785	0.34534	0.19
Mof_H 	H 	0.15569	0.22585	0.30091	0.221
Mof_H 	H 	0.24402	0.30769	0.15273	0.133
Mof_H 	H 	0.25482	0.35171	0.19512	0.138
Mof_H 	H 	0.25128	0.16036	0.3024	0.144
Mof_H 	H 	0.25461	0.20111	0.34631	0.151
Mof_O 	O 	0.70235	0.66029	0.24663	-0.594
Mof_O 	O 	0.7382	0.64834	0.21843	-0.536
Mof_O 	O 	0.7488	0.7025	0.33986	-0.622
Mof_O 	O 	0.78744	0.74341	0.34514	-0.562
Mof_O 	O 	0.65883	0.74988	0.29897	-0.663
Mof_O 	O 	0.65374	0.78966	0.24645	-0.598
Mof_O 	O 	0.8392	0.8016	0.24549	-0.623
Mof_O 	O 	0.84593	0.76567	0.28764	-0.599
Mof_O 	O 	0.79945	0.74731	0.16084	-0.601
Mof_O 	O 	0.76219	0.72143	0.1448	-0.514
Mof_O 	O 	0.74486	0.83866	0.19854	-0.67
Mof_O 	O 	0.70423	0.8374	0.25738	-0.589
Mof_O 	O 	0.79532	0.84193	0.24697	-0.603
Mof_O 	O 	0.75763	0.85843	0.27049	-0.52
Mof_O 	O 	0.75011	0.79498	0.15883	-0.649
Mof_O 	O 	0.71041	0.73827	0.1583	-0.567
Mof_O 	O 	0.84099	0.75575	0.20254	-0.642
Mof_O 	O 	0.84438	0.71305	0.2501	-0.578
Mof_O 	O 	0.65904	0.70099	0.25145	-0.609
Mof_O 	O 	0.64482	0.74009	0.22012	-0.524
Mof_O 	O 	0.70088	0.74789	0.34097	-0.626
Mof_O 	O 	0.73891	0.78642	0.34815	-0.56
Mof_O 	O 	0.75258	0.66214	0.2964	-0.643
Mof_O 	O 	0.79192	0.65997	0.24866	-0.578
Mof_Zr	Zr	0.74691	0.69245	0.25023	3.203
Mof_O 	O 	0.78445	0.71591	0.21873	-1.61
Mof_Zr	Zr	0.74561	0.74774	0.30947	3.212
Mof_O 	O 	0.77854	0.78333	0.28369	-1.583
Mof_Zr	Zr	0.68855	0.7472	0.2527	3.208
Mof_O 	O 	0.71478	0.78	0.21636	-1.56
Mof_Zr	Zr	0.80952	0.75583	0.24743	3.208
Mof_O 	O 	0.78372	0.72006	0.28125	-1.276
Mof_Zr	Zr	0.75333	0.75005	0.19098	3.203
Mof_O 	O 	0.7155	0.71814	0.21387	-1.34
Mof_Zr	Zr	0.7504	0.81015	0.24503	3.208
Mof_O 	O 	0.7168	0.78524	0.28127	-1.303
Mof_O 	O 	0.71269	0.71304	0.28608	-1.669
Mof_O 	O 	0.78552	0.78792	0.21106	-1.37
Mof_C 	C 	0.66986	0.66924	0.24836	0.445
Mof_C 	C 	0.75223	0.67091	0.32897	0.477
Mof_C 	C 	0.6688	0.74974	0.33109	0.47
Mof_C 	C 	0.8279	0.83328	0.24626	0.456
Mof_C 	C 	0.83151	0.75104	0.17062	0.463
Mof_C 	C 	0.74636	0.82742	0.16697	0.488
Mof_H 	H 	0.7987	0.70053	0.20372	0.372
Mof_H 	H 	0.69892	0.79321	0.20095	0.343
Mof_H 	H 	0.6983	0.69739	0.30074	0.407
Mof_H 	H 	0.79171	0.79929	0.29901	0.324
Mof_H 	H 	0.84246	0.74723	0.30529	0.192
Mof_H 	H 	0.79898	0.76636	0.34684	0.166
Mof_H 	H 	0.69911	0.76031	0.15126	0.175
Mof_H 	H 	0.6532	0.74381	0.19604	0.177
Mof_H 	H 	0.86843	0.7221	0.24779	0.202
Mof_H 	H 	0.78584	0.63532	0.25342	0.217
Mof_H 	H 	0.6952	0.84767	0.23554	0.188
Mof_H 	H 	0.65178	0.8022	0.26888	0.222
Mof_H 	H 	0.74782	0.65452	0.19532	0.132
Mof_H 	H 	0.75989	0.69651	0.15122	0.137
Mof_H 	H 	0.74376	0.80907	0.33696	0.151
Mof_H 	H 	0.75431	0.8539	0.29571	0.149
Mof_O 	O 	0.69899	0.33303	0.74893	-0.598
Mof_O 	O 	0.73455	0.3476	0.77628	-0.534
Mof_O 	O 	0.75118	0.29525	0.65501	-0.622
Mof_O 	O 	0.79102	0.25615	0.64969	-0.565
Mof_O 	O 	0.66166	0.24395	0.69389	-0.662
Mof_O 	O 	0.65945	0.20028	0.74243	-0.595
Mof_O 	O 	0.84479	0.20136	0.74746	-0.622
Mof_O 	O 	0.8498	0.23878	0.70783	-0.596
Mof_O 	O 	0.79957	0.24848	0.83424	-0.601
Mof_O 	O 	0.762	0.27515	0.84925	-0.512
Mof_O 	O 	0.75649	0.1574	0.79503	-0.659
Mof_O 	O 	0.71382	0.1532	0.74086	-0.588
Mof_O 	O 	0.80382	0.158	0.74894	-0.604
Mof_O 	O 	0.76723	0.14205	0.71821	-0.535
Mof_O 	O 	0.75072	0.20097	0.83475	-0.653
Mof_O 	O 	0.71106	0.25639	0.83574	-0.561
Mof_O 	O 	0.84253	0.24739	0.79305	-0.645
Mof_O 	O 	0.84403	0.29021	0.74614	-0.576
Mof_O 	O 	0.65836	0.28986	0.7428	-0.607
Mof_O 	O 	0.64649	0.24774	0.77268	-0.528
Mof_O 	O 	0.70453	0.24548	0.65264	-0.621
Mof_O 	O 	0.74407	0.21202	0.64441	-0.552
Mof_O 	O 	0.7471	0.3354	0.69864	-0.644
Mof_O 	O 	0.78864	0.33865	0.74627	-0.579
Mof_Zr	Zr	0.74533	0.30402	0.7444	3.204
Mof_O 	O 	0.78373	0.2827	0.77635	-1.61
Mof_Zr	Zr	0.74887	0.24936	0.68462	3.211
Mof_O 	O 	0.78364	0.21581	0.71065	-1.582
Mof_Zr	Zr	0.69087	0.24562	0.7403	3.208
Mof_O 	O 	0.71851	0.21404	0.77661	-1.563
Mof_Zr	Zr	0.81205	0.24517	0.74751	3.208
Mof_O 	O 	0.78442	0.27945	0.71366	-1.278
Mof_Zr	Zr	0.75438	0.24619	0.80305	3.203
Mof_O 	O 	0.71501	0.2759	0.77992	-1.341
Mof_Zr	Zr	0.75696	0.18667	0.74871	3.209
Mof_O 	O 	0.72235	0.20975	0.71214	-1.312
Mof_O 	O 	0.71326	0.28164	0.70768	-1.667
Mof_O 	O 	0.78984	0.21112	0.7832	-1.37
Mof_C 	C 	0.66718	0.32214	0.74688	0.448
Mof_C 	C 	0.75011	0.32693	0.66612	0.476
Mof_C 	C 	0.67227	0.24362	0.662	0.466
Mof_C 	C 	0.83568	0.16896	0.74803	0.459
Mof_C 	C 	0.83195	0.24849	0.82496	0.471
Mof_C 	C 	0.75338	0.16845	0.82655	0.485
Mof_H 	H 	0.7967	0.29862	0.79196	0.371
Mof_H 	H 	0.70329	0.19968	0.79161	0.339
Mof_H 	H 	0.69794	0.29658	0.6932	0.407
Mof_H 	H 	0.79825	0.20102	0.69548	0.325
Mof_H 	H 	0.84513	0.25705	0.6903	0.191
Mof_H 	H 	0.80381	0.23388	0.64791	0.162
Mof_H 	H 	0.69872	0.23424	0.84024	0.173
Mof_H 	H 	0.65489	0.24333	0.79662	0.172
Mof_H 	H 	0.86863	0.28282	0.74867	0.202
Mof_H 	H 	0.78145	0.36276	0.74048	0.218
Mof_H 	H 	0.70432	0.14643	0.76382	0.189
Mof_H 	H 	0.66163	0.18779	0.71998	0.221
Mof_H 	H 	0.74412	0.3417	0.79948	0.133
Mof_H 	H 	0.75903	0.29997	0.84279	0.137
Mof_H 	H 	0.75584	0.19071	0.65267	0.142
Mof_H 	H 	0.76052	0.14812	0.6941	0.155
Mof_O 	O 	0.24972	0.69571	0.66454	-0.595
Mof_O 	O 	0.22146	0.73081	0.65097	-0.535
Mof_O 	O 	0.34226	0.74936	0.70438	-0.625
Mof_O 	O 	0.34669	0.78796	0.74387	-0.561
Mof_O 	O 	0.30586	0.6582	0.75568	-0.666
Mof_O 	O 	0.25353	0.65233	0.79575	-0.598
Mof_O 	O 	0.24439	0.83825	0.7998	-0.618
Mof_O 	O 	0.2862	0.8455	0.76416	-0.597
Mof_O 	O 	0.16179	0.79262	0.75057	-0.598
Mof_O 	O 	0.14774	0.75444	0.72356	-0.514
Mof_O 	O 	0.20262	0.7434	0.84144	-0.673
Mof_O 	O 	0.26352	0.70557	0.84119	-0.587
Mof_O 	O 	0.24838	0.79633	0.84203	-0.6
Mof_O 	O 	0.27381	0.76046	0.86003	-0.522
Mof_O 	O 	0.16249	0.7444	0.79784	-0.653
Mof_O 	O 	0.16216	0.70392	0.74265	-0.563
Mof_O 	O 	0.20216	0.83628	0.75243	-0.648
Mof_O 	O 	0.25073	0.8391	0.71072	-0.574
Mof_O 	O 	0.25742	0.65411	0.70649	-0.604
Mof_O 	O 	0.22775	0.64005	0.74695	-0.526
Mof_O 	O 	0.34594	0.70195	0.75136	-0.628
Mof_O 	O 	0.35151	0.74114	0.78848	-0.557
Mof_O 	O 	0.29891	0.74513	0.66393	-0.646
Mof_O 	O 	0.25018	0.78526	0.66096	-0.578
Mof_Zr	Zr	0.25299	0.7414	0.69486	3.203
Mof_O 	O 	0.2201	0.77864	0.71693	-1.609
Mof_Zr	Zr	0.31249	0.7451	0.74976	3.212
Mof_O 	O 	0.2857	0.77849	0.784	-1.587
Mof_Zr	Zr	0.25824	0.68554	0.75183	3.208
Mof_O 	O 	0.22118	0.71172	0.78393	-1.558
Mof_Zr	Zr	0.24809	0.80665	0.75535	3.208
Mof_O 	O 	0.28267	0.78067	0.72052	-1.276
Mof_Zr	Zr	0.19399	0.74791	0.75267	3.203
Mof_O 	O 	0.2181	0.70968	0.72214	-1.343
Mof_Zr	Zr	0.2485	0.7499	0.81228	3.208
Mof_O 	O 	0.28577	0.71665	0.78851	-1.302
Mof_O 	O 	0.2904	0.70961	0.71658	-1.666
Mof_O 	O 	0.21299	0.78258	0.78881	-1.371
Mof_C 	C 	0.2528	0.66363	0.67443	0.441
Mof_C 	C 	0.33128	0.74875	0.67269	0.48
Mof_C 	C 	0.33749	0.66963	0.75489	0.473
Mof_C 	C 	0.24586	0.82844	0.83198	0.453
Mof_C 	C 	0.17048	0.82521	0.75082	0.467
Mof_C 	C 	0.171	0.74276	0.83033	0.492
Mof_H 	H 	0.20435	0.7916	0.70115	0.371
Mof_H 	H 	0.20662	0.69577	0.79795	0.343
Mof_H 	H 	0.3054	0.69495	0.70149	0.407
Mof_H 	H 	0.30051	0.79299	0.79928	0.324
Mof_H 	H 	0.3048	0.84149	0.74681	0.189
Mof_H 	H 	0.34818	0.80031	0.76641	0.164
Mof_H 	H 	0.15776	0.69168	0.76488	0.173
Mof_H 	H 	0.20327	0.64758	0.74982	0.175
Mof_H 	H 	0.24688	0.8635	0.7182	0.201
Mof_H 	H 	0.25633	0.77866	0.63677	0.219
Mof_H 	H 	0.24229	0.69599	0.8522	0.187
Mof_H 	H 	0.27604	0.65183	0.80827	0.223
Mof_H 	H 	0.19807	0.73986	0.65692	0.133
Mof_H 	H 	0.15443	0.75188	0.69876	0.137
Mof_H 	H 	0.34041	0.74717	0.81089	0.149
Mof_H 	H 	0.29914	0.75828	0.85546	0.149
Mof_O 	O 	0.30145	0.24319	0.65897	-0.598
Mof_O 	O 	0.2661	0.21458	0.64594	-0.536
Mof_O 	O 	0.24669	0.33652	0.69584	-0.625
Mof_O 	O 	0.20858	0.34201	0.73608	-0.563
Mof_O 	O 	0.33893	0.30164	0.74781	-0.666
Mof_O 	O 	0.34391	0.2525	0.79051	-0.597
Mof_O 	O 	0.15907	0.24516	0.79448	-0.63
Mof_O 	O 	0.15322	0.28432	0.75448	-0.603
Mof_O 	O 	0.20491	0.15764	0.74666	-0.6
Mof_O 	O 	0.24251	0.14254	0.72121	-0.511
Mof_O 	O 	0.25001	0.2003	0.83695	-0.663
Mof_O 	O 	0.2908	0.25562	0.83901	-0.588
Mof_O 	O 	0.20116	0.24474	0.83673	-0.603
Mof_O 	O 	0.23717	0.27704	0.85082	-0.535
Mof_O 	O 	0.25514	0.15957	0.79419	-0.655
Mof_O 	O 	0.29365	0.15857	0.73761	-0.562
Mof_O 	O 	0.16126	0.19768	0.7525	-0.638
Mof_O 	O 	0.15593	0.24043	0.70691	-0.58
Mof_O 	O 	0.34283	0.25171	0.70101	-0.608
Mof_O 	O 	0.35692	0.2237	0.74273	-0.525
Mof_O 	O 	0.29523	0.34165	0.74242	-0.622
Mof_O 	O 	0.257	0.34936	0.77851	-0.551
Mof_O 	O 	0.25148	0.29221	0.65654	-0.645
Mof_O 	O 	0.21141	0.24345	0.65562	-0.58
Mof_Zr	Zr	0.25562	0.24732	0.68895	3.204
Mof_O 	O 	0.21851	0.21508	0.71207	-1.609
Mof_Zr	Zr	0.2518	0.30828	0.74218	3.211
Mof_O 	O 	0.21872	0.28229	0.77745	-1.581
Mof_Zr	Zr	0.31134	0.25427	0.74594	3.208
Mof_O 	O 	0.28549	0.21802	0.77895	-1.563
Mof_Zr	Zr	0.19051	0.24396	0.74987	3.208
Mof_O 	O 	0.2163	0.27746	0.71381	-1.28
Mof_Zr	Zr	0.2495	0.18995	0.74832	3.203
Mof_O 	O 	0.28751	0.21333	0.71716	-1.341
Mof_Zr	Zr	0.24719	0.24572	0.80671	3.209
Mof_O 	O 	0.28012	0.28261	0.78182	-1.312
Mof_O 	O 	0.28727	0.28538	0.70962	-1.666
Mof_O 	O 	0.21466	0.20976	0.78409	-1.368
Mof_C 	C 	0.33347	0.24629	0.66907	0.446
Mof_C 	C 	0.24723	0.32473	0.66444	0.479
Mof_C 	C 	0.32758	0.3332	0.74597	0.471
Mof_C 	C 	0.169	0.24516	0.82662	0.461
Mof_C 	C 	0.17243	0.16605	0.74989	0.467
Mof_C 	C 	0.25352	0.16864	0.82654	0.49
Mof_H 	H 	0.20553	0.19871	0.69694	0.371
Mof_H 	H 	0.30147	0.2037	0.79318	0.341
Mof_H 	H 	0.30178	0.2999	0.69393	0.407
Mof_H 	H 	0.20417	0.29746	0.79231	0.327
Mof_H 	H 	0.15608	0.29944	0.73382	0.198
Mof_H 	H 	0.1965	0.34403	0.75872	0.165
Mof_H 	H 	0.30646	0.15459	0.7596	0.173
Mof_H 	H 	0.34956	0.19943	0.74727	0.173
Mof_H 	H 	0.13181	0.23929	0.71603	0.202
Mof_H 	H 	0.21782	0.24857	0.63113	0.218
Mof_H 	H 	0.30154	0.23315	0.84554	0.189
Mof_H 	H 	0.34179	0.27488	0.80311	0.22
Mof_H 	H 	0.25739	0.19128	0.65275	0.133
Mof_H 	H 	0.2449	0.14814	0.6961	0.136
Mof_H 	H 	0.24562	0.34155	0.80021	0.143
Mof_H 	H 	0.24299	0.30118	0.84398	0.155
Mof_O 	O 	0.70445	0.74843	0.65942	-0.6
Mof_O 	O 	0.7399	0.7787	0.64743	-0.538
Mof_O 	O 	0.75642	0.65696	0.69954	-0.622
Mof_O 	O 	0.79437	0.65205	0.74027	-0.563
Mof_O 	O 	0.66404	0.69412	0.74641	-0.663
Mof_O 	O 	0.65896	0.7425	0.79058	-0.594
Mof_O 	O 	0.84385	0.7523	0.7982	-0.624
Mof_O 	O 	0.85076	0.71086	0.76065	-0.602
Mof_O 	O 	0.79966	0.8368	0.74642	-0.6
Mof_O 	O 	0.76217	0.85203	0.72149	-0.51
Mof_O 	O 	0.75287	0.79639	0.83787	-0.663
Mof_O 	O 	0.71036	0.74081	0.83885	-0.588
Mof_O 	O 	0.80086	0.74865	0.83932	-0.61
Mof_O 	O 	0.76328	0.72154	0.85483	-0.526
Mof_O 	O 	0.74895	0.83634	0.79428	-0.653
Mof_O 	O 	0.71054	0.83569	0.73695	-0.563
Mof_O 	O 	0.84294	0.7966	0.75353	-0.641
Mof_O 	O 	0.84799	0.75103	0.70995	-0.578
Mof_O 	O 	0.66206	0.74575	0.70121	-0.609
Mof_O 	O 	0.64709	0.77208	0.74337	-0.524
Mof_O 	O 	0.70766	0.65365	0.74732	-0.624
Mof_O 	O 	0.74631	0.64615	0.78263	-0.555
Mof_O 	O 	0.75385	0.70068	0.65937	-0.643
Mof_O 	O 	0.79417	0.74855	0.65809	-0.578
Mof_Zr	Zr	0.74942	0.74614	0.6908	3.204
Mof_O 	O 	0.78624	0.7787	0.71392	-1.608
Mof_Zr	Zr	0.75151	0.68639	0.74539	3.211
Mof_O 	O 	0.78421	0.71287	0.78064	-1.581
Mof_Zr	Zr	0.69244	0.74116	0.74669	3.208
Mof_O 	O 	0.71798	0.7778	0.77956	-1.562
Mof_Zr	Zr	0.81328	0.75055	0.75294	3.208
Mof_O 	O 	0.78796	0.71628	0.71722	-1.278
Mof_Zr	Zr	0.75478	0.80492	0.74903	3.203
Mof_O 	O 	0.71729	0.78116	0.7175	-1.338
Mof_Zr	Zr	0.75542	0.75024	0.80855	3.209
Mof_O 	O 	0.72262	0.71323	0.7838	-1.313
Mof_O 	O 	0.71689	0.70893	0.71165	-1.667
Mof_O 	O 	0.7887	0.78566	0.78594	-1.369
Mof_C 	C 	0.6722	0.74825	0.66921	0.451
Mof_C 	C 	0.75685	0.66819	0.66787	0.476
Mof_C 	C 	0.67519	0.66241	0.74757	0.466
Mof_C 	C 	0.83321	0.75033	0.83007	0.459
Mof_C 	C 	0.83209	0.82818	0.74961	0.466
Mof_C 	C 	0.74994	0.82792	0.82686	0.488
Mof_H 	H 	0.7996	0.79445	0.69847	0.371
Mof_H 	H 	0.70188	0.79246	0.79332	0.34
Mof_H 	H 	0.7025	0.69436	0.6959	0.407
Mof_H 	H 	0.79826	0.69781	0.79609	0.326
Mof_H 	H 	0.84781	0.69414	0.74128	0.194
Mof_H 	H 	0.80653	0.65079	0.76292	0.165
Mof_H 	H 	0.69836	0.84157	0.75887	0.173
Mof_H 	H 	0.65457	0.79627	0.74813	0.171
Mof_H 	H 	0.87206	0.75313	0.71902	0.202
Mof_H 	H 	0.78783	0.74397	0.63348	0.218
Mof_H 	H 	0.70129	0.76343	0.8472	0.189
Mof_H 	H 	0.66008	0.71963	0.80242	0.221
Mof_H 	H 	0.74871	0.80194	0.65423	0.133
Mof_H 	H 	0.75989	0.8462	0.69641	0.138
Mof_H 	H 	0.75402	0.65589	0.80515	0.144
Mof_H 	H 	0.75886	0.69686	0.84883	0.151
Mof_O 	O 	0.25031	0.66418	0.30113	-0.596
Mof_O 	O 	0.22108	0.65133	0.2653	-0.538
Mof_O 	O 	0.34102	0.70869	0.25269	-0.607
Mof_O 	O 	0.35254	0.74809	0.2232	-0.523
Mof_O 	O 	0.297	0.75396	0.34453	-0.667
Mof_O 	O 	0.24661	0.79589	0.34586	-0.605
Mof_O 	O 	0.24763	0.80148	0.16015	-0.625
Mof_O 	O 	0.28764	0.76583	0.15388	-0.59
Mof_O 	O 	0.16149	0.74954	0.20158	-0.602
Mof_O 	O 	0.1466	0.72151	0.2383	-0.513
Mof_O 	O 	0.19747	0.84132	0.25178	-0.609
Mof_O 	O 	0.23415	0.8574	0.2799	-0.528
Mof_O 	O 	0.24392	0.84301	0.20272	-0.657
Mof_O 	O 	0.28728	0.84592	0.25772	-0.59
Mof_O 	O 	0.15884	0.7963	0.25031	-0.647
Mof_O 	O 	0.1579	0.74015	0.2897	-0.564
Mof_O 	O 	0.20359	0.75382	0.15976	-0.649
Mof_O 	O 	0.25287	0.71215	0.15902	-0.578
Mof_O 	O 	0.24916	0.70568	0.3439	-0.607
Mof_O 	O 	0.21794	0.74619	0.35646	-0.53
Mof_O 	O 	0.33934	0.75625	0.30285	-0.662
Mof_O 	O 	0.34258	0.7974	0.25485	-0.594
Mof_O 	O 	0.29902	0.66664	0.25295	-0.646
Mof_O 	O 	0.25255	0.66226	0.21195	-0.578
Mof_Zr	Zr	0.2522	0.69583	0.25613	3.203
Mof_O 	O 	0.22026	0.71719	0.21767	-1.61
Mof_Zr	Zr	0.30941	0.75321	0.25695	3.211
Mof_O 	O 	0.28326	0.78612	0.22143	-1.574
Mof_Zr	Zr	0.2519	0.75142	0.31355	3.21
Mof_O 	O 	0.2162	0.78297	0.2857	-1.571
Mof_Zr	Zr	0.24824	0.75672	0.19135	3.21
Mof_O 	O 	0.28297	0.72347	0.21901	-1.287
Mof_Zr	Zr	0.19165	0.75175	0.24757	3.202
Mof_O 	O 	0.21444	0.72095	0.2864	-1.339
Mof_Zr	Zr	0.24396	0.81291	0.24906	3.208
Mof_O 	O 	0.27914	0.78982	0.28517	-1.318
Mof_O 	O 	0.28696	0.71833	0.29044	-1.665
Mof_O 	O 	0.21131	0.7889	0.21389	-1.368
Mof_C 	C 	0.24916	0.67363	0.33352	0.445
Mof_C 	C 	0.33113	0.6766	0.2514	0.472
Mof_C 	C 	0.32909	0.75637	0.33485	0.476
Mof_C 	C 	0.24586	0.83346	0.17043	0.473
Mof_C 	C 	0.17155	0.751	0.16946	0.471
Mof_C 	C 	0.16623	0.82912	0.25184	0.467
Mof_H 	H 	0.20556	0.70111	0.20387	0.37
Mof_H 	H 	0.20035	0.79653	0.30081	0.34
Mof_H 	H 	0.30184	0.70324	0.30522	0.406
Mof_H 	H 	0.29856	0.80136	0.2074	0.344
Mof_H 	H 	0.30615	0.74851	0.15841	0.175
Mof_H 	H 	0.34582	0.75928	0.20102	0.155
Mof_H 	H 	0.15163	0.76213	0.30156	0.174
Mof_H 	H 	0.19425	0.75068	0.34741	0.173
Mof_H 	H 	0.24931	0.71947	0.13454	0.201
Mof_H 	H 	0.25775	0.63793	0.21885	0.219
Mof_H 	H 	0.23891	0.85042	0.30425	0.165
Mof_H 	H 	0.26805	0.81006	0.34383	0.2
Mof_H 	H 	0.19803	0.65682	0.25518	0.135
Mof_H 	H 	0.1538	0.69685	0.24083	0.138
Mof_H 	H 	0.33903	0.81158	0.27608	0.221
Mof_H 	H 	0.29513	0.85525	0.23504	0.187
Mof_O 	O 	0.6981	0.24515	0.33329	-0.596
Mof_O 	O 	0.73485	0.21932	0.34669	-0.535
Mof_O 	O 	0.74201	0.34093	0.29321	-0.621
Mof_O 	O 	0.78251	0.34753	0.25391	-0.562
Mof_O 	O 	0.6552	0.29755	0.24502	-0.659
Mof_O 	O 	0.65355	0.24766	0.20221	-0.598
Mof_O 	O 	0.83899	0.25218	0.19655	-0.629
Mof_O 	O 	0.8428	0.29293	0.23417	-0.6
Mof_O 	O 	0.80013	0.16378	0.24819	-0.601
Mof_O 	O 	0.76294	0.14681	0.27397	-0.514
Mof_O 	O 	0.74749	0.20023	0.15616	-0.669
Mof_O 	O 	0.70586	0.25681	0.15479	-0.586
Mof_O 	O 	0.79675	0.24715	0.15474	-0.6
Mof_O 	O 	0.75949	0.27443	0.13833	-0.527
Mof_O 	O 	0.75246	0.16055	0.19988	-0.649
Mof_O 	O 	0.71128	0.15831	0.25529	-0.566
Mof_O 	O 	0.84065	0.20666	0.24052	-0.637
Mof_O 	O 	0.84222	0.25235	0.28463	-0.58
Mof_O 	O 	0.65589	0.24857	0.29133	-0.611
Mof_O 	O 	0.64407	0.21779	0.25028	-0.527
Mof_O 	O 	0.69619	0.34062	0.24401	-0.625
Mof_O 	O 	0.73613	0.35018	0.20956	-0.56
Mof_O 	O 	0.74609	0.29737	0.33345	-0.644
Mof_O 	O 	0.78778	0.25118	0.33596	-0.579
Mof_Zr	Zr	0.74336	0.25127	0.30265	3.203
Mof_O 	O 	0.78254	0.22105	0.28022	-1.609
Mof_Zr	Zr	0.74194	0.31074	0.24758	3.211
Mof_O 	O 	0.77672	0.28612	0.2129	-1.58
Mof_Zr	Zr	0.68665	0.25232	0.24615	3.208
Mof_O 	O 	0.71494	0.21697	0.21397	-1.56
Mof_Zr	Zr	0.80795	0.2508	0.24131	3.208
Mof_O 	O 	0.78	0.28359	0.27642	-1.279
Mof_Zr	Zr	0.75331	0.1926	0.24499	3.203
Mof_O 	O 	0.71385	0.21413	0.27581	-1.339
Mof_Zr	Zr	0.75075	0.24665	0.18503	3.208
Mof_O 	O 	0.71532	0.28176	0.20908	-1.309
Mof_O 	O 	0.70867	0.28619	0.28121	-1.667
Mof_O 	O 	0.78614	0.21387	0.20834	-1.371
Mof_C 	C 	0.66587	0.24534	0.32332	0.448
Mof_C 	C 	0.74479	0.32997	0.32487	0.476
Mof_C 	C 	0.66433	0.32991	0.24343	0.463
Mof_C 	C 	0.82892	0.24996	0.16455	0.459
Mof_C 	C 	0.83191	0.1744	0.24453	0.464
Mof_C 	C 	0.74964	0.1687	0.16735	0.487
Mof_H 	H 	0.7968	0.20623	0.29579	0.372
Mof_H 	H 	0.69991	0.20119	0.20025	0.34
Mof_H 	H 	0.69316	0.30004	0.29655	0.406
Mof_H 	H 	0.78994	0.3019	0.19743	0.325
Mof_H 	H 	0.8389	0.30912	0.25382	0.195
Mof_H 	H 	0.7955	0.34906	0.23173	0.167
Mof_H 	H 	0.70074	0.15122	0.23289	0.174
Mof_H 	H 	0.65351	0.19423	0.24589	0.175
Mof_H 	H 	0.86644	0.25171	0.27576	0.202
Mof_H 	H 	0.78112	0.25596	0.36045	0.217
Mof_H 	H 	0.69622	0.23421	0.14705	0.188
Mof_H 	H 	0.65283	0.27036	0.19003	0.222
Mof_H 	H 	0.74552	0.19658	0.34087	0.132
Mof_H 	H 	0.75975	0.15322	0.29879	0.137
Mof_H 	H 	0.74043	0.33915	0.18672	0.152
Mof_H 	H 	0.75554	0.29931	0.14385	0.149
Mof_C 	C 	0.28459	0.09659	0.11308	-0.097
Mof_C 	C 	0.25872	0.09428	0.0873	0.077
Mof_C 	C 	0.23244	0.11972	0.08633	-0.098
Mof_C 	C 	0.23173	0.1466	0.11092	0.054
Mof_C 	C 	0.25667	0.14788	0.13755	-0.136
Mof_C 	C 	0.28311	0.1227	0.13846	0.062
Mof_H 	H 	0.30539	0.07759	0.11405	0.061
Mof_H 	H 	0.21228	0.11855	0.06666	0.054
Mof_H 	H 	0.21098	0.16563	0.10996	0.023
Mof_H 	H 	0.30261	0.12329	0.15881	0.046
Mof_C 	C 	0.73464	0.61446	0.58834	-0.097
Mof_C 	C 	0.76137	0.58945	0.58826	0.076
Mof_C 	C 	0.78756	0.59164	0.61377	-0.096
Mof_C 	C 	0.78609	0.61724	0.63973	0.06
Mof_C 	C 	0.75931	0.64209	0.63974	-0.135
Mof_C 	C 	0.73394	0.64086	0.6135	0.054
Mof_H 	H 	0.71421	0.61341	0.56895	0.054
Mof_H 	H 	0.80871	0.57302	0.61399	0.061
Mof_H 	H 	0.80597	0.6178	0.65971	0.046
Mof_H 	H 	0.71294	0.65965	0.61318	0.023
Mof_C 	C 	0.76902	0.88125	0.08754	-0.099
Mof_C 	C 	0.74209	0.90605	0.08724	0.078
Mof_C 	C 	0.71564	0.90358	0.11244	-0.098
Mof_C 	C 	0.71705	0.87797	0.13836	0.059
Mof_C 	C 	0.74405	0.85337	0.13868	-0.145
Mof_C 	C 	0.76969	0.85481	0.1127	0.063
Mof_H 	H 	0.78966	0.88253	0.06839	0.057
Mof_H 	H 	0.69436	0.92206	0.11249	0.06
Mof_H 	H 	0.69695	0.87724	0.15811	0.023
Mof_H 	H 	0.79087	0.8362	0.1126	0.037
Mof_C 	C 	0.2685	0.37971	0.58565	-0.098
Mof_C 	C 	0.24141	0.40434	0.58623	0.077
Mof_C 	C 	0.21507	0.40103	0.61138	-0.096
Mof_C 	C 	0.21678	0.37477	0.63657	0.062
Mof_C 	C 	0.24403	0.35045	0.63615	-0.137
Mof_C 	C 	0.26953	0.35268	0.61011	0.054
Mof_H 	H 	0.28903	0.38169	0.56644	0.055
Mof_H 	H 	0.1937	0.4194	0.61206	0.062
Mof_H 	H 	0.19688	0.37347	0.65649	0.046
Mof_H 	H 	0.29094	0.33435	0.60958	0.025
Mof_C 	C 	0.72683	0.11556	0.90562	-0.098
Mof_C 	C 	0.7532	0.09017	0.9068	0.078
Mof_C 	C 	0.78025	0.09178	0.8822	-0.101
Mof_C 	C 	0.77999	0.11709	0.85601	0.063
Mof_C 	C 	0.75357	0.14228	0.85474	-0.145
Mof_C 	C 	0.72733	0.14174	0.88015	0.058
Mof_H 	H 	0.70576	0.11495	0.92433	0.059
Mof_H 	H 	0.80114	0.07287	0.88283	0.056
Mof_H 	H 	0.80061	0.11721	0.83684	0.034
Mof_H 	H 	0.70669	0.16094	0.87965	0.024
Mof_C 	C 	0.27662	0.59503	0.3858	-0.095
Mof_C 	C 	0.25012	0.59289	0.41095	0.075
Mof_C 	C 	0.22369	0.61821	0.41095	-0.092
Mof_C 	C 	0.22364	0.64496	0.38614	0.055
Mof_C 	C 	0.24935	0.6461	0.36024	-0.117
Mof_C 	C 	0.27581	0.62095	0.36024	0.049
Mof_H 	H 	0.29751	0.57611	0.38555	0.054
Mof_H 	H 	0.20305	0.61714	0.43012	0.06
Mof_H 	H 	0.20311	0.66427	0.38664	0.047
Mof_H 	H 	0.29611	0.62169	0.34073	0.025
Mof_C 	C 	0.26955	0.88332	0.91006	-0.093
Mof_C 	C 	0.24327	0.90875	0.90964	0.076
Mof_C 	C 	0.21711	0.90678	0.88411	-0.095
Mof_C 	C 	0.21817	0.88085	0.85854	0.054
Mof_C 	C 	0.24454	0.85559	0.859	-0.119
Mof_C 	C 	0.26985	0.85662	0.88529	0.053
Mof_H 	H 	0.28992	0.88428	0.92952	0.059
Mof_H 	H 	0.19633	0.92582	0.88357	0.056
Mof_H 	H 	0.19822	0.88024	0.83863	0.039
Mof_H 	H 	0.29039	0.83733	0.88604	0.036
Mof_C 	C 	0.77235	0.38225	0.40395	-0.095
Mof_C 	C 	0.74632	0.40798	0.40544	0.076
Mof_C 	C 	0.7192	0.40695	0.38086	-0.097
Mof_C 	C 	0.71902	0.38181	0.35445	0.056
Mof_C 	C 	0.74509	0.35625	0.35297	-0.134
Mof_C 	C 	0.77141	0.35628	0.3783	0.059
Mof_H 	H 	0.79346	0.3824	0.42262	0.06
Mof_H 	H 	0.69857	0.42613	0.38172	0.055
Mof_H 	H 	0.69826	0.38203	0.33536	0.028
Mof_H 	H 	0.79174	0.33677	0.37765	0.038
Mof_C 	C 	0.11701	0.22754	0.08716	-0.096
Mof_C 	C 	0.09109	0.25332	0.08636	0.077
Mof_C 	C 	0.09062	0.2789	0.11253	-0.094
Mof_C 	C 	0.11536	0.27836	0.13928	0.058
Mof_C 	C 	0.14157	0.25297	0.13948	-0.12
Mof_C 	C 	0.14242	0.22777	0.11314	0.053
Mof_H 	H 	0.11763	0.20733	0.06752	0.054
Mof_H 	H 	0.07087	0.299	0.11239	0.061
Mof_H 	H 	0.11443	0.29803	0.15945	0.046
Mof_H 	H 	0.16235	0.20786	0.11311	0.024
Mof_C 	C 	0.61884	0.72666	0.58991	-0.096
Mof_C 	C 	0.59328	0.75283	0.5907	0.077
Mof_C 	C 	0.59395	0.77756	0.61762	-0.094
Mof_C 	C 	0.61944	0.77583	0.64355	0.058
Mof_C 	C 	0.64532	0.75013	0.64217	-0.122
Mof_C 	C 	0.64505	0.72574	0.61508	0.053
Mof_H 	H 	0.61859	0.70711	0.56961	0.054
Mof_H 	H 	0.57454	0.79797	0.61868	0.061
Mof_H 	H 	0.61934	0.79484	0.66437	0.047
Mof_H 	H 	0.66467	0.70555	0.61387	0.025
Mof_C 	C 	0.08992	0.76481	0.88104	-0.102
Mof_C 	C 	0.09041	0.73968	0.90764	0.08
Mof_C 	C 	0.11738	0.71496	0.90814	-0.1
Mof_C 	C 	0.14382	0.71598	0.88306	0.062
Mof_C 	C 	0.14291	0.74084	0.85631	-0.149
Mof_C 	C 	0.11554	0.76491	0.85524	0.067
Mof_H 	H 	0.06964	0.78437	0.8803	0.057
Mof_H 	H 	0.11825	0.6953	0.92831	0.06
Mof_H 	H 	0.16479	0.69718	0.88429	0.023
Mof_H 	H 	0.11459	0.78447	0.83501	0.034
Mof_C 	C 	0.61291	0.21502	0.40039	-0.094
Mof_C 	C 	0.58657	0.24039	0.40144	0.078
Mof_C 	C 	0.58654	0.26708	0.37645	-0.096
Mof_C 	C 	0.61202	0.26809	0.3506	0.053
Mof_C 	C 	0.6387	0.24323	0.35007	-0.121
Mof_C 	C 	0.6392	0.21681	0.37524	0.057
Mof_H 	H 	0.6134	0.19424	0.41942	0.061
Mof_H 	H 	0.56676	0.28715	0.37704	0.055
Mof_H 	H 	0.61143	0.2888	0.3315	0.027
Mof_H 	H 	0.6596	0.19736	0.37509	0.047
Mof_C 	C 	0.88453	0.7228	0.09246	-0.095
Mof_C 	C 	0.91213	0.74682	0.0931	0.076
Mof_C 	C 	0.91275	0.77232	0.11933	-0.097
Mof_C 	C 	0.88683	0.77324	0.14484	0.055
Mof_C 	C 	0.85897	0.74968	0.1438	-0.129
Mof_C 	C 	0.85784	0.72462	0.11723	0.054
Mof_H 	H 	0.8835	0.7029	0.07253	0.059
Mof_H 	H 	0.93347	0.79141	0.12013	0.055
Mof_H 	H 	0.88819	0.79277	0.16504	0.036
Mof_H 	H 	0.83669	0.70602	0.11608	0.039
Mof_C 	C 	0.414	0.26752	0.61694	-0.094
Mof_C 	C 	0.41268	0.24235	0.59042	0.075
Mof_C 	C 	0.38523	0.2182	0.59021	-0.093
Mof_C 	C 	0.35923	0.21964	0.61566	0.053
Mof_C 	C 	0.36091	0.24449	0.64238	-0.118
Mof_C 	C 	0.38868	0.26819	0.64304	0.049
Mof_H 	H 	0.4347	0.28665	0.61738	0.055
Mof_H 	H 	0.38374	0.19857	0.57004	0.06
Mof_H 	H 	0.33803	0.20108	0.61475	0.051
Mof_H 	H 	0.39026	0.28779	0.66325	0.035
Mof_C 	C 	0.88193	0.22475	0.90581	-0.098
Mof_C 	C 	0.90832	0.25008	0.90602	0.079
Mof_C 	C 	0.90946	0.27487	0.87915	-0.097
Mof_C 	C 	0.88493	0.274	0.85227	0.056
Mof_C 	C 	0.85824	0.24913	0.85262	-0.132
Mof_C 	C 	0.85669	0.22471	0.87967	0.062
Mof_H 	H 	0.88082	0.20514	0.92603	0.057
Mof_H 	H 	0.92959	0.2946	0.87885	0.059
Mof_H 	H 	0.88638	0.29308	0.83157	0.03
Mof_H 	H 	0.83634	0.20519	0.88014	0.04
Mof_C 	C 	0.40753	0.78342	0.38736	-0.1
Mof_C 	C 	0.4075	0.75819	0.41383	0.081
Mof_C 	C 	0.38138	0.7326	0.41411	-0.101
Mof_C 	C 	0.35535	0.73264	0.38881	0.061
Mof_C 	C 	0.35577	0.75746	0.36209	-0.146
Mof_C 	C 	0.38216	0.78266	0.36127	0.063
Mof_H 	H 	0.42743	0.80337	0.38673	0.061
Mof_H 	H 	0.38113	0.7127	0.43407	0.057
Mof_H 	H 	0.33533	0.7128	0.38957	0.028
Mof_H 	H 	0.3828	0.80199	0.34076	0.032
Mof_C 	C 	0.09702	0.10999	0.27333	-0.098
Mof_C 	C 	0.09368	0.08751	0.24471	0.08
Mof_C 	C 	0.11674	0.09086	0.21653	-0.1
Mof_C 	C 	0.14295	0.11611	0.21717	0.06
Mof_C 	C 	0.14563	0.13902	0.24544	-0.137
Mof_C 	C 	0.12242	0.136	0.2734	0.064
Mof_H 	H 	0.07953	0.10771	0.29532	0.061
Mof_H 	H 	0.11445	0.07386	0.19417	0.056
Mof_H 	H 	0.16054	0.11839	0.19525	0.024
Mof_H 	H 	0.12418	0.1536	0.29536	0.032
Mof_C 	C 	0.62528	0.58199	0.77365	-0.097
Mof_C 	C 	0.59809	0.58198	0.74918	0.078
Mof_C 	C 	0.59687	0.60832	0.72387	-0.098
Mof_C 	C 	0.62185	0.63473	0.7236	0.056
Mof_C 	C 	0.64911	0.6345	0.74787	-0.136
Mof_C 	C 	0.651	0.60771	0.77257	0.059
Mof_H 	H 	0.62649	0.56212	0.7936	0.061
Mof_H 	H 	0.57615	0.60874	0.70475	0.056
Mof_H 	H 	0.62015	0.65515	0.70423	0.029
Mof_H 	H 	0.67182	0.60727	0.79158	0.044
Mof_C 	C 	0.89332	0.09473	0.77599	-0.098
Mof_C 	C 	0.9149	0.09071	0.74676	0.079
Mof_C 	C 	0.91055	0.11303	0.71812	-0.095
Mof_C 	C 	0.88523	0.13918	0.71887	0.056
Mof_C 	C 	0.86331	0.14263	0.74783	-0.123
Mof_C 	C 	0.86736	0.1202	0.77629	0.059
Mof_H 	H 	0.8964	0.07787	0.79836	0.055
Mof_H 	H 	0.9269	0.11025	0.69533	0.059
Mof_H 	H 	0.88224	0.15624	0.69663	0.033
Mof_H 	H 	0.85071	0.1227	0.79886	0.033
Mof_C 	C 	0.38816	0.6002	0.2751	-0.098
Mof_C 	C 	0.4096	0.59729	0.24561	0.078
Mof_C 	C 	0.40504	0.62086	0.21798	-0.097
Mof_C 	C 	0.37986	0.64715	0.22008	0.063
Mof_C 	C 	0.35813	0.64952	0.24931	-0.134
Mof_C 	C 	0.36228	0.62576	0.27668	0.056
Mof_H 	H 	0.39132	0.58242	0.29674	0.055
Mof_H 	H 	0.42121	0.61901	0.19496	0.062
Mof_H 	H 	0.37693	0.66528	0.19869	0.041
Mof_H 	H 	0.34584	0.62738	0.29951	0.019
Mof_C 	C 	0.11722	0.90319	0.72349	-0.096
Mof_C 	C 	0.09049	0.90303	0.74845	0.078
Mof_C 	C 	0.09007	0.87667	0.77383	-0.099
Mof_C 	C 	0.11556	0.8507	0.7739	0.061
Mof_C 	C 	0.14261	0.8514	0.74946	-0.131
Mof_C 	C 	0.14345	0.87794	0.7244	0.055
Mof_H 	H 	0.11801	0.92319	0.70364	0.059
Mof_H 	H 	0.06991	0.87621	0.79353	0.056
Mof_H 	H 	0.11473	0.83063	0.79361	0.035
Mof_H 	H 	0.1642	0.87886	0.70533	0.03
Mof_C 	C 	0.58424	0.3818	0.26704	-0.098
Mof_C 	C 	0.5847	0.40839	0.24189	0.077
Mof_C 	C 	0.61139	0.40859	0.21687	-0.096
Mof_C 	C 	0.63752	0.38319	0.2175	0.058
Mof_C 	C 	0.63664	0.35642	0.24233	-0.134
Mof_C 	C 	0.6096	0.35569	0.26683	0.054
Mof_H 	H 	0.56414	0.38128	0.28681	0.055
Mof_H 	H 	0.61223	0.42874	0.19718	0.061
Mof_H 	H 	0.65821	0.38417	0.19838	0.044
Mof_H 	H 	0.60867	0.33543	0.28639	0.026
Mof_C 	C 	0.90537	0.88812	0.22127	-0.097
Mof_C 	C 	0.90432	0.91445	0.24658	0.078
Mof_C 	C 	0.87752	0.91419	0.27149	-0.095
Mof_C 	C 	0.85207	0.88819	0.27087	0.056
Mof_C 	C 	0.85379	0.86141	0.24614	-0.123
Mof_C 	C 	0.88063	0.86148	0.22143	0.057
Mof_H 	H 	0.92574	0.8879	0.20179	0.055
Mof_H 	H 	0.87642	0.9341	0.29142	0.06
Mof_H 	H 	0.83157	0.88845	0.29022	0.037
Mof_H 	H 	0.88215	0.84117	0.20203	0.035
Mof_C 	C 	0.38373	0.40869	0.71852	-0.1
Mof_C 	C 	0.40634	0.41163	0.74711	0.081
Mof_C 	C 	0.40206	0.38932	0.77571	-0.099
Mof_C 	C 	0.37624	0.36376	0.77533	0.064
Mof_C 	C 	0.35356	0.36106	0.74691	-0.137
Mof_C 	C 	0.35711	0.38389	0.71867	0.06
Mof_H 	H 	0.38674	0.42564	0.6962	0.055
Mof_H 	H 	0.41917	0.39133	0.79803	0.062
Mof_H 	H 	0.37383	0.34619	0.79724	0.033
Mof_H 	H 	0.33995	0.3818	0.6964	0.024
Mof_C 	C 	0.11599	0.22133	0.90581	-0.098
Mof_C 	C 	0.08955	0.24655	0.90478	0.078
Mof_C 	C 	0.08966	0.2714	0.87793	-0.095
Mof_C 	C 	0.11523	0.2705	0.85211	0.053
Mof_C 	C 	0.14186	0.24563	0.85351	-0.125
Mof_C 	C 	0.14231	0.22127	0.88069	0.058
Mof_H 	H 	0.11633	0.20189	0.92622	0.055
Mof_H 	H 	0.06971	0.29128	0.87684	0.06
Mof_H 	H 	0.11463	0.28963	0.83141	0.038
Mof_H 	H 	0.16262	0.20183	0.88204	0.035
Mof_C 	C 	0.59004	0.77732	0.38288	-0.097
Mof_C 	C 	0.58919	0.75201	0.4093	0.079
Mof_C 	C 	0.61498	0.72608	0.40986	-0.1
Mof_C 	C 	0.64139	0.7258	0.3848	0.059
Mof_C 	C 	0.64171	0.7507	0.3581	-0.137
Mof_C 	C 	0.61568	0.77624	0.35709	0.062
Mof_H 	H 	0.57065	0.79777	0.38214	0.061
Mof_H 	H 	0.61479	0.70627	0.42991	0.055
Mof_H 	H 	0.66116	0.70576	0.38581	0.026
Mof_H 	H 	0.61561	0.79572	0.33671	0.034
Mof_C 	C 	0.88202	0.72444	0.91112	-0.095
Mof_C 	C 	0.90955	0.74851	0.91131	0.077
Mof_C 	C 	0.91178	0.77323	0.88446	-0.098
Mof_C 	C 	0.88729	0.77342	0.85756	0.056
Mof_C 	C 	0.8595	0.74976	0.85782	-0.125
Mof_C 	C 	0.85683	0.72551	0.88496	0.055
Mof_H 	H 	0.88005	0.70488	0.93133	0.06
Mof_H 	H 	0.9328	0.79202	0.88413	0.055
Mof_H 	H 	0.88969	0.79237	0.83687	0.036
Mof_H 	H 	0.83566	0.7069	0.88546	0.039
Mof_C 	C 	0.37839	0.22685	0.40799	-0.095
Mof_C 	C 	0.40584	0.25099	0.40881	0.077
Mof_C 	C 	0.4076	0.27683	0.38298	-0.098
Mof_C 	C 	0.38282	0.27795	0.35634	0.056
Mof_C 	C 	0.35524	0.25405	0.35588	-0.125
Mof_C 	C 	0.35294	0.22879	0.38212	0.055
Mof_H 	H 	0.37676	0.20646	0.42739	0.06
Mof_H 	H 	0.42854	0.2957	0.38315	0.055
Mof_H 	H 	0.38491	0.29769	0.33636	0.035
Mof_H 	H 	0.33192	0.21	0.38205	0.039
Mof_C 	C 	0.12007	0.7219	0.09118	-0.097
Mof_C 	C 	0.09389	0.74744	0.08961	0.079
Mof_C 	C 	0.09341	0.77399	0.11474	-0.099
Mof_C 	C 	0.11839	0.77473	0.14118	0.063
Mof_C 	C 	0.1448	0.7496	0.14224	-0.132
Mof_C 	C 	0.14572	0.72337	0.11693	0.056
Mof_H 	H 	0.12071	0.701	0.07228	0.06
Mof_H 	H 	0.07353	0.79396	0.11397	0.056
Mof_H 	H 	0.11753	0.79526	0.16041	0.033
Mof_H 	H 	0.16594	0.70373	0.11748	0.028
Mof_C 	C 	0.6203	0.21635	0.58334	-0.097
Mof_C 	C 	0.59387	0.24168	0.58298	0.079
Mof_C 	C 	0.59363	0.26757	0.60874	-0.099
Mof_C 	C 	0.619	0.26779	0.63474	0.058
Mof_C 	C 	0.64564	0.24286	0.63469	-0.136
Mof_C 	C 	0.64642	0.21736	0.60865	0.061
Mof_H 	H 	0.62075	0.19597	0.56387	0.061
Mof_H 	H 	0.57358	0.28738	0.60887	0.055
Mof_H 	H 	0.61819	0.28773	0.6546	0.025
Mof_H 	H 	0.66677	0.19784	0.60839	0.042
Mof_C 	C 	0.88326	0.22381	0.08707	-0.097
Mof_C 	C 	0.90937	0.24941	0.08749	0.077
Mof_C 	C 	0.90839	0.27547	0.11313	-0.094
Mof_C 	C 	0.8823	0.27542	0.1384	0.053
Mof_C 	C 	0.85601	0.25014	0.13763	-0.123
Mof_C 	C 	0.85642	0.22451	0.11165	0.056
Mof_H 	H 	0.88357	0.20349	0.06754	0.056
Mof_H 	H 	0.92804	0.29568	0.11366	0.06
Mof_H 	H 	0.8823	0.29542	0.15827	0.04
Mof_H 	H 	0.83646	0.20461	0.11091	0.04
Mof_C 	C 	0.41043	0.7768	0.62168	-0.097
Mof_C 	C 	0.41106	0.75217	0.59465	0.078
Mof_C 	C 	0.38453	0.72702	0.59293	-0.099
Mof_C 	C 	0.35774	0.7267	0.61762	0.054
Mof_C 	C 	0.35771	0.75081	0.64503	-0.138
Mof_C 	C 	0.38437	0.77569	0.64703	0.062
Mof_H 	H 	0.43034	0.79669	0.62327	0.062
Mof_H 	H 	0.3845	0.7078	0.57232	0.055
Mof_H 	H 	0.33762	0.70703	0.61591	0.027
Mof_H 	H 	0.3848	0.79446	0.66805	0.048
Mof_C 	C 	0.2832	0.09163	0.8804	-0.1
Mof_C 	C 	0.25737	0.09058	0.9063	0.081
Mof_C 	C 	0.2304	0.11522	0.90549	-0.102
Mof_C 	C 	0.22952	0.14072	0.87963	0.066
Mof_C 	C 	0.25489	0.14138	0.85341	-0.148
Mof_C 	C 	0.28158	0.11646	0.85371	0.061
Mof_H 	H 	0.30438	0.07304	0.88073	0.06
Mof_H 	H 	0.2102	0.11485	0.92515	0.057
Mof_H 	H 	0.20871	0.15968	0.87976	0.034
Mof_H 	H 	0.30155	0.11676	0.83381	0.023
Mof_C 	C 	0.73053	0.61532	0.40716	-0.098
Mof_C 	C 	0.75744	0.59054	0.40683	0.077
Mof_C 	C 	0.78281	0.59241	0.38049	-0.096
Mof_C 	C 	0.78078	0.61806	0.35457	0.06
Mof_C 	C 	0.7542	0.64311	0.35543	-0.135
Mof_C 	C 	0.72928	0.64168	0.38208	0.057
Mof_H 	H 	0.71065	0.61441	0.42713	0.055
Mof_H 	H 	0.80399	0.57383	0.37989	0.061
Mof_H 	H 	0.80036	0.61884	0.3343	0.039
Mof_H 	H 	0.70848	0.66066	0.38312	0.026
Mof_C 	C 	0.72317	0.11362	0.09011	-0.098
Mof_C 	C 	0.75002	0.08878	0.08883	0.078
Mof_C 	C 	0.77644	0.09009	0.11415	-0.1
Mof_C 	C 	0.77565	0.11534	0.14051	0.062
Mof_C 	C 	0.74918	0.14052	0.14121	-0.146
Mof_C 	C 	0.72311	0.13961	0.11565	0.059
Mof_H 	H 	0.70253	0.11316	0.07092	0.06
Mof_H 	H 	0.7976	0.07149	0.11351	0.057
Mof_H 	H 	0.79627	0.11588	0.15974	0.036
Mof_H 	H 	0.70253	0.15887	0.11567	0.023
Mof_C 	C 	0.27803	0.58688	0.6178	-0.093
Mof_C 	C 	0.25117	0.58674	0.59292	0.074
Mof_C 	C 	0.22464	0.61181	0.59552	-0.091
Mof_C 	C 	0.22528	0.63685	0.62199	0.053
Mof_C 	C 	0.25176	0.63655	0.64715	-0.115
Mof_C 	C 	0.27796	0.61116	0.64507	0.047
Mof_H 	H 	0.29895	0.56807	0.61616	0.054
Mof_H 	H 	0.20365	0.61223	0.57671	0.06
Mof_H 	H 	0.20487	0.65627	0.62306	0.049
Mof_H 	H 	0.29887	0.61075	0.66397	0.03
Mof_C 	C 	0.77269	0.88332	0.90489	-0.099
Mof_C 	C 	0.74527	0.90753	0.90552	0.078
Mof_C 	C 	0.71942	0.90557	0.87965	-0.099
Mof_C 	C 	0.72138	0.88032	0.85332	0.059
Mof_C 	C 	0.74845	0.85579	0.85326	-0.145
Mof_C 	C 	0.77393	0.85736	0.87939	0.064
Mof_H 	H 	0.79293	0.88432	0.92448	0.057
Mof_H 	H 	0.69786	0.92371	0.87978	0.06
Mof_H 	H 	0.70132	0.87936	0.83354	0.022
Mof_H 	H 	0.79505	0.83868	0.87978	0.038
Mof_C 	C 	0.26956	0.3869	0.40341	-0.1
Mof_C 	C 	0.24184	0.41069	0.40504	0.079
Mof_C 	C 	0.21546	0.40892	0.37973	-0.099
Mof_C 	C 	0.2171	0.38413	0.35297	0.06
Mof_C 	C 	0.24445	0.35995	0.35198	-0.147
Mof_C 	C 	0.27053	0.36141	0.37748	0.065
Mof_H 	H 	0.29019	0.38779	0.4226	0.057
Mof_H 	H 	0.19368	0.42679	0.38067	0.06
Mof_H 	H 	0.1966	0.38319	0.33365	0.022
Mof_H 	H 	0.29185	0.34296	0.37712	0.037
Mof_C 	C 	0.27164	0.8866	0.09189	-0.095
Mof_C 	C 	0.24531	0.91199	0.09089	0.077
Mof_C 	C 	0.21914	0.91138	0.11644	-0.098
Mof_C 	C 	0.21978	0.88635	0.14296	0.058
Mof_C 	C 	0.24581	0.86072	0.14348	-0.134
Mof_C 	C 	0.27153	0.86084	0.11759	0.055
Mof_H 	H 	0.29204	0.88655	0.07244	0.059
Mof_H 	H 	0.19837	0.93043	0.11594	0.056
Mof_H 	H 	0.19952	0.88645	0.16256	0.038
Mof_H 	H 	0.29182	0.84127	0.11759	0.038
Mof_C 	C 	0.77709	0.38131	0.58851	-0.095
Mof_C 	C 	0.75086	0.40682	0.58756	0.076
Mof_C 	C 	0.72461	0.40604	0.61306	-0.097
Mof_C 	C 	0.72503	0.38075	0.63938	0.053
Mof_C 	C 	0.75094	0.35498	0.63984	-0.135
Mof_C 	C 	0.77676	0.35528	0.61402	0.06
Mof_H 	H 	0.7976	0.38136	0.56917	0.061
Mof_H 	H 	0.70391	0.42516	0.61267	0.055
Mof_H 	H 	0.7046	0.3807	0.6588	0.026
Mof_H 	H 	0.79689	0.33554	0.61384	0.046
Mof_C 	C 	0.12114	0.08574	0.72621	-0.096
Mof_C 	C 	0.09645	0.0845	0.75317	0.078
Mof_C 	C 	0.09765	0.10975	0.77959	-0.098
Mof_C 	C 	0.12215	0.13663	0.77823	0.057
Mof_C 	C 	0.14668	0.13782	0.75122	-0.13
Mof_C 	C 	0.14645	0.11187	0.72558	0.058
Mof_H 	H 	0.12062	0.06656	0.70556	0.06
Mof_H 	H 	0.07904	0.10908	0.80075	0.056
Mof_H 	H 	0.12223	0.15629	0.79845	0.038
Mof_H 	H 	0.16526	0.11241	0.70458	0.035
Mof_C 	C 	0.59337	0.61416	0.27558	-0.095
Mof_C 	C 	0.5916	0.58982	0.24839	0.077
Mof_C 	C 	0.6164	0.59129	0.2215	-0.093
Mof_C 	C 	0.64253	0.61664	0.22185	0.056
Mof_C 	C 	0.64346	0.64159	0.24844	-0.119
Mof_C 	C 	0.61869	0.64026	0.27524	0.051
Mof_H 	H 	0.57474	0.61326	0.29671	0.055
Mof_H 	H 	0.61547	0.57276	0.20028	0.061
Mof_H 	H 	0.66146	0.61735	0.20098	0.046
Mof_H 	H 	0.61926	0.6592	0.29613	0.029
Mof_C 	C 	0.11053	0.90494	0.28064	-0.096
Mof_C 	C 	0.08508	0.90588	0.2544	0.077
Mof_C 	C 	0.08558	0.88018	0.22833	-0.098
Mof_C 	C 	0.11119	0.85428	0.22834	0.058
Mof_C 	C 	0.13743	0.85435	0.25368	-0.133
Mof_C 	C 	0.13693	0.87984	0.27985	0.056
Mof_H 	H 	0.11048	0.92426	0.30116	0.06
Mof_H 	H 	0.06626	0.8804	0.2078	0.056
Mof_H 	H 	0.11125	0.83495	0.20789	0.034
Mof_H 	H 	0.15694	0.88023	0.29969	0.036
Mof_C 	C 	0.61231	0.39864	0.77497	-0.094
Mof_C 	C 	0.58796	0.40057	0.74775	0.077
Mof_C 	C 	0.58976	0.37623	0.72051	-0.096
Mof_C 	C 	0.61485	0.34993	0.72096	0.052
Mof_C 	C 	0.63942	0.3484	0.74788	-0.12
Mof_C 	C 	0.63823	0.37308	0.77472	0.057
Mof_H 	H 	0.6115	0.41726	0.79611	0.061
Mof_H 	H 	0.57164	0.37761	0.69895	0.054
Mof_H 	H 	0.61578	0.3314	0.69978	0.026
Mof_H 	H 	0.65717	0.37237	0.7956	0.047
Mof_C 	C 	0.90952	0.12082	0.21644	-0.097
Mof_C 	C 	0.91172	0.09607	0.24334	0.076
Mof_C 	C 	0.88739	0.09743	0.27062	-0.095
Mof_C 	C 	0.86123	0.12277	0.27086	0.056
Mof_C 	C 	0.85966	0.14793	0.24445	-0.128
Mof_C 	C 	0.88415	0.14697	0.21738	0.055
Mof_H 	H 	0.92759	0.11996	0.19483	0.055
Mof_H 	H 	0.88848	0.07859	0.29156	0.059
Mof_H 	H 	0.84247	0.12305	0.2919	0.035
Mof_H 	H 	0.88305	0.1659	0.19652	0.038
Mof_C 	C 	0.39241	0.59392	0.7847	-0.099
Mof_C 	C 	0.41777	0.59254	0.7584	0.08
Mof_C 	C 	0.41732	0.61766	0.73182	-0.099
Mof_C 	C 	0.39179	0.64353	0.73138	0.06
Mof_C 	C 	0.36567	0.64393	0.75684	-0.138
Mof_C 	C 	0.3661	0.61902	0.78351	0.063
Mof_H 	H 	0.39246	0.57491	0.80551	0.062
Mof_H 	H 	0.43657	0.61695	0.71124	0.056
Mof_H 	H 	0.3917	0.66251	0.71053	0.028
Mof_H 	H 	0.34617	0.61913	0.80345	0.033
Mof_C 	C 	0.88419	0.90598	0.71985	-0.097
Mof_C 	C 	0.90916	0.90878	0.74645	0.078
Mof_C 	C 	0.9085	0.88482	0.77405	-0.098
Mof_C 	C 	0.88358	0.85833	0.77485	0.058
Mof_C 	C 	0.85828	0.85604	0.74867	-0.131
Mof_C 	C 	0.8585	0.88022	0.72133	0.058
Mof_H 	H 	0.88452	0.92388	0.69809	0.06
Mof_H 	H 	0.92753	0.88647	0.79478	0.055
Mof_H 	H 	0.88369	0.83995	0.79618	0.034
Mof_H 	H 	0.83931	0.87864	0.70075	0.034
Mof_C 	C 	0.40374	0.39092	0.27104	-0.098
Mof_C 	C 	0.40352	0.4151	0.24361	0.078
Mof_C 	C 	0.37793	0.41229	0.21762	-0.097
Mof_C 	C 	0.35254	0.38629	0.21953	0.058
Mof_C 	C 	0.35322	0.36186	0.24664	-0.131
Mof_C 	C 	0.37912	0.36417	0.27223	0.058
Mof_H 	H 	0.4233	0.39256	0.29128	0.055
Mof_H 	H 	0.37761	0.43032	0.19596	0.06
Mof_H 	H 	0.33288	0.38469	0.19939	0.035
Mof_H 	H 	0.37995	0.34557	0.29337	0.034
_end
