# CIF file generated by openbabel 3.1.0, see https://openbabel.org
data_I
_chemical_name_common 'NIGGEQ_clean'
_cell_length_a 10.8662
_cell_length_b 10.8662
_cell_length_c 19.632
_cell_angle_alpha 75.6105
_cell_angle_beta 75.6105
_cell_angle_gamma 64.4765
_space_group_name_H-M_alt 'P 1'
_space_group_name_Hall 'P 1'
loop_
    _symmetry_equiv_pos_as_xyz
    x,y,z
loop_
    _atom_site_label
    _atom_site_type_symbol
    _atom_site_fract_x
    _atom_site_fract_y
    _atom_site_fract_z
    _atom_site_occupancy
    Tm1      Tm       0.75436    0.09580    0.08307    1.000
    Tm2      Tm       0.90420    0.24564    0.41693    1.000
    Tm3      Tm       0.24564    0.90420    0.91693    1.000
    Tm4      Tm       0.09580    0.75436    0.58307    1.000
    H1       H        0.33240    0.09840    0.03200    1.000
    H2       H        0.98140    0.15480    0.17250    1.000
    H3       H        0.29830    0.19230    0.22310    1.000
    H4       H        0.90160    0.66760    0.46800    1.000
    H5       H        0.84520    0.01860    0.32750    1.000
    H6       H        0.80770    0.70170    0.27690    1.000
    H7       H        0.66760    0.90160    0.96800    1.000
    H8       H        0.01860    0.84520    0.82750    1.000
    H9       H        0.70170    0.80770    0.77690    1.000
    H10      H        0.09840    0.33240    0.53200    1.000
    H11      H        0.15480    0.98140    0.67250    1.000
    H12      H        0.19230    0.29830    0.72310    1.000
    C1       C        0.48460    0.13180    0.10790    1.000
    C2       C        0.33660    0.14300    0.12540    1.000
    C3       C        0.28130    0.11770    0.07650    1.000
    C4       C        0.14760    0.12180    0.09520    1.000
    C5       C        0.07100    0.15180    0.16080    1.000
    C6       C        0.12820    0.17800    0.21040    1.000
    C7       C        0.25980    0.17400    0.19130    1.000
    C8       C        0.04480    0.20440    0.28300    1.000
    C9       C        0.08490    0.09130    0.04380    1.000
    C10      C        0.86820    0.51540    0.39210    1.000
    C11      C        0.85700    0.66340    0.37460    1.000
    C12      C        0.88230    0.71870    0.42350    1.000
    C13      C        0.87820    0.85240    0.40480    1.000
    C14      C        0.84820    0.92900    0.33920    1.000
    C15      C        0.82200    0.87180    0.28960    1.000
    C16      C        0.82600    0.74020    0.30870    1.000
    C17      C        0.79560    0.95520    0.21700    1.000
    C18      C        0.90870    0.91510    0.45620    1.000
    C19      C        0.51540    0.86820    0.89210    1.000
    C20      C        0.66340    0.85700    0.87460    1.000
    C21      C        0.71870    0.88230    0.92350    1.000
    C22      C        0.85240    0.87820    0.90480    1.000
    C23      C        0.92900    0.84820    0.83920    1.000
    C24      C        0.87180    0.82200    0.78960    1.000
    C25      C        0.74020    0.82600    0.80870    1.000
    C26      C        0.95520    0.79560    0.71700    1.000
    C27      C        0.91510    0.90870    0.95620    1.000
    C28      C        0.13180    0.48460    0.60790    1.000
    C29      C        0.14300    0.33660    0.62540    1.000
    C30      C        0.11770    0.28130    0.57650    1.000
    C31      C        0.12180    0.14760    0.59520    1.000
    C32      C        0.15180    0.07100    0.66080    1.000
    C33      C        0.17800    0.12820    0.71040    1.000
    C34      C        0.17400    0.25980    0.69130    1.000
    C35      C        0.20440    0.04480    0.78300    1.000
    C36      C        0.09130    0.08490    0.54380    1.000
    O1       O        0.55730    0.09090    0.05280    1.000
    O2       O        0.52940    0.16880    0.14880    1.000
    O3       O        0.10380    0.20820    0.33020    1.000
    O4       O        0.92320    0.21640    0.29660    1.000
    O5       O        0.97250    0.07970    0.06630    1.000
    O6       O        0.14970    0.08130    0.98100    1.000
    O7       O        0.90910    0.44270    0.44720    1.000
    O8       O        0.83120    0.47060    0.35120    1.000
    O9       O        0.79180    0.89620    0.16980    1.000
    O10      O        0.78360    0.07680    0.20340    1.000
    O11      O        0.92030    0.02750    0.43370    1.000
    O12      O        0.91870    0.85030    0.51900    1.000
    O13      O        0.44270    0.90910    0.94720    1.000
    O14      O        0.47060    0.83120    0.85120    1.000
    O15      O        0.89620    0.79180    0.66980    1.000
    O16      O        0.07680    0.78360    0.70340    1.000
    O17      O        0.02750    0.92030    0.93370    1.000
    O18      O        0.85030    0.91870    0.01900    1.000
    O19      O        0.09090    0.55730    0.55280    1.000
    O20      O        0.16880    0.52940    0.64880    1.000
    O21      O        0.20820    0.10380    0.83020    1.000
    O22      O        0.21640    0.92320    0.79660    1.000
    O23      O        0.07970    0.97250    0.56630    1.000
    O24      O        0.08130    0.14970    0.48100    1.000
