data_functionalizedCrystal
_audit_creation_method	'EQeq! by Chris Wilmer'
_symmetry_space_group_name_H-M	'P1'
_symmetry_Int_Tables_number	1
_symmetry_cell_setting	triclinic
loop_
_symmetry_equiv_pos_as_xyz
  x,y,z
_cell_length_a	24.574
_cell_length_b	26.507
_cell_length_c	15.152
_cell_angle_alpha	90
_cell_angle_beta	90
_cell_angle_gamma	90
loop_
_atom_site_label
_atom_site_type_symbol
_atom_site_fract_x
_atom_site_fract_y
_atom_site_fract_z
_atom_site_charge
Mof_Cl	Cl	0.331	0.314	0.431	2.317
Mof_O 	O 	0.441	0.428	0.994	-0.461
Mof_O 	O 	0.441	0.481	0.113	-0.479
Mof_C 	C 	0.299	0.35	0.195	0.072
Mof_C 	C 	0.322	0.335	0.111	-0.126
Mof_H 	H 	0.31	0.3059	0.0832	0.074
Mof_C 	C 	0.363	0.365	0.071	0.03
Mof_H 	H 	0.3776	0.3561	0.0173	0.02
Mof_C 	C 	0.381	0.41	0.113	-0.112
Mof_C 	C 	0.359	0.425	0.196	0.021
Mof_H 	H 	0.3714	0.4541	0.2232	0.014
Mof_C 	C 	0.318	0.395	0.238	-0.119
Mof_H 	H 	0.3038	0.4044	0.2921	0.063
Mof_C 	C 	0.425	0.443	0.071	0.365
Mof_C 	C 	0.286	0.277	0.334	0.595
Mof_C 	C 	0.345	0.277	0.466	-0.259
Mof_C 	C 	0.316	0.304	0.4	-2.375
Mof_H 	H 	0.3157	0.3389	0.4001	-0.022
Mof_H 	H 	0.3641	0.2946	0.5096	-0.113
Mof_Cl	Cl	0.831	0.814	0.931	2.303
Mof_O 	O 	0.941	0.928	0.494	-0.429
Mof_O 	O 	0.941	0.981	0.613	-0.446
Mof_C 	C 	0.799	0.85	0.695	0.071
Mof_C 	C 	0.822	0.835	0.611	-0.118
Mof_H 	H 	0.81	0.8059	0.5832	0.075
Mof_C 	C 	0.863	0.865	0.571	0.028
Mof_H 	H 	0.8776	0.8561	0.5173	0.03
Mof_C 	C 	0.881	0.91	0.613	-0.099
Mof_C 	C 	0.859	0.925	0.696	0.019
Mof_H 	H 	0.8714	0.9541	0.7232	0.024
Mof_C 	C 	0.818	0.895	0.738	-0.112
Mof_H 	H 	0.8038	0.9044	0.7921	0.064
Mof_C 	C 	0.925	0.943	0.571	0.362
Mof_C 	C 	0.786	0.777	0.834	0.596
Mof_C 	C 	0.845	0.777	0.966	-0.253
Mof_C 	C 	0.816	0.804	0.9	-2.358
Mof_H 	H 	0.8157	0.8389	0.9001	-0.018
Mof_H 	H 	0.8641	0.7946	0.0096	-0.102
Mof_Cl	Cl	0.669	0.186	0.431	2.315
Mof_O 	O 	0.559	0.072	0.994	-0.461
Mof_O 	O 	0.559	0.019	0.113	-0.479
Mof_C 	C 	0.701	0.15	0.195	0.071
Mof_C 	C 	0.678	0.165	0.111	-0.125
Mof_H 	H 	0.69	0.1941	0.0832	0.074
Mof_C 	C 	0.637	0.135	0.071	0.031
Mof_H 	H 	0.6224	0.1439	0.0173	0.021
Mof_C 	C 	0.619	0.09	0.113	-0.111
Mof_C 	C 	0.641	0.075	0.196	0.022
Mof_H 	H 	0.6286	0.0459	0.2232	0.015
Mof_C 	C 	0.682	0.105	0.238	-0.118
Mof_H 	H 	0.6962	0.0956	0.2921	0.063
Mof_C 	C 	0.575	0.057	0.071	0.365
Mof_C 	C 	0.714	0.223	0.334	0.596
Mof_C 	C 	0.655	0.223	0.466	-0.257
Mof_C 	C 	0.684	0.196	0.4	-2.372
Mof_H 	H 	0.6843	0.1611	0.4001	-0.022
Mof_H 	H 	0.6359	0.2054	0.5096	-0.112
Mof_Cl	Cl	0.169	0.686	0.931	2.328
Mof_O 	O 	0.059	0.572	0.494	-0.482
Mof_O 	O 	0.059	0.519	0.613	-0.5
Mof_C 	C 	0.201	0.65	0.695	0.072
Mof_C 	C 	0.178	0.665	0.611	-0.131
Mof_H 	H 	0.19	0.6941	0.5832	0.072
Mof_C 	C 	0.137	0.635	0.571	0.032
Mof_H 	H 	0.1224	0.6439	0.5173	0.012
Mof_C 	C 	0.119	0.59	0.613	-0.121
Mof_C 	C 	0.141	0.575	0.696	0.022
Mof_H 	H 	0.1286	0.5459	0.7232	0.007
Mof_C 	C 	0.182	0.605	0.738	-0.124
Mof_H 	H 	0.1962	0.5956	0.7921	0.062
Mof_C 	C 	0.075	0.557	0.571	0.365
Mof_C 	C 	0.214	0.723	0.834	0.595
Mof_C 	C 	0.155	0.723	0.966	-0.263
Mof_C 	C 	0.184	0.696	0.9	-2.389
Mof_H 	H 	0.1843	0.6611	0.9001	-0.026
Mof_H 	H 	0.1359	0.7054	0.0096	-0.122
Mof_Cl	Cl	0.669	0.814	0.569	2.315
Mof_O 	O 	0.559	0.928	0.006	-0.461
Mof_O 	O 	0.559	0.981	0.887	-0.479
Mof_C 	C 	0.701	0.85	0.805	0.071
Mof_C 	C 	0.678	0.835	0.889	-0.125
Mof_H 	H 	0.69	0.8059	0.9168	0.074
Mof_C 	C 	0.637	0.865	0.929	0.031
Mof_H 	H 	0.6224	0.8561	0.9827	0.021
Mof_C 	C 	0.619	0.91	0.887	-0.111
Mof_C 	C 	0.641	0.925	0.804	0.022
Mof_H 	H 	0.6286	0.9541	0.7768	0.015
Mof_C 	C 	0.682	0.895	0.762	-0.118
Mof_H 	H 	0.6962	0.9044	0.7079	0.063
Mof_C 	C 	0.575	0.943	0.929	0.365
Mof_C 	C 	0.714	0.777	0.666	0.596
Mof_C 	C 	0.655	0.777	0.534	-0.257
Mof_C 	C 	0.684	0.804	0.6	-2.372
Mof_H 	H 	0.6843	0.8389	0.5999	-0.022
Mof_H 	H 	0.6359	0.7946	0.4904	-0.112
Mof_Cl	Cl	0.169	0.314	0.069	2.328
Mof_O 	O 	0.059	0.428	0.506	-0.482
Mof_O 	O 	0.059	0.481	0.387	-0.5
Mof_C 	C 	0.201	0.35	0.305	0.072
Mof_C 	C 	0.178	0.335	0.389	-0.131
Mof_H 	H 	0.19	0.3059	0.4168	0.072
Mof_C 	C 	0.137	0.365	0.429	0.032
Mof_H 	H 	0.1224	0.3561	0.4827	0.012
Mof_C 	C 	0.119	0.41	0.387	-0.121
Mof_C 	C 	0.141	0.425	0.304	0.022
Mof_H 	H 	0.1286	0.4541	0.2768	0.007
Mof_C 	C 	0.182	0.395	0.262	-0.124
Mof_H 	H 	0.1962	0.4044	0.2079	0.062
Mof_C 	C 	0.075	0.443	0.429	0.365
Mof_C 	C 	0.214	0.277	0.166	0.595
Mof_C 	C 	0.155	0.277	0.034	-0.263
Mof_C 	C 	0.184	0.304	0.1	-2.389
Mof_H 	H 	0.1843	0.3389	0.0999	-0.026
Mof_H 	H 	0.1359	0.2946	0.9904	-0.122
Mof_Cl	Cl	0.331	0.686	0.569	2.316
Mof_O 	O 	0.441	0.572	0.006	-0.462
Mof_O 	O 	0.441	0.519	0.887	-0.479
Mof_C 	C 	0.299	0.65	0.805	0.072
Mof_C 	C 	0.322	0.665	0.889	-0.126
Mof_H 	H 	0.31	0.6941	0.9168	0.074
Mof_C 	C 	0.363	0.635	0.929	0.03
Mof_H 	H 	0.3776	0.6439	0.9827	0.02
Mof_C 	C 	0.381	0.59	0.887	-0.112
Mof_C 	C 	0.359	0.575	0.804	0.021
Mof_H 	H 	0.3714	0.5459	0.7768	0.014
Mof_C 	C 	0.318	0.605	0.762	-0.119
Mof_H 	H 	0.3038	0.5956	0.7079	0.063
Mof_C 	C 	0.425	0.557	0.929	0.365
Mof_C 	C 	0.286	0.723	0.666	0.595
Mof_C 	C 	0.345	0.723	0.534	-0.259
Mof_C 	C 	0.316	0.696	0.6	-2.375
Mof_H 	H 	0.3157	0.6611	0.5999	-0.022
Mof_H 	H 	0.3641	0.7054	0.4904	-0.113
Mof_Cl	Cl	0.831	0.186	0.069	2.303
Mof_O 	O 	0.941	0.072	0.506	-0.429
Mof_O 	O 	0.941	0.019	0.387	-0.446
Mof_C 	C 	0.799	0.15	0.305	0.071
Mof_C 	C 	0.822	0.165	0.389	-0.118
Mof_H 	H 	0.81	0.1941	0.4168	0.075
Mof_C 	C 	0.863	0.135	0.429	0.028
Mof_H 	H 	0.8776	0.1439	0.4827	0.03
Mof_C 	C 	0.881	0.09	0.387	-0.099
Mof_C 	C 	0.859	0.075	0.304	0.019
Mof_H 	H 	0.8714	0.0459	0.2768	0.024
Mof_C 	C 	0.818	0.105	0.262	-0.112
Mof_H 	H 	0.8038	0.0956	0.2079	0.064
Mof_C 	C 	0.925	0.057	0.429	0.362
Mof_C 	C 	0.786	0.223	0.166	0.596
Mof_C 	C 	0.845	0.223	0.034	-0.253
Mof_C 	C 	0.816	0.196	0.1	-2.358
Mof_H 	H 	0.8157	0.1611	0.0999	-0.018
Mof_H 	H 	0.8641	0.2054	0.9904	-0.102
Mof_Cl	Cl	0.669	0.686	0.569	2.315
Mof_O 	O 	0.559	0.572	0.006	-0.461
Mof_O 	O 	0.559	0.519	0.887	-0.479
Mof_C 	C 	0.701	0.65	0.805	0.071
Mof_C 	C 	0.678	0.665	0.889	-0.125
Mof_H 	H 	0.69	0.6941	0.9168	0.074
Mof_C 	C 	0.637	0.635	0.929	0.031
Mof_H 	H 	0.6224	0.6439	0.9827	0.021
Mof_C 	C 	0.619	0.59	0.887	-0.111
Mof_C 	C 	0.641	0.575	0.804	0.022
Mof_H 	H 	0.6286	0.5459	0.7768	0.015
Mof_C 	C 	0.682	0.605	0.762	-0.118
Mof_H 	H 	0.6962	0.5956	0.7079	0.063
Mof_C 	C 	0.575	0.557	0.929	0.365
Mof_C 	C 	0.714	0.723	0.666	0.596
Mof_C 	C 	0.655	0.723	0.534	-0.257
Mof_C 	C 	0.684	0.696	0.6	-2.372
Mof_H 	H 	0.6843	0.6611	0.5999	-0.022
Mof_H 	H 	0.6359	0.7054	0.4904	-0.112
Mof_Cl	Cl	0.169	0.186	0.069	2.328
Mof_O 	O 	0.059	0.072	0.506	-0.482
Mof_O 	O 	0.059	0.019	0.387	-0.499
Mof_C 	C 	0.201	0.15	0.305	0.072
Mof_C 	C 	0.178	0.165	0.389	-0.131
Mof_H 	H 	0.19	0.1941	0.4168	0.072
Mof_C 	C 	0.137	0.135	0.429	0.032
Mof_H 	H 	0.1224	0.1439	0.4827	0.012
Mof_C 	C 	0.119	0.09	0.387	-0.121
Mof_C 	C 	0.141	0.075	0.304	0.022
Mof_H 	H 	0.1286	0.0459	0.2768	0.007
Mof_C 	C 	0.182	0.105	0.262	-0.124
Mof_H 	H 	0.1962	0.0956	0.2079	0.062
Mof_C 	C 	0.075	0.057	0.429	0.365
Mof_C 	C 	0.214	0.223	0.166	0.595
Mof_C 	C 	0.155	0.223	0.034	-0.263
Mof_C 	C 	0.184	0.196	0.1	-2.389
Mof_H 	H 	0.1843	0.1611	0.0999	-0.026
Mof_H 	H 	0.1359	0.2054	0.9904	-0.122
Mof_Cl	Cl	0.331	0.814	0.569	2.316
Mof_O 	O 	0.441	0.928	0.006	-0.462
Mof_O 	O 	0.441	0.981	0.887	-0.479
Mof_C 	C 	0.299	0.85	0.805	0.072
Mof_C 	C 	0.322	0.835	0.889	-0.126
Mof_H 	H 	0.31	0.8059	0.9168	0.074
Mof_C 	C 	0.363	0.865	0.929	0.031
Mof_H 	H 	0.3776	0.8561	0.9827	0.02
Mof_C 	C 	0.381	0.91	0.887	-0.112
Mof_C 	C 	0.359	0.925	0.804	0.021
Mof_H 	H 	0.3714	0.9541	0.7768	0.014
Mof_C 	C 	0.318	0.895	0.762	-0.119
Mof_H 	H 	0.3038	0.9044	0.7079	0.063
Mof_C 	C 	0.425	0.943	0.929	0.365
Mof_C 	C 	0.286	0.777	0.666	0.595
Mof_C 	C 	0.345	0.777	0.534	-0.258
Mof_C 	C 	0.316	0.804	0.6	-2.375
Mof_H 	H 	0.3157	0.8389	0.5999	-0.022
Mof_H 	H 	0.3641	0.7946	0.4904	-0.113
Mof_Cl	Cl	0.831	0.314	0.069	2.302
Mof_O 	O 	0.941	0.428	0.506	-0.428
Mof_O 	O 	0.941	0.481	0.387	-0.446
Mof_C 	C 	0.799	0.35	0.305	0.071
Mof_C 	C 	0.822	0.335	0.389	-0.118
Mof_H 	H 	0.81	0.3059	0.4168	0.075
Mof_C 	C 	0.863	0.365	0.429	0.028
Mof_H 	H 	0.8776	0.3561	0.4827	0.031
Mof_C 	C 	0.881	0.41	0.387	-0.098
Mof_C 	C 	0.859	0.425	0.304	0.019
Mof_H 	H 	0.8714	0.4541	0.2768	0.024
Mof_C 	C 	0.818	0.395	0.262	-0.112
Mof_H 	H 	0.8038	0.4044	0.2079	0.064
Mof_C 	C 	0.925	0.443	0.429	0.362
Mof_C 	C 	0.786	0.277	0.166	0.595
Mof_C 	C 	0.845	0.277	0.034	-0.253
Mof_C 	C 	0.816	0.304	0.1	-2.357
Mof_H 	H 	0.8157	0.3389	0.0999	-0.018
Mof_H 	H 	0.8641	0.2946	0.9904	-0.102
Mof_Cl	Cl	0.331	0.186	0.431	2.316
Mof_O 	O 	0.441	0.072	0.994	-0.462
Mof_O 	O 	0.441	0.019	0.113	-0.479
Mof_C 	C 	0.299	0.15	0.195	0.072
Mof_C 	C 	0.322	0.165	0.111	-0.126
Mof_H 	H 	0.31	0.1941	0.0832	0.074
Mof_C 	C 	0.363	0.135	0.071	0.031
Mof_H 	H 	0.3776	0.1439	0.0173	0.02
Mof_C 	C 	0.381	0.09	0.113	-0.112
Mof_C 	C 	0.359	0.075	0.196	0.021
Mof_H 	H 	0.3714	0.0459	0.2232	0.014
Mof_C 	C 	0.318	0.105	0.238	-0.119
Mof_H 	H 	0.3038	0.0956	0.2921	0.063
Mof_C 	C 	0.425	0.057	0.071	0.365
Mof_C 	C 	0.286	0.223	0.334	0.595
Mof_C 	C 	0.345	0.223	0.466	-0.258
Mof_C 	C 	0.316	0.196	0.4	-2.375
Mof_H 	H 	0.3157	0.1611	0.4001	-0.022
Mof_H 	H 	0.3641	0.2054	0.5096	-0.113
Mof_Cl	Cl	0.831	0.686	0.931	2.302
Mof_O 	O 	0.941	0.572	0.494	-0.428
Mof_O 	O 	0.941	0.519	0.613	-0.446
Mof_C 	C 	0.799	0.65	0.695	0.071
Mof_C 	C 	0.822	0.665	0.611	-0.118
Mof_H 	H 	0.81	0.6941	0.5832	0.075
Mof_C 	C 	0.863	0.635	0.571	0.028
Mof_H 	H 	0.8776	0.6439	0.5173	0.031
Mof_C 	C 	0.881	0.59	0.613	-0.098
Mof_C 	C 	0.859	0.575	0.696	0.019
Mof_H 	H 	0.8714	0.5459	0.7232	0.024
Mof_C 	C 	0.818	0.605	0.738	-0.112
Mof_H 	H 	0.8038	0.5956	0.7921	0.064
Mof_C 	C 	0.925	0.557	0.571	0.362
Mof_C 	C 	0.786	0.723	0.834	0.595
Mof_C 	C 	0.845	0.723	0.966	-0.253
Mof_C 	C 	0.816	0.696	0.9	-2.357
Mof_H 	H 	0.8157	0.6611	0.9001	-0.018
Mof_H 	H 	0.8641	0.7054	0.0096	-0.102
Mof_Cl	Cl	0.669	0.314	0.431	2.315
Mof_O 	O 	0.559	0.428	0.994	-0.461
Mof_O 	O 	0.559	0.481	0.113	-0.479
Mof_C 	C 	0.701	0.35	0.195	0.071
Mof_C 	C 	0.678	0.335	0.111	-0.125
Mof_H 	H 	0.69	0.3059	0.0832	0.074
Mof_C 	C 	0.637	0.365	0.071	0.031
Mof_H 	H 	0.6224	0.3561	0.0173	0.021
Mof_C 	C 	0.619	0.41	0.113	-0.111
Mof_C 	C 	0.641	0.425	0.196	0.022
Mof_H 	H 	0.6286	0.4541	0.2232	0.015
Mof_C 	C 	0.682	0.395	0.238	-0.118
Mof_H 	H 	0.6962	0.4044	0.2921	0.063
Mof_C 	C 	0.575	0.443	0.071	0.365
Mof_C 	C 	0.714	0.277	0.334	0.596
Mof_C 	C 	0.655	0.277	0.466	-0.257
Mof_C 	C 	0.684	0.304	0.4	-2.372
Mof_H 	H 	0.6843	0.3389	0.4001	-0.022
Mof_H 	H 	0.6359	0.2946	0.5096	-0.112
Mof_Cl	Cl	0.169	0.814	0.931	2.328
Mof_O 	O 	0.059	0.928	0.494	-0.482
Mof_O 	O 	0.059	0.981	0.613	-0.499
Mof_C 	C 	0.201	0.85	0.695	0.072
Mof_C 	C 	0.178	0.835	0.611	-0.131
Mof_H 	H 	0.19	0.8059	0.5832	0.072
Mof_C 	C 	0.137	0.865	0.571	0.032
Mof_H 	H 	0.1224	0.8561	0.5173	0.012
Mof_C 	C 	0.119	0.91	0.613	-0.121
Mof_C 	C 	0.141	0.925	0.696	0.022
Mof_H 	H 	0.1286	0.9541	0.7232	0.007
Mof_C 	C 	0.182	0.895	0.738	-0.124
Mof_H 	H 	0.1962	0.9044	0.7921	0.062
Mof_C 	C 	0.075	0.943	0.571	0.365
Mof_C 	C 	0.214	0.777	0.834	0.595
Mof_C 	C 	0.155	0.777	0.966	-0.263
Mof_C 	C 	0.184	0.804	0.9	-2.389
Mof_H 	H 	0.1843	0.8389	0.9001	-0.026
Mof_H 	H 	0.1359	0.7946	0.0096	-0.122
Mof_Pt	Pt	0.2094	0.25	0.1595	-0.08
Mof_Pt	Pt	0.7094	0.75	0.6595	-0.083
Mof_Pt	Pt	0.7906	0.25	0.1595	-0.086
Mof_Pt	Pt	0.2906	0.75	0.6595	-0.082
Mof_Pt	Pt	0.7906	0.75	0.8405	-0.086
Mof_Pt	Pt	0.2906	0.25	0.3405	-0.082
Mof_Pt	Pt	0.2094	0.75	0.8405	-0.08
Mof_Pt	Pt	0.7094	0.25	0.3405	-0.083
Mof_Zn	Zn	0.5	0.4651	0.9188	1.181
Mof_Zn	Zn	1.11989e-32	0.9651	0.4188	1.157
Mof_Zn	Zn	0.5	0.0349	0.9188	1.181
Mof_Zn	Zn	9.68194e-34	0.5349	0.4188	1.156
Mof_Zn	Zn	0.5	0.9651	0.0812	1.181
Mof_Zn	Zn	6.45897e-33	0.4651	0.5812	1.156
Mof_Zn	Zn	0.5	0.5349	0.0812	1.181
Mof_Zn	Zn	6.45897e-33	0.0349	0.5812	1.157
Mof_P 	P 	0.25	0.3086	0.25	-0.121
Mof_P 	P 	0.75	0.1914	0.25	-0.119
Mof_P 	P 	0.75	0.8086	0.75	-0.119
Mof_P 	P 	0.25	0.6914	0.75	-0.121
Mof_P 	P 	0.75	0.6914	0.75	-0.119
Mof_P 	P 	0.25	0.1914	0.25	-0.121
Mof_P 	P 	0.25	0.8086	0.75	-0.121
Mof_P 	P 	0.75	0.3086	0.25	-0.119
_end
