data_functionalizedCrystal
_audit_creation_method	'EQeq! by Chris Wilmer'
_symmetry_space_group_name_H-M	'P1'
_symmetry_Int_Tables_number	1
_symmetry_cell_setting	triclinic
loop_
_symmetry_equiv_pos_as_xyz
  x,y,z
_cell_length_a	18.616
_cell_length_b	18.616
_cell_length_c	37.566
_cell_angle_alpha	90
_cell_angle_beta	90
_cell_angle_gamma	120
loop_
_atom_site_label
_atom_site_type_symbol
_atom_site_fract_x
_atom_site_fract_y
_atom_site_fract_z
_atom_site_charge
Mof_Cu	Cu	0.52331	0.04654	0.60803	0.9
Mof_Cu	Cu	0.47677	0.9535	0.66603	0.913
Mof_C 	C 	0.6362	0.0889	0.6636	0.32
Mof_C 	C 	0.8069	0.1963	0.7349	0.103
Mof_C 	C 	0.7184	0.1532	0.6831	-0.012
Mof_O 	O 	0.586	0.0307	0.6826	-0.41
Mof_C 	C 	0.8469	0.2805	0.6828	-0.018
Mof_C 	C 	0.7339	0.1396	0.7172	-0.098
Mof_H 	H 	0.69521	0.09183	0.72893	0.079
Mof_O 	O 	0.6285	0.1109	0.6322	-0.399
Mof_C 	C 	0.862	0.2646	0.7167	-0.099
Mof_H 	H 	0.91173	0.30197	0.72764	0.076
Mof_C 	C 	0.7725	0.2253	0.6628	-0.041
Mof_H 	H 	0.76152	0.23554	0.63979	0.075
Mof_C 	C 	0.9109	0.3636	0.6647	0.334
Mof_O 	O 	0.8896	0.371	0.6324	-0.394
Mof_O 	O 	0.9698	0.4123	0.6821	-0.419
Mof_C 	C 	0.9478	0.1816	0.9284	-0.168
Mof_C 	C 	0.8871	0.1103	0.9438	0.104
Mof_H 	H 	0.89471	0.10184	0.96761	0.022
Mof_C 	C 	0.9323	0.1965	0.895	-0.004
Mof_H 	H 	0.97013	0.24751	0.88523	0.041
Mof_C 	C 	0.7647	0.9743	0.9458	0.432
Mof_C 	C 	0.0237	0.2331	0.9447	0.44
Mof_C 	C 	0.8061	0.0648	0.8942	-0.008
Mof_H 	H 	0.75916	0.02315	0.88294	0.05
Mof_C 	C 	0.8617	0.1407	0.8725	0.061
Mof_O 	O 	0.0384	0.2228	0.9741	-0.455
Mof_O 	O 	0.7765	0.9609	0.9746	-0.465
Mof_O 	O 	0.0737	0.2989	0.9267	-0.421
Mof_O 	O 	0.7015	0.9235	0.9259	-0.42
Mof_C 	C 	0.818	0.0517	0.9282	-0.153
Mof_N 	N 	0.8205	0.1803	0.7691	-0.098
Mof_N 	N 	0.8498	0.1514	0.841	-0.155
Mof_C 	C 	0.7901	0.097	0.7799	-0.049
Mof_H 	H 	0.82496	0.07716	0.76988	0.041
Mof_H 	H 	0.73448	0.06273	0.77061	0.041
Mof_C 	C 	0.7882	0.0881	0.8182	-0.045
Mof_H 	H 	0.789	0.03736	0.82312	0.04
Mof_H 	H 	0.73463	0.07897	0.82612	0.049
Mof_C 	C 	0.9133	0.2161	0.8192	0.237
Mof_H 	H 	0.89105	0.25354	0.82213	-0.014
Mof_C 	C 	0.00341	0.287	0.8155	-0.697
Mof_H 	H 	0.02766	0.30403	0.83871	0.232
Mof_H 	H 	0.03456	0.26823	0.80191	0.226
Mof_H 	H 	0.0043	0.33305	0.80358	0.228
Mof_C 	C 	0.9033	0.2114	0.7811	-0.17
Mof_H 	H 	0.93762	0.2665	0.77126	0.078
Mof_H 	H 	0.92356	0.1763	0.77174	0.077
Mof_Cu	Cu	0.18998	0.37987	0.94136	0.899
Mof_Cu	Cu	0.14344	0.28683	0.99936	0.906
Mof_C 	C 	0.30287	0.42223	0.99693	0.271
Mof_C 	C 	0.47357	0.52963	0.06823	0.137
Mof_C 	C 	0.38507	0.48653	0.01643	0.056
Mof_O 	O 	0.25267	0.36403	0.01593	-0.383
Mof_C 	C 	0.51357	0.61383	0.01613	0.05
Mof_C 	C 	0.40057	0.47293	0.05053	-0.144
Mof_H 	H 	0.36188	0.42516	0.06226	0.096
Mof_O 	O 	0.29517	0.44423	0.96553	-0.391
Mof_C 	C 	0.52867	0.59793	0.05003	-0.147
Mof_H 	H 	0.5784	0.6353	0.06097	0.093
Mof_C 	C 	0.43917	0.55863	0.99613	-0.123
Mof_H 	H 	0.42819	0.56887	0.97312	0.1
Mof_C 	C 	0.57757	0.69693	0.99803	0.282
Mof_O 	O 	0.55627	0.70433	0.96573	-0.386
Mof_O 	O 	0.63647	0.74563	0.01543	-0.39
Mof_C 	C 	0.61447	0.51493	0.26173	-0.168
Mof_C 	C 	0.55377	0.44363	0.27713	0.104
Mof_H 	H 	0.56138	0.43517	0.30094	0.024
Mof_C 	C 	0.59897	0.52983	0.22833	-0.003
Mof_H 	H 	0.6368	0.58084	0.21856	0.04
Mof_C 	C 	0.43137	0.30763	0.27913	0.432
Mof_C 	C 	0.69037	0.56643	0.27803	0.441
Mof_C 	C 	0.47277	0.39813	0.22753	-0.008
Mof_H 	H 	0.42583	0.35648	0.21627	0.05
Mof_C 	C 	0.52837	0.47403	0.20583	0.061
Mof_O 	O 	0.70507	0.55613	0.30743	-0.451
Mof_O 	O 	0.44317	0.29423	0.30793	-0.461
Mof_O 	O 	0.74037	0.63223	0.26003	-0.419
Mof_O 	O 	0.36817	0.25683	0.25923	-0.419
Mof_C 	C 	0.48467	0.38503	0.26153	-0.154
Mof_N 	N 	0.48717	0.51363	0.10243	-0.104
Mof_N 	N 	0.51647	0.48473	0.17433	-0.154
Mof_C 	C 	0.45677	0.43033	0.11323	-0.047
Mof_H 	H 	0.49163	0.41049	0.10321	0.041
Mof_H 	H 	0.40115	0.39606	0.10394	0.04
Mof_C 	C 	0.45487	0.42143	0.15153	-0.047
Mof_H 	H 	0.45567	0.37069	0.15645	0.04
Mof_H 	H 	0.4013	0.4123	0.15945	0.05
Mof_C 	C 	0.57997	0.54943	0.15253	0.235
Mof_H 	H 	0.55772	0.58687	0.15546	-0.013
Mof_C 	C 	0.67008	0.62033	0.14883	-0.697
Mof_H 	H 	0.69433	0.63736	0.17204	0.233
Mof_H 	H 	0.70123	0.60156	0.13524	0.228
Mof_H 	H 	0.67097	0.66638	0.13691	0.229
Mof_C 	C 	0.56997	0.54473	0.11443	-0.168
Mof_H 	H 	0.60429	0.59983	0.10459	0.077
Mof_H 	H 	0.59023	0.50963	0.10507	0.076
Mof_Cu	Cu	0.85664	0.71321	0.2747	0.9
Mof_Cu	Cu	0.8101	0.62017	0.3327	0.914
Mof_C 	C 	0.96953	0.75557	0.33027	0.322
Mof_C 	C 	0.14023	0.86297	0.40157	0.102
Mof_C 	C 	0.05173	0.81987	0.34977	-0.014
Mof_O 	O 	0.91933	0.69737	0.34927	-0.41
Mof_C 	C 	0.18023	0.94717	0.34947	-0.02
Mof_C 	C 	0.06723	0.80627	0.38387	-0.097
Mof_H 	H 	0.02854	0.7585	0.3956	0.079
Mof_O 	O 	0.96183	0.77757	0.29887	-0.4
Mof_C 	C 	0.19533	0.93127	0.38337	-0.098
Mof_H 	H 	0.24506	0.96864	0.39431	0.075
Mof_C 	C 	0.10583	0.89197	0.32947	-0.04
Mof_H 	H 	0.09485	0.90221	0.30646	0.074
Mof_C 	C 	0.24423	0.03027	0.33137	0.335
Mof_O 	O 	0.22293	0.03767	0.29907	-0.394
Mof_O 	O 	0.30313	0.07897	0.34877	-0.419
Mof_C 	C 	0.28113	0.84827	0.59507	-0.169
Mof_C 	C 	0.22043	0.77697	0.61047	0.105
Mof_H 	H 	0.22804	0.76851	0.63428	0.023
Mof_C 	C 	0.26563	0.86317	0.56167	-0.003
Mof_H 	H 	0.30346	0.91418	0.5519	0.04
Mof_C 	C 	0.09803	0.64097	0.61247	0.433
Mof_C 	C 	0.35703	0.89977	0.61137	0.441
Mof_C 	C 	0.13943	0.73147	0.56087	-0.007
Mof_H 	H 	0.09249	0.68982	0.54961	0.05
Mof_C 	C 	0.19503	0.80737	0.53917	0.06
Mof_O 	O 	0.37173	0.88947	0.64077	-0.451
Mof_O 	O 	0.10983	0.62757	0.64127	-0.461
Mof_O 	O 	0.40703	0.96557	0.59337	-0.42
Mof_O 	O 	0.03483	0.59017	0.59257	-0.419
Mof_C 	C 	0.15133	0.71837	0.59487	-0.154
Mof_N 	N 	0.15383	0.84697	0.43577	-0.098
Mof_N 	N 	0.18313	0.81807	0.50767	-0.155
Mof_C 	C 	0.12343	0.76367	0.44657	-0.049
Mof_H 	H 	0.15829	0.74383	0.43655	0.041
Mof_H 	H 	0.06781	0.7294	0.43728	0.041
Mof_C 	C 	0.12153	0.75477	0.48487	-0.045
Mof_H 	H 	0.12233	0.70403	0.48979	0.039
Mof_H 	H 	0.06796	0.74564	0.49279	0.049
Mof_C 	C 	0.24663	0.88277	0.48587	0.235
Mof_H 	H 	0.22438	0.92021	0.4888	-0.013
Mof_C 	C 	0.33674	0.95367	0.48217	-0.695
Mof_H 	H 	0.36099	0.9707	0.50538	0.232
Mof_H 	H 	0.36789	0.9349	0.46858	0.226
Mof_H 	H 	0.33763	0.99972	0.47025	0.227
Mof_C 	C 	0.23663	0.87807	0.44777	-0.169
Mof_H 	H 	0.27095	0.93317	0.43793	0.078
Mof_H 	H 	0.25689	0.84297	0.43841	0.076
Mof_Cu	Cu	0.95346	0.47677	0.60803	0.901
Mof_Cu	Cu	0.0465	0.52327	0.66603	0.914
Mof_C 	C 	0.9111	0.5473	0.6636	0.321
Mof_C 	C 	0.8037	0.6106	0.7349	0.103
Mof_C 	C 	0.8468	0.5652	0.6831	-0.012
Mof_O 	O 	0.9693	0.5553	0.6826	-0.41
Mof_C 	C 	0.7195	0.5664	0.6828	-0.019
Mof_C 	C 	0.8604	0.5943	0.7172	-0.098
Mof_H 	H 	0.90817	0.60338	0.72893	0.079
Mof_O 	O 	0.8891	0.5176	0.6322	-0.399
Mof_C 	C 	0.7354	0.5974	0.7167	-0.099
Mof_H 	H 	0.69803	0.60976	0.72764	0.075
Mof_C 	C 	0.7747	0.5472	0.6628	-0.041
Mof_H 	H 	0.76446	0.52598	0.63979	0.075
Mof_C 	C 	0.6364	0.5473	0.6647	0.334
Mof_O 	O 	0.629	0.5186	0.6324	-0.394
Mof_O 	O 	0.5877	0.5575	0.6821	-0.419
Mof_C 	C 	0.8184	0.7662	0.9284	-0.171
Mof_C 	C 	0.8897	0.7768	0.9438	0.106
Mof_H 	H 	0.89816	0.79287	0.96761	0.021
Mof_C 	C 	0.8035	0.7358	0.895	-0.002
Mof_H 	H 	0.75249	0.72262	0.88523	0.04
Mof_C 	C 	0.0257	0.7904	0.9458	0.432
Mof_C 	C 	0.7669	0.7906	0.9447	0.443
Mof_C 	C 	0.9352	0.7413	0.8942	-0.007
Mof_H 	H 	0.97685	0.73601	0.88294	0.05
Mof_C 	C 	0.8593	0.721	0.8725	0.06
Mof_O 	O 	0.7772	0.8156	0.9741	-0.455
Mof_O 	O 	0.0391	0.8156	0.9746	-0.466
Mof_O 	O 	0.7011	0.7748	0.9267	-0.421
Mof_O 	O 	0.0765	0.778	0.9259	-0.42
Mof_C 	C 	0.9483	0.7663	0.9282	-0.155
Mof_N 	N 	0.8197	0.6402	0.7691	-0.098
Mof_N 	N 	0.8486	0.6984	0.841	-0.154
Mof_C 	C 	0.903	0.6931	0.7799	-0.049
Mof_H 	H 	0.92284	0.7478	0.76988	0.041
Mof_H 	H 	0.93727	0.67175	0.77061	0.041
Mof_C 	C 	0.9119	0.7001	0.8182	-0.046
Mof_H 	H 	0.96264	0.75164	0.82312	0.039
Mof_H 	H 	0.92103	0.65566	0.82612	0.049
Mof_C 	C 	0.7839	0.6972	0.8192	0.235
Mof_H 	H 	0.74646	0.63751	0.82213	-0.014
Mof_C 	C 	0.713	0.71641	0.8155	-0.694
Mof_H 	H 	0.69597	0.72363	0.83871	0.232
Mof_H 	H 	0.73177	0.76633	0.80191	0.226
Mof_H 	H 	0.66695	0.67125	0.80358	0.227
Mof_C 	C 	0.7886	0.6919	0.7811	-0.169
Mof_H 	H 	0.7335	0.67112	0.77126	0.078
Mof_H 	H 	0.8237	0.74726	0.77174	0.076
Mof_Cu	Cu	0.62013	0.8101	0.94136	0.899
Mof_Cu	Cu	0.71317	0.8566	0.99936	0.906
Mof_C 	C 	0.57777	0.88063	0.99693	0.271
Mof_C 	C 	0.47037	0.94393	0.06823	0.137
Mof_C 	C 	0.51347	0.89853	0.01643	0.056
Mof_O 	O 	0.63597	0.88863	0.01593	-0.384
Mof_C 	C 	0.38617	0.89973	0.01613	0.05
Mof_C 	C 	0.52707	0.92763	0.05053	-0.144
Mof_H 	H 	0.57484	0.93671	0.06226	0.096
Mof_O 	O 	0.55577	0.85093	0.96553	-0.391
Mof_C 	C 	0.40207	0.93073	0.05003	-0.147
Mof_H 	H 	0.3647	0.94309	0.06097	0.092
Mof_C 	C 	0.44137	0.88053	0.99613	-0.123
Mof_H 	H 	0.43113	0.85931	0.97312	0.1
Mof_C 	C 	0.30307	0.88063	0.99803	0.282
Mof_O 	O 	0.29567	0.85193	0.96573	-0.386
Mof_O 	O 	0.25437	0.89083	0.01543	-0.39
Mof_C 	C 	0.48507	0.09953	0.26173	-0.168
Mof_C 	C 	0.55637	0.11013	0.27713	0.104
Mof_H 	H 	0.56483	0.1262	0.30094	0.024
Mof_C 	C 	0.47017	0.06913	0.22833	-0.003
Mof_H 	H 	0.41916	0.05595	0.21856	0.041
Mof_C 	C 	0.69237	0.12373	0.27913	0.432
Mof_C 	C 	0.43357	0.12393	0.27803	0.441
Mof_C 	C 	0.60187	0.07463	0.22753	-0.008
Mof_H 	H 	0.64352	0.06934	0.21627	0.05
Mof_C 	C 	0.52597	0.05433	0.20583	0.061
Mof_O 	O 	0.44387	0.14893	0.30743	-0.45
Mof_O 	O 	0.70577	0.14893	0.30793	-0.461
Mof_O 	O 	0.36777	0.10813	0.26003	-0.419
Mof_O 	O 	0.74317	0.11133	0.25923	-0.418
Mof_C 	C 	0.61497	0.09963	0.26153	-0.154
Mof_N 	N 	0.48637	0.97353	0.10243	-0.105
Mof_N 	N 	0.51527	0.03173	0.17433	-0.155
Mof_C 	C 	0.56967	0.02643	0.11323	-0.047
Mof_H 	H 	0.58951	0.08113	0.10321	0.042
Mof_H 	H 	0.60394	0.00508	0.10394	0.041
Mof_C 	C 	0.57857	0.03343	0.15153	-0.045
Mof_H 	H 	0.62931	0.08497	0.15645	0.04
Mof_H 	H 	0.5877	0.98899	0.15945	0.049
Mof_C 	C 	0.45057	0.03053	0.15253	0.237
Mof_H 	H 	0.41313	0.97084	0.15546	-0.014
Mof_C 	C 	0.37967	0.04974	0.14883	-0.698
Mof_H 	H 	0.36264	0.05696	0.17204	0.234
Mof_H 	H 	0.39844	0.09966	0.13524	0.228
Mof_H 	H 	0.33362	0.00458	0.13691	0.23
Mof_C 	C 	0.45527	0.02523	0.11443	-0.168
Mof_H 	H 	0.40017	0.00445	0.10459	0.077
Mof_H 	H 	0.49037	0.08059	0.10507	0.076
Mof_Cu	Cu	0.28679	0.14344	0.2747	0.9
Mof_Cu	Cu	0.37983	0.18994	0.3327	0.914
Mof_C 	C 	0.24443	0.21397	0.33027	0.321
Mof_C 	C 	0.13703	0.27727	0.40157	0.103
Mof_C 	C 	0.18013	0.23187	0.34977	-0.012
Mof_O 	O 	0.30263	0.22197	0.34927	-0.41
Mof_C 	C 	0.05283	0.23307	0.34947	-0.02
Mof_C 	C 	0.19373	0.26097	0.38387	-0.098
Mof_H 	H 	0.2415	0.27005	0.3956	0.079
Mof_O 	O 	0.22243	0.18427	0.29887	-0.4
Mof_C 	C 	0.06873	0.26407	0.38337	-0.099
Mof_H 	H 	0.03136	0.27643	0.39431	0.075
Mof_C 	C 	0.10803	0.21387	0.32947	-0.04
Mof_H 	H 	0.09779	0.19265	0.30646	0.074
Mof_C 	C 	0.96973	0.21397	0.33137	0.335
Mof_O 	O 	0.96233	0.18527	0.29907	-0.394
Mof_O 	O 	0.92103	0.22417	0.34877	-0.419
Mof_C 	C 	0.15173	0.43287	0.59507	-0.168
Mof_C 	C 	0.22303	0.44347	0.61047	0.105
Mof_H 	H 	0.23149	0.45954	0.63428	0.023
Mof_C 	C 	0.13683	0.40247	0.56167	-0.003
Mof_H 	H 	0.08582	0.38929	0.5519	0.04
Mof_C 	C 	0.35903	0.45707	0.61247	0.432
Mof_C 	C 	0.10023	0.45727	0.61137	0.441
Mof_C 	C 	0.26853	0.40797	0.56087	-0.008
Mof_H 	H 	0.31018	0.40268	0.54961	0.05
Mof_C 	C 	0.19263	0.38767	0.53917	0.061
Mof_O 	O 	0.11053	0.48227	0.64077	-0.451
Mof_O 	O 	0.37243	0.48227	0.64127	-0.461
Mof_O 	O 	0.03443	0.44147	0.59337	-0.42
Mof_O 	O 	0.40983	0.44467	0.59257	-0.419
Mof_C 	C 	0.28163	0.43297	0.59487	-0.154
Mof_N 	N 	0.15303	0.30687	0.43577	-0.098
Mof_N 	N 	0.18193	0.36507	0.50767	-0.155
Mof_C 	C 	0.23633	0.35977	0.44657	-0.049
Mof_H 	H 	0.25617	0.41447	0.43655	0.041
Mof_H 	H 	0.2706	0.33842	0.43728	0.041
Mof_C 	C 	0.24523	0.36677	0.48487	-0.046
Mof_H 	H 	0.29597	0.41831	0.48979	0.039
Mof_H 	H 	0.25436	0.32233	0.49279	0.05
Mof_C 	C 	0.11723	0.36387	0.48587	0.235
Mof_H 	H 	0.07979	0.30418	0.4888	-0.013
Mof_C 	C 	0.04633	0.38308	0.48217	-0.695
Mof_H 	H 	0.0293	0.3903	0.50538	0.232
Mof_H 	H 	0.0651	0.433	0.46858	0.226
Mof_H 	H 	0.00028	0.33792	0.47025	0.228
Mof_C 	C 	0.12193	0.35857	0.44777	-0.169
Mof_H 	H 	0.06683	0.33779	0.43793	0.078
Mof_H 	H 	0.15703	0.41393	0.43841	0.076
Mof_Cu	Cu	0.52323	0.47669	0.60803	0.9
Mof_Cu	Cu	0.47673	0.52323	0.66603	0.914
Mof_C 	C 	0.4527	0.3638	0.6636	0.321
Mof_C 	C 	0.3894	0.1931	0.7349	0.103
Mof_C 	C 	0.4348	0.2816	0.6831	-0.012
Mof_O 	O 	0.4447	0.414	0.6826	-0.41
Mof_C 	C 	0.4336	0.1531	0.6828	-0.018
Mof_C 	C 	0.4057	0.2661	0.7172	-0.098
Mof_H 	H 	0.39662	0.30479	0.72893	0.079
Mof_O 	O 	0.4824	0.3715	0.6322	-0.4
Mof_C 	C 	0.4026	0.138	0.7167	-0.099
Mof_H 	H 	0.39024	0.08827	0.72764	0.075
Mof_C 	C 	0.4528	0.2275	0.6628	-0.041
Mof_H 	H 	0.47402	0.23848	0.63979	0.075
Mof_C 	C 	0.4527	0.0891	0.6647	0.334
Mof_O 	O 	0.4814	0.1104	0.6324	-0.394
Mof_O 	O 	0.4425	0.0302	0.6821	-0.419
Mof_C 	C 	0.2338	0.0522	0.9284	-0.169
Mof_C 	C 	0.2232	0.1129	0.9438	0.106
Mof_H 	H 	0.20713	0.10529	0.96761	0.021
Mof_C 	C 	0.2642	0.0677	0.895	-0.003
Mof_H 	H 	0.27738	0.02987	0.88523	0.04
Mof_C 	C 	0.2096	0.2353	0.9458	0.434
Mof_C 	C 	0.2094	0.9763	0.9447	0.441
Mof_C 	C 	0.2587	0.1939	0.8942	-0.007
Mof_H 	H 	0.26399	0.24084	0.88294	0.049
Mof_C 	C 	0.279	0.1383	0.8725	0.06
Mof_O 	O 	0.1844	0.9616	0.9741	-0.455
Mof_O 	O 	0.1844	0.2235	0.9746	-0.466
Mof_O 	O 	0.2252	0.9263	0.9267	-0.421
Mof_O 	O 	0.222	0.2985	0.9259	-0.42
Mof_C 	C 	0.2337	0.182	0.9282	-0.157
Mof_N 	N 	0.3598	0.1795	0.7691	-0.098
Mof_N 	N 	0.3016	0.1502	0.841	-0.155
Mof_C 	C 	0.3069	0.2099	0.7799	-0.049
Mof_H 	H 	0.2522	0.17504	0.76988	0.041
Mof_H 	H 	0.32825	0.26552	0.77061	0.041
Mof_C 	C 	0.2999	0.2118	0.8182	-0.045
Mof_H 	H 	0.24836	0.211	0.82312	0.039
Mof_H 	H 	0.34434	0.26537	0.82612	0.049
Mof_C 	C 	0.3028	0.0867	0.8192	0.237
Mof_H 	H 	0.36249	0.10895	0.82213	-0.014
Mof_C 	C 	0.28359	0.99659	0.8155	-0.697
Mof_H 	H 	0.27637	0.97234	0.83871	0.232
Mof_H 	H 	0.23367	0.96544	0.80191	0.226
Mof_H 	H 	0.32875	0.9957	0.80358	0.228
Mof_C 	C 	0.3081	0.0967	0.7811	-0.17
Mof_H 	H 	0.32888	0.06238	0.77126	0.078
Mof_H 	H 	0.25274	0.07644	0.77174	0.076
Mof_Cu	Cu	0.1899	0.81002	0.94136	0.898
Mof_Cu	Cu	0.1434	0.85656	0.99936	0.906
Mof_C 	C 	0.11937	0.69713	0.99693	0.271
Mof_C 	C 	0.05607	0.52643	0.06823	0.137
Mof_C 	C 	0.10147	0.61493	0.01643	0.056
Mof_O 	O 	0.11137	0.74733	0.01593	-0.384
Mof_C 	C 	0.10027	0.48643	0.01613	0.05
Mof_C 	C 	0.07237	0.59943	0.05053	-0.144
Mof_H 	H 	0.06329	0.63812	0.06226	0.096
Mof_O 	O 	0.14907	0.70483	0.96553	-0.391
Mof_C 	C 	0.06927	0.47133	0.05003	-0.147
Mof_H 	H 	0.05691	0.4216	0.06097	0.092
Mof_C 	C 	0.11947	0.56083	0.99613	-0.123
Mof_H 	H 	0.14069	0.57181	0.97312	0.1
Mof_C 	C 	0.11937	0.42243	0.99803	0.282
Mof_O 	O 	0.14807	0.44373	0.96573	-0.386
Mof_O 	O 	0.10917	0.36353	0.01543	-0.39
Mof_C 	C 	0.90047	0.38553	0.26173	-0.168
Mof_C 	C 	0.88987	0.44623	0.27713	0.104
Mof_H 	H 	0.8738	0.43862	0.30094	0.024
Mof_C 	C 	0.93087	0.40103	0.22833	-0.003
Mof_H 	H 	0.94405	0.3632	0.21856	0.041
Mof_C 	C 	0.87627	0.56863	0.27913	0.432
Mof_C 	C 	0.87607	0.30963	0.27803	0.441
Mof_C 	C 	0.92537	0.52723	0.22753	-0.008
Mof_H 	H 	0.93066	0.57417	0.21627	0.05
Mof_C 	C 	0.94567	0.47163	0.20583	0.061
Mof_O 	O 	0.85107	0.29493	0.30743	-0.45
Mof_O 	O 	0.85107	0.55683	0.30793	-0.461
Mof_O 	O 	0.89187	0.25963	0.26003	-0.419
Mof_O 	O 	0.88867	0.63183	0.25923	-0.418
Mof_C 	C 	0.90037	0.51533	0.26153	-0.154
Mof_N 	N 	0.02647	0.51283	0.10243	-0.105
Mof_N 	N 	0.96827	0.48353	0.17433	-0.155
Mof_C 	C 	0.97357	0.54323	0.11323	-0.047
Mof_H 	H 	0.91887	0.50837	0.10321	0.042
Mof_H 	H 	0.99492	0.59885	0.10394	0.041
Mof_C 	C 	0.96657	0.54513	0.15153	-0.045
Mof_H 	H 	0.91503	0.54433	0.15645	0.04
Mof_H 	H 	0.01101	0.5987	0.15945	0.049
Mof_C 	C 	0.96947	0.42003	0.15253	0.237
Mof_H 	H 	0.02916	0.44228	0.15546	-0.014
Mof_C 	C 	0.95026	0.32992	0.14883	-0.699
Mof_H 	H 	0.94304	0.30567	0.17204	0.234
Mof_H 	H 	0.90034	0.29877	0.13524	0.228
Mof_H 	H 	0.99542	0.32903	0.13691	0.23
Mof_C 	C 	0.97477	0.43003	0.11443	-0.168
Mof_H 	H 	0.99555	0.39571	0.10459	0.077
Mof_H 	H 	0.91941	0.40977	0.10507	0.076
Mof_Cu	Cu	0.85656	0.14336	0.2747	0.9
Mof_Cu	Cu	0.81006	0.1899	0.3327	0.914
Mof_C 	C 	0.78603	0.03047	0.33027	0.322
Mof_C 	C 	0.72273	0.85977	0.40157	0.103
Mof_C 	C 	0.76813	0.94827	0.34977	-0.013
Mof_O 	O 	0.77803	0.08067	0.34927	-0.41
Mof_C 	C 	0.76693	0.81977	0.34947	-0.019
Mof_C 	C 	0.73903	0.93277	0.38387	-0.098
Mof_H 	H 	0.72995	0.97146	0.3956	0.079
Mof_O 	O 	0.81573	0.03817	0.29887	-0.399
Mof_C 	C 	0.73593	0.80467	0.38337	-0.099
Mof_H 	H 	0.72357	0.75494	0.39431	0.075
Mof_C 	C 	0.78613	0.89417	0.32947	-0.04
Mof_H 	H 	0.80735	0.90515	0.30646	0.074
Mof_C 	C 	0.78603	0.75577	0.33137	0.334
Mof_O 	O 	0.81473	0.77707	0.29907	-0.394
Mof_O 	O 	0.77583	0.69687	0.34877	-0.419
Mof_C 	C 	0.56713	0.71887	0.59507	-0.168
Mof_C 	C 	0.55653	0.77957	0.61047	0.105
Mof_H 	H 	0.54046	0.77196	0.63428	0.023
Mof_C 	C 	0.59753	0.73437	0.56167	-0.003
Mof_H 	H 	0.61071	0.69654	0.5519	0.04
Mof_C 	C 	0.54293	0.90197	0.61247	0.433
Mof_C 	C 	0.54273	0.64297	0.61137	0.441
Mof_C 	C 	0.59203	0.86057	0.56087	-0.007
Mof_H 	H 	0.59732	0.90751	0.54961	0.05
Mof_C 	C 	0.61233	0.80497	0.53917	0.061
Mof_O 	O 	0.51773	0.62827	0.64077	-0.451
Mof_O 	O 	0.51773	0.89017	0.64127	-0.461
Mof_O 	O 	0.55853	0.59297	0.59337	-0.42
Mof_O 	O 	0.55533	0.96517	0.59257	-0.419
Mof_C 	C 	0.56703	0.84867	0.59487	-0.154
Mof_N 	N 	0.69313	0.84617	0.43577	-0.098
Mof_N 	N 	0.63493	0.81687	0.50767	-0.155
Mof_C 	C 	0.64023	0.87657	0.44657	-0.049
Mof_H 	H 	0.58553	0.84171	0.43655	0.041
Mof_H 	H 	0.66158	0.93219	0.43728	0.041
Mof_C 	C 	0.63323	0.87847	0.48487	-0.046
Mof_H 	H 	0.58169	0.87767	0.48979	0.039
Mof_H 	H 	0.67767	0.93204	0.49279	0.05
Mof_C 	C 	0.63613	0.75337	0.48587	0.235
Mof_H 	H 	0.69582	0.77562	0.4888	-0.013
Mof_C 	C 	0.61692	0.66326	0.48217	-0.695
Mof_H 	H 	0.6097	0.63901	0.50538	0.233
Mof_H 	H 	0.567	0.63211	0.46858	0.226
Mof_H 	H 	0.66208	0.66237	0.47025	0.228
Mof_C 	C 	0.64143	0.76337	0.44777	-0.169
Mof_H 	H 	0.66221	0.72905	0.43793	0.078
Mof_H 	H 	0.58607	0.74311	0.43841	0.076
_end
