data_functionalizedCrystal
_audit_creation_method	'EQeq! by Chris Wilmer'
_symmetry_space_group_name_H-M	'P1'
_symmetry_Int_Tables_number	1
_symmetry_cell_setting	triclinic
loop_
_symmetry_equiv_pos_as_xyz
  x,y,z
_cell_length_a	42.145
_cell_length_b	14.296
_cell_length_c	13.771
_cell_angle_alpha	90
_cell_angle_beta	101.683
_cell_angle_gamma	90
loop_
_atom_site_label
_atom_site_type_symbol
_atom_site_fract_x
_atom_site_fract_y
_atom_site_fract_z
_atom_site_charge
Mof_C 	C 	0.25235	0.0857	0.0799	0.455
Mof_C 	C 	0.27319	0.0122	0.1414	-0.175
Mof_C 	C 	0.3051	0.001	0.1326	0.04
Mof_H 	H 	0.3136	0.0393	0.0896	0.017
Mof_C 	C 	0.3247	0.933	0.1876	-0.065
Mof_C 	C 	0.31082	0.8788	0.2525	0.043
Mof_H 	H 	0.3234	0.8334	0.2905	0.029
Mof_C 	C 	0.27907	0.89	0.2624	-0.173
Mof_C 	C 	0.25996	0.9551	0.204	0.099
Mof_H 	H 	0.2382	0.9606	0.2067	0.004
Mof_C 	C 	0.26584	0.8299	0.3366	0.482
Mof_C 	C 	0.35836	0.9171	0.176	0.056
Mof_C 	C 	0.37833	0.9875	0.1537	-0.091
Mof_H 	H 	0.3703	0.0483	0.1469	0.065
Mof_C 	C 	0.40938	0.9715	0.1413	-0.029
Mof_H 	H 	0.422	0.0216	0.1288	0.039
Mof_C 	C 	0.42207	0.8824	0.1469	-0.01
Mof_C 	C 	0.40292	0.8098	0.1696	-0.027
Mof_H 	H 	0.4109	0.749	0.1744	0.036
Mof_C 	C 	0.37195	0.8272	0.185	-0.087
Mof_H 	H 	0.3598	0.7777	0.2018	0.062
Mof_C 	C 	0.45611	0.8616	0.1326	0.035
Mof_C 	C 	0.47662	0.9356	0.1227	-0.077
Mof_H 	H 	0.4697	0.9969	0.1274	0.055
Mof_C 	C 	0.50747	0.918	0.1056	-0.029
Mof_H 	H 	0.5212	0.9675	0.099	0.038
Mof_C 	C 	0.51781	0.8264	0.0986	-0.018
Mof_C 	C 	0.4973	0.7524	0.1085	-0.029
Mof_H 	H 	0.5042	0.6911	0.1038	0.034
Mof_C 	C 	0.46645	0.77	0.1255	-0.076
Mof_H 	H 	0.4527	0.7205	0.1322	0.052
Mof_C 	C 	0.55155	0.8093	0.0778	0.073
Mof_C 	C 	0.57349	0.8805	0.0732	-0.134
Mof_H 	H 	0.5682	0.9416	0.0867	0.076
Mof_C 	C 	0.60308	0.8622	0.0489	0.054
Mof_H 	H 	0.617	0.9116	0.0436	0.022
Mof_C 	C 	0.61225	0.7726	0.0324	-0.127
Mof_C 	C 	0.59122	0.7003	0.0439	0.05
Mof_H 	H 	0.5977	0.6387	0.0383	0.018
Mof_C 	C 	0.56088	0.7179	0.0635	-0.134
Mof_H 	H 	0.5467	0.6687	0.0672	0.071
Mof_C 	C 	0.64392	0.7536	0.0032	0.347
Mof_O 	O 	0.22238	0.0737	0.0563	-0.476
Mof_O 	O 	0.26545	0.1567	0.0517	-0.595
Mof_O 	O 	0.23724	0.8451	0.3457	-0.537
Mof_O 	O 	0.28434	0.7694	0.3832	-0.497
Mof_O 	O 	0.65464	0.6712	0.0102	-0.451
Mof_O 	O 	0.65931	0.8174	0.9731	-0.435
Mof_Tb	Tb	0.20398	0.20869	0.95456	1.921
Mof_C 	C 	0.75235	0.5857	0.0799	0.454
Mof_C 	C 	0.77319	0.5122	0.1414	-0.177
Mof_C 	C 	0.8051	0.501	0.1326	0.038
Mof_H 	H 	0.8136	0.5393	0.0896	0.016
Mof_C 	C 	0.8247	0.433	0.1876	-0.064
Mof_C 	C 	0.81082	0.3788	0.2525	0.043
Mof_H 	H 	0.8234	0.3334	0.2905	0.029
Mof_C 	C 	0.77907	0.39	0.2624	-0.173
Mof_C 	C 	0.75996	0.4551	0.204	0.101
Mof_H 	H 	0.7382	0.4606	0.2067	0.004
Mof_C 	C 	0.76584	0.3299	0.3366	0.482
Mof_C 	C 	0.85836	0.4171	0.176	0.056
Mof_C 	C 	0.87833	0.4875	0.1537	-0.089
Mof_H 	H 	0.8703	0.5483	0.1469	0.064
Mof_C 	C 	0.90938	0.4715	0.1413	-0.028
Mof_H 	H 	0.922	0.5216	0.1288	0.037
Mof_C 	C 	0.92207	0.3824	0.1469	-0.01
Mof_C 	C 	0.90292	0.3098	0.1696	-0.027
Mof_H 	H 	0.9109	0.249	0.1744	0.036
Mof_C 	C 	0.87195	0.3272	0.185	-0.086
Mof_H 	H 	0.8598	0.2777	0.2018	0.062
Mof_C 	C 	0.95611	0.3616	0.1326	0.035
Mof_C 	C 	0.97662	0.4356	0.1227	-0.077
Mof_H 	H 	0.9697	0.4969	0.1274	0.055
Mof_C 	C 	0.00747	0.418	0.1056	-0.029
Mof_H 	H 	0.0212	0.4675	0.099	0.038
Mof_C 	C 	0.01781	0.3264	0.0986	-0.018
Mof_C 	C 	0.9973	0.2524	0.1085	-0.029
Mof_H 	H 	0.0042	0.1911	0.1038	0.034
Mof_C 	C 	0.96645	0.27	0.1255	-0.076
Mof_H 	H 	0.9527	0.2205	0.1322	0.052
Mof_C 	C 	0.05155	0.3093	0.0778	0.073
Mof_C 	C 	0.07349	0.3805	0.0732	-0.134
Mof_H 	H 	0.0682	0.4416	0.0867	0.076
Mof_C 	C 	0.10308	0.3622	0.0489	0.054
Mof_H 	H 	0.117	0.4116	0.0436	0.022
Mof_C 	C 	0.11225	0.2726	0.0324	-0.127
Mof_C 	C 	0.09122	0.2003	0.0439	0.051
Mof_H 	H 	0.0977	0.1387	0.0383	0.018
Mof_C 	C 	0.06088	0.2179	0.0635	-0.134
Mof_H 	H 	0.0467	0.1687	0.0672	0.071
Mof_C 	C 	0.14392	0.2536	0.0032	0.349
Mof_O 	O 	0.72238	0.5737	0.0563	-0.477
Mof_O 	O 	0.76545	0.6567	0.0517	-0.595
Mof_O 	O 	0.73724	0.3451	0.3457	-0.537
Mof_O 	O 	0.78434	0.2694	0.3832	-0.496
Mof_O 	O 	0.15464	0.1712	0.0102	-0.451
Mof_O 	O 	0.15931	0.3174	0.9731	-0.436
Mof_Tb	Tb	0.70398	0.70869	0.95456	1.924
Mof_C 	C 	0.74765	0.0857	0.4201	0.454
Mof_C 	C 	0.72681	0.0122	0.3586	-0.177
Mof_C 	C 	0.6949	0.001	0.3674	0.038
Mof_H 	H 	0.6864	0.0393	0.4104	0.016
Mof_C 	C 	0.6753	0.933	0.3124	-0.065
Mof_C 	C 	0.68918	0.8788	0.2475	0.043
Mof_H 	H 	0.6766	0.8334	0.2095	0.029
Mof_C 	C 	0.72093	0.89	0.2376	-0.173
Mof_C 	C 	0.74004	0.9551	0.296	0.1
Mof_H 	H 	0.7618	0.9606	0.2933	0.004
Mof_C 	C 	0.73416	0.8299	0.1634	0.482
Mof_C 	C 	0.64164	0.9171	0.324	0.056
Mof_C 	C 	0.62167	0.9875	0.3463	-0.09
Mof_H 	H 	0.6297	0.0483	0.3531	0.065
Mof_C 	C 	0.59062	0.9715	0.3587	-0.028
Mof_H 	H 	0.578	0.0216	0.3712	0.038
Mof_C 	C 	0.57793	0.8824	0.3531	-0.01
Mof_C 	C 	0.59708	0.8098	0.3304	-0.026
Mof_H 	H 	0.5891	0.749	0.3256	0.036
Mof_C 	C 	0.62805	0.8272	0.315	-0.087
Mof_H 	H 	0.6402	0.7777	0.2982	0.062
Mof_C 	C 	0.54389	0.8616	0.3674	0.035
Mof_C 	C 	0.52338	0.9356	0.3773	-0.077
Mof_H 	H 	0.5303	0.9969	0.3726	0.055
Mof_C 	C 	0.49253	0.918	0.3944	-0.029
Mof_H 	H 	0.4788	0.9675	0.401	0.038
Mof_C 	C 	0.48219	0.8264	0.4014	-0.018
Mof_C 	C 	0.5027	0.7524	0.3915	-0.029
Mof_H 	H 	0.4958	0.6911	0.3962	0.033
Mof_C 	C 	0.53355	0.77	0.3745	-0.076
Mof_H 	H 	0.5473	0.7205	0.3678	0.052
Mof_C 	C 	0.44845	0.8093	0.4222	0.073
Mof_C 	C 	0.42651	0.8805	0.4268	-0.134
Mof_H 	H 	0.4318	0.9416	0.4133	0.076
Mof_C 	C 	0.39692	0.8622	0.4511	0.054
Mof_H 	H 	0.383	0.9116	0.4564	0.022
Mof_C 	C 	0.38775	0.7726	0.4676	-0.127
Mof_C 	C 	0.40878	0.7003	0.4561	0.05
Mof_H 	H 	0.4023	0.6387	0.4617	0.018
Mof_C 	C 	0.43912	0.7179	0.4365	-0.134
Mof_H 	H 	0.4533	0.6687	0.4328	0.071
Mof_C 	C 	0.35608	0.7536	0.4968	0.348
Mof_O 	O 	0.77762	0.0737	0.4437	-0.477
Mof_O 	O 	0.73455	0.1567	0.4483	-0.595
Mof_O 	O 	0.76276	0.8451	0.1543	-0.537
Mof_O 	O 	0.71566	0.7694	0.1168	-0.497
Mof_O 	O 	0.34536	0.6712	0.4898	-0.451
Mof_O 	O 	0.34069	0.8174	0.5269	-0.436
Mof_Tb	Tb	0.79602	0.20869	0.54544	1.923
Mof_C 	C 	0.24765	0.5857	0.4201	0.454
Mof_C 	C 	0.22681	0.5122	0.3586	-0.177
Mof_C 	C 	0.1949	0.501	0.3674	0.038
Mof_H 	H 	0.1864	0.5393	0.4104	0.016
Mof_C 	C 	0.1753	0.433	0.3124	-0.064
Mof_C 	C 	0.18918	0.3788	0.2475	0.043
Mof_H 	H 	0.1766	0.3334	0.2095	0.029
Mof_C 	C 	0.22093	0.39	0.2376	-0.173
Mof_C 	C 	0.24004	0.4551	0.296	0.101
Mof_H 	H 	0.2618	0.4606	0.2933	0.004
Mof_C 	C 	0.23416	0.3299	0.1634	0.482
Mof_C 	C 	0.14164	0.4171	0.324	0.056
Mof_C 	C 	0.12167	0.4875	0.3463	-0.089
Mof_H 	H 	0.1297	0.5483	0.3531	0.064
Mof_C 	C 	0.09062	0.4715	0.3587	-0.028
Mof_H 	H 	0.078	0.5216	0.3712	0.037
Mof_C 	C 	0.07793	0.3824	0.3531	-0.01
Mof_C 	C 	0.09708	0.3098	0.3304	-0.027
Mof_H 	H 	0.0891	0.249	0.3256	0.036
Mof_C 	C 	0.12805	0.3272	0.315	-0.087
Mof_H 	H 	0.1402	0.2777	0.2982	0.062
Mof_C 	C 	0.04389	0.3616	0.3674	0.035
Mof_C 	C 	0.02338	0.4356	0.3773	-0.077
Mof_H 	H 	0.0303	0.4969	0.3726	0.055
Mof_C 	C 	0.99253	0.418	0.3944	-0.029
Mof_H 	H 	0.9788	0.4675	0.401	0.038
Mof_C 	C 	0.98219	0.3264	0.4014	-0.018
Mof_C 	C 	0.0027	0.2524	0.3915	-0.029
Mof_H 	H 	0.9958	0.1911	0.3962	0.033
Mof_C 	C 	0.03355	0.27	0.3745	-0.076
Mof_H 	H 	0.0473	0.2205	0.3678	0.052
Mof_C 	C 	0.94845	0.3093	0.4222	0.073
Mof_C 	C 	0.92651	0.3805	0.4268	-0.134
Mof_H 	H 	0.9318	0.4416	0.4133	0.076
Mof_C 	C 	0.89692	0.3622	0.4511	0.054
Mof_H 	H 	0.883	0.4116	0.4564	0.022
Mof_C 	C 	0.88775	0.2726	0.4676	-0.127
Mof_C 	C 	0.90878	0.2003	0.4561	0.05
Mof_H 	H 	0.9023	0.1387	0.4617	0.018
Mof_C 	C 	0.93912	0.2179	0.4365	-0.134
Mof_H 	H 	0.9533	0.1687	0.4328	0.071
Mof_C 	C 	0.85608	0.2536	0.4968	0.348
Mof_O 	O 	0.27762	0.5737	0.4437	-0.477
Mof_O 	O 	0.23455	0.6567	0.4483	-0.595
Mof_O 	O 	0.26276	0.3451	0.1543	-0.537
Mof_O 	O 	0.21566	0.2694	0.1168	-0.496
Mof_O 	O 	0.84536	0.1712	0.4898	-0.451
Mof_O 	O 	0.84069	0.3174	0.5269	-0.436
Mof_Tb	Tb	0.29602	0.70869	0.54544	1.923
Mof_C 	C 	0.74765	0.9143	0.9201	0.454
Mof_C 	C 	0.72681	0.9878	0.8586	-0.176
Mof_C 	C 	0.6949	0.999	0.8674	0.039
Mof_H 	H 	0.6864	0.9607	0.9104	0.016
Mof_C 	C 	0.6753	0.067	0.8124	-0.065
Mof_C 	C 	0.68918	0.1212	0.7475	0.043
Mof_H 	H 	0.6766	0.1666	0.7095	0.029
Mof_C 	C 	0.72093	0.11	0.7376	-0.173
Mof_C 	C 	0.74004	0.0449	0.796	0.099
Mof_H 	H 	0.7618	0.0394	0.7933	0.004
Mof_C 	C 	0.73416	0.1701	0.6634	0.482
Mof_C 	C 	0.64164	0.0829	0.824	0.056
Mof_C 	C 	0.62167	0.0125	0.8463	-0.091
Mof_H 	H 	0.6297	0.9517	0.8531	0.065
Mof_C 	C 	0.59062	0.0285	0.8587	-0.029
Mof_H 	H 	0.578	0.9784	0.8712	0.039
Mof_C 	C 	0.57793	0.1176	0.8531	-0.01
Mof_C 	C 	0.59708	0.1902	0.8304	-0.027
Mof_H 	H 	0.5891	0.251	0.8256	0.036
Mof_C 	C 	0.62805	0.1728	0.815	-0.087
Mof_H 	H 	0.6402	0.2223	0.7982	0.062
Mof_C 	C 	0.54389	0.1384	0.8674	0.035
Mof_C 	C 	0.52338	0.0644	0.8773	-0.077
Mof_H 	H 	0.5303	0.0031	0.8726	0.055
Mof_C 	C 	0.49253	0.082	0.8944	-0.029
Mof_H 	H 	0.4788	0.0325	0.901	0.038
Mof_C 	C 	0.48219	0.1736	0.9014	-0.018
Mof_C 	C 	0.5027	0.2476	0.8915	-0.029
Mof_H 	H 	0.4958	0.3089	0.8962	0.034
Mof_C 	C 	0.53355	0.23	0.8745	-0.076
Mof_H 	H 	0.5473	0.2795	0.8678	0.052
Mof_C 	C 	0.44845	0.1907	0.9222	0.073
Mof_C 	C 	0.42651	0.1195	0.9268	-0.134
Mof_H 	H 	0.4318	0.0584	0.9133	0.076
Mof_C 	C 	0.39692	0.1378	0.9511	0.054
Mof_H 	H 	0.383	0.0884	0.9564	0.022
Mof_C 	C 	0.38775	0.2274	0.9676	-0.127
Mof_C 	C 	0.40878	0.2997	0.9561	0.05
Mof_H 	H 	0.4023	0.3613	0.9617	0.018
Mof_C 	C 	0.43912	0.2821	0.9365	-0.134
Mof_H 	H 	0.4533	0.3313	0.9328	0.071
Mof_C 	C 	0.35608	0.2464	0.9968	0.347
Mof_O 	O 	0.77762	0.9263	0.9437	-0.476
Mof_O 	O 	0.73455	0.8433	0.9483	-0.595
Mof_O 	O 	0.76276	0.1549	0.6543	-0.537
Mof_O 	O 	0.71566	0.2306	0.6168	-0.497
Mof_O 	O 	0.34536	0.3288	0.9898	-0.451
Mof_O 	O 	0.34069	0.1826	0.0269	-0.435
Mof_Tb	Tb	0.79602	0.79131	0.04544	1.921
Mof_C 	C 	0.24765	0.4143	0.9201	0.454
Mof_C 	C 	0.22681	0.4878	0.8586	-0.177
Mof_C 	C 	0.1949	0.499	0.8674	0.038
Mof_H 	H 	0.1864	0.4607	0.9104	0.016
Mof_C 	C 	0.1753	0.567	0.8124	-0.064
Mof_C 	C 	0.18918	0.6212	0.7475	0.043
Mof_H 	H 	0.1766	0.6666	0.7095	0.029
Mof_C 	C 	0.22093	0.61	0.7376	-0.173
Mof_C 	C 	0.24004	0.5449	0.796	0.101
Mof_H 	H 	0.2618	0.5394	0.7933	0.004
Mof_C 	C 	0.23416	0.6701	0.6634	0.482
Mof_C 	C 	0.14164	0.5829	0.824	0.056
Mof_C 	C 	0.12167	0.5125	0.8463	-0.089
Mof_H 	H 	0.1297	0.4517	0.8531	0.064
Mof_C 	C 	0.09062	0.5285	0.8587	-0.028
Mof_H 	H 	0.078	0.4784	0.8712	0.037
Mof_C 	C 	0.07793	0.6176	0.8531	-0.01
Mof_C 	C 	0.09708	0.6902	0.8304	-0.027
Mof_H 	H 	0.0891	0.751	0.8256	0.036
Mof_C 	C 	0.12805	0.6728	0.815	-0.086
Mof_H 	H 	0.1402	0.7223	0.7982	0.062
Mof_C 	C 	0.04389	0.6384	0.8674	0.035
Mof_C 	C 	0.02338	0.5644	0.8773	-0.077
Mof_H 	H 	0.0303	0.5031	0.8726	0.055
Mof_C 	C 	0.99253	0.582	0.8944	-0.029
Mof_H 	H 	0.9788	0.5325	0.901	0.038
Mof_C 	C 	0.98219	0.6736	0.9014	-0.018
Mof_C 	C 	0.0027	0.7476	0.8915	-0.029
Mof_H 	H 	0.9958	0.8089	0.8962	0.034
Mof_C 	C 	0.03355	0.73	0.8745	-0.076
Mof_H 	H 	0.0473	0.7795	0.8678	0.052
Mof_C 	C 	0.94845	0.6907	0.9222	0.073
Mof_C 	C 	0.92651	0.6195	0.9268	-0.134
Mof_H 	H 	0.9318	0.5584	0.9133	0.076
Mof_C 	C 	0.89692	0.6378	0.9511	0.054
Mof_H 	H 	0.883	0.5884	0.9564	0.022
Mof_C 	C 	0.88775	0.7274	0.9676	-0.127
Mof_C 	C 	0.90878	0.7997	0.9561	0.051
Mof_H 	H 	0.9023	0.8613	0.9617	0.018
Mof_C 	C 	0.93912	0.7821	0.9365	-0.134
Mof_H 	H 	0.9533	0.8313	0.9328	0.071
Mof_C 	C 	0.85608	0.7464	0.9968	0.349
Mof_O 	O 	0.27762	0.4263	0.9437	-0.477
Mof_O 	O 	0.23455	0.3433	0.9483	-0.595
Mof_O 	O 	0.26276	0.6549	0.6543	-0.537
Mof_O 	O 	0.21566	0.7306	0.6168	-0.496
Mof_O 	O 	0.84536	0.8288	0.9898	-0.451
Mof_O 	O 	0.84069	0.6826	0.0269	-0.436
Mof_Tb	Tb	0.29602	0.29131	0.04544	1.924
Mof_C 	C 	0.25235	0.9143	0.5799	0.454
Mof_C 	C 	0.27319	0.9878	0.6414	-0.177
Mof_C 	C 	0.3051	0.999	0.6326	0.038
Mof_H 	H 	0.3136	0.9607	0.5896	0.016
Mof_C 	C 	0.3247	0.067	0.6876	-0.065
Mof_C 	C 	0.31082	0.1212	0.7525	0.043
Mof_H 	H 	0.3234	0.1666	0.7905	0.029
Mof_C 	C 	0.27907	0.11	0.7624	-0.173
Mof_C 	C 	0.25996	0.0449	0.704	0.1
Mof_H 	H 	0.2382	0.0394	0.7067	0.004
Mof_C 	C 	0.26584	0.1701	0.8366	0.482
Mof_C 	C 	0.35836	0.0829	0.676	0.056
Mof_C 	C 	0.37833	0.0125	0.6537	-0.09
Mof_H 	H 	0.3703	0.9517	0.6469	0.065
Mof_C 	C 	0.40938	0.0285	0.6413	-0.028
Mof_H 	H 	0.422	0.9784	0.6288	0.038
Mof_C 	C 	0.42207	0.1176	0.6469	-0.01
Mof_C 	C 	0.40292	0.1902	0.6696	-0.026
Mof_H 	H 	0.4109	0.251	0.6744	0.036
Mof_C 	C 	0.37195	0.1728	0.685	-0.087
Mof_H 	H 	0.3598	0.2223	0.7018	0.062
Mof_C 	C 	0.45611	0.1384	0.6326	0.035
Mof_C 	C 	0.47662	0.0644	0.6227	-0.077
Mof_H 	H 	0.4697	0.0031	0.6274	0.055
Mof_C 	C 	0.50747	0.082	0.6056	-0.029
Mof_H 	H 	0.5212	0.0325	0.599	0.038
Mof_C 	C 	0.51781	0.1736	0.5986	-0.018
Mof_C 	C 	0.4973	0.2476	0.6085	-0.029
Mof_H 	H 	0.5042	0.3089	0.6038	0.033
Mof_C 	C 	0.46645	0.23	0.6255	-0.076
Mof_H 	H 	0.4527	0.2795	0.6322	0.052
Mof_C 	C 	0.55155	0.1907	0.5778	0.073
Mof_C 	C 	0.57349	0.1195	0.5732	-0.134
Mof_H 	H 	0.5682	0.0584	0.5867	0.076
Mof_C 	C 	0.60308	0.1378	0.5489	0.054
Mof_H 	H 	0.617	0.0884	0.5436	0.022
Mof_C 	C 	0.61225	0.2274	0.5324	-0.127
Mof_C 	C 	0.59122	0.2997	0.5439	0.05
Mof_H 	H 	0.5977	0.3613	0.5383	0.018
Mof_C 	C 	0.56088	0.2821	0.5635	-0.134
Mof_H 	H 	0.5467	0.3313	0.5672	0.071
Mof_C 	C 	0.64392	0.2464	0.5032	0.348
Mof_O 	O 	0.22238	0.9263	0.5563	-0.477
Mof_O 	O 	0.26545	0.8433	0.5517	-0.595
Mof_O 	O 	0.23724	0.1549	0.8457	-0.537
Mof_O 	O 	0.28434	0.2306	0.8832	-0.497
Mof_O 	O 	0.65464	0.3288	0.5102	-0.451
Mof_O 	O 	0.65931	0.1826	0.4731	-0.436
Mof_Tb	Tb	0.20398	0.79131	0.45456	1.923
Mof_C 	C 	0.75235	0.4143	0.5799	0.454
Mof_C 	C 	0.77319	0.4878	0.6414	-0.177
Mof_C 	C 	0.8051	0.499	0.6326	0.038
Mof_H 	H 	0.8136	0.4607	0.5896	0.016
Mof_C 	C 	0.8247	0.567	0.6876	-0.064
Mof_C 	C 	0.81082	0.6212	0.7525	0.043
Mof_H 	H 	0.8234	0.6666	0.7905	0.029
Mof_C 	C 	0.77907	0.61	0.7624	-0.173
Mof_C 	C 	0.75996	0.5449	0.704	0.101
Mof_H 	H 	0.7382	0.5394	0.7067	0.004
Mof_C 	C 	0.76584	0.6701	0.8366	0.482
Mof_C 	C 	0.85836	0.5829	0.676	0.056
Mof_C 	C 	0.87833	0.5125	0.6537	-0.089
Mof_H 	H 	0.8703	0.4517	0.6469	0.064
Mof_C 	C 	0.90938	0.5285	0.6413	-0.028
Mof_H 	H 	0.922	0.4784	0.6288	0.037
Mof_C 	C 	0.92207	0.6176	0.6469	-0.01
Mof_C 	C 	0.90292	0.6902	0.6696	-0.027
Mof_H 	H 	0.9109	0.751	0.6744	0.036
Mof_C 	C 	0.87195	0.6728	0.685	-0.087
Mof_H 	H 	0.8598	0.7223	0.7018	0.062
Mof_C 	C 	0.95611	0.6384	0.6326	0.035
Mof_C 	C 	0.97662	0.5644	0.6227	-0.077
Mof_H 	H 	0.9697	0.5031	0.6274	0.055
Mof_C 	C 	0.00747	0.582	0.6056	-0.029
Mof_H 	H 	0.0212	0.5325	0.599	0.038
Mof_C 	C 	0.01781	0.6736	0.5986	-0.018
Mof_C 	C 	0.9973	0.7476	0.6085	-0.029
Mof_H 	H 	0.0042	0.8089	0.6038	0.033
Mof_C 	C 	0.96645	0.73	0.6255	-0.076
Mof_H 	H 	0.9527	0.7795	0.6322	0.052
Mof_C 	C 	0.05155	0.6907	0.5778	0.073
Mof_C 	C 	0.07349	0.6195	0.5732	-0.134
Mof_H 	H 	0.0682	0.5584	0.5867	0.076
Mof_C 	C 	0.10308	0.6378	0.5489	0.054
Mof_H 	H 	0.117	0.5884	0.5436	0.022
Mof_C 	C 	0.11225	0.7274	0.5324	-0.127
Mof_C 	C 	0.09122	0.7997	0.5439	0.05
Mof_H 	H 	0.0977	0.8613	0.5383	0.018
Mof_C 	C 	0.06088	0.7821	0.5635	-0.134
Mof_H 	H 	0.0467	0.8313	0.5672	0.071
Mof_C 	C 	0.14392	0.7464	0.5032	0.348
Mof_O 	O 	0.72238	0.4263	0.5563	-0.477
Mof_O 	O 	0.76545	0.3433	0.5517	-0.595
Mof_O 	O 	0.73724	0.6549	0.8457	-0.537
Mof_O 	O 	0.78434	0.7306	0.8832	-0.496
Mof_O 	O 	0.15464	0.8288	0.5102	-0.451
Mof_O 	O 	0.15931	0.6826	0.4731	-0.436
Mof_Tb	Tb	0.70398	0.29131	0.45456	1.923
_end
