# CIF file generated by openbabel 3.1.0, see https://openbabel.org
data_I
_chemical_name_common 'image0'
_cell_length_a 8.861
_cell_length_b 18.624
_cell_length_c 9.329
_cell_angle_alpha 90
_cell_angle_beta 118.27
_cell_angle_gamma 90
_space_group_name_H-M_alt 'P 1'
_space_group_name_Hall 'P 1'
loop_
    _symmetry_equiv_pos_as_xyz
    x,y,z
loop_
    _atom_site_label
    _atom_site_type_symbol
    _atom_site_fract_x
    _atom_site_fract_y
    _atom_site_fract_z
    _atom_site_occupancy
    Ga1      Ga       0.49460    0.22010    0.85540    1.000
    Ga2      Ga       0.39970    0.44190    0.87710    1.000
    Ga3      Ga       0.98720    0.17940    0.81610    1.000
    P1       P        0.21990    0.09870    0.69960    1.000
    P2       P        0.23900    0.30650    0.95230    1.000
    P3       P        0.88090    0.16280    0.09560    1.000
    F1       F        0.57500    0.51370    0.91410    1.000
    O1       O        0.70390    0.19790    0.02020    1.000
    O2       O        0.15500    0.12320    0.81920    1.000
    O3       O        0.22440    0.37800    0.86780    1.000
    O4       O        0.28440    0.31990    0.13070    1.000
    O5       O        0.88530    0.09330    0.18110    1.000
    O6       O        0.26490    0.01800    0.72440    1.000
    O7       O        0.39070    0.13860    0.74610    1.000
    O8       O        0.09080    0.11800    0.52500    1.000
    O9       O        0.01040    0.21750    0.21370    1.000
    O10      O        0.06210    0.27140    0.86740    1.000
    O11      O        0.93270    0.14350    0.96540    1.000
    O12      O        0.37470    0.25630    0.95200    1.000
    Ga4      Ga       0.00540    0.72010    0.64460    1.000
    Ga5      Ga       0.10030    0.94190    0.62290    1.000
    Ga6      Ga       0.51280    0.67940    0.68390    1.000
    P4       P        0.28010    0.59870    0.80040    1.000
    P5       P        0.26100    0.80650    0.54770    1.000
    P6       P        0.61910    0.66280    0.40440    1.000
    F2       F        0.92500    0.01370    0.58590    1.000
    O13      O        0.79610    0.69790    0.47980    1.000
    O14      O        0.34500    0.62320    0.68080    1.000
    O15      O        0.27560    0.87800    0.63220    1.000
    O16      O        0.21560    0.81990    0.36930    1.000
    O17      O        0.61470    0.59330    0.31890    1.000
    O18      O        0.23510    0.51800    0.77560    1.000
    O19      O        0.10930    0.63860    0.75390    1.000
    O20      O        0.40920    0.61800    0.97500    1.000
    O21      O        0.48960    0.71750    0.28630    1.000
    O22      O        0.43790    0.77140    0.63260    1.000
    O23      O        0.56730    0.64350    0.53460    1.000
    O24      O        0.12530    0.75630    0.54800    1.000
    Ga7      Ga       0.50540    0.77990    0.14460    1.000
    Ga8      Ga       0.60030    0.55810    0.12290    1.000
    Ga9      Ga       0.01280    0.82060    0.18390    1.000
    P7       P        0.78010    0.90130    0.30040    1.000
    P8       P        0.76100    0.69350    0.04770    1.000
    P9       P        0.11910    0.83720    0.90440    1.000
    F3       F        0.42500    0.48630    0.08590    1.000
    O25      O        0.29610    0.80210    0.97980    1.000
    O26      O        0.84500    0.87680    0.18080    1.000
    O27      O        0.77560    0.62200    0.13220    1.000
    O28      O        0.71560    0.68010    0.86930    1.000
    O29      O        0.11470    0.90670    0.81890    1.000
    O30      O        0.73510    0.98200    0.27560    1.000
    O31      O        0.60930    0.86140    0.25390    1.000
    O32      O        0.90920    0.88200    0.47500    1.000
    O33      O        0.98960    0.78250    0.78630    1.000
    O34      O        0.93790    0.72860    0.13260    1.000
    O35      O        0.06730    0.85650    0.03460    1.000
    O36      O        0.62530    0.74370    0.04800    1.000
    Ga10     Ga       0.99460    0.27990    0.35540    1.000
    Ga11     Ga       0.89970    0.05810    0.37710    1.000
    Ga12     Ga       0.48720    0.32060    0.31610    1.000
    P10      P        0.71990    0.40130    0.19960    1.000
    P11      P        0.73900    0.19350    0.45230    1.000
    P12      P        0.38090    0.33720    0.59560    1.000
    F4       F        0.07500    0.98630    0.41410    1.000
    O37      O        0.20390    0.30210    0.52020    1.000
    O38      O        0.65500    0.37680    0.31920    1.000
    O39      O        0.72440    0.12200    0.36780    1.000
    O40      O        0.78440    0.18010    0.63070    1.000
    O41      O        0.38530    0.40670    0.68110    1.000
    O42      O        0.76490    0.48200    0.22440    1.000
    O43      O        0.89070    0.36140    0.24610    1.000
    O44      O        0.59080    0.38200    0.02500    1.000
    O45      O        0.51040    0.28250    0.71370    1.000
    O46      O        0.56210    0.22860    0.36740    1.000
    O47      O        0.43270    0.35650    0.46540    1.000
    O48      O        0.87470    0.24370    0.45200    1.000
