data_functionalizedCrystal
_audit_creation_method	'EQeq! by Chris Wilmer'
_symmetry_space_group_name_H-M	'P1'
_symmetry_Int_Tables_number	1
_symmetry_cell_setting	triclinic
loop_
_symmetry_equiv_pos_as_xyz
  x,y,z
_cell_length_a	11.6692
_cell_length_b	12.2365
_cell_length_c	13.6586
_cell_angle_alpha	65.229
_cell_angle_beta	67.518
_cell_angle_gamma	88.435
loop_
_atom_site_label
_atom_site_type_symbol
_atom_site_fract_x
_atom_site_fract_y
_atom_site_fract_z
_atom_site_charge
Mof_Eu	Eu	0.43318	0.3301	0.32575	2.317
Mof_O 	O 	0.4768	0.5312	0.3092	-0.695
Mof_O 	O 	0.5374	0.689	0.3203	-0.506
Mof_O 	O 	0.4345	0.6559	0.5569	-0.675
Mof_O 	O 	0.4826	0.8315	0.551	-0.484
Mof_O 	O 	0.4973	0.8002	0.7791	-0.444
Mof_O 	O 	0.555	0.629	0.8716	-0.452
Mof_O 	O 	0.142	0.1657	0.3191	-0.31
Mof_O 	O 	0.2655	0.1731	0.4049	-0.507
Mof_O 	O 	0.2668	0.4423	0.2942	-0.537
Mof_O 	O 	0.0827	0.3671	0.3129	-0.549
Mof_H 	H 	0.1225	0.3153	0.2986	0.336
Mof_O 	O 	0.7166	0.5484	0.423	-0.587
Mof_O 	O 	0.7107	0.6918	0.4816	-0.545
Mof_C 	C 	0.5091	0.6436	0.2645	0.462
Mof_C 	C 	0.5075	0.7265	0.1473	-0.153
Mof_C 	C 	0.5039	0.852	0.1184	0.007
Mof_H 	H 	0.5016	0.879	0.1733	0.045
Mof_C 	C 	0.5035	0.9353	0.0128	-0.006
Mof_C 	C 	0.5096	0.8913	0.9324	-0.016
Mof_H 	H 	0.5122	0.9456	0.8591	0.055
Mof_C 	C 	0.5119	0.7678	0.9579	-0.092
Mof_C 	C 	0.5207	0.7291	0.8655	0.321
Mof_C 	C 	0.5105	0.685	0.0663	0.074
Mof_H 	H 	0.5115	0.603	0.0841	-0.007
Mof_C 	C 	0.424	0.7688	0.5281	0.441
Mof_C 	C 	0.3356	0.8219	0.4708	-0.142
Mof_C 	C 	0.318	0.9418	0.4429	0.077
Mof_H 	H 	0.3647	0.991	0.4555	0.033
Mof_C 	C 	0.2308	0.9887	0.3962	-0.121
Mof_C 	C 	0.2113	0.119	0.3712	0.421
Mof_C 	C 	0.1619	0.9166	0.3766	0.005
Mof_H 	H 	0.1026	0.9485	0.3468	0.051
Mof_C 	C 	0.1797	0.7975	0.4006	-0.008
Mof_C 	C 	0.2657	0.75	0.4501	0.032
Mof_H 	H 	0.2764	0.6691	0.4695	0.015
Mof_C 	C 	0.106	0.7167	0.3818	-0.024
Mof_C 	C 	0.9777	0.718	0.4067	0.03
Mof_H 	H 	0.9375	0.7747	0.4308	0.042
Mof_C 	C 	0.9104	0.6356	0.3959	-0.159
Mof_C 	C 	0.7688	0.6269	0.4359	0.493
Mof_C 	C 	0.9683	0.5501	0.3594	0.099
Mof_H 	H 	0.9226	0.496	0.351	0.029
Mof_C 	C 	0.0943	0.546	0.3358	-0.17
Mof_C 	C 	0.1559	0.4461	0.311	0.514
Mof_C 	C 	0.1638	0.6297	0.3454	0.037
Mof_H 	H 	0.2489	0.6279	0.3275	0.02
Mof_Eu	Eu	0.56682	0.6699	0.67425	2.318
Mof_O 	O 	0.5232	0.4688	0.6908	-0.694
Mof_O 	O 	0.4626	0.311	0.6797	-0.506
Mof_O 	O 	0.5655	0.3441	0.4431	-0.675
Mof_O 	O 	0.5174	0.1685	0.449	-0.484
Mof_O 	O 	0.5027	0.1998	0.2209	-0.444
Mof_O 	O 	0.445	0.371	0.1284	-0.452
Mof_O 	O 	0.858	0.8343	0.6809	-0.31
Mof_O 	O 	0.7345	0.8269	0.5951	-0.507
Mof_O 	O 	0.7332	0.5577	0.7058	-0.537
Mof_O 	O 	0.9173	0.6329	0.6871	-0.549
Mof_H 	H 	0.8775	0.6847	0.7014	0.336
Mof_O 	O 	0.2834	0.4516	0.577	-0.587
Mof_O 	O 	0.2893	0.3082	0.5184	-0.545
Mof_C 	C 	0.4909	0.3564	0.7355	0.462
Mof_C 	C 	0.4925	0.2735	0.8527	-0.153
Mof_C 	C 	0.4961	0.148	0.8816	0.007
Mof_H 	H 	0.4984	0.121	0.8267	0.045
Mof_C 	C 	0.4965	0.0647	0.9872	-0.006
Mof_C 	C 	0.4904	0.1087	0.0676	-0.016
Mof_H 	H 	0.4878	0.0544	0.1409	0.055
Mof_C 	C 	0.4881	0.2322	0.0421	-0.092
Mof_C 	C 	0.4793	0.2709	0.1345	0.321
Mof_C 	C 	0.4895	0.315	0.9337	0.074
Mof_H 	H 	0.4885	0.397	0.9159	-0.007
Mof_C 	C 	0.576	0.2312	0.4719	0.441
Mof_C 	C 	0.6644	0.1781	0.5292	-0.142
Mof_C 	C 	0.682	0.0582	0.5571	0.077
Mof_H 	H 	0.6353	0.009	0.5445	0.033
Mof_C 	C 	0.7692	0.0113	0.6038	-0.121
Mof_C 	C 	0.7887	0.881	0.6288	0.421
Mof_C 	C 	0.8381	0.0834	0.6234	0.005
Mof_H 	H 	0.8974	0.0515	0.6532	0.051
Mof_C 	C 	0.8203	0.2025	0.5994	-0.008
Mof_C 	C 	0.7343	0.25	0.5499	0.032
Mof_H 	H 	0.7236	0.3309	0.5305	0.015
Mof_C 	C 	0.894	0.2833	0.6182	-0.024
Mof_C 	C 	0.0223	0.282	0.5933	0.03
Mof_H 	H 	0.0625	0.2253	0.5692	0.042
Mof_C 	C 	0.0896	0.3644	0.6041	-0.159
Mof_C 	C 	0.2312	0.3731	0.5641	0.493
Mof_C 	C 	0.0317	0.4499	0.6406	0.099
Mof_H 	H 	0.0774	0.504	0.649	0.029
Mof_C 	C 	0.9057	0.454	0.6642	-0.17
Mof_C 	C 	0.8441	0.5539	0.689	0.514
Mof_C 	C 	0.8362	0.3703	0.6546	0.037
Mof_H 	H 	0.7511	0.3721	0.6725	0.02
Mof_Eu	Eu	0.5	0.5	0.5	2.464
_end
