# CIF file generated by openbabel 3.1.0, see https://openbabel.org
data_I
_chemical_name_common 'DUFGOB_clean'
_cell_length_a 11.7341
_cell_length_b 17.5189
_cell_length_c 20.1579
_cell_angle_alpha 99.51
_cell_angle_beta 90
_cell_angle_gamma 90
_space_group_name_H-M_alt 'P 1'
_space_group_name_Hall 'P 1'
loop_
    _symmetry_equiv_pos_as_xyz
    x,y,z
loop_
    _atom_site_label
    _atom_site_type_symbol
    _atom_site_fract_x
    _atom_site_fract_y
    _atom_site_fract_z
    _atom_site_occupancy
    K1       K        0.31190    0.59228    0.45430    1.000
    K2       K        0.45040    0.94020    0.53456    1.000
    K3       K        0.26020    0.01320    0.97086    1.000
    K4       K        0.81190    0.40772    0.54570    1.000
    K5       K        0.95040    0.05980    0.46544    1.000
    K6       K        0.76020    0.98680    0.02914    1.000
    U1       U        0.36631    0.96676    0.75381    1.000
    U2       U        0.86631    0.03324    0.24619    1.000
    H1       H        0.09390    0.96150    0.81610    1.000
    H2       H        0.90270    0.96700    0.79790    1.000
    H3       H        0.83910    0.96270    0.68450    1.000
    H4       H        0.97740    0.96990    0.60300    1.000
    H5       H        0.16560    0.96870    0.62850    1.000
    H6       H        0.29650    0.81540    0.83270    1.000
    H7       H        0.27400    0.68060    0.82040    1.000
    H8       H        0.27810    0.61010    0.71640    1.000
    H9       H        0.29250    0.67040    0.62020    1.000
    H10      H        0.31360    0.80520    0.63870    1.000
    H11      H        0.57900    0.84810    0.67670    1.000
    H12      H        0.74650    0.78360    0.69050    1.000
    H13      H        0.80820    0.77740    0.80060    1.000
    H14      H        0.69300    0.83700    0.89140    1.000
    H15      H        0.53690    0.90210    0.86910    1.000
    H16      H        0.59150    0.05170    0.68400    1.000
    H17      H        0.75620    0.12140    0.70020    1.000
    H18      H        0.81030    0.16700    0.81100    1.000
    H19      H        0.70380    0.13370    0.89910    1.000
    H20      H        0.54250    0.06490    0.87610    1.000
    H21      H        0.31760    0.10690    0.66480    1.000
    H22      H        0.30490    0.22760    0.64860    1.000
    H23      H        0.31800    0.31500    0.75060    1.000
    H24      H        0.31540    0.27570    0.85420    1.000
    H25      H        0.31420    0.14160    0.85970    1.000
    H26      H        0.59390    0.03850    0.18390    1.000
    H27      H        0.40270    0.03300    0.20210    1.000
    H28      H        0.33910    0.03730    0.31550    1.000
    H29      H        0.47740    0.03010    0.39700    1.000
    H30      H        0.66560    0.03130    0.37150    1.000
    H31      H        0.79650    0.18460    0.16730    1.000
    H32      H        0.77400    0.31940    0.17960    1.000
    H33      H        0.77810    0.38990    0.28360    1.000
    H34      H        0.79250    0.32960    0.37980    1.000
    H35      H        0.81360    0.19480    0.36130    1.000
    H36      H        0.07900    0.15190    0.32330    1.000
    H37      H        0.24650    0.21640    0.30950    1.000
    H38      H        0.30820    0.22260    0.19940    1.000
    H39      H        0.19300    0.16300    0.10860    1.000
    H40      H        0.03690    0.09790    0.13090    1.000
    H41      H        0.09150    0.94830    0.31600    1.000
    H42      H        0.25620    0.87860    0.29980    1.000
    H43      H        0.31030    0.83300    0.18900    1.000
    H44      H        0.20380    0.86630    0.10090    1.000
    H45      H        0.04250    0.93510    0.12390    1.000
    H46      H        0.81760    0.89310    0.33520    1.000
    H47      H        0.80490    0.77240    0.35140    1.000
    H48      H        0.81800    0.68500    0.24940    1.000
    H49      H        0.81540    0.72430    0.14580    1.000
    H50      H        0.81420    0.85840    0.14030    1.000
    C1       C        0.06920    0.96420    0.77270    1.000
    C2       C        0.95400    0.96570    0.76250    1.000
    C3       C        0.91620    0.96500    0.69540    1.000
    C4       C        0.99920    0.96790    0.64700    1.000
    C5       C        0.11230    0.96770    0.66250    1.000
    C6       C        0.29630    0.78560    0.79000    1.000
    C7       C        0.28320    0.70460    0.78290    1.000
    C8       C        0.28420    0.66370    0.72150    1.000
    C9       C        0.29410    0.69890    0.66340    1.000
    C10      C        0.30650    0.77920    0.67520    1.000
    C11      C        0.60370    0.84650    0.72020    1.000
    C12      C        0.70490    0.80670    0.72770    1.000
    C13      C        0.74120    0.80300    0.79290    1.000
    C14      C        0.67300    0.83930    0.84710    1.000
    C15      C        0.57950    0.87700    0.83310    1.000
    C16      C        0.61530    0.06920    0.72790    1.000
    C17      C        0.71330    0.11090    0.73650    1.000
    C18      C        0.74520    0.13670    0.80200    1.000
    C19      C        0.68110    0.11790    0.85470    1.000
    C20      C        0.58580    0.07650    0.84040    1.000
    C21      C        0.31510    0.14420    0.70340    1.000
    C22      C        0.31040    0.21320    0.69090    1.000
    C23      C        0.31490    0.26220    0.75160    1.000
    C24      C        0.31530    0.23900    0.81510    1.000
    C25      C        0.31560    0.15960    0.81880    1.000
    C26      C        0.61000    0.61160    0.54430    1.000
    C27      C        0.11850    0.81800    0.46160    1.000
    C28      C        0.74200    0.82050    0.52100    1.000
    C29      C        0.95600    0.18180    0.99740    1.000
    C30      C        0.56920    0.03580    0.22730    1.000
    C31      C        0.45400    0.03430    0.23750    1.000
    C32      C        0.41620    0.03500    0.30460    1.000
    C33      C        0.49920    0.03210    0.35300    1.000
    C34      C        0.61230    0.03230    0.33750    1.000
    C35      C        0.79630    0.21440    0.21000    1.000
    C36      C        0.78320    0.29540    0.21710    1.000
    C37      C        0.78420    0.33630    0.27850    1.000
    C38      C        0.79410    0.30110    0.33660    1.000
    C39      C        0.80650    0.22080    0.32480    1.000
    C40      C        0.10370    0.15350    0.27980    1.000
    C41      C        0.20490    0.19330    0.27230    1.000
    C42      C        0.24120    0.19700    0.20710    1.000
    C43      C        0.17300    0.16070    0.15290    1.000
    C44      C        0.07950    0.12300    0.16690    1.000
    C45      C        0.11530    0.93080    0.27210    1.000
    C46      C        0.21330    0.88910    0.26350    1.000
    C47      C        0.24520    0.86330    0.19800    1.000
    C48      C        0.18110    0.88210    0.14530    1.000
    C49      C        0.08580    0.92350    0.15960    1.000
    C50      C        0.81510    0.85580    0.29660    1.000
    C51      C        0.81040    0.78680    0.30910    1.000
    C52      C        0.81490    0.73780    0.24840    1.000
    C53      C        0.81530    0.76100    0.18490    1.000
    C54      C        0.81560    0.84040    0.18120    1.000
    C55      C        0.11000    0.38840    0.45570    1.000
    C56      C        0.61850    0.18200    0.53840    1.000
    C57      C        0.24200    0.17950    0.47900    1.000
    C58      C        0.45600    0.81820    0.00260    1.000
    S1       S        0.57620    0.50710    0.53067    1.000
    S2       S        0.26380    0.78730    0.45710    1.000
    S3       S        0.72590    0.92035    0.51168    1.000
    S4       S        0.99120    0.09550    0.96260    1.000
    S5       S        0.07620    0.49290    0.46933    1.000
    S6       S        0.76380    0.21270    0.54290    1.000
    S7       S        0.22590    0.07965    0.48832    1.000
    S8       S        0.49120    0.90450    0.03740    1.000
    N1       N        0.14940    0.96630    0.72600    1.000
    N2       N        0.30830    0.81940    0.73670    1.000
    N3       N        0.54140    0.88140    0.76940    1.000
    N4       N        0.54930    0.05100    0.77840    1.000
    N5       N        0.31790    0.11190    0.76030    1.000
    N6       N        0.64940    0.03370    0.27400    1.000
    N7       N        0.80830    0.18060    0.26330    1.000
    N8       N        0.04140    0.11860    0.23060    1.000
    N9       N        0.04930    0.94900    0.22160    1.000
    N10      N        0.81790    0.88810    0.23970    1.000
    O1       O        0.39620    0.95730    0.66410    1.000
    O2       O        0.33300    0.97510    0.84410    1.000
    O3       O        0.45670    0.50720    0.51480    1.000
    O4       O        0.64550    0.47320    0.47510    1.000
    O5       O        0.60860    0.48370    0.59410    1.000
    O6       O        0.27010    0.72710    0.40040    1.000
    O7       O        0.31700    0.78700    0.51980    1.000
    O8       O        0.32180    0.85280    0.43280    1.000
    O9       O        0.64340    0.92000    0.45890    1.000
    O10      O        0.68690    0.95400    0.57600    1.000
    O11      O        0.84150    0.94030    0.49600    1.000
    O12      O        0.03990    0.05600    0.01530    1.000
    O13      O        0.05560    0.09280    0.90490    1.000
    O14      O        0.88510    0.05630    0.94780    1.000
    O15      O        0.89620    0.04270    0.33590    1.000
    O16      O        0.83300    0.02490    0.15590    1.000
    O17      O        0.95670    0.49280    0.48520    1.000
    O18      O        0.14550    0.52680    0.52490    1.000
    O19      O        0.10860    0.51630    0.40590    1.000
    O20      O        0.77010    0.27290    0.59960    1.000
    O21      O        0.81700    0.21300    0.48020    1.000
    O22      O        0.82180    0.14720    0.56720    1.000
    O23      O        0.14340    0.08000    0.54110    1.000
    O24      O        0.18690    0.04600    0.42400    1.000
    O25      O        0.34150    0.05970    0.50400    1.000
    O26      O        0.53990    0.94400    0.98470    1.000
    O27      O        0.55560    0.90720    0.09510    1.000
    O28      O        0.38510    0.94370    0.05220    1.000
    F1       F        0.57650    0.63940    0.48990    1.000
    F2       F        0.55550    0.64860    0.59630    1.000
    F3       F        0.72020    0.62230    0.55360    1.000
    F4       F        0.06480    0.77380    0.48580    1.000
    F5       F        0.08180    0.84300    0.41140    1.000
    F6       F        0.12100    0.88530    0.51040    1.000
    F7       F        0.81770    0.81100    0.56760    1.000
    F8       F        0.78200    0.77680    0.46620    1.000
    F9       F        0.64100    0.79380    0.54040    1.000
    F10      F        0.89390    0.18490    0.05160    1.000
    F11      F        0.03760    0.22620    0.01790    1.000
    F12      F        0.89160    0.22470    0.95220    1.000
    F13      F        0.07650    0.36060    0.51010    1.000
    F14      F        0.05550    0.35140    0.40370    1.000
    F15      F        0.22020    0.37770    0.44640    1.000
    F16      F        0.56480    0.22620    0.51420    1.000
    F17      F        0.58180    0.15700    0.58860    1.000
    F18      F        0.62100    0.11470    0.48960    1.000
    F19      F        0.31770    0.18900    0.43240    1.000
    F20      F        0.28200    0.22320    0.53380    1.000
    F21      F        0.14100    0.20620    0.45960    1.000
    F22      F        0.39390    0.81510    0.94840    1.000
    F23      F        0.53760    0.77380    0.98210    1.000
    F24      F        0.39160    0.77530    0.04780    1.000
