# CIF file generated by openbabel 3.1.0, see https://openbabel.org
data_I
_chemical_name_common 'image0'
_cell_length_a 12.3582
_cell_length_b 33.9509
_cell_length_c 12.9507
_cell_angle_alpha 90
_cell_angle_beta 99.89
_cell_angle_gamma 90
_space_group_name_H-M_alt 'P 1'
_space_group_name_Hall 'P 1'
loop_
    _symmetry_equiv_pos_as_xyz
    x,y,z
loop_
    _atom_site_label
    _atom_site_type_symbol
    _atom_site_fract_x
    _atom_site_fract_y
    _atom_site_fract_z
    _atom_site_occupancy
    Mn1      Mn       0.20143    0.06808    0.10695    1.000
    C1       C        0.30170    0.14440    0.24760    1.000
    H1       H        0.32830    0.16860    0.28660    1.000
    H2       H        0.23900    0.15180    0.19280    1.000
    N1       N        0.38820    0.12882    0.19820    1.000
    N2       N        0.36240    0.09860    0.13060    1.000
    C2       C        0.45730    0.08760    0.10330    1.000
    C3       C        0.54270    0.11200    0.15300    1.000
    C4       C        0.49740    0.13730    0.21450    1.000
    C5       C        0.45650    0.05380    0.02770    1.000
    H3       H        0.45170    0.02890    0.06480    1.000
    H4       H        0.52420    0.05420    0.99790    1.000
    H5       H        0.39300    0.05630    0.97120    1.000
    C6       C        0.55050    0.16840    0.28920    1.000
    H6       H        0.62950    0.16920    0.28800    1.000
    H7       H        0.53840    0.16230    0.36030    1.000
    H8       H        0.51800    0.19410    0.26800    1.000
    C7       C        0.66030    0.10750    0.14210    1.000
    C8       C        0.71000    0.07030    0.14980    1.000
    H9       H        0.66890    0.04800    0.16490    1.000
    C9       C        0.81520    0.06550    0.13620    1.000
    H10      H        0.84640    0.03980    0.14180    1.000
    C10      C        0.87830    0.09680    0.11450    1.000
    C11      C        0.82850    0.13480    0.10630    1.000
    H11      H        0.86880    0.15710    0.09010    1.000
    C12      C        0.72440    0.13900    0.12150    1.000
    H12      H        0.69340    0.16470    0.11790    1.000
    C13      C        0.99300    0.09050    0.10120    1.000
    O1       O        0.02720    0.05505    0.09640    1.000
    O2       O        0.05800    0.11958    0.09990    1.000
    N3       N        0.26410    0.11713    0.31850    1.000
    N4       N        0.21160    0.08395    0.28050    1.000
    C14      C        0.18290    0.06520    0.36130    1.000
    C15      C        0.21350    0.08720    0.45320    1.000
    C16      C        0.26960    0.12010    0.42360    1.000
    C17      C        0.12440    0.02700    0.34740    1.000
    H13      H        0.10250    0.02150    0.27250    1.000
    H14      H        0.05890    0.02820    0.38060    1.000
    H15      H        0.17310    0.00600    0.38000    1.000
    C18      C        0.32700    0.15370    0.48620    1.000
    H16      H        0.32140    0.15040    0.56020    1.000
    H17      H        0.29250    0.17860    0.46030    1.000
    H18      H        0.40460    0.15400    0.47860    1.000
    C19      C        0.19750    0.07700    0.56140    1.000
    C20      C        0.20050    0.03950    0.59790    1.000
    H19      H        0.21450    0.01840    0.55390    1.000
    C21      C        0.18270    0.03140    0.70250    1.000
    H20      H        0.18380    0.00500    0.72710    1.000
    C22      C        0.16410    0.06180    0.76690    1.000
    C23      C        0.16320    0.09940    0.73030    1.000
    H21      H        0.15370    0.12050    0.77610    1.000
    C24      C        0.17570    0.10780    0.62830    1.000
    H22      H        0.16970    0.13420    0.60350    1.000
    C25      C        0.15080    0.05360    0.87630    1.000
    O3       O        0.10540    0.02191    0.89520    1.000
    O4       O        0.18620    0.07925    0.94370    1.000
    N5       N        0.56050    0.78447    0.30510    1.000
    N6       N        0.62290    0.79258    0.23060    1.000
    C26      C        0.58330    0.82760    0.18510    1.000
    C27      C        0.49830    0.84100    0.23560    1.000
    C28      C        0.48480    0.81320    0.30920    1.000
    C29      C        0.62480    0.84620    0.09300    1.000
    H23      H        0.68320    0.86510    0.11880    1.000
    H24      H        0.56430    0.85980    0.04840    1.000
    H25      H        0.65400    0.82560    0.05230    1.000
    C30      C        0.40790    0.81090    0.38750    1.000
    H26      H        0.35330    0.79020    0.36640    1.000
    H27      H        0.37060    0.83620    0.39020    1.000
    H28      H        0.44990    0.80470    0.45690    1.000
    C31      C        0.43220    0.87660    0.21030    1.000
    C32      C        0.32070    0.87440    0.17800    1.000
    H29      H        0.28660    0.84930    0.17650    1.000
    C33      C        0.25660    0.90630    0.14800    1.000
    H30      H        0.18190    0.90290    0.11660    1.000
    C34      C        0.30080    0.94360    0.16350    1.000
    C35      C        0.41540    0.94710    0.20080    1.000
    H31      H        0.44810    0.97250    0.20980    1.000
    C36      C        0.47970    0.91410    0.22430    1.000
    H32      H        0.55610    0.91680    0.24990    1.000
    C37      C        0.23290    0.97830    0.13230    1.000
    O5       O        0.27540    0.01333    0.13980    1.000
    O6       O        0.13030    0.97305    0.10080    1.000
    C38      C        0.83000    0.79000    0.15670    1.000
    C39      C        0.90560    0.80670    0.15250    1.000
    C40      C        0.99540    0.83240    0.11530    1.000
    H33      H        0.96330    0.85750    0.08840    1.000
    H34      H        0.02470    0.81850    0.05970    1.000
    H35      H        0.05480    0.83730    0.17440    1.000
    O7       O        0.84510    0.78320    0.38110    1.000
    C41      C        0.84510    0.71000    0.39660    1.000
    H36      H        0.76930    0.70180    0.39790    1.000
    H37      H        0.87950    0.71860    0.46680    1.000
    H38      H        0.88630    0.68780    0.37460    1.000
    H39      H        0.35760    0.17170    0.43920    1.000
    H40      H        0.38650    0.14340    0.53910    1.000
    H41      H        0.27440    0.16800    0.52080    1.000
    H42      H        0.77150    0.72490    0.96020    1.000
    H43      H        0.78500    0.77170    0.97130    1.000
    H44      H        0.68590    0.75340    0.88940    1.000
    N7       N        0.83000    0.71000    0.15670    1.000
    Mn2      Mn       0.79857    0.56808    0.89305    1.000
    C42      C        0.69830    0.64440    0.75240    1.000
    H45      H        0.67170    0.66860    0.71340    1.000
    H46      H        0.76100    0.65180    0.80720    1.000
    N8       N        0.61180    0.62882    0.80180    1.000
    N9       N        0.63760    0.59860    0.86940    1.000
    C43      C        0.54270    0.58760    0.89670    1.000
    C44      C        0.45730    0.61200    0.84700    1.000
    C45      C        0.50260    0.63730    0.78550    1.000
    C46      C        0.54350    0.55380    0.97230    1.000
    H47      H        0.54830    0.52890    0.93520    1.000
    H48      H        0.47580    0.55420    0.00210    1.000
    H49      H        0.60700    0.55630    0.02880    1.000
    C47      C        0.44950    0.66840    0.71080    1.000
    H50      H        0.37050    0.66920    0.71200    1.000
    H51      H        0.46160    0.66230    0.63970    1.000
    H52      H        0.48200    0.69410    0.73200    1.000
    C48      C        0.33970    0.60750    0.85790    1.000
    C49      C        0.29000    0.57030    0.85020    1.000
    H53      H        0.33110    0.54800    0.83510    1.000
    C50      C        0.18480    0.56550    0.86380    1.000
    H54      H        0.15360    0.53980    0.85820    1.000
    C51      C        0.12170    0.59680    0.88550    1.000
    C52      C        0.17150    0.63480    0.89370    1.000
    H55      H        0.13120    0.65710    0.90990    1.000
    C53      C        0.27560    0.63900    0.87850    1.000
    H56      H        0.30660    0.66470    0.88210    1.000
    C54      C        0.00700    0.59050    0.89880    1.000
    O8       O        0.97280    0.55505    0.90360    1.000
    O9       O        0.94200    0.61958    0.90010    1.000
    N10      N        0.73590    0.61713    0.68150    1.000
    N11      N        0.78840    0.58395    0.71950    1.000
    C55      C        0.81710    0.56520    0.63870    1.000
    C56      C        0.78650    0.58720    0.54680    1.000
    C57      C        0.73040    0.62010    0.57640    1.000
    C58      C        0.87560    0.52700    0.65260    1.000
    H57      H        0.89750    0.52150    0.72750    1.000
    H58      H        0.94110    0.52820    0.61940    1.000
    H59      H        0.82690    0.50600    0.62000    1.000
    C59      C        0.67300    0.65370    0.51380    1.000
    H60      H        0.67860    0.65040    0.43980    1.000
    H61      H        0.70750    0.67860    0.53970    1.000
    H62      H        0.59540    0.65400    0.52140    1.000
    C60      C        0.80250    0.57700    0.43860    1.000
    C61      C        0.79950    0.53950    0.40210    1.000
    H63      H        0.78550    0.51840    0.44610    1.000
    C62      C        0.81730    0.53140    0.29750    1.000
    H64      H        0.81620    0.50500    0.27290    1.000
    C63      C        0.83590    0.56180    0.23310    1.000
    C64      C        0.83680    0.59940    0.26970    1.000
    H65      H        0.84630    0.62050    0.22390    1.000
    C65      C        0.82430    0.60780    0.37170    1.000
    H66      H        0.83030    0.63420    0.39650    1.000
    C66      C        0.84920    0.55360    0.12370    1.000
    O10      O        0.89460    0.52191    0.10480    1.000
    O11      O        0.81380    0.57925    0.05630    1.000
    N12      N        0.43950    0.28447    0.69490    1.000
    N13      N        0.37710    0.29258    0.76940    1.000
    C67      C        0.41670    0.32760    0.81490    1.000
    C68      C        0.50170    0.34100    0.76440    1.000
    C69      C        0.51520    0.31320    0.69080    1.000
    C70      C        0.37520    0.34620    0.90700    1.000
    H67      H        0.31680    0.36510    0.88120    1.000
    H68      H        0.43570    0.35980    0.95160    1.000
    H69      H        0.34600    0.32560    0.94770    1.000
    C71      C        0.59210    0.31090    0.61250    1.000
    H70      H        0.64670    0.29020    0.63360    1.000
    H71      H        0.62940    0.33620    0.60980    1.000
    H72      H        0.55010    0.30470    0.54310    1.000
    C72      C        0.56780    0.37660    0.78970    1.000
    C73      C        0.67930    0.37440    0.82200    1.000
    H73      H        0.71340    0.34930    0.82350    1.000
    C74      C        0.74340    0.40630    0.85200    1.000
    H74      H        0.81810    0.40290    0.88340    1.000
    C75      C        0.69920    0.44360    0.83650    1.000
    C76      C        0.58460    0.44710    0.79920    1.000
    H75      H        0.55190    0.47250    0.79020    1.000
    C77      C        0.52030    0.41410    0.77570    1.000
    H76      H        0.44390    0.41680    0.75010    1.000
    C78      C        0.76710    0.47830    0.86770    1.000
    O12      O        0.72460    0.51333    0.86020    1.000
    O13      O        0.86970    0.47305    0.89920    1.000
    C79      C        0.17000    0.29000    0.84330    1.000
    C80      C        0.09440    0.30670    0.84750    1.000
    C81      C        0.00460    0.33240    0.88470    1.000
    H77      H        0.03670    0.35750    0.91160    1.000
    H78      H        0.97530    0.31850    0.94030    1.000
    H79      H        0.94520    0.33730    0.82560    1.000
    O14      O        0.15490    0.28320    0.61890    1.000
    C82      C        0.15490    0.21000    0.60340    1.000
    H80      H        0.23070    0.20180    0.60210    1.000
    H81      H        0.12050    0.21860    0.53320    1.000
    H82      H        0.11370    0.18780    0.62540    1.000
    H83      H        0.64240    0.67170    0.56080    1.000
    H84      H        0.61350    0.64340    0.46090    1.000
    H85      H        0.72560    0.66800    0.47920    1.000
    H86      H        0.22850    0.22490    0.03980    1.000
    H87      H        0.21500    0.27170    0.02870    1.000
    H88      H        0.31410    0.25340    0.11060    1.000
    N14      N        0.17000    0.21000    0.84330    1.000
    Mn3      Mn       0.79857    0.93192    0.89305    1.000
    C83      C        0.69830    0.85560    0.75240    1.000
    H89      H        0.67170    0.83140    0.71340    1.000
    H90      H        0.76100    0.84820    0.80720    1.000
    N15      N        0.61180    0.87118    0.80180    1.000
    N16      N        0.63760    0.90140    0.86940    1.000
    C84      C        0.54270    0.91240    0.89670    1.000
    C85      C        0.45730    0.88800    0.84700    1.000
    C86      C        0.50260    0.86270    0.78550    1.000
    C87      C        0.54350    0.94620    0.97230    1.000
    H91      H        0.54830    0.97110    0.93520    1.000
    H92      H        0.47580    0.94580    0.00210    1.000
    H93      H        0.60700    0.94370    0.02880    1.000
    C88      C        0.44950    0.83160    0.71080    1.000
    H94      H        0.37050    0.83080    0.71200    1.000
    H95      H        0.46160    0.83770    0.63970    1.000
    H96      H        0.48200    0.80590    0.73200    1.000
    C89      C        0.33970    0.89250    0.85790    1.000
    C90      C        0.29000    0.92970    0.85020    1.000
    H97      H        0.33110    0.95200    0.83510    1.000
    C91      C        0.18480    0.93450    0.86380    1.000
    H98      H        0.15360    0.96020    0.85820    1.000
    C92      C        0.12170    0.90320    0.88550    1.000
    C93      C        0.17150    0.86520    0.89370    1.000
    H99      H        0.13120    0.84290    0.90990    1.000
    C94      C        0.27560    0.86100    0.87850    1.000
    H100     H        0.30660    0.83530    0.88210    1.000
    C95      C        0.00700    0.90950    0.89880    1.000
    O15      O        0.97280    0.94495    0.90360    1.000
    O16      O        0.94200    0.88042    0.90010    1.000
    N17      N        0.73590    0.88287    0.68150    1.000
    N18      N        0.78840    0.91605    0.71950    1.000
    C96      C        0.81710    0.93480    0.63870    1.000
    C97      C        0.78650    0.91280    0.54680    1.000
    C98      C        0.73040    0.87990    0.57640    1.000
    C99      C        0.87560    0.97300    0.65260    1.000
    H101     H        0.89750    0.97850    0.72750    1.000
    H102     H        0.94110    0.97180    0.61940    1.000
    H103     H        0.82690    0.99400    0.62000    1.000
    C100     C        0.67300    0.84630    0.51380    1.000
    H104     H        0.67860    0.84960    0.43980    1.000
    H105     H        0.70750    0.82140    0.53970    1.000
    H106     H        0.59540    0.84600    0.52140    1.000
    C101     C        0.80250    0.92300    0.43860    1.000
    C102     C        0.79950    0.96050    0.40210    1.000
    H107     H        0.78550    0.98160    0.44610    1.000
    C103     C        0.81730    0.96860    0.29750    1.000
    H108     H        0.81620    0.99500    0.27290    1.000
    C104     C        0.83590    0.93820    0.23310    1.000
    C105     C        0.83680    0.90060    0.26970    1.000
    H109     H        0.84630    0.87950    0.22390    1.000
    C106     C        0.82430    0.89220    0.37170    1.000
    H110     H        0.83030    0.86580    0.39650    1.000
    C107     C        0.84920    0.94640    0.12370    1.000
    O17      O        0.89460    0.97809    0.10480    1.000
    O18      O        0.81380    0.92075    0.05630    1.000
    N19      N        0.43950    0.21553    0.69490    1.000
    N20      N        0.37710    0.20742    0.76940    1.000
    C108     C        0.41670    0.17240    0.81490    1.000
    C109     C        0.50170    0.15900    0.76440    1.000
    C110     C        0.51520    0.18680    0.69080    1.000
    C111     C        0.37520    0.15380    0.90700    1.000
    H111     H        0.31680    0.13490    0.88120    1.000
    H112     H        0.43570    0.14020    0.95160    1.000
    H113     H        0.34600    0.17440    0.94770    1.000
    C112     C        0.59210    0.18910    0.61250    1.000
    H114     H        0.64670    0.20980    0.63360    1.000
    H115     H        0.62940    0.16380    0.60980    1.000
    H116     H        0.55010    0.19530    0.54310    1.000
    C113     C        0.56780    0.12340    0.78970    1.000
    C114     C        0.67930    0.12560    0.82200    1.000
    H117     H        0.71340    0.15070    0.82350    1.000
    C115     C        0.74340    0.09370    0.85200    1.000
    H118     H        0.81810    0.09710    0.88340    1.000
    C116     C        0.69920    0.05640    0.83650    1.000
    C117     C        0.58460    0.05290    0.79920    1.000
    H119     H        0.55190    0.02750    0.79020    1.000
    C118     C        0.52030    0.08590    0.77570    1.000
    H120     H        0.44390    0.08320    0.75010    1.000
    C119     C        0.76710    0.02170    0.86770    1.000
    O19      O        0.72460    0.98667    0.86020    1.000
    O20      O        0.86970    0.02695    0.89920    1.000
    C120     C        0.09440    0.19330    0.84750    1.000
    C121     C        0.00460    0.16760    0.88470    1.000
    H121     H        0.03670    0.14250    0.91160    1.000
    H122     H        0.97530    0.18150    0.94030    1.000
    H123     H        0.94520    0.16270    0.82560    1.000
    O21      O        0.15490    0.21680    0.61890    1.000
    C122     C        0.15490    0.29000    0.60340    1.000
    H124     H        0.23070    0.29820    0.60210    1.000
    H125     H        0.12050    0.28140    0.53320    1.000
    H126     H        0.11370    0.31220    0.62540    1.000
    H127     H        0.64240    0.82830    0.56080    1.000
    H128     H        0.61350    0.85660    0.46090    1.000
    H129     H        0.72560    0.83200    0.47920    1.000
    H130     H        0.22850    0.27510    0.03980    1.000
    H131     H        0.21500    0.22830    0.02870    1.000
    H132     H        0.31410    0.24660    0.11060    1.000
    Mn4      Mn       0.20143    0.43192    0.10695    1.000
    C123     C        0.30170    0.35560    0.24760    1.000
    H133     H        0.32830    0.33140    0.28660    1.000
    H134     H        0.23900    0.34820    0.19280    1.000
    N21      N        0.38820    0.37118    0.19820    1.000
    N22      N        0.36240    0.40140    0.13060    1.000
    C124     C        0.45730    0.41240    0.10330    1.000
    C125     C        0.54270    0.38800    0.15300    1.000
    C126     C        0.49740    0.36270    0.21450    1.000
    C127     C        0.45650    0.44620    0.02770    1.000
    H135     H        0.45170    0.47110    0.06480    1.000
    H136     H        0.52420    0.44580    0.99790    1.000
    H137     H        0.39300    0.44370    0.97120    1.000
    C128     C        0.55050    0.33160    0.28920    1.000
    H138     H        0.62950    0.33080    0.28800    1.000
    H139     H        0.53840    0.33770    0.36030    1.000
    H140     H        0.51800    0.30590    0.26800    1.000
    C129     C        0.66030    0.39250    0.14210    1.000
    C130     C        0.71000    0.42970    0.14980    1.000
    H141     H        0.66890    0.45200    0.16490    1.000
    C131     C        0.81520    0.43450    0.13620    1.000
    H142     H        0.84640    0.46020    0.14180    1.000
    C132     C        0.87830    0.40320    0.11450    1.000
    C133     C        0.82850    0.36520    0.10630    1.000
    H143     H        0.86880    0.34290    0.09010    1.000
    C134     C        0.72440    0.36100    0.12150    1.000
    H144     H        0.69340    0.33530    0.11790    1.000
    C135     C        0.99300    0.40950    0.10120    1.000
    O22      O        0.02720    0.44495    0.09640    1.000
    O23      O        0.05800    0.38042    0.09990    1.000
    N23      N        0.26410    0.38287    0.31850    1.000
    N24      N        0.21160    0.41605    0.28050    1.000
    C136     C        0.18290    0.43480    0.36130    1.000
    C137     C        0.21350    0.41280    0.45320    1.000
    C138     C        0.26960    0.37990    0.42360    1.000
    C139     C        0.12440    0.47300    0.34740    1.000
    H145     H        0.10250    0.47850    0.27250    1.000
    H146     H        0.05890    0.47180    0.38060    1.000
    H147     H        0.17310    0.49400    0.38000    1.000
    C140     C        0.32700    0.34630    0.48620    1.000
    H148     H        0.32140    0.34960    0.56020    1.000
    H149     H        0.29250    0.32140    0.46030    1.000
    H150     H        0.40460    0.34600    0.47860    1.000
    C141     C        0.19750    0.42300    0.56140    1.000
    C142     C        0.20050    0.46050    0.59790    1.000
    H151     H        0.21450    0.48160    0.55390    1.000
    C143     C        0.18270    0.46860    0.70250    1.000
    H152     H        0.18380    0.49500    0.72710    1.000
    C144     C        0.16410    0.43820    0.76690    1.000
    C145     C        0.16320    0.40060    0.73030    1.000
    H153     H        0.15370    0.37950    0.77610    1.000
    C146     C        0.17570    0.39220    0.62830    1.000
    H154     H        0.16970    0.36580    0.60350    1.000
    C147     C        0.15080    0.44640    0.87630    1.000
    O24      O        0.10540    0.47809    0.89520    1.000
    O25      O        0.18620    0.42075    0.94370    1.000
    N25      N        0.56050    0.71553    0.30510    1.000
    N26      N        0.62290    0.70742    0.23060    1.000
    C148     C        0.58330    0.67240    0.18510    1.000
    C149     C        0.49830    0.65900    0.23560    1.000
    C150     C        0.48480    0.68680    0.30920    1.000
    C151     C        0.62480    0.65380    0.09300    1.000
    H155     H        0.68320    0.63490    0.11880    1.000
    H156     H        0.56430    0.64020    0.04840    1.000
    H157     H        0.65400    0.67440    0.05230    1.000
    C152     C        0.40790    0.68910    0.38750    1.000
    H158     H        0.35330    0.70980    0.36640    1.000
    H159     H        0.37060    0.66380    0.39020    1.000
    H160     H        0.44990    0.69530    0.45690    1.000
    C153     C        0.43220    0.62340    0.21030    1.000
    C154     C        0.32070    0.62560    0.17800    1.000
    H161     H        0.28660    0.65070    0.17650    1.000
    C155     C        0.25660    0.59370    0.14800    1.000
    H162     H        0.18190    0.59710    0.11660    1.000
    C156     C        0.30080    0.55640    0.16350    1.000
    C157     C        0.41540    0.55290    0.20080    1.000
    H163     H        0.44810    0.52750    0.20980    1.000
    C158     C        0.47970    0.58590    0.22430    1.000
    H164     H        0.55610    0.58320    0.24990    1.000
    C159     C        0.23290    0.52170    0.13230    1.000
    O26      O        0.27540    0.48667    0.13980    1.000
    O27      O        0.13030    0.52695    0.10080    1.000
    C160     C        0.90560    0.69330    0.15250    1.000
    C161     C        0.99540    0.66760    0.11530    1.000
    H165     H        0.96330    0.64250    0.08840    1.000
    H166     H        0.02470    0.68150    0.05970    1.000
    H167     H        0.05480    0.66270    0.17440    1.000
    O28      O        0.84510    0.71680    0.38110    1.000
    C162     C        0.84510    0.79000    0.39660    1.000
    H168     H        0.76930    0.79820    0.39790    1.000
    H169     H        0.87950    0.78140    0.46680    1.000
    H170     H        0.88630    0.81220    0.37460    1.000
    H171     H        0.35760    0.32830    0.43920    1.000
    H172     H        0.38650    0.35660    0.53910    1.000
    H173     H        0.27440    0.33200    0.52080    1.000
    H174     H        0.77150    0.77510    0.96020    1.000
    H175     H        0.78500    0.72830    0.97130    1.000
    H176     H        0.68590    0.74660    0.88940    1.000
    Mn5      Mn       0.00000    0.00000    0.00000    1.000
    Mn6      Mn       0.00000    0.50000    0.00000    1.000
    Rh1      Rh       0.72855    0.75000    0.19066    1.000
    I1       I        0.87112    0.75000    0.40123    1.000
    C163     C        0.58230    0.75000    0.36520    1.000
    H177     H        0.66030    0.75000    0.39940    1.000
    H178     H        0.53680    0.75000    0.42110    1.000
    C164     C        0.65800    0.75000    0.04500    1.000
    C165     C        0.73200    0.75000    0.95840    1.000
    O29      O        0.55720    0.75000    0.05210    1.000
    I2       I        0.60280    0.75000    0.97010    1.000
    C166     C        0.80580    0.75000    0.34440    1.000
    Rh2      Rh       0.27145    0.25000    0.80934    1.000
    I3       I        0.12888    0.25000    0.59877    1.000
    C167     C        0.41770    0.25000    0.63480    1.000
    H179     H        0.33970    0.25000    0.60060    1.000
    H180     H        0.46320    0.25000    0.57890    1.000
    C168     C        0.34200    0.25000    0.95500    1.000
    C169     C        0.26800    0.25000    0.04160    1.000
    O30      O        0.44280    0.25000    0.94790    1.000
    I4       I        0.39720    0.25000    0.02990    1.000
    C170     C        0.19420    0.25000    0.65560    1.000
