data_functionalizedCrystal
_audit_creation_method	'EQeq! by Chris Wilmer'
_symmetry_space_group_name_H-M	'P1'
_symmetry_Int_Tables_number	1
_symmetry_cell_setting	triclinic
loop_
_symmetry_equiv_pos_as_xyz
  x,y,z
_cell_length_a	6.9473
_cell_length_b	21.9479
_cell_length_c	23.1867
_cell_angle_alpha	90
_cell_angle_beta	90
_cell_angle_gamma	90
loop_
_atom_site_label
_atom_site_type_symbol
_atom_site_fract_x
_atom_site_fract_y
_atom_site_fract_z
_atom_site_charge
Mof_Nd	Nd	0.5777	0.23194	0.05004	2.586
Mof_O 	O 	0.5918	0.30994	0.64948	-0.473
Mof_O 	O 	0.5666	0.211	0.64111	-0.435
Mof_C 	C 	0.5789	0.2576	0.6723	0.267
Mof_C 	C 	0.5769	0.2511	0.7373	0.079
Mof_C 	C 	0.5735	0.1935	0.7608	-0.201
Mof_H 	H 	0.5715	0.1592	0.7373	0.158
Mof_C 	C 	0.5732	0.1878	0.8198	0.232
Mof_N 	N 	0.5255	0.126	0.8444	-0.029
Mof_O 	O 	0.5619	0.1171	0.8948	-0.011
Mof_O 	O 	0.4566	0.0857	0.8139	-0.051
Mof_C 	C 	0.576	0.2367	0.857	-0.294
Mof_C 	C 	0.5791	0.2956	0.8321	0.151
Mof_H 	H 	0.5805	0.3301	0.8553	-0.044
Mof_C 	C 	0.5799	0.3013	0.7719	-0.175
Mof_H 	H 	0.5826	0.3398	0.7553	0.113
Mof_C 	C 	0.5743	0.2335	0.92071	0.606
Mof_O 	O 	0.4155	0.2267	0.94669	-0.711
Mof_O 	O 	0.7257	0.24156	0.94754	-0.751
Mof_O 	O 	0.2938	0.35226	0.9626	-0.612
Mof_O 	O 	0.5469	0.33601	0.02047	-0.576
Mof_C 	C 	0.4293	0.3699	0.9934	0.513
Mof_C 	C 	0.4637	0.4374	0.9979	-0.085
Mof_C 	C 	0.5707	0.4625	0.0417	-0.186
Mof_H 	H 	0.621	0.4374	0.0707	0.339
Mof_C 	C 	0.3934	0.4753	0.9559	0.088
Mof_H 	H 	0.3213	0.4593	0.9257	0.022
Mof_N 	N 	0.6302	0.1262	0.8432	-0.004
Mof_O 	O 	0.6552	0.1207	0.8951	-0.108
Mof_O 	O 	0.6311	0.0823	0.8102	-0.059
Mof_N 	N 	0.62	0.4295	0.0991	-0.25
Mof_O 	O 	0.501	0.4194	0.1333	-0.015
Mof_O 	O 	0.783	0.4189	0.1035	-0.067
Mof_Nd	Nd	0.9223	0.76806	0.55004	2.576
Mof_O 	O 	0.9082	0.69006	0.14948	-0.473
Mof_O 	O 	0.9334	0.789	0.14111	-0.436
Mof_C 	C 	0.9211	0.7424	0.1723	0.266
Mof_C 	C 	0.9231	0.7489	0.2373	0.076
Mof_C 	C 	0.9265	0.8065	0.2608	-0.202
Mof_H 	H 	0.9285	0.8408	0.2373	0.156
Mof_C 	C 	0.9268	0.8122	0.3198	0.229
Mof_N 	N 	0.9745	0.874	0.3444	-0.033
Mof_O 	O 	0.9381	0.8829	0.3948	-0.01
Mof_O 	O 	0.0434	0.9143	0.3139	-0.044
Mof_C 	C 	0.924	0.7633	0.357	-0.294
Mof_C 	C 	0.9209	0.7044	0.3321	0.148
Mof_H 	H 	0.9195	0.6699	0.3553	-0.045
Mof_C 	C 	0.9201	0.6987	0.2719	-0.175
Mof_H 	H 	0.9174	0.6602	0.2553	0.112
Mof_C 	C 	0.9257	0.7665	0.42071	0.598
Mof_O 	O 	0.0845	0.7733	0.44669	-0.704
Mof_O 	O 	0.7743	0.75844	0.44754	-0.753
Mof_O 	O 	0.2062	0.64774	0.4626	-0.613
Mof_O 	O 	0.9531	0.66399	0.52047	-0.58
Mof_C 	C 	0.0707	0.6301	0.4934	0.518
Mof_C 	C 	0.0363	0.5626	0.4979	-0.084
Mof_C 	C 	0.9293	0.5375	0.5417	-0.189
Mof_H 	H 	0.879	0.5626	0.5707	0.34
Mof_C 	C 	0.1066	0.5247	0.4559	0.089
Mof_H 	H 	0.1787	0.5407	0.4257	0.022
Mof_N 	N 	0.8698	0.8738	0.3432	-0.001
Mof_O 	O 	0.8448	0.8793	0.3951	-0.111
Mof_O 	O 	0.8689	0.9177	0.3102	-0.064
Mof_N 	N 	0.88	0.5705	0.5991	-0.25
Mof_O 	O 	0.999	0.5806	0.6333	-0.017
Mof_O 	O 	0.717	0.5811	0.6035	-0.068
Mof_Nd	Nd	0.4223	0.73194	0.44996	2.588
Mof_O 	O 	0.4082	0.80994	0.85052	-0.472
Mof_O 	O 	0.4334	0.711	0.85889	-0.435
Mof_C 	C 	0.4211	0.7576	0.8277	0.267
Mof_C 	C 	0.4231	0.7511	0.7627	0.079
Mof_C 	C 	0.4265	0.6935	0.7392	-0.201
Mof_H 	H 	0.4285	0.6592	0.7627	0.158
Mof_C 	C 	0.4268	0.6878	0.6802	0.232
Mof_N 	N 	0.4745	0.626	0.6556	-0.029
Mof_O 	O 	0.4381	0.6171	0.6052	-0.01
Mof_O 	O 	0.5434	0.5857	0.6861	-0.051
Mof_C 	C 	0.424	0.7367	0.643	-0.294
Mof_C 	C 	0.4209	0.7956	0.6679	0.151
Mof_H 	H 	0.4195	0.8301	0.6447	-0.044
Mof_C 	C 	0.4201	0.8013	0.7281	-0.175
Mof_H 	H 	0.4174	0.8398	0.7447	0.113
Mof_C 	C 	0.4257	0.7335	0.57929	0.606
Mof_O 	O 	0.5845	0.7267	0.55331	-0.711
Mof_O 	O 	0.2743	0.74156	0.55246	-0.752
Mof_O 	O 	0.7062	0.85226	0.5374	-0.612
Mof_O 	O 	0.4531	0.83601	0.47953	-0.576
Mof_C 	C 	0.5707	0.8699	0.5066	0.512
Mof_C 	C 	0.5363	0.9374	0.5021	-0.085
Mof_C 	C 	0.4293	0.9625	0.4583	-0.186
Mof_H 	H 	0.379	0.9374	0.4293	0.339
Mof_C 	C 	0.6066	0.9753	0.5441	0.087
Mof_H 	H 	0.6787	0.9593	0.5743	0.022
Mof_N 	N 	0.3698	0.6262	0.6568	-0.004
Mof_O 	O 	0.3448	0.6207	0.6049	-0.109
Mof_O 	O 	0.3689	0.5823	0.6898	-0.06
Mof_N 	N 	0.38	0.9295	0.4009	-0.25
Mof_O 	O 	0.499	0.9194	0.3667	-0.015
Mof_O 	O 	0.217	0.9189	0.3965	-0.066
Mof_Nd	Nd	0.0777	0.26806	0.94996	2.576
Mof_O 	O 	0.0918	0.19006	0.35052	-0.473
Mof_O 	O 	0.0666	0.289	0.35889	-0.436
Mof_C 	C 	0.0789	0.2424	0.3277	0.266
Mof_C 	C 	0.0769	0.2489	0.2627	0.076
Mof_C 	C 	0.0735	0.3065	0.2392	-0.202
Mof_H 	H 	0.0715	0.3408	0.2627	0.156
Mof_C 	C 	0.0732	0.3122	0.1802	0.229
Mof_N 	N 	0.0255	0.374	0.1556	-0.032
Mof_O 	O 	0.0619	0.3829	0.1052	-0.009
Mof_O 	O 	0.9566	0.4143	0.1861	-0.047
Mof_C 	C 	0.076	0.2633	0.143	-0.294
Mof_C 	C 	0.0791	0.2044	0.1679	0.148
Mof_H 	H 	0.0805	0.1699	0.1447	-0.045
Mof_C 	C 	0.0799	0.1987	0.2281	-0.176
Mof_H 	H 	0.0826	0.1602	0.2447	0.112
Mof_C 	C 	0.0743	0.2665	0.07929	0.6
Mof_O 	O 	0.9155	0.2733	0.05331	-0.705
Mof_O 	O 	0.2257	0.25844	0.05246	-0.753
Mof_O 	O 	0.7938	0.14774	0.0374	-0.613
Mof_O 	O 	0.0469	0.16399	0.97953	-0.58
Mof_C 	C 	0.9293	0.1301	0.0066	0.518
Mof_C 	C 	0.9637	0.0626	0.0021	-0.085
Mof_C 	C 	0.0707	0.0375	0.9583	-0.188
Mof_H 	H 	0.121	0.0626	0.9293	0.339
Mof_C 	C 	0.8934	0.0247	0.0441	0.088
Mof_H 	H 	0.8213	0.0407	0.0743	0.022
Mof_N 	N 	0.1302	0.3738	0.1568	-0.002
Mof_O 	O 	0.1552	0.3793	0.1049	-0.111
Mof_O 	O 	0.1311	0.4177	0.1898	-0.062
Mof_N 	N 	0.12	0.0705	0.9009	-0.25
Mof_O 	O 	0.001	0.0806	0.8667	-0.018
Mof_O 	O 	0.283	0.0811	0.8965	-0.068
Mof_Nd	Nd	0.4223	0.76806	0.94996	2.587
Mof_O 	O 	0.4082	0.69006	0.35052	-0.472
Mof_O 	O 	0.4334	0.789	0.35889	-0.435
Mof_C 	C 	0.4211	0.7424	0.3277	0.267
Mof_C 	C 	0.4231	0.7489	0.2627	0.079
Mof_C 	C 	0.4265	0.8065	0.2392	-0.201
Mof_H 	H 	0.4285	0.8408	0.2627	0.158
Mof_C 	C 	0.4268	0.8122	0.1802	0.232
Mof_N 	N 	0.4745	0.874	0.1556	-0.029
Mof_O 	O 	0.4381	0.8829	0.1052	-0.011
Mof_O 	O 	0.5434	0.9143	0.1861	-0.051
Mof_C 	C 	0.424	0.7633	0.143	-0.294
Mof_C 	C 	0.4209	0.7044	0.1679	0.151
Mof_H 	H 	0.4195	0.6699	0.1447	-0.044
Mof_C 	C 	0.4201	0.6987	0.2281	-0.175
Mof_H 	H 	0.4174	0.6602	0.2447	0.113
Mof_C 	C 	0.4257	0.7665	0.07929	0.606
Mof_O 	O 	0.5845	0.7733	0.05331	-0.711
Mof_O 	O 	0.2743	0.75844	0.05246	-0.751
Mof_O 	O 	0.7062	0.64774	0.0374	-0.612
Mof_O 	O 	0.4531	0.66399	0.97953	-0.576
Mof_C 	C 	0.5707	0.6301	0.0066	0.513
Mof_C 	C 	0.5363	0.5626	0.0021	-0.085
Mof_C 	C 	0.4293	0.5375	0.9583	-0.186
Mof_H 	H 	0.379	0.5626	0.9293	0.339
Mof_C 	C 	0.6066	0.5247	0.0441	0.088
Mof_H 	H 	0.6787	0.5407	0.0743	0.022
Mof_N 	N 	0.3698	0.8738	0.1568	-0.004
Mof_O 	O 	0.3448	0.8793	0.1049	-0.108
Mof_O 	O 	0.3689	0.9177	0.1898	-0.059
Mof_N 	N 	0.38	0.5705	0.9009	-0.25
Mof_O 	O 	0.499	0.5806	0.8667	-0.015
Mof_O 	O 	0.217	0.5811	0.8965	-0.067
Mof_Nd	Nd	0.0777	0.23194	0.44996	2.576
Mof_O 	O 	0.0918	0.30994	0.85052	-0.473
Mof_O 	O 	0.0666	0.211	0.85889	-0.436
Mof_C 	C 	0.0789	0.2576	0.8277	0.266
Mof_C 	C 	0.0769	0.2511	0.7627	0.076
Mof_C 	C 	0.0735	0.1935	0.7392	-0.202
Mof_H 	H 	0.0715	0.1592	0.7627	0.156
Mof_C 	C 	0.0732	0.1878	0.6802	0.229
Mof_N 	N 	0.0255	0.126	0.6556	-0.033
Mof_O 	O 	0.0619	0.1171	0.6052	-0.01
Mof_O 	O 	0.9566	0.0857	0.6861	-0.044
Mof_C 	C 	0.076	0.2367	0.643	-0.294
Mof_C 	C 	0.0791	0.2956	0.6679	0.148
Mof_H 	H 	0.0805	0.3301	0.6447	-0.045
Mof_C 	C 	0.0799	0.3013	0.7281	-0.175
Mof_H 	H 	0.0826	0.3398	0.7447	0.112
Mof_C 	C 	0.0743	0.2335	0.57929	0.598
Mof_O 	O 	0.9155	0.2267	0.55331	-0.704
Mof_O 	O 	0.2257	0.24156	0.55246	-0.753
Mof_O 	O 	0.7938	0.35226	0.5374	-0.613
Mof_O 	O 	0.0469	0.33601	0.47953	-0.58
Mof_C 	C 	0.9293	0.3699	0.5066	0.518
Mof_C 	C 	0.9637	0.4374	0.5021	-0.084
Mof_C 	C 	0.0707	0.4625	0.4583	-0.189
Mof_H 	H 	0.121	0.4374	0.4293	0.34
Mof_C 	C 	0.8934	0.4753	0.5441	0.089
Mof_H 	H 	0.8213	0.4593	0.5743	0.022
Mof_N 	N 	0.1302	0.1262	0.6568	-0.001
Mof_O 	O 	0.1552	0.1207	0.6049	-0.111
Mof_O 	O 	0.1311	0.0823	0.6898	-0.064
Mof_N 	N 	0.12	0.4295	0.4009	-0.25
Mof_O 	O 	0.001	0.4194	0.3667	-0.017
Mof_O 	O 	0.283	0.4189	0.3965	-0.068
Mof_Nd	Nd	0.5777	0.26806	0.55004	2.588
Mof_O 	O 	0.5918	0.19006	0.14948	-0.472
Mof_O 	O 	0.5666	0.289	0.14111	-0.435
Mof_C 	C 	0.5789	0.2424	0.1723	0.267
Mof_C 	C 	0.5769	0.2489	0.2373	0.079
Mof_C 	C 	0.5735	0.3065	0.2608	-0.201
Mof_H 	H 	0.5715	0.3408	0.2373	0.158
Mof_C 	C 	0.5732	0.3122	0.3198	0.232
Mof_N 	N 	0.5255	0.374	0.3444	-0.029
Mof_O 	O 	0.5619	0.3829	0.3948	-0.01
Mof_O 	O 	0.4566	0.4143	0.3139	-0.051
Mof_C 	C 	0.576	0.2633	0.357	-0.294
Mof_C 	C 	0.5791	0.2044	0.3321	0.151
Mof_H 	H 	0.5805	0.1699	0.3553	-0.044
Mof_C 	C 	0.5799	0.1987	0.2719	-0.175
Mof_H 	H 	0.5826	0.1602	0.2553	0.113
Mof_C 	C 	0.5743	0.2665	0.42071	0.606
Mof_O 	O 	0.4155	0.2733	0.44669	-0.711
Mof_O 	O 	0.7257	0.25844	0.44754	-0.752
Mof_O 	O 	0.2938	0.14774	0.4626	-0.612
Mof_O 	O 	0.5469	0.16399	0.52047	-0.576
Mof_C 	C 	0.4293	0.1301	0.4934	0.512
Mof_C 	C 	0.4637	0.0626	0.4979	-0.085
Mof_C 	C 	0.5707	0.0375	0.5417	-0.186
Mof_H 	H 	0.621	0.0626	0.5707	0.339
Mof_C 	C 	0.3934	0.0247	0.4559	0.087
Mof_H 	H 	0.3213	0.0407	0.4257	0.022
Mof_N 	N 	0.6302	0.3738	0.3432	-0.004
Mof_O 	O 	0.6552	0.3793	0.3951	-0.109
Mof_O 	O 	0.6311	0.4177	0.3102	-0.06
Mof_N 	N 	0.62	0.0705	0.5991	-0.25
Mof_O 	O 	0.501	0.0806	0.6333	-0.015
Mof_O 	O 	0.783	0.0811	0.6035	-0.066
Mof_Nd	Nd	0.9223	0.73194	0.05004	2.576
Mof_O 	O 	0.9082	0.80994	0.64948	-0.473
Mof_O 	O 	0.9334	0.711	0.64111	-0.436
Mof_C 	C 	0.9211	0.7576	0.6723	0.266
Mof_C 	C 	0.9231	0.7511	0.7373	0.076
Mof_C 	C 	0.9265	0.6935	0.7608	-0.202
Mof_H 	H 	0.9285	0.6592	0.7373	0.156
Mof_C 	C 	0.9268	0.6878	0.8198	0.229
Mof_N 	N 	0.9745	0.626	0.8444	-0.032
Mof_O 	O 	0.9381	0.6171	0.8948	-0.009
Mof_O 	O 	0.0434	0.5857	0.8139	-0.047
Mof_C 	C 	0.924	0.7367	0.857	-0.294
Mof_C 	C 	0.9209	0.7956	0.8321	0.148
Mof_H 	H 	0.9195	0.8301	0.8553	-0.045
Mof_C 	C 	0.9201	0.8013	0.7719	-0.176
Mof_H 	H 	0.9174	0.8398	0.7553	0.112
Mof_C 	C 	0.9257	0.7335	0.92071	0.6
Mof_O 	O 	0.0845	0.7267	0.94669	-0.705
Mof_O 	O 	0.7743	0.74156	0.94754	-0.753
Mof_O 	O 	0.2062	0.85226	0.9626	-0.613
Mof_O 	O 	0.9531	0.83601	0.02047	-0.58
Mof_C 	C 	0.0707	0.8699	0.9934	0.518
Mof_C 	C 	0.0363	0.9374	0.9979	-0.085
Mof_C 	C 	0.9293	0.9625	0.0417	-0.188
Mof_H 	H 	0.879	0.9374	0.0707	0.339
Mof_C 	C 	0.1066	0.9753	0.9559	0.088
Mof_H 	H 	0.1787	0.9593	0.9257	0.022
Mof_N 	N 	0.8698	0.6262	0.8432	-0.002
Mof_O 	O 	0.8448	0.6207	0.8951	-0.111
Mof_O 	O 	0.8689	0.5823	0.8102	-0.062
Mof_N 	N 	0.88	0.9295	0.0991	-0.25
Mof_O 	O 	0.999	0.9194	0.1333	-0.018
Mof_O 	O 	0.717	0.9189	0.1035	-0.068
_end
