data_functionalizedCrystal
_audit_creation_method	'EQeq! by Chris Wilmer'
_symmetry_space_group_name_H-M	'P1'
_symmetry_Int_Tables_number	1
_symmetry_cell_setting	triclinic
loop_
_symmetry_equiv_pos_as_xyz
  x,y,z
_cell_length_a	18.542
_cell_length_b	18.542
_cell_length_c	6.8114
_cell_angle_alpha	90
_cell_angle_beta	90
_cell_angle_gamma	120
loop_
_atom_site_label
_atom_site_type_symbol
_atom_site_fract_x
_atom_site_fract_y
_atom_site_fract_z
_atom_site_charge
Mof_O 	O 	0.4404	0.4104	0.2493	-0.404
Mof_O 	O 	0.4816	0.372	0.9828	-0.399
Mof_O 	O 	0.2924	0.086	0.7717	-0.24
Mof_C 	C 	0.4502	0.3585	0.1518	0.364
Mof_C 	C 	0.4239	0.2761	0.2438	-0.121
Mof_C 	C 	0.3823	0.2554	0.424	0.045
Mof_C 	C 	0.2488	0.0563	0.951	-0.046
Mof_H 	H 	0.3781	0.2971	0.4982	0.05
Mof_H 	H 	0.279	0.0918	0.061	0.054
Mof_H 	H 	0.1951	0.0528	0.9486	0.045
Mof_O 	O 	0.5896	0.03	0.2493	-0.407
Mof_O 	O 	0.628	0.1096	0.9828	-0.398
Mof_O 	O 	0.914	0.2064	0.7717	-0.237
Mof_C 	C 	0.6415	0.0917	0.1518	0.364
Mof_C 	C 	0.7239	0.1478	0.2438	-0.121
Mof_C 	C 	0.7446	0.1269	0.424	0.047
Mof_C 	C 	0.9437	0.1925	0.951	-0.045
Mof_H 	H 	0.7029	0.081	0.4982	0.049
Mof_H 	H 	0.9082	0.1872	0.061	0.055
Mof_H 	H 	0.9472	0.1423	0.9486	0.049
Mof_O 	O 	0.97	0.5596	0.2493	-0.4
Mof_O 	O 	0.8904	0.5184	0.9828	-0.396
Mof_O 	O 	0.7936	0.7076	0.7717	-0.228
Mof_C 	C 	0.9083	0.5498	0.1518	0.363
Mof_C 	C 	0.8522	0.5761	0.2438	-0.118
Mof_C 	C 	0.8731	0.6177	0.424	0.045
Mof_C 	C 	0.8075	0.7512	0.951	-0.089
Mof_H 	H 	0.919	0.6219	0.4982	0.052
Mof_H 	H 	0.8128	0.721	0.061	0.068
Mof_H 	H 	0.8577	0.8049	0.9486	0.061
Mof_O 	O 	0.4104	0.4404	0.7507	-0.406
Mof_O 	O 	0.372	0.4816	0.0172	-0.414
Mof_O 	O 	0.086	0.2924	0.2283	-0.227
Mof_C 	C 	0.3585	0.4502	0.8482	0.384
Mof_C 	C 	0.2761	0.4239	0.7562	-0.126
Mof_C 	C 	0.2554	0.3823	0.576	0.048
Mof_C 	C 	0.0563	0.2488	0.049	-0.099
Mof_H 	H 	0.2971	0.3781	0.5018	0.049
Mof_H 	H 	0.0918	0.279	0.939	0.077
Mof_H 	H 	0.0528	0.1951	0.0514	0.056
Mof_O 	O 	0.03	0.5896	0.7507	-0.41
Mof_O 	O 	0.1096	0.628	0.0172	-0.414
Mof_O 	O 	0.2064	0.914	0.2283	-0.23
Mof_C 	C 	0.0917	0.6415	0.8482	0.382
Mof_C 	C 	0.1478	0.7239	0.7562	-0.126
Mof_C 	C 	0.1269	0.7446	0.576	0.049
Mof_C 	C 	0.1925	0.9437	0.049	-0.074
Mof_H 	H 	0.081	0.7029	0.5018	0.048
Mof_H 	H 	0.1872	0.9082	0.939	0.071
Mof_H 	H 	0.1423	0.9472	0.0514	0.053
Mof_O 	O 	0.5596	0.97	0.7507	-0.402
Mof_O 	O 	0.5184	0.8904	0.0172	-0.411
Mof_O 	O 	0.7076	0.7936	0.2283	-0.22
Mof_C 	C 	0.5498	0.9083	0.8482	0.382
Mof_C 	C 	0.5761	0.8522	0.7562	-0.124
Mof_C 	C 	0.6177	0.8731	0.576	0.048
Mof_C 	C 	0.7512	0.8075	0.049	-0.13
Mof_H 	H 	0.6219	0.919	0.5018	0.051
Mof_H 	H 	0.721	0.8128	0.939	0.087
Mof_H 	H 	0.8049	0.8577	0.0514	0.069
Mof_O 	O 	0.5596	0.5896	0.7507	-0.406
Mof_O 	O 	0.5184	0.628	0.0172	-0.414
Mof_O 	O 	0.7076	0.914	0.2283	-0.228
Mof_C 	C 	0.5498	0.6415	0.8482	0.383
Mof_C 	C 	0.5761	0.7239	0.7562	-0.125
Mof_C 	C 	0.6177	0.7446	0.576	0.048
Mof_C 	C 	0.7512	0.9437	0.049	-0.076
Mof_H 	H 	0.6219	0.7029	0.5018	0.049
Mof_H 	H 	0.721	0.9082	0.939	0.072
Mof_H 	H 	0.8049	0.9472	0.0514	0.054
Mof_O 	O 	0.4104	0.97	0.7507	-0.402
Mof_O 	O 	0.372	0.8904	0.0172	-0.411
Mof_O 	O 	0.086	0.7936	0.2283	-0.227
Mof_C 	C 	0.3585	0.9083	0.8482	0.381
Mof_C 	C 	0.2761	0.8522	0.7562	-0.125
Mof_C 	C 	0.2554	0.8731	0.576	0.049
Mof_C 	C 	0.0563	0.8075	0.049	-0.104
Mof_H 	H 	0.2971	0.919	0.5018	0.051
Mof_H 	H 	0.0918	0.8128	0.939	0.078
Mof_H 	H 	0.0528	0.8577	0.0514	0.06
Mof_O 	O 	0.03	0.4404	0.7507	-0.41
Mof_O 	O 	0.1096	0.4816	0.0172	-0.414
Mof_O 	O 	0.2064	0.2924	0.2283	-0.222
Mof_C 	C 	0.0917	0.4502	0.8482	0.383
Mof_C 	C 	0.1478	0.4239	0.7562	-0.127
Mof_C 	C 	0.1269	0.3823	0.576	0.048
Mof_C 	C 	0.1925	0.2488	0.049	-0.123
Mof_H 	H 	0.081	0.3781	0.5018	0.048
Mof_H 	H 	0.1872	0.279	0.939	0.085
Mof_H 	H 	0.1423	0.1951	0.0514	0.064
Mof_O 	O 	0.5896	0.5596	0.2493	-0.403
Mof_O 	O 	0.628	0.5184	0.9828	-0.398
Mof_O 	O 	0.914	0.7076	0.7717	-0.232
Mof_C 	C 	0.6415	0.5498	0.1518	0.364
Mof_C 	C 	0.7239	0.5761	0.2438	-0.119
Mof_C 	C 	0.7446	0.6177	0.424	0.045
Mof_C 	C 	0.9437	0.7512	0.951	-0.059
Mof_H 	H 	0.7029	0.6219	0.4982	0.051
Mof_H 	H 	0.9082	0.721	0.061	0.059
Mof_H 	H 	0.9472	0.8049	0.9486	0.053
Mof_O 	O 	0.97	0.4104	0.2493	-0.4
Mof_O 	O 	0.8904	0.372	0.9828	-0.396
Mof_O 	O 	0.7936	0.086	0.7717	-0.24
Mof_C 	C 	0.9083	0.3585	0.1518	0.363
Mof_C 	C 	0.8522	0.2761	0.2438	-0.119
Mof_C 	C 	0.8731	0.2554	0.424	0.047
Mof_C 	C 	0.8075	0.0563	0.951	-0.041
Mof_H 	H 	0.919	0.2971	0.4982	0.052
Mof_H 	H 	0.8128	0.0918	0.061	0.052
Mof_H 	H 	0.8577	0.0528	0.9486	0.046
Mof_O 	O 	0.4404	0.03	0.2493	-0.407
Mof_O 	O 	0.4816	0.1096	0.9828	-0.399
Mof_O 	O 	0.2924	0.2064	0.7717	-0.231
Mof_C 	C 	0.4502	0.0917	0.1518	0.364
Mof_C 	C 	0.4239	0.1478	0.2438	-0.121
Mof_C 	C 	0.3823	0.1269	0.424	0.047
Mof_C 	C 	0.2488	0.1925	0.951	-0.08
Mof_H 	H 	0.3781	0.081	0.4982	0.049
Mof_H 	H 	0.279	0.1872	0.061	0.065
Mof_H 	H 	0.1951	0.1423	0.9486	0.057
Mof_Cu	Cu	0.47635	0.52365	0.156	0.909
Mof_Cu	Cu	0.47635	0.9527	0.156	0.913
Mof_Cu	Cu	0.0473	0.52365	0.156	0.907
Mof_Cu	Cu	0.52365	0.47635	0.844	0.911
Mof_Cu	Cu	0.9527	0.47635	0.844	0.914
Mof_Cu	Cu	0.52365	0.0473	0.844	0.909
Mof_C 	C 	0.3582	0.1791	0.51	-0.097
Mof_C 	C 	0.442	0.221	0.153	0.06
Mof_C 	C 	0.313	0.1565	0.698	0.29
Mof_H 	H 	0.4698	0.2349	0.0328	0.041
Mof_C 	C 	0.8209	0.1791	0.51	-0.098
Mof_C 	C 	0.779	0.221	0.153	0.06
Mof_C 	C 	0.8435	0.1565	0.698	0.294
Mof_H 	H 	0.7651	0.2349	0.0328	0.041
Mof_C 	C 	0.8209	0.6418	0.51	-0.094
Mof_C 	C 	0.779	0.558	0.153	0.058
Mof_C 	C 	0.8435	0.687	0.698	0.287
Mof_H 	H 	0.7651	0.5302	0.0328	0.042
Mof_C 	C 	0.1791	0.3582	0.49	-0.097
Mof_C 	C 	0.221	0.442	0.847	0.066
Mof_C 	C 	0.1565	0.313	0.302	0.28
Mof_H 	H 	0.2349	0.4698	0.9672	0.045
Mof_C 	C 	0.1791	0.8209	0.49	-0.097
Mof_C 	C 	0.221	0.779	0.847	0.066
Mof_C 	C 	0.1565	0.8435	0.302	0.284
Mof_H 	H 	0.2349	0.7651	0.9672	0.045
Mof_C 	C 	0.6418	0.8209	0.49	-0.095
Mof_C 	C 	0.558	0.779	0.847	0.065
Mof_C 	C 	0.687	0.8435	0.302	0.281
Mof_H 	H 	0.5302	0.7651	0.9672	0.045
Mof_H 	H 	0.2382	0	-0	0.078
Mof_H 	H 	-0	0.2382	-0	0.087
Mof_H 	H 	0.7618	0.7618	-0	0.112
Mof_H 	H 	0.7618	0	-0	0.077
Mof_H 	H 	5.6057e-17	0.7618	-0	0.093
Mof_H 	H 	0.2382	0.2382	-0	0.107
_end
