# CIF file generated by openbabel 3.1.0, see https://openbabel.org
data_I
_chemical_name_common 'image0'
_cell_length_a 10.9663
_cell_length_b 30.592
_cell_length_c 11.9322
_cell_angle_alpha 90
_cell_angle_beta 117.01
_cell_angle_gamma 90
_space_group_name_H-M_alt 'P 1'
_space_group_name_Hall 'P 1'
loop_
    _symmetry_equiv_pos_as_xyz
    x,y,z
loop_
    _atom_site_label
    _atom_site_type_symbol
    _atom_site_fract_x
    _atom_site_fract_y
    _atom_site_fract_z
    _atom_site_occupancy
    Cd1      Cd       0.72857    0.23698    0.41926    1.000
    O1       O        0.83240    0.27214    0.30420    1.000
    O2       O        0.97640    0.24518    0.48540    1.000
    O3       O        0.07830    0.28817    0.02170    1.000
    O4       O        0.30130    0.28998    0.12000    1.000
    N1       N        0.70910    0.30807    0.48360    1.000
    N2       N        0.72560    0.16700    0.34370    1.000
    N3       N        0.58100    0.01995    0.12180    1.000
    N4       N        0.60330    0.46540    0.54440    1.000
    C1       C        0.68550    0.34190    0.40590    1.000
    H1       H        0.67440    0.33670    0.32340    1.000
    C2       C        0.67650    0.38430    0.44130    1.000
    H2       H        0.65870    0.40800    0.38430    1.000
    C3       C        0.69440    0.39150    0.56340    1.000
    C4       C        0.71770    0.35750    0.64010    1.000
    H3       H        0.72930    0.36160    0.72330    1.000
    C5       C        0.72450    0.31710    0.59800    1.000
    H4       H        0.74150    0.29330    0.65450    1.000
    C6       C        0.67800    0.43270    0.63460    1.000
    H5       H        0.62830    0.42440    0.68310    1.000
    H6       H        0.76910    0.44400    0.69410    1.000
    C7       C        0.83530    0.14770    0.34330    1.000
    H7       H        0.91820    0.16380    0.37260    1.000
    C8       C        0.83240    0.10560    0.30210    1.000
    H8       H        0.91220    0.09340    0.30240    1.000
    C9       C        0.71630    0.08130    0.26090    1.000
    C10      C        0.60320    0.10140    0.25600    1.000
    H9       H        0.51820    0.08640    0.22190    1.000
    C11      C        0.61140    0.14380    0.30040    1.000
    H10      H        0.53220    0.15660    0.29960    1.000
    C12      C        0.71400    0.03400    0.21940    1.000
    H11      H        0.78280    0.03050    0.18780    1.000
    H12      H        0.74110    0.01460    0.29340    1.000
    C13      C        0.95190    0.26836    0.39050    1.000
    C14      C        0.06690    0.29319    0.38030    1.000
    C15      C        0.03490    0.34246    0.37290    1.000
    H13      H        0.02860    0.35180    0.44960    1.000
    H14      H        0.94590    0.34840    0.29920    1.000
    C16      C        0.14950    0.36830    0.36100    1.000
    H15      H        0.12860    0.40030    0.35770    1.000
    C17      C        0.28300    0.35990    0.47080    1.000
    H16      H        0.27950    0.36920    0.54880    1.000
    H17      H        0.35540    0.37700    0.46290    1.000
    C18      C        0.20660    0.28470    0.49240    1.000
    H18      H        0.20390    0.29310    0.57140    1.000
    H19      H        0.22870    0.25310    0.49710    1.000
    C19      C        0.31600    0.31110    0.47780    1.000
    H20      H        0.40680    0.30550    0.55170    1.000
    C20      C        0.18640    0.29368    0.11970    1.000
    C21      C        0.07220    0.27981    0.25820    1.000
    H21      H        0.98240    0.28550    0.18520    1.000
    H22      H        0.09140    0.24810    0.26030    1.000
    C22      C        0.32250    0.29760    0.35710    1.000
    H23      H        0.39470    0.31450    0.34860    1.000
    H24      H        0.34610    0.26620    0.36140    1.000
    C23      C        0.18480    0.30576    0.24310    1.000
    C24      C        0.61900    0.50450    0.62200    1.000
    H25      H        0.71730    0.51150    0.67390    1.000
    H26      H        0.57690    0.49970    0.67890    1.000
    C25      C        0.45620    0.45680    0.47390    1.000
    H27      H        0.41660    0.45370    0.53330    1.000
    H28      H        0.44150    0.42900    0.42710    1.000
    C26      C        0.55240    0.04180    0.00300    1.000
    H29      H        0.62470    0.03450    0.97810    1.000
    H30      H        0.55220    0.07390    0.01390    1.000
    C27      C        0.58520    0.97280    0.09850    1.000
    H31      H        0.60800    0.95630    0.17690    1.000
    H32      H        0.65690    0.96680    0.07190    1.000
    C28      C        0.15040    0.35530    0.23870    1.000
    H33      H        0.21960    0.37270    0.22660    1.000
    H34      H        0.05960    0.36110    0.16720    1.000
    C29      C        0.72600    0.44570    0.58680    1.000
    H35      H        0.78330    0.45200    0.67730    1.000
    H36      H        0.77540    0.45620    0.53970    1.000
    C30      C        0.62700    0.51330    0.59700    1.000
    H37      H        0.66340    0.53200    0.55120    1.000
    H38      H        0.69330    0.51360    0.68770    1.000
    C31      C        0.51950    0.47000    0.42410    1.000
    H39      H        0.50940    0.44160    0.38100    1.000
    H40      H        0.55860    0.49120    0.38650    1.000
    Cd2      Cd       0.77143    0.73698    0.08074    1.000
    O5       O        0.66760    0.77214    0.19580    1.000
    O6       O        0.52360    0.74518    0.01460    1.000
    O7       O        0.42170    0.78817    0.47830    1.000
    O8       O        0.19870    0.78998    0.38000    1.000
    N5       N        0.79090    0.80807    0.01640    1.000
    N6       N        0.77440    0.66700    0.15630    1.000
    N7       N        0.91900    0.51995    0.37820    1.000
    N8       N        0.89670    0.96540    0.95560    1.000
    C32      C        0.81450    0.84190    0.09410    1.000
    H41      H        0.82560    0.83670    0.17660    1.000
    C33      C        0.82350    0.88430    0.05870    1.000
    H42      H        0.84130    0.90800    0.11570    1.000
    C34      C        0.80560    0.89150    0.93660    1.000
    C35      C        0.78230    0.85750    0.85990    1.000
    H43      H        0.77070    0.86160    0.77670    1.000
    C36      C        0.77550    0.81710    0.90200    1.000
    H44      H        0.75850    0.79330    0.84550    1.000
    C37      C        0.82200    0.93270    0.86540    1.000
    H45      H        0.87170    0.92440    0.81690    1.000
    H46      H        0.73090    0.94400    0.80590    1.000
    C38      C        0.66470    0.64770    0.15670    1.000
    H47      H        0.58180    0.66380    0.12740    1.000
    C39      C        0.66760    0.60560    0.19790    1.000
    H48      H        0.58780    0.59340    0.19760    1.000
    C40      C        0.78370    0.58130    0.23910    1.000
    C41      C        0.89680    0.60140    0.24400    1.000
    H49      H        0.98180    0.58640    0.27810    1.000
    C42      C        0.88860    0.64380    0.19960    1.000
    H50      H        0.96780    0.65660    0.20040    1.000
    C43      C        0.78600    0.53400    0.28060    1.000
    H51      H        0.71720    0.53050    0.31220    1.000
    H52      H        0.75890    0.51460    0.20660    1.000
    C44      C        0.54810    0.76836    0.10950    1.000
    C45      C        0.43310    0.79319    0.11970    1.000
    C46      C        0.46510    0.84246    0.12710    1.000
    H53      H        0.47140    0.85180    0.05040    1.000
    H54      H        0.55410    0.84840    0.20080    1.000
    C47      C        0.35050    0.86830    0.13900    1.000
    H55      H        0.37140    0.90030    0.14230    1.000
    C48      C        0.21700    0.85990    0.02920    1.000
    H56      H        0.22050    0.86920    0.95120    1.000
    H57      H        0.14460    0.87700    0.03710    1.000
    C49      C        0.29340    0.78470    0.00760    1.000
    H58      H        0.29610    0.79310    0.92860    1.000
    H59      H        0.27130    0.75310    0.00290    1.000
    C50      C        0.18400    0.81110    0.02220    1.000
    H60      H        0.09320    0.80550    0.94830    1.000
    C51      C        0.31360    0.79368    0.38030    1.000
    C52      C        0.42780    0.77981    0.24180    1.000
    H61      H        0.51760    0.78550    0.31480    1.000
    H62      H        0.40860    0.74810    0.23970    1.000
    C53      C        0.17750    0.79760    0.14290    1.000
    H63      H        0.10530    0.81450    0.15140    1.000
    H64      H        0.15390    0.76620    0.13860    1.000
    C54      C        0.31520    0.80576    0.25690    1.000
    C55      C        0.88100    0.00450    0.87800    1.000
    H65      H        0.78270    0.01150    0.82610    1.000
    H66      H        0.92310    0.99970    0.82110    1.000
    C56      C        0.04380    0.95680    0.02610    1.000
    H67      H        0.08340    0.95370    0.96670    1.000
    H68      H        0.05850    0.92900    0.07290    1.000
    C57      C        0.94760    0.54180    0.49700    1.000
    H69      H        0.87530    0.53450    0.52190    1.000
    H70      H        0.94780    0.57390    0.48610    1.000
    C58      C        0.91480    0.47280    0.40150    1.000
    H71      H        0.89200    0.45630    0.32310    1.000
    H72      H        0.84310    0.46680    0.42810    1.000
    C59      C        0.34960    0.85530    0.26130    1.000
    H73      H        0.28040    0.87270    0.27340    1.000
    H74      H        0.44040    0.86110    0.33280    1.000
    C60      C        0.77400    0.94570    0.91320    1.000
    H75      H        0.71670    0.95200    0.82270    1.000
    H76      H        0.72460    0.95620    0.96030    1.000
    C61      C        0.87300    0.01330    0.90300    1.000
    H77      H        0.83660    0.03200    0.94880    1.000
    H78      H        0.80670    0.01360    0.81230    1.000
    C62      C        0.98050    0.97000    0.07590    1.000
    H79      H        0.99060    0.94160    0.11900    1.000
    H80      H        0.94140    0.99120    0.11350    1.000
    Cd3      Cd       0.27143    0.76302    0.58074    1.000
    O9       O        0.16760    0.72786    0.69580    1.000
    O10      O        0.02360    0.75482    0.51460    1.000
    O11      O        0.92170    0.71183    0.97830    1.000
    O12      O        0.69870    0.71002    0.88000    1.000
    N9       N        0.29090    0.69193    0.51640    1.000
    N10      N        0.27440    0.83300    0.65630    1.000
    N11      N        0.41900    0.98005    0.87820    1.000
    N12      N        0.39670    0.53460    0.45560    1.000
    C63      C        0.31450    0.65810    0.59410    1.000
    H81      H        0.32560    0.66330    0.67660    1.000
    C64      C        0.32350    0.61570    0.55870    1.000
    H82      H        0.34130    0.59200    0.61570    1.000
    C65      C        0.30560    0.60850    0.43660    1.000
    C66      C        0.28230    0.64250    0.35990    1.000
    H83      H        0.27070    0.63840    0.27670    1.000
    C67      C        0.27550    0.68290    0.40200    1.000
    H84      H        0.25850    0.70670    0.34550    1.000
    C68      C        0.32200    0.56730    0.36540    1.000
    H85      H        0.37170    0.57560    0.31690    1.000
    H86      H        0.23090    0.55600    0.30590    1.000
    C69      C        0.16470    0.85230    0.65670    1.000
    H87      H        0.08180    0.83620    0.62740    1.000
    C70      C        0.16760    0.89440    0.69790    1.000
    H88      H        0.08780    0.90660    0.69760    1.000
    C71      C        0.28370    0.91870    0.73910    1.000
    C72      C        0.39680    0.89860    0.74400    1.000
    H89      H        0.48180    0.91360    0.77810    1.000
    C73      C        0.38860    0.85620    0.69960    1.000
    H90      H        0.46780    0.84340    0.70040    1.000
    C74      C        0.28600    0.96600    0.78060    1.000
    H91      H        0.21720    0.96950    0.81220    1.000
    H92      H        0.25890    0.98540    0.70660    1.000
    C75      C        0.04810    0.73164    0.60950    1.000
    C76      C        0.93310    0.70681    0.61970    1.000
    C77      C        0.96510    0.65754    0.62710    1.000
    H93      H        0.97140    0.64820    0.55040    1.000
    H94      H        0.05410    0.65160    0.70080    1.000
    C78      C        0.85050    0.63170    0.63900    1.000
    H95      H        0.87140    0.59970    0.64230    1.000
    C79      C        0.71700    0.64010    0.52920    1.000
    H96      H        0.72050    0.63080    0.45120    1.000
    H97      H        0.64460    0.62300    0.53710    1.000
    C80      C        0.79340    0.71530    0.50760    1.000
    H98      H        0.79610    0.70690    0.42860    1.000
    H99      H        0.77130    0.74690    0.50290    1.000
    C81      C        0.68400    0.68890    0.52220    1.000
    H100     H        0.59320    0.69450    0.44830    1.000
    C82      C        0.81360    0.70632    0.88030    1.000
    C83      C        0.92780    0.72019    0.74180    1.000
    H101     H        0.01760    0.71450    0.81480    1.000
    H102     H        0.90860    0.75190    0.73970    1.000
    C84      C        0.67750    0.70240    0.64290    1.000
    H103     H        0.60530    0.68550    0.65140    1.000
    H104     H        0.65390    0.73380    0.63860    1.000
    C85      C        0.81520    0.69424    0.75690    1.000
    C86      C        0.38100    0.49550    0.37800    1.000
    H105     H        0.28270    0.48850    0.32610    1.000
    H106     H        0.42310    0.50030    0.32110    1.000
    C87      C        0.54380    0.54320    0.52610    1.000
    H107     H        0.58340    0.54630    0.46670    1.000
    H108     H        0.55850    0.57100    0.57290    1.000
    C88      C        0.44760    0.95820    0.99700    1.000
    H109     H        0.37530    0.96550    0.02190    1.000
    H110     H        0.44780    0.92610    0.98610    1.000
    C89      C        0.41480    0.02720    0.90150    1.000
    H111     H        0.39200    0.04370    0.82310    1.000
    H112     H        0.34310    0.03320    0.92810    1.000
    C90      C        0.84960    0.64470    0.76130    1.000
    H113     H        0.78040    0.62730    0.77340    1.000
    H114     H        0.94040    0.63890    0.83280    1.000
    C91      C        0.27400    0.55430    0.41320    1.000
    H115     H        0.21670    0.54800    0.32270    1.000
    H116     H        0.22460    0.54380    0.46030    1.000
    C92      C        0.37300    0.48670    0.40300    1.000
    H117     H        0.33660    0.46800    0.44880    1.000
    H118     H        0.30670    0.48640    0.31230    1.000
    C93      C        0.48050    0.53000    0.57590    1.000
    H119     H        0.49060    0.55840    0.61900    1.000
    H120     H        0.44140    0.50880    0.61350    1.000
    Cd4      Cd       0.22857    0.26302    0.91926    1.000
    O13      O        0.33240    0.22786    0.80420    1.000
    O14      O        0.47640    0.25482    0.98540    1.000
    O15      O        0.57830    0.21183    0.52170    1.000
    O16      O        0.80130    0.21002    0.62000    1.000
    N13      N        0.20910    0.19193    0.98360    1.000
    N14      N        0.22560    0.33300    0.84370    1.000
    N15      N        0.08100    0.48005    0.62180    1.000
    N16      N        0.10330    0.03460    0.04440    1.000
    C94      C        0.18550    0.15810    0.90590    1.000
    H121     H        0.17440    0.16330    0.82340    1.000
    C95      C        0.17650    0.11570    0.94130    1.000
    H122     H        0.15870    0.09200    0.88430    1.000
    C96      C        0.19440    0.10850    0.06340    1.000
    C97      C        0.21770    0.14250    0.14010    1.000
    H123     H        0.22930    0.13840    0.22330    1.000
    C98      C        0.22450    0.18290    0.09800    1.000
    H124     H        0.24150    0.20670    0.15450    1.000
    C99      C        0.17800    0.06730    0.13460    1.000
    H125     H        0.12830    0.07560    0.18310    1.000
    H126     H        0.26910    0.05600    0.19410    1.000
    C100     C        0.33530    0.35230    0.84330    1.000
    H127     H        0.41820    0.33620    0.87260    1.000
    C101     C        0.33240    0.39440    0.80210    1.000
    H128     H        0.41220    0.40660    0.80240    1.000
    C102     C        0.21630    0.41870    0.76090    1.000
    C103     C        0.10320    0.39860    0.75600    1.000
    H129     H        0.01820    0.41360    0.72190    1.000
    C104     C        0.11140    0.35620    0.80040    1.000
    H130     H        0.03220    0.34340    0.79960    1.000
    C105     C        0.21400    0.46600    0.71940    1.000
    H131     H        0.28280    0.46950    0.68780    1.000
    H132     H        0.24110    0.48540    0.79340    1.000
    C106     C        0.45190    0.23164    0.89050    1.000
    C107     C        0.56690    0.20681    0.88030    1.000
    C108     C        0.53490    0.15754    0.87290    1.000
    H133     H        0.52860    0.14820    0.94960    1.000
    H134     H        0.44590    0.15160    0.79920    1.000
    C109     C        0.64950    0.13170    0.86100    1.000
    H135     H        0.62860    0.09970    0.85770    1.000
    C110     C        0.78300    0.14010    0.97080    1.000
    H136     H        0.77950    0.13080    0.04880    1.000
    H137     H        0.85540    0.12300    0.96290    1.000
    C111     C        0.70660    0.21530    0.99240    1.000
    H138     H        0.70390    0.20690    0.07140    1.000
    H139     H        0.72870    0.24690    0.99710    1.000
    C112     C        0.81600    0.18890    0.97780    1.000
    H140     H        0.90680    0.19450    0.05170    1.000
    C113     C        0.68640    0.20632    0.61970    1.000
    C114     C        0.57220    0.22019    0.75820    1.000
    H141     H        0.48240    0.21450    0.68520    1.000
    H142     H        0.59140    0.25190    0.76030    1.000
    C115     C        0.82250    0.20240    0.85710    1.000
    H143     H        0.89470    0.18550    0.84860    1.000
    H144     H        0.84610    0.23380    0.86140    1.000
    C116     C        0.68480    0.19424    0.74310    1.000
    C117     C        0.11900    0.99550    0.12200    1.000
    H145     H        0.21730    0.98850    0.17390    1.000
    H146     H        0.07690    0.00030    0.17890    1.000
    C118     C        0.95620    0.04320    0.97390    1.000
    H147     H        0.91660    0.04630    0.03330    1.000
    H148     H        0.94150    0.07100    0.92710    1.000
    C119     C        0.05240    0.45820    0.50300    1.000
    H149     H        0.12470    0.46550    0.47810    1.000
    H150     H        0.05220    0.42610    0.51390    1.000
    C120     C        0.08520    0.52720    0.59850    1.000
    H151     H        0.10800    0.54370    0.67690    1.000
    H152     H        0.15690    0.53320    0.57190    1.000
    C121     C        0.65040    0.14470    0.73870    1.000
    H153     H        0.71960    0.12730    0.72660    1.000
    H154     H        0.55960    0.13890    0.66720    1.000
    C122     C        0.22600    0.05430    0.08680    1.000
    H155     H        0.28330    0.04800    0.17730    1.000
    H156     H        0.27540    0.04380    0.03970    1.000
    C123     C        0.12700    0.98670    0.09700    1.000
    H157     H        0.16340    0.96800    0.05120    1.000
    H158     H        0.19330    0.98640    0.18770    1.000
    C124     C        0.01950    0.03000    0.92410    1.000
    H159     H        0.00940    0.05840    0.88100    1.000
    H160     H        0.05860    0.00880    0.88650    1.000
