# CIF file generated by openbabel 3.1.0, see https://openbabel.org
data_I
_chemical_name_common 'AVUPIR_clean_h'
_cell_length_a 11.9464
_cell_length_b 11.9464
_cell_length_c 11.9464
_cell_angle_alpha 113.14
_cell_angle_beta 113.14
_cell_angle_gamma 113.14
_space_group_name_H-M_alt 'P 1'
_space_group_name_Hall 'P 1'
loop_
    _symmetry_equiv_pos_as_xyz
    x,y,z
loop_
    _atom_site_label
    _atom_site_type_symbol
    _atom_site_fract_x
    _atom_site_fract_y
    _atom_site_fract_z
    _atom_site_occupancy
    P1       P        0.22580    0.13470    0.38290    1.000
    C2       C        0.26790    0.00180    0.31350    1.000
    C3       C        0.31670    0.83080    0.34240    1.000
    C4       C        0.53020    0.14410    0.57310    1.000
    N5       N        0.37920    0.99920    0.41810    1.000
    O6       O        0.36510    0.30340    0.45530    1.000
    O7       O        0.19510    0.12850    0.49900    1.000
    O8       O        0.08680    0.07050    0.21320    1.000
    H9       H        0.31192    0.02562    0.25006    1.000
    H10      H        0.23917    0.77226    0.36697    1.000
    H11      H        0.55651    0.23910    0.56075    1.000
    H12      H        0.75121    0.24580    0.79144    1.000
    H13      H        0.50003    0.83214    0.34550    1.000
    H14      H        0.84924    0.12661    0.77958    1.000
    H15      H        0.87150    0.40997    0.76913    1.000
    P16      P        0.38290    0.22580    0.13470    1.000
    C17      C        0.31350    0.26790    0.00180    1.000
    C18      C        0.34240    0.31670    0.83080    1.000
    C19      C        0.57310    0.53020    0.14410    1.000
    N20      N        0.41810    0.37920    0.99920    1.000
    O21      O        0.45530    0.36510    0.30340    1.000
    O22      O        0.49900    0.19510    0.12850    1.000
    O23      O        0.21320    0.08680    0.07050    1.000
    H24      H        0.25006    0.31192    0.02562    1.000
    H25      H        0.36697    0.23917    0.77226    1.000
    H26      H        0.56075    0.55651    0.23910    1.000
    H27      H        0.79144    0.75121    0.24580    1.000
    H28      H        0.34550    0.50003    0.83214    1.000
    H29      H        0.77958    0.84924    0.12661    1.000
    P30      P        0.13470    0.38290    0.22580    1.000
    C31      C        0.00180    0.31350    0.26790    1.000
    C32      C        0.83080    0.34240    0.31670    1.000
    C33      C        0.14410    0.57310    0.53020    1.000
    N34      N        0.99920    0.41810    0.37920    1.000
    O35      O        0.30340    0.45530    0.36510    1.000
    O36      O        0.12850    0.49900    0.19510    1.000
    O37      O        0.07050    0.21320    0.08680    1.000
    H38      H        0.02562    0.25006    0.31192    1.000
    H39      H        0.77226    0.36697    0.23917    1.000
    H40      H        0.23910    0.56075    0.55651    1.000
    H41      H        0.24580    0.79144    0.75121    1.000
    H42      H        0.83214    0.34550    0.50003    1.000
    H43      H        0.12661    0.77958    0.84924    1.000
    H44      H        0.40997    0.76913    0.87150    1.000
    P45      P        0.77420    0.86530    0.61710    1.000
    C46      C        0.73210    0.99820    0.68650    1.000
    C47      C        0.68330    0.16920    0.65760    1.000
    C48      C        0.46980    0.85590    0.42690    1.000
    N49      N        0.62080    0.00080    0.58190    1.000
    O50      O        0.63490    0.69660    0.54470    1.000
    O51      O        0.80490    0.87150    0.50100    1.000
    O52      O        0.91320    0.92950    0.78680    1.000
    H53      H        0.68808    0.97438    0.74994    1.000
    H54      H        0.76083    0.22774    0.63303    1.000
    H55      H        0.44349    0.76090    0.43925    1.000
    H56      H        0.24879    0.75420    0.20856    1.000
    H57      H        0.49997    0.16786    0.65450    1.000
    H58      H        0.15076    0.87339    0.22042    1.000
    H59      H        0.12850    0.59003    0.23087    1.000
    P60      P        0.61710    0.77420    0.86530    1.000
    C61      C        0.68650    0.73210    0.99820    1.000
    C62      C        0.65760    0.68330    0.16920    1.000
    C63      C        0.42690    0.46980    0.85590    1.000
    N64      N        0.58190    0.62080    0.00080    1.000
    O65      O        0.54470    0.63490    0.69660    1.000
    O66      O        0.50100    0.80490    0.87150    1.000
    O67      O        0.78680    0.91320    0.92950    1.000
    H68      H        0.74994    0.68808    0.97438    1.000
    H69      H        0.63303    0.76083    0.22774    1.000
    H70      H        0.43925    0.44349    0.76090    1.000
    H71      H        0.20856    0.24879    0.75420    1.000
    H72      H        0.65450    0.49997    0.16786    1.000
    H73      H        0.22042    0.15076    0.87339    1.000
    P74      P        0.86530    0.61710    0.77420    1.000
    C75      C        0.99820    0.68650    0.73210    1.000
    C76      C        0.16920    0.65760    0.68330    1.000
    C77      C        0.85590    0.42690    0.46980    1.000
    N78      N        0.00080    0.58190    0.62080    1.000
    O79      O        0.69660    0.54470    0.63490    1.000
    O80      O        0.87150    0.50100    0.80490    1.000
    O81      O        0.92950    0.78680    0.91320    1.000
    H82      H        0.97438    0.74994    0.68808    1.000
    H83      H        0.22774    0.63303    0.76083    1.000
    H84      H        0.76090    0.43925    0.44349    1.000
    H85      H        0.75420    0.20856    0.24879    1.000
    H86      H        0.16786    0.65450    0.49997    1.000
    H87      H        0.87339    0.22042    0.15076    1.000
    H88      H        0.59003    0.23087    0.12850    1.000
    Zr89     Zr       0.00000    0.00000    0.00000    1.000
    Zr90     Zr       0.50000    0.50000    0.50000    1.000
