# CIF file generated by openbabel 3.1.0, see https://openbabel.org
data_I
_chemical_name_common 'image0'
_cell_length_a 44.998
_cell_length_b 20.613
_cell_length_c 16.1694
_cell_angle_alpha 90
_cell_angle_beta 94.777
_cell_angle_gamma 90
_space_group_name_H-M_alt 'P 1'
_space_group_name_Hall 'P 1'
loop_
    _symmetry_equiv_pos_as_xyz
    x,y,z
loop_
    _atom_site_label
    _atom_site_type_symbol
    _atom_site_fract_x
    _atom_site_fract_y
    _atom_site_fract_z
    _atom_site_occupancy
    Co1      Co       0.07871    0.17770    0.53715    1.000
    N1       N        0.08324    0.27983    0.55680    1.000
    O1       O        0.06332    0.19736    0.42024    1.000
    O2       O        0.12782    0.18089    0.53796    1.000
    O3       O        0.10575    0.15820    0.65015    1.000
    N2       N        0.10331    0.31229    0.51230    1.000
    C1       C        0.07057    0.32270    0.60030    1.000
    C2       C        0.07878    0.21820    0.36350    1.000
    Co2      Co       0.13667    0.25963    0.45512    1.000
    C3       C        0.12914    0.16900    0.61600    1.000
    C4       C        0.10155    0.37330    0.53070    1.000
    N3       N        0.08072    0.38266    0.58570    1.000
    H1       H        0.05630    0.31330    0.63700    1.000
    O4       O        0.10677    0.22052    0.36836    1.000
    C5       C        0.06199    0.24340    0.28600    1.000
    N4       N        0.16919    0.19921    0.41158    1.000
    O5       O        0.14308    0.33494    0.37464    1.000
    O6       O        0.16518    0.30204    0.54968    1.000
    C6       C        0.15867    0.16812    0.66550    1.000
    H2       H        0.11290    0.40600    0.50930    1.000
    C7       C        0.07217    0.44235    0.62170    1.000
    C8       C        0.03142    0.25590    0.28560    1.000
    C9       C        0.07664    0.25700    0.21670    1.000
    N5       N        0.19884    0.21761    0.41180    1.000
    C10      C        0.16733    0.14020    0.38390    1.000
    C11      C        0.16163    0.38000    0.36990    1.000
    C12      C        0.18770    0.31680    0.59520    1.000
    C13      C        0.15932    0.17221    0.75230    1.000
    C14      C        0.18536    0.16845    0.62780    1.000
    C15      C        0.05685    0.44120    0.69300    1.000
    H3       H        0.02150    0.24640    0.33230    1.000
    C16      C        0.01587    0.28230    0.21600    1.000
    C17      C        0.06134    0.28150    0.14580    1.000
    H4       H        0.09710    0.24970    0.21750    1.000
    Co3      Co       0.21386    0.30818    0.44757    1.000
    C18      C        0.21315    0.16866    0.38330    1.000
    N6       N        0.19430    0.11820    0.36490    1.000
    H5       H        0.14980    0.11610    0.37780    1.000
    O7       O        0.18858    0.37889    0.39949    1.000
    C19      C        0.15160    0.44170    0.32780    1.000
    O8       O        0.21346    0.32282    0.56971    1.000
    C20      C        0.18470    0.32840    0.68590    1.000
    H6       H        0.14150    0.17170    0.77780    1.000
    C21      C        0.18611    0.17695    0.80010    1.000
    C22      C        0.21223    0.17458    0.67490    1.000
    H7       H        0.18510    0.16450    0.57040    1.000
    H8       H        0.05140    0.40210    0.71630    1.000
    C23      C        0.03083    0.29400    0.14610    1.000
    C24      C        0.98271    0.29450    0.21760    1.000
    C25      C        0.07691    0.29080    0.06880    1.000
    O9       O        0.23585    0.30491    0.31836    1.000
    O10      O        0.25805    0.32303    0.44163    1.000
    H9       H        0.23350    0.16820    0.37660    1.000
    C26      C        0.20195    0.05714    0.32860    1.000
    C27      C        0.13336    0.44140    0.25450    1.000
    C28      C        0.15684    0.32902    0.71650    1.000
    C29      C        0.21018    0.33477    0.74100    1.000
    C30      C        0.21240    0.17854    0.76000    1.000
    C31      C        0.18720    0.18472    0.89220    1.000
    C32      C        0.24109    0.18240    0.63670    1.000
    H10      H        0.02040    0.31040    0.09850    1.000
    O11      O        0.97004    0.27326    0.27740    1.000
    O12      O        0.97011    0.32532    0.15687    1.000
    O13      O        0.10463    0.28194    0.07410    1.000
    O14      O        0.06123    0.30644    0.00360    1.000
    C33      C        0.21810    0.05880    0.26120    1.000
    H11      H        0.12640    0.40210    0.23210    1.000
    H12      H        0.13980    0.32440    0.68010    1.000
    C34      C        0.15396    0.33644    0.80110    1.000
    C35      C        0.20741    0.34468    0.82540    1.000
    H13      H        0.22900    0.33240    0.72140    1.000
    H14      H        0.23050    0.18240    0.79170    1.000
    O15      O        0.16419    0.19844    0.92565    1.000
    O16      O        0.21254    0.17662    0.93198    1.000
    Co4      Co       0.92681    0.32138    0.11157    1.000
    Co5      Co       0.13309    0.24190    0.99956    1.000
    H15      H        0.22330    0.09810    0.23810    1.000
    C36      C        0.17936    0.34578    0.85460    1.000
    C37      C        0.12411    0.33280    0.83480    1.000
    C38      C        0.23459    0.35010    0.88590    1.000
    Co6      Co       0.20817    0.18769    0.05171    1.000
    O17      O        0.89906    0.34031    0.21139    1.000
    O18      O        0.87716    0.31984    0.08772    1.000
    N7       N        0.92041    0.21970    0.12770    1.000
    O19      O        0.10316    0.44750    0.09170    1.000
    H16      H        0.17750    0.35290    0.91080    1.000
    O20      O        0.23473    0.38949    0.94370    1.000
    O21      O        0.25619    0.31323    0.87187    1.000
    N8       N        0.10104    0.18908    0.92410    1.000
    N9       N        0.16634    0.30053    0.05916    1.000
    O22      O        0.13664    0.16311    0.08371    1.000
    N10      N        0.19586    0.28103    0.06990    1.000
    O23      O        0.18267    0.12123    0.09209    1.000
    C39      C        0.10109    0.12830    0.90240    1.000
    C40      C        0.16539    0.36020    0.08310    1.000
    C41      C        0.15521    0.11980    0.10400    1.000
    C42      C        0.21130    0.33020    0.10060    1.000
    C43      C        0.06772    0.17620    0.82200    1.000
    N11      N        0.08036    0.11705    0.83870    1.000
    H17      H        0.11370    0.09690    0.92740    1.000
    N12      N        0.19311    0.38149    0.11050    1.000
    H18      H        0.14810    0.38520    0.08170    1.000
    C44      C        0.14543    0.05872    0.14390    1.000
    H19      H        0.23180    0.33010    0.11370    1.000
    H20      H        0.05270    0.18420    0.78040    1.000
    C45      C        0.07348    0.05750    0.79700    1.000
    C46      C        0.20198    0.44296    0.14700    1.000
    C47      C        0.12792    0.05870    0.21060    1.000
    C48      C        0.05961    0.05870    0.71860    1.000
    C49      C        0.22041    0.44200    0.21990    1.000
    H21      H        0.12120    0.09770    0.23110    1.000
    H22      H        0.05500    0.09790    0.69210    1.000
    H23      H        0.22680    0.40280    0.24360    1.000
    O24      O        0.10105    0.05333    0.36090    1.000
    Co7      Co       0.57871    0.67770    0.53715    1.000
    N13      N        0.58324    0.77983    0.55680    1.000
    O25      O        0.56332    0.69736    0.42024    1.000
    O26      O        0.62782    0.68089    0.53796    1.000
    O27      O        0.60575    0.65820    0.65015    1.000
    N14      N        0.60331    0.81229    0.51230    1.000
    C50      C        0.57057    0.82270    0.60030    1.000
    C51      C        0.57878    0.71820    0.36350    1.000
    Co8      Co       0.63667    0.75963    0.45512    1.000
    C52      C        0.62914    0.66900    0.61600    1.000
    C53      C        0.60155    0.87330    0.53070    1.000
    N15      N        0.58072    0.88266    0.58570    1.000
    H24      H        0.55630    0.81330    0.63700    1.000
    O28      O        0.60677    0.72052    0.36836    1.000
    C54      C        0.56199    0.74340    0.28600    1.000
    N16      N        0.66919    0.69921    0.41158    1.000
    O29      O        0.64308    0.83494    0.37464    1.000
    O30      O        0.66518    0.80204    0.54968    1.000
    C55      C        0.65867    0.66812    0.66550    1.000
    H25      H        0.61290    0.90600    0.50930    1.000
    C56      C        0.57217    0.94235    0.62170    1.000
    C57      C        0.53142    0.75590    0.28560    1.000
    C58      C        0.57664    0.75700    0.21670    1.000
    N17      N        0.69884    0.71761    0.41180    1.000
    C59      C        0.66733    0.64020    0.38390    1.000
    C60      C        0.66163    0.88000    0.36990    1.000
    C61      C        0.68770    0.81680    0.59520    1.000
    C62      C        0.65932    0.67221    0.75230    1.000
    C63      C        0.68536    0.66845    0.62780    1.000
    C64      C        0.55685    0.94120    0.69300    1.000
    H26      H        0.52150    0.74640    0.33230    1.000
    C65      C        0.51587    0.78230    0.21600    1.000
    C66      C        0.56134    0.78150    0.14580    1.000
    H27      H        0.59710    0.74970    0.21750    1.000
    Co9      Co       0.71386    0.80818    0.44757    1.000
    C67      C        0.71315    0.66866    0.38330    1.000
    N18      N        0.69430    0.61820    0.36490    1.000
    H28      H        0.64980    0.61610    0.37780    1.000
    O31      O        0.68858    0.87889    0.39949    1.000
    C68      C        0.65160    0.94170    0.32780    1.000
    O32      O        0.71346    0.82282    0.56971    1.000
    C69      C        0.68470    0.82840    0.68590    1.000
    H29      H        0.64150    0.67170    0.77780    1.000
    C70      C        0.68611    0.67695    0.80010    1.000
    C71      C        0.71223    0.67458    0.67490    1.000
    H30      H        0.68510    0.66450    0.57040    1.000
    H31      H        0.55140    0.90210    0.71630    1.000
    C72      C        0.53083    0.79400    0.14610    1.000
    C73      C        0.48271    0.79450    0.21760    1.000
    C74      C        0.57691    0.79080    0.06880    1.000
    O33      O        0.73585    0.80491    0.31836    1.000
    O34      O        0.75805    0.82303    0.44163    1.000
    H32      H        0.73350    0.66820    0.37660    1.000
    C75      C        0.70195    0.55714    0.32860    1.000
    C76      C        0.63336    0.94140    0.25450    1.000
    C77      C        0.65684    0.82902    0.71650    1.000
    C78      C        0.71018    0.83477    0.74100    1.000
    C79      C        0.71240    0.67854    0.76000    1.000
    C80      C        0.68720    0.68472    0.89220    1.000
    C81      C        0.74109    0.68240    0.63670    1.000
    H33      H        0.52040    0.81040    0.09850    1.000
    O35      O        0.47004    0.77326    0.27740    1.000
    O36      O        0.47011    0.82532    0.15687    1.000
    O37      O        0.60463    0.78194    0.07410    1.000
    O38      O        0.56123    0.80644    0.00360    1.000
    C82      C        0.71810    0.55880    0.26120    1.000
    H34      H        0.62640    0.90210    0.23210    1.000
    H35      H        0.63980    0.82440    0.68010    1.000
    C83      C        0.65396    0.83644    0.80110    1.000
    C84      C        0.70741    0.84468    0.82540    1.000
    H36      H        0.72900    0.83240    0.72140    1.000
    H37      H        0.73050    0.68240    0.79170    1.000
    O39      O        0.66419    0.69844    0.92565    1.000
    O40      O        0.71254    0.67662    0.93198    1.000
    Co10     Co       0.42681    0.82138    0.11157    1.000
    Co11     Co       0.63309    0.74190    0.99956    1.000
    H38      H        0.72330    0.59810    0.23810    1.000
    C85      C        0.67936    0.84578    0.85460    1.000
    C86      C        0.62411    0.83280    0.83480    1.000
    C87      C        0.73459    0.85010    0.88590    1.000
    Co12     Co       0.70817    0.68769    0.05171    1.000
    O41      O        0.39906    0.84031    0.21139    1.000
    O42      O        0.37716    0.81984    0.08772    1.000
    N19      N        0.42041    0.71970    0.12770    1.000
    O43      O        0.60316    0.94750    0.09170    1.000
    H39      H        0.67750    0.85290    0.91080    1.000
    O44      O        0.73473    0.88949    0.94370    1.000
    O45      O        0.75619    0.81323    0.87187    1.000
    N20      N        0.60104    0.68908    0.92410    1.000
    N21      N        0.66634    0.80053    0.05916    1.000
    O46      O        0.63664    0.66311    0.08371    1.000
    N22      N        0.69586    0.78103    0.06990    1.000
    O47      O        0.68267    0.62123    0.09209    1.000
    C88      C        0.60109    0.62830    0.90240    1.000
    C89      C        0.66539    0.86020    0.08310    1.000
    C90      C        0.65521    0.61980    0.10400    1.000
    C91      C        0.71130    0.83020    0.10060    1.000
    C92      C        0.56772    0.67620    0.82200    1.000
    N23      N        0.58036    0.61705    0.83870    1.000
    H40      H        0.61370    0.59690    0.92740    1.000
    N24      N        0.69311    0.88149    0.11050    1.000
    H41      H        0.64810    0.88520    0.08170    1.000
    C93      C        0.64543    0.55872    0.14390    1.000
    H42      H        0.73180    0.83010    0.11370    1.000
    H43      H        0.55270    0.68420    0.78040    1.000
    C94      C        0.57348    0.55750    0.79700    1.000
    C95      C        0.70198    0.94296    0.14700    1.000
    C96      C        0.62792    0.55870    0.21060    1.000
    C97      C        0.55961    0.55870    0.71860    1.000
    C98      C        0.72041    0.94200    0.21990    1.000
    H44      H        0.62120    0.59770    0.23110    1.000
    H45      H        0.55500    0.59790    0.69210    1.000
    H46      H        0.72680    0.90280    0.24360    1.000
    O48      O        0.60105    0.55333    0.36090    1.000
    Co13     Co       0.92129    0.17770    0.46285    1.000
    N25      N        0.91676    0.27983    0.44320    1.000
    O49      O        0.93668    0.19736    0.57976    1.000
    O50      O        0.87218    0.18089    0.46204    1.000
    O51      O        0.89425    0.15820    0.34985    1.000
    N26      N        0.89669    0.31229    0.48770    1.000
    C99      C        0.92943    0.32270    0.39970    1.000
    C100     C        0.92122    0.21820    0.63650    1.000
    Co14     Co       0.86333    0.25963    0.54488    1.000
    C101     C        0.87086    0.16900    0.38400    1.000
    C102     C        0.89845    0.37330    0.46930    1.000
    N27      N        0.91928    0.38266    0.41430    1.000
    H47      H        0.94370    0.31330    0.36300    1.000
    O52      O        0.89323    0.22052    0.63164    1.000
    C103     C        0.93801    0.24340    0.71400    1.000
    N28      N        0.83081    0.19921    0.58842    1.000
    O53      O        0.85692    0.33494    0.62536    1.000
    O54      O        0.83482    0.30204    0.45032    1.000
    C104     C        0.84133    0.16812    0.33450    1.000
    H48      H        0.88710    0.40600    0.49070    1.000
    C105     C        0.92783    0.44235    0.37830    1.000
    C106     C        0.96858    0.25590    0.71440    1.000
    C107     C        0.92336    0.25700    0.78330    1.000
    N29      N        0.80116    0.21761    0.58820    1.000
    C108     C        0.83267    0.14020    0.61610    1.000
    C109     C        0.83837    0.38000    0.63010    1.000
    C110     C        0.81230    0.31680    0.40480    1.000
    C111     C        0.84068    0.17221    0.24770    1.000
    C112     C        0.81464    0.16845    0.37220    1.000
    C113     C        0.94315    0.44120    0.30700    1.000
    H49      H        0.97850    0.24640    0.66770    1.000
    C114     C        0.98413    0.28230    0.78400    1.000
    C115     C        0.93866    0.28150    0.85420    1.000
    H50      H        0.90290    0.24970    0.78250    1.000
    Co15     Co       0.78614    0.30818    0.55243    1.000
    C116     C        0.78685    0.16866    0.61670    1.000
    N30      N        0.80570    0.11820    0.63510    1.000
    H51      H        0.85020    0.11610    0.62220    1.000
    O55      O        0.81142    0.37889    0.60051    1.000
    C117     C        0.84840    0.44170    0.67220    1.000
    O56      O        0.78654    0.32282    0.43029    1.000
    C118     C        0.81530    0.32840    0.31410    1.000
    H52      H        0.85850    0.17170    0.22220    1.000
    C119     C        0.81389    0.17695    0.19990    1.000
    C120     C        0.78777    0.17458    0.32510    1.000
    H53      H        0.81490    0.16450    0.42960    1.000
    H54      H        0.94860    0.40210    0.28370    1.000
    C121     C        0.96917    0.29400    0.85390    1.000
    C122     C        0.01729    0.29450    0.78240    1.000
    C123     C        0.92309    0.29080    0.93120    1.000
    O57      O        0.76415    0.30491    0.68164    1.000
    O58      O        0.74195    0.32303    0.55837    1.000
    H55      H        0.76650    0.16820    0.62340    1.000
    C124     C        0.79805    0.05714    0.67140    1.000
    C125     C        0.86664    0.44140    0.74550    1.000
    C126     C        0.84316    0.32902    0.28350    1.000
    C127     C        0.78982    0.33477    0.25900    1.000
    C128     C        0.78760    0.17854    0.24000    1.000
    C129     C        0.81280    0.18472    0.10780    1.000
    C130     C        0.75891    0.18240    0.36330    1.000
    H56      H        0.97960    0.31040    0.90150    1.000
    O59      O        0.02996    0.27326    0.72260    1.000
    O60      O        0.02989    0.32532    0.84313    1.000
    O61      O        0.89537    0.28194    0.92590    1.000
    O62      O        0.93877    0.30644    0.99640    1.000
    C131     C        0.78190    0.05880    0.73880    1.000
    H57      H        0.87360    0.40210    0.76790    1.000
    H58      H        0.86020    0.32440    0.31990    1.000
    C132     C        0.84604    0.33644    0.19890    1.000
    C133     C        0.79259    0.34468    0.17460    1.000
    H59      H        0.77100    0.33240    0.27860    1.000
    H60      H        0.76950    0.18240    0.20830    1.000
    O63      O        0.83581    0.19844    0.07435    1.000
    O64      O        0.78746    0.17662    0.06802    1.000
    Co16     Co       0.07319    0.32138    0.88843    1.000
    Co17     Co       0.86691    0.24190    0.00044    1.000
    H61      H        0.77670    0.09810    0.76190    1.000
    C134     C        0.82064    0.34578    0.14540    1.000
    C135     C        0.87589    0.33280    0.16520    1.000
    C136     C        0.76541    0.35010    0.11410    1.000
    Co18     Co       0.79183    0.18769    0.94829    1.000
    O65      O        0.10094    0.34031    0.78861    1.000
    O66      O        0.12284    0.31984    0.91228    1.000
    N31      N        0.07959    0.21970    0.87230    1.000
    O67      O        0.89684    0.44750    0.90830    1.000
    H62      H        0.82250    0.35290    0.08920    1.000
    O68      O        0.76527    0.38949    0.05630    1.000
    O69      O        0.74381    0.31323    0.12813    1.000
    N32      N        0.89896    0.18908    0.07590    1.000
    N33      N        0.83366    0.30053    0.94084    1.000
    O70      O        0.86336    0.16311    0.91629    1.000
    N34      N        0.80414    0.28103    0.93010    1.000
    O71      O        0.81733    0.12123    0.90791    1.000
    C137     C        0.89891    0.12830    0.09760    1.000
    C138     C        0.83461    0.36020    0.91690    1.000
    C139     C        0.84479    0.11980    0.89600    1.000
    C140     C        0.78870    0.33020    0.89940    1.000
    C141     C        0.93228    0.17620    0.17800    1.000
    N35      N        0.91964    0.11705    0.16130    1.000
    H63      H        0.88630    0.09690    0.07260    1.000
    N36      N        0.80689    0.38149    0.88950    1.000
    H64      H        0.85190    0.38520    0.91830    1.000
    C142     C        0.85457    0.05872    0.85610    1.000
    H65      H        0.76820    0.33010    0.88630    1.000
    H66      H        0.94730    0.18420    0.21960    1.000
    C143     C        0.92652    0.05750    0.20300    1.000
    C144     C        0.79802    0.44296    0.85300    1.000
    C145     C        0.87208    0.05870    0.78940    1.000
    C146     C        0.94039    0.05870    0.28140    1.000
    C147     C        0.77959    0.44200    0.78010    1.000
    H67      H        0.87880    0.09770    0.76890    1.000
    H68      H        0.94500    0.09790    0.30790    1.000
    H69      H        0.77320    0.40280    0.75640    1.000
    O72      O        0.89895    0.05333    0.63910    1.000
    Co19     Co       0.42129    0.67770    0.46285    1.000
    N37      N        0.41676    0.77983    0.44320    1.000
    O73      O        0.43668    0.69736    0.57976    1.000
    O74      O        0.37218    0.68089    0.46204    1.000
    O75      O        0.39425    0.65820    0.34985    1.000
    N38      N        0.39669    0.81229    0.48770    1.000
    C148     C        0.42943    0.82270    0.39970    1.000
    C149     C        0.42122    0.71820    0.63650    1.000
    Co20     Co       0.36333    0.75963    0.54488    1.000
    C150     C        0.37086    0.66900    0.38400    1.000
    C151     C        0.39845    0.87330    0.46930    1.000
    N39      N        0.41928    0.88266    0.41430    1.000
    H70      H        0.44370    0.81330    0.36300    1.000
    O76      O        0.39323    0.72052    0.63164    1.000
    C152     C        0.43801    0.74340    0.71400    1.000
    N40      N        0.33081    0.69921    0.58842    1.000
    O77      O        0.35692    0.83494    0.62536    1.000
    O78      O        0.33482    0.80204    0.45032    1.000
    C153     C        0.34133    0.66812    0.33450    1.000
    H71      H        0.38710    0.90600    0.49070    1.000
    C154     C        0.42783    0.94235    0.37830    1.000
    C155     C        0.46858    0.75590    0.71440    1.000
    C156     C        0.42336    0.75700    0.78330    1.000
    N41      N        0.30116    0.71761    0.58820    1.000
    C157     C        0.33267    0.64020    0.61610    1.000
    C158     C        0.33837    0.88000    0.63010    1.000
    C159     C        0.31230    0.81680    0.40480    1.000
    C160     C        0.34068    0.67221    0.24770    1.000
    C161     C        0.31464    0.66845    0.37220    1.000
    C162     C        0.44315    0.94120    0.30700    1.000
    H72      H        0.47850    0.74640    0.66770    1.000
    C163     C        0.48413    0.78230    0.78400    1.000
    C164     C        0.43866    0.78150    0.85420    1.000
    H73      H        0.40290    0.74970    0.78250    1.000
    Co21     Co       0.28614    0.80818    0.55243    1.000
    C165     C        0.28685    0.66866    0.61670    1.000
    N42      N        0.30570    0.61820    0.63510    1.000
    H74      H        0.35020    0.61610    0.62220    1.000
    O79      O        0.31142    0.87889    0.60051    1.000
    C166     C        0.34840    0.94170    0.67220    1.000
    O80      O        0.28654    0.82282    0.43029    1.000
    C167     C        0.31530    0.82840    0.31410    1.000
    H75      H        0.35850    0.67170    0.22220    1.000
    C168     C        0.31389    0.67695    0.19990    1.000
    C169     C        0.28777    0.67458    0.32510    1.000
    H76      H        0.31490    0.66450    0.42960    1.000
    H77      H        0.44860    0.90210    0.28370    1.000
    C170     C        0.46917    0.79400    0.85390    1.000
    C171     C        0.51729    0.79450    0.78240    1.000
    C172     C        0.42309    0.79080    0.93120    1.000
    O81      O        0.26415    0.80491    0.68164    1.000
    O82      O        0.24195    0.82303    0.55837    1.000
    H78      H        0.26650    0.66820    0.62340    1.000
    C173     C        0.29805    0.55714    0.67140    1.000
    C174     C        0.36664    0.94140    0.74550    1.000
    C175     C        0.34316    0.82902    0.28350    1.000
    C176     C        0.28982    0.83477    0.25900    1.000
    C177     C        0.28760    0.67854    0.24000    1.000
    C178     C        0.31280    0.68472    0.10780    1.000
    C179     C        0.25891    0.68240    0.36330    1.000
    H79      H        0.47960    0.81040    0.90150    1.000
    O83      O        0.52996    0.77326    0.72260    1.000
    O84      O        0.52989    0.82532    0.84313    1.000
    O85      O        0.39537    0.78194    0.92590    1.000
    O86      O        0.43877    0.80644    0.99640    1.000
    C180     C        0.28190    0.55880    0.73880    1.000
    H80      H        0.37360    0.90210    0.76790    1.000
    H81      H        0.36020    0.82440    0.31990    1.000
    C181     C        0.34604    0.83644    0.19890    1.000
    C182     C        0.29259    0.84468    0.17460    1.000
    H82      H        0.27100    0.83240    0.27860    1.000
    H83      H        0.26950    0.68240    0.20830    1.000
    O87      O        0.33581    0.69844    0.07435    1.000
    O88      O        0.28746    0.67662    0.06802    1.000
    Co22     Co       0.57319    0.82138    0.88843    1.000
    Co23     Co       0.36691    0.74190    0.00044    1.000
    H84      H        0.27670    0.59810    0.76190    1.000
    C183     C        0.32064    0.84578    0.14540    1.000
    C184     C        0.37589    0.83280    0.16520    1.000
    C185     C        0.26541    0.85010    0.11410    1.000
    Co24     Co       0.29183    0.68769    0.94829    1.000
    O89      O        0.60094    0.84031    0.78861    1.000
    O90      O        0.62284    0.81984    0.91228    1.000
    N43      N        0.57959    0.71970    0.87230    1.000
    O91      O        0.39684    0.94750    0.90830    1.000
    H85      H        0.32250    0.85290    0.08920    1.000
    O92      O        0.26527    0.88949    0.05630    1.000
    O93      O        0.24381    0.81323    0.12813    1.000
    N44      N        0.39896    0.68908    0.07590    1.000
    N45      N        0.33366    0.80053    0.94084    1.000
    O94      O        0.36336    0.66311    0.91629    1.000
    N46      N        0.30414    0.78103    0.93010    1.000
    O95      O        0.31733    0.62123    0.90791    1.000
    C186     C        0.39891    0.62830    0.09760    1.000
    C187     C        0.33461    0.86020    0.91690    1.000
    C188     C        0.34479    0.61980    0.89600    1.000
    C189     C        0.28870    0.83020    0.89940    1.000
    C190     C        0.43228    0.67620    0.17800    1.000
    N47      N        0.41964    0.61705    0.16130    1.000
    H86      H        0.38630    0.59690    0.07260    1.000
    N48      N        0.30689    0.88149    0.88950    1.000
    H87      H        0.35190    0.88520    0.91830    1.000
    C191     C        0.35457    0.55872    0.85610    1.000
    H88      H        0.26820    0.83010    0.88630    1.000
    H89      H        0.44730    0.68420    0.21960    1.000
    C192     C        0.42652    0.55750    0.20300    1.000
    C193     C        0.29802    0.94296    0.85300    1.000
    C194     C        0.37208    0.55870    0.78940    1.000
    C195     C        0.44039    0.55870    0.28140    1.000
    C196     C        0.27959    0.94200    0.78010    1.000
    H90      H        0.37880    0.59770    0.76890    1.000
    H91      H        0.44500    0.59790    0.30790    1.000
    H92      H        0.27320    0.90280    0.75640    1.000
    O96      O        0.39895    0.55333    0.63910    1.000
    Co25     Co       0.92129    0.82230    0.46285    1.000
    N49      N        0.91676    0.72017    0.44320    1.000
    O97      O        0.93668    0.80264    0.57976    1.000
    O98      O        0.87218    0.81911    0.46204    1.000
    O99      O        0.89425    0.84180    0.34985    1.000
    N50      N        0.89669    0.68771    0.48770    1.000
    C197     C        0.92943    0.67730    0.39970    1.000
    C198     C        0.92122    0.78180    0.63650    1.000
    Co26     Co       0.86333    0.74037    0.54488    1.000
    C199     C        0.87086    0.83100    0.38400    1.000
    C200     C        0.89845    0.62670    0.46930    1.000
    N51      N        0.91928    0.61734    0.41430    1.000
    H93      H        0.94370    0.68670    0.36300    1.000
    O100     O        0.89323    0.77948    0.63164    1.000
    C201     C        0.93801    0.75660    0.71400    1.000
    N52      N        0.83081    0.80079    0.58842    1.000
    O101     O        0.85692    0.66506    0.62536    1.000
    O102     O        0.83482    0.69796    0.45032    1.000
    C202     C        0.84133    0.83188    0.33450    1.000
    H94      H        0.88710    0.59400    0.49070    1.000
    C203     C        0.92783    0.55765    0.37830    1.000
    C204     C        0.96858    0.74410    0.71440    1.000
    C205     C        0.92336    0.74300    0.78330    1.000
    N53      N        0.80116    0.78239    0.58820    1.000
    C206     C        0.83267    0.85980    0.61610    1.000
    C207     C        0.83837    0.62000    0.63010    1.000
    C208     C        0.81230    0.68320    0.40480    1.000
    C209     C        0.84068    0.82779    0.24770    1.000
    C210     C        0.81464    0.83155    0.37220    1.000
    C211     C        0.94315    0.55880    0.30700    1.000
    H95      H        0.97850    0.75360    0.66770    1.000
    C212     C        0.98413    0.71770    0.78400    1.000
    C213     C        0.93866    0.71850    0.85420    1.000
    H96      H        0.90290    0.75030    0.78250    1.000
    Co27     Co       0.78614    0.69182    0.55243    1.000
    C214     C        0.78685    0.83134    0.61670    1.000
    N54      N        0.80570    0.88180    0.63510    1.000
    H97      H        0.85020    0.88390    0.62220    1.000
    O103     O        0.81142    0.62111    0.60051    1.000
    C215     C        0.84840    0.55830    0.67220    1.000
    O104     O        0.78654    0.67718    0.43029    1.000
    C216     C        0.81530    0.67160    0.31410    1.000
    H98      H        0.85850    0.82830    0.22220    1.000
    C217     C        0.81389    0.82305    0.19990    1.000
    C218     C        0.78777    0.82542    0.32510    1.000
    H99      H        0.81490    0.83550    0.42960    1.000
    H100     H        0.94860    0.59790    0.28370    1.000
    C219     C        0.96917    0.70600    0.85390    1.000
    C220     C        0.01729    0.70550    0.78240    1.000
    C221     C        0.92309    0.70920    0.93120    1.000
    O105     O        0.76415    0.69509    0.68164    1.000
    O106     O        0.74195    0.67697    0.55837    1.000
    H101     H        0.76650    0.83180    0.62340    1.000
    C222     C        0.79805    0.94286    0.67140    1.000
    C223     C        0.86664    0.55860    0.74550    1.000
    C224     C        0.84316    0.67098    0.28350    1.000
    C225     C        0.78982    0.66523    0.25900    1.000
    C226     C        0.78760    0.82146    0.24000    1.000
    C227     C        0.81280    0.81528    0.10780    1.000
    C228     C        0.75891    0.81760    0.36330    1.000
    H102     H        0.97960    0.68960    0.90150    1.000
    O107     O        0.02996    0.72674    0.72260    1.000
    O108     O        0.02989    0.67468    0.84313    1.000
    O109     O        0.89537    0.71806    0.92590    1.000
    O110     O        0.93877    0.69356    0.99640    1.000
    C229     C        0.78190    0.94120    0.73880    1.000
    H103     H        0.87360    0.59790    0.76790    1.000
    H104     H        0.86020    0.67560    0.31990    1.000
    C230     C        0.84604    0.66356    0.19890    1.000
    C231     C        0.79259    0.65532    0.17460    1.000
    H105     H        0.77100    0.66760    0.27860    1.000
    H106     H        0.76950    0.81760    0.20830    1.000
    O111     O        0.83581    0.80156    0.07435    1.000
    O112     O        0.78746    0.82338    0.06802    1.000
    Co28     Co       0.07319    0.67862    0.88843    1.000
    Co29     Co       0.86691    0.75810    0.00044    1.000
    H107     H        0.77670    0.90190    0.76190    1.000
    C232     C        0.82064    0.65422    0.14540    1.000
    C233     C        0.87589    0.66720    0.16520    1.000
    C234     C        0.76541    0.64990    0.11410    1.000
    Co30     Co       0.79183    0.81231    0.94829    1.000
    O113     O        0.10094    0.65969    0.78861    1.000
    O114     O        0.12284    0.68016    0.91228    1.000
    N55      N        0.07959    0.78030    0.87230    1.000
    O115     O        0.89684    0.55250    0.90830    1.000
    H108     H        0.82250    0.64710    0.08920    1.000
    O116     O        0.76527    0.61051    0.05630    1.000
    O117     O        0.74381    0.68677    0.12813    1.000
    N56      N        0.89896    0.81092    0.07590    1.000
    N57      N        0.83366    0.69947    0.94084    1.000
    O118     O        0.86336    0.83689    0.91629    1.000
    N58      N        0.80414    0.71897    0.93010    1.000
    O119     O        0.81733    0.87877    0.90791    1.000
    C235     C        0.89891    0.87170    0.09760    1.000
    C236     C        0.83461    0.63980    0.91690    1.000
    C237     C        0.84479    0.88020    0.89600    1.000
    C238     C        0.78870    0.66980    0.89940    1.000
    C239     C        0.93228    0.82380    0.17800    1.000
    N59      N        0.91964    0.88295    0.16130    1.000
    H109     H        0.88630    0.90310    0.07260    1.000
    N60      N        0.80689    0.61851    0.88950    1.000
    H110     H        0.85190    0.61480    0.91830    1.000
    C240     C        0.85457    0.94128    0.85610    1.000
    H111     H        0.76820    0.66990    0.88630    1.000
    H112     H        0.94730    0.81580    0.21960    1.000
    C241     C        0.92652    0.94250    0.20300    1.000
    C242     C        0.79802    0.55704    0.85300    1.000
    C243     C        0.87208    0.94130    0.78940    1.000
    C244     C        0.94039    0.94130    0.28140    1.000
    C245     C        0.77959    0.55800    0.78010    1.000
    H113     H        0.87880    0.90230    0.76890    1.000
    H114     H        0.94500    0.90210    0.30790    1.000
    H115     H        0.77320    0.59720    0.75640    1.000
    O120     O        0.89895    0.94667    0.63910    1.000
    Co31     Co       0.42129    0.32230    0.46285    1.000
    N61      N        0.41676    0.22017    0.44320    1.000
    O121     O        0.43668    0.30264    0.57976    1.000
    O122     O        0.37218    0.31911    0.46204    1.000
    O123     O        0.39425    0.34180    0.34985    1.000
    N62      N        0.39669    0.18771    0.48770    1.000
    C246     C        0.42943    0.17730    0.39970    1.000
    C247     C        0.42122    0.28180    0.63650    1.000
    Co32     Co       0.36333    0.24037    0.54488    1.000
    C248     C        0.37086    0.33100    0.38400    1.000
    C249     C        0.39845    0.12670    0.46930    1.000
    N63      N        0.41928    0.11734    0.41430    1.000
    H116     H        0.44370    0.18670    0.36300    1.000
    O124     O        0.39323    0.27948    0.63164    1.000
    C250     C        0.43801    0.25660    0.71400    1.000
    N64      N        0.33081    0.30079    0.58842    1.000
    O125     O        0.35692    0.16506    0.62536    1.000
    O126     O        0.33482    0.19796    0.45032    1.000
    C251     C        0.34133    0.33188    0.33450    1.000
    H117     H        0.38710    0.09400    0.49070    1.000
    C252     C        0.42783    0.05765    0.37830    1.000
    C253     C        0.46858    0.24410    0.71440    1.000
    C254     C        0.42336    0.24300    0.78330    1.000
    N65      N        0.30116    0.28239    0.58820    1.000
    C255     C        0.33267    0.35980    0.61610    1.000
    C256     C        0.33837    0.12000    0.63010    1.000
    C257     C        0.31230    0.18320    0.40480    1.000
    C258     C        0.34068    0.32779    0.24770    1.000
    C259     C        0.31464    0.33155    0.37220    1.000
    C260     C        0.44315    0.05880    0.30700    1.000
    H118     H        0.47850    0.25360    0.66770    1.000
    C261     C        0.48413    0.21770    0.78400    1.000
    C262     C        0.43866    0.21850    0.85420    1.000
    H119     H        0.40290    0.25030    0.78250    1.000
    Co33     Co       0.28614    0.19182    0.55243    1.000
    C263     C        0.28685    0.33134    0.61670    1.000
    N66      N        0.30570    0.38180    0.63510    1.000
    H120     H        0.35020    0.38390    0.62220    1.000
    O127     O        0.31142    0.12111    0.60051    1.000
    C264     C        0.34840    0.05830    0.67220    1.000
    O128     O        0.28654    0.17718    0.43029    1.000
    C265     C        0.31530    0.17160    0.31410    1.000
    H121     H        0.35850    0.32830    0.22220    1.000
    C266     C        0.31389    0.32305    0.19990    1.000
    C267     C        0.28777    0.32542    0.32510    1.000
    H122     H        0.31490    0.33550    0.42960    1.000
    H123     H        0.44860    0.09790    0.28370    1.000
    C268     C        0.46917    0.20600    0.85390    1.000
    C269     C        0.51729    0.20550    0.78240    1.000
    C270     C        0.42309    0.20920    0.93120    1.000
    O129     O        0.26415    0.19509    0.68164    1.000
    O130     O        0.24195    0.17697    0.55837    1.000
    H124     H        0.26650    0.33180    0.62340    1.000
    C271     C        0.29805    0.44286    0.67140    1.000
    C272     C        0.36664    0.05860    0.74550    1.000
    C273     C        0.34316    0.17098    0.28350    1.000
    C274     C        0.28982    0.16523    0.25900    1.000
    C275     C        0.28760    0.32146    0.24000    1.000
    C276     C        0.31280    0.31528    0.10780    1.000
    C277     C        0.25891    0.31760    0.36330    1.000
    H125     H        0.47960    0.18960    0.90150    1.000
    O131     O        0.52996    0.22674    0.72260    1.000
    O132     O        0.52989    0.17468    0.84313    1.000
    O133     O        0.39537    0.21806    0.92590    1.000
    O134     O        0.43877    0.19356    0.99640    1.000
    C278     C        0.28190    0.44120    0.73880    1.000
    H126     H        0.37360    0.09790    0.76790    1.000
    H127     H        0.36020    0.17560    0.31990    1.000
    C279     C        0.34604    0.16356    0.19890    1.000
    C280     C        0.29259    0.15532    0.17460    1.000
    H128     H        0.27100    0.16760    0.27860    1.000
    H129     H        0.26950    0.31760    0.20830    1.000
    O135     O        0.33581    0.30156    0.07435    1.000
    O136     O        0.28746    0.32338    0.06802    1.000
    Co34     Co       0.57319    0.17862    0.88843    1.000
    Co35     Co       0.36691    0.25810    0.00044    1.000
    H130     H        0.27670    0.40190    0.76190    1.000
    C281     C        0.32064    0.15422    0.14540    1.000
    C282     C        0.37589    0.16720    0.16520    1.000
    C283     C        0.26541    0.14990    0.11410    1.000
    Co36     Co       0.29183    0.31231    0.94829    1.000
    O137     O        0.60094    0.15969    0.78861    1.000
    O138     O        0.62284    0.18016    0.91228    1.000
    N67      N        0.57959    0.28030    0.87230    1.000
    O139     O        0.39684    0.05250    0.90830    1.000
    H131     H        0.32250    0.14710    0.08920    1.000
    O140     O        0.26527    0.11051    0.05630    1.000
    O141     O        0.24381    0.18677    0.12813    1.000
    N68      N        0.39896    0.31092    0.07590    1.000
    N69      N        0.33366    0.19947    0.94084    1.000
    O142     O        0.36336    0.33689    0.91629    1.000
    N70      N        0.30414    0.21897    0.93010    1.000
    O143     O        0.31733    0.37877    0.90791    1.000
    C284     C        0.39891    0.37170    0.09760    1.000
    C285     C        0.33461    0.13980    0.91690    1.000
    C286     C        0.34479    0.38020    0.89600    1.000
    C287     C        0.28870    0.16980    0.89940    1.000
    C288     C        0.43228    0.32380    0.17800    1.000
    N71      N        0.41964    0.38295    0.16130    1.000
    H132     H        0.38630    0.40310    0.07260    1.000
    N72      N        0.30689    0.11851    0.88950    1.000
    H133     H        0.35190    0.11480    0.91830    1.000
    C289     C        0.35457    0.44128    0.85610    1.000
    H134     H        0.26820    0.16990    0.88630    1.000
    H135     H        0.44730    0.31580    0.21960    1.000
    C290     C        0.42652    0.44250    0.20300    1.000
    C291     C        0.29802    0.05704    0.85300    1.000
    C292     C        0.37208    0.44130    0.78940    1.000
    C293     C        0.44039    0.44130    0.28140    1.000
    C294     C        0.27959    0.05800    0.78010    1.000
    H136     H        0.37880    0.40230    0.76890    1.000
    H137     H        0.44500    0.40210    0.30790    1.000
    H138     H        0.27320    0.09720    0.75640    1.000
    O144     O        0.39895    0.44667    0.63910    1.000
    Co37     Co       0.07871    0.82230    0.53715    1.000
    N73      N        0.08324    0.72017    0.55680    1.000
    O145     O        0.06332    0.80264    0.42024    1.000
    O146     O        0.12782    0.81911    0.53796    1.000
    O147     O        0.10575    0.84180    0.65015    1.000
    N74      N        0.10331    0.68771    0.51230    1.000
    C295     C        0.07057    0.67730    0.60030    1.000
    C296     C        0.07878    0.78180    0.36350    1.000
    Co38     Co       0.13667    0.74037    0.45512    1.000
    C297     C        0.12914    0.83100    0.61600    1.000
    C298     C        0.10155    0.62670    0.53070    1.000
    N75      N        0.08072    0.61734    0.58570    1.000
    H139     H        0.05630    0.68670    0.63700    1.000
    O148     O        0.10677    0.77948    0.36836    1.000
    C299     C        0.06199    0.75660    0.28600    1.000
    N76      N        0.16919    0.80079    0.41158    1.000
    O149     O        0.14308    0.66506    0.37464    1.000
    O150     O        0.16518    0.69796    0.54968    1.000
    C300     C        0.15867    0.83188    0.66550    1.000
    H140     H        0.11290    0.59400    0.50930    1.000
    C301     C        0.07217    0.55765    0.62170    1.000
    C302     C        0.03142    0.74410    0.28560    1.000
    C303     C        0.07664    0.74300    0.21670    1.000
    N77      N        0.19884    0.78239    0.41180    1.000
    C304     C        0.16733    0.85980    0.38390    1.000
    C305     C        0.16163    0.62000    0.36990    1.000
    C306     C        0.18770    0.68320    0.59520    1.000
    C307     C        0.15932    0.82779    0.75230    1.000
    C308     C        0.18536    0.83155    0.62780    1.000
    C309     C        0.05685    0.55880    0.69300    1.000
    H141     H        0.02150    0.75360    0.33230    1.000
    C310     C        0.01587    0.71770    0.21600    1.000
    C311     C        0.06134    0.71850    0.14580    1.000
    H142     H        0.09710    0.75030    0.21750    1.000
    Co39     Co       0.21386    0.69182    0.44757    1.000
    C312     C        0.21315    0.83134    0.38330    1.000
    N78      N        0.19430    0.88180    0.36490    1.000
    H143     H        0.14980    0.88390    0.37780    1.000
    O151     O        0.18858    0.62111    0.39949    1.000
    C313     C        0.15160    0.55830    0.32780    1.000
    O152     O        0.21346    0.67718    0.56971    1.000
    C314     C        0.18470    0.67160    0.68590    1.000
    H144     H        0.14150    0.82830    0.77780    1.000
    C315     C        0.18611    0.82305    0.80010    1.000
    C316     C        0.21223    0.82542    0.67490    1.000
    H145     H        0.18510    0.83550    0.57040    1.000
    H146     H        0.05140    0.59790    0.71630    1.000
    C317     C        0.03083    0.70600    0.14610    1.000
    C318     C        0.98271    0.70550    0.21760    1.000
    C319     C        0.07691    0.70920    0.06880    1.000
    O153     O        0.23585    0.69509    0.31836    1.000
    O154     O        0.25805    0.67697    0.44163    1.000
    H147     H        0.23350    0.83180    0.37660    1.000
    C320     C        0.20195    0.94286    0.32860    1.000
    C321     C        0.13336    0.55860    0.25450    1.000
    C322     C        0.15684    0.67098    0.71650    1.000
    C323     C        0.21018    0.66523    0.74100    1.000
    C324     C        0.21240    0.82146    0.76000    1.000
    C325     C        0.18720    0.81528    0.89220    1.000
    C326     C        0.24109    0.81760    0.63670    1.000
    H148     H        0.02040    0.68960    0.09850    1.000
    O155     O        0.97004    0.72674    0.27740    1.000
    O156     O        0.97011    0.67468    0.15687    1.000
    O157     O        0.10463    0.71806    0.07410    1.000
    O158     O        0.06123    0.69356    0.00360    1.000
    C327     C        0.21810    0.94120    0.26120    1.000
    H149     H        0.12640    0.59790    0.23210    1.000
    H150     H        0.13980    0.67560    0.68010    1.000
    C328     C        0.15396    0.66356    0.80110    1.000
    C329     C        0.20741    0.65532    0.82540    1.000
    H151     H        0.22900    0.66760    0.72140    1.000
    H152     H        0.23050    0.81760    0.79170    1.000
    O159     O        0.16419    0.80156    0.92565    1.000
    O160     O        0.21254    0.82338    0.93198    1.000
    Co40     Co       0.92681    0.67862    0.11157    1.000
    Co41     Co       0.13309    0.75810    0.99956    1.000
    H153     H        0.22330    0.90190    0.23810    1.000
    C330     C        0.17936    0.65422    0.85460    1.000
    C331     C        0.12411    0.66720    0.83480    1.000
    C332     C        0.23459    0.64990    0.88590    1.000
    Co42     Co       0.20817    0.81231    0.05171    1.000
    O161     O        0.89906    0.65969    0.21139    1.000
    O162     O        0.87716    0.68016    0.08772    1.000
    N79      N        0.92041    0.78030    0.12770    1.000
    O163     O        0.10316    0.55250    0.09170    1.000
    H154     H        0.17750    0.64710    0.91080    1.000
    O164     O        0.23473    0.61051    0.94370    1.000
    O165     O        0.25619    0.68677    0.87187    1.000
    N80      N        0.10104    0.81092    0.92410    1.000
    N81      N        0.16634    0.69947    0.05916    1.000
    O166     O        0.13664    0.83689    0.08371    1.000
    N82      N        0.19586    0.71897    0.06990    1.000
    O167     O        0.18267    0.87877    0.09209    1.000
    C333     C        0.10109    0.87170    0.90240    1.000
    C334     C        0.16539    0.63980    0.08310    1.000
    C335     C        0.15521    0.88020    0.10400    1.000
    C336     C        0.21130    0.66980    0.10060    1.000
    C337     C        0.06772    0.82380    0.82200    1.000
    N83      N        0.08036    0.88295    0.83870    1.000
    H155     H        0.11370    0.90310    0.92740    1.000
    N84      N        0.19311    0.61851    0.11050    1.000
    H156     H        0.14810    0.61480    0.08170    1.000
    C338     C        0.14543    0.94128    0.14390    1.000
    H157     H        0.23180    0.66990    0.11370    1.000
    H158     H        0.05270    0.81580    0.78040    1.000
    C339     C        0.07348    0.94250    0.79700    1.000
    C340     C        0.20198    0.55704    0.14700    1.000
    C341     C        0.12792    0.94130    0.21060    1.000
    C342     C        0.05961    0.94130    0.71860    1.000
    C343     C        0.22041    0.55800    0.21990    1.000
    H159     H        0.12120    0.90230    0.23110    1.000
    H160     H        0.05500    0.90210    0.69210    1.000
    H161     H        0.22680    0.59720    0.24360    1.000
    O168     O        0.10105    0.94667    0.36090    1.000
    Co43     Co       0.57871    0.32230    0.53715    1.000
    N85      N        0.58324    0.22017    0.55680    1.000
    O169     O        0.56332    0.30264    0.42024    1.000
    O170     O        0.62782    0.31911    0.53796    1.000
    O171     O        0.60575    0.34180    0.65015    1.000
    N86      N        0.60331    0.18771    0.51230    1.000
    C344     C        0.57057    0.17730    0.60030    1.000
    C345     C        0.57878    0.28180    0.36350    1.000
    Co44     Co       0.63667    0.24037    0.45512    1.000
    C346     C        0.62914    0.33100    0.61600    1.000
    C347     C        0.60155    0.12670    0.53070    1.000
    N87      N        0.58072    0.11734    0.58570    1.000
    H162     H        0.55630    0.18670    0.63700    1.000
    O172     O        0.60677    0.27948    0.36836    1.000
    C348     C        0.56199    0.25660    0.28600    1.000
    N88      N        0.66919    0.30079    0.41158    1.000
    O173     O        0.64308    0.16506    0.37464    1.000
    O174     O        0.66518    0.19796    0.54968    1.000
    C349     C        0.65867    0.33188    0.66550    1.000
    H163     H        0.61290    0.09400    0.50930    1.000
    C350     C        0.57217    0.05765    0.62170    1.000
    C351     C        0.53142    0.24410    0.28560    1.000
    C352     C        0.57664    0.24300    0.21670    1.000
    N89      N        0.69884    0.28239    0.41180    1.000
    C353     C        0.66733    0.35980    0.38390    1.000
    C354     C        0.66163    0.12000    0.36990    1.000
    C355     C        0.68770    0.18320    0.59520    1.000
    C356     C        0.65932    0.32779    0.75230    1.000
    C357     C        0.68536    0.33155    0.62780    1.000
    C358     C        0.55685    0.05880    0.69300    1.000
    H164     H        0.52150    0.25360    0.33230    1.000
    C359     C        0.51587    0.21770    0.21600    1.000
    C360     C        0.56134    0.21850    0.14580    1.000
    H165     H        0.59710    0.25030    0.21750    1.000
    Co45     Co       0.71386    0.19182    0.44757    1.000
    C361     C        0.71315    0.33134    0.38330    1.000
    N90      N        0.69430    0.38180    0.36490    1.000
    H166     H        0.64980    0.38390    0.37780    1.000
    O175     O        0.68858    0.12111    0.39949    1.000
    C362     C        0.65160    0.05830    0.32780    1.000
    O176     O        0.71346    0.17718    0.56971    1.000
    C363     C        0.68470    0.17160    0.68590    1.000
    H167     H        0.64150    0.32830    0.77780    1.000
    C364     C        0.68611    0.32305    0.80010    1.000
    C365     C        0.71223    0.32542    0.67490    1.000
    H168     H        0.68510    0.33550    0.57040    1.000
    H169     H        0.55140    0.09790    0.71630    1.000
    C366     C        0.53083    0.20600    0.14610    1.000
    C367     C        0.48271    0.20550    0.21760    1.000
    C368     C        0.57691    0.20920    0.06880    1.000
    O177     O        0.73585    0.19509    0.31836    1.000
    O178     O        0.75805    0.17697    0.44163    1.000
    H170     H        0.73350    0.33180    0.37660    1.000
    C369     C        0.70195    0.44286    0.32860    1.000
    C370     C        0.63336    0.05860    0.25450    1.000
    C371     C        0.65684    0.17098    0.71650    1.000
    C372     C        0.71018    0.16523    0.74100    1.000
    C373     C        0.71240    0.32146    0.76000    1.000
    C374     C        0.68720    0.31528    0.89220    1.000
    C375     C        0.74109    0.31760    0.63670    1.000
    H171     H        0.52040    0.18960    0.09850    1.000
    O179     O        0.47004    0.22674    0.27740    1.000
    O180     O        0.47011    0.17468    0.15687    1.000
    O181     O        0.60463    0.21806    0.07410    1.000
    O182     O        0.56123    0.19356    0.00360    1.000
    C376     C        0.71810    0.44120    0.26120    1.000
    H172     H        0.62640    0.09790    0.23210    1.000
    H173     H        0.63980    0.17560    0.68010    1.000
    C377     C        0.65396    0.16356    0.80110    1.000
    C378     C        0.70741    0.15532    0.82540    1.000
    H174     H        0.72900    0.16760    0.72140    1.000
    H175     H        0.73050    0.31760    0.79170    1.000
    O183     O        0.66419    0.30156    0.92565    1.000
    O184     O        0.71254    0.32338    0.93198    1.000
    Co46     Co       0.42681    0.17862    0.11157    1.000
    Co47     Co       0.63309    0.25810    0.99956    1.000
    H176     H        0.72330    0.40190    0.23810    1.000
    C379     C        0.67936    0.15422    0.85460    1.000
    C380     C        0.62411    0.16720    0.83480    1.000
    C381     C        0.73459    0.14990    0.88590    1.000
    Co48     Co       0.70817    0.31231    0.05171    1.000
    O185     O        0.39906    0.15969    0.21139    1.000
    O186     O        0.37716    0.18016    0.08772    1.000
    N91      N        0.42041    0.28030    0.12770    1.000
    O187     O        0.60316    0.05250    0.09170    1.000
    H177     H        0.67750    0.14710    0.91080    1.000
    O188     O        0.73473    0.11051    0.94370    1.000
    O189     O        0.75619    0.18677    0.87187    1.000
    N92      N        0.60104    0.31092    0.92410    1.000
    N93      N        0.66634    0.19947    0.05916    1.000
    O190     O        0.63664    0.33689    0.08371    1.000
    N94      N        0.69586    0.21897    0.06990    1.000
    O191     O        0.68267    0.37877    0.09209    1.000
    C382     C        0.60109    0.37170    0.90240    1.000
    C383     C        0.66539    0.13980    0.08310    1.000
    C384     C        0.65521    0.38020    0.10400    1.000
    C385     C        0.71130    0.16980    0.10060    1.000
    C386     C        0.56772    0.32380    0.82200    1.000
    N95      N        0.58036    0.38295    0.83870    1.000
    H178     H        0.61370    0.40310    0.92740    1.000
    N96      N        0.69311    0.11851    0.11050    1.000
    H179     H        0.64810    0.11480    0.08170    1.000
    C387     C        0.64543    0.44128    0.14390    1.000
    H180     H        0.73180    0.16990    0.11370    1.000
    H181     H        0.55270    0.31580    0.78040    1.000
    C388     C        0.57348    0.44250    0.79700    1.000
    C389     C        0.70198    0.05704    0.14700    1.000
    C390     C        0.62792    0.44130    0.21060    1.000
    C391     C        0.55961    0.44130    0.71860    1.000
    C392     C        0.72041    0.05800    0.21990    1.000
    H182     H        0.62120    0.40230    0.23110    1.000
    H183     H        0.55500    0.40210    0.69210    1.000
    H184     H        0.72680    0.09720    0.24360    1.000
    O192     O        0.60105    0.44667    0.36090    1.000
    C393     C        0.07927    0.50000    0.58540    1.000
    C394     C        0.04990    0.50000    0.72830    1.000
    H185     H        0.08880    0.50000    0.53660    1.000
    C395     C        0.16217    0.50000    0.36000    1.000
    H186     H        0.04030    0.50000    0.77700    1.000
    C396     C        0.12503    0.50000    0.21290    1.000
    H187     H        0.17670    0.50000    0.40440    1.000
    C397     C        0.10930    0.50000    0.12620    1.000
    C398     C        0.19281    0.50000    0.10950    1.000
    C399     C        0.22915    0.50000    0.25720    1.000
    H188     H        0.18070    0.50000    0.06000    1.000
    H189     H        0.24090    0.50000    0.30730    1.000
    C400     C        0.57927    0.00000    0.58540    1.000
    C401     C        0.54990    0.00000    0.72830    1.000
    H190     H        0.58880    0.00000    0.53660    1.000
    C402     C        0.66217    0.00000    0.36000    1.000
    H191     H        0.54030    0.00000    0.77700    1.000
    C403     C        0.62503    0.00000    0.21290    1.000
    H192     H        0.67670    0.00000    0.40440    1.000
    C404     C        0.60930    0.00000    0.12620    1.000
    C405     C        0.69281    0.00000    0.10950    1.000
    C406     C        0.72915    0.00000    0.25720    1.000
    H193     H        0.68070    0.00000    0.06000    1.000
    H194     H        0.74090    0.00000    0.30730    1.000
    C407     C        0.92073    0.50000    0.41460    1.000
    C408     C        0.95010    0.50000    0.27170    1.000
    H195     H        0.91120    0.50000    0.46340    1.000
    C409     C        0.83783    0.50000    0.64000    1.000
    H196     H        0.95970    0.50000    0.22300    1.000
    C410     C        0.87497    0.50000    0.78710    1.000
    H197     H        0.82330    0.50000    0.59560    1.000
    C411     C        0.89070    0.50000    0.87380    1.000
    C412     C        0.80719    0.50000    0.89050    1.000
    C413     C        0.77085    0.50000    0.74280    1.000
    H198     H        0.81930    0.50000    0.94000    1.000
    H199     H        0.75910    0.50000    0.69270    1.000
    C414     C        0.42073    0.00000    0.41460    1.000
    C415     C        0.45010    0.00000    0.27170    1.000
    H200     H        0.41120    0.00000    0.46340    1.000
    C416     C        0.33783    0.00000    0.64000    1.000
    H201     H        0.45970    0.00000    0.22300    1.000
    C417     C        0.37497    0.00000    0.78710    1.000
    H202     H        0.32330    0.00000    0.59560    1.000
    C418     C        0.39070    0.00000    0.87380    1.000
    C419     C        0.30719    0.00000    0.89050    1.000
    C420     C        0.27085    0.00000    0.74280    1.000
    H203     H        0.31930    0.00000    0.94000    1.000
    H204     H        0.25910    0.00000    0.69270    1.000
    C421     C        0.19312    0.00000    0.36350    1.000
    C422     C        0.22664    0.00000    0.22750    1.000
    H205     H        0.18170    0.00000    0.40880    1.000
    H206     H        0.23810    0.00000    0.18230    1.000
    C423     C        0.15529    0.00000    0.11470    1.000
    C424     C        0.07994    0.00000    0.83770    1.000
    C425     C        0.12040    0.00000    0.24700    1.000
    H207     H        0.16890    0.00000    0.07450    1.000
    C426     C        0.05245    0.00000    0.67900    1.000
    H208     H        0.08850    0.00000    0.89210    1.000
    C427     C        0.10588    0.00000    0.32920    1.000
    H209     H        0.04280    0.00000    0.62590    1.000
    C428     C        0.69312    0.50000    0.36350    1.000
    C429     C        0.72664    0.50000    0.22750    1.000
    H210     H        0.68170    0.50000    0.40880    1.000
    H211     H        0.73810    0.50000    0.18230    1.000
    C430     C        0.65529    0.50000    0.11470    1.000
    C431     C        0.57994    0.50000    0.83770    1.000
    C432     C        0.62040    0.50000    0.24700    1.000
    H212     H        0.66890    0.50000    0.07450    1.000
    C433     C        0.55245    0.50000    0.67900    1.000
    H213     H        0.58850    0.50000    0.89210    1.000
    C434     C        0.60588    0.50000    0.32920    1.000
    H214     H        0.54280    0.50000    0.62590    1.000
    C435     C        0.80688    0.00000    0.63650    1.000
    C436     C        0.77336    0.00000    0.77250    1.000
    H215     H        0.81830    0.00000    0.59120    1.000
    H216     H        0.76190    0.00000    0.81770    1.000
    C437     C        0.84471    0.00000    0.88530    1.000
    C438     C        0.92006    0.00000    0.16230    1.000
    C439     C        0.87960    0.00000    0.75300    1.000
    H217     H        0.83110    0.00000    0.92550    1.000
    C440     C        0.94755    0.00000    0.32100    1.000
    H218     H        0.91150    0.00000    0.10790    1.000
    C441     C        0.89412    0.00000    0.67080    1.000
    H219     H        0.95720    0.00000    0.37410    1.000
    C442     C        0.30688    0.50000    0.63650    1.000
    C443     C        0.27336    0.50000    0.77250    1.000
    H220     H        0.31830    0.50000    0.59120    1.000
    H221     H        0.26190    0.50000    0.81770    1.000
    C444     C        0.34471    0.50000    0.88530    1.000
    C445     C        0.42006    0.50000    0.16230    1.000
    C446     C        0.37960    0.50000    0.75300    1.000
    H222     H        0.33110    0.50000    0.92550    1.000
    C447     C        0.44755    0.50000    0.32100    1.000
    H223     H        0.41150    0.50000    0.10790    1.000
    C448     C        0.39412    0.50000    0.67080    1.000
    H224     H        0.45720    0.50000    0.37410    1.000
