# CIF file generated by openbabel 3.1.0, see https://openbabel.org
data_I
_chemical_name_common 'image0'
_cell_length_a 9.3611
_cell_length_b 9.921
_cell_length_c 10.015
_cell_angle_alpha 85.03
_cell_angle_beta 85.81
_cell_angle_gamma 65.09
_space_group_name_H-M_alt 'P 1'
_space_group_name_Hall 'P 1'
loop_
    _symmetry_equiv_pos_as_xyz
    x,y,z
loop_
    _atom_site_label
    _atom_site_type_symbol
    _atom_site_fract_x
    _atom_site_fract_y
    _atom_site_fract_z
    _atom_site_occupancy
    O1       O        0.86880    0.32860    0.25410    1.000
    O2       O        0.45570    0.13380    0.62380    1.000
    Cd1      Cd       0.56027    0.03946    0.82362    1.000
    Ru1      Ru       0.58025    0.48262    0.58452    1.000
    Ru2      Ru       0.94724    0.45534    0.08826    1.000
    O3       O        0.57440    0.28330    0.63450    1.000
    O4       O        0.41450    0.31700    0.46560    1.000
    O5       O        0.76810    0.39380    0.45800    1.000
    O6       O        0.60930    0.42420    0.28870    1.000
    O7       O        0.74350    0.41060    0.75890    1.000
    O8       O        0.12340    0.25180    0.06330    1.000
    O9       O        0.22960    0.34040    0.88820    1.000
    O10      O        0.81530    0.41510    0.96120    1.000
    O11      O        0.92080    0.50150    0.78270    1.000
    O12      O        0.34750    0.10410    0.96880    1.000
    O13      O        0.64640    0.19540    0.91250    1.000
    H1       H        0.61060    0.27910    0.86820    1.000
    H2       H        0.61330    0.20720    0.99380    1.000
    C1       C        0.48170    0.24440    0.57530    1.000
    C2       C        0.75000    0.38170    0.33330    1.000
    C3       C        0.23550    0.23260    0.97230    1.000
    C4       C        0.82650    0.44360    0.83370    1.000
    O14      O        0.13120    0.67140    0.74590    1.000
    O15      O        0.54430    0.86620    0.37620    1.000
    Cd2      Cd       0.43973    0.96054    0.17638    1.000
    Ru3      Ru       0.41975    0.51738    0.41548    1.000
    Ru4      Ru       0.05276    0.54466    0.91174    1.000
    O16      O        0.42560    0.71670    0.36550    1.000
    O17      O        0.58550    0.68300    0.53440    1.000
    O18      O        0.23190    0.60620    0.54200    1.000
    O19      O        0.39070    0.57580    0.71130    1.000
    O20      O        0.25650    0.58940    0.24110    1.000
    O21      O        0.87660    0.74820    0.93670    1.000
    O22      O        0.77040    0.65960    0.11180    1.000
    O23      O        0.18470    0.58490    0.03880    1.000
    O24      O        0.07920    0.49850    0.21730    1.000
    O25      O        0.65250    0.89590    0.03120    1.000
    O26      O        0.35360    0.80460    0.08750    1.000
    H3       H        0.38940    0.72090    0.13180    1.000
    H4       H        0.38670    0.79280    0.00620    1.000
    C5       C        0.51830    0.75560    0.42470    1.000
    C6       C        0.25000    0.61830    0.66670    1.000
    C7       C        0.76450    0.76740    0.02770    1.000
    C8       C        0.17350    0.55640    0.16630    1.000
    K1       K        0.50000    0.50000    0.00000    1.000
    K2       K        0.00000    0.50000    0.50000    1.000
