data_functionalizedCrystal
_audit_creation_method	'EQeq! by Chris Wilmer'
_symmetry_space_group_name_H-M	'P1'
_symmetry_Int_Tables_number	1
_symmetry_cell_setting	triclinic
loop_
_symmetry_equiv_pos_as_xyz
  x,y,z
_cell_length_a	9.1884
_cell_length_b	9.1884
_cell_length_c	12.743
_cell_angle_alpha	90
_cell_angle_beta	90
_cell_angle_gamma	120
loop_
_atom_site_label
_atom_site_type_symbol
_atom_site_fract_x
_atom_site_fract_y
_atom_site_fract_z
_atom_site_charge
Mof_Cd	Cd	8.79125e-18	0.63754	0.66667	0.48
Mof_Cd	Cd	0.36246	0.36246	0.33333	0.51
Mof_Cd	Cd	0.63754	0	-0	0.458
Mof_H 	H 	0.8295	0.036	0.78387	0.076
Mof_H 	H 	0.1705	0.2065	0.54947	0.08
Mof_H 	H 	0.2065	0.1705	0.1172	0.072
Mof_H 	H 	0.036	0.8295	0.8828	0.058
Mof_H 	H 	0.964	0.7935	0.45053	0.118
Mof_H 	H 	0.7935	0.964	0.21613	0.114
Mof_C 	C 	0.2209	0.1009	0.07049	-0.018
Mof_C 	C 	0.803	0.3195	0.81047	0.302
Mof_C 	C 	0.197	0.5165	0.52287	0.306
Mof_C 	C 	0.3693	0.0951	0.06927	0.004
Mof_C 	C 	0.9053	0.9053	0.33333	0.07
Mof_C 	C 	1.16505e-18	0.0947	0.66667	-0.051
Mof_C 	C 	0.88	0.7791	0.40382	-0.078
Mof_C 	C 	0.6805	0.4835	0.47713	0.299
Mof_C 	C 	0.5165	0.197	0.1438	0.307
Mof_C 	C 	0.4835	0.6805	0.18953	0.299
Mof_C 	C 	0.0712	0.0712	0.33333	0.216
Mof_C 	C 	0.3195	0.803	0.8562	0.305
Mof_C 	C 	0.6307	0.7258	0.26406	0.042
Mof_C 	C 	0.0947	0	-0	-0.091
Mof_C 	C 	0.12	0.8991	0.92951	0.032
Mof_C 	C 	0.0951	0.3693	0.5974	0.015
Mof_C 	C 	0.8991	0.12	0.73716	-0.001
Mof_C 	C 	8.79125e-18	0.9288	0.66667	0.248
Mof_C 	C 	0.7791	0.88	0.26284	-0.077
Mof_C 	C 	0.9049	0.2742	0.73594	0.046
Mof_C 	C 	0.9288	0	-0	0.235
Mof_C 	C 	0.1009	0.2209	0.59618	-0.03
Mof_C 	C 	0.7258	0.6307	0.4026	0.045
Mof_C 	C 	0.2742	0.9049	0.93073	0.049
Mof_N 	N 	0.6074	0.6074	0.33333	-0.117
Mof_N 	N 	0.3926	0	-0	-0.137
Mof_N 	N 	-2.17135e-17	0.3926	0.66667	-0.127
Mof_O 	O 	0.5009	0.2868	0.20923	-0.25
Mof_O 	O 	0.8056	0.88103	0.95646	-0.165
Mof_O 	O 	0.3556	0.5394	0.20183	-0.233
Mof_O 	O 	0.5394	0.3556	0.46483	-0.226
Mof_O 	O 	0.1944	0.07543	0.37687	-0.233
Mof_O 	O 	0.7859	0.4991	0.54256	-0.232
Mof_O 	O 	0.1838	0.6444	0.53517	-0.231
Mof_O 	O 	0.7132	0.2141	0.8759	-0.226
Mof_O 	O 	0.2868	0.5009	0.45744	-0.249
Mof_O 	O 	0.11897	0.92457	0.62313	-0.227
Mof_O 	O 	0.88103	0.8056	0.71021	-0.192
Mof_O 	O 	0.2141	0.7132	0.79077	-0.246
Mof_O 	O 	0.4606	0.8162	0.8685	-0.205
Mof_O 	O 	0.8162	0.4606	0.79817	-0.206
Mof_O 	O 	0.92457	0.11897	0.04354	-0.226
Mof_O 	O 	0.07543	0.1944	0.28979	-0.236
Mof_O 	O 	0.4991	0.7859	0.1241	-0.245
Mof_O 	O 	0.6444	0.1838	0.1315	-0.231
_end
