data_functionalizedCrystal
_audit_creation_method	'EQeq! by Chris Wilmer'
_symmetry_space_group_name_H-M	'P1'
_symmetry_Int_Tables_number	1
_symmetry_cell_setting	triclinic
loop_
_symmetry_equiv_pos_as_xyz
  x,y,z
_cell_length_a	6.1139
_cell_length_b	8.7718
_cell_length_c	13.1543
_cell_angle_alpha	101.048
_cell_angle_beta	101.805
_cell_angle_gamma	96.546
loop_
_atom_site_label
_atom_site_type_symbol
_atom_site_fract_x
_atom_site_fract_y
_atom_site_fract_z
_atom_site_charge
Mof_Gd	Gd	0.74716	0.21931	0.72457	1.786
Mof_O 	O 	0.5017	0.8002	0.4515	-0.372
Mof_O 	O 	0.065	0.1066	0.8005	-0.426
Mof_O 	O 	0.7669	0.3569	0.9097	-0.506
Mof_H 	H 	0.683	0.33	0.951	0.289
Mof_O 	O 	0.0673	0.4551	0.8137	-0.405
Mof_H 	H 	0.173	0.509	0.791	0.208
Mof_O 	O 	0.6595	0.4792	0.7124	-0.382
Mof_O 	O 	0.6302	0.029	0.8293	-0.442
Mof_H 	H 	0.674	0.936	0.825	0.252
Mof_O 	O 	0.5053	0.2127	0.0103	-0.395
Mof_H 	H 	0.4596	0.2464	0.0651	0.249
Mof_O 	O 	0.6583	0.7138	0.8154	-0.296
Mof_O 	O 	0.3639	0.2007	0.7442	-0.428
Mof_O 	O 	0.678	0.9586	0.6099	-0.385
Mof_C 	C 	0.4084	0.0083	0.8505	-0.022
Mof_H 	H 	0.3355	0.8963	0.8203	0.046
Mof_C 	C 	0.2678	0.1152	0.794	0.393
Mof_C 	C 	0.4172	0.0479	0.9704	0.094
Mof_H 	H 	0.2624	0.0239	0.983	0.028
Mof_C 	C 	0.8955	0.5079	0.9587	0.129
Mof_H 	H 	0.8006	0.5772	0.9937	0.009
Mof_C 	C 	0.5503	0.9286	0.5177	0.246
Mof_C 	C 	0.7436	0.5913	0.7916	0.329
Mof_C 	C 	0.9607	0.5717	0.8674	-0.058
Mof_H 	H 	0.066	0.674	0.8947	0.058
Mof_Gd	Gd	0.25284	0.78069	0.27543	1.787
Mof_O 	O 	0.4983	0.1998	0.5485	-0.371
Mof_O 	O 	0.935	0.8934	0.1995	-0.426
Mof_O 	O 	0.2331	0.6431	0.0903	-0.506
Mof_H 	H 	0.317	0.67	0.049	0.289
Mof_O 	O 	0.9327	0.5449	0.1863	-0.405
Mof_H 	H 	0.827	0.491	0.209	0.208
Mof_O 	O 	0.3405	0.5208	0.2876	-0.382
Mof_O 	O 	0.3698	0.971	0.1707	-0.442
Mof_H 	H 	0.326	0.064	0.175	0.252
Mof_O 	O 	0.4947	0.7873	0.9897	-0.395
Mof_H 	H 	0.5404	0.7536	0.9349	0.249
Mof_O 	O 	0.3417	0.2862	0.1846	-0.296
Mof_O 	O 	0.6361	0.7993	0.2558	-0.428
Mof_O 	O 	0.322	0.0414	0.3901	-0.385
Mof_C 	C 	0.5916	0.9917	0.1495	-0.022
Mof_H 	H 	0.6645	0.1037	0.1797	0.046
Mof_C 	C 	0.7322	0.8848	0.206	0.393
Mof_C 	C 	0.5828	0.9521	0.0296	0.094
Mof_H 	H 	0.7376	0.9761	0.017	0.028
Mof_C 	C 	0.1045	0.4921	0.0413	0.129
Mof_H 	H 	0.1994	0.4228	0.0063	0.009
Mof_C 	C 	0.4497	0.0714	0.4823	0.246
Mof_C 	C 	0.2564	0.4087	0.2084	0.329
Mof_C 	C 	0.0393	0.4283	0.1326	-0.058
Mof_H 	H 	0.934	0.326	0.1053	0.058
_end
