# CIF file generated by openbabel 3.1.0, see https://openbabel.org
data_I
_chemical_name_common 'TEJQAC_clean'
_cell_length_a 14.214
_cell_length_b 21.157
_cell_length_c 24.013
_cell_angle_alpha 90
_cell_angle_beta 90
_cell_angle_gamma 90
_space_group_name_H-M_alt 'P 1'
_space_group_name_Hall 'P 1'
loop_
    _symmetry_equiv_pos_as_xyz
    x,y,z
loop_
    _atom_site_label
    _atom_site_type_symbol
    _atom_site_fract_x
    _atom_site_fract_y
    _atom_site_fract_z
    _atom_site_occupancy
    Cu1      Cu       0.86983    0.45425    0.03524    1.000
    Cu2      Cu       0.92958    0.80212    0.17785    1.000
    Cu3      Cu       0.36983    0.04575    0.46476    1.000
    Cu4      Cu       0.42958    0.69788    0.32215    1.000
    H1       H        0.87170    0.56310    0.12190    1.000
    H2       H        0.88830    0.57160    0.21850    1.000
    H3       H        0.89290    0.48000    0.27090    1.000
    H4       H        0.88190    0.38200    0.22790    1.000
    H5       H        0.86480    0.29100    0.17630    1.000
    H6       H        0.85930    0.22640    0.01990    1.000
    H7       H        0.87330    0.25930    0.92510    1.000
    H8       H        0.88650    0.30350    0.83920    1.000
    H9       H        0.87380    0.41210    0.82950    1.000
    H10      H        0.86190    0.47130    0.90360    1.000
    H11      H        0.81870    0.19830    0.20010    1.000
    H12      H        0.91110    0.13740    0.05410    1.000
    H13      H        0.82210    0.09790    0.23310    1.000
    H14      H        0.91090    0.03710    0.08660    1.000
    H15      H        0.88870    0.93620    0.11790    1.000
    H16      H        0.88060    0.89910    0.27550    1.000
    H17      H        0.87810    0.66050    0.05710    1.000
    H18      H        0.90460    0.63970    0.89240    1.000
    H19      H        0.88190    0.74710    0.87970    1.000
    H20      H        0.87200    0.81340    0.95950    1.000
    H21      H        0.96130    0.61360    0.31540    1.000
    H22      H        0.72540    0.71080    0.28620    1.000
    H23      H        0.88370    0.55590    0.38430    1.000
    H24      H        0.72640    0.57260    0.40010    1.000
    H25      H        0.37170    0.93690    0.37810    1.000
    H26      H        0.38830    0.92840    0.28150    1.000
    H27      H        0.39290    0.02000    0.22910    1.000
    H28      H        0.38190    0.11800    0.27210    1.000
    H29      H        0.36480    0.20900    0.32370    1.000
    H30      H        0.35930    0.27360    0.48010    1.000
    H31      H        0.37330    0.24070    0.57490    1.000
    H32      H        0.38650    0.19650    0.66080    1.000
    H33      H        0.37380    0.08790    0.67050    1.000
    H34      H        0.36190    0.02870    0.59640    1.000
    H35      H        0.31870    0.30170    0.29990    1.000
    H36      H        0.41110    0.36260    0.44590    1.000
    H37      H        0.32210    0.40210    0.26690    1.000
    H38      H        0.41090    0.46290    0.41340    1.000
    H39      H        0.38870    0.56380    0.38210    1.000
    H40      H        0.38060    0.60090    0.22450    1.000
    H41      H        0.37810    0.83950    0.44290    1.000
    H42      H        0.40460    0.86030    0.60760    1.000
    H43      H        0.38190    0.75290    0.62030    1.000
    H44      H        0.37200    0.68660    0.54050    1.000
    H45      H        0.46130    0.88640    0.18460    1.000
    H46      H        0.22540    0.78920    0.21380    1.000
    H47      H        0.38370    0.94410    0.11570    1.000
    H48      H        0.22640    0.92740    0.09990    1.000
    C1       C        0.87370    0.52660    0.14350    1.000
    C2       C        0.88360    0.53220    0.20150    1.000
    C3       C        0.88630    0.47760    0.23250    1.000
    C4       C        0.87910    0.41890    0.20700    1.000
    C5       C        0.86780    0.41680    0.15040    1.000
    C6       C        0.86470    0.35950    0.11710    1.000
    C7       C        0.86410    0.29750    0.13800    1.000
    C8       C        0.86240    0.24580    0.10260    1.000
    C9       C        0.86140    0.25940    0.04540    1.000
    C10      C        0.86350    0.32190    0.02620    1.000
    C11      C        0.86530    0.34270    0.96860    1.000
    C12      C        0.87260    0.30300    0.92100    1.000
    C13      C        0.87850    0.32890    0.87040    1.000
    C14      C        0.87260    0.39350    0.86460    1.000
    C15      C        0.86540    0.42770    0.90860    1.000
    C16      C        0.86140    0.17980    0.12230    1.000
    C17      C        0.83720    0.16570    0.17650    1.000
    C18      C        0.89120    0.12980    0.09030    1.000
    C19      C        0.83950    0.10580    0.19650    1.000
    C20      C        0.89250    0.07000    0.10980    1.000
    C21      C        0.86680    0.05800    0.16360    1.000
    C22      C        0.88480    0.94060    0.15630    1.000
    C23      C        0.87950    0.92150    0.24220    1.000
    C24      C        0.90520    0.57110    0.98340    1.000
    C25      C        0.89190    0.63970    0.97680    1.000
    C26      C        0.88130    0.67790    0.02160    1.000
    C27      C        0.89510    0.66580    0.92300    1.000
    C28      C        0.88410    0.72990    0.91540    1.000
    C29      C        0.87630    0.76980    0.96370    1.000
    C30      C        0.87510    0.74400    0.01470    1.000
    C31      C        0.87170    0.78600    0.06680    1.000
    C32      C        0.90420    0.71050    0.25310    1.000
    C33      C        0.85260    0.66960    0.29400    1.000
    C34      C        0.89840    0.62200    0.32300    1.000
    C35      C        0.75750    0.67890    0.30480    1.000
    C36      C        0.85130    0.58620    0.36390    1.000
    C37      C        0.75780    0.59620    0.37320    1.000
    C38      C        0.70930    0.64130    0.34290    1.000
    C39      C        0.60500    0.65250    0.35160    1.000
    C40      C        0.37370    0.97340    0.35650    1.000
    C41      C        0.38360    0.96780    0.29850    1.000
    C42      C        0.38630    0.02240    0.26750    1.000
    C43      C        0.37910    0.08110    0.29300    1.000
    C44      C        0.36780    0.08320    0.34960    1.000
    C45      C        0.36470    0.14050    0.38290    1.000
    C46      C        0.36410    0.20250    0.36200    1.000
    C47      C        0.36240    0.25420    0.39740    1.000
    C48      C        0.36140    0.24060    0.45460    1.000
    C49      C        0.36350    0.17810    0.47380    1.000
    C50      C        0.36530    0.15730    0.53140    1.000
    C51      C        0.37260    0.19700    0.57900    1.000
    C52      C        0.37850    0.17110    0.62960    1.000
    C53      C        0.37260    0.10650    0.63540    1.000
    C54      C        0.36540    0.07230    0.59140    1.000
    C55      C        0.36140    0.32020    0.37770    1.000
    C56      C        0.33720    0.33430    0.32350    1.000
    C57      C        0.39120    0.37020    0.40970    1.000
    C58      C        0.33950    0.39420    0.30350    1.000
    C59      C        0.39250    0.43000    0.39020    1.000
    C60      C        0.36680    0.44200    0.33640    1.000
    C61      C        0.38480    0.55940    0.34370    1.000
    C62      C        0.37950    0.57850    0.25780    1.000
    C63      C        0.40520    0.92890    0.51660    1.000
    C64      C        0.39190    0.86030    0.52320    1.000
    C65      C        0.38130    0.82210    0.47840    1.000
    C66      C        0.39510    0.83420    0.57700    1.000
    C67      C        0.38410    0.77010    0.58460    1.000
    C68      C        0.37630    0.73020    0.53630    1.000
    C69      C        0.37510    0.75600    0.48530    1.000
    C70      C        0.37170    0.71400    0.43320    1.000
    C71      C        0.40420    0.78950    0.24690    1.000
    C72      C        0.35260    0.83040    0.20600    1.000
    C73      C        0.39840    0.87800    0.17700    1.000
    C74      C        0.25750    0.82110    0.19520    1.000
    C75      C        0.35130    0.91380    0.13610    1.000
    C76      C        0.25780    0.90380    0.12680    1.000
    C77      C        0.20930    0.85870    0.15710    1.000
    C78      C        0.10500    0.84750    0.14840    1.000
    N1       N        0.86680    0.46950    0.11810    1.000
    N2       N        0.86250    0.36830    0.06230    1.000
    N3       N        0.86250    0.40620    0.96160    1.000
    N4       N        0.87300    0.99510    0.18430    1.000
    N5       N        0.86730    0.98270    0.24020    1.000
    N6       N        0.89000    0.89420    0.19370    1.000
    N7       N        0.36680    0.03050    0.38190    1.000
    N8       N        0.36250    0.13170    0.43770    1.000
    N9       N        0.36250    0.09380    0.53840    1.000
    N10      N        0.37300    0.50490    0.31570    1.000
    N11      N        0.36730    0.51730    0.25980    1.000
    N12      N        0.39000    0.60580    0.30630    1.000
    O1       O        0.85020    0.54200    0.01670    1.000
    O2       O        0.96510    0.54360    0.95260    1.000
    O3       O        0.89050    0.75870    0.11200    1.000
    O4       O        0.85180    0.84290    0.06150    1.000
    O5       O        0.86730    0.76240    0.24140    1.000
    O6       O        0.97140    0.68700    0.22870    1.000
    O7       O        0.56580    0.68620    0.31410    1.000
    O8       O        0.56490    0.62930    0.39120    1.000
    O9       O        0.35020    0.95800    0.48330    1.000
    O10      O        0.46510    0.95640    0.54740    1.000
    O11      O        0.39050    0.74130    0.38800    1.000
    O12      O        0.35180    0.65710    0.43850    1.000
    O13      O        0.36730    0.73760    0.25860    1.000
    O14      O        0.47140    0.81300    0.27130    1.000
    O15      O        0.06580    0.81380    0.18590    1.000
    O16      O        0.06490    0.87070    0.10880    1.000
    Cu5      Cu       0.63017    0.54575    0.03524    1.000
    Cu6      Cu       0.57042    0.19788    0.17785    1.000
    Cu7      Cu       0.13017    0.95425    0.46476    1.000
    Cu8      Cu       0.07042    0.30212    0.32215    1.000
    H49      H        0.62830    0.43690    0.12190    1.000
    H50      H        0.61170    0.42840    0.21850    1.000
    H51      H        0.60710    0.52000    0.27090    1.000
    H52      H        0.61810    0.61800    0.22790    1.000
    H53      H        0.63520    0.70900    0.17630    1.000
    H54      H        0.64070    0.77360    0.01990    1.000
    H55      H        0.62670    0.74070    0.92510    1.000
    H56      H        0.61350    0.69650    0.83920    1.000
    H57      H        0.62620    0.58790    0.82950    1.000
    H58      H        0.63810    0.52870    0.90360    1.000
    H59      H        0.68130    0.80170    0.20010    1.000
    H60      H        0.58890    0.86260    0.05410    1.000
    H61      H        0.67790    0.90210    0.23310    1.000
    H62      H        0.58910    0.96290    0.08660    1.000
    H63      H        0.61130    0.06380    0.11790    1.000
    H64      H        0.61940    0.10090    0.27550    1.000
    H65      H        0.62190    0.33950    0.05710    1.000
    H66      H        0.59540    0.36030    0.89240    1.000
    H67      H        0.61810    0.25290    0.87970    1.000
    H68      H        0.62800    0.18660    0.95950    1.000
    H69      H        0.53870    0.38640    0.31540    1.000
    H70      H        0.77460    0.28920    0.28620    1.000
    H71      H        0.61630    0.44410    0.38430    1.000
    H72      H        0.77360    0.42740    0.40010    1.000
    H73      H        0.12830    0.06310    0.37810    1.000
    H74      H        0.11170    0.07160    0.28150    1.000
    H75      H        0.10710    0.98000    0.22910    1.000
    H76      H        0.11810    0.88200    0.27210    1.000
    H77      H        0.13520    0.79100    0.32370    1.000
    H78      H        0.14070    0.72640    0.48010    1.000
    H79      H        0.12670    0.75930    0.57490    1.000
    H80      H        0.11350    0.80350    0.66080    1.000
    H81      H        0.12620    0.91210    0.67050    1.000
    H82      H        0.13810    0.97130    0.59640    1.000
    H83      H        0.18130    0.69830    0.29990    1.000
    H84      H        0.08890    0.63740    0.44590    1.000
    H85      H        0.17790    0.59790    0.26690    1.000
    H86      H        0.08910    0.53710    0.41340    1.000
    H87      H        0.11130    0.43620    0.38210    1.000
    H88      H        0.11940    0.39910    0.22450    1.000
    H89      H        0.12190    0.16050    0.44290    1.000
    H90      H        0.09540    0.13970    0.60760    1.000
    H91      H        0.11810    0.24710    0.62030    1.000
    H92      H        0.12800    0.31340    0.54050    1.000
    H93      H        0.03870    0.11360    0.18460    1.000
    H94      H        0.27460    0.21080    0.21380    1.000
    H95      H        0.11630    0.05590    0.11570    1.000
    H96      H        0.27360    0.07260    0.09990    1.000
    C79      C        0.62630    0.47340    0.14350    1.000
    C80      C        0.61640    0.46780    0.20150    1.000
    C81      C        0.61370    0.52240    0.23250    1.000
    C82      C        0.62090    0.58110    0.20700    1.000
    C83      C        0.63220    0.58320    0.15040    1.000
    C84      C        0.63530    0.64050    0.11710    1.000
    C85      C        0.63590    0.70250    0.13800    1.000
    C86      C        0.63760    0.75420    0.10260    1.000
    C87      C        0.63860    0.74060    0.04540    1.000
    C88      C        0.63650    0.67810    0.02620    1.000
    C89      C        0.63470    0.65730    0.96860    1.000
    C90      C        0.62740    0.69700    0.92100    1.000
    C91      C        0.62150    0.67110    0.87040    1.000
    C92      C        0.62740    0.60650    0.86460    1.000
    C93      C        0.63460    0.57230    0.90860    1.000
    C94      C        0.63860    0.82020    0.12230    1.000
    C95      C        0.66280    0.83430    0.17650    1.000
    C96      C        0.60880    0.87020    0.09030    1.000
    C97      C        0.66050    0.89420    0.19650    1.000
    C98      C        0.60750    0.93000    0.10980    1.000
    C99      C        0.63320    0.94200    0.16360    1.000
    C100     C        0.61520    0.05940    0.15630    1.000
    C101     C        0.62050    0.07850    0.24220    1.000
    C102     C        0.59480    0.42890    0.98340    1.000
    C103     C        0.60810    0.36030    0.97680    1.000
    C104     C        0.61870    0.32210    0.02160    1.000
    C105     C        0.60490    0.33420    0.92300    1.000
    C106     C        0.61590    0.27010    0.91540    1.000
    C107     C        0.62370    0.23020    0.96370    1.000
    C108     C        0.62490    0.25600    0.01470    1.000
    C109     C        0.62830    0.21400    0.06680    1.000
    C110     C        0.59580    0.28950    0.25310    1.000
    C111     C        0.64740    0.33040    0.29400    1.000
    C112     C        0.60160    0.37800    0.32300    1.000
    C113     C        0.74250    0.32110    0.30480    1.000
    C114     C        0.64870    0.41380    0.36390    1.000
    C115     C        0.74220    0.40380    0.37320    1.000
    C116     C        0.79070    0.35870    0.34290    1.000
    C117     C        0.89500    0.34750    0.35160    1.000
    C118     C        0.12630    0.02660    0.35650    1.000
    C119     C        0.11640    0.03220    0.29850    1.000
    C120     C        0.11370    0.97760    0.26750    1.000
    C121     C        0.12090    0.91890    0.29300    1.000
    C122     C        0.13220    0.91680    0.34960    1.000
    C123     C        0.13530    0.85950    0.38290    1.000
    C124     C        0.13590    0.79750    0.36200    1.000
    C125     C        0.13760    0.74580    0.39740    1.000
    C126     C        0.13860    0.75940    0.45460    1.000
    C127     C        0.13650    0.82190    0.47380    1.000
    C128     C        0.13470    0.84270    0.53140    1.000
    C129     C        0.12740    0.80300    0.57900    1.000
    C130     C        0.12150    0.82890    0.62960    1.000
    C131     C        0.12740    0.89350    0.63540    1.000
    C132     C        0.13460    0.92770    0.59140    1.000
    C133     C        0.13860    0.67980    0.37770    1.000
    C134     C        0.16280    0.66570    0.32350    1.000
    C135     C        0.10880    0.62980    0.40970    1.000
    C136     C        0.16050    0.60580    0.30350    1.000
    C137     C        0.10750    0.57000    0.39020    1.000
    C138     C        0.13320    0.55800    0.33640    1.000
    C139     C        0.11520    0.44060    0.34370    1.000
    C140     C        0.12050    0.42150    0.25780    1.000
    C141     C        0.09480    0.07110    0.51660    1.000
    C142     C        0.10810    0.13970    0.52320    1.000
    C143     C        0.11870    0.17790    0.47840    1.000
    C144     C        0.10490    0.16580    0.57700    1.000
    C145     C        0.11590    0.22990    0.58460    1.000
    C146     C        0.12370    0.26980    0.53630    1.000
    C147     C        0.12490    0.24400    0.48530    1.000
    C148     C        0.12830    0.28600    0.43320    1.000
    C149     C        0.09580    0.21050    0.24690    1.000
    C150     C        0.14740    0.16960    0.20600    1.000
    C151     C        0.10160    0.12200    0.17700    1.000
    C152     C        0.24250    0.17890    0.19520    1.000
    C153     C        0.14870    0.08620    0.13610    1.000
    C154     C        0.24220    0.09620    0.12680    1.000
    C155     C        0.29070    0.14130    0.15710    1.000
    C156     C        0.39500    0.15250    0.14840    1.000
    N13      N        0.63320    0.53050    0.11810    1.000
    N14      N        0.63750    0.63170    0.06230    1.000
    N15      N        0.63750    0.59380    0.96160    1.000
    N16      N        0.62700    0.00490    0.18430    1.000
    N17      N        0.63270    0.01730    0.24020    1.000
    N18      N        0.61000    0.10580    0.19370    1.000
    N19      N        0.13320    0.96950    0.38190    1.000
    N20      N        0.13750    0.86830    0.43770    1.000
    N21      N        0.13750    0.90620    0.53840    1.000
    N22      N        0.12700    0.49510    0.31570    1.000
    N23      N        0.13270    0.48270    0.25980    1.000
    N24      N        0.11000    0.39420    0.30630    1.000
    O17      O        0.64980    0.45800    0.01670    1.000
    O18      O        0.53490    0.45640    0.95260    1.000
    O19      O        0.60950    0.24130    0.11200    1.000
    O20      O        0.64820    0.15710    0.06150    1.000
    O21      O        0.63270    0.23760    0.24140    1.000
    O22      O        0.52860    0.31300    0.22870    1.000
    O23      O        0.93420    0.31380    0.31410    1.000
    O24      O        0.93510    0.37070    0.39120    1.000
    O25      O        0.14980    0.04200    0.48330    1.000
    O26      O        0.03490    0.04360    0.54740    1.000
    O27      O        0.10950    0.25870    0.38800    1.000
    O28      O        0.14820    0.34290    0.43850    1.000
    O29      O        0.13270    0.26240    0.25860    1.000
    O30      O        0.02860    0.18700    0.27130    1.000
    O31      O        0.43420    0.18620    0.18590    1.000
    O32      O        0.43510    0.12930    0.10880    1.000
    Cu9      Cu       0.13017    0.54575    0.96476    1.000
    Cu10     Cu       0.07042    0.19788    0.82215    1.000
    Cu11     Cu       0.63017    0.95425    0.53524    1.000
    Cu12     Cu       0.57042    0.30212    0.67785    1.000
    H97      H        0.12830    0.43690    0.87810    1.000
    H98      H        0.11170    0.42840    0.78150    1.000
    H99      H        0.10710    0.52000    0.72910    1.000
    H100     H        0.11810    0.61800    0.77210    1.000
    H101     H        0.13520    0.70900    0.82370    1.000
    H102     H        0.14070    0.77360    0.98010    1.000
    H103     H        0.12670    0.74070    0.07490    1.000
    H104     H        0.11350    0.69650    0.16080    1.000
    H105     H        0.12620    0.58790    0.17050    1.000
    H106     H        0.13810    0.52870    0.09640    1.000
    H107     H        0.18130    0.80170    0.79990    1.000
    H108     H        0.08890    0.86260    0.94590    1.000
    H109     H        0.17790    0.90210    0.76690    1.000
    H110     H        0.08910    0.96290    0.91340    1.000
    H111     H        0.11130    0.06380    0.88210    1.000
    H112     H        0.11940    0.10090    0.72450    1.000
    H113     H        0.12190    0.33950    0.94290    1.000
    H114     H        0.09540    0.36030    0.10760    1.000
    H115     H        0.11810    0.25290    0.12030    1.000
    H116     H        0.12800    0.18660    0.04050    1.000
    H117     H        0.03870    0.38640    0.68460    1.000
    H118     H        0.27460    0.28920    0.71380    1.000
    H119     H        0.11630    0.44410    0.61570    1.000
    H120     H        0.27360    0.42740    0.59990    1.000
    H121     H        0.62830    0.06310    0.62190    1.000
    H122     H        0.61170    0.07160    0.71850    1.000
    H123     H        0.60710    0.98000    0.77090    1.000
    H124     H        0.61810    0.88200    0.72790    1.000
    H125     H        0.63520    0.79100    0.67630    1.000
    H126     H        0.64070    0.72640    0.51990    1.000
    H127     H        0.62670    0.75930    0.42510    1.000
    H128     H        0.61350    0.80350    0.33920    1.000
    H129     H        0.62620    0.91210    0.32950    1.000
    H130     H        0.63810    0.97130    0.40360    1.000
    H131     H        0.68130    0.69830    0.70010    1.000
    H132     H        0.58890    0.63740    0.55410    1.000
    H133     H        0.67790    0.59790    0.73310    1.000
    H134     H        0.58910    0.53710    0.58660    1.000
    H135     H        0.61130    0.43620    0.61790    1.000
    H136     H        0.61940    0.39910    0.77550    1.000
    H137     H        0.62190    0.16050    0.55710    1.000
    H138     H        0.59540    0.13970    0.39240    1.000
    H139     H        0.61810    0.24710    0.37970    1.000
    H140     H        0.62800    0.31340    0.45950    1.000
    H141     H        0.53870    0.11360    0.81540    1.000
    H142     H        0.77460    0.21080    0.78620    1.000
    H143     H        0.61630    0.05590    0.88430    1.000
    H144     H        0.77360    0.07260    0.90010    1.000
    C157     C        0.12630    0.47340    0.85650    1.000
    C158     C        0.11640    0.46780    0.79850    1.000
    C159     C        0.11370    0.52240    0.76750    1.000
    C160     C        0.12090    0.58110    0.79300    1.000
    C161     C        0.13220    0.58320    0.84960    1.000
    C162     C        0.13530    0.64050    0.88290    1.000
    C163     C        0.13590    0.70250    0.86200    1.000
    C164     C        0.13760    0.75420    0.89740    1.000
    C165     C        0.13860    0.74060    0.95460    1.000
    C166     C        0.13650    0.67810    0.97380    1.000
    C167     C        0.13470    0.65730    0.03140    1.000
    C168     C        0.12740    0.69700    0.07900    1.000
    C169     C        0.12150    0.67110    0.12960    1.000
    C170     C        0.12740    0.60650    0.13540    1.000
    C171     C        0.13460    0.57230    0.09140    1.000
    C172     C        0.13860    0.82020    0.87770    1.000
    C173     C        0.16280    0.83430    0.82350    1.000
    C174     C        0.10880    0.87020    0.90970    1.000
    C175     C        0.16050    0.89420    0.80350    1.000
    C176     C        0.10750    0.93000    0.89020    1.000
    C177     C        0.13320    0.94200    0.83640    1.000
    C178     C        0.11520    0.05940    0.84370    1.000
    C179     C        0.12050    0.07850    0.75780    1.000
    C180     C        0.09480    0.42890    0.01660    1.000
    C181     C        0.10810    0.36030    0.02320    1.000
    C182     C        0.11870    0.32210    0.97840    1.000
    C183     C        0.10490    0.33420    0.07700    1.000
    C184     C        0.11590    0.27010    0.08460    1.000
    C185     C        0.12370    0.23020    0.03630    1.000
    C186     C        0.12490    0.25600    0.98530    1.000
    C187     C        0.12830    0.21400    0.93320    1.000
    C188     C        0.09580    0.28950    0.74690    1.000
    C189     C        0.14740    0.33040    0.70600    1.000
    C190     C        0.10160    0.37800    0.67700    1.000
    C191     C        0.24250    0.32110    0.69520    1.000
    C192     C        0.14870    0.41380    0.63610    1.000
    C193     C        0.24220    0.40380    0.62680    1.000
    C194     C        0.29070    0.35870    0.65710    1.000
    C195     C        0.39500    0.34750    0.64840    1.000
    C196     C        0.62630    0.02660    0.64350    1.000
    C197     C        0.61640    0.03220    0.70150    1.000
    C198     C        0.61370    0.97760    0.73250    1.000
    C199     C        0.62090    0.91890    0.70700    1.000
    C200     C        0.63220    0.91680    0.65040    1.000
    C201     C        0.63530    0.85950    0.61710    1.000
    C202     C        0.63590    0.79750    0.63800    1.000
    C203     C        0.63760    0.74580    0.60260    1.000
    C204     C        0.63860    0.75940    0.54540    1.000
    C205     C        0.63650    0.82190    0.52620    1.000
    C206     C        0.63470    0.84270    0.46860    1.000
    C207     C        0.62740    0.80300    0.42100    1.000
    C208     C        0.62150    0.82890    0.37040    1.000
    C209     C        0.62740    0.89350    0.36460    1.000
    C210     C        0.63460    0.92770    0.40860    1.000
    C211     C        0.63860    0.67980    0.62230    1.000
    C212     C        0.66280    0.66570    0.67650    1.000
    C213     C        0.60880    0.62980    0.59030    1.000
    C214     C        0.66050    0.60580    0.69650    1.000
    C215     C        0.60750    0.57000    0.60980    1.000
    C216     C        0.63320    0.55800    0.66360    1.000
    C217     C        0.61520    0.44060    0.65630    1.000
    C218     C        0.62050    0.42150    0.74220    1.000
    C219     C        0.59480    0.07110    0.48340    1.000
    C220     C        0.60810    0.13970    0.47680    1.000
    C221     C        0.61870    0.17790    0.52160    1.000
    C222     C        0.60490    0.16580    0.42300    1.000
    C223     C        0.61590    0.22990    0.41540    1.000
    C224     C        0.62370    0.26980    0.46370    1.000
    C225     C        0.62490    0.24400    0.51470    1.000
    C226     C        0.62830    0.28600    0.56680    1.000
    C227     C        0.59580    0.21050    0.75310    1.000
    C228     C        0.64740    0.16960    0.79400    1.000
    C229     C        0.60160    0.12200    0.82300    1.000
    C230     C        0.74250    0.17890    0.80480    1.000
    C231     C        0.64870    0.08620    0.86390    1.000
    C232     C        0.74220    0.09620    0.87320    1.000
    C233     C        0.79070    0.14130    0.84290    1.000
    C234     C        0.89500    0.15250    0.85160    1.000
    N25      N        0.13320    0.53050    0.88190    1.000
    N26      N        0.13750    0.63170    0.93770    1.000
    N27      N        0.13750    0.59380    0.03840    1.000
    N28      N        0.12700    0.00490    0.81570    1.000
    N29      N        0.13270    0.01730    0.75980    1.000
    N30      N        0.11000    0.10580    0.80630    1.000
    N31      N        0.63320    0.96950    0.61810    1.000
    N32      N        0.63750    0.86830    0.56230    1.000
    N33      N        0.63750    0.90620    0.46160    1.000
    N34      N        0.62700    0.49510    0.68430    1.000
    N35      N        0.63270    0.48270    0.74020    1.000
    N36      N        0.61000    0.39420    0.69370    1.000
    O33      O        0.14980    0.45800    0.98330    1.000
    O34      O        0.03490    0.45640    0.04740    1.000
    O35      O        0.10950    0.24130    0.88800    1.000
    O36      O        0.14820    0.15710    0.93850    1.000
    O37      O        0.13270    0.23760    0.75860    1.000
    O38      O        0.02860    0.31300    0.77130    1.000
    O39      O        0.43420    0.31380    0.68590    1.000
    O40      O        0.43510    0.37070    0.60880    1.000
    O41      O        0.64980    0.04200    0.51670    1.000
    O42      O        0.53490    0.04360    0.45260    1.000
    O43      O        0.60950    0.25870    0.61200    1.000
    O44      O        0.64820    0.34290    0.56150    1.000
    O45      O        0.63270    0.26240    0.74140    1.000
    O46      O        0.52860    0.18700    0.72870    1.000
    O47      O        0.93420    0.18620    0.81410    1.000
    O48      O        0.93510    0.12930    0.89120    1.000
    Cu13     Cu       0.36983    0.45425    0.96476    1.000
    Cu14     Cu       0.42958    0.80212    0.82215    1.000
    Cu15     Cu       0.86983    0.04575    0.53524    1.000
    Cu16     Cu       0.92958    0.69788    0.67785    1.000
    H145     H        0.37170    0.56310    0.87810    1.000
    H146     H        0.38830    0.57160    0.78150    1.000
    H147     H        0.39290    0.48000    0.72910    1.000
    H148     H        0.38190    0.38200    0.77210    1.000
    H149     H        0.36480    0.29100    0.82370    1.000
    H150     H        0.35930    0.22640    0.98010    1.000
    H151     H        0.37330    0.25930    0.07490    1.000
    H152     H        0.38650    0.30350    0.16080    1.000
    H153     H        0.37380    0.41210    0.17050    1.000
    H154     H        0.36190    0.47130    0.09640    1.000
    H155     H        0.31870    0.19830    0.79990    1.000
    H156     H        0.41110    0.13740    0.94590    1.000
    H157     H        0.32210    0.09790    0.76690    1.000
    H158     H        0.41090    0.03710    0.91340    1.000
    H159     H        0.38870    0.93620    0.88210    1.000
    H160     H        0.38060    0.89910    0.72450    1.000
    H161     H        0.37810    0.66050    0.94290    1.000
    H162     H        0.40460    0.63970    0.10760    1.000
    H163     H        0.38190    0.74710    0.12030    1.000
    H164     H        0.37200    0.81340    0.04050    1.000
    H165     H        0.46130    0.61360    0.68460    1.000
    H166     H        0.22540    0.71080    0.71380    1.000
    H167     H        0.38370    0.55590    0.61570    1.000
    H168     H        0.22640    0.57260    0.59990    1.000
    H169     H        0.87170    0.93690    0.62190    1.000
    H170     H        0.88830    0.92840    0.71850    1.000
    H171     H        0.89290    0.02000    0.77090    1.000
    H172     H        0.88190    0.11800    0.72790    1.000
    H173     H        0.86480    0.20900    0.67630    1.000
    H174     H        0.85930    0.27360    0.51990    1.000
    H175     H        0.87330    0.24070    0.42510    1.000
    H176     H        0.88650    0.19650    0.33920    1.000
    H177     H        0.87380    0.08790    0.32950    1.000
    H178     H        0.86190    0.02870    0.40360    1.000
    H179     H        0.81870    0.30170    0.70010    1.000
    H180     H        0.91110    0.36260    0.55410    1.000
    H181     H        0.82210    0.40210    0.73310    1.000
    H182     H        0.91090    0.46290    0.58660    1.000
    H183     H        0.88870    0.56380    0.61790    1.000
    H184     H        0.88060    0.60090    0.77550    1.000
    H185     H        0.87810    0.83950    0.55710    1.000
    H186     H        0.90460    0.86030    0.39240    1.000
    H187     H        0.88190    0.75290    0.37970    1.000
    H188     H        0.87200    0.68660    0.45950    1.000
    H189     H        0.96130    0.88640    0.81540    1.000
    H190     H        0.72540    0.78920    0.78620    1.000
    H191     H        0.88370    0.94410    0.88430    1.000
    H192     H        0.72640    0.92740    0.90010    1.000
    C235     C        0.37370    0.52660    0.85650    1.000
    C236     C        0.38360    0.53220    0.79850    1.000
    C237     C        0.38630    0.47760    0.76750    1.000
    C238     C        0.37910    0.41890    0.79300    1.000
    C239     C        0.36780    0.41680    0.84960    1.000
    C240     C        0.36470    0.35950    0.88290    1.000
    C241     C        0.36410    0.29750    0.86200    1.000
    C242     C        0.36240    0.24580    0.89740    1.000
    C243     C        0.36140    0.25940    0.95460    1.000
    C244     C        0.36350    0.32190    0.97380    1.000
    C245     C        0.36530    0.34270    0.03140    1.000
    C246     C        0.37260    0.30300    0.07900    1.000
    C247     C        0.37850    0.32890    0.12960    1.000
    C248     C        0.37260    0.39350    0.13540    1.000
    C249     C        0.36540    0.42770    0.09140    1.000
    C250     C        0.36140    0.17980    0.87770    1.000
    C251     C        0.33720    0.16570    0.82350    1.000
    C252     C        0.39120    0.12980    0.90970    1.000
    C253     C        0.33950    0.10580    0.80350    1.000
    C254     C        0.39250    0.07000    0.89020    1.000
    C255     C        0.36680    0.05800    0.83640    1.000
    C256     C        0.38480    0.94060    0.84370    1.000
    C257     C        0.37950    0.92150    0.75780    1.000
    C258     C        0.40520    0.57110    0.01660    1.000
    C259     C        0.39190    0.63970    0.02320    1.000
    C260     C        0.38130    0.67790    0.97840    1.000
    C261     C        0.39510    0.66580    0.07700    1.000
    C262     C        0.38410    0.72990    0.08460    1.000
    C263     C        0.37630    0.76980    0.03630    1.000
    C264     C        0.37510    0.74400    0.98530    1.000
    C265     C        0.37170    0.78600    0.93320    1.000
    C266     C        0.40420    0.71050    0.74690    1.000
    C267     C        0.35260    0.66960    0.70600    1.000
    C268     C        0.39840    0.62200    0.67700    1.000
    C269     C        0.25750    0.67890    0.69520    1.000
    C270     C        0.35130    0.58620    0.63610    1.000
    C271     C        0.25780    0.59620    0.62680    1.000
    C272     C        0.20930    0.64130    0.65710    1.000
    C273     C        0.10500    0.65250    0.64840    1.000
    C274     C        0.87370    0.97340    0.64350    1.000
    C275     C        0.88360    0.96780    0.70150    1.000
    C276     C        0.88630    0.02240    0.73250    1.000
    C277     C        0.87910    0.08110    0.70700    1.000
    C278     C        0.86780    0.08320    0.65040    1.000
    C279     C        0.86470    0.14050    0.61710    1.000
    C280     C        0.86410    0.20250    0.63800    1.000
    C281     C        0.86240    0.25420    0.60260    1.000
    C282     C        0.86140    0.24060    0.54540    1.000
    C283     C        0.86350    0.17810    0.52620    1.000
    C284     C        0.86530    0.15730    0.46860    1.000
    C285     C        0.87260    0.19700    0.42100    1.000
    C286     C        0.87850    0.17110    0.37040    1.000
    C287     C        0.87260    0.10650    0.36460    1.000
    C288     C        0.86540    0.07230    0.40860    1.000
    C289     C        0.86140    0.32020    0.62230    1.000
    C290     C        0.83720    0.33430    0.67650    1.000
    C291     C        0.89120    0.37020    0.59030    1.000
    C292     C        0.83950    0.39420    0.69650    1.000
    C293     C        0.89250    0.43000    0.60980    1.000
    C294     C        0.86680    0.44200    0.66360    1.000
    C295     C        0.88480    0.55940    0.65630    1.000
    C296     C        0.87950    0.57850    0.74220    1.000
    C297     C        0.90520    0.92890    0.48340    1.000
    C298     C        0.89190    0.86030    0.47680    1.000
    C299     C        0.88130    0.82210    0.52160    1.000
    C300     C        0.89510    0.83420    0.42300    1.000
    C301     C        0.88410    0.77010    0.41540    1.000
    C302     C        0.87630    0.73020    0.46370    1.000
    C303     C        0.87510    0.75600    0.51470    1.000
    C304     C        0.87170    0.71400    0.56680    1.000
    C305     C        0.90420    0.78950    0.75310    1.000
    C306     C        0.85260    0.83040    0.79400    1.000
    C307     C        0.89840    0.87800    0.82300    1.000
    C308     C        0.75750    0.82110    0.80480    1.000
    C309     C        0.85130    0.91380    0.86390    1.000
    C310     C        0.75780    0.90380    0.87320    1.000
    C311     C        0.70930    0.85870    0.84290    1.000
    C312     C        0.60500    0.84750    0.85160    1.000
    N37      N        0.36680    0.46950    0.88190    1.000
    N38      N        0.36250    0.36830    0.93770    1.000
    N39      N        0.36250    0.40620    0.03840    1.000
    N40      N        0.37300    0.99510    0.81570    1.000
    N41      N        0.36730    0.98270    0.75980    1.000
    N42      N        0.39000    0.89420    0.80630    1.000
    N43      N        0.86680    0.03050    0.61810    1.000
    N44      N        0.86250    0.13170    0.56230    1.000
    N45      N        0.86250    0.09380    0.46160    1.000
    N46      N        0.87300    0.50490    0.68430    1.000
    N47      N        0.86730    0.51730    0.74020    1.000
    N48      N        0.89000    0.60580    0.69370    1.000
    O49      O        0.35020    0.54200    0.98330    1.000
    O50      O        0.46510    0.54360    0.04740    1.000
    O51      O        0.39050    0.75870    0.88800    1.000
    O52      O        0.35180    0.84290    0.93850    1.000
    O53      O        0.36730    0.76240    0.75860    1.000
    O54      O        0.47140    0.68700    0.77130    1.000
    O55      O        0.06580    0.68620    0.68590    1.000
    O56      O        0.06490    0.62930    0.60880    1.000
    O57      O        0.85020    0.95800    0.51670    1.000
    O58      O        0.96510    0.95640    0.45260    1.000
    O59      O        0.89050    0.74130    0.61200    1.000
    O60      O        0.85180    0.65710    0.56150    1.000
    O61      O        0.86730    0.73760    0.74140    1.000
    O62      O        0.97140    0.81300    0.72870    1.000
    O63      O        0.56580    0.81380    0.81410    1.000
    O64      O        0.56490    0.87070    0.89120    1.000
