# CIF file generated by openbabel 3.1.0, see https://openbabel.org
data_I
_chemical_name_common 'image0'
_cell_length_a 14.0306
_cell_length_b 14.0306
_cell_length_c 28.178
_cell_angle_alpha 90
_cell_angle_beta 90
_cell_angle_gamma 120
_space_group_name_H-M_alt 'P 1'
_space_group_name_Hall 'P 1'
loop_
    _symmetry_equiv_pos_as_xyz
    x,y,z
loop_
    _atom_site_label
    _atom_site_type_symbol
    _atom_site_fract_x
    _atom_site_fract_y
    _atom_site_fract_z
    _atom_site_occupancy
    C1       C        0.21970    0.01210    0.06480    1.000
    Cd1      Cd       0.42990    0.09083    0.02472    1.000
    O1       O        0.23770    0.07220    0.02993    1.000
    C2       C        0.11130    0.95940    0.08990    1.000
    O2       O        0.29090    0.98840    0.07970    1.000
    C3       C        0.08760    0.88510    0.12610    1.000
    H1       H        0.13900    0.86520    0.13510    1.000
    O3       O        0.72030    0.60250    0.27840    1.000
    C4       C        0.98740    0.84000    0.14900    1.000
    H2       H        0.97280    0.79090    0.17390    1.000
    O4       O        0.60040    0.65190    0.30220    1.000
    C5       C        0.90480    0.86730    0.13530    1.000
    O5       O        0.51060    0.00160    0.06090    1.000
    C6       C        0.92930    0.94090    0.09850    1.000
    O6       O        0.61860    0.11340    0.00670    1.000
    C7       C        0.03360    0.98560    0.07610    1.000
    H3       H        0.04980    0.03450    0.05100    1.000
    C8       C        0.80040    0.81950    0.16160    1.000
    C9       C        0.77670    0.75370    0.19990    1.000
    H4       H        0.82730    0.73240    0.20860    1.000
    C10      C        0.68410    0.71610    0.22690    1.000
    C11      C        0.66710    0.65220    0.27250    1.000
    C12      C        0.60470    0.74750    0.21210    1.000
    H5       H        0.54150    0.72630    0.23000    1.000
    C13      C        0.62270    0.80840    0.17180    1.000
    H6       H        0.56920    0.82400    0.16120    1.000
    C14      C        0.72020    0.84730    0.14620    1.000
    C15      C        0.74500    0.92110    0.10540    1.000
    C16      C        0.66390    0.94850    0.08800    1.000
    H7       H        0.59540    0.91760    0.10270    1.000
    C17      C        0.68550    0.01570    0.05210    1.000
    C18      C        0.59960    0.04760    0.03830    1.000
    C19      C        0.78400    0.05860    0.02910    1.000
    H8       H        0.79720    0.10400    0.00290    1.000
    C20      C        0.86270    0.03660    0.04340    1.000
    H9       H        0.93040    0.07020    0.02800    1.000
    C21      C        0.84470    0.96500    0.08060    1.000
    C22      C        0.98790    0.20760    0.73147    1.000
    Cd2      Cd       0.90917    0.33907    0.69138    1.000
    O7       O        0.92780    0.16550    0.69660    1.000
    C23      C        0.04060    0.15190    0.75657    1.000
    O8       O        0.01160    0.30250    0.74637    1.000
    C24      C        0.11490    0.20250    0.79277    1.000
    H10      H        0.13480    0.27380    0.80177    1.000
    O9       O        0.39750    0.11780    0.94507    1.000
    C25      C        0.16000    0.14740    0.81567    1.000
    H11      H        0.20910    0.18190    0.84057    1.000
    O10      O        0.34810    0.94850    0.96887    1.000
    C26      C        0.13270    0.03750    0.80197    1.000
    O11      O        0.99840    0.50900    0.72757    1.000
    C27      C        0.05910    0.98840    0.76517    1.000
    O12      O        0.88660    0.50520    0.67337    1.000
    C28      C        0.01440    0.04800    0.74277    1.000
    H12      H        0.96550    0.01530    0.71767    1.000
    C29      C        0.18050    0.98090    0.82827    1.000
    C30      C        0.24630    0.02300    0.86657    1.000
    H13      H        0.26760    0.09490    0.87527    1.000
    C31      C        0.28390    0.96800    0.89357    1.000
    C32      C        0.34780    0.01490    0.93917    1.000
    C33      C        0.25250    0.85720    0.87877    1.000
    H14      H        0.27370    0.81520    0.89667    1.000
    C34      C        0.19160    0.81430    0.83847    1.000
    H15      H        0.17600    0.74520    0.82787    1.000
    C35      C        0.15270    0.87290    0.81287    1.000
    C36      C        0.07890    0.82390    0.77207    1.000
    C37      C        0.05150    0.71540    0.75467    1.000
    H16      H        0.08240    0.67780    0.76937    1.000
    C38      C        0.98430    0.66980    0.71877    1.000
    C39      C        0.95240    0.55200    0.70497    1.000
    C40      C        0.94140    0.72540    0.69577    1.000
    H17      H        0.89600    0.69320    0.66957    1.000
    C41      C        0.96340    0.82610    0.71007    1.000
    H18      H        0.92980    0.86020    0.69467    1.000
    C42      C        0.03500    0.87970    0.74727    1.000
    C43      C        0.79240    0.78030    0.39813    1.000
    Cd3      Cd       0.66093    0.57010    0.35805    1.000
    O13      O        0.83450    0.76230    0.36326    1.000
    C44      C        0.84810    0.88870    0.42323    1.000
    O14      O        0.69750    0.70910    0.41303    1.000
    C45      C        0.79750    0.91240    0.45943    1.000
    H19      H        0.72620    0.86100    0.46843    1.000
    O15      O        0.88220    0.27970    0.61173    1.000
    C46      C        0.85260    0.01260    0.48233    1.000
    H20      H        0.81810    0.02720    0.50723    1.000
    O16      O        0.05150    0.39960    0.63553    1.000
    C47      C        0.96250    0.09520    0.46863    1.000
    O17      O        0.49100    0.48940    0.39423    1.000
    C48      C        0.01160    0.07070    0.43183    1.000
    O18      O        0.49480    0.38140    0.34003    1.000
    C49      C        0.95200    0.96640    0.40943    1.000
    H21      H        0.98470    0.95020    0.38433    1.000
    C50      C        0.01910    0.19960    0.49493    1.000
    C51      C        0.97700    0.22330    0.53323    1.000
    H22      H        0.90510    0.17270    0.54193    1.000
    C52      C        0.03200    0.31590    0.56023    1.000
    C53      C        0.98510    0.33290    0.60583    1.000
    C54      C        0.14280    0.39530    0.54543    1.000
    H23      H        0.18480    0.45850    0.56333    1.000
    C55      C        0.18570    0.37730    0.50513    1.000
    H24      H        0.25480    0.43080    0.49453    1.000
    C56      C        0.12710    0.27980    0.47953    1.000
    C57      C        0.17610    0.25500    0.43873    1.000
    C58      C        0.28460    0.33610    0.42133    1.000
    H25      H        0.32220    0.40460    0.43603    1.000
    C59      C        0.33020    0.31450    0.38543    1.000
    C60      C        0.44800    0.40040    0.37163    1.000
    C61      C        0.27460    0.21600    0.36243    1.000
    H26      H        0.30680    0.20280    0.33623    1.000
    C62      C        0.17390    0.13730    0.37673    1.000
    H27      H        0.13980    0.06960    0.36133    1.000
    C63      C        0.12030    0.15530    0.41393    1.000
    C64      C        0.01210    0.21970    0.93520    1.000
    Cd4      Cd       0.09083    0.42990    0.97528    1.000
    O19      O        0.07220    0.23770    0.97007    1.000
    C65      C        0.95940    0.11130    0.91010    1.000
    O20      O        0.98840    0.29090    0.92030    1.000
    C66      C        0.88510    0.08760    0.87390    1.000
    H28      H        0.86520    0.13900    0.86490    1.000
    O21      O        0.60250    0.72030    0.72160    1.000
    C67      C        0.84000    0.98740    0.85100    1.000
    H29      H        0.79090    0.97280    0.82610    1.000
    O22      O        0.65190    0.60040    0.69780    1.000
    C68      C        0.86730    0.90480    0.86470    1.000
    O23      O        0.00160    0.51060    0.93910    1.000
    C69      C        0.94090    0.92930    0.90150    1.000
    O24      O        0.11340    0.61860    0.99330    1.000
    C70      C        0.98560    0.03360    0.92390    1.000
    H30      H        0.03450    0.04980    0.94900    1.000
    C71      C        0.81950    0.80040    0.83840    1.000
    C72      C        0.75370    0.77670    0.80010    1.000
    H31      H        0.73240    0.82730    0.79140    1.000
    C73      C        0.71610    0.68410    0.77310    1.000
    C74      C        0.65220    0.66710    0.72750    1.000
    C75      C        0.74750    0.60470    0.78790    1.000
    H32      H        0.72630    0.54150    0.77000    1.000
    C76      C        0.80840    0.62270    0.82820    1.000
    H33      H        0.82400    0.56920    0.83880    1.000
    C77      C        0.84730    0.72020    0.85380    1.000
    C78      C        0.92110    0.74500    0.89460    1.000
    C79      C        0.94850    0.66390    0.91200    1.000
    H34      H        0.91760    0.59540    0.89730    1.000
    C80      C        0.01570    0.68550    0.94790    1.000
    C81      C        0.04760    0.59960    0.96170    1.000
    C82      C        0.05860    0.78400    0.97090    1.000
    H35      H        0.10400    0.79720    0.99710    1.000
    C83      C        0.03660    0.86270    0.95660    1.000
    H36      H        0.07020    0.93040    0.97200    1.000
    C84      C        0.96500    0.84470    0.91940    1.000
    C85      C        0.20760    0.98790    0.26853    1.000
    Cd5      Cd       0.33907    0.90917    0.30862    1.000
    O25      O        0.16550    0.92780    0.30340    1.000
    C86      C        0.15190    0.04060    0.24343    1.000
    O26      O        0.30250    0.01160    0.25363    1.000
    C87      C        0.20250    0.11490    0.20723    1.000
    H37      H        0.27380    0.13480    0.19823    1.000
    O27      O        0.11780    0.39750    0.05493    1.000
    C88      C        0.14740    0.16000    0.18433    1.000
    H38      H        0.18190    0.20910    0.15943    1.000
    O28      O        0.94850    0.34810    0.03113    1.000
    C89      C        0.03750    0.13270    0.19803    1.000
    O29      O        0.50900    0.99840    0.27243    1.000
    C90      C        0.98840    0.05910    0.23483    1.000
    O30      O        0.50520    0.88660    0.32663    1.000
    C91      C        0.04800    0.01440    0.25723    1.000
    H39      H        0.01530    0.96550    0.28233    1.000
    C92      C        0.98090    0.18050    0.17173    1.000
    C93      C        0.02300    0.24630    0.13343    1.000
    H40      H        0.09490    0.26760    0.12473    1.000
    C94      C        0.96800    0.28390    0.10643    1.000
    C95      C        0.01490    0.34780    0.06083    1.000
    C96      C        0.85720    0.25250    0.12123    1.000
    H41      H        0.81520    0.27370    0.10333    1.000
    C97      C        0.81430    0.19160    0.16153    1.000
    H42      H        0.74520    0.17600    0.17213    1.000
    C98      C        0.87290    0.15270    0.18713    1.000
    C99      C        0.82390    0.07890    0.22793    1.000
    C100     C        0.71540    0.05150    0.24533    1.000
    H43      H        0.67780    0.08240    0.23063    1.000
    C101     C        0.66980    0.98430    0.28123    1.000
    C102     C        0.55200    0.95240    0.29503    1.000
    C103     C        0.72540    0.94140    0.30423    1.000
    H44      H        0.69320    0.89600    0.33043    1.000
    C104     C        0.82610    0.96340    0.28993    1.000
    H45      H        0.86020    0.92980    0.30533    1.000
    C105     C        0.87970    0.03500    0.25273    1.000
    C106     C        0.78030    0.79240    0.60187    1.000
    Cd6      Cd       0.57010    0.66093    0.64195    1.000
    O31      O        0.76230    0.83450    0.63674    1.000
    C107     C        0.88870    0.84810    0.57677    1.000
    O32      O        0.70910    0.69750    0.58697    1.000
    C108     C        0.91240    0.79750    0.54057    1.000
    H46      H        0.86100    0.72620    0.53157    1.000
    O33      O        0.27970    0.88220    0.38827    1.000
    C109     C        0.01260    0.85260    0.51767    1.000
    H47      H        0.02720    0.81810    0.49277    1.000
    O34      O        0.39960    0.05150    0.36447    1.000
    C110     C        0.09520    0.96250    0.53137    1.000
    O35      O        0.48940    0.49100    0.60577    1.000
    C111     C        0.07070    0.01160    0.56817    1.000
    O36      O        0.38140    0.49480    0.65997    1.000
    C112     C        0.96640    0.95200    0.59057    1.000
    H48      H        0.95020    0.98470    0.61567    1.000
    C113     C        0.19960    0.01910    0.50507    1.000
    C114     C        0.22330    0.97700    0.46677    1.000
    H49      H        0.17270    0.90510    0.45807    1.000
    C115     C        0.31590    0.03200    0.43977    1.000
    C116     C        0.33290    0.98510    0.39417    1.000
    C117     C        0.39530    0.14280    0.45457    1.000
    H50      H        0.45850    0.18480    0.43667    1.000
    C118     C        0.37730    0.18570    0.49487    1.000
    H51      H        0.43080    0.25480    0.50547    1.000
    C119     C        0.27980    0.12710    0.52047    1.000
    C120     C        0.25500    0.17610    0.56127    1.000
    C121     C        0.33610    0.28460    0.57867    1.000
    H52      H        0.40460    0.32220    0.56397    1.000
    C122     C        0.31450    0.33020    0.61457    1.000
    C123     C        0.40040    0.44800    0.62837    1.000
    C124     C        0.21600    0.27460    0.63757    1.000
    H53      H        0.20280    0.30680    0.66377    1.000
    C125     C        0.13730    0.17390    0.62327    1.000
    H54      H        0.06960    0.13980    0.63867    1.000
    C126     C        0.15530    0.12030    0.58607    1.000
