data_functionalizedCrystal
_audit_creation_method	'EQeq! by Chris Wilmer'
_symmetry_space_group_name_H-M	'P1'
_symmetry_Int_Tables_number	1
_symmetry_cell_setting	triclinic
loop_
_symmetry_equiv_pos_as_xyz
  x,y,z
_cell_length_a	9.3435
_cell_length_b	22.187
_cell_length_c	13.8761
_cell_angle_alpha	90
_cell_angle_beta	109.571
_cell_angle_gamma	90
loop_
_atom_site_label
_atom_site_type_symbol
_atom_site_fract_x
_atom_site_fract_y
_atom_site_fract_z
_atom_site_charge
Mof_Y 	Y 	0.24708	0.93824	0.48929	1.719
Mof_O 	O 	0.0985	0.01549	0.4208	-0.476
Mof_O 	O 	0.8512	0.0735	0.3854	-0.425
Mof_O 	O 	0.5856	0.1357	0.4606	-0.108
Mof_O 	O 	0.1636	0.4444	0.1429	-0.44
Mof_O 	O 	0.9058	0.49471	0.0868	-0.482
Mof_O 	O 	0.4361	0.3802	0.1161	-0.986
Mof_P 	P 	0.98611	0.05873	0.35459	0.527
Mof_O 	O 	0.9166	0.0345	0.2427	-0.407
Mof_C 	C 	0.0825	0.1274	0.3467	-0.093
Mof_H 	H 	0.9805	0.0126	0.229	0.223
Mof_C 	C 	0.2389	0.13	0.3748	0.01
Mof_C 	C 	0.9967	0.1783	0.3073	-0.018
Mof_H 	H 	0.2988	0.0955	0.4021	0.03
Mof_C 	C 	0.3081	0.1836	0.3626	-0.034
Mof_C 	C 	0.0607	0.2328	0.2938	0.035
Mof_H 	H 	0.8894	0.1757	0.2886	0.068
Mof_P 	P 	0.5061	0.18459	0.3706	0.123
Mof_C 	C 	0.22	0.2342	0.3232	-0.043
Mof_C 	C 	0.9664	0.2866	0.2509	-0.076
Mof_O 	O 	0.5283	0.175	0.2673	-0.079
Mof_O 	O 	0.5596	0.2483	0.4096	-0.376
Mof_H 	H 	0.2688	0.2706	0.3159	0.082
Mof_C 	C 	0.8091	0.2858	0.2331	0.168
Mof_C 	C 	0.0261	0.3394	0.2264	0.047
Mof_C 	C 	0.7175	0.3344	0.1925	-0.459
Mof_H 	H 	0.7646	0.2505	0.2496	0.005
Mof_C 	C 	0.9355	0.3894	0.1857	-0.176
Mof_H 	H 	0.132	0.3415	0.2376	0.033
Mof_P 	P 	0.5208	0.33195	0.1852	-1.607
Mof_C 	C 	0.7798	0.3868	0.1671	0.191
Mof_P 	P 	0.02119	0.45815	0.165	0.543
Mof_O 	O 	0.5076	0.3436	0.294	6.282
Mof_O 	O 	0.468	0.2671	0.1576	1.034
Mof_H 	H 	0.7167	0.4202	0.1374	-0.059
Mof_O 	O 	0.0741	0.4909	0.2711	-0.476
Mof_H 	H 	0.0041	0.5133	0.2753	0.289
Mof_O 	O 	0.591	0.1339	0.2271	-0.03
Mof_O 	O 	0.5965	0.0698	0.1867	-0.108
Mof_P 	P 	0.5163	0.1946	0.4344	0.38
Mof_O 	O 	0.5561	0.2312	0.5406	-0.195
Mof_O 	O 	0.5694	0.2328	0.3649	0.071
Mof_O 	O 	0.5822	0.1324	0.4287	-0.302
Mof_P 	P 	0.5128	0.3229	0.1499	3.588
Mof_O 	O 	0.4691	0.2631	0.1125	-1.605
Mof_O 	O 	0.4892	0.3293	0.2596	-6.513
Mof_O 	O 	0.4306	0.3729	0.0866	0.245
Mof_Y 	Y 	0.25292	0.43824	0.01071	1.762
Mof_O 	O 	0.4015	0.51549	0.0792	-0.474
Mof_O 	O 	0.6488	0.5735	0.1146	-0.439
Mof_O 	O 	0.9144	0.6357	0.0394	-0.189
Mof_O 	O 	0.3364	0.9444	0.3571	-0.428
Mof_O 	O 	0.5942	0.99471	0.4132	-0.469
Mof_O 	O 	0.0639	0.8802	0.3839	-0.61
Mof_P 	P 	0.51389	0.55873	0.14541	0.509
Mof_O 	O 	0.5834	0.5345	0.2573	-0.419
Mof_C 	C 	0.4175	0.6274	0.1533	-0.078
Mof_H 	H 	0.5195	0.5126	0.271	0.181
Mof_C 	C 	0.2611	0.63	0.1252	-0.007
Mof_C 	C 	0.5033	0.6783	0.1927	-0.053
Mof_H 	H 	0.2012	0.5955	0.0979	0.035
Mof_C 	C 	0.1919	0.6836	0.1374	-0.023
Mof_C 	C 	0.4393	0.7328	0.2062	0.05
Mof_H 	H 	0.6106	0.6757	0.2114	0.073
Mof_P 	P 	0.9939	0.68459	0.1294	0.265
Mof_C 	C 	0.28	0.7342	0.1768	-0.056
Mof_C 	C 	0.5336	0.7866	0.2491	-0.038
Mof_O 	O 	0.9717	0.675	0.2327	-0.126
Mof_O 	O 	0.9404	0.7483	0.0904	-0.167
Mof_H 	H 	0.2312	0.7706	0.1841	0.09
Mof_C 	C 	0.6909	0.7858	0.2669	0.065
Mof_C 	C 	0.4739	0.8394	0.2736	0.025
Mof_C 	C 	0.7825	0.8344	0.3075	-0.236
Mof_H 	H 	0.7354	0.7505	0.2504	0.043
Mof_C 	C 	0.5645	0.8894	0.3143	-0.124
Mof_H 	H 	0.368	0.8415	0.2624	0.047
Mof_P 	P 	0.9792	0.83195	0.3148	-0.705
Mof_C 	C 	0.7202	0.8868	0.3329	0.095
Mof_P 	P 	0.47881	0.95815	0.335	0.53
Mof_O 	O 	0.9924	0.8436	0.206	3.007
Mof_O 	O 	0.032	0.7671	0.3424	0.469
Mof_H 	H 	0.7833	0.9202	0.3626	-0.011
Mof_O 	O 	0.4259	0.9909	0.2289	-0.437
Mof_H 	H 	0.4959	0.0133	0.2247	0.287
Mof_O 	O 	0.909	0.6339	0.2729	-0.045
Mof_O 	O 	0.9035	0.5698	0.3133	-0.146
Mof_P 	P 	0.9837	0.6946	0.0656	0.222
Mof_O 	O 	0.9439	0.7312	0.9594	-0.135
Mof_O 	O 	0.9306	0.7328	0.1351	-0.1
Mof_O 	O 	0.9178	0.6324	0.0713	-0.221
Mof_P 	P 	0.9872	0.8229	0.3501	1.843
Mof_O 	O 	0.0309	0.7631	0.3875	-0.847
Mof_O 	O 	0.0108	0.8293	0.2404	-3.196
Mof_O 	O 	0.0694	0.8729	0.4134	0.06
Mof_Y 	Y 	0.75292	0.06176	0.51071	1.72
Mof_O 	O 	0.9015	0.98451	0.5792	-0.475
Mof_O 	O 	0.1488	0.9265	0.6146	-0.425
Mof_O 	O 	0.4144	0.8643	0.5394	-0.108
Mof_O 	O 	0.8364	0.5556	0.8571	-0.44
Mof_O 	O 	0.0942	0.50529	0.9132	-0.482
Mof_O 	O 	0.5639	0.6198	0.8839	-0.986
Mof_P 	P 	0.01389	0.94127	0.64541	0.527
Mof_O 	O 	0.0834	0.9655	0.7573	-0.407
Mof_C 	C 	0.9175	0.8726	0.6533	-0.093
Mof_H 	H 	0.0195	0.9874	0.771	0.223
Mof_C 	C 	0.7611	0.87	0.6252	0.01
Mof_C 	C 	0.0033	0.8217	0.6927	-0.018
Mof_H 	H 	0.7012	0.9045	0.5979	0.03
Mof_C 	C 	0.6919	0.8164	0.6374	-0.034
Mof_C 	C 	0.9393	0.7672	0.7062	0.035
Mof_H 	H 	0.1106	0.8243	0.7114	0.068
Mof_P 	P 	0.4939	0.81541	0.6294	0.123
Mof_C 	C 	0.78	0.7658	0.6768	-0.043
Mof_C 	C 	0.0336	0.7134	0.7491	-0.076
Mof_O 	O 	0.4717	0.825	0.7327	-0.079
Mof_O 	O 	0.4404	0.7517	0.5904	-0.376
Mof_H 	H 	0.7312	0.7294	0.6841	0.082
Mof_C 	C 	0.1909	0.7142	0.7669	0.168
Mof_C 	C 	0.9739	0.6606	0.7736	0.047
Mof_C 	C 	0.2825	0.6656	0.8075	-0.459
Mof_H 	H 	0.2354	0.7495	0.7504	0.005
Mof_C 	C 	0.0645	0.6106	0.8143	-0.176
Mof_H 	H 	0.868	0.6585	0.7624	0.033
Mof_P 	P 	0.4792	0.66805	0.8148	-1.607
Mof_C 	C 	0.2202	0.6132	0.8329	0.191
Mof_P 	P 	0.97881	0.54185	0.835	0.543
Mof_O 	O 	0.4924	0.6564	0.706	6.282
Mof_O 	O 	0.532	0.7329	0.8424	1.034
Mof_H 	H 	0.2833	0.5798	0.8626	-0.059
Mof_O 	O 	0.9259	0.5091	0.7289	-0.476
Mof_H 	H 	0.9959	0.4867	0.7247	0.289
Mof_O 	O 	0.409	0.8661	0.7729	-0.03
Mof_O 	O 	0.4035	0.9302	0.8133	-0.108
Mof_P 	P 	0.4837	0.8054	0.5656	0.38
Mof_O 	O 	0.4439	0.7688	0.4594	-0.195
Mof_O 	O 	0.4306	0.7672	0.6351	0.071
Mof_O 	O 	0.4178	0.8676	0.5713	-0.302
Mof_P 	P 	0.4872	0.6771	0.8501	3.588
Mof_O 	O 	0.5309	0.7369	0.8875	-1.605
Mof_O 	O 	0.5108	0.6707	0.7404	-6.513
Mof_O 	O 	0.5694	0.6271	0.9134	0.245
Mof_Y 	Y 	0.74708	0.56176	0.98929	1.762
Mof_O 	O 	0.5985	0.48451	0.9208	-0.474
Mof_O 	O 	0.3512	0.4265	0.8854	-0.439
Mof_O 	O 	0.0856	0.3643	0.9606	-0.189
Mof_O 	O 	0.6636	0.0556	0.6429	-0.428
Mof_O 	O 	0.4058	0.00529	0.5868	-0.469
Mof_O 	O 	0.9361	0.1198	0.6161	-0.61
Mof_P 	P 	0.48611	0.44127	0.85459	0.509
Mof_O 	O 	0.4166	0.4655	0.7427	-0.419
Mof_C 	C 	0.5825	0.3726	0.8467	-0.078
Mof_H 	H 	0.4805	0.4874	0.729	0.181
Mof_C 	C 	0.7389	0.37	0.8748	-0.007
Mof_C 	C 	0.4967	0.3217	0.8073	-0.053
Mof_H 	H 	0.7988	0.4045	0.9021	0.035
Mof_C 	C 	0.8081	0.3164	0.8626	-0.023
Mof_C 	C 	0.5607	0.2672	0.7938	0.05
Mof_H 	H 	0.3894	0.3243	0.7886	0.073
Mof_P 	P 	0.0061	0.31541	0.8706	0.265
Mof_C 	C 	0.72	0.2658	0.8232	-0.056
Mof_C 	C 	0.4664	0.2134	0.7509	-0.038
Mof_O 	O 	0.0283	0.325	0.7673	-0.126
Mof_O 	O 	0.0596	0.2517	0.9096	-0.167
Mof_H 	H 	0.7688	0.2294	0.8159	0.09
Mof_C 	C 	0.3091	0.2142	0.7331	0.065
Mof_C 	C 	0.5261	0.1606	0.7264	0.025
Mof_C 	C 	0.2175	0.1656	0.6925	-0.236
Mof_H 	H 	0.2646	0.2495	0.7496	0.043
Mof_C 	C 	0.4355	0.1106	0.6857	-0.124
Mof_H 	H 	0.632	0.1585	0.7376	0.047
Mof_P 	P 	0.0208	0.16805	0.6852	-0.705
Mof_C 	C 	0.2798	0.1132	0.6671	0.095
Mof_P 	P 	0.52119	0.04185	0.665	0.53
Mof_O 	O 	0.0076	0.1564	0.794	3.007
Mof_O 	O 	0.968	0.2329	0.6576	0.469
Mof_H 	H 	0.2167	0.0798	0.6374	-0.011
Mof_O 	O 	0.5741	0.0091	0.7711	-0.437
Mof_H 	H 	0.5041	0.9867	0.7753	0.287
Mof_O 	O 	0.091	0.3661	0.7271	-0.045
Mof_O 	O 	0.0965	0.4302	0.6867	-0.146
Mof_P 	P 	0.0163	0.3054	0.9344	0.222
Mof_O 	O 	0.0561	0.2688	0.0406	-0.135
Mof_O 	O 	0.0694	0.2672	0.8649	-0.1
Mof_O 	O 	0.0822	0.3676	0.9287	-0.221
Mof_P 	P 	0.0128	0.1771	0.6499	1.843
Mof_O 	O 	0.9691	0.2369	0.6125	-0.847
Mof_O 	O 	0.9892	0.1707	0.7596	-3.196
Mof_O 	O 	0.9306	0.1271	0.5866	0.06
_end
