data_functionalizedCrystal
_audit_creation_method	'EQeq! by Chris Wilmer'
_symmetry_space_group_name_H-M	'P1'
_symmetry_Int_Tables_number	1
_symmetry_cell_setting	triclinic
loop_
_symmetry_equiv_pos_as_xyz
  x,y,z
_cell_length_a	20.471
_cell_length_b	23.426
_cell_length_c	29.406
_cell_angle_alpha	90
_cell_angle_beta	90
_cell_angle_gamma	90
loop_
_atom_site_label
_atom_site_type_symbol
_atom_site_fract_x
_atom_site_fract_y
_atom_site_fract_z
_atom_site_charge
Mof_Nd	Nd	0.40944	0.46772	0.31737	2.349
Mof_Nd	Nd	0.87861	0.80611	0.44806	2.084
Mof_Nd	Nd	0.50686	0.2286	0.35541	1.704
Mof_Nd	Nd	0.59056	0.03228	0.81737	2.349
Mof_Nd	Nd	0.12139	0.69389	0.94806	2.079
Mof_Nd	Nd	0.49314	0.2714	0.85541	1.703
Mof_Nd	Nd	0.90944	0.53228	0.18263	2.347
Mof_Nd	Nd	0.37861	0.19389	0.05194	2.081
Mof_Nd	Nd	0.00686	0.7714	0.14459	1.704
Mof_Nd	Nd	0.09056	0.96772	0.68263	2.343
Mof_Nd	Nd	0.62139	0.30611	0.55194	2.082
Mof_Nd	Nd	0.99314	0.7286	0.64459	1.706
Mof_Nd	Nd	0.59056	0.53228	0.68263	2.348
Mof_Nd	Nd	0.12139	0.19389	0.55194	2.083
Mof_Nd	Nd	0.49314	0.7714	0.64459	1.703
Mof_Nd	Nd	0.40944	0.96772	0.18263	2.348
Mof_Nd	Nd	0.87861	0.30611	0.05194	2.079
Mof_Nd	Nd	0.50686	0.7286	0.14459	1.703
Mof_Nd	Nd	0.09056	0.46772	0.81737	2.347
Mof_Nd	Nd	0.62139	0.80611	0.94806	2.081
Mof_Nd	Nd	0.99314	0.2286	0.85541	1.704
Mof_Nd	Nd	0.90944	0.03228	0.31737	2.343
Mof_Nd	Nd	0.37861	0.69389	0.44806	2.082
Mof_Nd	Nd	0.00686	0.2714	0.35541	1.706
Mof_H 	H 	0.6379	0.742	0.5177	0.01
Mof_H 	H 	0.6742	0.704	0.5853	0.008
Mof_H 	H 	0.7821	0.7092	0.6046	0.031
Mof_H 	H 	0.2214	0.5748	0.4154	0.026
Mof_H 	H 	0.1338	0.5093	0.4064	0.032
Mof_H 	H 	0.1541	0.4235	0.3673	0.02
Mof_H 	H 	0.6074	0.3486	0.2335	0.006
Mof_H 	H 	0.6451	0.4206	0.1853	0.048
Mof_H 	H 	0.5959	0.5088	0.1868	0.028
Mof_H 	H 	0.3621	0.758	0.0177	0.009
Mof_H 	H 	0.3258	0.796	0.0853	0.008
Mof_H 	H 	0.2179	0.7908	0.1046	0.03
Mof_H 	H 	0.7786	0.9252	0.9154	0.026
Mof_H 	H 	0.8662	0.9907	0.9064	0.033
Mof_H 	H 	0.8459	0.0765	0.8673	0.021
Mof_H 	H 	0.3926	0.1514	0.7335	0.006
Mof_H 	H 	0.3549	0.0794	0.6853	0.048
Mof_H 	H 	0.4041	0.9912	0.6868	0.027
Mof_H 	H 	0.1379	0.258	0.9823	0.01
Mof_H 	H 	0.1742	0.296	0.9147	0.008
Mof_H 	H 	0.2821	0.2908	0.8954	0.031
Mof_H 	H 	0.7214	0.4252	0.0846	0.026
Mof_H 	H 	0.6338	0.4907	0.0936	0.032
Mof_H 	H 	0.6541	0.5765	0.1327	0.02
Mof_H 	H 	0.1074	0.6514	0.2665	0.007
Mof_H 	H 	0.1451	0.5794	0.3147	0.048
Mof_H 	H 	0.0959	0.4912	0.3132	0.028
Mof_H 	H 	0.8621	0.242	0.4823	0.01
Mof_H 	H 	0.8258	0.204	0.4147	0.008
Mof_H 	H 	0.7179	0.2092	0.3954	0.031
Mof_H 	H 	0.2786	0.0748	0.5846	0.027
Mof_H 	H 	0.3662	0.0093	0.5936	0.032
Mof_H 	H 	0.3459	0.9235	0.6327	0.021
Mof_H 	H 	0.8926	0.8486	0.7665	0.006
Mof_H 	H 	0.8549	0.9206	0.8147	0.049
Mof_H 	H 	0.9041	0.0088	0.8132	0.027
Mof_H 	H 	0.3621	0.258	0.4823	0.01
Mof_H 	H 	0.3258	0.296	0.4147	0.008
Mof_H 	H 	0.2179	0.2908	0.3954	0.031
Mof_H 	H 	0.7786	0.4252	0.5846	0.026
Mof_H 	H 	0.8662	0.4907	0.5936	0.032
Mof_H 	H 	0.8459	0.5765	0.6327	0.02
Mof_H 	H 	0.3926	0.6514	0.7665	0.006
Mof_H 	H 	0.3549	0.5794	0.8147	0.048
Mof_H 	H 	0.4041	0.4912	0.8132	0.028
Mof_H 	H 	0.6379	0.242	0.9823	0.009
Mof_H 	H 	0.6742	0.204	0.9147	0.008
Mof_H 	H 	0.7821	0.2092	0.8954	0.03
Mof_H 	H 	0.2214	0.0748	0.0846	0.026
Mof_H 	H 	0.1338	0.0093	0.0936	0.033
Mof_H 	H 	0.1541	0.9235	0.1327	0.021
Mof_H 	H 	0.6074	0.8486	0.2665	0.006
Mof_H 	H 	0.6451	0.9206	0.3147	0.048
Mof_H 	H 	0.5959	0.0088	0.3132	0.027
Mof_H 	H 	0.8621	0.742	0.0177	0.01
Mof_H 	H 	0.8258	0.704	0.0853	0.008
Mof_H 	H 	0.7179	0.7092	0.1046	0.031
Mof_H 	H 	0.2786	0.5748	0.9154	0.026
Mof_H 	H 	0.3662	0.5093	0.9064	0.032
Mof_H 	H 	0.3459	0.4235	0.8673	0.02
Mof_H 	H 	0.8926	0.3486	0.7335	0.007
Mof_H 	H 	0.8549	0.4206	0.6853	0.048
Mof_H 	H 	0.9041	0.5088	0.6868	0.028
Mof_H 	H 	0.1379	0.758	0.5177	0.01
Mof_H 	H 	0.1742	0.796	0.5853	0.008
Mof_H 	H 	0.2821	0.7908	0.6046	0.031
Mof_H 	H 	0.7214	0.9252	0.4154	0.027
Mof_H 	H 	0.6338	0.9907	0.4064	0.032
Mof_H 	H 	0.6541	0.0765	0.3673	0.021
Mof_H 	H 	0.1074	0.1514	0.2335	0.006
Mof_H 	H 	0.1451	0.0794	0.1853	0.049
Mof_H 	H 	0.0959	0.9912	0.1868	0.027
Mof_W 	W 	0.87032	0.4015	0.36879	1.299
Mof_W 	W 	0.93428	0.52264	0.39952	1.008
Mof_W 	W 	0.81958	0.64046	0.42423	1.366
Mof_W 	W 	0.66103	0.6285	0.40754	1
Mof_W 	W 	0.59698	0.48772	0.37187	1.321
Mof_W 	W 	0.84832	0.59677	0.30516	1.029
Mof_W 	W 	0.67443	0.42243	0.45308	1.327
Mof_W 	W 	0.69004	0.57583	0.29036	1.027
Mof_W 	W 	0.85061	0.44608	0.47228	1.021
Mof_W 	W 	0.79241	0.47155	0.2724	1.001
Mof_W 	W 	0.73122	0.56275	0.4942	1.014
Mof_W 	W 	0.69352	0.38045	0.34877	1.016
Mof_W 	W 	0.12968	0.0985	0.86879	1.299
Mof_W 	W 	0.06572	0.97736	0.89952	1.003
Mof_W 	W 	0.18042	0.85954	0.92423	1.366
Mof_W 	W 	0.33897	0.8715	0.90754	1
Mof_W 	W 	0.40302	0.01228	0.87187	1.323
Mof_W 	W 	0.15168	0.90323	0.80516	1.029
Mof_W 	W 	0.32557	0.07757	0.95308	1.327
Mof_W 	W 	0.30996	0.92417	0.79036	1.027
Mof_W 	W 	0.14939	0.05392	0.97228	1.022
Mof_W 	W 	0.20759	0.02845	0.7724	1.003
Mof_W 	W 	0.26878	0.93725	0.9942	1.012
Mof_W 	W 	0.30648	0.11955	0.84877	1.016
Mof_W 	W 	0.37032	0.5985	0.13121	1.299
Mof_W 	W 	0.43428	0.47736	0.10048	1.008
Mof_W 	W 	0.31958	0.35954	0.07577	1.366
Mof_W 	W 	0.16103	0.3715	0.09246	1
Mof_W 	W 	0.09698	0.51228	0.12813	1.321
Mof_W 	W 	0.34832	0.40323	0.19484	1.029
Mof_W 	W 	0.17443	0.57757	0.04692	1.327
Mof_W 	W 	0.19004	0.42417	0.20964	1.027
Mof_W 	W 	0.35061	0.55392	0.02772	1.021
Mof_W 	W 	0.29241	0.52845	0.2276	1.001
Mof_W 	W 	0.23122	0.43725	0.0058	1.014
Mof_W 	W 	0.19352	0.61955	0.15123	1.016
Mof_W 	W 	0.62968	0.9015	0.63121	1.299
Mof_W 	W 	0.56572	0.02264	0.60048	1.007
Mof_W 	W 	0.68042	0.14046	0.57577	1.366
Mof_W 	W 	0.83897	0.1285	0.59246	1
Mof_W 	W 	0.90302	0.98772	0.62813	1.322
Mof_W 	W 	0.65168	0.09677	0.69484	1.029
Mof_W 	W 	0.82557	0.92243	0.54692	1.327
Mof_W 	W 	0.80996	0.07583	0.70964	1.027
Mof_W 	W 	0.64939	0.94608	0.52772	1.021
Mof_W 	W 	0.70759	0.97155	0.7276	1.001
Mof_W 	W 	0.76878	0.06275	0.5058	1.013
Mof_W 	W 	0.80648	0.88045	0.65123	1.016
Mof_W 	W 	0.12968	0.5985	0.63121	1.299
Mof_W 	W 	0.06572	0.47736	0.60048	1.008
Mof_W 	W 	0.18042	0.35954	0.57577	1.366
Mof_W 	W 	0.33897	0.3715	0.59246	1
Mof_W 	W 	0.40302	0.51228	0.62813	1.321
Mof_W 	W 	0.15168	0.40323	0.69484	1.029
Mof_W 	W 	0.32557	0.57757	0.54692	1.327
Mof_W 	W 	0.30996	0.42417	0.70964	1.027
Mof_W 	W 	0.14939	0.55392	0.52772	1.021
Mof_W 	W 	0.20759	0.52845	0.7276	1.001
Mof_W 	W 	0.26878	0.43725	0.5058	1.014
Mof_W 	W 	0.30648	0.61955	0.65123	1.016
Mof_W 	W 	0.87032	0.9015	0.13121	1.299
Mof_W 	W 	0.93428	0.02264	0.10048	1.003
Mof_W 	W 	0.81958	0.14046	0.07577	1.366
Mof_W 	W 	0.66103	0.1285	0.09246	1
Mof_W 	W 	0.59698	0.98772	0.12813	1.323
Mof_W 	W 	0.84832	0.09677	0.19484	1.029
Mof_W 	W 	0.67443	0.92243	0.04692	1.327
Mof_W 	W 	0.69004	0.07583	0.20964	1.027
Mof_W 	W 	0.85061	0.94608	0.02772	1.022
Mof_W 	W 	0.79241	0.97155	0.2276	1.003
Mof_W 	W 	0.73122	0.06275	0.0058	1.012
Mof_W 	W 	0.69352	0.88045	0.15123	1.016
Mof_W 	W 	0.62968	0.4015	0.86879	1.299
Mof_W 	W 	0.56572	0.52264	0.89952	1.008
Mof_W 	W 	0.68042	0.64046	0.92423	1.366
Mof_W 	W 	0.83897	0.6285	0.90754	1
Mof_W 	W 	0.90302	0.48772	0.87187	1.321
Mof_W 	W 	0.65168	0.59677	0.80516	1.029
Mof_W 	W 	0.82557	0.42243	0.95308	1.327
Mof_W 	W 	0.80996	0.57583	0.79036	1.027
Mof_W 	W 	0.64939	0.44608	0.97228	1.021
Mof_W 	W 	0.70759	0.47155	0.7724	1.001
Mof_W 	W 	0.76878	0.56275	0.9942	1.014
Mof_W 	W 	0.80648	0.38045	0.84877	1.016
Mof_W 	W 	0.37032	0.0985	0.36879	1.299
Mof_W 	W 	0.43428	0.97736	0.39952	1.007
Mof_W 	W 	0.31958	0.85954	0.42423	1.366
Mof_W 	W 	0.16103	0.8715	0.40754	1
Mof_W 	W 	0.09698	0.01228	0.37187	1.322
Mof_W 	W 	0.34832	0.90323	0.30516	1.029
Mof_W 	W 	0.17443	0.07757	0.45308	1.327
Mof_W 	W 	0.19004	0.92417	0.29036	1.027
Mof_W 	W 	0.35061	0.05392	0.47228	1.021
Mof_W 	W 	0.29241	0.02845	0.2724	1.001
Mof_W 	W 	0.23122	0.93725	0.4942	1.013
Mof_W 	W 	0.19352	0.11955	0.34877	1.016
Mof_C 	C 	0.7278	0.7656	0.4965	-0.035
Mof_C 	C 	0.682	0.7426	0.5252	-0.015
Mof_C 	C 	0.7039	0.7206	0.5653	-0.057
Mof_C 	C 	0.7678	0.7226	0.5766	-0.004
Mof_C 	C 	0.8131	0.7458	0.5444	-0.068
Mof_C 	C 	0.712	0.7887	0.4511	0.344
Mof_C 	C 	0.8849	0.7492	0.5534	0.469
Mof_C 	C 	0.2854	0.5295	0.3776	-0.107
Mof_C 	C 	0.2268	0.5415	0.3986	0
Mof_C 	C 	0.1746	0.5018	0.394	-0.078
Mof_C 	C 	0.1863	0.4512	0.3703	-0.016
Mof_C 	C 	0.2494	0.4437	0.3508	-0.06
Mof_C 	C 	0.3442	0.5666	0.3823	0.415
Mof_C 	C 	0.2728	0.3896	0.3297	0.343
Mof_C 	C 	0.5336	0.3956	0.2607	-0.085
Mof_C 	C 	0.5873	0.3842	0.233	0.009
Mof_C 	C 	0.6101	0.4274	0.2047	-0.081
Mof_C 	C 	0.581	0.4794	0.2054	-0.002
Mof_C 	C 	0.5285	0.4879	0.2345	-0.051
Mof_C 	C 	0.4961	0.5444	0.2423	0.352
Mof_C 	C 	0.5064	0.3553	0.2948	0.414
Mof_C 	C 	0.2722	0.7344	0.9965	-0.038
Mof_C 	C 	0.318	0.7574	0.0252	-0.012
Mof_C 	C 	0.2961	0.7794	0.0653	-0.059
Mof_C 	C 	0.2322	0.7774	0.0766	-0.003
Mof_C 	C 	0.1869	0.7542	0.0444	-0.069
Mof_C 	C 	0.288	0.7113	0.9511	0.344
Mof_C 	C 	0.1151	0.7508	0.0534	0.47
Mof_C 	C 	0.7146	0.9705	0.8776	-0.107
Mof_C 	C 	0.7732	0.9585	0.8986	0
Mof_C 	C 	0.8254	0.9982	0.894	-0.078
Mof_C 	C 	0.8137	0.0488	0.8703	-0.017
Mof_C 	C 	0.7506	0.0563	0.8508	-0.06
Mof_C 	C 	0.6558	0.9334	0.8823	0.415
Mof_C 	C 	0.7272	0.1104	0.8297	0.343
Mof_C 	C 	0.4664	0.1044	0.7607	-0.086
Mof_C 	C 	0.4127	0.1158	0.733	0.01
Mof_C 	C 	0.3899	0.0726	0.7047	-0.082
Mof_C 	C 	0.419	0.0206	0.7054	0
Mof_C 	C 	0.4715	0.0121	0.7345	-0.052
Mof_C 	C 	0.5039	0.9556	0.7423	0.352
Mof_C 	C 	0.4936	0.1447	0.7948	0.414
Mof_C 	C 	0.2278	0.2344	0.0035	-0.035
Mof_C 	C 	0.182	0.2574	0.9748	-0.015
Mof_C 	C 	0.2039	0.2794	0.9347	-0.057
Mof_C 	C 	0.2678	0.2774	0.9234	-0.004
Mof_C 	C 	0.3131	0.2542	0.9556	-0.068
Mof_C 	C 	0.212	0.2113	0.0489	0.344
Mof_C 	C 	0.3849	0.2508	0.9466	0.469
Mof_C 	C 	0.7854	0.4705	0.1224	-0.107
Mof_C 	C 	0.7268	0.4585	0.1014	0
Mof_C 	C 	0.6746	0.4982	0.106	-0.078
Mof_C 	C 	0.6863	0.5488	0.1297	-0.016
Mof_C 	C 	0.7494	0.5563	0.1492	-0.06
Mof_C 	C 	0.8442	0.4334	0.1177	0.415
Mof_C 	C 	0.7728	0.6104	0.1703	0.343
Mof_C 	C 	0.0336	0.6044	0.2393	-0.085
Mof_C 	C 	0.0873	0.6158	0.267	0.009
Mof_C 	C 	0.1101	0.5726	0.2953	-0.081
Mof_C 	C 	0.081	0.5206	0.2946	-0.002
Mof_C 	C 	0.0285	0.5121	0.2655	-0.05
Mof_C 	C 	0.9961	0.4556	0.2577	0.351
Mof_C 	C 	0.0064	0.6447	0.2052	0.414
Mof_C 	C 	0.7722	0.2656	0.5035	-0.035
Mof_C 	C 	0.818	0.2426	0.4748	-0.015
Mof_C 	C 	0.7961	0.2206	0.4347	-0.057
Mof_C 	C 	0.7322	0.2226	0.4234	-0.004
Mof_C 	C 	0.6869	0.2458	0.4556	-0.068
Mof_C 	C 	0.788	0.2887	0.5489	0.344
Mof_C 	C 	0.6151	0.2492	0.4466	0.469
Mof_C 	C 	0.2146	0.0295	0.6224	-0.105
Mof_C 	C 	0.2732	0.0415	0.6014	-0.001
Mof_C 	C 	0.3254	0.0018	0.606	-0.076
Mof_C 	C 	0.3137	0.9512	0.6297	-0.018
Mof_C 	C 	0.2506	0.9437	0.6492	-0.06
Mof_C 	C 	0.1558	0.0666	0.6177	0.415
Mof_C 	C 	0.2272	0.8896	0.6703	0.343
Mof_C 	C 	0.9664	0.8956	0.7393	-0.086
Mof_C 	C 	0.9127	0.8842	0.767	0.011
Mof_C 	C 	0.8899	0.9274	0.7953	-0.083
Mof_C 	C 	0.919	0.9794	0.7946	0.001
Mof_C 	C 	0.9715	0.9879	0.7655	-0.052
Mof_C 	C 	0.0039	0.0444	0.7577	0.354
Mof_C 	C 	0.9936	0.8553	0.7052	0.416
Mof_C 	C 	0.2722	0.2344	0.5035	-0.035
Mof_C 	C 	0.318	0.2574	0.4748	-0.015
Mof_C 	C 	0.2961	0.2794	0.4347	-0.057
Mof_C 	C 	0.2322	0.2774	0.4234	-0.004
Mof_C 	C 	0.1869	0.2542	0.4556	-0.068
Mof_C 	C 	0.288	0.2113	0.5489	0.344
Mof_C 	C 	0.1151	0.2508	0.4466	0.469
Mof_C 	C 	0.7146	0.4705	0.6224	-0.107
Mof_C 	C 	0.7732	0.4585	0.6014	0
Mof_C 	C 	0.8254	0.4982	0.606	-0.078
Mof_C 	C 	0.8137	0.5488	0.6297	-0.016
Mof_C 	C 	0.7506	0.5563	0.6492	-0.06
Mof_C 	C 	0.6558	0.4334	0.6177	0.415
Mof_C 	C 	0.7272	0.6104	0.6703	0.343
Mof_C 	C 	0.4664	0.6044	0.7393	-0.085
Mof_C 	C 	0.4127	0.6158	0.767	0.009
Mof_C 	C 	0.3899	0.5726	0.7953	-0.081
Mof_C 	C 	0.419	0.5206	0.7946	-0.002
Mof_C 	C 	0.4715	0.5121	0.7655	-0.051
Mof_C 	C 	0.5039	0.4556	0.7577	0.352
Mof_C 	C 	0.4936	0.6447	0.7052	0.414
Mof_C 	C 	0.7278	0.2656	0.0035	-0.038
Mof_C 	C 	0.682	0.2426	0.9748	-0.012
Mof_C 	C 	0.7039	0.2206	0.9347	-0.059
Mof_C 	C 	0.7678	0.2226	0.9234	-0.003
Mof_C 	C 	0.8131	0.2458	0.9556	-0.069
Mof_C 	C 	0.712	0.2887	0.0489	0.344
Mof_C 	C 	0.8849	0.2492	0.9466	0.47
Mof_C 	C 	0.2854	0.0295	0.1224	-0.107
Mof_C 	C 	0.2268	0.0415	0.1014	0
Mof_C 	C 	0.1746	0.0018	0.106	-0.078
Mof_C 	C 	0.1863	0.9512	0.1297	-0.017
Mof_C 	C 	0.2494	0.9437	0.1492	-0.06
Mof_C 	C 	0.3442	0.0666	0.1177	0.415
Mof_C 	C 	0.2728	0.8896	0.1703	0.343
Mof_C 	C 	0.5336	0.8956	0.2393	-0.086
Mof_C 	C 	0.5873	0.8842	0.267	0.01
Mof_C 	C 	0.6101	0.9274	0.2953	-0.082
Mof_C 	C 	0.581	0.9794	0.2946	0
Mof_C 	C 	0.5285	0.9879	0.2655	-0.052
Mof_C 	C 	0.4961	0.0444	0.2577	0.352
Mof_C 	C 	0.5064	0.8553	0.2052	0.414
Mof_C 	C 	0.7722	0.7656	0.9965	-0.035
Mof_C 	C 	0.818	0.7426	0.0252	-0.015
Mof_C 	C 	0.7961	0.7206	0.0653	-0.057
Mof_C 	C 	0.7322	0.7226	0.0766	-0.004
Mof_C 	C 	0.6869	0.7458	0.0444	-0.068
Mof_C 	C 	0.788	0.7887	0.9511	0.344
Mof_C 	C 	0.6151	0.7492	0.0534	0.469
Mof_C 	C 	0.2146	0.5295	0.8776	-0.107
Mof_C 	C 	0.2732	0.5415	0.8986	0
Mof_C 	C 	0.3254	0.5018	0.894	-0.078
Mof_C 	C 	0.3137	0.4512	0.8703	-0.016
Mof_C 	C 	0.2506	0.4437	0.8508	-0.06
Mof_C 	C 	0.1558	0.5666	0.8823	0.415
Mof_C 	C 	0.2272	0.3896	0.8297	0.343
Mof_C 	C 	0.9664	0.3956	0.7607	-0.085
Mof_C 	C 	0.9127	0.3842	0.733	0.009
Mof_C 	C 	0.8899	0.4274	0.7047	-0.081
Mof_C 	C 	0.919	0.4794	0.7054	-0.002
Mof_C 	C 	0.9715	0.4879	0.7345	-0.05
Mof_C 	C 	0.0039	0.5444	0.7423	0.351
Mof_C 	C 	0.9936	0.3553	0.7948	0.414
Mof_C 	C 	0.2278	0.7344	0.4965	-0.035
Mof_C 	C 	0.182	0.7574	0.5252	-0.015
Mof_C 	C 	0.2039	0.7794	0.5653	-0.057
Mof_C 	C 	0.2678	0.7774	0.5766	-0.004
Mof_C 	C 	0.3131	0.7542	0.5444	-0.068
Mof_C 	C 	0.212	0.7113	0.4511	0.344
Mof_C 	C 	0.3849	0.7508	0.5534	0.469
Mof_C 	C 	0.7854	0.9705	0.3776	-0.105
Mof_C 	C 	0.7268	0.9585	0.3986	-0.001
Mof_C 	C 	0.6746	0.9982	0.394	-0.076
Mof_C 	C 	0.6863	0.0488	0.3703	-0.018
Mof_C 	C 	0.7494	0.0563	0.3508	-0.06
Mof_C 	C 	0.8442	0.9334	0.3823	0.415
Mof_C 	C 	0.7728	0.1104	0.3297	0.343
Mof_C 	C 	0.0336	0.1044	0.2607	-0.086
Mof_C 	C 	0.0873	0.1158	0.233	0.011
Mof_C 	C 	0.1101	0.0726	0.2047	-0.083
Mof_C 	C 	0.081	0.0206	0.2054	0.001
Mof_C 	C 	0.0285	0.0121	0.2345	-0.052
Mof_C 	C 	0.9961	0.9556	0.2423	0.354
Mof_C 	C 	0.0064	0.1447	0.2948	0.416
Mof_N 	N 	0.5046	0.4466	0.2612	-0.208
Mof_N 	N 	0.2969	0.4817	0.354	-0.241
Mof_N 	N 	0.792	0.7675	0.5055	-0.185
Mof_N 	N 	0.4954	0.0534	0.7612	-0.208
Mof_N 	N 	0.7031	0.0183	0.854	-0.241
Mof_N 	N 	0.208	0.7325	0.0055	-0.184
Mof_N 	N 	0.0046	0.5534	0.2388	-0.208
Mof_N 	N 	0.7969	0.5183	0.146	-0.241
Mof_N 	N 	0.292	0.2325	0.9945	-0.185
Mof_N 	N 	0.9954	0.9466	0.7388	-0.207
Mof_N 	N 	0.2031	0.9817	0.646	-0.241
Mof_N 	N 	0.708	0.2675	0.4945	-0.185
Mof_N 	N 	0.4954	0.5534	0.7388	-0.208
Mof_N 	N 	0.7031	0.5183	0.646	-0.241
Mof_N 	N 	0.208	0.2325	0.4945	-0.185
Mof_N 	N 	0.5046	0.9466	0.2388	-0.208
Mof_N 	N 	0.2969	0.9817	0.146	-0.241
Mof_N 	N 	0.792	0.2675	0.9945	-0.184
Mof_N 	N 	0.9954	0.4466	0.7612	-0.208
Mof_N 	N 	0.2031	0.4817	0.854	-0.241
Mof_N 	N 	0.708	0.7675	0.0055	-0.185
Mof_N 	N 	0.0046	0.0534	0.2612	-0.207
Mof_N 	N 	0.7969	0.0183	0.354	-0.241
Mof_N 	N 	0.292	0.7325	0.5055	-0.185
Mof_O 	O 	0.6975	0.463	0.3891	-0.387
Mof_O 	O 	0.7472	0.5707	0.4193	-0.343
Mof_O 	O 	0.7766	0.5324	0.3259	-0.328
Mof_O 	O 	0.8392	0.4775	0.4009	-0.368
Mof_O 	O 	0.9276	0.488	0.4604	-0.443
Mof_O 	O 	0.3287	0.3864	0.3165	-0.507
Mof_O 	O 	0.5302	0.306	0.2991	-0.527
Mof_O 	O 	0.3952	0.5527	0.3632	-0.58
Mof_O 	O 	0.9171	0.3426	0.352	-0.601
Mof_O 	O 	0.8601	0.7033	0.4357	-0.642
Mof_O 	O 	0.7629	0.4134	0.4638	-0.472
Mof_O 	O 	0.7682	0.6226	0.279	-0.437
Mof_O 	O 	0.6106	0.5571	0.3998	-0.489
Mof_O 	O 	0.5151	0.5843	0.2135	-0.31
Mof_O 	O 	0.4607	0.3746	0.3196	-0.582
Mof_O 	O 	0.6785	0.6211	0.3444	-0.452
Mof_O 	O 	0.7244	0.5208	0.2485	-0.45
Mof_O 	O 	0.8041	0.5111	0.494	-0.443
Mof_O 	O 	0.6731	0.3595	0.4098	-0.473
Mof_O 	O 	0.2297	0.3492	0.3243	-0.294
Mof_O 	O 	0.6415	0.3839	0.4984	-0.602
Mof_O 	O 	0.7313	0.4232	0.2982	-0.455
Mof_O 	O 	0.3374	0.6132	0.4059	-0.522
Mof_O 	O 	0.8553	0.4397	0.3117	-0.466
Mof_O 	O 	0.8856	0.5865	0.4274	-0.48
Mof_O 	O 	0.8259	0.6379	0.3606	-0.491
Mof_O 	O 	0.515	0.4906	0.3568	-0.602
Mof_O 	O 	0.6795	0.4957	0.4808	-0.469
Mof_O 	O 	0.4573	0.5511	0.2725	-0.495
Mof_O 	O 	0.8549	0.5363	0.2604	-0.617
Mof_O 	O 	0.9036	0.7332	0.5915	-0.558
Mof_O 	O 	0.9514	0.4506	0.375	-0.453
Mof_O 	O 	0.7921	0.6246	0.4854	-0.462
Mof_O 	O 	0.9069	0.5561	0.3432	-0.457
Mof_O 	O 	0.7863	0.3731	0.3659	-0.477
Mof_O 	O 	0.7337	0.6758	0.4157	-0.467
Mof_O 	O 	0.6614	0.6102	0.4722	-0.451
Mof_O 	O 	0.5884	0.4461	0.4271	-0.493
Mof_O 	O 	0.635	0.5219	0.3172	-0.464
Mof_O 	O 	0.6118	0.4133	0.3397	-0.467
Mof_O 	O 	0.8804	0.3845	0.4335	-0.467
Mof_O 	O 	0.7538	0.8064	0.4263	-0.426
Mof_O 	O 	0.9194	0.768	0.5222	-0.559
Mof_O 	O 	0.6495	0.7909	0.4424	-0.296
Mof_O 	O 	0.3025	0.037	0.8891	-0.387
Mof_O 	O 	0.2528	0.9293	0.9193	-0.343
Mof_O 	O 	0.2234	0.9676	0.8259	-0.329
Mof_O 	O 	0.1608	0.0225	0.9009	-0.367
Mof_O 	O 	0.0724	0.012	0.9604	-0.442
Mof_O 	O 	0.6713	0.1136	0.8165	-0.507
Mof_O 	O 	0.4698	0.194	0.7991	-0.527
Mof_O 	O 	0.6048	0.9473	0.8632	-0.58
Mof_O 	O 	0.0829	0.1574	0.852	-0.6
Mof_O 	O 	0.1399	0.7967	0.9357	-0.642
Mof_O 	O 	0.2371	0.0866	0.9638	-0.472
Mof_O 	O 	0.2318	0.8774	0.779	-0.437
Mof_O 	O 	0.3894	0.9429	0.8998	-0.49
Mof_O 	O 	0.4849	0.9157	0.7135	-0.31
Mof_O 	O 	0.5393	0.1254	0.8196	-0.582
Mof_O 	O 	0.3215	0.8789	0.8444	-0.452
Mof_O 	O 	0.2756	0.9792	0.7485	-0.451
Mof_O 	O 	0.1959	0.9889	0.994	-0.445
Mof_O 	O 	0.3269	0.1405	0.9098	-0.474
Mof_O 	O 	0.7703	0.1508	0.8243	-0.294
Mof_O 	O 	0.3585	0.1161	0.9984	-0.602
Mof_O 	O 	0.2687	0.0768	0.7982	-0.455
Mof_O 	O 	0.6626	0.8868	0.9059	-0.522
Mof_O 	O 	0.1447	0.0603	0.8117	-0.466
Mof_O 	O 	0.1144	0.9135	0.9274	-0.48
Mof_O 	O 	0.1741	0.8621	0.8606	-0.491
Mof_O 	O 	0.485	0.0094	0.8568	-0.602
Mof_O 	O 	0.3205	0.0043	0.9808	-0.468
Mof_O 	O 	0.5427	0.9489	0.7725	-0.495
Mof_O 	O 	0.1451	0.9637	0.7604	-0.618
Mof_O 	O 	0.0964	0.7668	0.0915	-0.558
Mof_O 	O 	0.0486	0.0494	0.875	-0.451
Mof_O 	O 	0.2079	0.8754	0.9854	-0.463
Mof_O 	O 	0.0931	0.9439	0.8432	-0.457
Mof_O 	O 	0.2137	0.1269	0.8659	-0.477
Mof_O 	O 	0.2663	0.8242	0.9157	-0.467
Mof_O 	O 	0.3386	0.8898	0.9722	-0.451
Mof_O 	O 	0.4116	0.0539	0.9271	-0.493
Mof_O 	O 	0.365	0.9781	0.8172	-0.464
Mof_O 	O 	0.3882	0.0867	0.8397	-0.468
Mof_O 	O 	0.1196	0.1155	0.9335	-0.467
Mof_O 	O 	0.2462	0.6936	0.9263	-0.426
Mof_O 	O 	0.0806	0.732	0.0222	-0.559
Mof_O 	O 	0.3505	0.7091	0.9424	-0.297
Mof_O 	O 	0.1975	0.537	0.1109	-0.387
Mof_O 	O 	0.2472	0.4293	0.0807	-0.343
Mof_O 	O 	0.2766	0.4676	0.1741	-0.328
Mof_O 	O 	0.3392	0.5225	0.0991	-0.368
Mof_O 	O 	0.4276	0.512	0.0396	-0.444
Mof_O 	O 	0.8287	0.6136	0.1835	-0.507
Mof_O 	O 	0.0302	0.694	0.2009	-0.527
Mof_O 	O 	0.8952	0.4473	0.1368	-0.58
Mof_O 	O 	0.4171	0.6574	0.148	-0.6
Mof_O 	O 	0.3601	0.2967	0.0643	-0.642
Mof_O 	O 	0.2629	0.5866	0.0362	-0.472
Mof_O 	O 	0.2682	0.3774	0.221	-0.437
Mof_O 	O 	0.1106	0.4429	0.1002	-0.489
Mof_O 	O 	0.0151	0.4157	0.2865	-0.309
Mof_O 	O 	0.9607	0.6254	0.1804	-0.582
Mof_O 	O 	0.1785	0.3789	0.1556	-0.452
Mof_O 	O 	0.2244	0.4792	0.2515	-0.45
Mof_O 	O 	0.3041	0.4889	0.006	-0.443
Mof_O 	O 	0.1731	0.6405	0.0902	-0.473
Mof_O 	O 	0.7297	0.6508	0.1757	-0.294
Mof_O 	O 	0.1415	0.6161	0.0016	-0.602
Mof_O 	O 	0.2313	0.5768	0.2018	-0.455
Mof_O 	O 	0.8374	0.3868	0.0941	-0.522
Mof_O 	O 	0.3553	0.5603	0.1883	-0.466
Mof_O 	O 	0.3856	0.4135	0.0726	-0.48
Mof_O 	O 	0.3259	0.3621	0.1394	-0.491
Mof_O 	O 	0.015	0.5094	0.1432	-0.601
Mof_O 	O 	0.1795	0.5043	0.0192	-0.469
Mof_O 	O 	0.9573	0.4489	0.2275	-0.495
Mof_O 	O 	0.3549	0.4637	0.2396	-0.617
Mof_O 	O 	0.4036	0.2668	0.9085	-0.558
Mof_O 	O 	0.4514	0.5494	0.125	-0.453
Mof_O 	O 	0.2921	0.3754	0.0146	-0.462
Mof_O 	O 	0.4069	0.4439	0.1568	-0.457
Mof_O 	O 	0.2863	0.6269	0.1341	-0.477
Mof_O 	O 	0.2337	0.3242	0.0843	-0.467
Mof_O 	O 	0.1614	0.3898	0.0278	-0.451
Mof_O 	O 	0.0884	0.5539	0.0729	-0.492
Mof_O 	O 	0.135	0.4781	0.1828	-0.464
Mof_O 	O 	0.1118	0.5867	0.1603	-0.467
Mof_O 	O 	0.3804	0.6155	0.0665	-0.467
Mof_O 	O 	0.2538	0.1936	0.0737	-0.426
Mof_O 	O 	0.4194	0.232	0.9778	-0.559
Mof_O 	O 	0.1495	0.2091	0.0576	-0.296
Mof_O 	O 	0.8025	0.963	0.6109	-0.387
Mof_O 	O 	0.7528	0.0707	0.5807	-0.343
Mof_O 	O 	0.7234	0.0324	0.6741	-0.329
Mof_O 	O 	0.6608	0.9775	0.5991	-0.368
Mof_O 	O 	0.5724	0.988	0.5396	-0.443
Mof_O 	O 	0.1713	0.8864	0.6835	-0.507
Mof_O 	O 	0.9698	0.806	0.7009	-0.528
Mof_O 	O 	0.1048	0.0527	0.6368	-0.579
Mof_O 	O 	0.5829	0.8426	0.648	-0.6
Mof_O 	O 	0.6399	0.2033	0.5643	-0.642
Mof_O 	O 	0.7371	0.9134	0.5362	-0.472
Mof_O 	O 	0.7318	0.1226	0.721	-0.437
Mof_O 	O 	0.8894	0.0571	0.6002	-0.49
Mof_O 	O 	0.9849	0.0843	0.7865	-0.311
Mof_O 	O 	0.0393	0.8746	0.6804	-0.583
Mof_O 	O 	0.8215	0.1211	0.6556	-0.452
Mof_O 	O 	0.7756	0.0208	0.7515	-0.451
Mof_O 	O 	0.6959	0.0111	0.506	-0.443
Mof_O 	O 	0.8269	0.8595	0.5902	-0.473
Mof_O 	O 	0.2703	0.8492	0.6757	-0.294
Mof_O 	O 	0.8585	0.8839	0.5016	-0.602
Mof_O 	O 	0.7687	0.9232	0.7018	-0.455
Mof_O 	O 	0.1626	0.1132	0.5941	-0.522
Mof_O 	O 	0.6447	0.9397	0.6883	-0.466
Mof_O 	O 	0.6144	0.0865	0.5726	-0.48
Mof_O 	O 	0.6741	0.1379	0.6394	-0.491
Mof_O 	O 	0.985	0.9906	0.6432	-0.601
Mof_O 	O 	0.8205	0.9957	0.5192	-0.469
Mof_O 	O 	0.0427	0.0511	0.7275	-0.494
Mof_O 	O 	0.6451	0.0363	0.7396	-0.617
Mof_O 	O 	0.5964	0.2332	0.4085	-0.558
Mof_O 	O 	0.5486	0.9506	0.625	-0.453
Mof_O 	O 	0.7079	0.1246	0.5146	-0.462
Mof_O 	O 	0.5931	0.0561	0.6568	-0.457
Mof_O 	O 	0.7137	0.8731	0.6341	-0.477
Mof_O 	O 	0.7663	0.1758	0.5843	-0.467
Mof_O 	O 	0.8386	0.1102	0.5278	-0.451
Mof_O 	O 	0.9116	0.9461	0.5729	-0.492
Mof_O 	O 	0.865	0.0219	0.6828	-0.464
Mof_O 	O 	0.8882	0.9133	0.6603	-0.467
Mof_O 	O 	0.6196	0.8845	0.5665	-0.467
Mof_O 	O 	0.7462	0.3064	0.5737	-0.426
Mof_O 	O 	0.5806	0.268	0.4778	-0.559
Mof_O 	O 	0.8505	0.2909	0.5576	-0.296
Mof_O 	O 	0.3025	0.537	0.6109	-0.387
Mof_O 	O 	0.2528	0.4293	0.5807	-0.343
Mof_O 	O 	0.2234	0.4676	0.6741	-0.328
Mof_O 	O 	0.1608	0.5225	0.5991	-0.368
Mof_O 	O 	0.0724	0.512	0.5396	-0.443
Mof_O 	O 	0.6713	0.6136	0.6835	-0.507
Mof_O 	O 	0.4698	0.694	0.7009	-0.527
Mof_O 	O 	0.6048	0.4473	0.6368	-0.58
Mof_O 	O 	0.0829	0.6574	0.648	-0.601
Mof_O 	O 	0.1399	0.2967	0.5643	-0.642
Mof_O 	O 	0.2371	0.5866	0.5362	-0.472
Mof_O 	O 	0.2318	0.3774	0.721	-0.437
Mof_O 	O 	0.3894	0.4429	0.6002	-0.489
Mof_O 	O 	0.4849	0.4157	0.7865	-0.31
Mof_O 	O 	0.5393	0.6254	0.6804	-0.582
Mof_O 	O 	0.3215	0.3789	0.6556	-0.452
Mof_O 	O 	0.2756	0.4792	0.7515	-0.45
Mof_O 	O 	0.1959	0.4889	0.506	-0.443
Mof_O 	O 	0.3269	0.6405	0.5902	-0.473
Mof_O 	O 	0.7703	0.6508	0.6757	-0.294
Mof_O 	O 	0.3585	0.6161	0.5016	-0.602
Mof_O 	O 	0.2687	0.5768	0.7018	-0.455
Mof_O 	O 	0.6626	0.3868	0.5941	-0.522
Mof_O 	O 	0.1447	0.5603	0.6883	-0.466
Mof_O 	O 	0.1144	0.4135	0.5726	-0.48
Mof_O 	O 	0.1741	0.3621	0.6394	-0.491
Mof_O 	O 	0.485	0.5094	0.6432	-0.602
Mof_O 	O 	0.3205	0.5043	0.5192	-0.469
Mof_O 	O 	0.5427	0.4489	0.7275	-0.495
Mof_O 	O 	0.1451	0.4637	0.7396	-0.617
Mof_O 	O 	0.0964	0.2668	0.4085	-0.558
Mof_O 	O 	0.0486	0.5494	0.625	-0.453
Mof_O 	O 	0.2079	0.3754	0.5146	-0.462
Mof_O 	O 	0.0931	0.4439	0.6568	-0.457
Mof_O 	O 	0.2137	0.6269	0.6341	-0.477
Mof_O 	O 	0.2663	0.3242	0.5843	-0.467
Mof_O 	O 	0.3386	0.3898	0.5278	-0.451
Mof_O 	O 	0.4116	0.5539	0.5729	-0.493
Mof_O 	O 	0.365	0.4781	0.6828	-0.464
Mof_O 	O 	0.3882	0.5867	0.6603	-0.467
Mof_O 	O 	0.1196	0.6155	0.5665	-0.467
Mof_O 	O 	0.2462	0.1936	0.5737	-0.426
Mof_O 	O 	0.0806	0.232	0.4778	-0.559
Mof_O 	O 	0.3505	0.2091	0.5576	-0.296
Mof_O 	O 	0.6975	0.963	0.1109	-0.387
Mof_O 	O 	0.7472	0.0707	0.0807	-0.343
Mof_O 	O 	0.7766	0.0324	0.1741	-0.329
Mof_O 	O 	0.8392	0.9775	0.0991	-0.367
Mof_O 	O 	0.9276	0.988	0.0396	-0.442
Mof_O 	O 	0.3287	0.8864	0.1835	-0.507
Mof_O 	O 	0.5302	0.806	0.2009	-0.527
Mof_O 	O 	0.3952	0.0527	0.1368	-0.58
Mof_O 	O 	0.9171	0.8426	0.148	-0.6
Mof_O 	O 	0.8601	0.2033	0.0643	-0.642
Mof_O 	O 	0.7629	0.9134	0.0362	-0.472
Mof_O 	O 	0.7682	0.1226	0.221	-0.437
Mof_O 	O 	0.6106	0.0571	0.1002	-0.49
Mof_O 	O 	0.5151	0.0843	0.2865	-0.31
Mof_O 	O 	0.4607	0.8746	0.1804	-0.582
Mof_O 	O 	0.6785	0.1211	0.1556	-0.452
Mof_O 	O 	0.7244	0.0208	0.2515	-0.451
Mof_O 	O 	0.8041	0.0111	0.006	-0.445
Mof_O 	O 	0.6731	0.8595	0.0902	-0.474
Mof_O 	O 	0.2297	0.8492	0.1757	-0.294
Mof_O 	O 	0.6415	0.8839	0.0016	-0.602
Mof_O 	O 	0.7313	0.9232	0.2018	-0.455
Mof_O 	O 	0.3374	0.1132	0.0941	-0.522
Mof_O 	O 	0.8553	0.9397	0.1883	-0.466
Mof_O 	O 	0.8856	0.0865	0.0726	-0.48
Mof_O 	O 	0.8259	0.1379	0.1394	-0.491
Mof_O 	O 	0.515	0.9906	0.1432	-0.602
Mof_O 	O 	0.6795	0.9957	0.0192	-0.468
Mof_O 	O 	0.4573	0.0511	0.2275	-0.495
Mof_O 	O 	0.8549	0.0363	0.2396	-0.618
Mof_O 	O 	0.9036	0.2332	0.9085	-0.558
Mof_O 	O 	0.9514	0.9506	0.125	-0.451
Mof_O 	O 	0.7921	0.1246	0.0146	-0.463
Mof_O 	O 	0.9069	0.0561	0.1568	-0.457
Mof_O 	O 	0.7863	0.8731	0.1341	-0.477
Mof_O 	O 	0.7337	0.1758	0.0843	-0.467
Mof_O 	O 	0.6614	0.1102	0.0278	-0.451
Mof_O 	O 	0.5884	0.9461	0.0729	-0.493
Mof_O 	O 	0.635	0.0219	0.1828	-0.464
Mof_O 	O 	0.6118	0.9133	0.1603	-0.468
Mof_O 	O 	0.8804	0.8845	0.0665	-0.467
Mof_O 	O 	0.7538	0.3064	0.0737	-0.426
Mof_O 	O 	0.9194	0.268	0.9778	-0.559
Mof_O 	O 	0.6495	0.2909	0.0576	-0.297
Mof_O 	O 	0.8025	0.463	0.8891	-0.387
Mof_O 	O 	0.7528	0.5707	0.9193	-0.343
Mof_O 	O 	0.7234	0.5324	0.8259	-0.328
Mof_O 	O 	0.6608	0.4775	0.9009	-0.368
Mof_O 	O 	0.5724	0.488	0.9604	-0.444
Mof_O 	O 	0.1713	0.3864	0.8165	-0.507
Mof_O 	O 	0.9698	0.306	0.7991	-0.527
Mof_O 	O 	0.1048	0.5527	0.8632	-0.58
Mof_O 	O 	0.5829	0.3426	0.852	-0.6
Mof_O 	O 	0.6399	0.7033	0.9357	-0.642
Mof_O 	O 	0.7371	0.4134	0.9638	-0.472
Mof_O 	O 	0.7318	0.6226	0.779	-0.437
Mof_O 	O 	0.8894	0.5571	0.8998	-0.489
Mof_O 	O 	0.9849	0.5843	0.7135	-0.309
Mof_O 	O 	0.0393	0.3746	0.8196	-0.582
Mof_O 	O 	0.8215	0.6211	0.8444	-0.452
Mof_O 	O 	0.7756	0.5208	0.7485	-0.45
Mof_O 	O 	0.6959	0.5111	0.994	-0.443
Mof_O 	O 	0.8269	0.3595	0.9098	-0.473
Mof_O 	O 	0.2703	0.3492	0.8243	-0.294
Mof_O 	O 	0.8585	0.3839	0.9984	-0.602
Mof_O 	O 	0.7687	0.4232	0.7982	-0.455
Mof_O 	O 	0.1626	0.6132	0.9059	-0.522
Mof_O 	O 	0.6447	0.4397	0.8117	-0.466
Mof_O 	O 	0.6144	0.5865	0.9274	-0.48
Mof_O 	O 	0.6741	0.6379	0.8606	-0.491
Mof_O 	O 	0.985	0.4906	0.8568	-0.601
Mof_O 	O 	0.8205	0.4957	0.9808	-0.469
Mof_O 	O 	0.0427	0.5511	0.7725	-0.495
Mof_O 	O 	0.6451	0.5363	0.7604	-0.617
Mof_O 	O 	0.5964	0.7332	0.0915	-0.558
Mof_O 	O 	0.5486	0.4506	0.875	-0.453
Mof_O 	O 	0.7079	0.6246	0.9854	-0.462
Mof_O 	O 	0.5931	0.5561	0.8432	-0.457
Mof_O 	O 	0.7137	0.3731	0.8659	-0.477
Mof_O 	O 	0.7663	0.6758	0.9157	-0.467
Mof_O 	O 	0.8386	0.6102	0.9722	-0.451
Mof_O 	O 	0.9116	0.4461	0.9271	-0.492
Mof_O 	O 	0.865	0.5219	0.8172	-0.464
Mof_O 	O 	0.8882	0.4133	0.8397	-0.467
Mof_O 	O 	0.6196	0.3845	0.9335	-0.467
Mof_O 	O 	0.7462	0.8064	0.9263	-0.426
Mof_O 	O 	0.5806	0.768	0.0222	-0.559
Mof_O 	O 	0.8505	0.7909	0.9424	-0.296
Mof_O 	O 	0.1975	0.037	0.3891	-0.387
Mof_O 	O 	0.2472	0.9293	0.4193	-0.343
Mof_O 	O 	0.2766	0.9676	0.3259	-0.329
Mof_O 	O 	0.3392	0.0225	0.4009	-0.368
Mof_O 	O 	0.4276	0.012	0.4604	-0.443
Mof_O 	O 	0.8287	0.1136	0.3165	-0.507
Mof_O 	O 	0.0302	0.194	0.2991	-0.528
Mof_O 	O 	0.8952	0.9473	0.3632	-0.579
Mof_O 	O 	0.4171	0.1574	0.352	-0.6
Mof_O 	O 	0.3601	0.7967	0.4357	-0.642
Mof_O 	O 	0.2629	0.0866	0.4638	-0.472
Mof_O 	O 	0.2682	0.8774	0.279	-0.437
Mof_O 	O 	0.1106	0.9429	0.3998	-0.49
Mof_O 	O 	0.0151	0.9157	0.2135	-0.311
Mof_O 	O 	0.9607	0.1254	0.3196	-0.583
Mof_O 	O 	0.1785	0.8789	0.3444	-0.452
Mof_O 	O 	0.2244	0.9792	0.2485	-0.451
Mof_O 	O 	0.3041	0.9889	0.494	-0.443
Mof_O 	O 	0.1731	0.1405	0.4098	-0.473
Mof_O 	O 	0.7297	0.1508	0.3243	-0.294
Mof_O 	O 	0.1415	0.1161	0.4984	-0.602
Mof_O 	O 	0.2313	0.0768	0.2982	-0.455
Mof_O 	O 	0.8374	0.8868	0.4059	-0.522
Mof_O 	O 	0.3553	0.0603	0.3117	-0.466
Mof_O 	O 	0.3856	0.9135	0.4274	-0.48
Mof_O 	O 	0.3259	0.8621	0.3606	-0.491
Mof_O 	O 	0.015	0.0094	0.3568	-0.601
Mof_O 	O 	0.1795	0.0043	0.4808	-0.469
Mof_O 	O 	0.9573	0.9489	0.2725	-0.494
Mof_O 	O 	0.3549	0.9637	0.2604	-0.617
Mof_O 	O 	0.4036	0.7668	0.5915	-0.558
Mof_O 	O 	0.4514	0.0494	0.375	-0.453
Mof_O 	O 	0.2921	0.8754	0.4854	-0.462
Mof_O 	O 	0.4069	0.9439	0.3432	-0.457
Mof_O 	O 	0.2863	0.1269	0.3659	-0.477
Mof_O 	O 	0.2337	0.8242	0.4157	-0.467
Mof_O 	O 	0.1614	0.8898	0.4722	-0.451
Mof_O 	O 	0.0884	0.0539	0.4271	-0.492
Mof_O 	O 	0.135	0.9781	0.3172	-0.464
Mof_O 	O 	0.1118	0.0867	0.3397	-0.467
Mof_O 	O 	0.3804	0.1155	0.4335	-0.467
Mof_O 	O 	0.2538	0.6936	0.4263	-0.426
Mof_O 	O 	0.4194	0.732	0.5222	-0.559
Mof_O 	O 	0.1495	0.7091	0.4424	-0.296
_end
