# CIF file generated by openbabel 3.1.0, see https://openbabel.org
data_I
_chemical_name_common 'image0'
_cell_length_a 48.928
_cell_length_b 48.928
_cell_length_c 48.928
_cell_angle_alpha 90
_cell_angle_beta 90
_cell_angle_gamma 90
_space_group_name_H-M_alt 'P 1'
_space_group_name_Hall 'P 1'
loop_
    _symmetry_equiv_pos_as_xyz
    x,y,z
loop_
    _atom_site_label
    _atom_site_type_symbol
    _atom_site_fract_x
    _atom_site_fract_y
    _atom_site_fract_z
    _atom_site_occupancy
    Mo1      Mo       0.60679    0.93982    0.79167    1.000
    O1       O        0.60399    0.97433    0.81165    1.000
    O2       O        0.60928    0.91562    0.75694    1.000
    O3       O        0.56837    0.94804    0.78218    1.000
    O4       O        0.64558    0.94359    0.78637    1.000
    Mo2      Mo       0.55603    0.96726    0.75266    1.000
    Mo3      Mo       0.60731    0.93348    0.71915    1.000
    Zn1      Zn       0.57844    0.00518    0.80894    1.000
    O5       O        0.55877    0.99725    0.72512    1.000
    O6       O        0.57080    0.94200    0.72614    1.000
    O7       O        0.55479    0.00613    0.84094    1.000
    C1       C        0.56680    0.00930    0.86270    1.000
    C2       C        0.54780    0.01160    0.88580    1.000
    O8       O        0.59239    0.01026    0.86508    1.000
    C3       C        0.55830    0.01740    0.91030    1.000
    C4       C        0.52230    0.00630    0.88300    1.000
    H1       H        0.57700    0.02040    0.91160    1.000
    C5       C        0.54190    0.01910    0.93500    1.000
    C6       C        0.50350    0.00930    0.90640    1.000
    H2       H        0.51560    0.00050    0.86620    1.000
    H3       H        0.54960    0.02290    0.95190    1.000
    C7       C        0.51370    0.01490    0.93180    1.000
    H4       H        0.48470    0.00730    0.90390    1.000
    C8       C        0.49690    0.01780    0.95670    1.000
    C9       C        0.50030    0.04010    0.97350    1.000
    H5       H        0.51400    0.05280    0.97000    1.000
    Mo4      Mo       0.10679    0.43982    0.29167    1.000
    O9       O        0.10399    0.47433    0.31165    1.000
    O10      O        0.10928    0.41562    0.25694    1.000
    O11      O        0.06837    0.44804    0.28218    1.000
    O12      O        0.14558    0.44359    0.28637    1.000
    Mo5      Mo       0.05603    0.46726    0.25266    1.000
    Mo6      Mo       0.10731    0.43348    0.21915    1.000
    Zn2      Zn       0.07844    0.50518    0.30894    1.000
    O13      O        0.05877    0.49725    0.22512    1.000
    O14      O        0.07080    0.44200    0.22614    1.000
    O15      O        0.05479    0.50613    0.34094    1.000
    C10      C        0.06680    0.50930    0.36270    1.000
    C11      C        0.04780    0.51160    0.38580    1.000
    O16      O        0.09239    0.51026    0.36508    1.000
    C12      C        0.05830    0.51740    0.41030    1.000
    C13      C        0.02230    0.50630    0.38300    1.000
    H6       H        0.07700    0.52040    0.41160    1.000
    C14      C        0.04190    0.51910    0.43500    1.000
    C15      C        0.00350    0.50930    0.40640    1.000
    H7       H        0.01560    0.50050    0.36620    1.000
    H8       H        0.04960    0.52290    0.45190    1.000
    C16      C        0.01370    0.51490    0.43180    1.000
    H9       H        0.98470    0.50730    0.40390    1.000
    C17      C        0.99690    0.51780    0.45670    1.000
    C18      C        0.00030    0.54010    0.47350    1.000
    H10      H        0.01400    0.55280    0.47000    1.000
    Mo7      Mo       0.89321    0.06018    0.29167    1.000
    O17      O        0.89601    0.02567    0.31165    1.000
    O18      O        0.89072    0.08438    0.25694    1.000
    O19      O        0.93163    0.05196    0.28218    1.000
    O20      O        0.85442    0.05641    0.28637    1.000
    Mo8      Mo       0.94397    0.03274    0.25266    1.000
    Mo9      Mo       0.89269    0.06652    0.21915    1.000
    Zn3      Zn       0.92156    0.99482    0.30894    1.000
    O21      O        0.94123    0.00275    0.22512    1.000
    O22      O        0.92920    0.05800    0.22614    1.000
    O23      O        0.94521    0.99387    0.34094    1.000
    C19      C        0.93320    0.99070    0.36270    1.000
    C20      C        0.95220    0.98840    0.38580    1.000
    O24      O        0.90761    0.98974    0.36508    1.000
    C21      C        0.94170    0.98260    0.41030    1.000
    C22      C        0.97770    0.99370    0.38300    1.000
    H11      H        0.92300    0.97960    0.41160    1.000
    C23      C        0.95810    0.98090    0.43500    1.000
    C24      C        0.99650    0.99070    0.40640    1.000
    H12      H        0.98440    0.99950    0.36620    1.000
    H13      H        0.95040    0.97710    0.45190    1.000
    C25      C        0.98630    0.98510    0.43180    1.000
    H14      H        0.01530    0.99270    0.40390    1.000
    C26      C        0.00310    0.98220    0.45670    1.000
    C27      C        0.99970    0.95990    0.47350    1.000
    H15      H        0.98600    0.94720    0.47000    1.000
    Mo10     Mo       0.39321    0.56018    0.79167    1.000
    O25      O        0.39601    0.52567    0.81165    1.000
    O26      O        0.39072    0.58438    0.75694    1.000
    O27      O        0.43163    0.55196    0.78218    1.000
    O28      O        0.35442    0.55641    0.78637    1.000
    Mo11     Mo       0.44397    0.53274    0.75266    1.000
    Mo12     Mo       0.39269    0.56652    0.71915    1.000
    Zn4      Zn       0.42156    0.49482    0.80894    1.000
    O29      O        0.44123    0.50275    0.72512    1.000
    O30      O        0.42920    0.55800    0.72614    1.000
    O31      O        0.44521    0.49387    0.84094    1.000
    C28      C        0.43320    0.49070    0.86270    1.000
    C29      C        0.45220    0.48840    0.88580    1.000
    O32      O        0.40761    0.48974    0.86508    1.000
    C30      C        0.44170    0.48260    0.91030    1.000
    C31      C        0.47770    0.49370    0.88300    1.000
    H16      H        0.42300    0.47960    0.91160    1.000
    C32      C        0.45810    0.48090    0.93500    1.000
    C33      C        0.49650    0.49070    0.90640    1.000
    H17      H        0.48440    0.49950    0.86620    1.000
    H18      H        0.45040    0.47710    0.95190    1.000
    C34      C        0.48630    0.48510    0.93180    1.000
    H19      H        0.51530    0.49270    0.90390    1.000
    C35      C        0.50310    0.48220    0.95670    1.000
    C36      C        0.49970    0.45990    0.97350    1.000
    H20      H        0.48600    0.44720    0.97000    1.000
    Mo13     Mo       0.39321    0.43982    0.70833    1.000
    O33      O        0.39601    0.47433    0.68835    1.000
    O34      O        0.39072    0.41562    0.74306    1.000
    O35      O        0.43163    0.44804    0.71782    1.000
    O36      O        0.35442    0.44359    0.71363    1.000
    Mo14     Mo       0.44397    0.46726    0.74734    1.000
    Mo15     Mo       0.39269    0.43348    0.78085    1.000
    Zn5      Zn       0.42156    0.50518    0.69106    1.000
    O37      O        0.44123    0.49725    0.77488    1.000
    O38      O        0.42920    0.44200    0.77386    1.000
    O39      O        0.44521    0.50613    0.65906    1.000
    C37      C        0.43320    0.50930    0.63730    1.000
    C38      C        0.45220    0.51160    0.61420    1.000
    O40      O        0.40761    0.51026    0.63492    1.000
    C39      C        0.44170    0.51740    0.58970    1.000
    C40      C        0.47770    0.50630    0.61700    1.000
    H21      H        0.42300    0.52040    0.58840    1.000
    C41      C        0.45810    0.51910    0.56500    1.000
    C42      C        0.49650    0.50930    0.59360    1.000
    H22      H        0.48440    0.50050    0.63380    1.000
    H23      H        0.45040    0.52290    0.54810    1.000
    C43      C        0.48630    0.51490    0.56820    1.000
    H24      H        0.51530    0.50730    0.59610    1.000
    C44      C        0.50310    0.51780    0.54330    1.000
    C45      C        0.49970    0.54010    0.52650    1.000
    H25      H        0.48600    0.55280    0.53000    1.000
    Mo16     Mo       0.89321    0.93982    0.20833    1.000
    O41      O        0.89601    0.97433    0.18835    1.000
    O42      O        0.89072    0.91562    0.24306    1.000
    O43      O        0.93163    0.94804    0.21782    1.000
    O44      O        0.85442    0.94359    0.21363    1.000
    Mo17     Mo       0.94397    0.96726    0.24734    1.000
    Mo18     Mo       0.89269    0.93348    0.28085    1.000
    Zn6      Zn       0.92156    0.00518    0.19106    1.000
    O45      O        0.94123    0.99725    0.27488    1.000
    O46      O        0.92920    0.94200    0.27386    1.000
    O47      O        0.94521    0.00613    0.15906    1.000
    C46      C        0.93320    0.00930    0.13730    1.000
    C47      C        0.95220    0.01160    0.11420    1.000
    O48      O        0.90761    0.01026    0.13492    1.000
    C48      C        0.94170    0.01740    0.08970    1.000
    C49      C        0.97770    0.00630    0.11700    1.000
    H26      H        0.92300    0.02040    0.08840    1.000
    C50      C        0.95810    0.01910    0.06500    1.000
    C51      C        0.99650    0.00930    0.09360    1.000
    H27      H        0.98440    0.00050    0.13380    1.000
    H28      H        0.95040    0.02290    0.04810    1.000
    C52      C        0.98630    0.01490    0.06820    1.000
    H29      H        0.01530    0.00730    0.09610    1.000
    C53      C        0.00310    0.01780    0.04330    1.000
    C54      C        0.99970    0.04010    0.02650    1.000
    H30      H        0.98600    0.05280    0.03000    1.000
    Mo19     Mo       0.10679    0.56018    0.20833    1.000
    O49      O        0.10399    0.52567    0.18835    1.000
    O50      O        0.10928    0.58438    0.24306    1.000
    O51      O        0.06837    0.55196    0.21782    1.000
    O52      O        0.14558    0.55641    0.21363    1.000
    Mo20     Mo       0.05603    0.53274    0.24734    1.000
    Mo21     Mo       0.10731    0.56652    0.28085    1.000
    Zn7      Zn       0.07844    0.49482    0.19106    1.000
    O53      O        0.05877    0.50275    0.27488    1.000
    O54      O        0.07080    0.55800    0.27386    1.000
    O55      O        0.05479    0.49387    0.15906    1.000
    C55      C        0.06680    0.49070    0.13730    1.000
    C56      C        0.04780    0.48840    0.11420    1.000
    O56      O        0.09239    0.48974    0.13492    1.000
    C57      C        0.05830    0.48260    0.08970    1.000
    C58      C        0.02230    0.49370    0.11700    1.000
    H31      H        0.07700    0.47960    0.08840    1.000
    C59      C        0.04190    0.48090    0.06500    1.000
    C60      C        0.00350    0.49070    0.09360    1.000
    H32      H        0.01560    0.49950    0.13380    1.000
    H33      H        0.04960    0.47710    0.04810    1.000
    C61      C        0.01370    0.48510    0.06820    1.000
    H34      H        0.98470    0.49270    0.09610    1.000
    C62      C        0.99690    0.48220    0.04330    1.000
    C63      C        0.00030    0.45990    0.02650    1.000
    H35      H        0.01400    0.44720    0.03000    1.000
    Mo22     Mo       0.60679    0.06018    0.70833    1.000
    O57      O        0.60399    0.02567    0.68835    1.000
    O58      O        0.60928    0.08438    0.74306    1.000
    O59      O        0.56837    0.05196    0.71782    1.000
    O60      O        0.64558    0.05641    0.71363    1.000
    Mo23     Mo       0.55603    0.03274    0.74734    1.000
    Mo24     Mo       0.60731    0.06652    0.78085    1.000
    Zn8      Zn       0.57844    0.99482    0.69106    1.000
    O61      O        0.55877    0.00275    0.77488    1.000
    O62      O        0.57080    0.05800    0.77386    1.000
    O63      O        0.55479    0.99387    0.65906    1.000
    C64      C        0.56680    0.99070    0.63730    1.000
    C65      C        0.54780    0.98840    0.61420    1.000
    O64      O        0.59239    0.98974    0.63492    1.000
    C66      C        0.55830    0.98260    0.58970    1.000
    C67      C        0.52230    0.99370    0.61700    1.000
    H36      H        0.57700    0.97960    0.58840    1.000
    C68      C        0.54190    0.98090    0.56500    1.000
    C69      C        0.50350    0.99070    0.59360    1.000
    H37      H        0.51560    0.99950    0.63380    1.000
    H38      H        0.54960    0.97710    0.54810    1.000
    C70      C        0.51370    0.98510    0.56820    1.000
    H39      H        0.48470    0.99270    0.59610    1.000
    C71      C        0.49690    0.98220    0.54330    1.000
    C72      C        0.50030    0.95990    0.52650    1.000
    H40      H        0.51400    0.94720    0.53000    1.000
    Mo25     Mo       0.79167    0.60679    0.93982    1.000
    O65      O        0.81165    0.60399    0.97433    1.000
    O66      O        0.75694    0.60928    0.91562    1.000
    O67      O        0.78218    0.56837    0.94804    1.000
    O68      O        0.78637    0.64558    0.94359    1.000
    Mo26     Mo       0.75266    0.55603    0.96726    1.000
    Mo27     Mo       0.71915    0.60731    0.93348    1.000
    Zn9      Zn       0.80894    0.57844    0.00518    1.000
    O69      O        0.72512    0.55877    0.99725    1.000
    O70      O        0.72614    0.57080    0.94200    1.000
    O71      O        0.84094    0.55479    0.00613    1.000
    C73      C        0.86270    0.56680    0.00930    1.000
    C74      C        0.88580    0.54780    0.01160    1.000
    O72      O        0.86508    0.59239    0.01026    1.000
    C75      C        0.91030    0.55830    0.01740    1.000
    C76      C        0.88300    0.52230    0.00630    1.000
    H41      H        0.91160    0.57700    0.02040    1.000
    C77      C        0.93500    0.54190    0.01910    1.000
    C78      C        0.90640    0.50350    0.00930    1.000
    H42      H        0.86620    0.51560    0.00050    1.000
    H43      H        0.95190    0.54960    0.02290    1.000
    C79      C        0.93180    0.51370    0.01490    1.000
    H44      H        0.90390    0.48470    0.00730    1.000
    C80      C        0.95670    0.49690    0.01780    1.000
    C81      C        0.97350    0.50030    0.04010    1.000
    H45      H        0.97000    0.51400    0.05280    1.000
    Mo28     Mo       0.29167    0.10679    0.43982    1.000
    O73      O        0.31165    0.10399    0.47433    1.000
    O74      O        0.25694    0.10928    0.41562    1.000
    O75      O        0.28218    0.06837    0.44804    1.000
    O76      O        0.28637    0.14558    0.44359    1.000
    Mo29     Mo       0.25266    0.05603    0.46726    1.000
    Mo30     Mo       0.21915    0.10731    0.43348    1.000
    Zn10     Zn       0.30894    0.07844    0.50518    1.000
    O77      O        0.22512    0.05877    0.49725    1.000
    O78      O        0.22614    0.07080    0.44200    1.000
    O79      O        0.34094    0.05479    0.50613    1.000
    C82      C        0.36270    0.06680    0.50930    1.000
    C83      C        0.38580    0.04780    0.51160    1.000
    O80      O        0.36508    0.09239    0.51026    1.000
    C84      C        0.41030    0.05830    0.51740    1.000
    C85      C        0.38300    0.02230    0.50630    1.000
    H46      H        0.41160    0.07700    0.52040    1.000
    C86      C        0.43500    0.04190    0.51910    1.000
    C87      C        0.40640    0.00350    0.50930    1.000
    H47      H        0.36620    0.01560    0.50050    1.000
    H48      H        0.45190    0.04960    0.52290    1.000
    C88      C        0.43180    0.01370    0.51490    1.000
    H49      H        0.40390    0.98470    0.50730    1.000
    C89      C        0.45670    0.99690    0.51780    1.000
    C90      C        0.47350    0.00030    0.54010    1.000
    H50      H        0.47000    0.01400    0.55280    1.000
    Mo31     Mo       0.29167    0.89321    0.06018    1.000
    O81      O        0.31165    0.89601    0.02567    1.000
    O82      O        0.25694    0.89072    0.08438    1.000
    O83      O        0.28218    0.93163    0.05196    1.000
    O84      O        0.28637    0.85442    0.05641    1.000
    Mo32     Mo       0.25266    0.94397    0.03274    1.000
    Mo33     Mo       0.21915    0.89269    0.06652    1.000
    Zn11     Zn       0.30894    0.92156    0.99482    1.000
    O85      O        0.22512    0.94123    0.00275    1.000
    O86      O        0.22614    0.92920    0.05800    1.000
    O87      O        0.34094    0.94521    0.99387    1.000
    C91      C        0.36270    0.93320    0.99070    1.000
    C92      C        0.38580    0.95220    0.98840    1.000
    O88      O        0.36508    0.90761    0.98974    1.000
    C93      C        0.41030    0.94170    0.98260    1.000
    C94      C        0.38300    0.97770    0.99370    1.000
    H51      H        0.41160    0.92300    0.97960    1.000
    C95      C        0.43500    0.95810    0.98090    1.000
    C96      C        0.40640    0.99650    0.99070    1.000
    H52      H        0.36620    0.98440    0.99950    1.000
    H53      H        0.45190    0.95040    0.97710    1.000
    C97      C        0.43180    0.98630    0.98510    1.000
    H54      H        0.40390    0.01530    0.99270    1.000
    C98      C        0.45670    0.00310    0.98220    1.000
    C99      C        0.47350    0.99970    0.95990    1.000
    H55      H        0.47000    0.98600    0.94720    1.000
    Mo34     Mo       0.79167    0.39321    0.56018    1.000
    O89      O        0.81165    0.39601    0.52567    1.000
    O90      O        0.75694    0.39072    0.58438    1.000
    O91      O        0.78218    0.43163    0.55196    1.000
    O92      O        0.78637    0.35442    0.55641    1.000
    Mo35     Mo       0.75266    0.44397    0.53274    1.000
    Mo36     Mo       0.71915    0.39269    0.56652    1.000
    Zn12     Zn       0.80894    0.42156    0.49482    1.000
    O93      O        0.72512    0.44123    0.50275    1.000
    O94      O        0.72614    0.42920    0.55800    1.000
    O95      O        0.84094    0.44521    0.49387    1.000
    C100     C        0.86270    0.43320    0.49070    1.000
    C101     C        0.88580    0.45220    0.48840    1.000
    O96      O        0.86508    0.40761    0.48974    1.000
    C102     C        0.91030    0.44170    0.48260    1.000
    C103     C        0.88300    0.47770    0.49370    1.000
    H56      H        0.91160    0.42300    0.47960    1.000
    C104     C        0.93500    0.45810    0.48090    1.000
    C105     C        0.90640    0.49650    0.49070    1.000
    H57      H        0.86620    0.48440    0.49950    1.000
    H58      H        0.95190    0.45040    0.47710    1.000
    C106     C        0.93180    0.48630    0.48510    1.000
    H59      H        0.90390    0.51530    0.49270    1.000
    C107     C        0.95670    0.50310    0.48220    1.000
    C108     C        0.97350    0.49970    0.45990    1.000
    H60      H        0.97000    0.48600    0.44720    1.000
    Mo37     Mo       0.70833    0.39321    0.43982    1.000
    O97      O        0.68835    0.39601    0.47433    1.000
    O98      O        0.74306    0.39072    0.41562    1.000
    O99      O        0.71782    0.43163    0.44804    1.000
    O100     O        0.71363    0.35442    0.44359    1.000
    Mo38     Mo       0.74734    0.44397    0.46726    1.000
    Mo39     Mo       0.78085    0.39269    0.43348    1.000
    Zn13     Zn       0.69106    0.42156    0.50518    1.000
    O101     O        0.77488    0.44123    0.49725    1.000
    O102     O        0.77386    0.42920    0.44200    1.000
    O103     O        0.65906    0.44521    0.50613    1.000
    C109     C        0.63730    0.43320    0.50930    1.000
    C110     C        0.61420    0.45220    0.51160    1.000
    O104     O        0.63492    0.40761    0.51026    1.000
    C111     C        0.58970    0.44170    0.51740    1.000
    C112     C        0.61700    0.47770    0.50630    1.000
    H61      H        0.58840    0.42300    0.52040    1.000
    C113     C        0.56500    0.45810    0.51910    1.000
    C114     C        0.59360    0.49650    0.50930    1.000
    H62      H        0.63380    0.48440    0.50050    1.000
    H63      H        0.54810    0.45040    0.52290    1.000
    C115     C        0.56820    0.48630    0.51490    1.000
    H64      H        0.59610    0.51530    0.50730    1.000
    C116     C        0.54330    0.50310    0.51780    1.000
    C117     C        0.52650    0.49970    0.54010    1.000
    H65      H        0.53000    0.48600    0.55280    1.000
    Mo40     Mo       0.20833    0.89321    0.93982    1.000
    O105     O        0.18835    0.89601    0.97433    1.000
    O106     O        0.24306    0.89072    0.91562    1.000
    O107     O        0.21782    0.93163    0.94804    1.000
    O108     O        0.21363    0.85442    0.94359    1.000
    Mo41     Mo       0.24734    0.94397    0.96726    1.000
    Mo42     Mo       0.28085    0.89269    0.93348    1.000
    Zn14     Zn       0.19106    0.92156    0.00518    1.000
    O109     O        0.27488    0.94123    0.99725    1.000
    O110     O        0.27386    0.92920    0.94200    1.000
    O111     O        0.15906    0.94521    0.00613    1.000
    C118     C        0.13730    0.93320    0.00930    1.000
    C119     C        0.11420    0.95220    0.01160    1.000
    O112     O        0.13492    0.90761    0.01026    1.000
    C120     C        0.08970    0.94170    0.01740    1.000
    C121     C        0.11700    0.97770    0.00630    1.000
    H66      H        0.08840    0.92300    0.02040    1.000
    C122     C        0.06500    0.95810    0.01910    1.000
    C123     C        0.09360    0.99650    0.00930    1.000
    H67      H        0.13380    0.98440    0.00050    1.000
    H68      H        0.04810    0.95040    0.02290    1.000
    C124     C        0.06820    0.98630    0.01490    1.000
    H69      H        0.09610    0.01530    0.00730    1.000
    C125     C        0.04330    0.00310    0.01780    1.000
    C126     C        0.02650    0.99970    0.04010    1.000
    H70      H        0.03000    0.98600    0.05280    1.000
    Mo43     Mo       0.20833    0.10679    0.56018    1.000
    O113     O        0.18835    0.10399    0.52567    1.000
    O114     O        0.24306    0.10928    0.58438    1.000
    O115     O        0.21782    0.06837    0.55196    1.000
    O116     O        0.21363    0.14558    0.55641    1.000
    Mo44     Mo       0.24734    0.05603    0.53274    1.000
    Mo45     Mo       0.28085    0.10731    0.56652    1.000
    Zn15     Zn       0.19106    0.07844    0.49482    1.000
    O117     O        0.27488    0.05877    0.50275    1.000
    O118     O        0.27386    0.07080    0.55800    1.000
    O119     O        0.15906    0.05479    0.49387    1.000
    C127     C        0.13730    0.06680    0.49070    1.000
    C128     C        0.11420    0.04780    0.48840    1.000
    O120     O        0.13492    0.09239    0.48974    1.000
    C129     C        0.08970    0.05830    0.48260    1.000
    C130     C        0.11700    0.02230    0.49370    1.000
    H71      H        0.08840    0.07700    0.47960    1.000
    C131     C        0.06500    0.04190    0.48090    1.000
    C132     C        0.09360    0.00350    0.49070    1.000
    H72      H        0.13380    0.01560    0.49950    1.000
    H73      H        0.04810    0.04960    0.47710    1.000
    C133     C        0.06820    0.01370    0.48510    1.000
    H74      H        0.09610    0.98470    0.49270    1.000
    C134     C        0.04330    0.99690    0.48220    1.000
    C135     C        0.02650    0.00030    0.45990    1.000
    H75      H        0.03000    0.01400    0.44720    1.000
    Mo46     Mo       0.70833    0.60679    0.06018    1.000
    O121     O        0.68835    0.60399    0.02567    1.000
    O122     O        0.74306    0.60928    0.08438    1.000
    O123     O        0.71782    0.56837    0.05196    1.000
    O124     O        0.71363    0.64558    0.05641    1.000
    Mo47     Mo       0.74734    0.55603    0.03274    1.000
    Mo48     Mo       0.78085    0.60731    0.06652    1.000
    Zn16     Zn       0.69106    0.57844    0.99482    1.000
    O125     O        0.77488    0.55877    0.00275    1.000
    O126     O        0.77386    0.57080    0.05800    1.000
    O127     O        0.65906    0.55479    0.99387    1.000
    C136     C        0.63730    0.56680    0.99070    1.000
    C137     C        0.61420    0.54780    0.98840    1.000
    O128     O        0.63492    0.59239    0.98974    1.000
    C138     C        0.58970    0.55830    0.98260    1.000
    C139     C        0.61700    0.52230    0.99370    1.000
    H76      H        0.58840    0.57700    0.97960    1.000
    C140     C        0.56500    0.54190    0.98090    1.000
    C141     C        0.59360    0.50350    0.99070    1.000
    H77      H        0.63380    0.51560    0.99950    1.000
    H78      H        0.54810    0.54960    0.97710    1.000
    C142     C        0.56820    0.51370    0.98510    1.000
    H79      H        0.59610    0.48470    0.99270    1.000
    C143     C        0.54330    0.49690    0.98220    1.000
    C144     C        0.52650    0.50030    0.95990    1.000
    H80      H        0.53000    0.51400    0.94720    1.000
    Mo49     Mo       0.93982    0.79167    0.60679    1.000
    O129     O        0.97433    0.81165    0.60399    1.000
    O130     O        0.91562    0.75694    0.60928    1.000
    O131     O        0.94804    0.78218    0.56837    1.000
    O132     O        0.94359    0.78637    0.64558    1.000
    Mo50     Mo       0.96726    0.75266    0.55603    1.000
    Mo51     Mo       0.93348    0.71915    0.60731    1.000
    Zn17     Zn       0.00518    0.80894    0.57844    1.000
    O133     O        0.99725    0.72512    0.55877    1.000
    O134     O        0.94200    0.72614    0.57080    1.000
    O135     O        0.00613    0.84094    0.55479    1.000
    C145     C        0.00930    0.86270    0.56680    1.000
    C146     C        0.01160    0.88580    0.54780    1.000
    O136     O        0.01026    0.86508    0.59239    1.000
    C147     C        0.01740    0.91030    0.55830    1.000
    C148     C        0.00630    0.88300    0.52230    1.000
    H81      H        0.02040    0.91160    0.57700    1.000
    C149     C        0.01910    0.93500    0.54190    1.000
    C150     C        0.00930    0.90640    0.50350    1.000
    H82      H        0.00050    0.86620    0.51560    1.000
    H83      H        0.02290    0.95190    0.54960    1.000
    C151     C        0.01490    0.93180    0.51370    1.000
    H84      H        0.00730    0.90390    0.48470    1.000
    C152     C        0.01780    0.95670    0.49690    1.000
    C153     C        0.04010    0.97350    0.50030    1.000
    H85      H        0.05280    0.97000    0.51400    1.000
    Mo52     Mo       0.43982    0.29167    0.10679    1.000
    O137     O        0.47433    0.31165    0.10399    1.000
    O138     O        0.41562    0.25694    0.10928    1.000
    O139     O        0.44804    0.28218    0.06837    1.000
    O140     O        0.44359    0.28637    0.14558    1.000
    Mo53     Mo       0.46726    0.25266    0.05603    1.000
    Mo54     Mo       0.43348    0.21915    0.10731    1.000
    Zn18     Zn       0.50518    0.30894    0.07844    1.000
    O141     O        0.49725    0.22512    0.05877    1.000
    O142     O        0.44200    0.22614    0.07080    1.000
    O143     O        0.50613    0.34094    0.05479    1.000
    C154     C        0.50930    0.36270    0.06680    1.000
    C155     C        0.51160    0.38580    0.04780    1.000
    O144     O        0.51026    0.36508    0.09239    1.000
    C156     C        0.51740    0.41030    0.05830    1.000
    C157     C        0.50630    0.38300    0.02230    1.000
    H86      H        0.52040    0.41160    0.07700    1.000
    C158     C        0.51910    0.43500    0.04190    1.000
    C159     C        0.50930    0.40640    0.00350    1.000
    H87      H        0.50050    0.36620    0.01560    1.000
    H88      H        0.52290    0.45190    0.04960    1.000
    C160     C        0.51490    0.43180    0.01370    1.000
    H89      H        0.50730    0.40390    0.98470    1.000
    C161     C        0.51780    0.45670    0.99690    1.000
    C162     C        0.54010    0.47350    0.00030    1.000
    H90      H        0.55280    0.47000    0.01400    1.000
    Mo55     Mo       0.06018    0.29167    0.89321    1.000
    O145     O        0.02567    0.31165    0.89601    1.000
    O146     O        0.08438    0.25694    0.89072    1.000
    O147     O        0.05196    0.28218    0.93163    1.000
    O148     O        0.05641    0.28637    0.85442    1.000
    Mo56     Mo       0.03274    0.25266    0.94397    1.000
    Mo57     Mo       0.06652    0.21915    0.89269    1.000
    Zn19     Zn       0.99482    0.30894    0.92156    1.000
    O149     O        0.00275    0.22512    0.94123    1.000
    O150     O        0.05800    0.22614    0.92920    1.000
    O151     O        0.99387    0.34094    0.94521    1.000
    C163     C        0.99070    0.36270    0.93320    1.000
    C164     C        0.98840    0.38580    0.95220    1.000
    O152     O        0.98974    0.36508    0.90761    1.000
    C165     C        0.98260    0.41030    0.94170    1.000
    C166     C        0.99370    0.38300    0.97770    1.000
    H91      H        0.97960    0.41160    0.92300    1.000
    C167     C        0.98090    0.43500    0.95810    1.000
    C168     C        0.99070    0.40640    0.99650    1.000
    H92      H        0.99950    0.36620    0.98440    1.000
    H93      H        0.97710    0.45190    0.95040    1.000
    C169     C        0.98510    0.43180    0.98630    1.000
    H94      H        0.99270    0.40390    0.01530    1.000
    C170     C        0.98220    0.45670    0.00310    1.000
    C171     C        0.95990    0.47350    0.99970    1.000
    H95      H        0.94720    0.47000    0.98600    1.000
    Mo58     Mo       0.56018    0.79167    0.39321    1.000
    O153     O        0.52567    0.81165    0.39601    1.000
    O154     O        0.58438    0.75694    0.39072    1.000
    O155     O        0.55196    0.78218    0.43163    1.000
    O156     O        0.55641    0.78637    0.35442    1.000
    Mo59     Mo       0.53274    0.75266    0.44397    1.000
    Mo60     Mo       0.56652    0.71915    0.39269    1.000
    Zn20     Zn       0.49482    0.80894    0.42156    1.000
    O157     O        0.50275    0.72512    0.44123    1.000
    O158     O        0.55800    0.72614    0.42920    1.000
    O159     O        0.49387    0.84094    0.44521    1.000
    C172     C        0.49070    0.86270    0.43320    1.000
    C173     C        0.48840    0.88580    0.45220    1.000
    O160     O        0.48974    0.86508    0.40761    1.000
    C174     C        0.48260    0.91030    0.44170    1.000
    C175     C        0.49370    0.88300    0.47770    1.000
    H96      H        0.47960    0.91160    0.42300    1.000
    C176     C        0.48090    0.93500    0.45810    1.000
    C177     C        0.49070    0.90640    0.49650    1.000
    H97      H        0.49950    0.86620    0.48440    1.000
    H98      H        0.47710    0.95190    0.45040    1.000
    C178     C        0.48510    0.93180    0.48630    1.000
    H99      H        0.49270    0.90390    0.51530    1.000
    C179     C        0.48220    0.95670    0.50310    1.000
    C180     C        0.45990    0.97350    0.49970    1.000
    H100     H        0.44720    0.97000    0.48600    1.000
    Mo61     Mo       0.43982    0.70833    0.39321    1.000
    O161     O        0.47433    0.68835    0.39601    1.000
    O162     O        0.41562    0.74306    0.39072    1.000
    O163     O        0.44804    0.71782    0.43163    1.000
    O164     O        0.44359    0.71363    0.35442    1.000
    Mo62     Mo       0.46726    0.74734    0.44397    1.000
    Mo63     Mo       0.43348    0.78085    0.39269    1.000
    Zn21     Zn       0.50518    0.69106    0.42156    1.000
    O165     O        0.49725    0.77488    0.44123    1.000
    O166     O        0.44200    0.77386    0.42920    1.000
    O167     O        0.50613    0.65906    0.44521    1.000
    C181     C        0.50930    0.63730    0.43320    1.000
    C182     C        0.51160    0.61420    0.45220    1.000
    O168     O        0.51026    0.63492    0.40761    1.000
    C183     C        0.51740    0.58970    0.44170    1.000
    C184     C        0.50630    0.61700    0.47770    1.000
    H101     H        0.52040    0.58840    0.42300    1.000
    C185     C        0.51910    0.56500    0.45810    1.000
    C186     C        0.50930    0.59360    0.49650    1.000
    H102     H        0.50050    0.63380    0.48440    1.000
    H103     H        0.52290    0.54810    0.45040    1.000
    C187     C        0.51490    0.56820    0.48630    1.000
    H104     H        0.50730    0.59610    0.51530    1.000
    C188     C        0.51780    0.54330    0.50310    1.000
    C189     C        0.54010    0.52650    0.49970    1.000
    H105     H        0.55280    0.53000    0.48600    1.000
    Mo64     Mo       0.93982    0.20833    0.89321    1.000
    O169     O        0.97433    0.18835    0.89601    1.000
    O170     O        0.91562    0.24306    0.89072    1.000
    O171     O        0.94804    0.21782    0.93163    1.000
    O172     O        0.94359    0.21363    0.85442    1.000
    Mo65     Mo       0.96726    0.24734    0.94397    1.000
    Mo66     Mo       0.93348    0.28085    0.89269    1.000
    Zn22     Zn       0.00518    0.19106    0.92156    1.000
    O173     O        0.99725    0.27488    0.94123    1.000
    O174     O        0.94200    0.27386    0.92920    1.000
    O175     O        0.00613    0.15906    0.94521    1.000
    C190     C        0.00930    0.13730    0.93320    1.000
    C191     C        0.01160    0.11420    0.95220    1.000
    O176     O        0.01026    0.13492    0.90761    1.000
    C192     C        0.01740    0.08970    0.94170    1.000
    C193     C        0.00630    0.11700    0.97770    1.000
    H106     H        0.02040    0.08840    0.92300    1.000
    C194     C        0.01910    0.06500    0.95810    1.000
    C195     C        0.00930    0.09360    0.99650    1.000
    H107     H        0.00050    0.13380    0.98440    1.000
    H108     H        0.02290    0.04810    0.95040    1.000
    C196     C        0.01490    0.06820    0.98630    1.000
    H109     H        0.00730    0.09610    0.01530    1.000
    C197     C        0.01780    0.04330    0.00310    1.000
    C198     C        0.04010    0.02650    0.99970    1.000
    H110     H        0.05280    0.03000    0.98600    1.000
    Mo67     Mo       0.56018    0.20833    0.10679    1.000
    O177     O        0.52567    0.18835    0.10399    1.000
    O178     O        0.58438    0.24306    0.10928    1.000
    O179     O        0.55196    0.21782    0.06837    1.000
    O180     O        0.55641    0.21363    0.14558    1.000
    Mo68     Mo       0.53274    0.24734    0.05603    1.000
    Mo69     Mo       0.56652    0.28085    0.10731    1.000
    Zn23     Zn       0.49482    0.19106    0.07844    1.000
    O181     O        0.50275    0.27488    0.05877    1.000
    O182     O        0.55800    0.27386    0.07080    1.000
    O183     O        0.49387    0.15906    0.05479    1.000
    C199     C        0.49070    0.13730    0.06680    1.000
    C200     C        0.48840    0.11420    0.04780    1.000
    O184     O        0.48974    0.13492    0.09239    1.000
    C201     C        0.48260    0.08970    0.05830    1.000
    C202     C        0.49370    0.11700    0.02230    1.000
    H111     H        0.47960    0.08840    0.07700    1.000
    C203     C        0.48090    0.06500    0.04190    1.000
    C204     C        0.49070    0.09360    0.00350    1.000
    H112     H        0.49950    0.13380    0.01560    1.000
    H113     H        0.47710    0.04810    0.04960    1.000
    C205     C        0.48510    0.06820    0.01370    1.000
    H114     H        0.49270    0.09610    0.98470    1.000
    C206     C        0.48220    0.04330    0.99690    1.000
    C207     C        0.45990    0.02650    0.00030    1.000
    H115     H        0.44720    0.03000    0.01400    1.000
    Mo70     Mo       0.06018    0.70833    0.60679    1.000
    O185     O        0.02567    0.68835    0.60399    1.000
    O186     O        0.08438    0.74306    0.60928    1.000
    O187     O        0.05196    0.71782    0.56837    1.000
    O188     O        0.05641    0.71363    0.64558    1.000
    Mo71     Mo       0.03274    0.74734    0.55603    1.000
    Mo72     Mo       0.06652    0.78085    0.60731    1.000
    Zn24     Zn       0.99482    0.69106    0.57844    1.000
    O189     O        0.00275    0.77488    0.55877    1.000
    O190     O        0.05800    0.77386    0.57080    1.000
    O191     O        0.99387    0.65906    0.55479    1.000
    C208     C        0.99070    0.63730    0.56680    1.000
    C209     C        0.98840    0.61420    0.54780    1.000
    O192     O        0.98974    0.63492    0.59239    1.000
    C210     C        0.98260    0.58970    0.55830    1.000
    C211     C        0.99370    0.61700    0.52230    1.000
    H116     H        0.97960    0.58840    0.57700    1.000
    C212     C        0.98090    0.56500    0.54190    1.000
    C213     C        0.99070    0.59360    0.50350    1.000
    H117     H        0.99950    0.63380    0.51560    1.000
    H118     H        0.97710    0.54810    0.54960    1.000
    C214     C        0.98510    0.56820    0.51370    1.000
    H119     H        0.99270    0.59610    0.48470    1.000
    C215     C        0.98220    0.54330    0.49690    1.000
    C216     C        0.95990    0.52650    0.50030    1.000
    H120     H        0.94720    0.53000    0.51400    1.000
    Mo73     Mo       0.31018    0.14321    0.54167    1.000
    O193     O        0.27567    0.14601    0.56165    1.000
    O194     O        0.33438    0.14072    0.50694    1.000
    O195     O        0.30196    0.18163    0.53218    1.000
    O196     O        0.30641    0.10442    0.53637    1.000
    Mo74     Mo       0.28274    0.19397    0.50266    1.000
    Mo75     Mo       0.31652    0.14269    0.46915    1.000
    Zn25     Zn       0.24482    0.17156    0.55894    1.000
    O197     O        0.25275    0.19123    0.47512    1.000
    O198     O        0.30800    0.17920    0.47614    1.000
    O199     O        0.24387    0.19521    0.59094    1.000
    C217     C        0.24070    0.18320    0.61270    1.000
    C218     C        0.23840    0.20220    0.63580    1.000
    O200     O        0.23974    0.15761    0.61508    1.000
    C219     C        0.23260    0.19170    0.66030    1.000
    C220     C        0.24370    0.22770    0.63300    1.000
    H121     H        0.22960    0.17300    0.66160    1.000
    C221     C        0.23090    0.20810    0.68500    1.000
    C222     C        0.24070    0.24650    0.65640    1.000
    H122     H        0.24950    0.23440    0.61620    1.000
    H123     H        0.22710    0.20040    0.70190    1.000
    C223     C        0.23510    0.23630    0.68180    1.000
    H124     H        0.24270    0.26530    0.65390    1.000
    C224     C        0.23220    0.25310    0.70670    1.000
    C225     C        0.20990    0.24970    0.72350    1.000
    H125     H        0.19720    0.23600    0.72000    1.000
    Mo76     Mo       0.81018    0.64321    0.04167    1.000
    O201     O        0.77567    0.64601    0.06165    1.000
    O202     O        0.83438    0.64072    0.00694    1.000
    O203     O        0.80196    0.68163    0.03218    1.000
    O204     O        0.80641    0.60442    0.03637    1.000
    Mo77     Mo       0.78274    0.69397    0.00266    1.000
    Mo78     Mo       0.81652    0.64269    0.96915    1.000
    Zn26     Zn       0.74482    0.67156    0.05894    1.000
    O205     O        0.75275    0.69123    0.97512    1.000
    O206     O        0.80800    0.67920    0.97614    1.000
    O207     O        0.74387    0.69521    0.09094    1.000
    C226     C        0.74070    0.68320    0.11270    1.000
    C227     C        0.73840    0.70220    0.13580    1.000
    O208     O        0.73974    0.65761    0.11508    1.000
    C228     C        0.73260    0.69170    0.16030    1.000
    C229     C        0.74370    0.72770    0.13300    1.000
    H126     H        0.72960    0.67300    0.16160    1.000
    C230     C        0.73090    0.70810    0.18500    1.000
    C231     C        0.74070    0.74650    0.15640    1.000
    H127     H        0.74950    0.73440    0.11620    1.000
    H128     H        0.72710    0.70040    0.20190    1.000
    C232     C        0.73510    0.73630    0.18180    1.000
    H129     H        0.74270    0.76530    0.15390    1.000
    C233     C        0.73220    0.75310    0.20670    1.000
    C234     C        0.70990    0.74970    0.22350    1.000
    H130     H        0.69720    0.73600    0.22000    1.000
    Mo79     Mo       0.18982    0.85679    0.04167    1.000
    O209     O        0.22433    0.85399    0.06165    1.000
    O210     O        0.16562    0.85928    0.00694    1.000
    O211     O        0.19804    0.81837    0.03218    1.000
    O212     O        0.19359    0.89558    0.03637    1.000
    Mo80     Mo       0.21726    0.80603    0.00266    1.000
    Mo81     Mo       0.18348    0.85731    0.96915    1.000
    Zn27     Zn       0.25518    0.82844    0.05894    1.000
    O213     O        0.24725    0.80877    0.97512    1.000
    O214     O        0.19200    0.82080    0.97614    1.000
    O215     O        0.25613    0.80479    0.09094    1.000
    C235     C        0.25930    0.81680    0.11270    1.000
    C236     C        0.26160    0.79780    0.13580    1.000
    O216     O        0.26026    0.84239    0.11508    1.000
    C237     C        0.26740    0.80830    0.16030    1.000
    C238     C        0.25630    0.77230    0.13300    1.000
    H131     H        0.27040    0.82700    0.16160    1.000
    C239     C        0.26910    0.79190    0.18500    1.000
    C240     C        0.25930    0.75350    0.15640    1.000
    H132     H        0.25050    0.76560    0.11620    1.000
    H133     H        0.27290    0.79960    0.20190    1.000
    C241     C        0.26490    0.76370    0.18180    1.000
    H134     H        0.25730    0.73470    0.15390    1.000
    C242     C        0.26780    0.74690    0.20670    1.000
    C243     C        0.29010    0.75030    0.22350    1.000
    H135     H        0.30280    0.76400    0.22000    1.000
    Mo82     Mo       0.68982    0.35679    0.54167    1.000
    O217     O        0.72433    0.35399    0.56165    1.000
    O218     O        0.66562    0.35928    0.50694    1.000
    O219     O        0.69804    0.31837    0.53218    1.000
    O220     O        0.69359    0.39558    0.53637    1.000
    Mo83     Mo       0.71726    0.30603    0.50266    1.000
    Mo84     Mo       0.68348    0.35731    0.46915    1.000
    Zn28     Zn       0.75518    0.32844    0.55894    1.000
    O221     O        0.74725    0.30877    0.47512    1.000
    O222     O        0.69200    0.32080    0.47614    1.000
    O223     O        0.75613    0.30479    0.59094    1.000
    C244     C        0.75930    0.31680    0.61270    1.000
    C245     C        0.76160    0.29780    0.63580    1.000
    O224     O        0.76026    0.34239    0.61508    1.000
    C246     C        0.76740    0.30830    0.66030    1.000
    C247     C        0.75630    0.27230    0.63300    1.000
    H136     H        0.77040    0.32700    0.66160    1.000
    C248     C        0.76910    0.29190    0.68500    1.000
    C249     C        0.75930    0.25350    0.65640    1.000
    H137     H        0.75050    0.26560    0.61620    1.000
    H138     H        0.77290    0.29960    0.70190    1.000
    C250     C        0.76490    0.26370    0.68180    1.000
    H139     H        0.75730    0.23470    0.65390    1.000
    C251     C        0.76780    0.24690    0.70670    1.000
    C252     C        0.79010    0.25030    0.72350    1.000
    H140     H        0.80280    0.26400    0.72000    1.000
    Mo85     Mo       0.81018    0.35679    0.45833    1.000
    O225     O        0.77567    0.35399    0.43835    1.000
    O226     O        0.83438    0.35928    0.49306    1.000
    O227     O        0.80196    0.31837    0.46782    1.000
    O228     O        0.80641    0.39558    0.46363    1.000
    Mo86     Mo       0.78274    0.30603    0.49734    1.000
    Mo87     Mo       0.81652    0.35731    0.53085    1.000
    Zn29     Zn       0.74482    0.32844    0.44106    1.000
    O229     O        0.75275    0.30877    0.52488    1.000
    O230     O        0.80800    0.32080    0.52386    1.000
    O231     O        0.74387    0.30479    0.40906    1.000
    C253     C        0.74070    0.31680    0.38730    1.000
    C254     C        0.73840    0.29780    0.36420    1.000
    O232     O        0.73974    0.34239    0.38492    1.000
    C255     C        0.73260    0.30830    0.33970    1.000
    C256     C        0.74370    0.27230    0.36700    1.000
    H141     H        0.72960    0.32700    0.33840    1.000
    C257     C        0.73090    0.29190    0.31500    1.000
    C258     C        0.74070    0.25350    0.34360    1.000
    H142     H        0.74950    0.26560    0.38380    1.000
    H143     H        0.72710    0.29960    0.29810    1.000
    C259     C        0.73510    0.26370    0.31820    1.000
    H144     H        0.74270    0.23470    0.34610    1.000
    C260     C        0.73220    0.24690    0.29330    1.000
    C261     C        0.70990    0.25030    0.27650    1.000
    H145     H        0.69720    0.26400    0.28000    1.000
    Mo88     Mo       0.31018    0.85679    0.95833    1.000
    O233     O        0.27567    0.85399    0.93835    1.000
    O234     O        0.33438    0.85928    0.99306    1.000
    O235     O        0.30196    0.81837    0.96782    1.000
    O236     O        0.30641    0.89558    0.96363    1.000
    Mo89     Mo       0.28274    0.80603    0.99734    1.000
    Mo90     Mo       0.31652    0.85731    0.03085    1.000
    Zn30     Zn       0.24482    0.82844    0.94106    1.000
    O237     O        0.25275    0.80877    0.02488    1.000
    O238     O        0.30800    0.82080    0.02386    1.000
    O239     O        0.24387    0.80479    0.90906    1.000
    C262     C        0.24070    0.81680    0.88730    1.000
    C263     C        0.23840    0.79780    0.86420    1.000
    O240     O        0.23974    0.84239    0.88492    1.000
    C264     C        0.23260    0.80830    0.83970    1.000
    C265     C        0.24370    0.77230    0.86700    1.000
    H146     H        0.22960    0.82700    0.83840    1.000
    C266     C        0.23090    0.79190    0.81500    1.000
    C267     C        0.24070    0.75350    0.84360    1.000
    H147     H        0.24950    0.76560    0.88380    1.000
    H148     H        0.22710    0.79960    0.79810    1.000
    C268     C        0.23510    0.76370    0.81820    1.000
    H149     H        0.24270    0.73470    0.84610    1.000
    C269     C        0.23220    0.74690    0.79330    1.000
    C270     C        0.20990    0.75030    0.77650    1.000
    H150     H        0.19720    0.76400    0.78000    1.000
    Mo91     Mo       0.68982    0.64321    0.95833    1.000
    O241     O        0.72433    0.64601    0.93835    1.000
    O242     O        0.66562    0.64072    0.99306    1.000
    O243     O        0.69804    0.68163    0.96782    1.000
    O244     O        0.69359    0.60442    0.96363    1.000
    Mo92     Mo       0.71726    0.69397    0.99734    1.000
    Mo93     Mo       0.68348    0.64269    0.03085    1.000
    Zn31     Zn       0.75518    0.67156    0.94106    1.000
    O245     O        0.74725    0.69123    0.02488    1.000
    O246     O        0.69200    0.67920    0.02386    1.000
    O247     O        0.75613    0.69521    0.90906    1.000
    C271     C        0.75930    0.68320    0.88730    1.000
    C272     C        0.76160    0.70220    0.86420    1.000
    O248     O        0.76026    0.65761    0.88492    1.000
    C273     C        0.76740    0.69170    0.83970    1.000
    C274     C        0.75630    0.72770    0.86700    1.000
    H151     H        0.77040    0.67300    0.83840    1.000
    C275     C        0.76910    0.70810    0.81500    1.000
    C276     C        0.75930    0.74650    0.84360    1.000
    H152     H        0.75050    0.73440    0.88380    1.000
    H153     H        0.77290    0.70040    0.79810    1.000
    C277     C        0.76490    0.73630    0.81820    1.000
    H154     H        0.75730    0.76530    0.84610    1.000
    C278     C        0.76780    0.75310    0.79330    1.000
    C279     C        0.79010    0.74970    0.77650    1.000
    H155     H        0.80280    0.73600    0.78000    1.000
    Mo94     Mo       0.18982    0.14321    0.45833    1.000
    O249     O        0.22433    0.14601    0.43835    1.000
    O250     O        0.16562    0.14072    0.49306    1.000
    O251     O        0.19804    0.18163    0.46782    1.000
    O252     O        0.19359    0.10442    0.46363    1.000
    Mo95     Mo       0.21726    0.19397    0.49734    1.000
    Mo96     Mo       0.18348    0.14269    0.53085    1.000
    Zn32     Zn       0.25518    0.17156    0.44106    1.000
    O253     O        0.24725    0.19123    0.52488    1.000
    O254     O        0.19200    0.17920    0.52386    1.000
    O255     O        0.25613    0.19521    0.40906    1.000
    C280     C        0.25930    0.18320    0.38730    1.000
    C281     C        0.26160    0.20220    0.36420    1.000
    O256     O        0.26026    0.15761    0.38492    1.000
    C282     C        0.26740    0.19170    0.33970    1.000
    C283     C        0.25630    0.22770    0.36700    1.000
    H156     H        0.27040    0.17300    0.33840    1.000
    C284     C        0.26910    0.20810    0.31500    1.000
    C285     C        0.25930    0.24650    0.34360    1.000
    H157     H        0.25050    0.23440    0.38380    1.000
    H158     H        0.27290    0.20040    0.29810    1.000
    C286     C        0.26490    0.23630    0.31820    1.000
    H159     H        0.25730    0.26530    0.34610    1.000
    C287     C        0.26780    0.25310    0.29330    1.000
    C288     C        0.29010    0.24970    0.27650    1.000
    H160     H        0.30280    0.23600    0.28000    1.000
    Mo97     Mo       0.64321    0.95833    0.68982    1.000
    O257     O        0.64601    0.93835    0.72433    1.000
    O258     O        0.64072    0.99306    0.66562    1.000
    O259     O        0.68163    0.96782    0.69804    1.000
    O260     O        0.60442    0.96363    0.69359    1.000
    Mo98     Mo       0.69397    0.99734    0.71726    1.000
    Mo99     Mo       0.64269    0.03085    0.68348    1.000
    Zn33     Zn       0.67156    0.94106    0.75518    1.000
    O261     O        0.69123    0.02488    0.74725    1.000
    O262     O        0.67920    0.02386    0.69200    1.000
    O263     O        0.69521    0.90906    0.75613    1.000
    C289     C        0.68320    0.88730    0.75930    1.000
    C290     C        0.70220    0.86420    0.76160    1.000
    O264     O        0.65761    0.88492    0.76026    1.000
    C291     C        0.69170    0.83970    0.76740    1.000
    C292     C        0.72770    0.86700    0.75630    1.000
    H161     H        0.67300    0.83840    0.77040    1.000
    C293     C        0.70810    0.81500    0.76910    1.000
    C294     C        0.74650    0.84360    0.75930    1.000
    H162     H        0.73440    0.88380    0.75050    1.000
    H163     H        0.70040    0.79810    0.77290    1.000
    C295     C        0.73630    0.81820    0.76490    1.000
    H164     H        0.76530    0.84610    0.75730    1.000
    C296     C        0.75310    0.79330    0.76780    1.000
    C297     C        0.74970    0.77650    0.79010    1.000
    H165     H        0.73600    0.78000    0.80280    1.000
    Mo100    Mo       0.14321    0.45833    0.18982    1.000
    O265     O        0.14601    0.43835    0.22433    1.000
    O266     O        0.14072    0.49306    0.16562    1.000
    O267     O        0.18163    0.46782    0.19804    1.000
    O268     O        0.10442    0.46363    0.19359    1.000
    Mo101    Mo       0.19397    0.49734    0.21726    1.000
    Mo102    Mo       0.14269    0.53085    0.18348    1.000
    Zn34     Zn       0.17156    0.44106    0.25518    1.000
    O269     O        0.19123    0.52488    0.24725    1.000
    O270     O        0.17920    0.52386    0.19200    1.000
    O271     O        0.19521    0.40906    0.25613    1.000
    C298     C        0.18320    0.38730    0.25930    1.000
    C299     C        0.20220    0.36420    0.26160    1.000
    O272     O        0.15761    0.38492    0.26026    1.000
    C300     C        0.19170    0.33970    0.26740    1.000
    C301     C        0.22770    0.36700    0.25630    1.000
    H166     H        0.17300    0.33840    0.27040    1.000
    C302     C        0.20810    0.31500    0.26910    1.000
    C303     C        0.24650    0.34360    0.25930    1.000
    H167     H        0.23440    0.38380    0.25050    1.000
    H168     H        0.20040    0.29810    0.27290    1.000
    C304     C        0.23630    0.31820    0.26490    1.000
    H169     H        0.26530    0.34610    0.25730    1.000
    C305     C        0.25310    0.29330    0.26780    1.000
    C306     C        0.24970    0.27650    0.29010    1.000
    H170     H        0.23600    0.28000    0.30280    1.000
    Mo103    Mo       0.35679    0.45833    0.81018    1.000
    O273     O        0.35399    0.43835    0.77567    1.000
    O274     O        0.35928    0.49306    0.83438    1.000
    O275     O        0.31837    0.46782    0.80196    1.000
    O276     O        0.39558    0.46363    0.80641    1.000
    Mo104    Mo       0.30603    0.49734    0.78274    1.000
    Mo105    Mo       0.35731    0.53085    0.81652    1.000
    Zn35     Zn       0.32844    0.44106    0.74482    1.000
    O277     O        0.30877    0.52488    0.75275    1.000
    O278     O        0.32080    0.52386    0.80800    1.000
    O279     O        0.30479    0.40906    0.74387    1.000
    C307     C        0.31680    0.38730    0.74070    1.000
    C308     C        0.29780    0.36420    0.73840    1.000
    O280     O        0.34239    0.38492    0.73974    1.000
    C309     C        0.30830    0.33970    0.73260    1.000
    C310     C        0.27230    0.36700    0.74370    1.000
    H171     H        0.32700    0.33840    0.72960    1.000
    C311     C        0.29190    0.31500    0.73090    1.000
    C312     C        0.25350    0.34360    0.74070    1.000
    H172     H        0.26560    0.38380    0.74950    1.000
    H173     H        0.29960    0.29810    0.72710    1.000
    C313     C        0.26370    0.31820    0.73510    1.000
    H174     H        0.23470    0.34610    0.74270    1.000
    C314     C        0.24690    0.29330    0.73220    1.000
    C315     C        0.25030    0.27650    0.70990    1.000
    H175     H        0.26400    0.28000    0.69720    1.000
    Mo106    Mo       0.85679    0.95833    0.31018    1.000
    O281     O        0.85399    0.93835    0.27567    1.000
    O282     O        0.85928    0.99306    0.33438    1.000
    O283     O        0.81837    0.96782    0.30196    1.000
    O284     O        0.89558    0.96363    0.30641    1.000
    Mo107    Mo       0.80603    0.99734    0.28274    1.000
    Mo108    Mo       0.85731    0.03085    0.31652    1.000
    Zn36     Zn       0.82844    0.94106    0.24482    1.000
    O285     O        0.80877    0.02488    0.25275    1.000
    O286     O        0.82080    0.02386    0.30800    1.000
    O287     O        0.80479    0.90906    0.24387    1.000
    C316     C        0.81680    0.88730    0.24070    1.000
    C317     C        0.79780    0.86420    0.23840    1.000
    O288     O        0.84239    0.88492    0.23974    1.000
    C318     C        0.80830    0.83970    0.23260    1.000
    C319     C        0.77230    0.86700    0.24370    1.000
    H176     H        0.82700    0.83840    0.22960    1.000
    C320     C        0.79190    0.81500    0.23090    1.000
    C321     C        0.75350    0.84360    0.24070    1.000
    H177     H        0.76560    0.88380    0.24950    1.000
    H178     H        0.79960    0.79810    0.22710    1.000
    C322     C        0.76370    0.81820    0.23510    1.000
    H179     H        0.73470    0.84610    0.24270    1.000
    C323     C        0.74690    0.79330    0.23220    1.000
    C324     C        0.75030    0.77650    0.20990    1.000
    H180     H        0.76400    0.78000    0.19720    1.000
    Mo109    Mo       0.85679    0.04167    0.18982    1.000
    O289     O        0.85399    0.06165    0.22433    1.000
    O290     O        0.85928    0.00694    0.16562    1.000
    O291     O        0.81837    0.03218    0.19804    1.000
    O292     O        0.89558    0.03637    0.19359    1.000
    Mo110    Mo       0.80603    0.00266    0.21726    1.000
    Mo111    Mo       0.85731    0.96915    0.18348    1.000
    Zn37     Zn       0.82844    0.05894    0.25518    1.000
    O293     O        0.80877    0.97512    0.24725    1.000
    O294     O        0.82080    0.97614    0.19200    1.000
    O295     O        0.80479    0.09094    0.25613    1.000
    C325     C        0.81680    0.11270    0.25930    1.000
    C326     C        0.79780    0.13580    0.26160    1.000
    O296     O        0.84239    0.11508    0.26026    1.000
    C327     C        0.80830    0.16030    0.26740    1.000
    C328     C        0.77230    0.13300    0.25630    1.000
    H181     H        0.82700    0.16160    0.27040    1.000
    C329     C        0.79190    0.18500    0.26910    1.000
    C330     C        0.75350    0.15640    0.25930    1.000
    H182     H        0.76560    0.11620    0.25050    1.000
    H183     H        0.79960    0.20190    0.27290    1.000
    C331     C        0.76370    0.18180    0.26490    1.000
    H184     H        0.73470    0.15390    0.25730    1.000
    C332     C        0.74690    0.20670    0.26780    1.000
    C333     C        0.75030    0.22350    0.29010    1.000
    H185     H        0.76400    0.22000    0.30280    1.000
    Mo112    Mo       0.35679    0.54167    0.68982    1.000
    O297     O        0.35399    0.56165    0.72433    1.000
    O298     O        0.35928    0.50694    0.66562    1.000
    O299     O        0.31837    0.53218    0.69804    1.000
    O300     O        0.39558    0.53637    0.69359    1.000
    Mo113    Mo       0.30603    0.50266    0.71726    1.000
    Mo114    Mo       0.35731    0.46915    0.68348    1.000
    Zn38     Zn       0.32844    0.55894    0.75518    1.000
    O301     O        0.30877    0.47512    0.74725    1.000
    O302     O        0.32080    0.47614    0.69200    1.000
    O303     O        0.30479    0.59094    0.75613    1.000
    C334     C        0.31680    0.61270    0.75930    1.000
    C335     C        0.29780    0.63580    0.76160    1.000
    O304     O        0.34239    0.61508    0.76026    1.000
    C336     C        0.30830    0.66030    0.76740    1.000
    C337     C        0.27230    0.63300    0.75630    1.000
    H186     H        0.32700    0.66160    0.77040    1.000
    C338     C        0.29190    0.68500    0.76910    1.000
    C339     C        0.25350    0.65640    0.75930    1.000
    H187     H        0.26560    0.61620    0.75050    1.000
    H188     H        0.29960    0.70190    0.77290    1.000
    C340     C        0.26370    0.68180    0.76490    1.000
    H189     H        0.23470    0.65390    0.75730    1.000
    C341     C        0.24690    0.70670    0.76780    1.000
    C342     C        0.25030    0.72350    0.79010    1.000
    H190     H        0.26400    0.72000    0.80280    1.000
    Mo115    Mo       0.14321    0.54167    0.31018    1.000
    O305     O        0.14601    0.56165    0.27567    1.000
    O306     O        0.14072    0.50694    0.33438    1.000
    O307     O        0.18163    0.53218    0.30196    1.000
    O308     O        0.10442    0.53637    0.30641    1.000
    Mo116    Mo       0.19397    0.50266    0.28274    1.000
    Mo117    Mo       0.14269    0.46915    0.31652    1.000
    Zn39     Zn       0.17156    0.55894    0.24482    1.000
    O309     O        0.19123    0.47512    0.25275    1.000
    O310     O        0.17920    0.47614    0.30800    1.000
    O311     O        0.19521    0.59094    0.24387    1.000
    C343     C        0.18320    0.61270    0.24070    1.000
    C344     C        0.20220    0.63580    0.23840    1.000
    O312     O        0.15761    0.61508    0.23974    1.000
    C345     C        0.19170    0.66030    0.23260    1.000
    C346     C        0.22770    0.63300    0.24370    1.000
    H191     H        0.17300    0.66160    0.22960    1.000
    C347     C        0.20810    0.68500    0.23090    1.000
    C348     C        0.24650    0.65640    0.24070    1.000
    H192     H        0.23440    0.61620    0.24950    1.000
    H193     H        0.20040    0.70190    0.22710    1.000
    C349     C        0.23630    0.68180    0.23510    1.000
    H194     H        0.26530    0.65390    0.24270    1.000
    C350     C        0.25310    0.70670    0.23220    1.000
    C351     C        0.24970    0.72350    0.20990    1.000
    H195     H        0.23600    0.72000    0.19720    1.000
    Mo118    Mo       0.64321    0.04167    0.81018    1.000
    O313     O        0.64601    0.06165    0.77567    1.000
    O314     O        0.64072    0.00694    0.83438    1.000
    O315     O        0.68163    0.03218    0.80196    1.000
    O316     O        0.60442    0.03637    0.80641    1.000
    Mo119    Mo       0.69397    0.00266    0.78274    1.000
    Mo120    Mo       0.64269    0.96915    0.81652    1.000
    Zn40     Zn       0.67156    0.05894    0.74482    1.000
    O317     O        0.69123    0.97512    0.75275    1.000
    O318     O        0.67920    0.97614    0.80800    1.000
    O319     O        0.69521    0.09094    0.74387    1.000
    C352     C        0.68320    0.11270    0.74070    1.000
    C353     C        0.70220    0.13580    0.73840    1.000
    O320     O        0.65761    0.11508    0.73974    1.000
    C354     C        0.69170    0.16030    0.73260    1.000
    C355     C        0.72770    0.13300    0.74370    1.000
    H196     H        0.67300    0.16160    0.72960    1.000
    C356     C        0.70810    0.18500    0.73090    1.000
    C357     C        0.74650    0.15640    0.74070    1.000
    H197     H        0.73440    0.11620    0.74950    1.000
    H198     H        0.70040    0.20190    0.72710    1.000
    C358     C        0.73630    0.18180    0.73510    1.000
    H199     H        0.76530    0.15390    0.74270    1.000
    C359     C        0.75310    0.20670    0.73220    1.000
    C360     C        0.74970    0.22350    0.70990    1.000
    H200     H        0.73600    0.22000    0.69720    1.000
    Mo121    Mo       0.45833    0.81018    0.35679    1.000
    O321     O        0.43835    0.77567    0.35399    1.000
    O322     O        0.49306    0.83438    0.35928    1.000
    O323     O        0.46782    0.80196    0.31837    1.000
    O324     O        0.46363    0.80641    0.39558    1.000
    Mo122    Mo       0.49734    0.78274    0.30603    1.000
    Mo123    Mo       0.53085    0.81652    0.35731    1.000
    Zn41     Zn       0.44106    0.74482    0.32844    1.000
    O325     O        0.52488    0.75275    0.30877    1.000
    O326     O        0.52386    0.80800    0.32080    1.000
    O327     O        0.40906    0.74387    0.30479    1.000
    C361     C        0.38730    0.74070    0.31680    1.000
    C362     C        0.36420    0.73840    0.29780    1.000
    O328     O        0.38492    0.73974    0.34239    1.000
    C363     C        0.33970    0.73260    0.30830    1.000
    C364     C        0.36700    0.74370    0.27230    1.000
    H201     H        0.33840    0.72960    0.32700    1.000
    C365     C        0.31500    0.73090    0.29190    1.000
    C366     C        0.34360    0.74070    0.25350    1.000
    H202     H        0.38380    0.74950    0.26560    1.000
    H203     H        0.29810    0.72710    0.29960    1.000
    C367     C        0.31820    0.73510    0.26370    1.000
    H204     H        0.34610    0.74270    0.23470    1.000
    C368     C        0.29330    0.73220    0.24690    1.000
    C369     C        0.27650    0.70990    0.25030    1.000
    H205     H        0.28000    0.69720    0.26400    1.000
    Mo124    Mo       0.95833    0.31018    0.85679    1.000
    O329     O        0.93835    0.27567    0.85399    1.000
    O330     O        0.99306    0.33438    0.85928    1.000
    O331     O        0.96782    0.30196    0.81837    1.000
    O332     O        0.96363    0.30641    0.89558    1.000
    Mo125    Mo       0.99734    0.28274    0.80603    1.000
    Mo126    Mo       0.03085    0.31652    0.85731    1.000
    Zn42     Zn       0.94106    0.24482    0.82844    1.000
    O333     O        0.02488    0.25275    0.80877    1.000
    O334     O        0.02386    0.30800    0.82080    1.000
    O335     O        0.90906    0.24387    0.80479    1.000
    C370     C        0.88730    0.24070    0.81680    1.000
    C371     C        0.86420    0.23840    0.79780    1.000
    O336     O        0.88492    0.23974    0.84239    1.000
    C372     C        0.83970    0.23260    0.80830    1.000
    C373     C        0.86700    0.24370    0.77230    1.000
    H206     H        0.83840    0.22960    0.82700    1.000
    C374     C        0.81500    0.23090    0.79190    1.000
    C375     C        0.84360    0.24070    0.75350    1.000
    H207     H        0.88380    0.24950    0.76560    1.000
    H208     H        0.79810    0.22710    0.79960    1.000
    C376     C        0.81820    0.23510    0.76370    1.000
    H209     H        0.84610    0.24270    0.73470    1.000
    C377     C        0.79330    0.23220    0.74690    1.000
    C378     C        0.77650    0.20990    0.75030    1.000
    H210     H        0.78000    0.19720    0.76400    1.000
    Mo127    Mo       0.95833    0.68982    0.64321    1.000
    O337     O        0.93835    0.72433    0.64601    1.000
    O338     O        0.99306    0.66562    0.64072    1.000
    O339     O        0.96782    0.69804    0.68163    1.000
    O340     O        0.96363    0.69359    0.60442    1.000
    Mo128    Mo       0.99734    0.71726    0.69397    1.000
    Mo129    Mo       0.03085    0.68348    0.64269    1.000
    Zn43     Zn       0.94106    0.75518    0.67156    1.000
    O341     O        0.02488    0.74725    0.69123    1.000
    O342     O        0.02386    0.69200    0.67920    1.000
    O343     O        0.90906    0.75613    0.69521    1.000
    C379     C        0.88730    0.75930    0.68320    1.000
    C380     C        0.86420    0.76160    0.70220    1.000
    O344     O        0.88492    0.76026    0.65761    1.000
    C381     C        0.83970    0.76740    0.69170    1.000
    C382     C        0.86700    0.75630    0.72770    1.000
    H211     H        0.83840    0.77040    0.67300    1.000
    C383     C        0.81500    0.76910    0.70810    1.000
    C384     C        0.84360    0.75930    0.74650    1.000
    H212     H        0.88380    0.75050    0.73440    1.000
    H213     H        0.79810    0.77290    0.70040    1.000
    C385     C        0.81820    0.76490    0.73630    1.000
    H214     H        0.84610    0.75730    0.76530    1.000
    C386     C        0.79330    0.76780    0.75310    1.000
    C387     C        0.77650    0.79010    0.74970    1.000
    H215     H        0.78000    0.80280    0.73600    1.000
    Mo130    Mo       0.45833    0.18982    0.14321    1.000
    O345     O        0.43835    0.22433    0.14601    1.000
    O346     O        0.49306    0.16562    0.14072    1.000
    O347     O        0.46782    0.19804    0.18163    1.000
    O348     O        0.46363    0.19359    0.10442    1.000
    Mo131    Mo       0.49734    0.21726    0.19397    1.000
    Mo132    Mo       0.53085    0.18348    0.14269    1.000
    Zn44     Zn       0.44106    0.25518    0.17156    1.000
    O349     O        0.52488    0.24725    0.19123    1.000
    O350     O        0.52386    0.19200    0.17920    1.000
    O351     O        0.40906    0.25613    0.19521    1.000
    C388     C        0.38730    0.25930    0.18320    1.000
    C389     C        0.36420    0.26160    0.20220    1.000
    O352     O        0.38492    0.26026    0.15761    1.000
    C390     C        0.33970    0.26740    0.19170    1.000
    C391     C        0.36700    0.25630    0.22770    1.000
    H216     H        0.33840    0.27040    0.17300    1.000
    C392     C        0.31500    0.26910    0.20810    1.000
    C393     C        0.34360    0.25930    0.24650    1.000
    H217     H        0.38380    0.25050    0.23440    1.000
    H218     H        0.29810    0.27290    0.20040    1.000
    C394     C        0.31820    0.26490    0.23630    1.000
    H219     H        0.34610    0.25730    0.26530    1.000
    C395     C        0.29330    0.26780    0.25310    1.000
    C396     C        0.27650    0.29010    0.24970    1.000
    H220     H        0.28000    0.30280    0.23600    1.000
    Mo133    Mo       0.54167    0.31018    0.14321    1.000
    O353     O        0.56165    0.27567    0.14601    1.000
    O354     O        0.50694    0.33438    0.14072    1.000
    O355     O        0.53218    0.30196    0.18163    1.000
    O356     O        0.53637    0.30641    0.10442    1.000
    Mo134    Mo       0.50266    0.28274    0.19397    1.000
    Mo135    Mo       0.46915    0.31652    0.14269    1.000
    Zn45     Zn       0.55894    0.24482    0.17156    1.000
    O357     O        0.47512    0.25275    0.19123    1.000
    O358     O        0.47614    0.30800    0.17920    1.000
    O359     O        0.59094    0.24387    0.19521    1.000
    C397     C        0.61270    0.24070    0.18320    1.000
    C398     C        0.63580    0.23840    0.20220    1.000
    O360     O        0.61508    0.23974    0.15761    1.000
    C399     C        0.66030    0.23260    0.19170    1.000
    C400     C        0.63300    0.24370    0.22770    1.000
    H221     H        0.66160    0.22960    0.17300    1.000
    C401     C        0.68500    0.23090    0.20810    1.000
    C402     C        0.65640    0.24070    0.24650    1.000
    H222     H        0.61620    0.24950    0.23440    1.000
    H223     H        0.70190    0.22710    0.20040    1.000
    C403     C        0.68180    0.23510    0.23630    1.000
    H224     H        0.65390    0.24270    0.26530    1.000
    C404     C        0.70670    0.23220    0.25310    1.000
    C405     C        0.72350    0.20990    0.24970    1.000
    H225     H        0.72000    0.19720    0.23600    1.000
    Mo136    Mo       0.04167    0.81018    0.64321    1.000
    O361     O        0.06165    0.77567    0.64601    1.000
    O362     O        0.00694    0.83438    0.64072    1.000
    O363     O        0.03218    0.80196    0.68163    1.000
    O364     O        0.03637    0.80641    0.60442    1.000
    Mo137    Mo       0.00266    0.78274    0.69397    1.000
    Mo138    Mo       0.96915    0.81652    0.64269    1.000
    Zn46     Zn       0.05894    0.74482    0.67156    1.000
    O365     O        0.97512    0.75275    0.69123    1.000
    O366     O        0.97614    0.80800    0.67920    1.000
    O367     O        0.09094    0.74387    0.69521    1.000
    C406     C        0.11270    0.74070    0.68320    1.000
    C407     C        0.13580    0.73840    0.70220    1.000
    O368     O        0.11508    0.73974    0.65761    1.000
    C408     C        0.16030    0.73260    0.69170    1.000
    C409     C        0.13300    0.74370    0.72770    1.000
    H226     H        0.16160    0.72960    0.67300    1.000
    C410     C        0.18500    0.73090    0.70810    1.000
    C411     C        0.15640    0.74070    0.74650    1.000
    H227     H        0.11620    0.74950    0.73440    1.000
    H228     H        0.20190    0.72710    0.70040    1.000
    C412     C        0.18180    0.73510    0.73630    1.000
    H229     H        0.15390    0.74270    0.76530    1.000
    C413     C        0.20670    0.73220    0.75310    1.000
    C414     C        0.22350    0.70990    0.74970    1.000
    H230     H        0.22000    0.69720    0.73600    1.000
    Mo139    Mo       0.04167    0.18982    0.85679    1.000
    O369     O        0.06165    0.22433    0.85399    1.000
    O370     O        0.00694    0.16562    0.85928    1.000
    O371     O        0.03218    0.19804    0.81837    1.000
    O372     O        0.03637    0.19359    0.89558    1.000
    Mo140    Mo       0.00266    0.21726    0.80603    1.000
    Mo141    Mo       0.96915    0.18348    0.85731    1.000
    Zn47     Zn       0.05894    0.25518    0.82844    1.000
    O373     O        0.97512    0.24725    0.80877    1.000
    O374     O        0.97614    0.19200    0.82080    1.000
    O375     O        0.09094    0.25613    0.80479    1.000
    C415     C        0.11270    0.25930    0.81680    1.000
    C416     C        0.13580    0.26160    0.79780    1.000
    O376     O        0.11508    0.26026    0.84239    1.000
    C417     C        0.16030    0.26740    0.80830    1.000
    C418     C        0.13300    0.25630    0.77230    1.000
    H231     H        0.16160    0.27040    0.82700    1.000
    C419     C        0.18500    0.26910    0.79190    1.000
    C420     C        0.15640    0.25930    0.75350    1.000
    H232     H        0.11620    0.25050    0.76560    1.000
    H233     H        0.20190    0.27290    0.79960    1.000
    C421     C        0.18180    0.26490    0.76370    1.000
    H234     H        0.15390    0.25730    0.73470    1.000
    C422     C        0.20670    0.26780    0.74690    1.000
    C423     C        0.22350    0.29010    0.75030    1.000
    H235     H        0.22000    0.30280    0.76400    1.000
    Mo142    Mo       0.54167    0.68982    0.35679    1.000
    O377     O        0.56165    0.72433    0.35399    1.000
    O378     O        0.50694    0.66562    0.35928    1.000
    O379     O        0.53218    0.69804    0.31837    1.000
    O380     O        0.53637    0.69359    0.39558    1.000
    Mo143    Mo       0.50266    0.71726    0.30603    1.000
    Mo144    Mo       0.46915    0.68348    0.35731    1.000
    Zn48     Zn       0.55894    0.75518    0.32844    1.000
    O381     O        0.47512    0.74725    0.30877    1.000
    O382     O        0.47614    0.69200    0.32080    1.000
    O383     O        0.59094    0.75613    0.30479    1.000
    C424     C        0.61270    0.75930    0.31680    1.000
    C425     C        0.63580    0.76160    0.29780    1.000
    O384     O        0.61508    0.76026    0.34239    1.000
    C426     C        0.66030    0.76740    0.30830    1.000
    C427     C        0.63300    0.75630    0.27230    1.000
    H236     H        0.66160    0.77040    0.32700    1.000
    C428     C        0.68500    0.76910    0.29190    1.000
    C429     C        0.65640    0.75930    0.25350    1.000
    H237     H        0.61620    0.75050    0.26560    1.000
    H238     H        0.70190    0.77290    0.29960    1.000
    C430     C        0.68180    0.76490    0.26370    1.000
    H239     H        0.65390    0.75730    0.23470    1.000
    C431     C        0.70670    0.76780    0.24690    1.000
    C432     C        0.72350    0.79010    0.25030    1.000
    H240     H        0.72000    0.80280    0.26400    1.000
    Mo145    Mo       0.68982    0.85679    0.45833    1.000
    O385     O        0.72433    0.85399    0.43835    1.000
    O386     O        0.66562    0.85928    0.49306    1.000
    O387     O        0.69804    0.81837    0.46782    1.000
    O388     O        0.69359    0.89558    0.46363    1.000
    Mo146    Mo       0.71726    0.80603    0.49734    1.000
    Mo147    Mo       0.68348    0.85731    0.53085    1.000
    Zn49     Zn       0.75518    0.82844    0.44106    1.000
    O389     O        0.74725    0.80877    0.52488    1.000
    O390     O        0.69200    0.82080    0.52386    1.000
    O391     O        0.75613    0.80479    0.40906    1.000
    C433     C        0.75930    0.81680    0.38730    1.000
    C434     C        0.76160    0.79780    0.36420    1.000
    O392     O        0.76026    0.84239    0.38492    1.000
    C435     C        0.76740    0.80830    0.33970    1.000
    C436     C        0.75630    0.77230    0.36700    1.000
    H241     H        0.77040    0.82700    0.33840    1.000
    C437     C        0.76910    0.79190    0.31500    1.000
    C438     C        0.75930    0.75350    0.34360    1.000
    H242     H        0.75050    0.76560    0.38380    1.000
    H243     H        0.77290    0.79960    0.29810    1.000
    C439     C        0.76490    0.76370    0.31820    1.000
    H244     H        0.75730    0.73470    0.34610    1.000
    C440     C        0.76780    0.74690    0.29330    1.000
    C441     C        0.79010    0.75030    0.27650    1.000
    H245     H        0.80280    0.76400    0.28000    1.000
    Mo148    Mo       0.18982    0.35679    0.95833    1.000
    O393     O        0.22433    0.35399    0.93835    1.000
    O394     O        0.16562    0.35928    0.99306    1.000
    O395     O        0.19804    0.31837    0.96782    1.000
    O396     O        0.19359    0.39558    0.96363    1.000
    Mo149    Mo       0.21726    0.30603    0.99734    1.000
    Mo150    Mo       0.18348    0.35731    0.03085    1.000
    Zn50     Zn       0.25518    0.32844    0.94106    1.000
    O397     O        0.24725    0.30877    0.02488    1.000
    O398     O        0.19200    0.32080    0.02386    1.000
    O399     O        0.25613    0.30479    0.90906    1.000
    C442     C        0.25930    0.31680    0.88730    1.000
    C443     C        0.26160    0.29780    0.86420    1.000
    O400     O        0.26026    0.34239    0.88492    1.000
    C444     C        0.26740    0.30830    0.83970    1.000
    C445     C        0.25630    0.27230    0.86700    1.000
    H246     H        0.27040    0.32700    0.83840    1.000
    C446     C        0.26910    0.29190    0.81500    1.000
    C447     C        0.25930    0.25350    0.84360    1.000
    H247     H        0.25050    0.26560    0.88380    1.000
    H248     H        0.27290    0.29960    0.79810    1.000
    C448     C        0.26490    0.26370    0.81820    1.000
    H249     H        0.25730    0.23470    0.84610    1.000
    C449     C        0.26780    0.24690    0.79330    1.000
    C450     C        0.29010    0.25030    0.77650    1.000
    H250     H        0.30280    0.26400    0.78000    1.000
    Mo151    Mo       0.81018    0.14321    0.95833    1.000
    O401     O        0.77567    0.14601    0.93835    1.000
    O402     O        0.83438    0.14072    0.99306    1.000
    O403     O        0.80196    0.18163    0.96782    1.000
    O404     O        0.80641    0.10442    0.96363    1.000
    Mo152    Mo       0.78274    0.19397    0.99734    1.000
    Mo153    Mo       0.81652    0.14269    0.03085    1.000
    Zn51     Zn       0.74482    0.17156    0.94106    1.000
    O405     O        0.75275    0.19123    0.02488    1.000
    O406     O        0.80800    0.17920    0.02386    1.000
    O407     O        0.74387    0.19521    0.90906    1.000
    C451     C        0.74070    0.18320    0.88730    1.000
    C452     C        0.73840    0.20220    0.86420    1.000
    O408     O        0.73974    0.15761    0.88492    1.000
    C453     C        0.73260    0.19170    0.83970    1.000
    C454     C        0.74370    0.22770    0.86700    1.000
    H251     H        0.72960    0.17300    0.83840    1.000
    C455     C        0.73090    0.20810    0.81500    1.000
    C456     C        0.74070    0.24650    0.84360    1.000
    H252     H        0.74950    0.23440    0.88380    1.000
    H253     H        0.72710    0.20040    0.79810    1.000
    C457     C        0.73510    0.23630    0.81820    1.000
    H254     H        0.74270    0.26530    0.84610    1.000
    C458     C        0.73220    0.25310    0.79330    1.000
    C459     C        0.70990    0.24970    0.77650    1.000
    H255     H        0.69720    0.23600    0.78000    1.000
    Mo154    Mo       0.31018    0.64321    0.45833    1.000
    O409     O        0.27567    0.64601    0.43835    1.000
    O410     O        0.33438    0.64072    0.49306    1.000
    O411     O        0.30196    0.68163    0.46782    1.000
    O412     O        0.30641    0.60442    0.46363    1.000
    Mo155    Mo       0.28274    0.69397    0.49734    1.000
    Mo156    Mo       0.31652    0.64269    0.53085    1.000
    Zn52     Zn       0.24482    0.67156    0.44106    1.000
    O413     O        0.25275    0.69123    0.52488    1.000
    O414     O        0.30800    0.67920    0.52386    1.000
    O415     O        0.24387    0.69521    0.40906    1.000
    C460     C        0.24070    0.68320    0.38730    1.000
    C461     C        0.23840    0.70220    0.36420    1.000
    O416     O        0.23974    0.65761    0.38492    1.000
    C462     C        0.23260    0.69170    0.33970    1.000
    C463     C        0.24370    0.72770    0.36700    1.000
    H256     H        0.22960    0.67300    0.33840    1.000
    C464     C        0.23090    0.70810    0.31500    1.000
    C465     C        0.24070    0.74650    0.34360    1.000
    H257     H        0.24950    0.73440    0.38380    1.000
    H258     H        0.22710    0.70040    0.29810    1.000
    C466     C        0.23510    0.73630    0.31820    1.000
    H259     H        0.24270    0.76530    0.34610    1.000
    C467     C        0.23220    0.75310    0.29330    1.000
    C468     C        0.20990    0.74970    0.27650    1.000
    H260     H        0.19720    0.73600    0.28000    1.000
    Mo157    Mo       0.18982    0.64321    0.54167    1.000
    O417     O        0.22433    0.64601    0.56165    1.000
    O418     O        0.16562    0.64072    0.50694    1.000
    O419     O        0.19804    0.68163    0.53218    1.000
    O420     O        0.19359    0.60442    0.53637    1.000
    Mo158    Mo       0.21726    0.69397    0.50266    1.000
    Mo159    Mo       0.18348    0.64269    0.46915    1.000
    Zn53     Zn       0.25518    0.67156    0.55894    1.000
    O421     O        0.24725    0.69123    0.47512    1.000
    O422     O        0.19200    0.67920    0.47614    1.000
    O423     O        0.25613    0.69521    0.59094    1.000
    C469     C        0.25930    0.68320    0.61270    1.000
    C470     C        0.26160    0.70220    0.63580    1.000
    O424     O        0.26026    0.65761    0.61508    1.000
    C471     C        0.26740    0.69170    0.66030    1.000
    C472     C        0.25630    0.72770    0.63300    1.000
    H261     H        0.27040    0.67300    0.66160    1.000
    C473     C        0.26910    0.70810    0.68500    1.000
    C474     C        0.25930    0.74650    0.65640    1.000
    H262     H        0.25050    0.73440    0.61620    1.000
    H263     H        0.27290    0.70040    0.70190    1.000
    C475     C        0.26490    0.73630    0.68180    1.000
    H264     H        0.25730    0.76530    0.65390    1.000
    C476     C        0.26780    0.75310    0.70670    1.000
    C477     C        0.29010    0.74970    0.72350    1.000
    H265     H        0.30280    0.73600    0.72000    1.000
    Mo160    Mo       0.68982    0.14321    0.04167    1.000
    O425     O        0.72433    0.14601    0.06165    1.000
    O426     O        0.66562    0.14072    0.00694    1.000
    O427     O        0.69804    0.18163    0.03218    1.000
    O428     O        0.69359    0.10442    0.03637    1.000
    Mo161    Mo       0.71726    0.19397    0.00266    1.000
    Mo162    Mo       0.68348    0.14269    0.96915    1.000
    Zn54     Zn       0.75518    0.17156    0.05894    1.000
    O429     O        0.74725    0.19123    0.97512    1.000
    O430     O        0.69200    0.17920    0.97614    1.000
    O431     O        0.75613    0.19521    0.09094    1.000
    C478     C        0.75930    0.18320    0.11270    1.000
    C479     C        0.76160    0.20220    0.13580    1.000
    O432     O        0.76026    0.15761    0.11508    1.000
    C480     C        0.76740    0.19170    0.16030    1.000
    C481     C        0.75630    0.22770    0.13300    1.000
    H266     H        0.77040    0.17300    0.16160    1.000
    C482     C        0.76910    0.20810    0.18500    1.000
    C483     C        0.75930    0.24650    0.15640    1.000
    H267     H        0.75050    0.23440    0.11620    1.000
    H268     H        0.77290    0.20040    0.20190    1.000
    C484     C        0.76490    0.23630    0.18180    1.000
    H269     H        0.75730    0.26530    0.15390    1.000
    C485     C        0.76780    0.25310    0.20670    1.000
    C486     C        0.79010    0.24970    0.22350    1.000
    H270     H        0.80280    0.23600    0.22000    1.000
    Mo163    Mo       0.31018    0.35679    0.04167    1.000
    O433     O        0.27567    0.35399    0.06165    1.000
    O434     O        0.33438    0.35928    0.00694    1.000
    O435     O        0.30196    0.31837    0.03218    1.000
    O436     O        0.30641    0.39558    0.03637    1.000
    Mo164    Mo       0.28274    0.30603    0.00266    1.000
    Mo165    Mo       0.31652    0.35731    0.96915    1.000
    Zn55     Zn       0.24482    0.32844    0.05894    1.000
    O437     O        0.25275    0.30877    0.97512    1.000
    O438     O        0.30800    0.32080    0.97614    1.000
    O439     O        0.24387    0.30479    0.09094    1.000
    C487     C        0.24070    0.31680    0.11270    1.000
    C488     C        0.23840    0.29780    0.13580    1.000
    O440     O        0.23974    0.34239    0.11508    1.000
    C489     C        0.23260    0.30830    0.16030    1.000
    C490     C        0.24370    0.27230    0.13300    1.000
    H271     H        0.22960    0.32700    0.16160    1.000
    C491     C        0.23090    0.29190    0.18500    1.000
    C492     C        0.24070    0.25350    0.15640    1.000
    H272     H        0.24950    0.26560    0.11620    1.000
    H273     H        0.22710    0.29960    0.20190    1.000
    C493     C        0.23510    0.26370    0.18180    1.000
    H274     H        0.24270    0.23470    0.15390    1.000
    C494     C        0.23220    0.24690    0.20670    1.000
    C495     C        0.20990    0.25030    0.22350    1.000
    H275     H        0.19720    0.26400    0.22000    1.000
    Mo166    Mo       0.81018    0.85679    0.54167    1.000
    O441     O        0.77567    0.85399    0.56165    1.000
    O442     O        0.83438    0.85928    0.50694    1.000
    O443     O        0.80196    0.81837    0.53218    1.000
    O444     O        0.80641    0.89558    0.53637    1.000
    Mo167    Mo       0.78274    0.80603    0.50266    1.000
    Mo168    Mo       0.81652    0.85731    0.46915    1.000
    Zn56     Zn       0.74482    0.82844    0.55894    1.000
    O445     O        0.75275    0.80877    0.47512    1.000
    O446     O        0.80800    0.82080    0.47614    1.000
    O447     O        0.74387    0.80479    0.59094    1.000
    C496     C        0.74070    0.81680    0.61270    1.000
    C497     C        0.73840    0.79780    0.63580    1.000
    O448     O        0.73974    0.84239    0.61508    1.000
    C498     C        0.73260    0.80830    0.66030    1.000
    C499     C        0.74370    0.77230    0.63300    1.000
    H276     H        0.72960    0.82700    0.66160    1.000
    C500     C        0.73090    0.79190    0.68500    1.000
    C501     C        0.74070    0.75350    0.65640    1.000
    H277     H        0.74950    0.76560    0.61620    1.000
    H278     H        0.72710    0.79960    0.70190    1.000
    C502     C        0.73510    0.76370    0.68180    1.000
    H279     H        0.74270    0.73470    0.65390    1.000
    C503     C        0.73220    0.74690    0.70670    1.000
    C504     C        0.70990    0.75030    0.72350    1.000
    H280     H        0.69720    0.76400    0.72000    1.000
    Mo169    Mo       0.35679    0.04167    0.31018    1.000
    O449     O        0.35399    0.06165    0.27567    1.000
    O450     O        0.35928    0.00694    0.33438    1.000
    O451     O        0.31837    0.03218    0.30196    1.000
    O452     O        0.39558    0.03637    0.30641    1.000
    Mo170    Mo       0.30603    0.00266    0.28274    1.000
    Mo171    Mo       0.35731    0.96915    0.31652    1.000
    Zn57     Zn       0.32844    0.05894    0.24482    1.000
    O453     O        0.30877    0.97512    0.25275    1.000
    O454     O        0.32080    0.97614    0.30800    1.000
    O455     O        0.30479    0.09094    0.24387    1.000
    C505     C        0.31680    0.11270    0.24070    1.000
    C506     C        0.29780    0.13580    0.23840    1.000
    O456     O        0.34239    0.11508    0.23974    1.000
    C507     C        0.30830    0.16030    0.23260    1.000
    C508     C        0.27230    0.13300    0.24370    1.000
    H281     H        0.32700    0.16160    0.22960    1.000
    C509     C        0.29190    0.18500    0.23090    1.000
    C510     C        0.25350    0.15640    0.24070    1.000
    H282     H        0.26560    0.11620    0.24950    1.000
    H283     H        0.29960    0.20190    0.22710    1.000
    C511     C        0.26370    0.18180    0.23510    1.000
    H284     H        0.23470    0.15390    0.24270    1.000
    C512     C        0.24690    0.20670    0.23220    1.000
    C513     C        0.25030    0.22350    0.20990    1.000
    H285     H        0.26400    0.22000    0.19720    1.000
    Mo172    Mo       0.85679    0.54167    0.81018    1.000
    O457     O        0.85399    0.56165    0.77567    1.000
    O458     O        0.85928    0.50694    0.83438    1.000
    O459     O        0.81837    0.53218    0.80196    1.000
    O460     O        0.89558    0.53637    0.80641    1.000
    Mo173    Mo       0.80603    0.50266    0.78274    1.000
    Mo174    Mo       0.85731    0.46915    0.81652    1.000
    Zn58     Zn       0.82844    0.55894    0.74482    1.000
    O461     O        0.80877    0.47512    0.75275    1.000
    O462     O        0.82080    0.47614    0.80800    1.000
    O463     O        0.80479    0.59094    0.74387    1.000
    C514     C        0.81680    0.61270    0.74070    1.000
    C515     C        0.79780    0.63580    0.73840    1.000
    O464     O        0.84239    0.61508    0.73974    1.000
    C516     C        0.80830    0.66030    0.73260    1.000
    C517     C        0.77230    0.63300    0.74370    1.000
    H286     H        0.82700    0.66160    0.72960    1.000
    C518     C        0.79190    0.68500    0.73090    1.000
    C519     C        0.75350    0.65640    0.74070    1.000
    H287     H        0.76560    0.61620    0.74950    1.000
    H288     H        0.79960    0.70190    0.72710    1.000
    C520     C        0.76370    0.68180    0.73510    1.000
    H289     H        0.73470    0.65390    0.74270    1.000
    C521     C        0.74690    0.70670    0.73220    1.000
    C522     C        0.75030    0.72350    0.70990    1.000
    H290     H        0.76400    0.72000    0.69720    1.000
    Mo175    Mo       0.64321    0.54167    0.18982    1.000
    O465     O        0.64601    0.56165    0.22433    1.000
    O466     O        0.64072    0.50694    0.16562    1.000
    O467     O        0.68163    0.53218    0.19804    1.000
    O468     O        0.60442    0.53637    0.19359    1.000
    Mo176    Mo       0.69397    0.50266    0.21726    1.000
    Mo177    Mo       0.64269    0.46915    0.18348    1.000
    Zn59     Zn       0.67156    0.55894    0.25518    1.000
    O469     O        0.69123    0.47512    0.24725    1.000
    O470     O        0.67920    0.47614    0.19200    1.000
    O471     O        0.69521    0.59094    0.25613    1.000
    C523     C        0.68320    0.61270    0.25930    1.000
    C524     C        0.70220    0.63580    0.26160    1.000
    O472     O        0.65761    0.61508    0.26026    1.000
    C525     C        0.69170    0.66030    0.26740    1.000
    C526     C        0.72770    0.63300    0.25630    1.000
    H291     H        0.67300    0.66160    0.27040    1.000
    C527     C        0.70810    0.68500    0.26910    1.000
    C528     C        0.74650    0.65640    0.25930    1.000
    H292     H        0.73440    0.61620    0.25050    1.000
    H293     H        0.70040    0.70190    0.27290    1.000
    C529     C        0.73630    0.68180    0.26490    1.000
    H294     H        0.76530    0.65390    0.25730    1.000
    C530     C        0.75310    0.70670    0.26780    1.000
    C531     C        0.74970    0.72350    0.29010    1.000
    H295     H        0.73600    0.72000    0.30280    1.000
    Mo178    Mo       0.14321    0.04167    0.68982    1.000
    O473     O        0.14601    0.06165    0.72433    1.000
    O474     O        0.14072    0.00694    0.66562    1.000
    O475     O        0.18163    0.03218    0.69804    1.000
    O476     O        0.10442    0.03637    0.69359    1.000
    Mo179    Mo       0.19397    0.00266    0.71726    1.000
    Mo180    Mo       0.14269    0.96915    0.68348    1.000
    Zn60     Zn       0.17156    0.05894    0.75518    1.000
    O477     O        0.19123    0.97512    0.74725    1.000
    O478     O        0.17920    0.97614    0.69200    1.000
    O479     O        0.19521    0.09094    0.75613    1.000
    C532     C        0.18320    0.11270    0.75930    1.000
    C533     C        0.20220    0.13580    0.76160    1.000
    O480     O        0.15761    0.11508    0.76026    1.000
    C534     C        0.19170    0.16030    0.76740    1.000
    C535     C        0.22770    0.13300    0.75630    1.000
    H296     H        0.17300    0.16160    0.77040    1.000
    C536     C        0.20810    0.18500    0.76910    1.000
    C537     C        0.24650    0.15640    0.75930    1.000
    H297     H        0.23440    0.11620    0.75050    1.000
    H298     H        0.20040    0.20190    0.77290    1.000
    C538     C        0.23630    0.18180    0.76490    1.000
    H299     H        0.26530    0.15390    0.75730    1.000
    C539     C        0.25310    0.20670    0.76780    1.000
    C540     C        0.24970    0.22350    0.79010    1.000
    H300     H        0.23600    0.22000    0.80280    1.000
    Mo181    Mo       0.14321    0.95833    0.81018    1.000
    O481     O        0.14601    0.93835    0.77567    1.000
    O482     O        0.14072    0.99306    0.83438    1.000
    O483     O        0.18163    0.96782    0.80196    1.000
    O484     O        0.10442    0.96363    0.80641    1.000
    Mo182    Mo       0.19397    0.99734    0.78274    1.000
    Mo183    Mo       0.14269    0.03085    0.81652    1.000
    Zn61     Zn       0.17156    0.94106    0.74482    1.000
    O485     O        0.19123    0.02488    0.75275    1.000
    O486     O        0.17920    0.02386    0.80800    1.000
    O487     O        0.19521    0.90906    0.74387    1.000
    C541     C        0.18320    0.88730    0.74070    1.000
    C542     C        0.20220    0.86420    0.73840    1.000
    O488     O        0.15761    0.88492    0.73974    1.000
    C543     C        0.19170    0.83970    0.73260    1.000
    C544     C        0.22770    0.86700    0.74370    1.000
    H301     H        0.17300    0.83840    0.72960    1.000
    C545     C        0.20810    0.81500    0.73090    1.000
    C546     C        0.24650    0.84360    0.74070    1.000
    H302     H        0.23440    0.88380    0.74950    1.000
    H303     H        0.20040    0.79810    0.72710    1.000
    C547     C        0.23630    0.81820    0.73510    1.000
    H304     H        0.26530    0.84610    0.74270    1.000
    C548     C        0.25310    0.79330    0.73220    1.000
    C549     C        0.24970    0.77650    0.70990    1.000
    H305     H        0.23600    0.78000    0.69720    1.000
    Mo184    Mo       0.64321    0.45833    0.31018    1.000
    O489     O        0.64601    0.43835    0.27567    1.000
    O490     O        0.64072    0.49306    0.33438    1.000
    O491     O        0.68163    0.46782    0.30196    1.000
    O492     O        0.60442    0.46363    0.30641    1.000
    Mo185    Mo       0.69397    0.49734    0.28274    1.000
    Mo186    Mo       0.64269    0.53085    0.31652    1.000
    Zn62     Zn       0.67156    0.44106    0.24482    1.000
    O493     O        0.69123    0.52488    0.25275    1.000
    O494     O        0.67920    0.52386    0.30800    1.000
    O495     O        0.69521    0.40906    0.24387    1.000
    C550     C        0.68320    0.38730    0.24070    1.000
    C551     C        0.70220    0.36420    0.23840    1.000
    O496     O        0.65761    0.38492    0.23974    1.000
    C552     C        0.69170    0.33970    0.23260    1.000
    C553     C        0.72770    0.36700    0.24370    1.000
    H306     H        0.67300    0.33840    0.22960    1.000
    C554     C        0.70810    0.31500    0.23090    1.000
    C555     C        0.74650    0.34360    0.24070    1.000
    H307     H        0.73440    0.38380    0.24950    1.000
    H308     H        0.70040    0.29810    0.22710    1.000
    C556     C        0.73630    0.31820    0.23510    1.000
    H309     H        0.76530    0.34610    0.24270    1.000
    C557     C        0.75310    0.29330    0.23220    1.000
    C558     C        0.74970    0.27650    0.20990    1.000
    H310     H        0.73600    0.28000    0.19720    1.000
    Mo187    Mo       0.85679    0.45833    0.68982    1.000
    O497     O        0.85399    0.43835    0.72433    1.000
    O498     O        0.85928    0.49306    0.66562    1.000
    O499     O        0.81837    0.46782    0.69804    1.000
    O500     O        0.89558    0.46363    0.69359    1.000
    Mo188    Mo       0.80603    0.49734    0.71726    1.000
    Mo189    Mo       0.85731    0.53085    0.68348    1.000
    Zn63     Zn       0.82844    0.44106    0.75518    1.000
    O501     O        0.80877    0.52488    0.74725    1.000
    O502     O        0.82080    0.52386    0.69200    1.000
    O503     O        0.80479    0.40906    0.75613    1.000
    C559     C        0.81680    0.38730    0.75930    1.000
    C560     C        0.79780    0.36420    0.76160    1.000
    O504     O        0.84239    0.38492    0.76026    1.000
    C561     C        0.80830    0.33970    0.76740    1.000
    C562     C        0.77230    0.36700    0.75630    1.000
    H311     H        0.82700    0.33840    0.77040    1.000
    C563     C        0.79190    0.31500    0.76910    1.000
    C564     C        0.75350    0.34360    0.75930    1.000
    H312     H        0.76560    0.38380    0.75050    1.000
    H313     H        0.79960    0.29810    0.77290    1.000
    C565     C        0.76370    0.31820    0.76490    1.000
    H314     H        0.73470    0.34610    0.75730    1.000
    C566     C        0.74690    0.29330    0.76780    1.000
    C567     C        0.75030    0.27650    0.79010    1.000
    H315     H        0.76400    0.28000    0.80280    1.000
    Mo190    Mo       0.35679    0.95833    0.18982    1.000
    O505     O        0.35399    0.93835    0.22433    1.000
    O506     O        0.35928    0.99306    0.16562    1.000
    O507     O        0.31837    0.96782    0.19804    1.000
    O508     O        0.39558    0.96363    0.19359    1.000
    Mo191    Mo       0.30603    0.99734    0.21726    1.000
    Mo192    Mo       0.35731    0.03085    0.18348    1.000
    Zn64     Zn       0.32844    0.94106    0.25518    1.000
    O509     O        0.30877    0.02488    0.24725    1.000
    O510     O        0.32080    0.02386    0.19200    1.000
    O511     O        0.30479    0.90906    0.25613    1.000
    C568     C        0.31680    0.88730    0.25930    1.000
    C569     C        0.29780    0.86420    0.26160    1.000
    O512     O        0.34239    0.88492    0.26026    1.000
    C570     C        0.30830    0.83970    0.26740    1.000
    C571     C        0.27230    0.86700    0.25630    1.000
    H316     H        0.32700    0.83840    0.27040    1.000
    C572     C        0.29190    0.81500    0.26910    1.000
    C573     C        0.25350    0.84360    0.25930    1.000
    H317     H        0.26560    0.88380    0.25050    1.000
    H318     H        0.29960    0.79810    0.27290    1.000
    C574     C        0.26370    0.81820    0.26490    1.000
    H319     H        0.23470    0.84610    0.25730    1.000
    C575     C        0.24690    0.79330    0.26780    1.000
    C576     C        0.25030    0.77650    0.29010    1.000
    H320     H        0.26400    0.78000    0.30280    1.000
    Mo193    Mo       0.54167    0.18982    0.64321    1.000
    O513     O        0.56165    0.22433    0.64601    1.000
    O514     O        0.50694    0.16562    0.64072    1.000
    O515     O        0.53218    0.19804    0.68163    1.000
    O516     O        0.53637    0.19359    0.60442    1.000
    Mo194    Mo       0.50266    0.21726    0.69397    1.000
    Mo195    Mo       0.46915    0.18348    0.64269    1.000
    Zn65     Zn       0.55894    0.25518    0.67156    1.000
    O517     O        0.47512    0.24725    0.69123    1.000
    O518     O        0.47614    0.19200    0.67920    1.000
    O519     O        0.59094    0.25613    0.69521    1.000
    C577     C        0.61270    0.25930    0.68320    1.000
    C578     C        0.63580    0.26160    0.70220    1.000
    O520     O        0.61508    0.26026    0.65761    1.000
    C579     C        0.66030    0.26740    0.69170    1.000
    C580     C        0.63300    0.25630    0.72770    1.000
    H321     H        0.66160    0.27040    0.67300    1.000
    C581     C        0.68500    0.26910    0.70810    1.000
    C582     C        0.65640    0.25930    0.74650    1.000
    H322     H        0.61620    0.25050    0.73440    1.000
    H323     H        0.70190    0.27290    0.70040    1.000
    C583     C        0.68180    0.26490    0.73630    1.000
    H324     H        0.65390    0.25730    0.76530    1.000
    C584     C        0.70670    0.26780    0.75310    1.000
    C585     C        0.72350    0.29010    0.74970    1.000
    H325     H        0.72000    0.30280    0.73600    1.000
    Mo196    Mo       0.04167    0.68982    0.14321    1.000
    O521     O        0.06165    0.72433    0.14601    1.000
    O522     O        0.00694    0.66562    0.14072    1.000
    O523     O        0.03218    0.69804    0.18163    1.000
    O524     O        0.03637    0.69359    0.10442    1.000
    Mo197    Mo       0.00266    0.71726    0.19397    1.000
    Mo198    Mo       0.96915    0.68348    0.14269    1.000
    Zn66     Zn       0.05894    0.75518    0.17156    1.000
    O525     O        0.97512    0.74725    0.19123    1.000
    O526     O        0.97614    0.69200    0.17920    1.000
    O527     O        0.09094    0.75613    0.19521    1.000
    C586     C        0.11270    0.75930    0.18320    1.000
    C587     C        0.13580    0.76160    0.20220    1.000
    O528     O        0.11508    0.76026    0.15761    1.000
    C588     C        0.16030    0.76740    0.19170    1.000
    C589     C        0.13300    0.75630    0.22770    1.000
    H326     H        0.16160    0.77040    0.17300    1.000
    C590     C        0.18500    0.76910    0.20810    1.000
    C591     C        0.15640    0.75930    0.24650    1.000
    H327     H        0.11620    0.75050    0.23440    1.000
    H328     H        0.20190    0.77290    0.20040    1.000
    C592     C        0.18180    0.76490    0.23630    1.000
    H329     H        0.15390    0.75730    0.26530    1.000
    C593     C        0.20670    0.76780    0.25310    1.000
    C594     C        0.22350    0.79010    0.24970    1.000
    H330     H        0.22000    0.80280    0.23600    1.000
    Mo199    Mo       0.04167    0.31018    0.35679    1.000
    O529     O        0.06165    0.27567    0.35399    1.000
    O530     O        0.00694    0.33438    0.35928    1.000
    O531     O        0.03218    0.30196    0.31837    1.000
    O532     O        0.03637    0.30641    0.39558    1.000
    Mo200    Mo       0.00266    0.28274    0.30603    1.000
    Mo201    Mo       0.96915    0.31652    0.35731    1.000
    Zn67     Zn       0.05894    0.24482    0.32844    1.000
    O533     O        0.97512    0.25275    0.30877    1.000
    O534     O        0.97614    0.30800    0.32080    1.000
    O535     O        0.09094    0.24387    0.30479    1.000
    C595     C        0.11270    0.24070    0.31680    1.000
    C596     C        0.13580    0.23840    0.29780    1.000
    O536     O        0.11508    0.23974    0.34239    1.000
    C597     C        0.16030    0.23260    0.30830    1.000
    C598     C        0.13300    0.24370    0.27230    1.000
    H331     H        0.16160    0.22960    0.32700    1.000
    C599     C        0.18500    0.23090    0.29190    1.000
    C600     C        0.15640    0.24070    0.25350    1.000
    H332     H        0.11620    0.24950    0.26560    1.000
    H333     H        0.20190    0.22710    0.29960    1.000
    C601     C        0.18180    0.23510    0.26370    1.000
    H334     H        0.15390    0.24270    0.23470    1.000
    C602     C        0.20670    0.23220    0.24690    1.000
    C603     C        0.22350    0.20990    0.25030    1.000
    H335     H        0.22000    0.19720    0.26400    1.000
    Mo202    Mo       0.54167    0.81018    0.85679    1.000
    O537     O        0.56165    0.77567    0.85399    1.000
    O538     O        0.50694    0.83438    0.85928    1.000
    O539     O        0.53218    0.80196    0.81837    1.000
    O540     O        0.53637    0.80641    0.89558    1.000
    Mo203    Mo       0.50266    0.78274    0.80603    1.000
    Mo204    Mo       0.46915    0.81652    0.85731    1.000
    Zn68     Zn       0.55894    0.74482    0.82844    1.000
    O541     O        0.47512    0.75275    0.80877    1.000
    O542     O        0.47614    0.80800    0.82080    1.000
    O543     O        0.59094    0.74387    0.80479    1.000
    C604     C        0.61270    0.74070    0.81680    1.000
    C605     C        0.63580    0.73840    0.79780    1.000
    O544     O        0.61508    0.73974    0.84239    1.000
    C606     C        0.66030    0.73260    0.80830    1.000
    C607     C        0.63300    0.74370    0.77230    1.000
    H336     H        0.66160    0.72960    0.82700    1.000
    C608     C        0.68500    0.73090    0.79190    1.000
    C609     C        0.65640    0.74070    0.75350    1.000
    H337     H        0.61620    0.74950    0.76560    1.000
    H338     H        0.70190    0.72710    0.79960    1.000
    C610     C        0.68180    0.73510    0.76370    1.000
    H339     H        0.65390    0.74270    0.73470    1.000
    C611     C        0.70670    0.73220    0.74690    1.000
    C612     C        0.72350    0.70990    0.75030    1.000
    H340     H        0.72000    0.69720    0.76400    1.000
    Mo205    Mo       0.45833    0.68982    0.85679    1.000
    O545     O        0.43835    0.72433    0.85399    1.000
    O546     O        0.49306    0.66562    0.85928    1.000
    O547     O        0.46782    0.69804    0.81837    1.000
    O548     O        0.46363    0.69359    0.89558    1.000
    Mo206    Mo       0.49734    0.71726    0.80603    1.000
    Mo207    Mo       0.53085    0.68348    0.85731    1.000
    Zn69     Zn       0.44106    0.75518    0.82844    1.000
    O549     O        0.52488    0.74725    0.80877    1.000
    O550     O        0.52386    0.69200    0.82080    1.000
    O551     O        0.40906    0.75613    0.80479    1.000
    C613     C        0.38730    0.75930    0.81680    1.000
    C614     C        0.36420    0.76160    0.79780    1.000
    O552     O        0.38492    0.76026    0.84239    1.000
    C615     C        0.33970    0.76740    0.80830    1.000
    C616     C        0.36700    0.75630    0.77230    1.000
    H341     H        0.33840    0.77040    0.82700    1.000
    C617     C        0.31500    0.76910    0.79190    1.000
    C618     C        0.34360    0.75930    0.75350    1.000
    H342     H        0.38380    0.75050    0.76560    1.000
    H343     H        0.29810    0.77290    0.79960    1.000
    C619     C        0.31820    0.76490    0.76370    1.000
    H344     H        0.34610    0.75730    0.73470    1.000
    C620     C        0.29330    0.76780    0.74690    1.000
    C621     C        0.27650    0.79010    0.75030    1.000
    H345     H        0.28000    0.80280    0.76400    1.000
    Mo208    Mo       0.95833    0.18982    0.35679    1.000
    O553     O        0.93835    0.22433    0.35399    1.000
    O554     O        0.99306    0.16562    0.35928    1.000
    O555     O        0.96782    0.19804    0.31837    1.000
    O556     O        0.96363    0.19359    0.39558    1.000
    Mo209    Mo       0.99734    0.21726    0.30603    1.000
    Mo210    Mo       0.03085    0.18348    0.35731    1.000
    Zn70     Zn       0.94106    0.25518    0.32844    1.000
    O557     O        0.02488    0.24725    0.30877    1.000
    O558     O        0.02386    0.19200    0.32080    1.000
    O559     O        0.90906    0.25613    0.30479    1.000
    C622     C        0.88730    0.25930    0.31680    1.000
    C623     C        0.86420    0.26160    0.29780    1.000
    O560     O        0.88492    0.26026    0.34239    1.000
    C624     C        0.83970    0.26740    0.30830    1.000
    C625     C        0.86700    0.25630    0.27230    1.000
    H346     H        0.83840    0.27040    0.32700    1.000
    C626     C        0.81500    0.26910    0.29190    1.000
    C627     C        0.84360    0.25930    0.25350    1.000
    H347     H        0.88380    0.25050    0.26560    1.000
    H348     H        0.79810    0.27290    0.29960    1.000
    C628     C        0.81820    0.26490    0.26370    1.000
    H349     H        0.84610    0.25730    0.23470    1.000
    C629     C        0.79330    0.26780    0.24690    1.000
    C630     C        0.77650    0.29010    0.25030    1.000
    H350     H        0.78000    0.30280    0.26400    1.000
    Mo211    Mo       0.95833    0.81018    0.14321    1.000
    O561     O        0.93835    0.77567    0.14601    1.000
    O562     O        0.99306    0.83438    0.14072    1.000
    O563     O        0.96782    0.80196    0.18163    1.000
    O564     O        0.96363    0.80641    0.10442    1.000
    Mo212    Mo       0.99734    0.78274    0.19397    1.000
    Mo213    Mo       0.03085    0.81652    0.14269    1.000
    Zn71     Zn       0.94106    0.74482    0.17156    1.000
    O565     O        0.02488    0.75275    0.19123    1.000
    O566     O        0.02386    0.80800    0.17920    1.000
    O567     O        0.90906    0.74387    0.19521    1.000
    C631     C        0.88730    0.74070    0.18320    1.000
    C632     C        0.86420    0.73840    0.20220    1.000
    O568     O        0.88492    0.73974    0.15761    1.000
    C633     C        0.83970    0.73260    0.19170    1.000
    C634     C        0.86700    0.74370    0.22770    1.000
    H351     H        0.83840    0.72960    0.17300    1.000
    C635     C        0.81500    0.73090    0.20810    1.000
    C636     C        0.84360    0.74070    0.24650    1.000
    H352     H        0.88380    0.74950    0.23440    1.000
    H353     H        0.79810    0.72710    0.20040    1.000
    C637     C        0.81820    0.73510    0.23630    1.000
    H354     H        0.84610    0.74270    0.26530    1.000
    C638     C        0.79330    0.73220    0.25310    1.000
    C639     C        0.77650    0.70990    0.24970    1.000
    H355     H        0.78000    0.69720    0.23600    1.000
    Mo214    Mo       0.45833    0.31018    0.64321    1.000
    O569     O        0.43835    0.27567    0.64601    1.000
    O570     O        0.49306    0.33438    0.64072    1.000
    O571     O        0.46782    0.30196    0.68163    1.000
    O572     O        0.46363    0.30641    0.60442    1.000
    Mo215    Mo       0.49734    0.28274    0.69397    1.000
    Mo216    Mo       0.53085    0.31652    0.64269    1.000
    Zn72     Zn       0.44106    0.24482    0.67156    1.000
    O573     O        0.52488    0.25275    0.69123    1.000
    O574     O        0.52386    0.30800    0.67920    1.000
    O575     O        0.40906    0.24387    0.69521    1.000
    C640     C        0.38730    0.24070    0.68320    1.000
    C641     C        0.36420    0.23840    0.70220    1.000
    O576     O        0.38492    0.23974    0.65761    1.000
    C642     C        0.33970    0.23260    0.69170    1.000
    C643     C        0.36700    0.24370    0.72770    1.000
    H356     H        0.33840    0.22960    0.67300    1.000
    C644     C        0.31500    0.23090    0.70810    1.000
    C645     C        0.34360    0.24070    0.74650    1.000
    H357     H        0.38380    0.24950    0.73440    1.000
    H358     H        0.29810    0.22710    0.70040    1.000
    C646     C        0.31820    0.23510    0.73630    1.000
    H359     H        0.34610    0.24270    0.76530    1.000
    C647     C        0.29330    0.23220    0.75310    1.000
    C648     C        0.27650    0.20990    0.74970    1.000
    H360     H        0.28000    0.19720    0.73600    1.000
    Mo217    Mo       0.39321    0.06018    0.20833    1.000
    O577     O        0.39601    0.02567    0.18835    1.000
    O578     O        0.39072    0.08438    0.24306    1.000
    O579     O        0.43163    0.05196    0.21782    1.000
    O580     O        0.35442    0.05641    0.21363    1.000
    Mo218    Mo       0.44397    0.03274    0.24734    1.000
    Mo219    Mo       0.39269    0.06652    0.28085    1.000
    Zn73     Zn       0.42156    0.99482    0.19106    1.000
    O581     O        0.44123    0.00275    0.27488    1.000
    O582     O        0.42920    0.05800    0.27386    1.000
    O583     O        0.44521    0.99387    0.15906    1.000
    C649     C        0.43320    0.99070    0.13730    1.000
    C650     C        0.45220    0.98840    0.11420    1.000
    O584     O        0.40761    0.98974    0.13492    1.000
    C651     C        0.44170    0.98260    0.08970    1.000
    C652     C        0.47770    0.99370    0.11700    1.000
    H361     H        0.42300    0.97960    0.08840    1.000
    C653     C        0.45810    0.98090    0.06500    1.000
    C654     C        0.49650    0.99070    0.09360    1.000
    H362     H        0.48440    0.99950    0.13380    1.000
    H363     H        0.45040    0.97710    0.04810    1.000
    C655     C        0.48630    0.98510    0.06820    1.000
    H364     H        0.51530    0.99270    0.09610    1.000
    C656     C        0.50310    0.98220    0.04330    1.000
    C657     C        0.49970    0.95990    0.02650    1.000
    H365     H        0.48600    0.94720    0.03000    1.000
    Mo220    Mo       0.89321    0.56018    0.70833    1.000
    O585     O        0.89601    0.52567    0.68835    1.000
    O586     O        0.89072    0.58438    0.74306    1.000
    O587     O        0.93163    0.55196    0.71782    1.000
    O588     O        0.85442    0.55641    0.71363    1.000
    Mo221    Mo       0.94397    0.53274    0.74734    1.000
    Mo222    Mo       0.89269    0.56652    0.78085    1.000
    Zn74     Zn       0.92156    0.49482    0.69106    1.000
    O589     O        0.94123    0.50275    0.77488    1.000
    O590     O        0.92920    0.55800    0.77386    1.000
    O591     O        0.94521    0.49387    0.65906    1.000
    C658     C        0.93320    0.49070    0.63730    1.000
    C659     C        0.95220    0.48840    0.61420    1.000
    O592     O        0.90761    0.48974    0.63492    1.000
    C660     C        0.94170    0.48260    0.58970    1.000
    C661     C        0.97770    0.49370    0.61700    1.000
    H366     H        0.92300    0.47960    0.58840    1.000
    C662     C        0.95810    0.48090    0.56500    1.000
    C663     C        0.99650    0.49070    0.59360    1.000
    H367     H        0.98440    0.49950    0.63380    1.000
    H368     H        0.95040    0.47710    0.54810    1.000
    C664     C        0.98630    0.48510    0.56820    1.000
    H369     H        0.01530    0.49270    0.59610    1.000
    C665     C        0.00310    0.48220    0.54330    1.000
    C666     C        0.99970    0.45990    0.52650    1.000
    H370     H        0.98600    0.44720    0.53000    1.000
    Mo223    Mo       0.10679    0.93982    0.70833    1.000
    O593     O        0.10399    0.97433    0.68835    1.000
    O594     O        0.10928    0.91562    0.74306    1.000
    O595     O        0.06837    0.94804    0.71782    1.000
    O596     O        0.14558    0.94359    0.71363    1.000
    Mo224    Mo       0.05603    0.96726    0.74734    1.000
    Mo225    Mo       0.10731    0.93348    0.78085    1.000
    Zn75     Zn       0.07844    0.00518    0.69106    1.000
    O597     O        0.05877    0.99725    0.77488    1.000
    O598     O        0.07080    0.94200    0.77386    1.000
    O599     O        0.05479    0.00613    0.65906    1.000
    C667     C        0.06680    0.00930    0.63730    1.000
    C668     C        0.04780    0.01160    0.61420    1.000
    O600     O        0.09239    0.01026    0.63492    1.000
    C669     C        0.05830    0.01740    0.58970    1.000
    C670     C        0.02230    0.00630    0.61700    1.000
    H371     H        0.07700    0.02040    0.58840    1.000
    C671     C        0.04190    0.01910    0.56500    1.000
    C672     C        0.00350    0.00930    0.59360    1.000
    H372     H        0.01560    0.00050    0.63380    1.000
    H373     H        0.04960    0.02290    0.54810    1.000
    C673     C        0.01370    0.01490    0.56820    1.000
    H374     H        0.98470    0.00730    0.59610    1.000
    C674     C        0.99690    0.01780    0.54330    1.000
    C675     C        0.00030    0.04010    0.52650    1.000
    H375     H        0.01400    0.05280    0.53000    1.000
    Mo226    Mo       0.60679    0.43982    0.20833    1.000
    O601     O        0.60399    0.47433    0.18835    1.000
    O602     O        0.60928    0.41562    0.24306    1.000
    O603     O        0.56837    0.44804    0.21782    1.000
    O604     O        0.64558    0.44359    0.21363    1.000
    Mo227    Mo       0.55603    0.46726    0.24734    1.000
    Mo228    Mo       0.60731    0.43348    0.28085    1.000
    Zn76     Zn       0.57844    0.50518    0.19106    1.000
    O605     O        0.55877    0.49725    0.27488    1.000
    O606     O        0.57080    0.44200    0.27386    1.000
    O607     O        0.55479    0.50613    0.15906    1.000
    C676     C        0.56680    0.50930    0.13730    1.000
    C677     C        0.54780    0.51160    0.11420    1.000
    O608     O        0.59239    0.51026    0.13492    1.000
    C678     C        0.55830    0.51740    0.08970    1.000
    C679     C        0.52230    0.50630    0.11700    1.000
    H376     H        0.57700    0.52040    0.08840    1.000
    C680     C        0.54190    0.51910    0.06500    1.000
    C681     C        0.50350    0.50930    0.09360    1.000
    H377     H        0.51560    0.50050    0.13380    1.000
    H378     H        0.54960    0.52290    0.04810    1.000
    C682     C        0.51370    0.51490    0.06820    1.000
    H379     H        0.48470    0.50730    0.09610    1.000
    C683     C        0.49690    0.51780    0.04330    1.000
    C684     C        0.50030    0.54010    0.02650    1.000
    H380     H        0.51400    0.55280    0.03000    1.000
    Mo229    Mo       0.60679    0.56018    0.29167    1.000
    O609     O        0.60399    0.52567    0.31165    1.000
    O610     O        0.60928    0.58438    0.25694    1.000
    O611     O        0.56837    0.55196    0.28218    1.000
    O612     O        0.64558    0.55641    0.28637    1.000
    Mo230    Mo       0.55603    0.53274    0.25266    1.000
    Mo231    Mo       0.60731    0.56652    0.21915    1.000
    Zn77     Zn       0.57844    0.49482    0.30894    1.000
    O613     O        0.55877    0.50275    0.22512    1.000
    O614     O        0.57080    0.55800    0.22614    1.000
    O615     O        0.55479    0.49387    0.34094    1.000
    C685     C        0.56680    0.49070    0.36270    1.000
    C686     C        0.54780    0.48840    0.38580    1.000
    O616     O        0.59239    0.48974    0.36508    1.000
    C687     C        0.55830    0.48260    0.41030    1.000
    C688     C        0.52230    0.49370    0.38300    1.000
    H381     H        0.57700    0.47960    0.41160    1.000
    C689     C        0.54190    0.48090    0.43500    1.000
    C690     C        0.50350    0.49070    0.40640    1.000
    H382     H        0.51560    0.49950    0.36620    1.000
    H383     H        0.54960    0.47710    0.45190    1.000
    C691     C        0.51370    0.48510    0.43180    1.000
    H384     H        0.48470    0.49270    0.40390    1.000
    C692     C        0.49690    0.48220    0.45670    1.000
    C693     C        0.50030    0.45990    0.47350    1.000
    H385     H        0.51400    0.44720    0.47000    1.000
    Mo232    Mo       0.10679    0.06018    0.79167    1.000
    O617     O        0.10399    0.02567    0.81165    1.000
    O618     O        0.10928    0.08438    0.75694    1.000
    O619     O        0.06837    0.05196    0.78218    1.000
    O620     O        0.14558    0.05641    0.78637    1.000
    Mo233    Mo       0.05603    0.03274    0.75266    1.000
    Mo234    Mo       0.10731    0.06652    0.71915    1.000
    Zn78     Zn       0.07844    0.99482    0.80894    1.000
    O621     O        0.05877    0.00275    0.72512    1.000
    O622     O        0.07080    0.05800    0.72614    1.000
    O623     O        0.05479    0.99387    0.84094    1.000
    C694     C        0.06680    0.99070    0.86270    1.000
    C695     C        0.04780    0.98840    0.88580    1.000
    O624     O        0.09239    0.98974    0.86508    1.000
    C696     C        0.05830    0.98260    0.91030    1.000
    C697     C        0.02230    0.99370    0.88300    1.000
    H386     H        0.07700    0.97960    0.91160    1.000
    C698     C        0.04190    0.98090    0.93500    1.000
    C699     C        0.00350    0.99070    0.90640    1.000
    H387     H        0.01560    0.99950    0.86620    1.000
    H388     H        0.04960    0.97710    0.95190    1.000
    C700     C        0.01370    0.98510    0.93180    1.000
    H389     H        0.98470    0.99270    0.90390    1.000
    C701     C        0.99690    0.98220    0.95670    1.000
    C702     C        0.00030    0.95990    0.97350    1.000
    H390     H        0.01400    0.94720    0.97000    1.000
    Mo235    Mo       0.89321    0.43982    0.79167    1.000
    O625     O        0.89601    0.47433    0.81165    1.000
    O626     O        0.89072    0.41562    0.75694    1.000
    O627     O        0.93163    0.44804    0.78218    1.000
    O628     O        0.85442    0.44359    0.78637    1.000
    Mo236    Mo       0.94397    0.46726    0.75266    1.000
    Mo237    Mo       0.89269    0.43348    0.71915    1.000
    Zn79     Zn       0.92156    0.50518    0.80894    1.000
    O629     O        0.94123    0.49725    0.72512    1.000
    O630     O        0.92920    0.44200    0.72614    1.000
    O631     O        0.94521    0.50613    0.84094    1.000
    C703     C        0.93320    0.50930    0.86270    1.000
    C704     C        0.95220    0.51160    0.88580    1.000
    O632     O        0.90761    0.51026    0.86508    1.000
    C705     C        0.94170    0.51740    0.91030    1.000
    C706     C        0.97770    0.50630    0.88300    1.000
    H391     H        0.92300    0.52040    0.91160    1.000
    C707     C        0.95810    0.51910    0.93500    1.000
    C708     C        0.99650    0.50930    0.90640    1.000
    H392     H        0.98440    0.50050    0.86620    1.000
    H393     H        0.95040    0.52290    0.95190    1.000
    C709     C        0.98630    0.51490    0.93180    1.000
    H394     H        0.01530    0.50730    0.90390    1.000
    C710     C        0.00310    0.51780    0.95670    1.000
    C711     C        0.99970    0.54010    0.97350    1.000
    H395     H        0.98600    0.55280    0.97000    1.000
    Mo238    Mo       0.39321    0.93982    0.29167    1.000
    O633     O        0.39601    0.97433    0.31165    1.000
    O634     O        0.39072    0.91562    0.25694    1.000
    O635     O        0.43163    0.94804    0.28218    1.000
    O636     O        0.35442    0.94359    0.28637    1.000
    Mo239    Mo       0.44397    0.96726    0.25266    1.000
    Mo240    Mo       0.39269    0.93348    0.21915    1.000
    Zn80     Zn       0.42156    0.00518    0.30894    1.000
    O637     O        0.44123    0.99725    0.22512    1.000
    O638     O        0.42920    0.94200    0.22614    1.000
    O639     O        0.44521    0.00613    0.34094    1.000
    C712     C        0.43320    0.00930    0.36270    1.000
    C713     C        0.45220    0.01160    0.38580    1.000
    O640     O        0.40761    0.01026    0.36508    1.000
    C714     C        0.44170    0.01740    0.41030    1.000
    C715     C        0.47770    0.00630    0.38300    1.000
    H396     H        0.42300    0.02040    0.41160    1.000
    C716     C        0.45810    0.01910    0.43500    1.000
    C717     C        0.49650    0.00930    0.40640    1.000
    H397     H        0.48440    0.00050    0.36620    1.000
    H398     H        0.45040    0.02290    0.45190    1.000
    C718     C        0.48630    0.01490    0.43180    1.000
    H399     H        0.51530    0.00730    0.40390    1.000
    C719     C        0.50310    0.01780    0.45670    1.000
    C720     C        0.49970    0.04010    0.47350    1.000
    H400     H        0.48600    0.05280    0.47000    1.000
    Mo241    Mo       0.20833    0.39321    0.06018    1.000
    O641     O        0.18835    0.39601    0.02567    1.000
    O642     O        0.24306    0.39072    0.08438    1.000
    O643     O        0.21782    0.43163    0.05196    1.000
    O644     O        0.21363    0.35442    0.05641    1.000
    Mo242    Mo       0.24734    0.44397    0.03274    1.000
    Mo243    Mo       0.28085    0.39269    0.06652    1.000
    Zn81     Zn       0.19106    0.42156    0.99482    1.000
    O645     O        0.27488    0.44123    0.00275    1.000
    O646     O        0.27386    0.42920    0.05800    1.000
    O647     O        0.15906    0.44521    0.99387    1.000
    C721     C        0.13730    0.43320    0.99070    1.000
    C722     C        0.11420    0.45220    0.98840    1.000
    O648     O        0.13492    0.40761    0.98974    1.000
    C723     C        0.08970    0.44170    0.98260    1.000
    C724     C        0.11700    0.47770    0.99370    1.000
    H401     H        0.08840    0.42300    0.97960    1.000
    C725     C        0.06500    0.45810    0.98090    1.000
    C726     C        0.09360    0.49650    0.99070    1.000
    H402     H        0.13380    0.48440    0.99950    1.000
    H403     H        0.04810    0.45040    0.97710    1.000
    C727     C        0.06820    0.48630    0.98510    1.000
    H404     H        0.09610    0.51530    0.99270    1.000
    C728     C        0.04330    0.50310    0.98220    1.000
    C729     C        0.02650    0.49970    0.95990    1.000
    H405     H        0.03000    0.48600    0.94720    1.000
    Mo244    Mo       0.70833    0.89321    0.56018    1.000
    O649     O        0.68835    0.89601    0.52567    1.000
    O650     O        0.74306    0.89072    0.58438    1.000
    O651     O        0.71782    0.93163    0.55196    1.000
    O652     O        0.71363    0.85442    0.55641    1.000
    Mo245    Mo       0.74734    0.94397    0.53274    1.000
    Mo246    Mo       0.78085    0.89269    0.56652    1.000
    Zn82     Zn       0.69106    0.92156    0.49482    1.000
    O653     O        0.77488    0.94123    0.50275    1.000
    O654     O        0.77386    0.92920    0.55800    1.000
    O655     O        0.65906    0.94521    0.49387    1.000
    C730     C        0.63730    0.93320    0.49070    1.000
    C731     C        0.61420    0.95220    0.48840    1.000
    O656     O        0.63492    0.90761    0.48974    1.000
    C732     C        0.58970    0.94170    0.48260    1.000
    C733     C        0.61700    0.97770    0.49370    1.000
    H406     H        0.58840    0.92300    0.47960    1.000
    C734     C        0.56500    0.95810    0.48090    1.000
    C735     C        0.59360    0.99650    0.49070    1.000
    H407     H        0.63380    0.98440    0.49950    1.000
    H408     H        0.54810    0.95040    0.47710    1.000
    C736     C        0.56820    0.98630    0.48510    1.000
    H409     H        0.59610    0.01530    0.49270    1.000
    C737     C        0.54330    0.00310    0.48220    1.000
    C738     C        0.52650    0.99970    0.45990    1.000
    H410     H        0.53000    0.98600    0.44720    1.000
    Mo247    Mo       0.70833    0.10679    0.93982    1.000
    O657     O        0.68835    0.10399    0.97433    1.000
    O658     O        0.74306    0.10928    0.91562    1.000
    O659     O        0.71782    0.06837    0.94804    1.000
    O660     O        0.71363    0.14558    0.94359    1.000
    Mo248    Mo       0.74734    0.05603    0.96726    1.000
    Mo249    Mo       0.78085    0.10731    0.93348    1.000
    Zn83     Zn       0.69106    0.07844    0.00518    1.000
    O661     O        0.77488    0.05877    0.99725    1.000
    O662     O        0.77386    0.07080    0.94200    1.000
    O663     O        0.65906    0.05479    0.00613    1.000
    C739     C        0.63730    0.06680    0.00930    1.000
    C740     C        0.61420    0.04780    0.01160    1.000
    O664     O        0.63492    0.09239    0.01026    1.000
    C741     C        0.58970    0.05830    0.01740    1.000
    C742     C        0.61700    0.02230    0.00630    1.000
    H411     H        0.58840    0.07700    0.02040    1.000
    C743     C        0.56500    0.04190    0.01910    1.000
    C744     C        0.59360    0.00350    0.00930    1.000
    H412     H        0.63380    0.01560    0.00050    1.000
    H413     H        0.54810    0.04960    0.02290    1.000
    C745     C        0.56820    0.01370    0.01490    1.000
    H414     H        0.59610    0.98470    0.00730    1.000
    C746     C        0.54330    0.99690    0.01780    1.000
    C747     C        0.52650    0.00030    0.04010    1.000
    H415     H        0.53000    0.01400    0.05280    1.000
    Mo250    Mo       0.20833    0.60679    0.43982    1.000
    O665     O        0.18835    0.60399    0.47433    1.000
    O666     O        0.24306    0.60928    0.41562    1.000
    O667     O        0.21782    0.56837    0.44804    1.000
    O668     O        0.21363    0.64558    0.44359    1.000
    Mo251    Mo       0.24734    0.55603    0.46726    1.000
    Mo252    Mo       0.28085    0.60731    0.43348    1.000
    Zn84     Zn       0.19106    0.57844    0.50518    1.000
    O669     O        0.27488    0.55877    0.49725    1.000
    O670     O        0.27386    0.57080    0.44200    1.000
    O671     O        0.15906    0.55479    0.50613    1.000
    C748     C        0.13730    0.56680    0.50930    1.000
    C749     C        0.11420    0.54780    0.51160    1.000
    O672     O        0.13492    0.59239    0.51026    1.000
    C750     C        0.08970    0.55830    0.51740    1.000
    C751     C        0.11700    0.52230    0.50630    1.000
    H416     H        0.08840    0.57700    0.52040    1.000
    C752     C        0.06500    0.54190    0.51910    1.000
    C753     C        0.09360    0.50350    0.50930    1.000
    H417     H        0.13380    0.51560    0.50050    1.000
    H418     H        0.04810    0.54960    0.52290    1.000
    C754     C        0.06820    0.51370    0.51490    1.000
    H419     H        0.09610    0.48470    0.50730    1.000
    C755     C        0.04330    0.49690    0.51780    1.000
    C756     C        0.02650    0.50030    0.54010    1.000
    H420     H        0.03000    0.51400    0.55280    1.000
    Mo253    Mo       0.29167    0.60679    0.56018    1.000
    O673     O        0.31165    0.60399    0.52567    1.000
    O674     O        0.25694    0.60928    0.58438    1.000
    O675     O        0.28218    0.56837    0.55196    1.000
    O676     O        0.28637    0.64558    0.55641    1.000
    Mo254    Mo       0.25266    0.55603    0.53274    1.000
    Mo255    Mo       0.21915    0.60731    0.56652    1.000
    Zn85     Zn       0.30894    0.57844    0.49482    1.000
    O677     O        0.22512    0.55877    0.50275    1.000
    O678     O        0.22614    0.57080    0.55800    1.000
    O679     O        0.34094    0.55479    0.49387    1.000
    C757     C        0.36270    0.56680    0.49070    1.000
    C758     C        0.38580    0.54780    0.48840    1.000
    O680     O        0.36508    0.59239    0.48974    1.000
    C759     C        0.41030    0.55830    0.48260    1.000
    C760     C        0.38300    0.52230    0.49370    1.000
    H421     H        0.41160    0.57700    0.47960    1.000
    C761     C        0.43500    0.54190    0.48090    1.000
    C762     C        0.40640    0.50350    0.49070    1.000
    H422     H        0.36620    0.51560    0.49950    1.000
    H423     H        0.45190    0.54960    0.47710    1.000
    C763     C        0.43180    0.51370    0.48510    1.000
    H424     H        0.40390    0.48470    0.49270    1.000
    C764     C        0.45670    0.49690    0.48220    1.000
    C765     C        0.47350    0.50030    0.45990    1.000
    H425     H        0.47000    0.51400    0.44720    1.000
    Mo256    Mo       0.79167    0.10679    0.06018    1.000
    O681     O        0.81165    0.10399    0.02567    1.000
    O682     O        0.75694    0.10928    0.08438    1.000
    O683     O        0.78218    0.06837    0.05196    1.000
    O684     O        0.78637    0.14558    0.05641    1.000
    Mo257    Mo       0.75266    0.05603    0.03274    1.000
    Mo258    Mo       0.71915    0.10731    0.06652    1.000
    Zn86     Zn       0.80894    0.07844    0.99482    1.000
    O685     O        0.72512    0.05877    0.00275    1.000
    O686     O        0.72614    0.07080    0.05800    1.000
    O687     O        0.84094    0.05479    0.99387    1.000
    C766     C        0.86270    0.06680    0.99070    1.000
    C767     C        0.88580    0.04780    0.98840    1.000
    O688     O        0.86508    0.09239    0.98974    1.000
    C768     C        0.91030    0.05830    0.98260    1.000
    C769     C        0.88300    0.02230    0.99370    1.000
    H426     H        0.91160    0.07700    0.97960    1.000
    C770     C        0.93500    0.04190    0.98090    1.000
    C771     C        0.90640    0.00350    0.99070    1.000
    H427     H        0.86620    0.01560    0.99950    1.000
    H428     H        0.95190    0.04960    0.97710    1.000
    C772     C        0.93180    0.01370    0.98510    1.000
    H429     H        0.90390    0.98470    0.99270    1.000
    C773     C        0.95670    0.99690    0.98220    1.000
    C774     C        0.97350    0.00030    0.95990    1.000
    H430     H        0.97000    0.01400    0.94720    1.000
    Mo259    Mo       0.79167    0.89321    0.43982    1.000
    O689     O        0.81165    0.89601    0.47433    1.000
    O690     O        0.75694    0.89072    0.41562    1.000
    O691     O        0.78218    0.93163    0.44804    1.000
    O692     O        0.78637    0.85442    0.44359    1.000
    Mo260    Mo       0.75266    0.94397    0.46726    1.000
    Mo261    Mo       0.71915    0.89269    0.43348    1.000
    Zn87     Zn       0.80894    0.92156    0.50518    1.000
    O693     O        0.72512    0.94123    0.49725    1.000
    O694     O        0.72614    0.92920    0.44200    1.000
    O695     O        0.84094    0.94521    0.50613    1.000
    C775     C        0.86270    0.93320    0.50930    1.000
    C776     C        0.88580    0.95220    0.51160    1.000
    O696     O        0.86508    0.90761    0.51026    1.000
    C777     C        0.91030    0.94170    0.51740    1.000
    C778     C        0.88300    0.97770    0.50630    1.000
    H431     H        0.91160    0.92300    0.52040    1.000
    C779     C        0.93500    0.95810    0.51910    1.000
    C780     C        0.90640    0.99650    0.50930    1.000
    H432     H        0.86620    0.98440    0.50050    1.000
    H433     H        0.95190    0.95040    0.52290    1.000
    C781     C        0.93180    0.98630    0.51490    1.000
    H434     H        0.90390    0.01530    0.50730    1.000
    C782     C        0.95670    0.00310    0.51780    1.000
    C783     C        0.97350    0.99970    0.54010    1.000
    H435     H        0.97000    0.98600    0.55280    1.000
    Mo262    Mo       0.29167    0.39321    0.93982    1.000
    O697     O        0.31165    0.39601    0.97433    1.000
    O698     O        0.25694    0.39072    0.91562    1.000
    O699     O        0.28218    0.43163    0.94804    1.000
    O700     O        0.28637    0.35442    0.94359    1.000
    Mo263    Mo       0.25266    0.44397    0.96726    1.000
    Mo264    Mo       0.21915    0.39269    0.93348    1.000
    Zn88     Zn       0.30894    0.42156    0.00518    1.000
    O701     O        0.22512    0.44123    0.99725    1.000
    O702     O        0.22614    0.42920    0.94200    1.000
    O703     O        0.34094    0.44521    0.00613    1.000
    C784     C        0.36270    0.43320    0.00930    1.000
    C785     C        0.38580    0.45220    0.01160    1.000
    O704     O        0.36508    0.40761    0.01026    1.000
    C786     C        0.41030    0.44170    0.01740    1.000
    C787     C        0.38300    0.47770    0.00630    1.000
    H436     H        0.41160    0.42300    0.02040    1.000
    C788     C        0.43500    0.45810    0.01910    1.000
    C789     C        0.40640    0.49650    0.00930    1.000
    H437     H        0.36620    0.48440    0.00050    1.000
    H438     H        0.45190    0.45040    0.02290    1.000
    C790     C        0.43180    0.48630    0.01490    1.000
    H439     H        0.40390    0.51530    0.00730    1.000
    C791     C        0.45670    0.50310    0.01780    1.000
    C792     C        0.47350    0.49970    0.04010    1.000
    H440     H        0.47000    0.48600    0.05280    1.000
    Mo265    Mo       0.06018    0.20833    0.39321    1.000
    O705     O        0.02567    0.18835    0.39601    1.000
    O706     O        0.08438    0.24306    0.39072    1.000
    O707     O        0.05196    0.21782    0.43163    1.000
    O708     O        0.05641    0.21363    0.35442    1.000
    Mo266    Mo       0.03274    0.24734    0.44397    1.000
    Mo267    Mo       0.06652    0.28085    0.39269    1.000
    Zn89     Zn       0.99482    0.19106    0.42156    1.000
    O709     O        0.00275    0.27488    0.44123    1.000
    O710     O        0.05800    0.27386    0.42920    1.000
    O711     O        0.99387    0.15906    0.44521    1.000
    C793     C        0.99070    0.13730    0.43320    1.000
    C794     C        0.98840    0.11420    0.45220    1.000
    O712     O        0.98974    0.13492    0.40761    1.000
    C795     C        0.98260    0.08970    0.44170    1.000
    C796     C        0.99370    0.11700    0.47770    1.000
    H441     H        0.97960    0.08840    0.42300    1.000
    C797     C        0.98090    0.06500    0.45810    1.000
    C798     C        0.99070    0.09360    0.49650    1.000
    H442     H        0.99950    0.13380    0.48440    1.000
    H443     H        0.97710    0.04810    0.45040    1.000
    C799     C        0.98510    0.06820    0.48630    1.000
    H444     H        0.99270    0.09610    0.51530    1.000
    C800     C        0.98220    0.04330    0.50310    1.000
    C801     C        0.95990    0.02650    0.49970    1.000
    H445     H        0.94720    0.03000    0.48600    1.000
    Mo268    Mo       0.56018    0.70833    0.89321    1.000
    O713     O        0.52567    0.68835    0.89601    1.000
    O714     O        0.58438    0.74306    0.89072    1.000
    O715     O        0.55196    0.71782    0.93163    1.000
    O716     O        0.55641    0.71363    0.85442    1.000
    Mo269    Mo       0.53274    0.74734    0.94397    1.000
    Mo270    Mo       0.56652    0.78085    0.89269    1.000
    Zn90     Zn       0.49482    0.69106    0.92156    1.000
    O717     O        0.50275    0.77488    0.94123    1.000
    O718     O        0.55800    0.77386    0.92920    1.000
    O719     O        0.49387    0.65906    0.94521    1.000
    C802     C        0.49070    0.63730    0.93320    1.000
    C803     C        0.48840    0.61420    0.95220    1.000
    O720     O        0.48974    0.63492    0.90761    1.000
    C804     C        0.48260    0.58970    0.94170    1.000
    C805     C        0.49370    0.61700    0.97770    1.000
    H446     H        0.47960    0.58840    0.92300    1.000
    C806     C        0.48090    0.56500    0.95810    1.000
    C807     C        0.49070    0.59360    0.99650    1.000
    H447     H        0.49950    0.63380    0.98440    1.000
    H448     H        0.47710    0.54810    0.95040    1.000
    C808     C        0.48510    0.56820    0.98630    1.000
    H449     H        0.49270    0.59610    0.01530    1.000
    C809     C        0.48220    0.54330    0.00310    1.000
    C810     C        0.45990    0.52650    0.99970    1.000
    H450     H        0.44720    0.53000    0.98600    1.000
    Mo271    Mo       0.93982    0.70833    0.10679    1.000
    O721     O        0.97433    0.68835    0.10399    1.000
    O722     O        0.91562    0.74306    0.10928    1.000
    O723     O        0.94804    0.71782    0.06837    1.000
    O724     O        0.94359    0.71363    0.14558    1.000
    Mo272    Mo       0.96726    0.74734    0.05603    1.000
    Mo273    Mo       0.93348    0.78085    0.10731    1.000
    Zn91     Zn       0.00518    0.69106    0.07844    1.000
    O725     O        0.99725    0.77488    0.05877    1.000
    O726     O        0.94200    0.77386    0.07080    1.000
    O727     O        0.00613    0.65906    0.05479    1.000
    C811     C        0.00930    0.63730    0.06680    1.000
    C812     C        0.01160    0.61420    0.04780    1.000
    O728     O        0.01026    0.63492    0.09239    1.000
    C813     C        0.01740    0.58970    0.05830    1.000
    C814     C        0.00630    0.61700    0.02230    1.000
    H451     H        0.02040    0.58840    0.07700    1.000
    C815     C        0.01910    0.56500    0.04190    1.000
    C816     C        0.00930    0.59360    0.00350    1.000
    H452     H        0.00050    0.63380    0.01560    1.000
    H453     H        0.02290    0.54810    0.04960    1.000
    C817     C        0.01490    0.56820    0.01370    1.000
    H454     H        0.00730    0.59610    0.98470    1.000
    C818     C        0.01780    0.54330    0.99690    1.000
    C819     C        0.04010    0.52650    0.00030    1.000
    H455     H        0.05280    0.53000    0.01400    1.000
    Mo274    Mo       0.43982    0.20833    0.60679    1.000
    O729     O        0.47433    0.18835    0.60399    1.000
    O730     O        0.41562    0.24306    0.60928    1.000
    O731     O        0.44804    0.21782    0.56837    1.000
    O732     O        0.44359    0.21363    0.64558    1.000
    Mo275    Mo       0.46726    0.24734    0.55603    1.000
    Mo276    Mo       0.43348    0.28085    0.60731    1.000
    Zn92     Zn       0.50518    0.19106    0.57844    1.000
    O733     O        0.49725    0.27488    0.55877    1.000
    O734     O        0.44200    0.27386    0.57080    1.000
    O735     O        0.50613    0.15906    0.55479    1.000
    C820     C        0.50930    0.13730    0.56680    1.000
    C821     C        0.51160    0.11420    0.54780    1.000
    O736     O        0.51026    0.13492    0.59239    1.000
    C822     C        0.51740    0.08970    0.55830    1.000
    C823     C        0.50630    0.11700    0.52230    1.000
    H456     H        0.52040    0.08840    0.57700    1.000
    C824     C        0.51910    0.06500    0.54190    1.000
    C825     C        0.50930    0.09360    0.50350    1.000
    H457     H        0.50050    0.13380    0.51560    1.000
    H458     H        0.52290    0.04810    0.54960    1.000
    C826     C        0.51490    0.06820    0.51370    1.000
    H459     H        0.50730    0.09610    0.48470    1.000
    C827     C        0.51780    0.04330    0.49690    1.000
    C828     C        0.54010    0.02650    0.50030    1.000
    H460     H        0.55280    0.03000    0.51400    1.000
    Mo277    Mo       0.56018    0.29167    0.60679    1.000
    O737     O        0.52567    0.31165    0.60399    1.000
    O738     O        0.58438    0.25694    0.60928    1.000
    O739     O        0.55196    0.28218    0.56837    1.000
    O740     O        0.55641    0.28637    0.64558    1.000
    Mo278    Mo       0.53274    0.25266    0.55603    1.000
    Mo279    Mo       0.56652    0.21915    0.60731    1.000
    Zn93     Zn       0.49482    0.30894    0.57844    1.000
    O741     O        0.50275    0.22512    0.55877    1.000
    O742     O        0.55800    0.22614    0.57080    1.000
    O743     O        0.49387    0.34094    0.55479    1.000
    C829     C        0.49070    0.36270    0.56680    1.000
    C830     C        0.48840    0.38580    0.54780    1.000
    O744     O        0.48974    0.36508    0.59239    1.000
    C831     C        0.48260    0.41030    0.55830    1.000
    C832     C        0.49370    0.38300    0.52230    1.000
    H461     H        0.47960    0.41160    0.57700    1.000
    C833     C        0.48090    0.43500    0.54190    1.000
    C834     C        0.49070    0.40640    0.50350    1.000
    H462     H        0.49950    0.36620    0.51560    1.000
    H463     H        0.47710    0.45190    0.54960    1.000
    C835     C        0.48510    0.43180    0.51370    1.000
    H464     H        0.49270    0.40390    0.48470    1.000
    C836     C        0.48220    0.45670    0.49690    1.000
    C837     C        0.45990    0.47350    0.50030    1.000
    H465     H        0.44720    0.47000    0.51400    1.000
    Mo280    Mo       0.06018    0.79167    0.10679    1.000
    O745     O        0.02567    0.81165    0.10399    1.000
    O746     O        0.08438    0.75694    0.10928    1.000
    O747     O        0.05196    0.78218    0.06837    1.000
    O748     O        0.05641    0.78637    0.14558    1.000
    Mo281    Mo       0.03274    0.75266    0.05603    1.000
    Mo282    Mo       0.06652    0.71915    0.10731    1.000
    Zn94     Zn       0.99482    0.80894    0.07844    1.000
    O749     O        0.00275    0.72512    0.05877    1.000
    O750     O        0.05800    0.72614    0.07080    1.000
    O751     O        0.99387    0.84094    0.05479    1.000
    C838     C        0.99070    0.86270    0.06680    1.000
    C839     C        0.98840    0.88580    0.04780    1.000
    O752     O        0.98974    0.86508    0.09239    1.000
    C840     C        0.98260    0.91030    0.05830    1.000
    C841     C        0.99370    0.88300    0.02230    1.000
    H466     H        0.97960    0.91160    0.07700    1.000
    C842     C        0.98090    0.93500    0.04190    1.000
    C843     C        0.99070    0.90640    0.00350    1.000
    H467     H        0.99950    0.86620    0.01560    1.000
    H468     H        0.97710    0.95190    0.04960    1.000
    C844     C        0.98510    0.93180    0.01370    1.000
    H469     H        0.99270    0.90390    0.98470    1.000
    C845     C        0.98220    0.95670    0.99690    1.000
    C846     C        0.95990    0.97350    0.00030    1.000
    H470     H        0.94720    0.97000    0.01400    1.000
    Mo283    Mo       0.43982    0.79167    0.89321    1.000
    O753     O        0.47433    0.81165    0.89601    1.000
    O754     O        0.41562    0.75694    0.89072    1.000
    O755     O        0.44804    0.78218    0.93163    1.000
    O756     O        0.44359    0.78637    0.85442    1.000
    Mo284    Mo       0.46726    0.75266    0.94397    1.000
    Mo285    Mo       0.43348    0.71915    0.89269    1.000
    Zn95     Zn       0.50518    0.80894    0.92156    1.000
    O757     O        0.49725    0.72512    0.94123    1.000
    O758     O        0.44200    0.72614    0.92920    1.000
    O759     O        0.50613    0.84094    0.94521    1.000
    C847     C        0.50930    0.86270    0.93320    1.000
    C848     C        0.51160    0.88580    0.95220    1.000
    O760     O        0.51026    0.86508    0.90761    1.000
    C849     C        0.51740    0.91030    0.94170    1.000
    C850     C        0.50630    0.88300    0.97770    1.000
    H471     H        0.52040    0.91160    0.92300    1.000
    C851     C        0.51910    0.93500    0.95810    1.000
    C852     C        0.50930    0.90640    0.99650    1.000
    H472     H        0.50050    0.86620    0.98440    1.000
    H473     H        0.52290    0.95190    0.95040    1.000
    C853     C        0.51490    0.93180    0.98630    1.000
    H474     H        0.50730    0.90390    0.01530    1.000
    C854     C        0.51780    0.95670    0.00310    1.000
    C855     C        0.54010    0.97350    0.99970    1.000
    H475     H        0.55280    0.97000    0.98600    1.000
    Mo286    Mo       0.93982    0.29167    0.39321    1.000
    O761     O        0.97433    0.31165    0.39601    1.000
    O762     O        0.91562    0.25694    0.39072    1.000
    O763     O        0.94804    0.28218    0.43163    1.000
    O764     O        0.94359    0.28637    0.35442    1.000
    Mo287    Mo       0.96726    0.25266    0.44397    1.000
    Mo288    Mo       0.93348    0.21915    0.39269    1.000
    Zn96     Zn       0.00518    0.30894    0.42156    1.000
    O765     O        0.99725    0.22512    0.44123    1.000
    O766     O        0.94200    0.22614    0.42920    1.000
    O767     O        0.00613    0.34094    0.44521    1.000
    C856     C        0.00930    0.36270    0.43320    1.000
    C857     C        0.01160    0.38580    0.45220    1.000
    O768     O        0.01026    0.36508    0.40761    1.000
    C858     C        0.01740    0.41030    0.44170    1.000
    C859     C        0.00630    0.38300    0.47770    1.000
    H476     H        0.02040    0.41160    0.42300    1.000
    C860     C        0.01910    0.43500    0.45810    1.000
    C861     C        0.00930    0.40640    0.49650    1.000
    H477     H        0.00050    0.36620    0.48440    1.000
    H478     H        0.02290    0.45190    0.45040    1.000
    C862     C        0.01490    0.43180    0.48630    1.000
    H479     H        0.00730    0.40390    0.51530    1.000
    C863     C        0.01780    0.45670    0.50310    1.000
    C864     C        0.04010    0.47350    0.49970    1.000
    H480     H        0.05280    0.47000    0.48600    1.000
