# CIF file generated by openbabel 3.1.0, see https://openbabel.org
data_I
_chemical_name_common 'image0'
_cell_length_a 32.461
_cell_length_b 18.024
_cell_length_c 19.748
_cell_angle_alpha 90
_cell_angle_beta 119.964
_cell_angle_gamma 90
_space_group_name_H-M_alt 'P 1'
_space_group_name_Hall 'P 1'
loop_
    _symmetry_equiv_pos_as_xyz
    x,y,z
loop_
    _atom_site_label
    _atom_site_type_symbol
    _atom_site_fract_x
    _atom_site_fract_y
    _atom_site_fract_z
    _atom_site_occupancy
    O1       O        0.26200    0.12960    0.99960    1.000
    O2       O        0.18750    0.19660    0.99700    1.000
    O3       O        0.04540    0.07470    0.09650    1.000
    Cu1      Cu       0.22008    0.21122    0.93834    1.000
    O4       O        0.05330    0.07080    0.98900    1.000
    O5       O        0.23820    0.26230    0.10080    1.000
    O6       O        0.31410    0.19400    0.10630    1.000
    C1       C        0.06720    0.09990    0.06140    1.000
    C2       C        0.10600    0.14350    0.09870    1.000
    C3       C        0.13000    0.16520    0.06180    1.000
    H1       H        0.11930    0.15040    0.00940    1.000
    C4       C        0.17090    0.21010    0.10230    1.000
    C5       C        0.19760    0.22700    0.06640    1.000
    C6       C        0.19170    0.22460    0.18080    1.000
    H2       H        0.22070    0.25080    0.20970    1.000
    C7       C        0.16550    0.19660    0.21400    1.000
    C8       C        0.12430    0.15920    0.17910    1.000
    H3       H        0.10840    0.14430    0.20640    1.000
    C9       C        0.22320    0.30580    0.40790    1.000
    C10      C        0.23820    0.24680    0.45990    1.000
    C11      C        0.22350    0.17680    0.43230    1.000
    C12      C        0.23890    0.37590    0.43680    1.000
    H4       H        0.23150    0.41680    0.40220    1.000
    C13      C        0.23300    0.11310    0.47930    1.000
    H5       H        0.22160    0.06550    0.45720    1.000
    C14      C        0.19470    0.28550    0.32010    1.000
    C15      C        0.36260    0.06510    0.18590    1.000
    H6       H        0.37890    0.10930    0.21130    1.000
    C16      C        0.32280    0.06550    0.10650    1.000
    O7       O        0.18180    0.34010    0.27720    1.000
    O8       O        0.18160    0.09670    0.31800    1.000
    C17      C        0.19730    0.15380    0.34660    1.000
    N1       N        0.18590    0.21710    0.29960    1.000
    C18      C        0.30100    0.13650    0.06830    1.000
    C19      C        0.43790    0.02500    0.43660    1.000
    C20      C        0.49210    0.02170    0.40290    1.000
    C21      C        0.53930    0.04730    0.42970    1.000
    H7       H        0.54690    0.06080    0.39060    1.000
    C22      C        0.42300    0.05500    0.48990    1.000
    H8       H        0.39280    0.07650    0.47400    1.000
    O9       O        0.35580    0.94690    0.32890    1.000
    C23      C        0.40570    0.96970    0.36000    1.000
    C24      C        0.45830    0.02100    0.31880    1.000
    O10      O        0.47140    0.05340    0.27430    1.000
    O11      O        0.76200    0.62960    0.99960    1.000
    O12      O        0.68750    0.69660    0.99700    1.000
    O13      O        0.54540    0.57470    0.09650    1.000
    Cu2      Cu       0.72008    0.71122    0.93834    1.000
    O14      O        0.55330    0.57080    0.98900    1.000
    O15      O        0.73820    0.76230    0.10080    1.000
    O16      O        0.81410    0.69400    0.10630    1.000
    C25      C        0.56720    0.59990    0.06140    1.000
    C26      C        0.60600    0.64350    0.09870    1.000
    C27      C        0.63000    0.66520    0.06180    1.000
    H9       H        0.61930    0.65040    0.00940    1.000
    C28      C        0.67090    0.71010    0.10230    1.000
    C29      C        0.69760    0.72700    0.06640    1.000
    C30      C        0.69170    0.72460    0.18080    1.000
    H10      H        0.72070    0.75080    0.20970    1.000
    C31      C        0.66550    0.69660    0.21400    1.000
    C32      C        0.62430    0.65920    0.17910    1.000
    H11      H        0.60840    0.64430    0.20640    1.000
    C33      C        0.72320    0.80580    0.40790    1.000
    C34      C        0.73820    0.74680    0.45990    1.000
    C35      C        0.72350    0.67680    0.43230    1.000
    C36      C        0.73890    0.87590    0.43680    1.000
    H12      H        0.73150    0.91680    0.40220    1.000
    C37      C        0.73300    0.61310    0.47930    1.000
    H13      H        0.72160    0.56550    0.45720    1.000
    C38      C        0.69470    0.78550    0.32010    1.000
    C39      C        0.86260    0.56510    0.18590    1.000
    H14      H        0.87890    0.60930    0.21130    1.000
    C40      C        0.82280    0.56550    0.10650    1.000
    O17      O        0.68180    0.84010    0.27720    1.000
    O18      O        0.68160    0.59670    0.31800    1.000
    C41      C        0.69730    0.65380    0.34660    1.000
    N2       N        0.68590    0.71710    0.29960    1.000
    C42      C        0.80100    0.63650    0.06830    1.000
    C43      C        0.93790    0.52500    0.43660    1.000
    C44      C        0.99210    0.52170    0.40290    1.000
    C45      C        0.03930    0.54730    0.42970    1.000
    H15      H        0.04690    0.56080    0.39060    1.000
    C46      C        0.92300    0.55500    0.48990    1.000
    H16      H        0.89280    0.57650    0.47400    1.000
    O19      O        0.85580    0.44690    0.32890    1.000
    C47      C        0.90570    0.46970    0.36000    1.000
    C48      C        0.95830    0.52100    0.31880    1.000
    O20      O        0.97140    0.55340    0.27430    1.000
    O21      O        0.73800    0.12960    0.00040    1.000
    O22      O        0.81250    0.19660    0.00300    1.000
    O23      O        0.95460    0.07470    0.90350    1.000
    Cu3      Cu       0.77992    0.21122    0.06166    1.000
    O24      O        0.94670    0.07080    0.01100    1.000
    O25      O        0.76180    0.26230    0.89920    1.000
    O26      O        0.68590    0.19400    0.89370    1.000
    C49      C        0.93280    0.09990    0.93860    1.000
    C50      C        0.89400    0.14350    0.90130    1.000
    C51      C        0.87000    0.16520    0.93820    1.000
    H17      H        0.88070    0.15040    0.99060    1.000
    C52      C        0.82910    0.21010    0.89770    1.000
    C53      C        0.80240    0.22700    0.93360    1.000
    C54      C        0.80830    0.22460    0.81920    1.000
    H18      H        0.77930    0.25080    0.79030    1.000
    C55      C        0.83450    0.19660    0.78600    1.000
    C56      C        0.87570    0.15920    0.82090    1.000
    H19      H        0.89160    0.14430    0.79360    1.000
    C57      C        0.77680    0.30580    0.59210    1.000
    C58      C        0.76180    0.24680    0.54010    1.000
    C59      C        0.77650    0.17680    0.56770    1.000
    C60      C        0.76110    0.37590    0.56320    1.000
    H20      H        0.76850    0.41680    0.59780    1.000
    C61      C        0.76700    0.11310    0.52070    1.000
    H21      H        0.77840    0.06550    0.54280    1.000
    C62      C        0.80530    0.28550    0.67990    1.000
    C63      C        0.63740    0.06510    0.81410    1.000
    H22      H        0.62110    0.10930    0.78870    1.000
    C64      C        0.67720    0.06550    0.89350    1.000
    O27      O        0.81820    0.34010    0.72280    1.000
    O28      O        0.81840    0.09670    0.68200    1.000
    C65      C        0.80270    0.15380    0.65340    1.000
    N3       N        0.81410    0.21710    0.70040    1.000
    C66      C        0.69900    0.13650    0.93170    1.000
    C67      C        0.56210    0.02500    0.56340    1.000
    C68      C        0.50790    0.02170    0.59710    1.000
    C69      C        0.46070    0.04730    0.57030    1.000
    H23      H        0.45310    0.06080    0.60940    1.000
    C70      C        0.57700    0.05500    0.51010    1.000
    H24      H        0.60720    0.07650    0.52600    1.000
    O29      O        0.64420    0.94690    0.67110    1.000
    C71      C        0.59430    0.96970    0.64000    1.000
    C72      C        0.54170    0.02100    0.68120    1.000
    O30      O        0.52860    0.05340    0.72570    1.000
    O31      O        0.23800    0.62960    0.00040    1.000
    O32      O        0.31250    0.69660    0.00300    1.000
    O33      O        0.45460    0.57470    0.90350    1.000
    Cu4      Cu       0.27992    0.71122    0.06166    1.000
    O34      O        0.44670    0.57080    0.01100    1.000
    O35      O        0.26180    0.76230    0.89920    1.000
    O36      O        0.18590    0.69400    0.89370    1.000
    C73      C        0.43280    0.59990    0.93860    1.000
    C74      C        0.39400    0.64350    0.90130    1.000
    C75      C        0.37000    0.66520    0.93820    1.000
    H25      H        0.38070    0.65040    0.99060    1.000
    C76      C        0.32910    0.71010    0.89770    1.000
    C77      C        0.30240    0.72700    0.93360    1.000
    C78      C        0.30830    0.72460    0.81920    1.000
    H26      H        0.27930    0.75080    0.79030    1.000
    C79      C        0.33450    0.69660    0.78600    1.000
    C80      C        0.37570    0.65920    0.82090    1.000
    H27      H        0.39160    0.64430    0.79360    1.000
    C81      C        0.27680    0.80580    0.59210    1.000
    C82      C        0.26180    0.74680    0.54010    1.000
    C83      C        0.27650    0.67680    0.56770    1.000
    C84      C        0.26110    0.87590    0.56320    1.000
    H28      H        0.26850    0.91680    0.59780    1.000
    C85      C        0.26700    0.61310    0.52070    1.000
    H29      H        0.27840    0.56550    0.54280    1.000
    C86      C        0.30530    0.78550    0.67990    1.000
    C87      C        0.13740    0.56510    0.81410    1.000
    H30      H        0.12110    0.60930    0.78870    1.000
    C88      C        0.17720    0.56550    0.89350    1.000
    O37      O        0.31820    0.84010    0.72280    1.000
    O38      O        0.31840    0.59670    0.68200    1.000
    C89      C        0.30270    0.65380    0.65340    1.000
    N4       N        0.31410    0.71710    0.70040    1.000
    C90      C        0.19900    0.63650    0.93170    1.000
    C91      C        0.06210    0.52500    0.56340    1.000
    C92      C        0.00790    0.52170    0.59710    1.000
    C93      C        0.96070    0.54730    0.57030    1.000
    H31      H        0.95310    0.56080    0.60940    1.000
    C94      C        0.07700    0.55500    0.51010    1.000
    H32      H        0.10720    0.57650    0.52600    1.000
    O39      O        0.14420    0.44690    0.67110    1.000
    C95      C        0.09430    0.46970    0.64000    1.000
    C96      C        0.04170    0.52100    0.68120    1.000
    O40      O        0.02860    0.55340    0.72570    1.000
    O41      O        0.73800    0.87040    0.00040    1.000
    O42      O        0.81250    0.80340    0.00300    1.000
    O43      O        0.95460    0.92530    0.90350    1.000
    Cu5      Cu       0.77992    0.78878    0.06166    1.000
    O44      O        0.94670    0.92920    0.01100    1.000
    O45      O        0.76180    0.73770    0.89920    1.000
    O46      O        0.68590    0.80600    0.89370    1.000
    C97      C        0.93280    0.90010    0.93860    1.000
    C98      C        0.89400    0.85650    0.90130    1.000
    C99      C        0.87000    0.83480    0.93820    1.000
    H33      H        0.88070    0.84960    0.99060    1.000
    C100     C        0.82910    0.78990    0.89770    1.000
    C101     C        0.80240    0.77300    0.93360    1.000
    C102     C        0.80830    0.77540    0.81920    1.000
    H34      H        0.77930    0.74920    0.79030    1.000
    C103     C        0.83450    0.80340    0.78600    1.000
    C104     C        0.87570    0.84080    0.82090    1.000
    H35      H        0.89160    0.85570    0.79360    1.000
    C105     C        0.77680    0.69420    0.59210    1.000
    C106     C        0.76180    0.75320    0.54010    1.000
    C107     C        0.77650    0.82320    0.56770    1.000
    C108     C        0.76110    0.62410    0.56320    1.000
    H36      H        0.76850    0.58320    0.59780    1.000
    C109     C        0.76700    0.88690    0.52070    1.000
    H37      H        0.77840    0.93450    0.54280    1.000
    C110     C        0.80530    0.71450    0.67990    1.000
    C111     C        0.63740    0.93490    0.81410    1.000
    H38      H        0.62110    0.89070    0.78870    1.000
    C112     C        0.67720    0.93450    0.89350    1.000
    O47      O        0.81820    0.65990    0.72280    1.000
    O48      O        0.81840    0.90330    0.68200    1.000
    C113     C        0.80270    0.84620    0.65340    1.000
    N5       N        0.81410    0.78290    0.70040    1.000
    C114     C        0.69900    0.86350    0.93170    1.000
    C115     C        0.56210    0.97500    0.56340    1.000
    C116     C        0.50790    0.97830    0.59710    1.000
    C117     C        0.46070    0.95270    0.57030    1.000
    H39      H        0.45310    0.93920    0.60940    1.000
    C118     C        0.57700    0.94500    0.51010    1.000
    H40      H        0.60720    0.92350    0.52600    1.000
    O49      O        0.64420    0.05310    0.67110    1.000
    C119     C        0.59430    0.03030    0.64000    1.000
    C120     C        0.54170    0.97900    0.68120    1.000
    O50      O        0.52860    0.94660    0.72570    1.000
    O51      O        0.23800    0.37040    0.00040    1.000
    O52      O        0.31250    0.30340    0.00300    1.000
    O53      O        0.45460    0.42530    0.90350    1.000
    Cu6      Cu       0.27992    0.28878    0.06166    1.000
    O54      O        0.44670    0.42920    0.01100    1.000
    O55      O        0.26180    0.23770    0.89920    1.000
    O56      O        0.18590    0.30600    0.89370    1.000
    C121     C        0.43280    0.40010    0.93860    1.000
    C122     C        0.39400    0.35650    0.90130    1.000
    C123     C        0.37000    0.33480    0.93820    1.000
    H41      H        0.38070    0.34960    0.99060    1.000
    C124     C        0.32910    0.28990    0.89770    1.000
    C125     C        0.30240    0.27300    0.93360    1.000
    C126     C        0.30830    0.27540    0.81920    1.000
    H42      H        0.27930    0.24920    0.79030    1.000
    C127     C        0.33450    0.30340    0.78600    1.000
    C128     C        0.37570    0.34080    0.82090    1.000
    H43      H        0.39160    0.35570    0.79360    1.000
    C129     C        0.27680    0.19420    0.59210    1.000
    C130     C        0.26180    0.25320    0.54010    1.000
    C131     C        0.27650    0.32320    0.56770    1.000
    C132     C        0.26110    0.12410    0.56320    1.000
    H44      H        0.26850    0.08320    0.59780    1.000
    C133     C        0.26700    0.38690    0.52070    1.000
    H45      H        0.27840    0.43450    0.54280    1.000
    C134     C        0.30530    0.21450    0.67990    1.000
    C135     C        0.13740    0.43490    0.81410    1.000
    H46      H        0.12110    0.39070    0.78870    1.000
    C136     C        0.17720    0.43450    0.89350    1.000
    O57      O        0.31820    0.15990    0.72280    1.000
    O58      O        0.31840    0.40330    0.68200    1.000
    C137     C        0.30270    0.34620    0.65340    1.000
    N6       N        0.31410    0.28290    0.70040    1.000
    C138     C        0.19900    0.36350    0.93170    1.000
    C139     C        0.06210    0.47500    0.56340    1.000
    C140     C        0.00790    0.47830    0.59710    1.000
    C141     C        0.96070    0.45270    0.57030    1.000
    H47      H        0.95310    0.43920    0.60940    1.000
    C142     C        0.07700    0.44500    0.51010    1.000
    H48      H        0.10720    0.42350    0.52600    1.000
    O59      O        0.14420    0.55310    0.67110    1.000
    C143     C        0.09430    0.53030    0.64000    1.000
    C144     C        0.04170    0.47900    0.68120    1.000
    O60      O        0.02860    0.44660    0.72570    1.000
    O61      O        0.26200    0.87040    0.99960    1.000
    O62      O        0.18750    0.80340    0.99700    1.000
    O63      O        0.04540    0.92530    0.09650    1.000
    Cu7      Cu       0.22008    0.78878    0.93834    1.000
    O64      O        0.05330    0.92920    0.98900    1.000
    O65      O        0.23820    0.73770    0.10080    1.000
    O66      O        0.31410    0.80600    0.10630    1.000
    C145     C        0.06720    0.90010    0.06140    1.000
    C146     C        0.10600    0.85650    0.09870    1.000
    C147     C        0.13000    0.83480    0.06180    1.000
    H49      H        0.11930    0.84960    0.00940    1.000
    C148     C        0.17090    0.78990    0.10230    1.000
    C149     C        0.19760    0.77300    0.06640    1.000
    C150     C        0.19170    0.77540    0.18080    1.000
    H50      H        0.22070    0.74920    0.20970    1.000
    C151     C        0.16550    0.80340    0.21400    1.000
    C152     C        0.12430    0.84080    0.17910    1.000
    H51      H        0.10840    0.85570    0.20640    1.000
    C153     C        0.22320    0.69420    0.40790    1.000
    C154     C        0.23820    0.75320    0.45990    1.000
    C155     C        0.22350    0.82320    0.43230    1.000
    C156     C        0.23890    0.62410    0.43680    1.000
    H52      H        0.23150    0.58320    0.40220    1.000
    C157     C        0.23300    0.88690    0.47930    1.000
    H53      H        0.22160    0.93450    0.45720    1.000
    C158     C        0.19470    0.71450    0.32010    1.000
    C159     C        0.36260    0.93490    0.18590    1.000
    H54      H        0.37890    0.89070    0.21130    1.000
    C160     C        0.32280    0.93450    0.10650    1.000
    O67      O        0.18180    0.65990    0.27720    1.000
    O68      O        0.18160    0.90330    0.31800    1.000
    C161     C        0.19730    0.84620    0.34660    1.000
    N7       N        0.18590    0.78290    0.29960    1.000
    C162     C        0.30100    0.86350    0.06830    1.000
    C163     C        0.43790    0.97500    0.43660    1.000
    C164     C        0.49210    0.97830    0.40290    1.000
    C165     C        0.53930    0.95270    0.42970    1.000
    H55      H        0.54690    0.93920    0.39060    1.000
    C166     C        0.42300    0.94500    0.48990    1.000
    H56      H        0.39280    0.92350    0.47400    1.000
    O69      O        0.35580    0.05310    0.32890    1.000
    C167     C        0.40570    0.03030    0.36000    1.000
    C168     C        0.45830    0.97900    0.31880    1.000
    O70      O        0.47140    0.94660    0.27430    1.000
    O71      O        0.76200    0.37040    0.99960    1.000
    O72      O        0.68750    0.30340    0.99700    1.000
    O73      O        0.54540    0.42530    0.09650    1.000
    Cu8      Cu       0.72008    0.28878    0.93834    1.000
    O74      O        0.55330    0.42920    0.98900    1.000
    O75      O        0.73820    0.23770    0.10080    1.000
    O76      O        0.81410    0.30600    0.10630    1.000
    C169     C        0.56720    0.40010    0.06140    1.000
    C170     C        0.60600    0.35650    0.09870    1.000
    C171     C        0.63000    0.33480    0.06180    1.000
    H57      H        0.61930    0.34960    0.00940    1.000
    C172     C        0.67090    0.28990    0.10230    1.000
    C173     C        0.69760    0.27300    0.06640    1.000
    C174     C        0.69170    0.27540    0.18080    1.000
    H58      H        0.72070    0.24920    0.20970    1.000
    C175     C        0.66550    0.30340    0.21400    1.000
    C176     C        0.62430    0.34080    0.17910    1.000
    H59      H        0.60840    0.35570    0.20640    1.000
    C177     C        0.72320    0.19420    0.40790    1.000
    C178     C        0.73820    0.25320    0.45990    1.000
    C179     C        0.72350    0.32320    0.43230    1.000
    C180     C        0.73890    0.12410    0.43680    1.000
    H60      H        0.73150    0.08320    0.40220    1.000
    C181     C        0.73300    0.38690    0.47930    1.000
    H61      H        0.72160    0.43450    0.45720    1.000
    C182     C        0.69470    0.21450    0.32010    1.000
    C183     C        0.86260    0.43490    0.18590    1.000
    H62      H        0.87890    0.39070    0.21130    1.000
    C184     C        0.82280    0.43450    0.10650    1.000
    O77      O        0.68180    0.15990    0.27720    1.000
    O78      O        0.68160    0.40330    0.31800    1.000
    C185     C        0.69730    0.34620    0.34660    1.000
    N8       N        0.68590    0.28290    0.29960    1.000
    C186     C        0.80100    0.36350    0.06830    1.000
    C187     C        0.93790    0.47500    0.43660    1.000
    C188     C        0.99210    0.47830    0.40290    1.000
    C189     C        0.03930    0.45270    0.42970    1.000
    H63      H        0.04690    0.43920    0.39060    1.000
    C190     C        0.92300    0.44500    0.48990    1.000
    H64      H        0.89280    0.42350    0.47400    1.000
    O79      O        0.85580    0.55310    0.32890    1.000
    C191     C        0.90570    0.53030    0.36000    1.000
    C192     C        0.95830    0.47900    0.31880    1.000
    O80      O        0.97140    0.44660    0.27430    1.000
    Cu9      Cu       0.99600    0.00000    0.06329    1.000
    C193     C        0.30340    0.00000    0.07170    1.000
    H65      H        0.27560    0.00000    0.02160    1.000
    C194     C        0.37480    0.00000    0.22120    1.000
    C195     C        0.48200    0.00000    0.45920    1.000
    N9       N        0.41490    0.00000    0.30450    1.000
    Cu10     Cu       0.49600    0.50000    0.06329    1.000
    C196     C        0.80340    0.50000    0.07170    1.000
    H66      H        0.77560    0.50000    0.02160    1.000
    C197     C        0.87480    0.50000    0.22120    1.000
    C198     C        0.98200    0.50000    0.45920    1.000
    N10      N        0.91490    0.50000    0.30450    1.000
    Cu11     Cu       0.00400    0.00000    0.93671    1.000
    C199     C        0.69660    0.00000    0.92830    1.000
    H67      H        0.72440    0.00000    0.97840    1.000
    C200     C        0.62520    0.00000    0.77880    1.000
    C201     C        0.51800    0.00000    0.54080    1.000
    N11      N        0.58510    0.00000    0.69550    1.000
    Cu12     Cu       0.50400    0.50000    0.93671    1.000
    C202     C        0.19660    0.50000    0.92830    1.000
    H68      H        0.22440    0.50000    0.97840    1.000
    C203     C        0.12520    0.50000    0.77880    1.000
    C204     C        0.01800    0.50000    0.54080    1.000
    N12      N        0.08510    0.50000    0.69550    1.000
