data_functionalizedCrystal
_audit_creation_method	'EQeq! by Chris Wilmer'
_symmetry_space_group_name_H-M	'P1'
_symmetry_Int_Tables_number	1
_symmetry_cell_setting	triclinic
loop_
_symmetry_equiv_pos_as_xyz
  x,y,z
_cell_length_a	6.6514
_cell_length_b	18.347
_cell_length_c	8.4311
_cell_angle_alpha	90
_cell_angle_beta	90
_cell_angle_gamma	90
loop_
_atom_site_label
_atom_site_type_symbol
_atom_site_fract_x
_atom_site_fract_y
_atom_site_fract_z
_atom_site_charge
Mof_O 	O 	0.9873	0.0501	0.4304	-0.17
Mof_O 	O 	0.6647	0.0951	0.2286	-0.415
Mof_O 	O 	0.3194	0.2579	0.8472	-0.589
Mof_C 	C 	0.237	0.244	0.9749	0.774
Mof_H 	H 	0.2197	0.2826	0.0451	-0.27
Mof_O 	O 	0.1751	0.1836	0.0182	-0.56
Mof_O 	O 	0.4873	0.5501	0.4304	-0.567
Mof_O 	O 	0.1647	0.5951	0.2286	-0.453
Mof_O 	O 	0.8194	0.7579	0.8472	-0.459
Mof_C 	C 	0.737	0.744	0.9749	0.772
Mof_H 	H 	0.7197	0.7826	0.0451	-0.217
Mof_O 	O 	0.6751	0.6836	0.0182	-0.538
Mof_O 	O 	0.0127	0.9499	0.9304	-0.672
Mof_O 	O 	0.3353	0.9049	0.7286	-0.436
Mof_O 	O 	0.6806	0.7421	0.3472	-0.517
Mof_C 	C 	0.763	0.756	0.4749	0.65
Mof_H 	H 	0.7803	0.7174	0.5451	-0.153
Mof_O 	O 	0.8249	0.8164	0.5182	-0.417
Mof_O 	O 	0.5127	0.4499	0.9304	-0.525
Mof_O 	O 	0.8353	0.4049	0.7286	-0.31
Mof_O 	O 	0.1806	0.2421	0.3472	-0.554
Mof_C 	C 	0.263	0.256	0.4749	0.653
Mof_H 	H 	0.2803	0.2174	0.5451	-0.205
Mof_O 	O 	0.3249	0.3164	0.5182	-0.528
Mof_O 	O 	0.0127	0.0501	0.0696	-0.743
Mof_O 	O 	0.3353	0.0951	0.2714	-0.461
Mof_O 	O 	0.6806	0.2579	0.6528	-0.521
Mof_C 	C 	0.763	0.244	0.5251	0.654
Mof_H 	H 	0.7803	0.2826	0.4549	-0.159
Mof_O 	O 	0.8249	0.1836	0.4818	-0.425
Mof_O 	O 	0.5127	0.5501	0.0696	-0.552
Mof_O 	O 	0.8353	0.5951	0.2714	-0.315
Mof_O 	O 	0.1806	0.7579	0.6528	-0.553
Mof_C 	C 	0.263	0.744	0.5251	0.653
Mof_H 	H 	0.2803	0.7826	0.4549	-0.204
Mof_O 	O 	0.3249	0.6836	0.4818	-0.526
Mof_O 	O 	0.9873	0.9499	0.5696	-0.119
Mof_O 	O 	0.6647	0.9049	0.7714	-0.38
Mof_O 	O 	0.3194	0.7421	0.1528	-0.527
Mof_C 	C 	0.237	0.756	0.0251	0.527
Mof_H 	H 	0.2197	0.7174	0.9549	-0.148
Mof_O 	O 	0.1751	0.8164	0.9818	-0.444
Mof_O 	O 	0.4873	0.4499	0.5696	-0.568
Mof_O 	O 	0.1647	0.4049	0.7714	-0.443
Mof_O 	O 	0.8194	0.2421	0.1528	-0.4
Mof_C 	C 	0.737	0.256	0.0251	0.506
Mof_H 	H 	0.7197	0.2174	0.9549	-0.09
Mof_O 	O 	0.6751	0.3164	0.9818	-0.421
Mof_Er	Er	4.25504e-33	0.14272	0.25	1.857
Mof_Er	Er	0.5	0.64272	0.25	2.288
Mof_Er	Er	3.56446e-33	0.85728	0.75	1.865
Mof_Er	Er	0.5	0.35728	0.75	2.296
Mof_C 	C 	0.0759	0	0.5	-0.046
Mof_H 	H 	0.2157	0	0.5	0.04
Mof_C 	C 	0.5759	0.5	0.5	0.739
Mof_H 	H 	0.7157	0.5	0.5	-0.168
Mof_C 	C 	0.9241	0	-0	1.102
Mof_H 	H 	0.7843	0	-0	-0.307
Mof_C 	C 	0.4241	0.5	-0	0.695
Mof_H 	H 	0.2843	0.5	-0	-0.212
Mof_C 	C 	0.5	0.1263	0.25	0.571
Mof_H 	H 	0.5	0.177	0.25	-0.164
Mof_C 	C 	1.95895e-32	0.6263	0.25	0.352
Mof_H 	H 	7.32193e-33	0.677	0.25	-0.156
Mof_C 	C 	0.5	0.8737	0.75	0.572
Mof_H 	H 	0.5	0.823	0.75	-0.158
Mof_C 	C 	1.5832e-32	0.3737	0.75	0.351
Mof_H 	H 	1.5832e-32	0.323	0.75	-0.152
_end
