# CIF file generated by openbabel 3.1.0, see https://openbabel.org
data_I
_chemical_name_common 'image0'
_cell_length_a 21.818
_cell_length_b 14.704
_cell_length_c 26.282
_cell_angle_alpha 90
_cell_angle_beta 126.84
_cell_angle_gamma 90
_space_group_name_H-M_alt 'P 1'
_space_group_name_Hall 'P 1'
loop_
    _symmetry_equiv_pos_as_xyz
    x,y,z
loop_
    _atom_site_label
    _atom_site_type_symbol
    _atom_site_fract_x
    _atom_site_fract_y
    _atom_site_fract_z
    _atom_site_occupancy
    Co1      Co       0.35252    0.35684    0.85780    1.000
    Co2      Co       0.44070    0.34273    0.78265    1.000
    Co3      Co       0.92629    0.31097    0.65916    1.000
    Co4      Co       0.82037    0.32545    0.49178    1.000
    O1       O        0.38700    0.48770    0.85530    1.000
    O2       O        0.41910    0.47330    0.78870    1.000
    O3       O        0.52170    0.72530    0.74200    1.000
    O4       O        0.52690    0.86080    0.77760    1.000
    O5       O        0.55020    0.70130    0.13320    1.000
    O6       O        0.44860    0.66590    0.12740    1.000
    O7       O        0.18500    0.77390    0.93540    1.000
    O8       O        0.17720    0.81140    0.85100    1.000
    O9       O        0.44230    0.82720    0.91470    1.000
    O10      O        0.33300    0.30150    0.71560    1.000
    O11      O        0.27580    0.33660    0.76030    1.000
    O12      O        0.00060    0.27580    0.64020    1.000
    O13      O        0.92910    0.27320    0.53470    1.000
    O14      O        0.99820    0.16840    0.25930    1.000
    O15      O        0.95990    0.30490    0.22220    1.000
    O16      O        0.08210    0.55830    0.36520    1.000
    O17      O        0.13570    0.54760    0.46860    1.000
    O18      O        0.12420    0.20290    0.49490    1.000
    C1       C        0.44610    0.76630    0.87770    1.000
    C2       C        0.42640    0.67350    0.87250    1.000
    H1       H        0.40830    0.65050    0.89420    1.000
    C3       C        0.43440    0.61760    0.83470    1.000
    C4       C        0.46340    0.65040    0.80350    1.000
    H2       H        0.46960    0.61130    0.77910    1.000
    C5       C        0.48270    0.73920    0.80860    1.000
    C6       C        0.47520    0.79790    0.84700    1.000
    H3       H        0.49010    0.85840    0.85160    1.000
    C7       C        0.41260    0.51710    0.82600    1.000
    C8       C        0.51290    0.77650    0.77430    1.000
    C9       C        0.41140    0.79610    0.94570    1.000
    C10      C        0.45980    0.76610    0.00740    1.000
    H4       H        0.51250    0.76570    0.02860    1.000
    C11      C        0.42900    0.73670    0.03780    1.000
    C12      C        0.34770    0.74420    0.00530    1.000
    H5       H        0.32610    0.72520    0.02510    1.000
    C13      C        0.30220    0.77930    0.94520    1.000
    C14      C        0.33370    0.80540    0.91440    1.000
    H6       H        0.30280    0.82870    0.87330    1.000
    C15      C        0.47680    0.69960    0.10110    1.000
    C16      C        0.21610    0.78850    0.90790    1.000
    C17      C        0.12630    0.23570    0.54550    1.000
    C18      C        0.19800    0.25760    0.60250    1.000
    H7       H        0.24270    0.25460    0.60560    1.000
    C19      C        0.19920    0.28430    0.65450    1.000
    C20      C        0.13430    0.28830    0.65010    1.000
    H8       H        0.13680    0.30670    0.68520    1.000
    C21      C        0.06400    0.26520    0.59410    1.000
    C22      C        0.05940    0.24240    0.54080    1.000
    H9       H        0.01200    0.23160    0.50220    1.000
    C23      C        0.27540    0.31110    0.71530    1.000
    C24      C        0.99150    0.27390    0.59000    1.000
    C25      C        0.10010    0.26390    0.44650    1.000
    C26      C        0.06240    0.22980    0.38520    1.000
    H10      H        0.05390    0.16750    0.37810    1.000
    C27      C        0.03750    0.28760    0.33440    1.000
    C28      C        0.04930    0.37970    0.34430    1.000
    H11      H        0.03190    0.41830    0.31010    1.000
    C29      C        0.08720    0.41580    0.40520    1.000
    C30      C        0.11220    0.35750    0.45750    1.000
    H12      H        0.13610    0.38110    0.49810    1.000
    C31      C        0.99550    0.25300    0.26750    1.000
    C32      C        0.10280    0.51770    0.41380    1.000
    Co5      Co       0.64748    0.85684    0.64220    1.000
    Co6      Co       0.55930    0.84273    0.71735    1.000
    Co7      Co       0.07371    0.81097    0.84084    1.000
    Co8      Co       0.17963    0.82545    0.00822    1.000
    O19      O        0.61300    0.98770    0.64470    1.000
    O20      O        0.58090    0.97330    0.71130    1.000
    O21      O        0.47830    0.22530    0.75800    1.000
    O22      O        0.47310    0.36080    0.72240    1.000
    O23      O        0.44980    0.20130    0.36680    1.000
    O24      O        0.55140    0.16590    0.37260    1.000
    O25      O        0.81500    0.27390    0.56460    1.000
    O26      O        0.82280    0.31140    0.64900    1.000
    O27      O        0.55770    0.32720    0.58530    1.000
    O28      O        0.66700    0.80150    0.78440    1.000
    O29      O        0.72420    0.83660    0.73970    1.000
    O30      O        0.99940    0.77580    0.85980    1.000
    O31      O        0.07090    0.77320    0.96530    1.000
    O32      O        0.00180    0.66840    0.24070    1.000
    O33      O        0.04010    0.80490    0.27780    1.000
    O34      O        0.91790    0.05830    0.13480    1.000
    O35      O        0.86430    0.04760    0.03140    1.000
    O36      O        0.87580    0.70290    0.00510    1.000
    C33      C        0.55390    0.26630    0.62230    1.000
    C34      C        0.57360    0.17350    0.62750    1.000
    H13      H        0.59170    0.15050    0.60580    1.000
    C35      C        0.56560    0.11760    0.66530    1.000
    C36      C        0.53660    0.15040    0.69650    1.000
    H14      H        0.53040    0.11130    0.72090    1.000
    C37      C        0.51730    0.23920    0.69140    1.000
    C38      C        0.52480    0.29790    0.65300    1.000
    H15      H        0.50990    0.35840    0.64840    1.000
    C39      C        0.58740    0.01710    0.67400    1.000
    C40      C        0.48710    0.27650    0.72570    1.000
    C41      C        0.58860    0.29610    0.55430    1.000
    C42      C        0.54020    0.26610    0.49260    1.000
    H16      H        0.48750    0.26570    0.47140    1.000
    C43      C        0.57100    0.23670    0.46220    1.000
    C44      C        0.65230    0.24420    0.49470    1.000
    H17      H        0.67390    0.22520    0.47490    1.000
    C45      C        0.69780    0.27930    0.55480    1.000
    C46      C        0.66630    0.30540    0.58560    1.000
    H18      H        0.69720    0.32870    0.62670    1.000
    C47      C        0.52320    0.19960    0.39890    1.000
    C48      C        0.78390    0.28850    0.59210    1.000
    C49      C        0.87370    0.73570    0.95450    1.000
    C50      C        0.80200    0.75760    0.89750    1.000
    H19      H        0.75730    0.75460    0.89440    1.000
    C51      C        0.80080    0.78430    0.84550    1.000
    C52      C        0.86570    0.78830    0.84990    1.000
    H20      H        0.86320    0.80670    0.81480    1.000
    C53      C        0.93600    0.76520    0.90590    1.000
    C54      C        0.94060    0.74240    0.95920    1.000
    H21      H        0.98800    0.73160    0.99780    1.000
    C55      C        0.72460    0.81110    0.78470    1.000
    C56      C        0.00850    0.77390    0.91000    1.000
    C57      C        0.89990    0.76390    0.05350    1.000
    C58      C        0.93760    0.72980    0.11480    1.000
    H22      H        0.94610    0.66750    0.12190    1.000
    C59      C        0.96250    0.78760    0.16560    1.000
    C60      C        0.95070    0.87970    0.15570    1.000
    H23      H        0.96810    0.91830    0.18990    1.000
    C61      C        0.91280    0.91580    0.09480    1.000
    C62      C        0.88780    0.85750    0.04250    1.000
    H24      H        0.86390    0.88110    0.00190    1.000
    C63      C        0.00450    0.75300    0.23250    1.000
    C64      C        0.89720    0.01770    0.08620    1.000
    Co9      Co       0.64748    0.64316    0.14220    1.000
    Co10     Co       0.55930    0.65727    0.21735    1.000
    Co11     Co       0.07371    0.68903    0.34084    1.000
    Co12     Co       0.17963    0.67455    0.50822    1.000
    O37      O        0.61300    0.51230    0.14470    1.000
    O38      O        0.58090    0.52670    0.21130    1.000
    O39      O        0.47830    0.27470    0.25800    1.000
    O40      O        0.47310    0.13920    0.22240    1.000
    O41      O        0.44980    0.29870    0.86680    1.000
    O42      O        0.55140    0.33410    0.87260    1.000
    O43      O        0.81500    0.22610    0.06460    1.000
    O44      O        0.82280    0.18860    0.14900    1.000
    O45      O        0.55770    0.17280    0.08530    1.000
    O46      O        0.66700    0.69850    0.28440    1.000
    O47      O        0.72420    0.66340    0.23970    1.000
    O48      O        0.99940    0.72420    0.35980    1.000
    O49      O        0.07090    0.72680    0.46530    1.000
    O50      O        0.00180    0.83160    0.74070    1.000
    O51      O        0.04010    0.69510    0.77780    1.000
    O52      O        0.91790    0.44170    0.63480    1.000
    O53      O        0.86430    0.45240    0.53140    1.000
    O54      O        0.87580    0.79710    0.50510    1.000
    C65      C        0.55390    0.23370    0.12230    1.000
    C66      C        0.57360    0.32650    0.12750    1.000
    H25      H        0.59170    0.34950    0.10580    1.000
    C67      C        0.56560    0.38240    0.16530    1.000
    C68      C        0.53660    0.34960    0.19650    1.000
    H26      H        0.53040    0.38870    0.22090    1.000
    C69      C        0.51730    0.26080    0.19140    1.000
    C70      C        0.52480    0.20210    0.15300    1.000
    H27      H        0.50990    0.14160    0.14840    1.000
    C71      C        0.58740    0.48290    0.17400    1.000
    C72      C        0.48710    0.22350    0.22570    1.000
    C73      C        0.58860    0.20390    0.05430    1.000
    C74      C        0.54020    0.23390    0.99260    1.000
    H28      H        0.48750    0.23430    0.97140    1.000
    C75      C        0.57100    0.26330    0.96220    1.000
    C76      C        0.65230    0.25580    0.99470    1.000
    H29      H        0.67390    0.27480    0.97490    1.000
    C77      C        0.69780    0.22070    0.05480    1.000
    C78      C        0.66630    0.19460    0.08560    1.000
    H30      H        0.69720    0.17130    0.12670    1.000
    C79      C        0.52320    0.30040    0.89890    1.000
    C80      C        0.78390    0.21150    0.09210    1.000
    C81      C        0.87370    0.76430    0.45450    1.000
    C82      C        0.80200    0.74240    0.39750    1.000
    H31      H        0.75730    0.74540    0.39440    1.000
    C83      C        0.80080    0.71570    0.34550    1.000
    C84      C        0.86570    0.71170    0.34990    1.000
    H32      H        0.86320    0.69330    0.31480    1.000
    C85      C        0.93600    0.73480    0.40590    1.000
    C86      C        0.94060    0.75760    0.45920    1.000
    H33      H        0.98800    0.76840    0.49780    1.000
    C87      C        0.72460    0.68890    0.28470    1.000
    C88      C        0.00850    0.72610    0.41000    1.000
    C89      C        0.89990    0.73610    0.55350    1.000
    C90      C        0.93760    0.77020    0.61480    1.000
    H34      H        0.94610    0.83250    0.62190    1.000
    C91      C        0.96250    0.71240    0.66560    1.000
    C92      C        0.95070    0.62030    0.65570    1.000
    H35      H        0.96810    0.58170    0.68990    1.000
    C93      C        0.91280    0.58420    0.59480    1.000
    C94      C        0.88780    0.64250    0.54250    1.000
    H36      H        0.86390    0.61890    0.50190    1.000
    C95      C        0.00450    0.74700    0.73250    1.000
    C96      C        0.89720    0.48230    0.58620    1.000
    Co13     Co       0.35252    0.14316    0.35780    1.000
    Co14     Co       0.44070    0.15727    0.28265    1.000
    Co15     Co       0.92629    0.18903    0.15916    1.000
    Co16     Co       0.82037    0.17455    0.99178    1.000
    O55      O        0.38700    0.01230    0.35530    1.000
    O56      O        0.41910    0.02670    0.28870    1.000
    O57      O        0.52170    0.77470    0.24200    1.000
    O58      O        0.52690    0.63920    0.27760    1.000
    O59      O        0.55020    0.79870    0.63320    1.000
    O60      O        0.44860    0.83410    0.62740    1.000
    O61      O        0.18500    0.72610    0.43540    1.000
    O62      O        0.17720    0.68860    0.35100    1.000
    O63      O        0.44230    0.67280    0.41470    1.000
    O64      O        0.33300    0.19850    0.21560    1.000
    O65      O        0.27580    0.16340    0.26030    1.000
    O66      O        0.00060    0.22420    0.14020    1.000
    O67      O        0.92910    0.22680    0.03470    1.000
    O68      O        0.99820    0.33160    0.75930    1.000
    O69      O        0.95990    0.19510    0.72220    1.000
    O70      O        0.08210    0.94170    0.86520    1.000
    O71      O        0.13570    0.95240    0.96860    1.000
    O72      O        0.12420    0.29710    0.99490    1.000
    C97      C        0.44610    0.73370    0.37770    1.000
    C98      C        0.42640    0.82650    0.37250    1.000
    H37      H        0.40830    0.84950    0.39420    1.000
    C99      C        0.43440    0.88240    0.33470    1.000
    C100     C        0.46340    0.84960    0.30350    1.000
    H38      H        0.46960    0.88870    0.27910    1.000
    C101     C        0.48270    0.76080    0.30860    1.000
    C102     C        0.47520    0.70210    0.34700    1.000
    H39      H        0.49010    0.64160    0.35160    1.000
    C103     C        0.41260    0.98290    0.32600    1.000
    C104     C        0.51290    0.72350    0.27430    1.000
    C105     C        0.41140    0.70390    0.44570    1.000
    C106     C        0.45980    0.73390    0.50740    1.000
    H40      H        0.51250    0.73430    0.52860    1.000
    C107     C        0.42900    0.76330    0.53780    1.000
    C108     C        0.34770    0.75580    0.50530    1.000
    H41      H        0.32610    0.77480    0.52510    1.000
    C109     C        0.30220    0.72070    0.44520    1.000
    C110     C        0.33370    0.69460    0.41440    1.000
    H42      H        0.30280    0.67130    0.37330    1.000
    C111     C        0.47680    0.80040    0.60110    1.000
    C112     C        0.21610    0.71150    0.40790    1.000
    C113     C        0.12630    0.26430    0.04550    1.000
    C114     C        0.19800    0.24240    0.10250    1.000
    H43      H        0.24270    0.24540    0.10560    1.000
    C115     C        0.19920    0.21570    0.15450    1.000
    C116     C        0.13430    0.21170    0.15010    1.000
    H44      H        0.13680    0.19330    0.18520    1.000
    C117     C        0.06400    0.23480    0.09410    1.000
    C118     C        0.05940    0.25760    0.04080    1.000
    H45      H        0.01200    0.26840    0.00220    1.000
    C119     C        0.27540    0.18890    0.21530    1.000
    C120     C        0.99150    0.22610    0.09000    1.000
    C121     C        0.10010    0.23610    0.94650    1.000
    C122     C        0.06240    0.27020    0.88520    1.000
    H46      H        0.05390    0.33250    0.87810    1.000
    C123     C        0.03750    0.21240    0.83440    1.000
    C124     C        0.04930    0.12030    0.84430    1.000
    H47      H        0.03190    0.08170    0.81010    1.000
    C125     C        0.08720    0.08420    0.90520    1.000
    C126     C        0.11220    0.14250    0.95750    1.000
    H48      H        0.13610    0.11890    0.99810    1.000
    C127     C        0.99550    0.24700    0.76750    1.000
    C128     C        0.10280    0.98230    0.91380    1.000
