data_functionalizedCrystal
_audit_creation_method	'EQeq! by Chris Wilmer'
_symmetry_space_group_name_H-M	'P1'
_symmetry_Int_Tables_number	1
_symmetry_cell_setting	triclinic
loop_
_symmetry_equiv_pos_as_xyz
  x,y,z
_cell_length_a	14.5185
_cell_length_b	21.5702
_cell_length_c	20.6201
_cell_angle_alpha	90
_cell_angle_beta	90
_cell_angle_gamma	90
loop_
_atom_site_label
_atom_site_type_symbol
_atom_site_fract_x
_atom_site_fract_y
_atom_site_fract_z
_atom_site_charge
Mof_Re	Re	0.0951	0.36178	0.55917	0.446
Mof_S 	S 	0.1294	0.26452	0.51164	-0.296
Mof_N 	N 	0.1468	0.3415	0.3458	-0.215
Mof_N 	N 	0.2669	0.3309	0.6548	-0.121
Mof_N 	N 	0.1195	0.4932	0.6356	-0.128
Mof_N 	N 	0.2608	0.414	0.4678	-0.228
Mof_N 	N 	0.148	0.1926	0.6795	-0.21
Mof_C 	C 	0.0948	0.3306	0.3865	-0.03
Mof_C 	C 	0.206	0.3416	0.6213	-0.063
Mof_C 	C 	0.1109	0.448	0.6061	-0.058
Mof_C 	C 	0.2037	0.3957	0.5007	-0.062
Mof_C 	C 	0.0953	0.2148	0.6452	-0.047
Mof_Re	Re	0.5951	0.86178	0.55917	0.445
Mof_S 	S 	0.6294	0.76452	0.51164	-0.293
Mof_N 	N 	0.6468	0.8415	0.3458	-0.212
Mof_N 	N 	0.7669	0.8309	0.6548	-0.112
Mof_N 	N 	0.6195	0.9932	0.6356	-0.089
Mof_N 	N 	0.7608	0.914	0.4678	-0.185
Mof_N 	N 	0.648	0.6926	0.6795	-0.212
Mof_C 	C 	0.5948	0.8306	0.3865	-0.02
Mof_C 	C 	0.706	0.8416	0.6213	-0.052
Mof_C 	C 	0.6109	0.948	0.6061	-0.033
Mof_C 	C 	0.7037	0.8957	0.5007	-0.04
Mof_C 	C 	0.5953	0.7148	0.6452	-0.047
Mof_Re	Re	0.9049	0.63822	0.05917	0.409
Mof_S 	S 	0.8706	0.73548	0.01164	-0.358
Mof_N 	N 	0.8532	0.6585	0.8458	-0.211
Mof_N 	N 	0.7331	0.6691	0.1548	-0.125
Mof_N 	N 	0.8805	0.5068	0.1356	-0.13
Mof_N 	N 	0.7392	0.586	0.9678	-0.157
Mof_N 	N 	0.852	0.8074	0.1795	-0.211
Mof_C 	C 	0.9052	0.6694	0.8865	-0.035
Mof_C 	C 	0.794	0.6584	0.1213	-0.06
Mof_C 	C 	0.8891	0.552	0.1061	-0.07
Mof_C 	C 	0.7963	0.6043	0.0007	-0.146
Mof_C 	C 	0.9047	0.7852	0.1452	-0.048
Mof_Re	Re	0.4049	0.13822	0.05917	0.425
Mof_S 	S 	0.3706	0.23548	0.01164	-0.356
Mof_N 	N 	0.3532	0.1585	0.8458	-0.215
Mof_N 	N 	0.2331	0.1691	0.1548	-0.125
Mof_N 	N 	0.3805	0.0068	0.1356	-0.159
Mof_N 	N 	0.2392	0.086	0.9678	-0.158
Mof_N 	N 	0.352	0.3074	0.1795	-0.213
Mof_C 	C 	0.4052	0.1694	0.8865	-0.034
Mof_C 	C 	0.294	0.1584	0.1213	-0.062
Mof_C 	C 	0.3891	0.052	0.1061	-0.083
Mof_C 	C 	0.2963	0.1043	0.0007	-0.16
Mof_C 	C 	0.4047	0.2852	0.1452	-0.046
Mof_Re	Re	0.9049	0.36178	0.94083	0.457
Mof_S 	S 	0.8706	0.26452	0.98836	-0.232
Mof_N 	N 	0.8532	0.3415	0.1542	-0.216
Mof_N 	N 	0.7331	0.3309	0.8452	-0.116
Mof_N 	N 	0.8805	0.4932	0.8644	-0.127
Mof_N 	N 	0.7392	0.414	0.0322	-0.276
Mof_N 	N 	0.852	0.1926	0.8205	-0.207
Mof_C 	C 	0.9052	0.3306	0.1135	-0.045
Mof_C 	C 	0.794	0.3416	0.8787	-0.061
Mof_C 	C 	0.8891	0.448	0.8939	-0.053
Mof_C 	C 	0.7963	0.3957	0.9993	0.031
Mof_C 	C 	0.9047	0.2148	0.8548	-0.055
Mof_Re	Re	0.4049	0.86178	0.94083	0.469
Mof_S 	S 	0.3706	0.76452	0.98836	-0.227
Mof_N 	N 	0.3532	0.8415	0.1542	-0.214
Mof_N 	N 	0.2331	0.8309	0.8452	-0.106
Mof_N 	N 	0.3805	0.9932	0.8644	-0.088
Mof_N 	N 	0.2392	0.914	0.0322	-0.239
Mof_N 	N 	0.352	0.6926	0.8205	-0.21
Mof_C 	C 	0.4052	0.8306	0.1135	-0.024
Mof_C 	C 	0.294	0.8416	0.8787	-0.051
Mof_C 	C 	0.3891	0.948	0.8939	-0.025
Mof_C 	C 	0.2963	0.8957	0.9993	0.046
Mof_C 	C 	0.4047	0.7148	0.8548	-0.045
Mof_Re	Re	0.0951	0.63822	0.44083	0.447
Mof_S 	S 	0.1294	0.73548	0.48836	-0.292
Mof_N 	N 	0.1468	0.6585	0.6542	-0.215
Mof_N 	N 	0.2669	0.6691	0.3452	-0.123
Mof_N 	N 	0.1195	0.5068	0.3644	-0.127
Mof_N 	N 	0.2608	0.586	0.5322	-0.228
Mof_N 	N 	0.148	0.8074	0.3205	-0.211
Mof_C 	C 	0.0948	0.6694	0.6135	-0.029
Mof_C 	C 	0.206	0.6584	0.3787	-0.064
Mof_C 	C 	0.1109	0.552	0.3939	-0.059
Mof_C 	C 	0.2037	0.6043	0.4993	-0.062
Mof_C 	C 	0.0953	0.7852	0.3548	-0.038
Mof_Re	Re	0.5951	0.13822	0.44083	0.45
Mof_S 	S 	0.6294	0.23548	0.48836	-0.293
Mof_N 	N 	0.6468	0.1585	0.6542	-0.217
Mof_N 	N 	0.7669	0.1691	0.3452	-0.124
Mof_N 	N 	0.6195	0.0068	0.3644	-0.158
Mof_N 	N 	0.7608	0.086	0.5322	-0.222
Mof_N 	N 	0.648	0.3074	0.3205	-0.212
Mof_C 	C 	0.5948	0.1694	0.6135	-0.039
Mof_C 	C 	0.706	0.1584	0.3787	-0.064
Mof_C 	C 	0.6109	0.052	0.3939	-0.075
Mof_C 	C 	0.7037	0.1043	0.4993	-0.072
Mof_C 	C 	0.5953	0.2852	0.3548	-0.048
Mof_Re	Re	0.9049	0.63822	0.44083	0.432
Mof_S 	S 	0.8706	0.73548	0.48836	-0.298
Mof_N 	N 	0.8532	0.6585	0.6542	-0.214
Mof_N 	N 	0.7331	0.6691	0.3452	-0.123
Mof_N 	N 	0.8805	0.5068	0.3644	-0.13
Mof_N 	N 	0.7392	0.586	0.5322	-0.228
Mof_N 	N 	0.852	0.8074	0.3205	-0.21
Mof_C 	C 	0.9052	0.6694	0.6135	-0.04
Mof_C 	C 	0.794	0.6584	0.3787	-0.063
Mof_C 	C 	0.8891	0.552	0.3939	-0.064
Mof_C 	C 	0.7963	0.6043	0.4993	-0.062
Mof_C 	C 	0.9047	0.7852	0.3548	-0.049
Mof_Re	Re	0.4049	0.13822	0.44083	0.45
Mof_S 	S 	0.3706	0.23548	0.48836	-0.294
Mof_N 	N 	0.3532	0.1585	0.6542	-0.218
Mof_N 	N 	0.2331	0.1691	0.3452	-0.123
Mof_N 	N 	0.3805	0.0068	0.3644	-0.159
Mof_N 	N 	0.2392	0.086	0.5322	-0.231
Mof_N 	N 	0.352	0.3074	0.3205	-0.212
Mof_C 	C 	0.4052	0.1694	0.6135	-0.039
Mof_C 	C 	0.294	0.1584	0.3787	-0.065
Mof_C 	C 	0.3891	0.052	0.3939	-0.077
Mof_C 	C 	0.2963	0.1043	0.4993	-0.073
Mof_C 	C 	0.4047	0.2852	0.3548	-0.048
Mof_Re	Re	0.0951	0.36178	0.94083	0.471
Mof_S 	S 	0.1294	0.26452	0.98836	-0.226
Mof_N 	N 	0.1468	0.3415	0.1542	-0.216
Mof_N 	N 	0.2669	0.3309	0.8452	-0.115
Mof_N 	N 	0.1195	0.4932	0.8644	-0.124
Mof_N 	N 	0.2608	0.414	0.0322	-0.276
Mof_N 	N 	0.148	0.1926	0.8205	-0.208
Mof_C 	C 	0.0948	0.3306	0.1135	-0.034
Mof_C 	C 	0.206	0.3416	0.8787	-0.061
Mof_C 	C 	0.1109	0.448	0.8939	-0.048
Mof_C 	C 	0.2037	0.3957	0.9993	0.03
Mof_C 	C 	0.0953	0.2148	0.8548	-0.045
Mof_Re	Re	0.5951	0.86178	0.94083	0.469
Mof_S 	S 	0.6294	0.76452	0.98836	-0.226
Mof_N 	N 	0.6468	0.8415	0.1542	-0.214
Mof_N 	N 	0.7669	0.8309	0.8452	-0.107
Mof_N 	N 	0.6195	0.9932	0.8644	-0.087
Mof_N 	N 	0.7608	0.914	0.0322	-0.23
Mof_N 	N 	0.648	0.6926	0.8205	-0.21
Mof_C 	C 	0.5948	0.8306	0.1135	-0.024
Mof_C 	C 	0.706	0.8416	0.8787	-0.05
Mof_C 	C 	0.6109	0.948	0.8939	-0.023
Mof_C 	C 	0.7037	0.8957	0.9993	0.048
Mof_C 	C 	0.5953	0.7148	0.8548	-0.045
Mof_Re	Re	0.0951	0.63822	0.05917	0.423
Mof_S 	S 	0.1294	0.73548	0.01164	-0.352
Mof_N 	N 	0.1468	0.6585	0.8458	-0.211
Mof_N 	N 	0.2669	0.6691	0.1548	-0.125
Mof_N 	N 	0.1195	0.5068	0.1356	-0.127
Mof_N 	N 	0.2608	0.586	0.9678	-0.157
Mof_N 	N 	0.148	0.8074	0.1795	-0.212
Mof_C 	C 	0.0948	0.6694	0.8865	-0.024
Mof_C 	C 	0.206	0.6584	0.1213	-0.06
Mof_C 	C 	0.1109	0.552	0.1061	-0.064
Mof_C 	C 	0.2037	0.6043	0.0007	-0.146
Mof_C 	C 	0.0953	0.7852	0.1452	-0.037
Mof_Re	Re	0.5951	0.13822	0.05917	0.425
Mof_S 	S 	0.6294	0.23548	0.01164	-0.356
Mof_N 	N 	0.6468	0.1585	0.8458	-0.214
Mof_N 	N 	0.7669	0.1691	0.1548	-0.126
Mof_N 	N 	0.6195	0.0068	0.1356	-0.158
Mof_N 	N 	0.7608	0.086	0.9678	-0.149
Mof_N 	N 	0.648	0.3074	0.1795	-0.212
Mof_C 	C 	0.5948	0.1694	0.8865	-0.034
Mof_C 	C 	0.706	0.1584	0.1213	-0.06
Mof_C 	C 	0.6109	0.052	0.1061	-0.081
Mof_C 	C 	0.7037	0.1043	0.0007	-0.158
Mof_C 	C 	0.5953	0.2852	0.1452	-0.046
Mof_Re	Re	0.9049	0.36178	0.55917	0.433
Mof_S 	S 	0.8706	0.26452	0.51164	-0.301
Mof_N 	N 	0.8532	0.3415	0.3458	-0.214
Mof_N 	N 	0.7331	0.3309	0.6548	-0.121
Mof_N 	N 	0.8805	0.4932	0.6356	-0.13
Mof_N 	N 	0.7392	0.414	0.4678	-0.228
Mof_N 	N 	0.852	0.1926	0.6795	-0.209
Mof_C 	C 	0.9052	0.3306	0.3865	-0.041
Mof_C 	C 	0.794	0.3416	0.6213	-0.062
Mof_C 	C 	0.8891	0.448	0.6061	-0.064
Mof_C 	C 	0.7963	0.3957	0.5007	-0.062
Mof_C 	C 	0.9047	0.2148	0.6452	-0.058
Mof_Re	Re	0.4049	0.86178	0.55917	0.445
Mof_S 	S 	0.3706	0.76452	0.51164	-0.293
Mof_N 	N 	0.3532	0.8415	0.3458	-0.212
Mof_N 	N 	0.2331	0.8309	0.6548	-0.111
Mof_N 	N 	0.3805	0.9932	0.6356	-0.09
Mof_N 	N 	0.2392	0.914	0.4678	-0.194
Mof_N 	N 	0.352	0.6926	0.6795	-0.213
Mof_C 	C 	0.4052	0.8306	0.3865	-0.02
Mof_C 	C 	0.294	0.8416	0.6213	-0.053
Mof_C 	C 	0.3891	0.948	0.6061	-0.035
Mof_C 	C 	0.2963	0.8957	0.5007	-0.041
Mof_C 	C 	0.4047	0.7148	0.6452	-0.047
Mof_Re	Re	-5.37403e-33	0.30712	0.45901	0.448
Mof_Re	Re	-1.25497e-32	0.25294	0.5797	0.449
Mof_S 	S 	-1.21786e-32	0.33973	0.64939	-0.266
Mof_S 	S 	-5.24511e-33	0.41616	0.48322	-0.261
Mof_N 	N 	1.9948e-33	0.181	0.3746	-0.148
Mof_N 	N 	-4.96352e-33	0.1086	0.5361	-0.341
Mof_C 	C 	-5.65632e-33	0.224	0.406	-0.051
Mof_C 	C 	2.92403e-33	0.1607	0.5491	-0.054
Mof_Re	Re	0.5	0.80712	0.45901	0.431
Mof_Re	Re	0.5	0.75294	0.5797	0.435
Mof_S 	S 	0.5	0.83973	0.64939	-0.27
Mof_S 	S 	0.5	0.91616	0.48322	-0.214
Mof_N 	N 	0.5	0.681	0.3746	-0.152
Mof_N 	N 	0.5	0.6086	0.5361	-0.368
Mof_C 	C 	0.5	0.724	0.406	-0.057
Mof_C 	C 	0.5	0.6607	0.5491	-0.055
Mof_Re	Re	-1.05298e-32	0.69288	0.95901	0.525
Mof_Re	Re	4.33358e-33	0.74706	0.0797	0.448
Mof_S 	S 	4.70468e-33	0.66027	0.14939	-0.264
Mof_S 	S 	5.23578e-33	0.58384	0.98322	-0.186
Mof_N 	N 	4.65736e-33	0.819	0.8746	-0.12
Mof_N 	N 	-2.86378e-32	0.8914	0.0361	-0.293
Mof_C 	C 	2.04612e-32	0.776	0.906	-0.029
Mof_C 	C 	-6.09092e-33	0.8393	0.0491	-0.057
Mof_Re	Re	0.5	0.19288	0.95901	0.522
Mof_Re	Re	0.5	0.24706	0.0797	0.436
Mof_S 	S 	0.5	0.16027	0.14939	-0.278
Mof_S 	S 	0.5	0.08384	0.98322	-0.242
Mof_N 	N 	0.5	0.319	0.8746	-0.14
Mof_N 	N 	0.5	0.3914	0.0361	-0.356
Mof_C 	C 	0.5	0.276	0.906	-0.036
Mof_C 	C 	0.5	0.3393	0.0491	-0.069
Mof_Re	Re	1.68421e-33	0.30712	0.04099	0.368
Mof_Re	Re	-1.07359e-32	0.25294	0.9203	0.451
Mof_S 	S 	-1.1107e-32	0.33973	0.85061	-0.27
Mof_S 	S 	-1.6209e-33	0.41616	0.01678	-0.333
Mof_N 	N 	-1.28681e-33	0.181	0.1254	-0.148
Mof_N 	N 	5.1329e-33	0.1086	0.9639	-0.302
Mof_C 	C 	1.47785e-33	0.224	0.094	-0.067
Mof_C 	C 	-1.0573e-32	0.1607	0.9509	-0.038
Mof_Re	Re	0.5	0.80712	0.04099	0.352
Mof_Re	Re	0.5	0.75294	0.9203	0.438
Mof_S 	S 	0.5	0.83973	0.85061	-0.274
Mof_S 	S 	0.5	0.91616	0.01678	-0.285
Mof_N 	N 	0.5	0.681	0.1254	-0.152
Mof_N 	N 	0.5	0.6086	0.9639	-0.329
Mof_C 	C 	0.5	0.724	0.094	-0.073
Mof_C 	C 	0.5	0.6607	0.9509	-0.04
Mof_Re	Re	-4.93748e-33	0.69288	0.54099	0.447
Mof_Re	Re	-5.58017e-33	0.74706	0.4203	0.449
Mof_S 	S 	-5.95128e-33	0.66027	0.35061	-0.267
Mof_S 	S 	1.05702e-32	0.58384	0.51678	-0.261
Mof_N 	N 	1.11487e-32	0.819	0.6254	-0.129
Mof_N 	N 	-2.09846e-32	0.8914	0.4639	-0.305
Mof_C 	C 	1.09815e-32	0.776	0.594	-0.048
Mof_C 	C 	-1.32355e-32	0.8393	0.4509	-0.044
Mof_Re	Re	0.5	0.19288	0.54099	0.44
Mof_Re	Re	0.5	0.24706	0.4203	0.437
Mof_S 	S 	0.5	0.16027	0.35061	-0.282
Mof_S 	S 	0.5	0.08384	0.51678	-0.322
Mof_N 	N 	0.5	0.319	0.6254	-0.15
Mof_N 	N 	0.5	0.3914	0.4639	-0.368
Mof_C 	C 	0.5	0.276	0.594	-0.057
Mof_C 	C 	0.5	0.3393	0.4509	-0.055
Mof_Er	Er	0.23821	0.35683	0.25	1.021
Mof_Er	Er	0.73821	0.85683	0.25	1.098
Mof_Er	Er	0.76179	0.64317	0.75	1.026
Mof_Er	Er	0.26179	0.14317	0.75	0.98
Mof_Er	Er	0.76179	0.35683	0.25	1.014
Mof_Er	Er	0.26179	0.85683	0.25	1.102
Mof_Er	Er	0.23821	0.64317	0.75	1.033
Mof_Er	Er	0.73821	0.14317	0.75	0.976
Mof_K 	K 	0.4092	0.5	0.5	1.324
Mof_K 	K 	0.9092	0	0.5	1.044
Mof_K 	K 	0.5908	0.5	-0	1.2
Mof_K 	K 	0.0908	0	-0	1.098
Mof_K 	K 	0.5908	0.5	0.5	1.32
Mof_K 	K 	0.0908	0	0.5	1.217
Mof_K 	K 	0.4092	0.5	-0	1.204
Mof_K 	K 	0.9092	0	-0	0.923
_end
