# CIF file generated by openbabel 3.1.0, see https://openbabel.org
data_I
_chemical_name_common 'image0'
_cell_length_a 20.6571
_cell_length_b 20.6571
_cell_length_c 17.84
_cell_angle_alpha 90
_cell_angle_beta 90
_cell_angle_gamma 90
_space_group_name_H-M_alt 'P 1'
_space_group_name_Hall 'P 1'
loop_
    _symmetry_equiv_pos_as_xyz
    x,y,z
loop_
    _atom_site_label
    _atom_site_type_symbol
    _atom_site_fract_x
    _atom_site_fract_y
    _atom_site_fract_z
    _atom_site_occupancy
    Zn1      Zn       0.24525    0.37745    0.00000    1.000
    O1       O        0.26040    0.33640    0.16070    1.000
    O2       O        0.31130    0.32380    0.05140    1.000
    O3       O        0.55900    0.16710    0.13690    1.000
    O4       O        0.53930    0.24630    0.05290    1.000
    O5       O        0.44780    0.18900    0.38360    1.000
    O6       O        0.37130    0.26480    0.39350    1.000
    C1       C        0.36250    0.28360    0.15860    1.000
    C2       C        0.41620    0.26460    0.11890    1.000
    C3       C        0.46680    0.23230    0.15360    1.000
    C4       C        0.46360    0.21880    0.23070    1.000
    C5       C        0.41050    0.24020    0.27170    1.000
    C6       C        0.36020    0.27230    0.23760    1.000
    C7       C        0.30610    0.31640    0.12160    1.000
    C8       C        0.52710    0.21180    0.11230    1.000
    C9       C        0.41110    0.22850    0.35600    1.000
    H1       H        0.41840    0.27440    0.06680    1.000
    H2       H        0.49650    0.19330    0.25450    1.000
    H3       H        0.32390    0.28700    0.26610    1.000
    Zn2      Zn       0.74525    0.87745    0.50000    1.000
    O7       O        0.76040    0.83640    0.66070    1.000
    O8       O        0.81130    0.82380    0.55140    1.000
    O9       O        0.05900    0.66710    0.63690    1.000
    O10      O        0.03930    0.74630    0.55290    1.000
    O11      O        0.94780    0.68900    0.88360    1.000
    O12      O        0.87130    0.76480    0.89350    1.000
    C10      C        0.86250    0.78360    0.65860    1.000
    C11      C        0.91620    0.76460    0.61890    1.000
    C12      C        0.96680    0.73230    0.65360    1.000
    C13      C        0.96360    0.71880    0.73070    1.000
    C14      C        0.91050    0.74020    0.77170    1.000
    C15      C        0.86020    0.77230    0.73760    1.000
    C16      C        0.80610    0.81640    0.62160    1.000
    C17      C        0.02710    0.71180    0.61230    1.000
    C18      C        0.91110    0.72850    0.85600    1.000
    H4       H        0.91840    0.77440    0.56680    1.000
    H5       H        0.99650    0.69330    0.75450    1.000
    H6       H        0.82390    0.78700    0.76610    1.000
    Zn3      Zn       0.75475    0.62255    0.00000    1.000
    O13      O        0.73960    0.66360    0.16070    1.000
    O14      O        0.68870    0.67620    0.05140    1.000
    O15      O        0.44100    0.83290    0.13690    1.000
    O16      O        0.46070    0.75370    0.05290    1.000
    O17      O        0.55220    0.81100    0.38360    1.000
    O18      O        0.62870    0.73520    0.39350    1.000
    C19      C        0.63750    0.71640    0.15860    1.000
    C20      C        0.58380    0.73540    0.11890    1.000
    C21      C        0.53320    0.76770    0.15360    1.000
    C22      C        0.53640    0.78120    0.23070    1.000
    C23      C        0.58950    0.75980    0.27170    1.000
    C24      C        0.63980    0.72770    0.23760    1.000
    C25      C        0.69390    0.68360    0.12160    1.000
    C26      C        0.47290    0.78820    0.11230    1.000
    C27      C        0.58890    0.77150    0.35600    1.000
    H7       H        0.58160    0.72560    0.06680    1.000
    H8       H        0.50350    0.80670    0.25450    1.000
    H9       H        0.67610    0.71300    0.26610    1.000
    Zn4      Zn       0.25475    0.12255    0.50000    1.000
    O19      O        0.23960    0.16360    0.66070    1.000
    O20      O        0.18870    0.17620    0.55140    1.000
    O21      O        0.94100    0.33290    0.63690    1.000
    O22      O        0.96070    0.25370    0.55290    1.000
    O23      O        0.05220    0.31100    0.88360    1.000
    O24      O        0.12870    0.23520    0.89350    1.000
    C28      C        0.13750    0.21640    0.65860    1.000
    C29      C        0.08380    0.23540    0.61890    1.000
    C30      C        0.03320    0.26770    0.65360    1.000
    C31      C        0.03640    0.28120    0.73070    1.000
    C32      C        0.08950    0.25980    0.77170    1.000
    C33      C        0.13980    0.22770    0.73760    1.000
    C34      C        0.19390    0.18360    0.62160    1.000
    C35      C        0.97290    0.28820    0.61230    1.000
    C36      C        0.08890    0.27150    0.85600    1.000
    H10      H        0.08160    0.22560    0.56680    1.000
    H11      H        0.00350    0.30670    0.75450    1.000
    H12      H        0.17610    0.21300    0.76610    1.000
    Zn5      Zn       0.62255    0.24525    0.00000    1.000
    O25      O        0.66360    0.26040    0.16070    1.000
    O26      O        0.67620    0.31130    0.05140    1.000
    O27      O        0.83290    0.55900    0.13690    1.000
    O28      O        0.75370    0.53930    0.05290    1.000
    O29      O        0.81100    0.44780    0.38360    1.000
    O30      O        0.73520    0.37130    0.39350    1.000
    C37      C        0.71640    0.36250    0.15860    1.000
    C38      C        0.73540    0.41620    0.11890    1.000
    C39      C        0.76770    0.46680    0.15360    1.000
    C40      C        0.78120    0.46360    0.23070    1.000
    C41      C        0.75980    0.41050    0.27170    1.000
    C42      C        0.72770    0.36020    0.23760    1.000
    C43      C        0.68360    0.30610    0.12160    1.000
    C44      C        0.78820    0.52710    0.11230    1.000
    C45      C        0.77150    0.41110    0.35600    1.000
    H13      H        0.72560    0.41840    0.06680    1.000
    H14      H        0.80670    0.49650    0.25450    1.000
    H15      H        0.71300    0.32390    0.26610    1.000
    Zn6      Zn       0.12255    0.74525    0.50000    1.000
    O31      O        0.16360    0.76040    0.66070    1.000
    O32      O        0.17620    0.81130    0.55140    1.000
    O33      O        0.33290    0.05900    0.63690    1.000
    O34      O        0.25370    0.03930    0.55290    1.000
    O35      O        0.31100    0.94780    0.88360    1.000
    O36      O        0.23520    0.87130    0.89350    1.000
    C46      C        0.21640    0.86250    0.65860    1.000
    C47      C        0.23540    0.91620    0.61890    1.000
    C48      C        0.26770    0.96680    0.65360    1.000
    C49      C        0.28120    0.96360    0.73070    1.000
    C50      C        0.25980    0.91050    0.77170    1.000
    C51      C        0.22770    0.86020    0.73760    1.000
    C52      C        0.18360    0.80610    0.62160    1.000
    C53      C        0.28820    0.02710    0.61230    1.000
    C54      C        0.27150    0.91110    0.85600    1.000
    H16      H        0.22560    0.91840    0.56680    1.000
    H17      H        0.30670    0.99650    0.75450    1.000
    H18      H        0.21300    0.82390    0.76610    1.000
    Zn7      Zn       0.37745    0.75475    0.00000    1.000
    O37      O        0.33640    0.73960    0.16070    1.000
    O38      O        0.32380    0.68870    0.05140    1.000
    O39      O        0.16710    0.44100    0.13690    1.000
    O40      O        0.24630    0.46070    0.05290    1.000
    O41      O        0.18900    0.55220    0.38360    1.000
    O42      O        0.26480    0.62870    0.39350    1.000
    C55      C        0.28360    0.63750    0.15860    1.000
    C56      C        0.26460    0.58380    0.11890    1.000
    C57      C        0.23230    0.53320    0.15360    1.000
    C58      C        0.21880    0.53640    0.23070    1.000
    C59      C        0.24020    0.58950    0.27170    1.000
    C60      C        0.27230    0.63980    0.23760    1.000
    C61      C        0.31640    0.69390    0.12160    1.000
    C62      C        0.21180    0.47290    0.11230    1.000
    C63      C        0.22850    0.58890    0.35600    1.000
    H19      H        0.27440    0.58160    0.06680    1.000
    H20      H        0.19330    0.50350    0.25450    1.000
    H21      H        0.28700    0.67610    0.26610    1.000
    Zn8      Zn       0.87745    0.25475    0.50000    1.000
    O43      O        0.83640    0.23960    0.66070    1.000
    O44      O        0.82380    0.18870    0.55140    1.000
    O45      O        0.66710    0.94100    0.63690    1.000
    O46      O        0.74630    0.96070    0.55290    1.000
    O47      O        0.68900    0.05220    0.88360    1.000
    O48      O        0.76480    0.12870    0.89350    1.000
    C64      C        0.78360    0.13750    0.65860    1.000
    C65      C        0.76460    0.08380    0.61890    1.000
    C66      C        0.73230    0.03320    0.65360    1.000
    C67      C        0.71880    0.03640    0.73070    1.000
    C68      C        0.74020    0.08950    0.77170    1.000
    C69      C        0.77230    0.13980    0.73760    1.000
    C70      C        0.81640    0.19390    0.62160    1.000
    C71      C        0.71180    0.97290    0.61230    1.000
    C72      C        0.72850    0.08890    0.85600    1.000
    H22      H        0.77440    0.08160    0.56680    1.000
    H23      H        0.69330    0.00350    0.75450    1.000
    H24      H        0.78700    0.17610    0.76610    1.000
    Zn9      Zn       0.24525    0.62255    0.50000    1.000
    O49      O        0.26040    0.66360    0.66070    1.000
    O50      O        0.31130    0.67620    0.55140    1.000
    O51      O        0.55900    0.83290    0.63690    1.000
    O52      O        0.53930    0.75370    0.55290    1.000
    O53      O        0.44780    0.81100    0.88360    1.000
    O54      O        0.37130    0.73520    0.89350    1.000
    C73      C        0.36250    0.71640    0.65860    1.000
    C74      C        0.41620    0.73540    0.61890    1.000
    C75      C        0.46680    0.76770    0.65360    1.000
    C76      C        0.46360    0.78120    0.73070    1.000
    C77      C        0.41050    0.75980    0.77170    1.000
    C78      C        0.36020    0.72770    0.73760    1.000
    C79      C        0.30610    0.68360    0.62160    1.000
    C80      C        0.52710    0.78820    0.61230    1.000
    C81      C        0.41110    0.77150    0.85600    1.000
    H25      H        0.41840    0.72560    0.56680    1.000
    H26      H        0.49650    0.80670    0.75450    1.000
    H27      H        0.32390    0.71300    0.76610    1.000
    Zn10     Zn       0.74525    0.12255    0.00000    1.000
    O55      O        0.76040    0.16360    0.16070    1.000
    O56      O        0.81130    0.17620    0.05140    1.000
    O57      O        0.05900    0.33290    0.13690    1.000
    O58      O        0.03930    0.25370    0.05290    1.000
    O59      O        0.94780    0.31100    0.38360    1.000
    O60      O        0.87130    0.23520    0.39350    1.000
    C82      C        0.86250    0.21640    0.15860    1.000
    C83      C        0.91620    0.23540    0.11890    1.000
    C84      C        0.96680    0.26770    0.15360    1.000
    C85      C        0.96360    0.28120    0.23070    1.000
    C86      C        0.91050    0.25980    0.27170    1.000
    C87      C        0.86020    0.22770    0.23760    1.000
    C88      C        0.80610    0.18360    0.12160    1.000
    C89      C        0.02710    0.28820    0.11230    1.000
    C90      C        0.91110    0.27150    0.35600    1.000
    H28      H        0.91840    0.22560    0.06680    1.000
    H29      H        0.99650    0.30670    0.25450    1.000
    H30      H        0.82390    0.21300    0.26610    1.000
    Zn11     Zn       0.75475    0.37745    0.50000    1.000
    O61      O        0.73960    0.33640    0.66070    1.000
    O62      O        0.68870    0.32380    0.55140    1.000
    O63      O        0.44100    0.16710    0.63690    1.000
    O64      O        0.46070    0.24630    0.55290    1.000
    O65      O        0.55220    0.18900    0.88360    1.000
    O66      O        0.62870    0.26480    0.89350    1.000
    C91      C        0.63750    0.28360    0.65860    1.000
    C92      C        0.58380    0.26460    0.61890    1.000
    C93      C        0.53320    0.23230    0.65360    1.000
    C94      C        0.53640    0.21880    0.73070    1.000
    C95      C        0.58950    0.24020    0.77170    1.000
    C96      C        0.63980    0.27230    0.73760    1.000
    C97      C        0.69390    0.31640    0.62160    1.000
    C98      C        0.47290    0.21180    0.61230    1.000
    C99      C        0.58890    0.22850    0.85600    1.000
    H31      H        0.58160    0.27440    0.56680    1.000
    H32      H        0.50350    0.19330    0.75450    1.000
    H33      H        0.67610    0.28700    0.76610    1.000
    Zn12     Zn       0.25475    0.87745    0.00000    1.000
    O67      O        0.23960    0.83640    0.16070    1.000
    O68      O        0.18870    0.82380    0.05140    1.000
    O69      O        0.94100    0.66710    0.13690    1.000
    O70      O        0.96070    0.74630    0.05290    1.000
    O71      O        0.05220    0.68900    0.38360    1.000
    O72      O        0.12870    0.76480    0.39350    1.000
    C100     C        0.13750    0.78360    0.15860    1.000
    C101     C        0.08380    0.76460    0.11890    1.000
    C102     C        0.03320    0.73230    0.15360    1.000
    C103     C        0.03640    0.71880    0.23070    1.000
    C104     C        0.08950    0.74020    0.27170    1.000
    C105     C        0.13980    0.77230    0.23760    1.000
    C106     C        0.19390    0.81640    0.12160    1.000
    C107     C        0.97290    0.71180    0.11230    1.000
    C108     C        0.08890    0.72850    0.35600    1.000
    H34      H        0.08160    0.77440    0.06680    1.000
    H35      H        0.00350    0.69330    0.25450    1.000
    H36      H        0.17610    0.78700    0.26610    1.000
    Zn13     Zn       0.62255    0.75475    0.50000    1.000
    O73      O        0.66360    0.73960    0.66070    1.000
    O74      O        0.67620    0.68870    0.55140    1.000
    O75      O        0.83290    0.44100    0.63690    1.000
    O76      O        0.75370    0.46070    0.55290    1.000
    O77      O        0.81100    0.55220    0.88360    1.000
    O78      O        0.73520    0.62870    0.89350    1.000
    C109     C        0.71640    0.63750    0.65860    1.000
    C110     C        0.73540    0.58380    0.61890    1.000
    C111     C        0.76770    0.53320    0.65360    1.000
    C112     C        0.78120    0.53640    0.73070    1.000
    C113     C        0.75980    0.58950    0.77170    1.000
    C114     C        0.72770    0.63980    0.73760    1.000
    C115     C        0.68360    0.69390    0.62160    1.000
    C116     C        0.78820    0.47290    0.61230    1.000
    C117     C        0.77150    0.58890    0.85600    1.000
    H37      H        0.72560    0.58160    0.56680    1.000
    H38      H        0.80670    0.50350    0.75450    1.000
    H39      H        0.71300    0.67610    0.76610    1.000
    Zn14     Zn       0.12255    0.25475    0.00000    1.000
    O79      O        0.16360    0.23960    0.16070    1.000
    O80      O        0.17620    0.18870    0.05140    1.000
    O81      O        0.33290    0.94100    0.13690    1.000
    O82      O        0.25370    0.96070    0.05290    1.000
    O83      O        0.31100    0.05220    0.38360    1.000
    O84      O        0.23520    0.12870    0.39350    1.000
    C118     C        0.21640    0.13750    0.15860    1.000
    C119     C        0.23540    0.08380    0.11890    1.000
    C120     C        0.26770    0.03320    0.15360    1.000
    C121     C        0.28120    0.03640    0.23070    1.000
    C122     C        0.25980    0.08950    0.27170    1.000
    C123     C        0.22770    0.13980    0.23760    1.000
    C124     C        0.18360    0.19390    0.12160    1.000
    C125     C        0.28820    0.97290    0.11230    1.000
    C126     C        0.27150    0.08890    0.35600    1.000
    H40      H        0.22560    0.08160    0.06680    1.000
    H41      H        0.30670    0.00350    0.25450    1.000
    H42      H        0.21300    0.17610    0.26610    1.000
    Zn15     Zn       0.37745    0.24525    0.50000    1.000
    O85      O        0.33640    0.26040    0.66070    1.000
    O86      O        0.32380    0.31130    0.55140    1.000
    O87      O        0.16710    0.55900    0.63690    1.000
    O88      O        0.24630    0.53930    0.55290    1.000
    O89      O        0.18900    0.44780    0.88360    1.000
    O90      O        0.26480    0.37130    0.89350    1.000
    C127     C        0.28360    0.36250    0.65860    1.000
    C128     C        0.26460    0.41620    0.61890    1.000
    C129     C        0.23230    0.46680    0.65360    1.000
    C130     C        0.21880    0.46360    0.73070    1.000
    C131     C        0.24020    0.41050    0.77170    1.000
    C132     C        0.27230    0.36020    0.73760    1.000
    C133     C        0.31640    0.30610    0.62160    1.000
    C134     C        0.21180    0.52710    0.61230    1.000
    C135     C        0.22850    0.41110    0.85600    1.000
    H43      H        0.27440    0.41840    0.56680    1.000
    H44      H        0.19330    0.49650    0.75450    1.000
    H45      H        0.28700    0.32390    0.76610    1.000
    Zn16     Zn       0.87745    0.74525    0.00000    1.000
    O91      O        0.83640    0.76040    0.16070    1.000
    O92      O        0.82380    0.81130    0.05140    1.000
    O93      O        0.66710    0.05900    0.13690    1.000
    O94      O        0.74630    0.03930    0.05290    1.000
    O95      O        0.68900    0.94780    0.38360    1.000
    O96      O        0.76480    0.87130    0.39350    1.000
    C136     C        0.78360    0.86250    0.15860    1.000
    C137     C        0.76460    0.91620    0.11890    1.000
    C138     C        0.73230    0.96680    0.15360    1.000
    C139     C        0.71880    0.96360    0.23070    1.000
    C140     C        0.74020    0.91050    0.27170    1.000
    C141     C        0.77230    0.86020    0.23760    1.000
    C142     C        0.81640    0.80610    0.12160    1.000
    C143     C        0.71180    0.02710    0.11230    1.000
    C144     C        0.72850    0.91110    0.35600    1.000
    H46      H        0.77440    0.91840    0.06680    1.000
    H47      H        0.69330    0.99650    0.25450    1.000
    H48      H        0.78700    0.82390    0.26610    1.000
    Zn17     Zn       0.15971    0.34029    0.14506    1.000
    O97      O        0.16230    0.33770    0.02700    1.000
    Zn18     Zn       0.84029    0.65971    0.14506    1.000
    O98      O        0.83770    0.66230    0.02700    1.000
    Zn19     Zn       0.34029    0.15971    0.64506    1.000
    O99      O        0.33770    0.16230    0.52700    1.000
    Zn20     Zn       0.65971    0.15971    0.14506    1.000
    O100     O        0.66230    0.16230    0.02700    1.000
    Zn21     Zn       0.34029    0.84029    0.14506    1.000
    O101     O        0.33770    0.83770    0.02700    1.000
    Zn22     Zn       0.15971    0.65971    0.64506    1.000
    O102     O        0.16230    0.66230    0.52700    1.000
    Zn23     Zn       0.84029    0.34029    0.64506    1.000
    O103     O        0.83770    0.33770    0.52700    1.000
    Zn24     Zn       0.65971    0.84029    0.64506    1.000
    O104     O        0.66230    0.83770    0.52700    1.000
