data_functionalizedCrystal
_audit_creation_method	'EQeq! by Chris Wilmer'
_symmetry_space_group_name_H-M	'P1'
_symmetry_Int_Tables_number	1
_symmetry_cell_setting	triclinic
loop_
_symmetry_equiv_pos_as_xyz
  x,y,z
_cell_length_a	24.969
_cell_length_b	24.969
_cell_length_c	24.969
_cell_angle_alpha	90
_cell_angle_beta	90
_cell_angle_gamma	90
loop_
_atom_site_label
_atom_site_type_symbol
_atom_site_fract_x
_atom_site_fract_y
_atom_site_fract_z
_atom_site_charge
Mof_N 	N 	0.4742	0.0802	0.2434	-0.3
Mof_O 	O 	0.577	0.0654	0.346	-0.881
Mof_O 	O 	0.5195	0.0104	0.307	-0.525
Mof_C 	C 	0.5146	0.0985	0.2773	-0.114
Mof_C 	C 	0.5385	0.0547	0.3136	0.536
Mof_N 	N 	0.9742	0.5802	0.7434	-0.287
Mof_O 	O 	0.077	0.5654	0.846	-0.878
Mof_O 	O 	0.0195	0.5104	0.807	-0.549
Mof_C 	C 	0.0146	0.5985	0.7773	-0.146
Mof_C 	C 	0.0385	0.5547	0.8136	0.549
Mof_N 	N 	0.0258	0.9198	0.7434	-0.3
Mof_O 	O 	0.923	0.9346	0.846	-0.855
Mof_O 	O 	0.9805	0.9896	0.807	-0.436
Mof_C 	C 	0.9854	0.9015	0.7773	-0.064
Mof_C 	C 	0.9615	0.9453	0.8136	0.526
Mof_N 	N 	0.5258	0.4198	0.2434	-0.308
Mof_O 	O 	0.423	0.4346	0.346	-0.875
Mof_O 	O 	0.4805	0.4896	0.307	-0.517
Mof_C 	C 	0.4854	0.4015	0.2773	-0.111
Mof_C 	C 	0.4615	0.4453	0.3136	0.537
Mof_N 	N 	0.5258	0.5802	0.2566	-0.307
Mof_O 	O 	0.423	0.5654	0.154	-0.877
Mof_O 	O 	0.4805	0.5104	0.193	-0.52
Mof_C 	C 	0.4854	0.5985	0.2227	-0.112
Mof_C 	C 	0.4615	0.5547	0.1864	0.537
Mof_N 	N 	0.0258	0.0802	0.7566	-0.319
Mof_O 	O 	0.923	0.0654	0.654	-0.875
Mof_O 	O 	0.9805	0.0104	0.693	-0.493
Mof_C 	C 	0.9854	0.0985	0.7227	-0.078
Mof_C 	C 	0.9615	0.0547	0.6864	0.528
Mof_N 	N 	0.9742	0.4198	0.7566	-0.288
Mof_O 	O 	0.077	0.4346	0.654	-0.881
Mof_O 	O 	0.0195	0.4896	0.693	-0.553
Mof_C 	C 	0.0146	0.4015	0.7227	-0.148
Mof_C 	C 	0.0385	0.4453	0.6864	0.547
Mof_N 	N 	0.4742	0.9198	0.2566	-0.281
Mof_O 	O 	0.577	0.9346	0.154	-0.867
Mof_O 	O 	0.5195	0.9896	0.193	-0.476
Mof_C 	C 	0.5146	0.9015	0.2227	-0.101
Mof_C 	C 	0.5385	0.9453	0.1864	0.532
Mof_N 	N 	0.2434	0.4742	0.0802	-0.301
Mof_O 	O 	0.346	0.577	0.0654	-0.882
Mof_O 	O 	0.307	0.5195	0.0104	-0.526
Mof_C 	C 	0.2773	0.5146	0.0985	-0.115
Mof_C 	C 	0.3136	0.5385	0.0547	0.535
Mof_N 	N 	0.7434	0.9742	0.5802	-0.288
Mof_O 	O 	0.846	0.077	0.5654	-0.879
Mof_O 	O 	0.807	0.0195	0.5104	-0.55
Mof_C 	C 	0.7773	0.0146	0.5985	-0.147
Mof_C 	C 	0.8136	0.0385	0.5547	0.548
Mof_N 	N 	0.7434	0.0258	0.9198	-0.301
Mof_O 	O 	0.846	0.923	0.9346	-0.856
Mof_O 	O 	0.807	0.9805	0.9896	-0.437
Mof_C 	C 	0.7773	0.9854	0.9015	-0.064
Mof_C 	C 	0.8136	0.9615	0.9453	0.526
Mof_N 	N 	0.2434	0.5258	0.4198	-0.308
Mof_O 	O 	0.346	0.423	0.4346	-0.875
Mof_O 	O 	0.307	0.4805	0.4896	-0.517
Mof_C 	C 	0.2773	0.4854	0.4015	-0.111
Mof_C 	C 	0.3136	0.4615	0.4453	0.537
Mof_N 	N 	0.2566	0.5258	0.5802	-0.307
Mof_O 	O 	0.154	0.423	0.5654	-0.877
Mof_O 	O 	0.193	0.4805	0.5104	-0.52
Mof_C 	C 	0.2227	0.4854	0.5985	-0.112
Mof_C 	C 	0.1864	0.4615	0.5547	0.537
Mof_N 	N 	0.7566	0.0258	0.0802	-0.319
Mof_O 	O 	0.654	0.923	0.0654	-0.875
Mof_O 	O 	0.693	0.9805	0.0104	-0.493
Mof_C 	C 	0.7227	0.9854	0.0985	-0.078
Mof_C 	C 	0.6864	0.9615	0.0547	0.528
Mof_N 	N 	0.7566	0.9742	0.4198	-0.288
Mof_O 	O 	0.654	0.077	0.4346	-0.881
Mof_O 	O 	0.693	0.0195	0.4896	-0.553
Mof_C 	C 	0.7227	0.0146	0.4015	-0.148
Mof_C 	C 	0.6864	0.0385	0.4453	0.547
Mof_N 	N 	0.2566	0.4742	0.9198	-0.281
Mof_O 	O 	0.154	0.577	0.9346	-0.867
Mof_O 	O 	0.193	0.5195	0.9896	-0.476
Mof_C 	C 	0.2227	0.5146	0.9015	-0.101
Mof_C 	C 	0.1864	0.5385	0.9453	0.532
Mof_N 	N 	0.0802	0.2434	0.4742	-0.301
Mof_O 	O 	0.0654	0.346	0.577	-0.882
Mof_O 	O 	0.0104	0.307	0.5195	-0.526
Mof_C 	C 	0.0985	0.2773	0.5146	-0.115
Mof_C 	C 	0.0547	0.3136	0.5385	0.535
Mof_N 	N 	0.5802	0.7434	0.9742	-0.288
Mof_O 	O 	0.5654	0.846	0.077	-0.879
Mof_O 	O 	0.5104	0.807	0.0195	-0.55
Mof_C 	C 	0.5985	0.7773	0.0146	-0.147
Mof_C 	C 	0.5547	0.8136	0.0385	0.548
Mof_N 	N 	0.9198	0.7434	0.0258	-0.301
Mof_O 	O 	0.9346	0.846	0.923	-0.856
Mof_O 	O 	0.9896	0.807	0.9805	-0.437
Mof_C 	C 	0.9015	0.7773	0.9854	-0.064
Mof_C 	C 	0.9453	0.8136	0.9615	0.526
Mof_N 	N 	0.4198	0.2434	0.5258	-0.308
Mof_O 	O 	0.4346	0.346	0.423	-0.875
Mof_O 	O 	0.4896	0.307	0.4805	-0.517
Mof_C 	C 	0.4015	0.2773	0.4854	-0.111
Mof_C 	C 	0.4453	0.3136	0.4615	0.537
Mof_N 	N 	0.5802	0.2566	0.5258	-0.307
Mof_O 	O 	0.5654	0.154	0.423	-0.877
Mof_O 	O 	0.5104	0.193	0.4805	-0.52
Mof_C 	C 	0.5985	0.2227	0.4854	-0.112
Mof_C 	C 	0.5547	0.1864	0.4615	0.537
Mof_N 	N 	0.0802	0.7566	0.0258	-0.319
Mof_O 	O 	0.0654	0.654	0.923	-0.875
Mof_O 	O 	0.0104	0.693	0.9805	-0.493
Mof_C 	C 	0.0985	0.7227	0.9854	-0.078
Mof_C 	C 	0.0547	0.6864	0.9615	0.528
Mof_N 	N 	0.4198	0.7566	0.9742	-0.288
Mof_O 	O 	0.4346	0.654	0.077	-0.881
Mof_O 	O 	0.4896	0.693	0.0195	-0.553
Mof_C 	C 	0.4015	0.7227	0.0146	-0.148
Mof_C 	C 	0.4453	0.6864	0.0385	0.547
Mof_N 	N 	0.9198	0.2566	0.4742	-0.281
Mof_O 	O 	0.9346	0.154	0.577	-0.867
Mof_O 	O 	0.9896	0.193	0.5195	-0.476
Mof_C 	C 	0.9015	0.2227	0.5146	-0.101
Mof_C 	C 	0.9453	0.1864	0.5385	0.532
Mof_N 	N 	0.8302	0.7242	0.0066	-0.319
Mof_O 	O 	0.8154	0.827	0.904	-0.869
Mof_O 	O 	0.7604	0.7695	0.943	-0.482
Mof_C 	C 	0.8485	0.7646	0.9727	-0.075
Mof_C 	C 	0.8047	0.7885	0.9364	0.534
Mof_N 	N 	0.3302	0.2242	0.5066	-0.306
Mof_O 	O 	0.3154	0.327	0.404	-0.877
Mof_O 	O 	0.2604	0.2695	0.443	-0.518
Mof_C 	C 	0.3485	0.2646	0.4727	-0.112
Mof_C 	C 	0.3047	0.2885	0.4364	0.536
Mof_N 	N 	0.6698	0.2758	0.5066	-0.308
Mof_O 	O 	0.6846	0.173	0.404	-0.874
Mof_O 	O 	0.7396	0.2305	0.443	-0.517
Mof_C 	C 	0.6515	0.2354	0.4727	-0.111
Mof_C 	C 	0.6953	0.2115	0.4364	0.537
Mof_N 	N 	0.1698	0.7758	0.0066	-0.321
Mof_O 	O 	0.1846	0.673	0.904	-0.868
Mof_O 	O 	0.2396	0.7305	0.943	-0.482
Mof_C 	C 	0.1515	0.7354	0.9727	-0.075
Mof_C 	C 	0.1953	0.7115	0.9364	0.531
Mof_N 	N 	0.3302	0.7758	0.9934	-0.262
Mof_O 	O 	0.3154	0.673	0.096	-0.878
Mof_O 	O 	0.2604	0.7305	0.057	-0.521
Mof_C 	C 	0.3485	0.7354	0.0273	-0.139
Mof_C 	C 	0.3047	0.7115	0.0636	0.538
Mof_N 	N 	0.8302	0.2758	0.4934	-0.306
Mof_O 	O 	0.8154	0.173	0.596	-0.874
Mof_O 	O 	0.7604	0.2305	0.557	-0.518
Mof_C 	C 	0.8485	0.2354	0.5273	-0.111
Mof_C 	C 	0.8047	0.2115	0.5636	0.539
Mof_N 	N 	0.1698	0.2242	0.4934	-0.307
Mof_O 	O 	0.1846	0.327	0.596	-0.875
Mof_O 	O 	0.2396	0.2695	0.557	-0.516
Mof_C 	C 	0.1515	0.2646	0.5273	-0.113
Mof_C 	C 	0.1953	0.2885	0.5636	0.536
Mof_N 	N 	0.6698	0.7242	0.9934	-0.263
Mof_O 	O 	0.6846	0.827	0.096	-0.876
Mof_O 	O 	0.7396	0.7695	0.057	-0.517
Mof_C 	C 	0.6515	0.7646	0.0273	-0.139
Mof_C 	C 	0.6953	0.7885	0.0636	0.538
Mof_N 	N 	0.2242	0.4934	0.1698	-0.307
Mof_O 	O 	0.327	0.596	0.1846	-0.875
Mof_O 	O 	0.2695	0.557	0.2396	-0.516
Mof_C 	C 	0.2646	0.5273	0.1515	-0.113
Mof_C 	C 	0.2885	0.5636	0.1953	0.536
Mof_N 	N 	0.7242	0.9934	0.6698	-0.263
Mof_O 	O 	0.827	0.096	0.6846	-0.876
Mof_O 	O 	0.7695	0.057	0.7396	-0.517
Mof_C 	C 	0.7646	0.0273	0.6515	-0.139
Mof_C 	C 	0.7885	0.0636	0.6953	0.538
Mof_N 	N 	0.7758	0.9934	0.3302	-0.262
Mof_O 	O 	0.673	0.096	0.3154	-0.878
Mof_O 	O 	0.7305	0.057	0.2604	-0.521
Mof_C 	C 	0.7354	0.0273	0.3485	-0.139
Mof_C 	C 	0.7115	0.0636	0.3047	0.538
Mof_N 	N 	0.2758	0.4934	0.8302	-0.306
Mof_O 	O 	0.173	0.596	0.8154	-0.874
Mof_O 	O 	0.2305	0.557	0.7604	-0.518
Mof_C 	C 	0.2354	0.5273	0.8485	-0.111
Mof_C 	C 	0.2115	0.5636	0.8047	0.539
Mof_N 	N 	0.2758	0.5066	0.6698	-0.308
Mof_O 	O 	0.173	0.404	0.6846	-0.874
Mof_O 	O 	0.2305	0.443	0.7396	-0.517
Mof_C 	C 	0.2354	0.4727	0.6515	-0.111
Mof_C 	C 	0.2115	0.4364	0.6953	0.537
Mof_N 	N 	0.7758	0.0066	0.1698	-0.321
Mof_O 	O 	0.673	0.904	0.1846	-0.868
Mof_O 	O 	0.7305	0.943	0.2396	-0.482
Mof_C 	C 	0.7354	0.9727	0.1515	-0.075
Mof_C 	C 	0.7115	0.9364	0.1953	0.531
Mof_N 	N 	0.7242	0.0066	0.8302	-0.319
Mof_O 	O 	0.827	0.904	0.8154	-0.869
Mof_O 	O 	0.7695	0.943	0.7604	-0.482
Mof_C 	C 	0.7646	0.9727	0.8485	-0.075
Mof_C 	C 	0.7885	0.9364	0.8047	0.534
Mof_N 	N 	0.2242	0.5066	0.3302	-0.306
Mof_O 	O 	0.327	0.404	0.3154	-0.877
Mof_O 	O 	0.2695	0.443	0.2604	-0.518
Mof_C 	C 	0.2646	0.4727	0.3485	-0.112
Mof_C 	C 	0.2885	0.4364	0.3047	0.536
Mof_N 	N 	0.9934	0.3302	0.7758	-0.262
Mof_O 	O 	0.096	0.3154	0.673	-0.878
Mof_O 	O 	0.057	0.2604	0.7305	-0.521
Mof_C 	C 	0.0273	0.3485	0.7354	-0.139
Mof_C 	C 	0.0636	0.3047	0.7115	0.538
Mof_N 	N 	0.4934	0.8302	0.2758	-0.306
Mof_O 	O 	0.596	0.8154	0.173	-0.874
Mof_O 	O 	0.557	0.7604	0.2305	-0.518
Mof_C 	C 	0.5273	0.8485	0.2354	-0.111
Mof_C 	C 	0.5636	0.8047	0.2115	0.539
Mof_N 	N 	0.4934	0.1698	0.2242	-0.307
Mof_O 	O 	0.596	0.1846	0.327	-0.875
Mof_O 	O 	0.557	0.2396	0.2695	-0.516
Mof_C 	C 	0.5273	0.1515	0.2646	-0.113
Mof_C 	C 	0.5636	0.1953	0.2885	0.536
Mof_N 	N 	0.9934	0.6698	0.7242	-0.263
Mof_O 	O 	0.096	0.6846	0.827	-0.876
Mof_O 	O 	0.057	0.7396	0.7695	-0.517
Mof_C 	C 	0.0273	0.6515	0.7646	-0.139
Mof_C 	C 	0.0636	0.6953	0.7885	0.538
Mof_N 	N 	0.0066	0.8302	0.7242	-0.319
Mof_O 	O 	0.904	0.8154	0.827	-0.869
Mof_O 	O 	0.943	0.7604	0.7695	-0.482
Mof_C 	C 	0.9727	0.8485	0.7646	-0.075
Mof_C 	C 	0.9364	0.8047	0.7885	0.534
Mof_N 	N 	0.5066	0.3302	0.2242	-0.306
Mof_O 	O 	0.404	0.3154	0.327	-0.877
Mof_O 	O 	0.443	0.2604	0.2695	-0.518
Mof_C 	C 	0.4727	0.3485	0.2646	-0.112
Mof_C 	C 	0.4364	0.3047	0.2885	0.536
Mof_N 	N 	0.5066	0.6698	0.2758	-0.308
Mof_O 	O 	0.404	0.6846	0.173	-0.874
Mof_O 	O 	0.443	0.7396	0.2305	-0.517
Mof_C 	C 	0.4727	0.6515	0.2354	-0.111
Mof_C 	C 	0.4364	0.6953	0.2115	0.537
Mof_N 	N 	0.0066	0.1698	0.7758	-0.321
Mof_O 	O 	0.904	0.1846	0.673	-0.868
Mof_O 	O 	0.943	0.2396	0.7305	-0.482
Mof_C 	C 	0.9727	0.1515	0.7354	-0.075
Mof_C 	C 	0.9364	0.1953	0.7115	0.531
Mof_In	In	0.446	0	0.25	1.181
Mof_In	In	0.054	-6.48645e-33	0.75	1.12
Mof_In	In	0.554	0.5	0.25	1.303
Mof_In	In	0.946	0.5	0.75	1.411
Mof_In	In	0.25	0.446	-0	1.181
Mof_In	In	0.75	0.054	-0	1.12
Mof_In	In	0.25	0.554	0.5	1.303
Mof_In	In	0.75	0.946	0.5	1.411
Mof_In	In	-4.81422e-33	0.25	0.446	1.181
Mof_In	In	-6.28398e-33	0.75	0.054	1.12
Mof_In	In	0.5	0.25	0.554	1.303
Mof_In	In	0.5	0.75	0.946	1.411
Mof_In	In	0.75	0.696	-0	1.208
Mof_In	In	0.75	0.304	0.5	1.317
Mof_In	In	0.25	0.804	-0	1.21
Mof_In	In	0.25	0.196	0.5	1.278
Mof_In	In	0.196	0.5	0.25	1.278
Mof_In	In	0.804	0	0.25	1.21
Mof_In	In	0.304	0.5	0.75	1.317
Mof_In	In	0.696	-6.48645e-33	0.75	1.208
Mof_In	In	3.01452e-33	0.25	0.804	1.21
Mof_In	In	0.5	0.25	0.196	1.278
Mof_In	In	-1.03633e-32	0.75	0.696	1.208
Mof_In	In	0.5	0.75	0.304	1.317
Mof_C 	C 	0.465	0.125	0.215	0.134
Mof_H 	H 	0.4386	0.125	0.1886	-0.146
Mof_C 	C 	0.965	0.625	0.715	0.159
Mof_H 	H 	0.9386	0.625	0.6886	-0.134
Mof_C 	C 	0.035	0.875	0.715	0.125
Mof_H 	H 	0.0614	0.875	0.6886	-0.124
Mof_C 	C 	0.535	0.375	0.215	0.141
Mof_H 	H 	0.5614	0.375	0.1886	-0.143
Mof_C 	C 	0.535	0.625	0.285	0.143
Mof_H 	H 	0.5614	0.625	0.3114	-0.139
Mof_C 	C 	0.035	0.125	0.785	0.118
Mof_H 	H 	0.0614	0.125	0.8114	-0.133
Mof_C 	C 	0.965	0.375	0.785	0.159
Mof_H 	H 	0.9386	0.375	0.8114	-0.13
Mof_C 	C 	0.465	0.875	0.285	0.143
Mof_H 	H 	0.4386	0.875	0.3114	-0.129
Mof_C 	C 	0.215	0.465	0.125	0.134
Mof_H 	H 	0.1886	0.4386	0.125	-0.146
Mof_C 	C 	0.715	0.965	0.625	0.159
Mof_H 	H 	0.6886	0.9386	0.625	-0.134
Mof_C 	C 	0.715	0.035	0.875	0.125
Mof_H 	H 	0.6886	0.0614	0.875	-0.124
Mof_C 	C 	0.215	0.535	0.375	0.141
Mof_H 	H 	0.1886	0.5614	0.375	-0.143
Mof_C 	C 	0.285	0.535	0.625	0.143
Mof_H 	H 	0.3114	0.5614	0.625	-0.139
Mof_C 	C 	0.785	0.035	0.125	0.118
Mof_H 	H 	0.8114	0.0614	0.125	-0.133
Mof_C 	C 	0.785	0.965	0.375	0.159
Mof_H 	H 	0.8114	0.9386	0.375	-0.13
Mof_C 	C 	0.285	0.465	0.875	0.143
Mof_H 	H 	0.3114	0.4386	0.875	-0.129
Mof_C 	C 	0.125	0.215	0.465	0.134
Mof_H 	H 	0.125	0.1886	0.4386	-0.146
Mof_C 	C 	0.625	0.715	0.965	0.159
Mof_H 	H 	0.625	0.6886	0.9386	-0.134
Mof_C 	C 	0.875	0.715	0.035	0.125
Mof_H 	H 	0.875	0.6886	0.0614	-0.124
Mof_C 	C 	0.375	0.215	0.535	0.141
Mof_H 	H 	0.375	0.1886	0.5614	-0.143
Mof_C 	C 	0.625	0.285	0.535	0.143
Mof_H 	H 	0.625	0.3114	0.5614	-0.139
Mof_C 	C 	0.125	0.785	0.035	0.118
Mof_H 	H 	0.125	0.8114	0.0614	-0.133
Mof_C 	C 	0.375	0.785	0.965	0.159
Mof_H 	H 	0.375	0.8114	0.9386	-0.13
Mof_C 	C 	0.875	0.285	0.465	0.143
Mof_H 	H 	0.875	0.3114	0.4386	-0.129
Mof_In	In	0.625	0.125	0.375	3.749
Mof_In	In	0.125	0.625	0.875	3.753
Mof_In	In	0.875	0.875	0.875	3.763
Mof_In	In	0.375	0.375	0.375	3.751
Mof_In	In	0.375	0.625	0.125	3.749
Mof_In	In	0.875	0.125	0.625	3.753
Mof_In	In	0.125	0.375	0.625	3.749
Mof_In	In	0.625	0.875	0.125	3.753
_end
