data_functionalizedCrystal
_audit_creation_method	'EQeq! by Chris Wilmer'
_symmetry_space_group_name_H-M	'P1'
_symmetry_Int_Tables_number	1
_symmetry_cell_setting	triclinic
loop_
_symmetry_equiv_pos_as_xyz
  x,y,z
_cell_length_a	66.313
_cell_length_b	66.313
_cell_length_c	9.982
_cell_angle_alpha	90
_cell_angle_beta	90
_cell_angle_gamma	90
loop_
_atom_site_label
_atom_site_type_symbol
_atom_site_fract_x
_atom_site_fract_y
_atom_site_fract_z
_atom_site_charge
Mof_Zn	Zn	0.15851	0.01317	0.92352	1.249
Mof_Zn	Zn	0.11199	0.98368	0.0787	1.224
Mof_Zn	Zn	0.02239	0.98485	0.0863	1.226
Mof_P 	P 	0.14009	0.97159	0.8515	0.442
Mof_P 	P 	0.12857	0.02737	0.1435	0.412
Mof_P 	P 	0.2054	0.01156	0.9714	0.763
Mof_P 	P 	0.06687	0.97547	0.0347	0.449
Mof_P 	P 	0.00546	0.02771	0.1461	0.445
Mof_O 	O 	0.15554	0.98374	0.9259	-0.446
Mof_O 	O 	0.11838	0.97487	0.9019	-0.438
Mof_O 	O 	0.14047	0.97418	0.7044	-0.464
Mof_O 	O 	0.14983	0.02181	0.0926	-0.467
Mof_O 	O 	0.1124	0.01256	0.0808	-0.491
Mof_O 	O 	0.12814	0.0282	0.2944	-0.459
Mof_O 	O 	0.22197	0.02723	0.9566	-0.939
Mof_O 	O 	0.20245	0.00492	0.1179	-1.05
Mof_O 	O 	0.18615	0.01942	0.9141	-0.469
Mof_O 	O 	0.06711	0.99225	0.9377	-0.484
Mof_O 	O 	0.04952	0.9752	0.1181	-0.468
Mof_O 	O 	0.0849	0.97467	0.1152	-0.466
Mof_O 	O 	0.02191	0.014	0.0865	-0.498
Mof_O 	O 	0.98403	0.0227	0.0864	-0.509
Mof_O 	O 	0.00555	0.0275	0.2928	-0.489
Mof_H 	H 	0.1463	0.9512	0.8694	-0.003
Mof_H 	H 	0.1239	0.0476	0.0934	-0.028
Mof_H 	H 	0.2107	0.9972	0.8707	-0.083
Mof_H 	H 	0.0662	0.9594	0.9383	-0.024
Mof_H 	H 	0.0101	0.042	0.0618	-0.054
Mof_Zn	Zn	0.65851	0.51317	0.42352	1.236
Mof_Zn	Zn	0.61199	0.48368	0.5787	1.239
Mof_Zn	Zn	0.52239	0.48485	0.5863	1.241
Mof_P 	P 	0.64009	0.47159	0.3515	0.442
Mof_P 	P 	0.62857	0.52737	0.6435	0.416
Mof_P 	P 	0.7054	0.51156	0.4714	0.718
Mof_P 	P 	0.56687	0.47547	0.5347	0.545
Mof_P 	P 	0.50546	0.52771	0.6461	0.445
Mof_O 	O 	0.65554	0.48374	0.4259	-0.471
Mof_O 	O 	0.61838	0.47487	0.4019	-0.472
Mof_O 	O 	0.64047	0.47418	0.2044	-0.484
Mof_O 	O 	0.64983	0.52181	0.5926	-0.428
Mof_O 	O 	0.6124	0.51256	0.5808	-0.465
Mof_O 	O 	0.62814	0.5282	0.7944	-0.437
Mof_O 	O 	0.72197	0.52723	0.4566	-1.029
Mof_O 	O 	0.70245	0.50492	0.6179	-1.001
Mof_O 	O 	0.68615	0.51942	0.4141	-0.484
Mof_O 	O 	0.56711	0.49225	0.4377	-0.55
Mof_O 	O 	0.54952	0.4752	0.6181	-0.463
Mof_O 	O 	0.5849	0.47467	0.6152	-0.459
Mof_O 	O 	0.52191	0.514	0.5865	-0.475
Mof_O 	O 	0.48403	0.5227	0.5864	-0.475
Mof_O 	O 	0.50555	0.5275	0.7928	-0.467
Mof_H 	H 	0.6463	0.4512	0.3694	-0.021
Mof_H 	H 	0.6239	0.5476	0.5934	-0.008
Mof_H 	H 	0.7107	0.4972	0.3707	-0.09
Mof_H 	H 	0.5662	0.4594	0.4383	-0.071
Mof_H 	H 	0.5101	0.542	0.5618	-0.034
Mof_Zn	Zn	0.34149	0.98683	0.42352	1.236
Mof_Zn	Zn	0.38801	0.01632	0.5787	1.239
Mof_Zn	Zn	0.47761	0.01515	0.5863	1.241
Mof_P 	P 	0.35991	0.02841	0.3515	0.442
Mof_P 	P 	0.37143	0.97263	0.6435	0.416
Mof_P 	P 	0.2946	0.98844	0.4714	0.718
Mof_P 	P 	0.43313	0.02453	0.5347	0.545
Mof_P 	P 	0.49454	0.97229	0.6461	0.445
Mof_O 	O 	0.34446	0.01626	0.4259	-0.471
Mof_O 	O 	0.38162	0.02513	0.4019	-0.472
Mof_O 	O 	0.35953	0.02582	0.2044	-0.484
Mof_O 	O 	0.35017	0.97819	0.5926	-0.428
Mof_O 	O 	0.3876	0.98744	0.5808	-0.465
Mof_O 	O 	0.37186	0.9718	0.7944	-0.437
Mof_O 	O 	0.27803	0.97277	0.4566	-1.029
Mof_O 	O 	0.29755	0.99508	0.6179	-1.001
Mof_O 	O 	0.31385	0.98058	0.4141	-0.484
Mof_O 	O 	0.43289	0.00775	0.4377	-0.55
Mof_O 	O 	0.45048	0.0248	0.6181	-0.463
Mof_O 	O 	0.4151	0.02533	0.6152	-0.459
Mof_O 	O 	0.47809	0.986	0.5865	-0.475
Mof_O 	O 	0.51597	0.9773	0.5864	-0.475
Mof_O 	O 	0.49445	0.9725	0.7928	-0.467
Mof_H 	H 	0.3537	0.0488	0.3694	-0.021
Mof_H 	H 	0.3761	0.9524	0.5934	-0.008
Mof_H 	H 	0.2893	0.0028	0.3707	-0.09
Mof_H 	H 	0.4338	0.0406	0.4383	-0.071
Mof_H 	H 	0.4899	0.958	0.5618	-0.034
Mof_Zn	Zn	0.84149	0.48683	0.92352	1.25
Mof_Zn	Zn	0.88801	0.51632	0.0787	1.225
Mof_Zn	Zn	0.97761	0.51515	0.0863	1.227
Mof_P 	P 	0.85991	0.52841	0.8515	0.443
Mof_P 	P 	0.87143	0.47263	0.1435	0.413
Mof_P 	P 	0.7946	0.48844	0.9714	0.764
Mof_P 	P 	0.93313	0.52453	0.0347	0.45
Mof_P 	P 	0.99454	0.47229	0.1461	0.446
Mof_O 	O 	0.84446	0.51626	0.9259	-0.445
Mof_O 	O 	0.88162	0.52513	0.9019	-0.437
Mof_O 	O 	0.85953	0.52582	0.7044	-0.463
Mof_O 	O 	0.85017	0.47819	0.0926	-0.466
Mof_O 	O 	0.8876	0.48744	0.0808	-0.49
Mof_O 	O 	0.87186	0.4718	0.2944	-0.458
Mof_O 	O 	0.77803	0.47277	0.9566	-0.939
Mof_O 	O 	0.79755	0.49508	0.1179	-1.05
Mof_O 	O 	0.81385	0.48058	0.9141	-0.469
Mof_O 	O 	0.93289	0.50775	0.9377	-0.484
Mof_O 	O 	0.95048	0.5248	0.1181	-0.468
Mof_O 	O 	0.9151	0.52533	0.1152	-0.466
Mof_O 	O 	0.97809	0.486	0.0865	-0.498
Mof_O 	O 	0.01597	0.4773	0.0864	-0.509
Mof_O 	O 	0.99445	0.4725	0.2928	-0.489
Mof_H 	H 	0.8537	0.5488	0.8694	-0.003
Mof_H 	H 	0.8761	0.4524	0.0934	-0.028
Mof_H 	H 	0.7893	0.5028	0.8707	-0.083
Mof_H 	H 	0.9338	0.5406	0.9383	-0.024
Mof_H 	H 	0.9899	0.458	0.0618	-0.054
Mof_Zn	Zn	0.23683	0.90851	0.17352	1.232
Mof_Zn	Zn	0.26632	0.86199	0.3287	1.239
Mof_Zn	Zn	0.26515	0.77239	0.3363	1.24
Mof_P 	P 	0.27841	0.89009	0.1015	0.385
Mof_P 	P 	0.22263	0.87857	0.3935	0.415
Mof_P 	P 	0.23844	0.9554	0.2214	0.717
Mof_P 	P 	0.27453	0.81687	0.2847	0.545
Mof_P 	P 	0.22229	0.75546	0.3961	0.445
Mof_O 	O 	0.26626	0.90554	0.1759	-0.475
Mof_O 	O 	0.27513	0.86838	0.1519	-0.476
Mof_O 	O 	0.27582	0.89047	0.9544	-0.405
Mof_O 	O 	0.22819	0.89983	0.3426	-0.435
Mof_O 	O 	0.23744	0.8624	0.3308	-0.471
Mof_O 	O 	0.2218	0.87814	0.5444	-0.456
Mof_O 	O 	0.22277	0.97197	0.2066	-1.039
Mof_O 	O 	0.24508	0.95245	0.3679	-1.005
Mof_O 	O 	0.23058	0.93615	0.1641	-0.501
Mof_O 	O 	0.25775	0.81711	0.1877	-0.561
Mof_O 	O 	0.2748	0.79952	0.3681	-0.467
Mof_O 	O 	0.27533	0.8349	0.3652	-0.463
Mof_O 	O 	0.236	0.77191	0.3365	-0.481
Mof_O 	O 	0.2273	0.73403	0.3364	-0.481
Mof_O 	O 	0.2225	0.75555	0.5428	-0.485
Mof_H 	H 	0.2988	0.8963	0.1194	-0.026
Mof_H 	H 	0.2024	0.8739	0.3434	-0.019
Mof_H 	H 	0.2528	0.9607	0.1207	-0.108
Mof_H 	H 	0.2906	0.8162	0.1883	-0.077
Mof_H 	H 	0.208	0.7601	0.3118	-0.043
Mof_Zn	Zn	0.73683	0.40851	0.67352	1.237
Mof_Zn	Zn	0.76632	0.36199	0.8287	1.242
Mof_Zn	Zn	0.76515	0.27239	0.8363	1.244
Mof_P 	P 	0.77841	0.39009	0.6015	0.441
Mof_P 	P 	0.72263	0.37857	0.8935	0.472
Mof_P 	P 	0.73844	0.4554	0.7214	0.708
Mof_P 	P 	0.77453	0.31687	0.7847	0.544
Mof_P 	P 	0.72229	0.25546	0.8961	0.505
Mof_O 	O 	0.76626	0.40554	0.6759	-0.466
Mof_O 	O 	0.77513	0.36838	0.6519	-0.465
Mof_O 	O 	0.77582	0.39047	0.4544	-0.466
Mof_O 	O 	0.72819	0.39983	0.8426	-0.422
Mof_O 	O 	0.73744	0.3624	0.8308	-0.457
Mof_O 	O 	0.7218	0.37814	0.0444	-0.512
Mof_O 	O 	0.72277	0.47197	0.7066	-1.016
Mof_O 	O 	0.74508	0.45245	0.8679	-0.913
Mof_O 	O 	0.73058	0.43615	0.6641	-0.476
Mof_O 	O 	0.75775	0.31711	0.6877	-0.543
Mof_O 	O 	0.7748	0.29952	0.8681	-0.445
Mof_O 	O 	0.77533	0.3349	0.8652	-0.442
Mof_O 	O 	0.736	0.27191	0.8365	-0.468
Mof_O 	O 	0.7273	0.23403	0.8364	-0.47
Mof_O 	O 	0.7225	0.25555	0.0428	-0.542
Mof_H 	H 	0.7988	0.3963	0.6194	-0.012
Mof_H 	H 	0.7024	0.3739	0.8434	-0.002
Mof_H 	H 	0.7528	0.4607	0.6207	-0.086
Mof_H 	H 	0.7906	0.3162	0.6883	-0.063
Mof_H 	H 	0.708	0.2601	0.8118	-0.036
Mof_Zn	Zn	0.26317	0.09149	0.67352	1.237
Mof_Zn	Zn	0.23368	0.13801	0.8287	1.242
Mof_Zn	Zn	0.23485	0.22761	0.8363	1.244
Mof_P 	P 	0.22159	0.10991	0.6015	0.441
Mof_P 	P 	0.27737	0.12143	0.8935	0.472
Mof_P 	P 	0.26156	0.0446	0.7214	0.708
Mof_P 	P 	0.22547	0.18313	0.7847	0.544
Mof_P 	P 	0.27771	0.24454	0.8961	0.505
Mof_O 	O 	0.23374	0.09446	0.6759	-0.466
Mof_O 	O 	0.22487	0.13162	0.6519	-0.465
Mof_O 	O 	0.22418	0.10953	0.4544	-0.466
Mof_O 	O 	0.27181	0.10017	0.8426	-0.422
Mof_O 	O 	0.26256	0.1376	0.8308	-0.457
Mof_O 	O 	0.2782	0.12186	0.0444	-0.512
Mof_O 	O 	0.27723	0.02803	0.7066	-1.016
Mof_O 	O 	0.25492	0.04755	0.8679	-0.913
Mof_O 	O 	0.26942	0.06385	0.6641	-0.476
Mof_O 	O 	0.24225	0.18289	0.6877	-0.543
Mof_O 	O 	0.2252	0.20048	0.8681	-0.445
Mof_O 	O 	0.22467	0.1651	0.8652	-0.442
Mof_O 	O 	0.264	0.22809	0.8365	-0.468
Mof_O 	O 	0.2727	0.26597	0.8364	-0.47
Mof_O 	O 	0.2775	0.24445	0.0428	-0.542
Mof_H 	H 	0.2012	0.1037	0.6194	-0.012
Mof_H 	H 	0.2976	0.1261	0.8434	-0.002
Mof_H 	H 	0.2472	0.0393	0.6207	-0.086
Mof_H 	H 	0.2094	0.1838	0.6883	-0.063
Mof_H 	H 	0.292	0.2399	0.8118	-0.036
Mof_Zn	Zn	0.76317	0.59149	0.17352	1.232
Mof_Zn	Zn	0.73368	0.63801	0.3287	1.239
Mof_Zn	Zn	0.73485	0.72761	0.3363	1.24
Mof_P 	P 	0.72159	0.60991	0.1015	0.385
Mof_P 	P 	0.77737	0.62143	0.3935	0.415
Mof_P 	P 	0.76156	0.5446	0.2214	0.717
Mof_P 	P 	0.72547	0.68313	0.2847	0.545
Mof_P 	P 	0.77771	0.74454	0.3961	0.445
Mof_O 	O 	0.73374	0.59446	0.1759	-0.475
Mof_O 	O 	0.72487	0.63162	0.1519	-0.476
Mof_O 	O 	0.72418	0.60953	0.9544	-0.405
Mof_O 	O 	0.77181	0.60017	0.3426	-0.435
Mof_O 	O 	0.76256	0.6376	0.3308	-0.471
Mof_O 	O 	0.7782	0.62186	0.5444	-0.456
Mof_O 	O 	0.77723	0.52803	0.2066	-1.039
Mof_O 	O 	0.75492	0.54755	0.3679	-1.005
Mof_O 	O 	0.76942	0.56385	0.1641	-0.501
Mof_O 	O 	0.74225	0.68289	0.1877	-0.561
Mof_O 	O 	0.7252	0.70048	0.3681	-0.467
Mof_O 	O 	0.72467	0.6651	0.3652	-0.463
Mof_O 	O 	0.764	0.72809	0.3365	-0.481
Mof_O 	O 	0.7727	0.76597	0.3364	-0.481
Mof_O 	O 	0.7775	0.74445	0.5428	-0.485
Mof_H 	H 	0.7012	0.6037	0.1194	-0.026
Mof_H 	H 	0.7976	0.6261	0.3434	-0.019
Mof_H 	H 	0.7472	0.5393	0.1207	-0.108
Mof_H 	H 	0.7094	0.6838	0.1883	-0.077
Mof_H 	H 	0.792	0.7399	0.3118	-0.043
Mof_Zn	Zn	0.34149	0.01317	0.07648	1.223
Mof_Zn	Zn	0.38801	0.98368	0.9213	1.253
Mof_Zn	Zn	0.47761	0.98485	0.9137	1.254
Mof_P 	P 	0.35991	0.97159	0.1485	0.439
Mof_P 	P 	0.37143	0.02737	0.8565	0.419
Mof_P 	P 	0.2946	0.01156	0.0286	0.648
Mof_P 	P 	0.43313	0.97547	0.9653	0.637
Mof_P 	P 	0.49454	0.02771	0.8539	0.443
Mof_O 	O 	0.34446	0.98374	0.0741	-0.496
Mof_O 	O 	0.38162	0.97487	0.0981	-0.497
Mof_O 	O 	0.35953	0.97418	0.2956	-0.467
Mof_O 	O 	0.35017	0.02181	0.9074	-0.399
Mof_O 	O 	0.3876	0.01256	0.9192	-0.441
Mof_O 	O 	0.37186	0.0282	0.7056	-0.453
Mof_O 	O 	0.27803	0.02723	0.0434	-0.987
Mof_O 	O 	0.29755	0.00492	0.8821	-0.948
Mof_O 	O 	0.31385	0.01942	0.0859	-0.492
Mof_O 	O 	0.43289	0.99225	0.0623	-0.609
Mof_O 	O 	0.45048	0.9752	0.8819	-0.464
Mof_O 	O 	0.4151	0.97467	0.8848	-0.459
Mof_O 	O 	0.47809	0.014	0.9135	-0.453
Mof_O 	O 	0.51597	0.0227	0.9136	-0.449
Mof_O 	O 	0.49445	0.0275	0.7072	-0.482
Mof_H 	H 	0.3537	0.9512	0.1306	-0.029
Mof_H 	H 	0.3761	0.0476	0.9066	0.005
Mof_H 	H 	0.2893	0.9972	0.1293	-0.089
Mof_H 	H 	0.4338	0.9594	0.0617	-0.107
Mof_H 	H 	0.4899	0.042	0.9382	-0.019
Mof_Zn	Zn	0.84149	0.51317	0.57648	1.236
Mof_Zn	Zn	0.88801	0.48368	0.4213	1.239
Mof_Zn	Zn	0.97761	0.48485	0.4137	1.241
Mof_P 	P 	0.85991	0.47159	0.6485	0.44
Mof_P 	P 	0.87143	0.52737	0.3565	0.416
Mof_P 	P 	0.7946	0.51156	0.5286	0.718
Mof_P 	P 	0.93313	0.47547	0.4653	0.545
Mof_P 	P 	0.99454	0.52771	0.3539	0.444
Mof_O 	O 	0.84446	0.48374	0.5741	-0.471
Mof_O 	O 	0.88162	0.47487	0.5981	-0.462
Mof_O 	O 	0.85953	0.47418	0.7956	-0.446
Mof_O 	O 	0.85017	0.52181	0.4074	-0.437
Mof_O 	O 	0.8876	0.51256	0.4192	-0.466
Mof_O 	O 	0.87186	0.5282	0.2056	-0.475
Mof_O 	O 	0.77803	0.52723	0.5434	-1.026
Mof_O 	O 	0.79755	0.50492	0.3821	-1.005
Mof_O 	O 	0.81385	0.51942	0.5859	-0.481
Mof_O 	O 	0.93289	0.49225	0.5623	-0.544
Mof_O 	O 	0.95048	0.4752	0.3819	-0.469
Mof_O 	O 	0.9151	0.47467	0.3848	-0.465
Mof_O 	O 	0.97809	0.514	0.4135	-0.476
Mof_O 	O 	0.01597	0.5227	0.4136	-0.484
Mof_O 	O 	0.99445	0.5275	0.2072	-0.504
Mof_H 	H 	0.8537	0.4512	0.6306	-0.011
Mof_H 	H 	0.8761	0.5476	0.4066	-0.015
Mof_H 	H 	0.7893	0.4972	0.6293	-0.088
Mof_H 	H 	0.9338	0.4594	0.5617	-0.061
Mof_H 	H 	0.9899	0.542	0.4382	-0.039
Mof_Zn	Zn	0.15851	0.98683	0.57648	1.237
Mof_Zn	Zn	0.11199	0.01632	0.4213	1.239
Mof_Zn	Zn	0.02239	0.01515	0.4137	1.241
Mof_P 	P 	0.14009	0.02841	0.6485	0.44
Mof_P 	P 	0.12857	0.97263	0.3565	0.416
Mof_P 	P 	0.2054	0.98844	0.5286	0.718
Mof_P 	P 	0.06687	0.02453	0.4653	0.545
Mof_P 	P 	0.00546	0.97229	0.3539	0.444
Mof_O 	O 	0.15554	0.01626	0.5741	-0.471
Mof_O 	O 	0.11838	0.02513	0.5981	-0.462
Mof_O 	O 	0.14047	0.02582	0.7956	-0.446
Mof_O 	O 	0.14983	0.97819	0.4074	-0.437
Mof_O 	O 	0.1124	0.98744	0.4192	-0.466
Mof_O 	O 	0.12814	0.9718	0.2056	-0.475
Mof_O 	O 	0.22197	0.97277	0.5434	-1.026
Mof_O 	O 	0.20245	0.99508	0.3821	-1.005
Mof_O 	O 	0.18615	0.98058	0.5859	-0.481
Mof_O 	O 	0.06711	0.00775	0.5623	-0.544
Mof_O 	O 	0.04952	0.0248	0.3819	-0.469
Mof_O 	O 	0.0849	0.02533	0.3848	-0.465
Mof_O 	O 	0.02191	0.986	0.4135	-0.476
Mof_O 	O 	0.98403	0.9773	0.4136	-0.483
Mof_O 	O 	0.00555	0.9725	0.2072	-0.504
Mof_H 	H 	0.1463	0.0488	0.6306	-0.011
Mof_H 	H 	0.1239	0.9524	0.4066	-0.015
Mof_H 	H 	0.2107	0.0028	0.6293	-0.088
Mof_H 	H 	0.0662	0.0406	0.5617	-0.061
Mof_H 	H 	0.0101	0.958	0.4382	-0.039
Mof_Zn	Zn	0.65851	0.48683	0.07648	1.223
Mof_Zn	Zn	0.61199	0.51632	0.9213	1.253
Mof_Zn	Zn	0.52239	0.51515	0.9137	1.254
Mof_P 	P 	0.64009	0.52841	0.1485	0.439
Mof_P 	P 	0.62857	0.47263	0.8565	0.419
Mof_P 	P 	0.7054	0.48844	0.0286	0.649
Mof_P 	P 	0.56687	0.52453	0.9653	0.637
Mof_P 	P 	0.50546	0.47229	0.8539	0.443
Mof_O 	O 	0.65554	0.51626	0.0741	-0.496
Mof_O 	O 	0.61838	0.52513	0.0981	-0.497
Mof_O 	O 	0.64047	0.52582	0.2956	-0.467
Mof_O 	O 	0.64983	0.47819	0.9074	-0.399
Mof_O 	O 	0.6124	0.48744	0.9192	-0.441
Mof_O 	O 	0.62814	0.4718	0.7056	-0.453
Mof_O 	O 	0.72197	0.47277	0.0434	-0.987
Mof_O 	O 	0.70245	0.49508	0.8821	-0.948
Mof_O 	O 	0.68615	0.48058	0.0859	-0.492
Mof_O 	O 	0.56711	0.50775	0.0623	-0.609
Mof_O 	O 	0.54952	0.5248	0.8819	-0.464
Mof_O 	O 	0.5849	0.52533	0.8848	-0.459
Mof_O 	O 	0.52191	0.486	0.9135	-0.453
Mof_O 	O 	0.48403	0.4773	0.9136	-0.449
Mof_O 	O 	0.50555	0.4725	0.7072	-0.482
Mof_H 	H 	0.6463	0.5488	0.1306	-0.029
Mof_H 	H 	0.6239	0.4524	0.9066	0.005
Mof_H 	H 	0.7107	0.5028	0.1293	-0.089
Mof_H 	H 	0.5662	0.5406	0.0617	-0.107
Mof_H 	H 	0.5101	0.458	0.9382	-0.019
Mof_Zn	Zn	0.26317	0.90851	0.82648	1.241
Mof_Zn	Zn	0.23368	0.86199	0.6713	1.24
Mof_Zn	Zn	0.23485	0.77239	0.6637	1.242
Mof_P 	P 	0.22159	0.89009	0.8985	0.497
Mof_P 	P 	0.27737	0.87857	0.6065	0.417
Mof_P 	P 	0.26156	0.9554	0.7786	0.719
Mof_P 	P 	0.22547	0.81687	0.7153	0.543
Mof_P 	P 	0.27771	0.75546	0.6039	0.444
Mof_O 	O 	0.23374	0.90554	0.8241	-0.466
Mof_O 	O 	0.22487	0.86838	0.8481	-0.457
Mof_O 	O 	0.22418	0.89047	0.0456	-0.525
Mof_O 	O 	0.27181	0.89983	0.6574	-0.43
Mof_O 	O 	0.26256	0.8624	0.6692	-0.459
Mof_O 	O 	0.2782	0.87814	0.4556	-0.456
Mof_O 	O 	0.27723	0.97197	0.7934	-1.014
Mof_O 	O 	0.25492	0.95245	0.6321	-1.002
Mof_O 	O 	0.26942	0.93615	0.8359	-0.463
Mof_O 	O 	0.24225	0.81711	0.8123	-0.523
Mof_O 	O 	0.2252	0.79952	0.6319	-0.464
Mof_O 	O 	0.22467	0.8349	0.6348	-0.46
Mof_O 	O 	0.264	0.77191	0.6635	-0.47
Mof_O 	O 	0.2727	0.73403	0.6636	-0.478
Mof_O 	O 	0.2775	0.75555	0.4572	-0.486
Mof_H 	H 	0.2012	0.8963	0.8806	-0.006
Mof_H 	H 	0.2976	0.8739	0.6566	-0.005
Mof_H 	H 	0.2472	0.9607	0.8793	-0.07
Mof_H 	H 	0.2094	0.8162	0.8117	-0.053
Mof_H 	H 	0.292	0.7601	0.6882	-0.03
Mof_Zn	Zn	0.76317	0.40851	0.32648	1.235
Mof_Zn	Zn	0.73368	0.36199	0.1713	1.236
Mof_Zn	Zn	0.73485	0.27239	0.1637	1.237
Mof_P 	P 	0.72159	0.39009	0.3985	0.441
Mof_P 	P 	0.77737	0.37857	0.1065	0.36
Mof_P 	P 	0.76156	0.4554	0.2786	0.708
Mof_P 	P 	0.72547	0.31687	0.2153	0.546
Mof_P 	P 	0.77771	0.25546	0.1039	0.384
Mof_O 	O 	0.73374	0.40554	0.3241	-0.476
Mof_O 	O 	0.72487	0.36838	0.3481	-0.469
Mof_O 	O 	0.72418	0.39047	0.5456	-0.465
Mof_O 	O 	0.77181	0.39983	0.1574	-0.443
Mof_O 	O 	0.76256	0.3624	0.1692	-0.474
Mof_O 	O 	0.7782	0.37814	0.9556	-0.399
Mof_O 	O 	0.77723	0.47197	0.2934	-1.028
Mof_O 	O 	0.75492	0.45245	0.1321	-0.97
Mof_O 	O 	0.76942	0.43615	0.3359	-0.486
Mof_O 	O 	0.74225	0.31711	0.3123	-0.552
Mof_O 	O 	0.7252	0.29952	0.1319	-0.487
Mof_O 	O 	0.72467	0.3349	0.1348	-0.483
Mof_O 	O 	0.764	0.27191	0.1635	-0.484
Mof_O 	O 	0.7727	0.23403	0.1636	-0.487
Mof_O 	O 	0.7775	0.25555	0.9572	-0.429
Mof_H 	H 	0.7012	0.3963	0.3806	-0.02
Mof_H 	H 	0.7976	0.3739	0.1566	-0.021
Mof_H 	H 	0.7472	0.4607	0.3793	-0.087
Mof_H 	H 	0.7094	0.3162	0.3117	-0.069
Mof_H 	H 	0.792	0.2601	0.1882	-0.037
Mof_Zn	Zn	0.23683	0.09149	0.32648	1.235
Mof_Zn	Zn	0.26632	0.13801	0.1713	1.236
Mof_Zn	Zn	0.26515	0.22761	0.1637	1.237
Mof_P 	P 	0.27841	0.10991	0.3985	0.441
Mof_P 	P 	0.22263	0.12143	0.1065	0.36
Mof_P 	P 	0.23844	0.0446	0.2786	0.708
Mof_P 	P 	0.27453	0.18313	0.2153	0.546
Mof_P 	P 	0.22229	0.24454	0.1039	0.384
Mof_O 	O 	0.26626	0.09446	0.3241	-0.476
Mof_O 	O 	0.27513	0.13162	0.3481	-0.469
Mof_O 	O 	0.27582	0.10953	0.5456	-0.465
Mof_O 	O 	0.22819	0.10017	0.1574	-0.443
Mof_O 	O 	0.23744	0.1376	0.1692	-0.474
Mof_O 	O 	0.2218	0.12186	0.9556	-0.399
Mof_O 	O 	0.22277	0.02803	0.2934	-1.028
Mof_O 	O 	0.24508	0.04755	0.1321	-0.97
Mof_O 	O 	0.23058	0.06385	0.3359	-0.486
Mof_O 	O 	0.25775	0.18289	0.3123	-0.552
Mof_O 	O 	0.2748	0.20048	0.1319	-0.487
Mof_O 	O 	0.27533	0.1651	0.1348	-0.483
Mof_O 	O 	0.236	0.22809	0.1635	-0.484
Mof_O 	O 	0.2273	0.26597	0.1636	-0.487
Mof_O 	O 	0.2225	0.24445	0.9572	-0.429
Mof_H 	H 	0.2988	0.1037	0.3806	-0.02
Mof_H 	H 	0.2024	0.1261	0.1566	-0.021
Mof_H 	H 	0.2528	0.0393	0.3793	-0.087
Mof_H 	H 	0.2906	0.1838	0.3117	-0.069
Mof_H 	H 	0.208	0.2399	0.1882	-0.037
Mof_Zn	Zn	0.73683	0.59149	0.82648	1.241
Mof_Zn	Zn	0.76632	0.63801	0.6713	1.24
Mof_Zn	Zn	0.76515	0.72761	0.6637	1.242
Mof_P 	P 	0.77841	0.60991	0.8985	0.497
Mof_P 	P 	0.72263	0.62143	0.6065	0.417
Mof_P 	P 	0.73844	0.5446	0.7786	0.719
Mof_P 	P 	0.77453	0.68313	0.7153	0.543
Mof_P 	P 	0.72229	0.74454	0.6039	0.444
Mof_O 	O 	0.76626	0.59446	0.8241	-0.466
Mof_O 	O 	0.77513	0.63162	0.8481	-0.457
Mof_O 	O 	0.77582	0.60953	0.0456	-0.525
Mof_O 	O 	0.72819	0.60017	0.6574	-0.43
Mof_O 	O 	0.73744	0.6376	0.6692	-0.459
Mof_O 	O 	0.7218	0.62186	0.4556	-0.456
Mof_O 	O 	0.72277	0.52803	0.7934	-1.015
Mof_O 	O 	0.74508	0.54755	0.6321	-1.002
Mof_O 	O 	0.73058	0.56385	0.8359	-0.463
Mof_O 	O 	0.75775	0.68289	0.8123	-0.523
Mof_O 	O 	0.7748	0.70048	0.6319	-0.464
Mof_O 	O 	0.77533	0.6651	0.6348	-0.46
Mof_O 	O 	0.736	0.72809	0.6635	-0.47
Mof_O 	O 	0.7273	0.76597	0.6636	-0.478
Mof_O 	O 	0.7225	0.74445	0.4572	-0.486
Mof_H 	H 	0.7988	0.6037	0.8806	-0.006
Mof_H 	H 	0.7024	0.6261	0.6566	-0.005
Mof_H 	H 	0.7528	0.5393	0.8793	-0.07
Mof_H 	H 	0.7906	0.6838	0.8117	-0.053
Mof_H 	H 	0.708	0.7399	0.6882	-0.03
Mof_Zn	Zn	0.84149	0.98683	0.07648	1.223
Mof_Zn	Zn	0.88801	0.01632	0.9213	1.253
Mof_Zn	Zn	0.97761	0.01515	0.9137	1.254
Mof_P 	P 	0.85991	0.02841	0.1485	0.439
Mof_P 	P 	0.87143	0.97263	0.8565	0.419
Mof_P 	P 	0.7946	0.98844	0.0286	0.649
Mof_P 	P 	0.93313	0.02453	0.9653	0.637
Mof_P 	P 	0.99454	0.97229	0.8539	0.443
Mof_O 	O 	0.84446	0.01626	0.0741	-0.496
Mof_O 	O 	0.88162	0.02513	0.0981	-0.497
Mof_O 	O 	0.85953	0.02582	0.2956	-0.467
Mof_O 	O 	0.85017	0.97819	0.9074	-0.399
Mof_O 	O 	0.8876	0.98744	0.9192	-0.441
Mof_O 	O 	0.87186	0.9718	0.7056	-0.453
Mof_O 	O 	0.77803	0.97277	0.0434	-0.987
Mof_O 	O 	0.79755	0.99508	0.8821	-0.948
Mof_O 	O 	0.81385	0.98058	0.0859	-0.492
Mof_O 	O 	0.93289	0.00775	0.0623	-0.609
Mof_O 	O 	0.95048	0.0248	0.8819	-0.464
Mof_O 	O 	0.9151	0.02533	0.8848	-0.459
Mof_O 	O 	0.97809	0.986	0.9135	-0.453
Mof_O 	O 	0.01597	0.9773	0.9136	-0.449
Mof_O 	O 	0.99445	0.9725	0.7072	-0.482
Mof_H 	H 	0.8537	0.0488	0.1306	-0.029
Mof_H 	H 	0.8761	0.9524	0.9066	0.005
Mof_H 	H 	0.7893	0.0028	0.1293	-0.089
Mof_H 	H 	0.9338	0.0406	0.0617	-0.107
Mof_H 	H 	0.9899	0.958	0.9382	-0.019
Mof_Zn	Zn	0.34149	0.48683	0.57648	1.236
Mof_Zn	Zn	0.38801	0.51632	0.4213	1.239
Mof_Zn	Zn	0.47761	0.51515	0.4137	1.241
Mof_P 	P 	0.35991	0.52841	0.6485	0.44
Mof_P 	P 	0.37143	0.47263	0.3565	0.416
Mof_P 	P 	0.2946	0.48844	0.5286	0.718
Mof_P 	P 	0.43313	0.52453	0.4653	0.545
Mof_P 	P 	0.49454	0.47229	0.3539	0.444
Mof_O 	O 	0.34446	0.51626	0.5741	-0.471
Mof_O 	O 	0.38162	0.52513	0.5981	-0.462
Mof_O 	O 	0.35953	0.52582	0.7956	-0.446
Mof_O 	O 	0.35017	0.47819	0.4074	-0.437
Mof_O 	O 	0.3876	0.48744	0.4192	-0.466
Mof_O 	O 	0.37186	0.4718	0.2056	-0.475
Mof_O 	O 	0.27803	0.47277	0.5434	-1.026
Mof_O 	O 	0.29755	0.49508	0.3821	-1.005
Mof_O 	O 	0.31385	0.48058	0.5859	-0.481
Mof_O 	O 	0.43289	0.50775	0.5623	-0.544
Mof_O 	O 	0.45048	0.5248	0.3819	-0.469
Mof_O 	O 	0.4151	0.52533	0.3848	-0.465
Mof_O 	O 	0.47809	0.486	0.4135	-0.476
Mof_O 	O 	0.51597	0.4773	0.4136	-0.484
Mof_O 	O 	0.49445	0.4725	0.2072	-0.504
Mof_H 	H 	0.3537	0.5488	0.6306	-0.011
Mof_H 	H 	0.3761	0.4524	0.4066	-0.015
Mof_H 	H 	0.2893	0.5028	0.6293	-0.088
Mof_H 	H 	0.4338	0.5406	0.5617	-0.061
Mof_H 	H 	0.4899	0.458	0.4382	-0.039
Mof_Zn	Zn	0.65851	0.01317	0.57648	1.236
Mof_Zn	Zn	0.61199	0.98368	0.4213	1.239
Mof_Zn	Zn	0.52239	0.98485	0.4137	1.241
Mof_P 	P 	0.64009	0.97159	0.6485	0.44
Mof_P 	P 	0.62857	0.02737	0.3565	0.416
Mof_P 	P 	0.7054	0.01156	0.5286	0.718
Mof_P 	P 	0.56687	0.97547	0.4653	0.545
Mof_P 	P 	0.50546	0.02771	0.3539	0.444
Mof_O 	O 	0.65554	0.98374	0.5741	-0.471
Mof_O 	O 	0.61838	0.97487	0.5981	-0.462
Mof_O 	O 	0.64047	0.97418	0.7956	-0.446
Mof_O 	O 	0.64983	0.02181	0.4074	-0.437
Mof_O 	O 	0.6124	0.01256	0.4192	-0.466
Mof_O 	O 	0.62814	0.0282	0.2056	-0.475
Mof_O 	O 	0.72197	0.02723	0.5434	-1.026
Mof_O 	O 	0.70245	0.00492	0.3821	-1.005
Mof_O 	O 	0.68615	0.01942	0.5859	-0.481
Mof_O 	O 	0.56711	0.99225	0.5623	-0.544
Mof_O 	O 	0.54952	0.9752	0.3819	-0.469
Mof_O 	O 	0.5849	0.97467	0.3848	-0.465
Mof_O 	O 	0.52191	0.014	0.4135	-0.476
Mof_O 	O 	0.48403	0.0227	0.4136	-0.484
Mof_O 	O 	0.50555	0.0275	0.2072	-0.504
Mof_H 	H 	0.6463	0.9512	0.6306	-0.011
Mof_H 	H 	0.6239	0.0476	0.4066	-0.015
Mof_H 	H 	0.7107	0.9972	0.6293	-0.088
Mof_H 	H 	0.5662	0.9594	0.5617	-0.061
Mof_H 	H 	0.5101	0.042	0.4382	-0.039
Mof_Zn	Zn	0.15851	0.51317	0.07648	1.223
Mof_Zn	Zn	0.11199	0.48368	0.9213	1.253
Mof_Zn	Zn	0.02239	0.48485	0.9137	1.254
Mof_P 	P 	0.14009	0.47159	0.1485	0.439
Mof_P 	P 	0.12857	0.52737	0.8565	0.419
Mof_P 	P 	0.2054	0.51156	0.0286	0.649
Mof_P 	P 	0.06687	0.47547	0.9653	0.637
Mof_P 	P 	0.00546	0.52771	0.8539	0.443
Mof_O 	O 	0.15554	0.48374	0.0741	-0.496
Mof_O 	O 	0.11838	0.47487	0.0981	-0.497
Mof_O 	O 	0.14047	0.47418	0.2956	-0.467
Mof_O 	O 	0.14983	0.52181	0.9074	-0.399
Mof_O 	O 	0.1124	0.51256	0.9192	-0.441
Mof_O 	O 	0.12814	0.5282	0.7056	-0.453
Mof_O 	O 	0.22197	0.52723	0.0434	-0.987
Mof_O 	O 	0.20245	0.50492	0.8821	-0.948
Mof_O 	O 	0.18615	0.51942	0.0859	-0.492
Mof_O 	O 	0.06711	0.49225	0.0623	-0.609
Mof_O 	O 	0.04952	0.4752	0.8819	-0.464
Mof_O 	O 	0.0849	0.47467	0.8848	-0.459
Mof_O 	O 	0.02191	0.514	0.9135	-0.453
Mof_O 	O 	0.98403	0.5227	0.9136	-0.449
Mof_O 	O 	0.00555	0.5275	0.7072	-0.482
Mof_H 	H 	0.1463	0.4512	0.1306	-0.029
Mof_H 	H 	0.1239	0.5476	0.9066	0.005
Mof_H 	H 	0.2107	0.4972	0.1293	-0.089
Mof_H 	H 	0.0662	0.4594	0.0617	-0.107
Mof_H 	H 	0.0101	0.542	0.9382	-0.019
Mof_Zn	Zn	0.76317	0.09149	0.82648	1.241
Mof_Zn	Zn	0.73368	0.13801	0.6713	1.24
Mof_Zn	Zn	0.73485	0.22761	0.6637	1.242
Mof_P 	P 	0.72159	0.10991	0.8985	0.497
Mof_P 	P 	0.77737	0.12143	0.6065	0.417
Mof_P 	P 	0.76156	0.0446	0.7786	0.719
Mof_P 	P 	0.72547	0.18313	0.7153	0.543
Mof_P 	P 	0.77771	0.24454	0.6039	0.444
Mof_O 	O 	0.73374	0.09446	0.8241	-0.466
Mof_O 	O 	0.72487	0.13162	0.8481	-0.457
Mof_O 	O 	0.72418	0.10953	0.0456	-0.525
Mof_O 	O 	0.77181	0.10017	0.6574	-0.43
Mof_O 	O 	0.76256	0.1376	0.6692	-0.459
Mof_O 	O 	0.7782	0.12186	0.4556	-0.456
Mof_O 	O 	0.77723	0.02803	0.7934	-1.015
Mof_O 	O 	0.75492	0.04755	0.6321	-1.002
Mof_O 	O 	0.76942	0.06385	0.8359	-0.463
Mof_O 	O 	0.74225	0.18289	0.8123	-0.523
Mof_O 	O 	0.7252	0.20048	0.6319	-0.464
Mof_O 	O 	0.72467	0.1651	0.6348	-0.46
Mof_O 	O 	0.764	0.22809	0.6635	-0.47
Mof_O 	O 	0.7727	0.26597	0.6636	-0.478
Mof_O 	O 	0.7775	0.24445	0.4572	-0.486
Mof_H 	H 	0.7012	0.1037	0.8806	-0.006
Mof_H 	H 	0.7976	0.1261	0.6566	-0.005
Mof_H 	H 	0.7472	0.0393	0.8793	-0.07
Mof_H 	H 	0.7094	0.1838	0.8117	-0.053
Mof_H 	H 	0.792	0.2399	0.6882	-0.03
Mof_Zn	Zn	0.26317	0.59149	0.32648	1.235
Mof_Zn	Zn	0.23368	0.63801	0.1713	1.236
Mof_Zn	Zn	0.23485	0.72761	0.1637	1.237
Mof_P 	P 	0.22159	0.60991	0.3985	0.441
Mof_P 	P 	0.27737	0.62143	0.1065	0.36
Mof_P 	P 	0.26156	0.5446	0.2786	0.708
Mof_P 	P 	0.22547	0.68313	0.2153	0.546
Mof_P 	P 	0.27771	0.74454	0.1039	0.384
Mof_O 	O 	0.23374	0.59446	0.3241	-0.476
Mof_O 	O 	0.22487	0.63162	0.3481	-0.469
Mof_O 	O 	0.22418	0.60953	0.5456	-0.465
Mof_O 	O 	0.27181	0.60017	0.1574	-0.443
Mof_O 	O 	0.26256	0.6376	0.1692	-0.474
Mof_O 	O 	0.2782	0.62186	0.9556	-0.399
Mof_O 	O 	0.27723	0.52803	0.2934	-1.028
Mof_O 	O 	0.25492	0.54755	0.1321	-0.97
Mof_O 	O 	0.26942	0.56385	0.3359	-0.486
Mof_O 	O 	0.24225	0.68289	0.3123	-0.552
Mof_O 	O 	0.2252	0.70048	0.1319	-0.487
Mof_O 	O 	0.22467	0.6651	0.1348	-0.483
Mof_O 	O 	0.264	0.72809	0.1635	-0.484
Mof_O 	O 	0.2727	0.76597	0.1636	-0.487
Mof_O 	O 	0.2775	0.74445	0.9572	-0.429
Mof_H 	H 	0.2012	0.6037	0.3806	-0.02
Mof_H 	H 	0.2976	0.6261	0.1566	-0.021
Mof_H 	H 	0.2472	0.5393	0.3793	-0.087
Mof_H 	H 	0.2094	0.6838	0.3117	-0.069
Mof_H 	H 	0.292	0.7399	0.1882	-0.037
Mof_Zn	Zn	0.73683	0.90851	0.32648	1.235
Mof_Zn	Zn	0.76632	0.86199	0.1713	1.236
Mof_Zn	Zn	0.76515	0.77239	0.1637	1.237
Mof_P 	P 	0.77841	0.89009	0.3985	0.441
Mof_P 	P 	0.72263	0.87857	0.1065	0.36
Mof_P 	P 	0.73844	0.9554	0.2786	0.708
Mof_P 	P 	0.77453	0.81687	0.2153	0.546
Mof_P 	P 	0.72229	0.75546	0.1039	0.384
Mof_O 	O 	0.76626	0.90554	0.3241	-0.476
Mof_O 	O 	0.77513	0.86838	0.3481	-0.469
Mof_O 	O 	0.77582	0.89047	0.5456	-0.465
Mof_O 	O 	0.72819	0.89983	0.1574	-0.443
Mof_O 	O 	0.73744	0.8624	0.1692	-0.474
Mof_O 	O 	0.7218	0.87814	0.9556	-0.399
Mof_O 	O 	0.72277	0.97197	0.2934	-1.028
Mof_O 	O 	0.74508	0.95245	0.1321	-0.97
Mof_O 	O 	0.73058	0.93615	0.3359	-0.486
Mof_O 	O 	0.75775	0.81711	0.3123	-0.552
Mof_O 	O 	0.7748	0.79952	0.1319	-0.487
Mof_O 	O 	0.77533	0.8349	0.1348	-0.483
Mof_O 	O 	0.736	0.77191	0.1635	-0.484
Mof_O 	O 	0.7273	0.73403	0.1636	-0.487
Mof_O 	O 	0.7225	0.75555	0.9572	-0.429
Mof_H 	H 	0.7988	0.8963	0.3806	-0.02
Mof_H 	H 	0.7024	0.8739	0.1566	-0.021
Mof_H 	H 	0.7528	0.9607	0.3793	-0.087
Mof_H 	H 	0.7906	0.8162	0.3117	-0.069
Mof_H 	H 	0.708	0.7601	0.1882	-0.037
Mof_Zn	Zn	0.23683	0.40851	0.82648	1.241
Mof_Zn	Zn	0.26632	0.36199	0.6713	1.24
Mof_Zn	Zn	0.26515	0.27239	0.6637	1.242
Mof_P 	P 	0.27841	0.39009	0.8985	0.497
Mof_P 	P 	0.22263	0.37857	0.6065	0.417
Mof_P 	P 	0.23844	0.4554	0.7786	0.719
Mof_P 	P 	0.27453	0.31687	0.7153	0.543
Mof_P 	P 	0.22229	0.25546	0.6039	0.444
Mof_O 	O 	0.26626	0.40554	0.8241	-0.466
Mof_O 	O 	0.27513	0.36838	0.8481	-0.457
Mof_O 	O 	0.27582	0.39047	0.0456	-0.525
Mof_O 	O 	0.22819	0.39983	0.6574	-0.43
Mof_O 	O 	0.23744	0.3624	0.6692	-0.459
Mof_O 	O 	0.2218	0.37814	0.4556	-0.456
Mof_O 	O 	0.22277	0.47197	0.7934	-1.015
Mof_O 	O 	0.24508	0.45245	0.6321	-1.002
Mof_O 	O 	0.23058	0.43615	0.8359	-0.463
Mof_O 	O 	0.25775	0.31711	0.8123	-0.523
Mof_O 	O 	0.2748	0.29952	0.6319	-0.464
Mof_O 	O 	0.27533	0.3349	0.6348	-0.46
Mof_O 	O 	0.236	0.27191	0.6635	-0.47
Mof_O 	O 	0.2273	0.23403	0.6636	-0.478
Mof_O 	O 	0.2225	0.25555	0.4572	-0.486
Mof_H 	H 	0.2988	0.3963	0.8806	-0.006
Mof_H 	H 	0.2024	0.3739	0.6566	-0.005
Mof_H 	H 	0.2528	0.4607	0.8793	-0.07
Mof_H 	H 	0.2906	0.3162	0.8117	-0.053
Mof_H 	H 	0.208	0.2601	0.6882	-0.03
Mof_Zn	Zn	0.65851	0.98683	0.92352	1.25
Mof_Zn	Zn	0.61199	0.01632	0.0787	1.225
Mof_Zn	Zn	0.52239	0.01515	0.0863	1.227
Mof_P 	P 	0.64009	0.02841	0.8515	0.443
Mof_P 	P 	0.62857	0.97263	0.1435	0.413
Mof_P 	P 	0.7054	0.98844	0.9714	0.764
Mof_P 	P 	0.56687	0.02453	0.0347	0.45
Mof_P 	P 	0.50546	0.97229	0.1461	0.446
Mof_O 	O 	0.65554	0.01626	0.9259	-0.445
Mof_O 	O 	0.61838	0.02513	0.9019	-0.437
Mof_O 	O 	0.64047	0.02582	0.7044	-0.463
Mof_O 	O 	0.64983	0.97819	0.0926	-0.466
Mof_O 	O 	0.6124	0.98744	0.0808	-0.49
Mof_O 	O 	0.62814	0.9718	0.2944	-0.458
Mof_O 	O 	0.72197	0.97277	0.9566	-0.939
Mof_O 	O 	0.70245	0.99508	0.1179	-1.05
Mof_O 	O 	0.68615	0.98058	0.9141	-0.469
Mof_O 	O 	0.56711	0.00775	0.9377	-0.484
Mof_O 	O 	0.54952	0.0248	0.1181	-0.468
Mof_O 	O 	0.5849	0.02533	0.1152	-0.466
Mof_O 	O 	0.52191	0.986	0.0865	-0.498
Mof_O 	O 	0.48403	0.9773	0.0864	-0.509
Mof_O 	O 	0.50555	0.9725	0.2928	-0.489
Mof_H 	H 	0.6463	0.0488	0.8694	-0.003
Mof_H 	H 	0.6239	0.9524	0.0934	-0.028
Mof_H 	H 	0.7107	0.0028	0.8707	-0.083
Mof_H 	H 	0.5662	0.0406	0.9383	-0.024
Mof_H 	H 	0.5101	0.958	0.0618	-0.054
Mof_Zn	Zn	0.15851	0.48683	0.42352	1.236
Mof_Zn	Zn	0.11199	0.51632	0.5787	1.239
Mof_Zn	Zn	0.02239	0.51515	0.5863	1.241
Mof_P 	P 	0.14009	0.52841	0.3515	0.442
Mof_P 	P 	0.12857	0.47263	0.6435	0.416
Mof_P 	P 	0.2054	0.48844	0.4714	0.718
Mof_P 	P 	0.06687	0.52453	0.5347	0.545
Mof_P 	P 	0.00546	0.47229	0.6461	0.445
Mof_O 	O 	0.15554	0.51626	0.4259	-0.471
Mof_O 	O 	0.11838	0.52513	0.4019	-0.472
Mof_O 	O 	0.14047	0.52582	0.2044	-0.484
Mof_O 	O 	0.14983	0.47819	0.5926	-0.428
Mof_O 	O 	0.1124	0.48744	0.5808	-0.465
Mof_O 	O 	0.12814	0.4718	0.7944	-0.437
Mof_O 	O 	0.22197	0.47277	0.4566	-1.029
Mof_O 	O 	0.20245	0.49508	0.6179	-1.001
Mof_O 	O 	0.18615	0.48058	0.4141	-0.484
Mof_O 	O 	0.06711	0.50775	0.4377	-0.55
Mof_O 	O 	0.04952	0.5248	0.6181	-0.463
Mof_O 	O 	0.0849	0.52533	0.6152	-0.459
Mof_O 	O 	0.02191	0.486	0.5865	-0.475
Mof_O 	O 	0.98403	0.4773	0.5864	-0.475
Mof_O 	O 	0.00555	0.4725	0.7928	-0.467
Mof_H 	H 	0.1463	0.5488	0.3694	-0.021
Mof_H 	H 	0.1239	0.4524	0.5934	-0.008
Mof_H 	H 	0.2107	0.5028	0.3707	-0.09
Mof_H 	H 	0.0662	0.5406	0.4383	-0.071
Mof_H 	H 	0.0101	0.458	0.5618	-0.034
Mof_Zn	Zn	0.84149	0.01317	0.42352	1.236
Mof_Zn	Zn	0.88801	0.98368	0.5787	1.239
Mof_Zn	Zn	0.97761	0.98485	0.5863	1.241
Mof_P 	P 	0.85991	0.97159	0.3515	0.442
Mof_P 	P 	0.87143	0.02737	0.6435	0.416
Mof_P 	P 	0.7946	0.01156	0.4714	0.718
Mof_P 	P 	0.93313	0.97547	0.5347	0.545
Mof_P 	P 	0.99454	0.02771	0.6461	0.445
Mof_O 	O 	0.84446	0.98374	0.4259	-0.471
Mof_O 	O 	0.88162	0.97487	0.4019	-0.472
Mof_O 	O 	0.85953	0.97418	0.2044	-0.484
Mof_O 	O 	0.85017	0.02181	0.5926	-0.428
Mof_O 	O 	0.8876	0.01256	0.5808	-0.465
Mof_O 	O 	0.87186	0.0282	0.7944	-0.437
Mof_O 	O 	0.77803	0.02723	0.4566	-1.029
Mof_O 	O 	0.79755	0.00492	0.6179	-1.001
Mof_O 	O 	0.81385	0.01942	0.4141	-0.484
Mof_O 	O 	0.93289	0.99225	0.4377	-0.55
Mof_O 	O 	0.95048	0.9752	0.6181	-0.463
Mof_O 	O 	0.9151	0.97467	0.6152	-0.459
Mof_O 	O 	0.97809	0.014	0.5865	-0.475
Mof_O 	O 	0.01597	0.0227	0.5864	-0.475
Mof_O 	O 	0.99445	0.0275	0.7928	-0.467
Mof_H 	H 	0.8537	0.9512	0.3694	-0.021
Mof_H 	H 	0.8761	0.0476	0.5934	-0.008
Mof_H 	H 	0.7893	0.9972	0.3707	-0.09
Mof_H 	H 	0.9338	0.9594	0.4383	-0.071
Mof_H 	H 	0.9899	0.042	0.5618	-0.034
Mof_Zn	Zn	0.34149	0.51317	0.92352	1.25
Mof_Zn	Zn	0.38801	0.48368	0.0787	1.225
Mof_Zn	Zn	0.47761	0.48485	0.0863	1.227
Mof_P 	P 	0.35991	0.47159	0.8515	0.443
Mof_P 	P 	0.37143	0.52737	0.1435	0.413
Mof_P 	P 	0.2946	0.51156	0.9714	0.764
Mof_P 	P 	0.43313	0.47547	0.0347	0.45
Mof_P 	P 	0.49454	0.52771	0.1461	0.446
Mof_O 	O 	0.34446	0.48374	0.9259	-0.445
Mof_O 	O 	0.38162	0.47487	0.9019	-0.437
Mof_O 	O 	0.35953	0.47418	0.7044	-0.463
Mof_O 	O 	0.35017	0.52181	0.0926	-0.466
Mof_O 	O 	0.3876	0.51256	0.0808	-0.49
Mof_O 	O 	0.37186	0.5282	0.2944	-0.458
Mof_O 	O 	0.27803	0.52723	0.9566	-0.939
Mof_O 	O 	0.29755	0.50492	0.1179	-1.05
Mof_O 	O 	0.31385	0.51942	0.9141	-0.469
Mof_O 	O 	0.43289	0.49225	0.9377	-0.484
Mof_O 	O 	0.45048	0.4752	0.1181	-0.468
Mof_O 	O 	0.4151	0.47467	0.1152	-0.466
Mof_O 	O 	0.47809	0.514	0.0865	-0.498
Mof_O 	O 	0.51597	0.5227	0.0864	-0.509
Mof_O 	O 	0.49445	0.5275	0.2928	-0.489
Mof_H 	H 	0.3537	0.4512	0.8694	-0.003
Mof_H 	H 	0.3761	0.5476	0.0934	-0.028
Mof_H 	H 	0.2893	0.4972	0.8707	-0.083
Mof_H 	H 	0.4338	0.4594	0.9383	-0.024
Mof_H 	H 	0.4899	0.542	0.0618	-0.054
Mof_Zn	Zn	0.73683	0.09149	0.17352	1.232
Mof_Zn	Zn	0.76632	0.13801	0.3287	1.239
Mof_Zn	Zn	0.76515	0.22761	0.3363	1.24
Mof_P 	P 	0.77841	0.10991	0.1015	0.385
Mof_P 	P 	0.72263	0.12143	0.3935	0.415
Mof_P 	P 	0.73844	0.0446	0.2214	0.717
Mof_P 	P 	0.77453	0.18313	0.2847	0.545
Mof_P 	P 	0.72229	0.24454	0.3961	0.445
Mof_O 	O 	0.76626	0.09446	0.1759	-0.475
Mof_O 	O 	0.77513	0.13162	0.1519	-0.476
Mof_O 	O 	0.77582	0.10953	0.9544	-0.405
Mof_O 	O 	0.72819	0.10017	0.3426	-0.435
Mof_O 	O 	0.73744	0.1376	0.3308	-0.471
Mof_O 	O 	0.7218	0.12186	0.5444	-0.456
Mof_O 	O 	0.72277	0.02803	0.2066	-1.039
Mof_O 	O 	0.74508	0.04755	0.3679	-1.005
Mof_O 	O 	0.73058	0.06385	0.1641	-0.501
Mof_O 	O 	0.75775	0.18289	0.1877	-0.561
Mof_O 	O 	0.7748	0.20048	0.3681	-0.467
Mof_O 	O 	0.77533	0.1651	0.3652	-0.463
Mof_O 	O 	0.736	0.22809	0.3365	-0.481
Mof_O 	O 	0.7273	0.26597	0.3364	-0.481
Mof_O 	O 	0.7225	0.24445	0.5428	-0.485
Mof_H 	H 	0.7988	0.1037	0.1194	-0.026
Mof_H 	H 	0.7024	0.1261	0.3434	-0.019
Mof_H 	H 	0.7528	0.0393	0.1207	-0.108
Mof_H 	H 	0.7906	0.1838	0.1883	-0.077
Mof_H 	H 	0.708	0.2399	0.3118	-0.043
Mof_Zn	Zn	0.23683	0.59149	0.67352	1.237
Mof_Zn	Zn	0.26632	0.63801	0.8287	1.242
Mof_Zn	Zn	0.26515	0.72761	0.8363	1.244
Mof_P 	P 	0.27841	0.60991	0.6015	0.441
Mof_P 	P 	0.22263	0.62143	0.8935	0.472
Mof_P 	P 	0.23844	0.5446	0.7214	0.708
Mof_P 	P 	0.27453	0.68313	0.7847	0.544
Mof_P 	P 	0.22229	0.74454	0.8961	0.505
Mof_O 	O 	0.26626	0.59446	0.6759	-0.466
Mof_O 	O 	0.27513	0.63162	0.6519	-0.465
Mof_O 	O 	0.27582	0.60953	0.4544	-0.466
Mof_O 	O 	0.22819	0.60017	0.8426	-0.422
Mof_O 	O 	0.23744	0.6376	0.8308	-0.457
Mof_O 	O 	0.2218	0.62186	0.0444	-0.512
Mof_O 	O 	0.22277	0.52803	0.7066	-1.016
Mof_O 	O 	0.24508	0.54755	0.8679	-0.913
Mof_O 	O 	0.23058	0.56385	0.6641	-0.476
Mof_O 	O 	0.25775	0.68289	0.6877	-0.543
Mof_O 	O 	0.2748	0.70048	0.8681	-0.445
Mof_O 	O 	0.27533	0.6651	0.8652	-0.442
Mof_O 	O 	0.236	0.72809	0.8365	-0.468
Mof_O 	O 	0.2273	0.76597	0.8364	-0.47
Mof_O 	O 	0.2225	0.74445	0.0428	-0.542
Mof_H 	H 	0.2988	0.6037	0.6194	-0.012
Mof_H 	H 	0.2024	0.6261	0.8434	-0.002
Mof_H 	H 	0.2528	0.5393	0.6207	-0.086
Mof_H 	H 	0.2906	0.6838	0.6883	-0.063
Mof_H 	H 	0.208	0.7399	0.8118	-0.036
Mof_Zn	Zn	0.76317	0.90851	0.67352	1.237
Mof_Zn	Zn	0.73368	0.86199	0.8287	1.242
Mof_Zn	Zn	0.73485	0.77239	0.8363	1.244
Mof_P 	P 	0.72159	0.89009	0.6015	0.441
Mof_P 	P 	0.77737	0.87857	0.8935	0.472
Mof_P 	P 	0.76156	0.9554	0.7214	0.708
Mof_P 	P 	0.72547	0.81687	0.7847	0.544
Mof_P 	P 	0.77771	0.75546	0.8961	0.505
Mof_O 	O 	0.73374	0.90554	0.6759	-0.466
Mof_O 	O 	0.72487	0.86838	0.6519	-0.465
Mof_O 	O 	0.72418	0.89047	0.4544	-0.466
Mof_O 	O 	0.77181	0.89983	0.8426	-0.422
Mof_O 	O 	0.76256	0.8624	0.8308	-0.457
Mof_O 	O 	0.7782	0.87814	0.0444	-0.512
Mof_O 	O 	0.77723	0.97197	0.7066	-1.016
Mof_O 	O 	0.75492	0.95245	0.8679	-0.913
Mof_O 	O 	0.76942	0.93615	0.6641	-0.476
Mof_O 	O 	0.74225	0.81711	0.6877	-0.543
Mof_O 	O 	0.7252	0.79952	0.8681	-0.445
Mof_O 	O 	0.72467	0.8349	0.8652	-0.442
Mof_O 	O 	0.764	0.77191	0.8365	-0.468
Mof_O 	O 	0.7727	0.73403	0.8364	-0.47
Mof_O 	O 	0.7775	0.75555	0.0428	-0.542
Mof_H 	H 	0.7012	0.8963	0.6194	-0.012
Mof_H 	H 	0.7976	0.8739	0.8434	-0.002
Mof_H 	H 	0.7472	0.9607	0.6207	-0.086
Mof_H 	H 	0.7094	0.8162	0.6883	-0.063
Mof_H 	H 	0.792	0.7601	0.8118	-0.036
Mof_Zn	Zn	0.26317	0.40851	0.17352	1.232
Mof_Zn	Zn	0.23368	0.36199	0.3287	1.239
Mof_Zn	Zn	0.23485	0.27239	0.3363	1.24
Mof_P 	P 	0.22159	0.39009	0.1015	0.385
Mof_P 	P 	0.27737	0.37857	0.3935	0.415
Mof_P 	P 	0.26156	0.4554	0.2214	0.717
Mof_P 	P 	0.22547	0.31687	0.2847	0.545
Mof_P 	P 	0.27771	0.25546	0.3961	0.445
Mof_O 	O 	0.23374	0.40554	0.1759	-0.475
Mof_O 	O 	0.22487	0.36838	0.1519	-0.476
Mof_O 	O 	0.22418	0.39047	0.9544	-0.405
Mof_O 	O 	0.27181	0.39983	0.3426	-0.435
Mof_O 	O 	0.26256	0.3624	0.3308	-0.471
Mof_O 	O 	0.2782	0.37814	0.5444	-0.456
Mof_O 	O 	0.27723	0.47197	0.2066	-1.039
Mof_O 	O 	0.25492	0.45245	0.3679	-1.005
Mof_O 	O 	0.26942	0.43615	0.1641	-0.501
Mof_O 	O 	0.24225	0.31711	0.1877	-0.561
Mof_O 	O 	0.2252	0.29952	0.3681	-0.467
Mof_O 	O 	0.22467	0.3349	0.3652	-0.463
Mof_O 	O 	0.264	0.27191	0.3365	-0.481
Mof_O 	O 	0.2727	0.23403	0.3364	-0.481
Mof_O 	O 	0.2775	0.25555	0.5428	-0.485
Mof_H 	H 	0.2012	0.3963	0.1194	-0.026
Mof_H 	H 	0.2976	0.3739	0.3434	-0.019
Mof_H 	H 	0.2472	0.4607	0.1207	-0.108
Mof_H 	H 	0.2094	0.3162	0.1883	-0.077
Mof_H 	H 	0.292	0.2601	0.3118	-0.043
Mof_Ga	Ga	0.25	0.027	-0	4.275
Mof_Ga	Ga	0.75	0.527	0.5	4.628
Mof_Ga	Ga	0.25	0.973	0.5	4.628
Mof_Ga	Ga	0.75	0.473	-0	4.275
Mof_Ga	Ga	0.223	2.87545e-34	0.25	4.621
Mof_Ga	Ga	0.723	0.5	0.75	4.63
Mof_Ga	Ga	0.277	1.15018e-33	0.75	4.63
Mof_Ga	Ga	0.777	0.5	0.25	4.621
Mof_Ga	Ga	0.75	0.973	-0	4.275
Mof_Ga	Ga	0.25	0.473	0.5	4.628
Mof_Ga	Ga	0.75	0.027	0.5	4.628
Mof_Ga	Ga	0.25	0.527	-0	4.275
Mof_Ga	Ga	0.777	1.15018e-33	0.75	4.63
Mof_Ga	Ga	0.277	0.5	0.25	4.621
Mof_Ga	Ga	0.723	2.87545e-34	0.25	4.621
Mof_Ga	Ga	0.223	0.5	0.75	4.63
Mof_Zn	Zn	0.06722	1.15018e-33	0.75	1.164
Mof_Zn	Zn	0.56722	0.5	0.25	1.157
Mof_Zn	Zn	0.43278	2.87545e-34	0.25	1.157
Mof_Zn	Zn	0.93278	0.5	0.75	1.164
Mof_Zn	Zn	0.25	0.81722	-0	1.139
Mof_Zn	Zn	0.75	0.31722	0.5	1.16
Mof_Zn	Zn	0.25	0.18278	0.5	1.16
Mof_Zn	Zn	0.75	0.68278	-0	1.139
Mof_Zn	Zn	0.93278	2.87545e-34	0.25	1.157
Mof_Zn	Zn	0.43278	0.5	0.75	1.164
Mof_Zn	Zn	0.56722	1.15018e-33	0.75	1.164
Mof_Zn	Zn	0.06722	0.5	0.25	1.157
Mof_Zn	Zn	0.75	0.18278	-0	1.139
Mof_Zn	Zn	0.25	0.68278	0.5	1.16
Mof_Zn	Zn	0.75	0.81722	0.5	1.16
Mof_Zn	Zn	0.25	0.31722	-0	1.139
Mof_F 	F 	0.24446	0.00554	0.125	-1.508
Mof_F 	F 	0.74446	0.50554	0.625	-1.534
Mof_F 	F 	0.25554	0.99446	0.625	-1.534
Mof_F 	F 	0.75554	0.49446	0.125	-1.508
Mof_F 	F 	0.24446	0.99446	0.375	-1.534
Mof_F 	F 	0.74446	0.49446	0.875	-1.465
Mof_F 	F 	0.25554	0.00554	0.875	-1.465
Mof_F 	F 	0.75554	0.50554	0.375	-1.534
Mof_F 	F 	0.75554	0.99446	0.875	-1.465
Mof_F 	F 	0.25554	0.49446	0.375	-1.534
Mof_F 	F 	0.74446	0.00554	0.375	-1.534
Mof_F 	F 	0.24446	0.50554	0.875	-1.465
Mof_F 	F 	0.75554	0.00554	0.625	-1.534
Mof_F 	F 	0.25554	0.50554	0.125	-1.508
Mof_F 	F 	0.74446	0.99446	0.125	-1.508
Mof_F 	F 	0.24446	0.49446	0.625	-1.534
_end
