data_functionalizedCrystal
_audit_creation_method	'EQeq! by Chris Wilmer'
_symmetry_space_group_name_H-M	'P1'
_symmetry_Int_Tables_number	1
_symmetry_cell_setting	triclinic
loop_
_symmetry_equiv_pos_as_xyz
  x,y,z
_cell_length_a	6.6303
_cell_length_b	16.7973
_cell_length_c	12.7469
_cell_angle_alpha	90
_cell_angle_beta	90
_cell_angle_gamma	90
loop_
_atom_site_label
_atom_site_type_symbol
_atom_site_fract_x
_atom_site_fract_y
_atom_site_fract_z
_atom_site_charge
Mof_O 	O 	0.16793	0.1677	0.84262	-1.507
Mof_C 	C 	0.8081	0.03515	0.9694	0.025
Mof_O 	O 	0.66793	0.6677	0.34262	-1.496
Mof_C 	C 	0.3081	0.53515	0.4694	0.073
Mof_O 	O 	0.83207	0.3323	0.84262	-1.528
Mof_C 	C 	0.1919	0.46485	0.9694	0.06
Mof_O 	O 	0.33207	0.8323	0.34262	-1.496
Mof_C 	C 	0.6919	0.96485	0.4694	0.051
Mof_O 	O 	0.83207	0.6677	0.15738	-1.528
Mof_C 	C 	0.1919	0.53515	0.0306	0.06
Mof_O 	O 	0.33207	0.1677	0.65738	-1.496
Mof_C 	C 	0.6919	0.03515	0.5306	0.051
Mof_O 	O 	0.16793	0.8323	0.15738	-1.506
Mof_C 	C 	0.8081	0.96485	0.0306	0.026
Mof_O 	O 	0.66793	0.3323	0.65738	-1.496
Mof_C 	C 	0.3081	0.46485	0.5306	0.073
Mof_O 	O 	0.83207	0.8323	0.15738	-1.528
Mof_C 	C 	0.1919	0.96485	0.0306	0.06
Mof_O 	O 	0.33207	0.3323	0.65738	-1.496
Mof_C 	C 	0.6919	0.46485	0.5306	0.051
Mof_O 	O 	0.16793	0.6677	0.15738	-1.506
Mof_C 	C 	0.8081	0.53515	0.0306	0.025
Mof_O 	O 	0.66793	0.1677	0.65738	-1.496
Mof_C 	C 	0.3081	0.03515	0.5306	0.072
Mof_O 	O 	0.16793	0.3323	0.84262	-1.506
Mof_C 	C 	0.8081	0.46485	0.9694	0.025
Mof_O 	O 	0.66793	0.8323	0.34262	-1.496
Mof_C 	C 	0.3081	0.96485	0.4694	0.072
Mof_O 	O 	0.83207	0.1677	0.84262	-1.528
Mof_C 	C 	0.1919	0.03515	0.9694	0.06
Mof_O 	O 	0.33207	0.6677	0.34262	-1.496
Mof_C 	C 	0.6919	0.53515	0.4694	0.051
Mof_Al	Al	0.25	0.25	0.75	6.384
Mof_Al	Al	0.75	0.25	0.75	6.29
Mof_Al	Al	0.75	0.75	0.25	6.29
Mof_Al	Al	0.25	0.75	0.25	6.384
Mof_O 	O 	-3.06178e-32	0.25	0.6861	-2.22
Mof_O 	O 	0.5	0.75	0.1861	-2.248
Mof_O 	O 	-1.5519e-32	0.75	0.3139	-2.22
Mof_O 	O 	0.5	0.25	0.8139	-2.248
Mof_C 	C 	6.81257e-33	0.063	0.9451	-0.236
Mof_C 	C 	-2.9285e-32	0.13775	0.871	1.137
Mof_C 	C 	0.5	0.563	0.4451	-0.276
Mof_C 	C 	0.5	0.63775	0.371	1.089
Mof_C 	C 	-1.09691e-32	0.437	0.9451	-0.235
Mof_C 	C 	-4.70667e-32	0.36225	0.871	1.137
Mof_C 	C 	0.5	0.937	0.4451	-0.276
Mof_C 	C 	0.5	0.86225	0.371	1.089
Mof_C 	C 	2.61845e-33	0.563	0.0549	-0.235
Mof_C 	C 	-1.29284e-33	0.63775	0.129	1.137
Mof_C 	C 	0.5	0.063	0.5549	-0.276
Mof_C 	C 	0.5	0.13775	0.629	1.089
Mof_C 	C 	-1.51632e-32	0.937	0.0549	-0.236
Mof_C 	C 	-1.90745e-32	0.86225	0.129	1.137
Mof_C 	C 	0.5	0.437	0.5549	-0.276
Mof_C 	C 	0.5	0.36225	0.629	1.089
_end
