data_functionalizedCrystal
_audit_creation_method	'EQeq! by Chris Wilmer'
_symmetry_space_group_name_H-M	'P1'
_symmetry_Int_Tables_number	1
_symmetry_cell_setting	triclinic
loop_
_symmetry_equiv_pos_as_xyz
  x,y,z
_cell_length_a	16.3455
_cell_length_b	16.3455
_cell_length_c	21.8609
_cell_angle_alpha	68.0466
_cell_angle_beta	68.0466
_cell_angle_gamma	60
loop_
_atom_site_label
_atom_site_type_symbol
_atom_site_fract_x
_atom_site_fract_y
_atom_site_fract_z
_atom_site_charge
Mof_Mn	Mn	0.0453	0.30924	0.78211	0.866
Mof_Mn	Mn	0.30924	0.86335	0.78211	0.867
Mof_Mn	Mn	0.86335	0.0453	0.78211	0.866
Mof_Mn	Mn	0.4547	0.63665	0.71789	0.867
Mof_Mn	Mn	0.19076	0.4547	0.71789	0.868
Mof_Mn	Mn	0.63665	0.19076	0.71789	0.868
Mof_Mn	Mn	0.9547	0.69076	0.21789	0.867
Mof_Mn	Mn	0.69076	0.13665	0.21789	0.868
Mof_Mn	Mn	0.13665	0.9547	0.21789	0.867
Mof_Mn	Mn	0.5453	0.36335	0.28211	0.868
Mof_Mn	Mn	0.80924	0.5453	0.28211	0.868
Mof_Mn	Mn	0.36335	0.80924	0.28211	0.868
Mof_H 	H 	0.3061	0.3058	0.9145	0.035
Mof_H 	H 	0.3201	0.2153	0.0306	0.055
Mof_H 	H 	0.1632	0.0978	0.7447	0.027
Mof_H 	H 	0.193	0.085	0.8092	0.028
Mof_H 	H 	0.0677	0.1277	0.9109	0.045
Mof_H 	H 	0.9578	0.1699	0.9112	0.044
Mof_H 	H 	0.3058	0.4736	0.9145	0.035
Mof_H 	H 	0.2153	0.434	0.0306	0.056
Mof_H 	H 	0.0978	0.9943	0.7447	0.027
Mof_H 	H 	0.085	0.9128	0.8092	0.028
Mof_H 	H 	0.1277	0.8937	0.9109	0.045
Mof_H 	H 	0.1699	0.9611	0.9112	0.044
Mof_H 	H 	0.4736	0.3061	0.9145	0.035
Mof_H 	H 	0.434	0.3201	0.0306	0.056
Mof_H 	H 	0.9943	0.1632	0.7447	0.027
Mof_H 	H 	0.9128	0.193	0.8092	0.028
Mof_H 	H 	0.8937	0.0677	0.9109	0.046
Mof_H 	H 	0.9611	0.9578	0.9112	0.047
Mof_H 	H 	0.1939	0.0264	0.5855	0.036
Mof_H 	H 	0.1799	0.066	0.4694	0.055
Mof_H 	H 	0.3368	0.5057	0.7553	0.027
Mof_H 	H 	0.307	0.5872	0.6908	0.028
Mof_H 	H 	0.4323	0.6063	0.5891	0.045
Mof_H 	H 	0.5422	0.5389	0.5888	0.044
Mof_H 	H 	0.1942	0.1939	0.5855	0.035
Mof_H 	H 	0.2847	0.1799	0.4694	0.056
Mof_H 	H 	0.4022	0.3368	0.7553	0.027
Mof_H 	H 	0.415	0.307	0.6908	0.028
Mof_H 	H 	0.3723	0.4323	0.5891	0.045
Mof_H 	H 	0.3301	0.5422	0.5888	0.044
Mof_H 	H 	0.0264	0.1942	0.5855	0.036
Mof_H 	H 	0.066	0.2847	0.4694	0.055
Mof_H 	H 	0.5057	0.4022	0.7553	0.027
Mof_H 	H 	0.5872	0.415	0.6908	0.028
Mof_H 	H 	0.6063	0.3723	0.5891	0.045
Mof_H 	H 	0.5389	0.3301	0.5888	0.044
Mof_H 	H 	0.6939	0.6942	0.0855	0.035
Mof_H 	H 	0.6799	0.7847	0.9694	0.055
Mof_H 	H 	0.8368	0.9022	0.2553	0.027
Mof_H 	H 	0.807	0.915	0.1908	0.028
Mof_H 	H 	0.9323	0.8723	0.0891	0.045
Mof_H 	H 	0.0422	0.8301	0.0888	0.044
Mof_H 	H 	0.6942	0.5264	0.0855	0.035
Mof_H 	H 	0.7847	0.566	0.9694	0.056
Mof_H 	H 	0.9022	0.0057	0.2553	0.027
Mof_H 	H 	0.915	0.0872	0.1908	0.028
Mof_H 	H 	0.8723	0.1063	0.0891	0.045
Mof_H 	H 	0.8301	0.0389	0.0888	0.044
Mof_H 	H 	0.5264	0.6939	0.0855	0.035
Mof_H 	H 	0.566	0.6799	0.9694	0.056
Mof_H 	H 	0.0057	0.8368	0.2553	0.027
Mof_H 	H 	0.0872	0.807	0.1908	0.028
Mof_H 	H 	0.1063	0.9323	0.0891	0.046
Mof_H 	H 	0.0389	0.0422	0.0888	0.047
Mof_H 	H 	0.8061	0.9736	0.4145	0.036
Mof_H 	H 	0.8201	0.934	0.5306	0.055
Mof_H 	H 	0.6632	0.4943	0.2447	0.027
Mof_H 	H 	0.693	0.4128	0.3092	0.028
Mof_H 	H 	0.5677	0.3937	0.4109	0.045
Mof_H 	H 	0.4578	0.4611	0.4112	0.044
Mof_H 	H 	0.8058	0.8061	0.4145	0.035
Mof_H 	H 	0.7153	0.8201	0.5306	0.056
Mof_H 	H 	0.5978	0.6632	0.2447	0.027
Mof_H 	H 	0.585	0.693	0.3092	0.028
Mof_H 	H 	0.6277	0.5677	0.4109	0.045
Mof_H 	H 	0.6699	0.4578	0.4112	0.044
Mof_H 	H 	0.9736	0.8058	0.4145	0.036
Mof_H 	H 	0.934	0.7153	0.5306	0.055
Mof_H 	H 	0.4943	0.5978	0.2447	0.027
Mof_H 	H 	0.4128	0.585	0.3092	0.028
Mof_H 	H 	0.3937	0.6277	0.4109	0.045
Mof_H 	H 	0.4611	0.6699	0.4112	0.044
Mof_C 	C 	0.19592	0.28847	0.8506	0.394
Mof_C 	C 	0.21901	0.24816	0.91888	-0.108
Mof_C 	C 	0.2757	0.26445	0.94096	0.004
Mof_C 	C 	0.28379	0.21226	0.00813	-0.022
Mof_C 	C 	0.23239	0.15732	0.03576	-0.078
Mof_C 	C 	0.22394	0.09316	0.10578	0.34
Mof_C 	C 	0.14646	0.08144	0.79396	0.001
Mof_C 	C 	0.02269	0.12466	0.89377	-0.006
Mof_C 	C 	0.28847	0.66501	0.8506	0.394
Mof_C 	C 	0.24816	0.61395	0.91888	-0.109
Mof_C 	C 	0.26445	0.51889	0.94096	0.005
Mof_C 	C 	0.21226	0.49582	0.00813	-0.023
Mof_C 	C 	0.15732	0.57453	0.03576	-0.079
Mof_C 	C 	0.09316	0.57712	0.10578	0.34
Mof_C 	C 	0.08144	0.97814	0.79396	0.001
Mof_C 	C 	0.12466	0.95888	0.89377	-0.005
Mof_C 	C 	0.66501	0.19592	0.8506	0.394
Mof_C 	C 	0.61395	0.21901	0.91888	-0.109
Mof_C 	C 	0.51889	0.2757	0.94096	0.006
Mof_C 	C 	0.49582	0.28379	0.00813	-0.023
Mof_C 	C 	0.57453	0.23239	0.03576	-0.079
Mof_C 	C 	0.57712	0.22394	0.10578	0.34
Mof_C 	C 	0.97814	0.14646	0.79396	0.001
Mof_C 	C 	0.95888	0.02269	0.89377	-0.009
Mof_C 	C 	0.30408	0.83499	0.6494	0.394
Mof_C 	C 	0.28099	0.88605	0.58112	-0.109
Mof_C 	C 	0.2243	0.98111	0.55904	0.005
Mof_C 	C 	0.21621	0.00418	0.49187	-0.021
Mof_C 	C 	0.26761	0.92547	0.46424	-0.08
Mof_C 	C 	0.27606	0.92288	0.39422	0.341
Mof_C 	C 	0.35354	0.52186	0.70604	0.001
Mof_C 	C 	0.47731	0.54112	0.60623	-0.005
Mof_C 	C 	0.21153	0.30408	0.6494	0.395
Mof_C 	C 	0.25184	0.28099	0.58112	-0.109
Mof_C 	C 	0.23555	0.2243	0.55904	0.007
Mof_C 	C 	0.28774	0.21621	0.49187	-0.024
Mof_C 	C 	0.34268	0.26761	0.46424	-0.079
Mof_C 	C 	0.40684	0.27606	0.39422	0.34
Mof_C 	C 	0.41856	0.35354	0.70604	0.001
Mof_C 	C 	0.37534	0.47731	0.60623	-0.005
Mof_C 	C 	0.83499	0.21153	0.6494	0.394
Mof_C 	C 	0.88605	0.25184	0.58112	-0.109
Mof_C 	C 	0.98111	0.23555	0.55904	0.005
Mof_C 	C 	0.00418	0.28774	0.49187	-0.022
Mof_C 	C 	0.92547	0.34268	0.46424	-0.08
Mof_C 	C 	0.92288	0.40684	0.39422	0.341
Mof_C 	C 	0.52186	0.41856	0.70604	0.001
Mof_C 	C 	0.54112	0.37534	0.60623	-0.005
Mof_C 	C 	0.80408	0.71153	0.1494	0.394
Mof_C 	C 	0.78099	0.75184	0.08112	-0.108
Mof_C 	C 	0.7243	0.73555	0.05904	0.004
Mof_C 	C 	0.71621	0.78774	0.99187	-0.022
Mof_C 	C 	0.76761	0.84268	0.96424	-0.078
Mof_C 	C 	0.77606	0.90684	0.89422	0.34
Mof_C 	C 	0.85354	0.91856	0.20604	0.001
Mof_C 	C 	0.97731	0.87534	0.10623	-0.006
Mof_C 	C 	0.71153	0.33499	0.1494	0.394
Mof_C 	C 	0.75184	0.38605	0.08112	-0.109
Mof_C 	C 	0.73555	0.48111	0.05904	0.005
Mof_C 	C 	0.78774	0.50418	0.99187	-0.023
Mof_C 	C 	0.84268	0.42547	0.96424	-0.079
Mof_C 	C 	0.90684	0.42288	0.89422	0.34
Mof_C 	C 	0.91856	0.02186	0.20604	0.001
Mof_C 	C 	0.87534	0.04112	0.10623	-0.005
Mof_C 	C 	0.33499	0.80408	0.1494	0.394
Mof_C 	C 	0.38605	0.78099	0.08112	-0.109
Mof_C 	C 	0.48111	0.7243	0.05904	0.006
Mof_C 	C 	0.50418	0.71621	0.99187	-0.023
Mof_C 	C 	0.42547	0.76761	0.96424	-0.079
Mof_C 	C 	0.42288	0.77606	0.89422	0.34
Mof_C 	C 	0.02186	0.85354	0.20604	0.001
Mof_C 	C 	0.04112	0.97731	0.10623	-0.009
Mof_C 	C 	0.69592	0.16501	0.3506	0.394
Mof_C 	C 	0.71901	0.11395	0.41888	-0.109
Mof_C 	C 	0.7757	0.01889	0.44096	0.005
Mof_C 	C 	0.78379	0.99582	0.50813	-0.021
Mof_C 	C 	0.73239	0.07453	0.53576	-0.08
Mof_C 	C 	0.72394	0.07712	0.60578	0.341
Mof_C 	C 	0.64646	0.47814	0.29396	0.001
Mof_C 	C 	0.52269	0.45888	0.39377	-0.005
Mof_C 	C 	0.78847	0.69592	0.3506	0.395
Mof_C 	C 	0.74816	0.71901	0.41888	-0.109
Mof_C 	C 	0.76445	0.7757	0.44096	0.007
Mof_C 	C 	0.71226	0.78379	0.50813	-0.024
Mof_C 	C 	0.65732	0.73239	0.53576	-0.079
Mof_C 	C 	0.59316	0.72394	0.60578	0.34
Mof_C 	C 	0.58144	0.64646	0.29396	0.001
Mof_C 	C 	0.62466	0.52269	0.39377	-0.005
Mof_C 	C 	0.16501	0.78847	0.3506	0.394
Mof_C 	C 	0.11395	0.74816	0.41888	-0.109
Mof_C 	C 	0.01889	0.76445	0.44096	0.005
Mof_C 	C 	0.99582	0.71226	0.50813	-0.022
Mof_C 	C 	0.07453	0.65732	0.53576	-0.08
Mof_C 	C 	0.07712	0.59316	0.60578	0.341
Mof_C 	C 	0.47814	0.58144	0.29396	0.001
Mof_C 	C 	0.45888	0.62466	0.39377	-0.005
Mof_S 	S 	0.17265	0.16982	0.98089	0.066
Mof_S 	S 	0.16982	0.67664	0.98089	0.067
Mof_S 	S 	0.67664	0.17265	0.98089	0.067
Mof_S 	S 	0.32735	0.82336	0.51911	0.068
Mof_S 	S 	0.33018	0.32735	0.51911	0.068
Mof_S 	S 	0.82336	0.33018	0.51911	0.068
Mof_S 	S 	0.82735	0.83018	0.01911	0.066
Mof_S 	S 	0.83018	0.32336	0.01911	0.067
Mof_S 	S 	0.32336	0.82735	0.01911	0.067
Mof_S 	S 	0.67265	0.17664	0.48089	0.068
Mof_S 	S 	0.66982	0.67265	0.48089	0.068
Mof_S 	S 	0.17664	0.66982	0.48089	0.068
Mof_N 	N 	0.04695	0.1544	0.81847	-0.15
Mof_N 	N 	0.1544	0.98018	0.81847	-0.15
Mof_N 	N 	0.98018	0.04695	0.81847	-0.15
Mof_N 	N 	0.45305	0.51982	0.68153	-0.15
Mof_N 	N 	0.3456	0.45305	0.68153	-0.15
Mof_N 	N 	0.51982	0.3456	0.68153	-0.15
Mof_N 	N 	0.95305	0.8456	0.18153	-0.15
Mof_N 	N 	0.8456	0.01982	0.18153	-0.15
Mof_N 	N 	0.01982	0.95305	0.18153	-0.15
Mof_N 	N 	0.54695	0.48018	0.31847	-0.15
Mof_N 	N 	0.6544	0.54695	0.31847	-0.15
Mof_N 	N 	0.48018	0.6544	0.31847	-0.15
Mof_N 	N 	0.02713	0.02713	0.91861	-0.1
Mof_N 	N 	0.47287	0.47287	0.58139	-0.1
Mof_N 	N 	0.97287	0.97287	0.08139	-0.1
Mof_N 	N 	0.52713	0.52713	0.41861	-0.1
Mof_O 	O 	0.22425	0.35232	0.81127	-0.391
Mof_O 	O 	0.14982	0.25495	0.83989	-0.381
Mof_O 	O 	0.2835	0.0743	0.13683	-0.246
Mof_O 	O 	0.15743	0.06498	0.12744	-0.352
Mof_O 	O 	0.35232	0.61216	0.81127	-0.391
Mof_O 	O 	0.25495	0.75534	0.83989	-0.381
Mof_O 	O 	0.0743	0.50537	0.13683	-0.246
Mof_O 	O 	0.06498	0.65015	0.12744	-0.353
Mof_O 	O 	0.61216	0.22425	0.81127	-0.391
Mof_O 	O 	0.75534	0.14982	0.83989	-0.381
Mof_O 	O 	0.50537	0.2835	0.13683	-0.246
Mof_O 	O 	0.65015	0.15743	0.12744	-0.353
Mof_O 	O 	0.27575	0.88784	0.68873	-0.391
Mof_O 	O 	0.35018	0.74466	0.66011	-0.381
Mof_O 	O 	0.2165	0.99463	0.36317	-0.246
Mof_O 	O 	0.34257	0.84985	0.37256	-0.353
Mof_O 	O 	0.14768	0.27575	0.68873	-0.391
Mof_O 	O 	0.24505	0.35018	0.66011	-0.381
Mof_O 	O 	0.4257	0.2165	0.36317	-0.246
Mof_O 	O 	0.43502	0.34257	0.37256	-0.353
Mof_O 	O 	0.88784	0.14768	0.68873	-0.391
Mof_O 	O 	0.74466	0.24505	0.66011	-0.381
Mof_O 	O 	0.99463	0.4257	0.36317	-0.246
Mof_O 	O 	0.84985	0.43502	0.37256	-0.353
Mof_O 	O 	0.77575	0.64768	0.18873	-0.391
Mof_O 	O 	0.85018	0.74505	0.16011	-0.381
Mof_O 	O 	0.7165	0.9257	0.86317	-0.246
Mof_O 	O 	0.84257	0.93502	0.87256	-0.352
Mof_O 	O 	0.64768	0.38784	0.18873	-0.391
Mof_O 	O 	0.74505	0.24466	0.16011	-0.381
Mof_O 	O 	0.9257	0.49463	0.86317	-0.246
Mof_O 	O 	0.93502	0.34985	0.87256	-0.353
Mof_O 	O 	0.38784	0.77575	0.18873	-0.391
Mof_O 	O 	0.24466	0.85018	0.16011	-0.381
Mof_O 	O 	0.49463	0.7165	0.86317	-0.246
Mof_O 	O 	0.34985	0.84257	0.87256	-0.353
Mof_O 	O 	0.72425	0.11216	0.31127	-0.391
Mof_O 	O 	0.64982	0.25534	0.33989	-0.381
Mof_O 	O 	0.7835	0.00537	0.63683	-0.246
Mof_O 	O 	0.65743	0.15015	0.62744	-0.353
Mof_O 	O 	0.85232	0.72425	0.31127	-0.391
Mof_O 	O 	0.75495	0.64982	0.33989	-0.381
Mof_O 	O 	0.5743	0.7835	0.63683	-0.246
Mof_O 	O 	0.56498	0.65743	0.62744	-0.353
Mof_O 	O 	0.11216	0.85232	0.31127	-0.391
Mof_O 	O 	0.25534	0.75495	0.33989	-0.381
Mof_O 	O 	0.00537	0.5743	0.63683	-0.246
Mof_O 	O 	0.15015	0.56498	0.62744	-0.353
Mof_O 	O 	0.04257	0.45743	0.75	-0.281
Mof_O 	O 	0.45743	0.75	0.75	-0.281
Mof_O 	O 	0.75	0.04257	0.75	-0.281
Mof_O 	O 	0.95743	0.54257	0.25	-0.281
Mof_O 	O 	0.54257	0.25	0.25	-0.281
Mof_O 	O 	0.25	0.95743	0.25	-0.281
_end
