# CIF file generated by openbabel 3.1.0, see https://openbabel.org
data_I
_chemical_name_common 'DIBWUI_clean'
_cell_length_a 10.672
_cell_length_b 10.7194
_cell_length_c 11.9351
_cell_angle_alpha 70.341
_cell_angle_beta 77.928
_cell_angle_gamma 60.8544
_space_group_name_H-M_alt 'P 1'
_space_group_name_Hall 'P 1'
loop_
    _symmetry_equiv_pos_as_xyz
    x,y,z
loop_
    _atom_site_label
    _atom_site_type_symbol
    _atom_site_fract_x
    _atom_site_fract_y
    _atom_site_fract_z
    _atom_site_occupancy
    Tb1      Tb       0.54938    0.99827    0.16246    1.000
    Tb2      Tb       0.45062    0.00173    0.83754    1.000
    Cu1      Cu       0.00000    0.00000    0.00000    1.000
    Cu2      Cu       0.00000    0.00000    0.50000    1.000
    H1       H        0.01060    0.27080    0.51480    1.000
    H2       H        0.91400    0.52100    0.42850    1.000
    H3       H        0.68550    0.47940    0.23310    1.000
    H4       H        0.78110    0.23120    0.32880    1.000
    H5       H        0.99480    0.72150    0.17690    1.000
    H6       H        0.13140    0.46920    0.22060    1.000
    H7       H        0.39340    0.53050    0.93650    1.000
    H8       H        0.25180    0.77930    0.90060    1.000
    H9       H        0.98940    0.72920    0.48520    1.000
    H10      H        0.08600    0.47900    0.57150    1.000
    H11      H        0.31450    0.52060    0.76690    1.000
    H12      H        0.21890    0.76880    0.67120    1.000
    H13      H        0.00520    0.27850    0.82310    1.000
    H14      H        0.86860    0.53080    0.77940    1.000
    H15      H        0.60660    0.46950    0.06350    1.000
    H16      H        0.74820    0.22070    0.09940    1.000
    C1       C        0.17820    0.97720    0.28310    1.000
    C2       C        0.17290    0.98820    0.16510    1.000
    C3       C        0.28370    0.96520    0.35810    1.000
    C4       C        0.26470    0.00190    0.05530    1.000
    C5       C        0.94370    0.31340    0.45730    1.000
    C6       C        0.88630    0.46380    0.40530    1.000
    C7       C        0.78860    0.53020    0.31960    1.000
    C8       C        0.75120    0.43960    0.29100    1.000
    C9       C        0.81040    0.29000    0.34780    1.000
    C10      C        0.72390    0.69360    0.25700    1.000
    C11      C        0.07660    0.68190    0.12870    1.000
    C12      C        0.15730    0.53050    0.15470    1.000
    C13      C        0.27830    0.46910    0.08170    1.000
    C14      C        0.31260    0.56690    0.98640    1.000
    C15      C        0.22810    0.71570    0.96590    1.000
    C16      C        0.37060    0.30540    0.10830    1.000
    C17      C        0.82180    0.02280    0.71690    1.000
    C18      C        0.82710    0.01180    0.83490    1.000
    C19      C        0.71630    0.03480    0.64190    1.000
    C20      C        0.73530    0.99810    0.94470    1.000
    C21      C        0.05630    0.68660    0.54270    1.000
    C22      C        0.11370    0.53620    0.59470    1.000
    C23      C        0.21140    0.46980    0.68040    1.000
    C24      C        0.24880    0.56040    0.70900    1.000
    C25      C        0.18960    0.71000    0.65220    1.000
    C26      C        0.27610    0.30640    0.74300    1.000
    C27      C        0.92340    0.31810    0.87130    1.000
    C28      C        0.84270    0.46950    0.84530    1.000
    C29      C        0.72170    0.53090    0.91830    1.000
    C30      C        0.68740    0.43310    0.01360    1.000
    C31      C        0.77190    0.28430    0.03410    1.000
    C32      C        0.62940    0.69460    0.89170    1.000
    N1       N        0.05480    0.97610    0.33770    1.000
    N2       N        0.97610    0.98150    0.26130    1.000
    N3       N        0.04760    0.98970    0.15530    1.000
    N4       N        0.90720    0.22660    0.42830    1.000
    N5       N        0.11150    0.77470    0.03640    1.000
    N6       N        0.94520    0.02390    0.66230    1.000
    N7       N        0.02390    0.01850    0.73870    1.000
    N8       N        0.95240    0.01030    0.84470    1.000
    N9       N        0.09280    0.77340    0.57170    1.000
    N10      N        0.88850    0.22530    0.96360    1.000
    O1       O        0.23460    0.99180    0.45590    1.000
    O2       O        0.41360    0.92310    0.31920    1.000
    O3       O        0.38180    0.00410    0.05630    1.000
    O4       O        0.22320    0.01290    0.95880    1.000
    O5       O        0.73960    0.78110    0.29490    1.000
    O6       O        0.64990    0.74030    0.16920    1.000
    O7       O        0.48630    0.25520    0.04750    1.000
    O8       O        0.33250    0.21950    0.19250    1.000
    O9       O        0.76540    0.00820    0.54410    1.000
    O10      O        0.58640    0.07690    0.68080    1.000
    O11      O        0.61820    0.99590    0.94370    1.000
    O12      O        0.77680    0.98710    0.04120    1.000
    O13      O        0.26040    0.21890    0.70510    1.000
    O14      O        0.35010    0.25970    0.83080    1.000
    O15      O        0.51370    0.74480    0.95250    1.000
    O16      O        0.66750    0.78050    0.80750    1.000
