data_functionalizedCrystal
_audit_creation_method	'EQeq! by Chris Wilmer'
_symmetry_space_group_name_H-M	'P1'
_symmetry_Int_Tables_number	1
_symmetry_cell_setting	triclinic
loop_
_symmetry_equiv_pos_as_xyz
  x,y,z
_cell_length_a	30.4852
_cell_length_b	9.0518
_cell_length_c	20.1865
_cell_angle_alpha	90
_cell_angle_beta	107.086
_cell_angle_gamma	90
loop_
_atom_site_label
_atom_site_type_symbol
_atom_site_fract_x
_atom_site_fract_y
_atom_site_fract_z
_atom_site_charge
Mof_Eu	Eu	0.24985	0.97281	0.07276	2.014
Mof_O 	O 	0.18081	0.8779	0.9983	-0.585
Mof_O 	O 	0.80643	0.9682	0.8646	-0.475
Mof_O 	O 	0.31688	0.0266	0.1812	-0.446
Mof_O 	O 	0.30067	0.1864	0.0964	-0.477
Mof_O 	O 	0.80443	0.8169	0.9491	-0.446
Mof_O 	O 	0.19567	0.6608	0.9591	-0.656
Mof_C 	C 	0.37359	0.211	0.1794	-0.211
Mof_C 	C 	0.328	0.1377	0.1518	0.366
Mof_C 	C 	0.1185	0.7225	0.9457	-0.279
Mof_C 	C 	0.4055	0.1605	0.2394	0.17
Mof_H 	H 	0.3981	0.0821	0.2639	-0.021
Mof_C 	C 	0.8243	0.867	0.9061	0.366
Mof_C 	C 	0.16887	0.7565	0.9693	0.558
Mof_C 	C 	0.3853	0.329	0.1435	0.165
Mof_H 	H 	0.3641	0.3631	0.1032	-0.013
Mof_C 	C 	0.0867	0.7958	0.9693	0.22
Mof_H 	H 	0.0963	0.8743	0.9998	-0.037
Mof_C 	C 	0.4278	0.3964	0.1668	-0.294
Mof_H 	H 	0.4352	0.4754	0.1427	0.146
Mof_C 	C 	0.4593	0.3435	0.2272	0.311
Mof_C 	C 	0.4484	0.2265	0.2631	-0.311
Mof_H 	H 	0.4698	0.1917	0.303	0.151
Mof_C 	C 	0.0409	0.7565	0.9492	-0.339
Mof_H 	H 	0.0212	0.7812	0.975	0.111
Mof_C 	C 	0.1022	0.6394	0.8793	0.181
Mof_H 	H 	0.1227	0.6077	0.856	-0.039
Mof_O 	O 	0.9803	0.6231	0.8552	-0.264
Mof_C 	C 	0.025	0.6705	0.8823	0.258
Mof_C 	C 	0.0556	0.6107	0.8533	-0.272
Mof_H 	H 	0.0451	0.549	0.8151	0.136
Mof_C 	C 	0.9503	0.6404	0.918	-0.365
Mof_C 	C 	0.9271	0.6032	0.9655	-0.432
Mof_H 	H 	0.9385	0.5292	0.9979	0.188
Mof_C 	C 	0.8869	0.6768	0.9645	-0.123
Mof_H 	H 	0.8714	0.6519	0.9963	0.052
Mof_C 	C 	0.8699	0.7874	0.9161	-0.231
Mof_C 	C 	0.8931	0.8246	0.8685	0.22
Mof_H 	H 	0.8817	0.8986	0.8361	-0.048
Mof_C 	C 	0.9333	0.751	0.8695	0.073
Mof_H 	H 	0.9488	0.7759	0.8377	0.233
Mof_H 	H 	0.0183	0.8247	0.9504	0.085
Mof_C 	C 	0.9294	0.8304	0.8422	-0.657
Mof_H 	H 	0.9439	0.8777	0.8136	0.217
Mof_C 	C 	0.9465	0.6974	0.8738	0.172
Mof_C 	C 	0.9247	0.6267	0.9166	0.41
Mof_H 	H 	0.9361	0.5378	0.9377	0.113
Mof_C 	C 	0.8858	0.689	0.9277	0.123
Mof_H 	H 	0.8712	0.6417	0.9563	0.077
Mof_C 	C 	0.8687	0.822	0.8961	-0.013
Mof_C 	C 	0.8905	0.8927	0.8534	0.038
Mof_H 	H 	0.879	0.9816	0.8322	0.05
Mof_C 	C 	0.1055	0.5723	0.9264	-0.02
Mof_H 	H 	0.128	0.505	0.9238	0.025
Mof_C 	C 	0.0615	0.526	0.9119	-0.059
Mof_H 	H 	0.0531	0.434	0.8915	0.067
Mof_C 	C 	0.0295	0.6139	0.9273	0.065
Mof_O 	O 	0.9861	0.5535	0.9138	-0.077
Mof_Eu	Eu	0.74985	0.47281	0.07276	2.029
Mof_O 	O 	0.68081	0.3779	0.9983	-0.587
Mof_O 	O 	0.30643	0.4682	0.8646	-0.478
Mof_O 	O 	0.81688	0.5266	0.1812	-0.45
Mof_O 	O 	0.80067	0.6864	0.0964	-0.479
Mof_O 	O 	0.30443	0.3169	0.9491	-0.449
Mof_O 	O 	0.69567	0.1608	0.9591	-0.655
Mof_C 	C 	0.87359	0.711	0.1794	-0.208
Mof_C 	C 	0.828	0.6377	0.1518	0.364
Mof_C 	C 	0.6185	0.2225	0.9457	-0.276
Mof_C 	C 	0.9055	0.6605	0.2394	0.164
Mof_H 	H 	0.8981	0.5821	0.2639	-0.02
Mof_C 	C 	0.3243	0.367	0.9061	0.367
Mof_C 	C 	0.66887	0.2565	0.9693	0.556
Mof_C 	C 	0.8853	0.829	0.1435	0.159
Mof_H 	H 	0.8641	0.8631	0.1032	-0.012
Mof_C 	C 	0.5867	0.2958	0.9693	0.213
Mof_H 	H 	0.5963	0.3743	0.9998	-0.036
Mof_C 	C 	0.9278	0.8964	0.1668	-0.287
Mof_H 	H 	0.9352	0.9754	0.1427	0.141
Mof_C 	C 	0.9593	0.8435	0.2272	0.297
Mof_C 	C 	0.9484	0.7265	0.2631	-0.303
Mof_H 	H 	0.9698	0.6917	0.303	0.146
Mof_C 	C 	0.5409	0.2565	0.9492	-0.329
Mof_H 	H 	0.5212	0.2812	0.975	0.109
Mof_C 	C 	0.6022	0.1394	0.8793	0.195
Mof_H 	H 	0.6227	0.1077	0.856	-0.045
Mof_O 	O 	0.4803	0.1231	0.8552	-0.262
Mof_C 	C 	0.525	0.1705	0.8823	0.261
Mof_C 	C 	0.5556	0.1107	0.8533	-0.284
Mof_H 	H 	0.5451	0.049	0.8151	0.138
Mof_C 	C 	0.4503	0.1404	0.918	-0.364
Mof_C 	C 	0.4271	0.1032	0.9655	-0.431
Mof_H 	H 	0.4385	0.0292	0.9979	0.188
Mof_C 	C 	0.3869	0.1768	0.9645	-0.122
Mof_H 	H 	0.3714	0.1519	0.9963	0.052
Mof_C 	C 	0.3699	0.2874	0.9161	-0.232
Mof_C 	C 	0.3931	0.3246	0.8685	0.222
Mof_H 	H 	0.3817	0.3986	0.8361	-0.049
Mof_C 	C 	0.4333	0.251	0.8695	0.072
Mof_H 	H 	0.4488	0.2759	0.8377	0.234
Mof_H 	H 	0.5183	0.3247	0.9504	0.08
Mof_C 	C 	0.4294	0.3304	0.8422	-0.658
Mof_H 	H 	0.4439	0.3777	0.8136	0.218
Mof_C 	C 	0.4465	0.1974	0.8738	0.174
Mof_C 	C 	0.4247	0.1267	0.9166	0.408
Mof_H 	H 	0.4361	0.0378	0.9377	0.113
Mof_C 	C 	0.3858	0.189	0.9277	0.123
Mof_H 	H 	0.3712	0.1417	0.9563	0.076
Mof_C 	C 	0.3687	0.322	0.8961	-0.013
Mof_C 	C 	0.3905	0.3927	0.8534	0.038
Mof_H 	H 	0.379	0.4816	0.8322	0.05
Mof_C 	C 	0.6055	0.0723	0.9264	-0.036
Mof_H 	H 	0.628	0.005	0.9238	0.029
Mof_C 	C 	0.5615	0.026	0.9119	-0.046
Mof_H 	H 	0.5531	0.934	0.8915	0.064
Mof_C 	C 	0.5295	0.1139	0.9273	0.048
Mof_O 	O 	0.4861	0.0535	0.9138	-0.069
Mof_Eu	Eu	0.75015	0.97281	0.42724	2.024
Mof_O 	O 	0.81919	0.8779	0.5017	-0.587
Mof_O 	O 	0.19357	0.9682	0.6354	-0.477
Mof_O 	O 	0.68312	0.0266	0.3188	-0.448
Mof_O 	O 	0.69933	0.1864	0.4036	-0.478
Mof_O 	O 	0.19557	0.8169	0.5509	-0.448
Mof_O 	O 	0.80433	0.6608	0.5409	-0.655
Mof_C 	C 	0.62641	0.211	0.3206	-0.211
Mof_C 	C 	0.672	0.1377	0.3482	0.366
Mof_C 	C 	0.8815	0.7225	0.5543	-0.273
Mof_C 	C 	0.5945	0.1605	0.2606	0.171
Mof_H 	H 	0.6019	0.0821	0.2361	-0.021
Mof_C 	C 	0.1757	0.867	0.5939	0.366
Mof_C 	C 	0.83113	0.7565	0.5307	0.556
Mof_C 	C 	0.6147	0.329	0.3565	0.165
Mof_H 	H 	0.6359	0.3631	0.3968	-0.013
Mof_C 	C 	0.9133	0.7958	0.5307	0.208
Mof_H 	H 	0.9037	0.8743	0.5002	-0.035
Mof_C 	C 	0.5722	0.3964	0.3332	-0.294
Mof_H 	H 	0.5648	0.4754	0.3573	0.146
Mof_C 	C 	0.5407	0.3435	0.2728	0.311
Mof_C 	C 	0.5516	0.2265	0.2369	-0.311
Mof_H 	H 	0.5302	0.1917	0.197	0.152
Mof_C 	C 	0.9591	0.7565	0.5508	-0.322
Mof_H 	H 	0.9788	0.7812	0.525	0.105
Mof_C 	C 	0.8978	0.6394	0.6207	0.17
Mof_H 	H 	0.8773	0.6077	0.644	-0.035
Mof_O 	O 	0.0197	0.6231	0.6448	-0.253
Mof_C 	C 	0.975	0.6705	0.6177	0.24
Mof_C 	C 	0.9444	0.6107	0.6467	-0.259
Mof_H 	H 	0.9549	0.549	0.6849	0.129
Mof_C 	C 	0.0497	0.6404	0.582	-0.367
Mof_C 	C 	0.0729	0.6032	0.5345	-0.43
Mof_H 	H 	0.0615	0.5292	0.5021	0.189
Mof_C 	C 	0.1131	0.6768	0.5355	-0.124
Mof_H 	H 	0.1286	0.6519	0.5037	0.052
Mof_C 	C 	0.1301	0.7874	0.5839	-0.232
Mof_C 	C 	0.1069	0.8246	0.6315	0.221
Mof_H 	H 	0.1183	0.8986	0.6639	-0.049
Mof_C 	C 	0.0667	0.751	0.6305	0.071
Mof_H 	H 	0.0512	0.7759	0.6623	0.234
Mof_H 	H 	0.9817	0.8247	0.5496	0.078
Mof_C 	C 	0.0706	0.8304	0.6578	-0.655
Mof_H 	H 	0.0561	0.8777	0.6864	0.219
Mof_C 	C 	0.0535	0.6974	0.6262	0.174
Mof_C 	C 	0.0753	0.6267	0.5834	0.412
Mof_H 	H 	0.0639	0.5378	0.5623	0.112
Mof_C 	C 	0.1142	0.689	0.5723	0.122
Mof_H 	H 	0.1288	0.6417	0.5437	0.077
Mof_C 	C 	0.1313	0.822	0.6039	-0.012
Mof_C 	C 	0.1095	0.8927	0.6466	0.038
Mof_H 	H 	0.121	0.9816	0.6678	0.051
Mof_C 	C 	0.8945	0.5723	0.5736	-0.017
Mof_H 	H 	0.872	0.505	0.5762	0.024
Mof_C 	C 	0.9385	0.526	0.5881	-0.057
Mof_H 	H 	0.9469	0.434	0.6085	0.063
Mof_C 	C 	0.9705	0.6139	0.5727	0.054
Mof_O 	O 	0.0139	0.5535	0.5862	-0.065
Mof_Eu	Eu	0.25015	0.47281	0.42724	2.029
Mof_O 	O 	0.31919	0.3779	0.5017	-0.588
Mof_O 	O 	0.69357	0.4682	0.6354	-0.478
Mof_O 	O 	0.18312	0.5266	0.3188	-0.45
Mof_O 	O 	0.19933	0.6864	0.4036	-0.479
Mof_O 	O 	0.69557	0.3169	0.5509	-0.448
Mof_O 	O 	0.30433	0.1608	0.5409	-0.655
Mof_C 	C 	0.12641	0.711	0.3206	-0.212
Mof_C 	C 	0.172	0.6377	0.3482	0.366
Mof_C 	C 	0.3815	0.2225	0.5543	-0.276
Mof_C 	C 	0.0945	0.6605	0.2606	0.17
Mof_H 	H 	0.1019	0.5821	0.2361	-0.022
Mof_C 	C 	0.6757	0.367	0.5939	0.366
Mof_C 	C 	0.33113	0.2565	0.5307	0.557
Mof_C 	C 	0.1147	0.829	0.3565	0.164
Mof_H 	H 	0.1359	0.8631	0.3968	-0.013
Mof_C 	C 	0.4133	0.2958	0.5307	0.214
Mof_H 	H 	0.4037	0.3743	0.5002	-0.036
Mof_C 	C 	0.0722	0.8964	0.3332	-0.293
Mof_H 	H 	0.0648	0.9754	0.3573	0.146
Mof_C 	C 	0.0407	0.8435	0.2728	0.31
Mof_C 	C 	0.0516	0.7265	0.2369	-0.31
Mof_H 	H 	0.0302	0.6917	0.197	0.152
Mof_C 	C 	0.4591	0.2565	0.5508	-0.33
Mof_H 	H 	0.4788	0.2812	0.525	0.109
Mof_C 	C 	0.3978	0.1394	0.6207	0.185
Mof_H 	H 	0.3773	0.1077	0.644	-0.041
Mof_O 	O 	0.5197	0.1231	0.6448	-0.26
Mof_C 	C 	0.475	0.1705	0.6177	0.255
Mof_C 	C 	0.4444	0.1107	0.6467	-0.275
Mof_H 	H 	0.4549	0.049	0.6849	0.135
Mof_C 	C 	0.5497	0.1404	0.582	-0.365
Mof_C 	C 	0.5729	0.1032	0.5345	-0.431
Mof_H 	H 	0.5615	0.0292	0.5021	0.189
Mof_C 	C 	0.6131	0.1768	0.5355	-0.122
Mof_H 	H 	0.6286	0.1519	0.5037	0.052
Mof_C 	C 	0.6301	0.2874	0.5839	-0.232
Mof_C 	C 	0.6069	0.3246	0.6315	0.221
Mof_H 	H 	0.6183	0.3986	0.6639	-0.049
Mof_C 	C 	0.5667	0.251	0.6305	0.072
Mof_H 	H 	0.5512	0.2759	0.6623	0.233
Mof_H 	H 	0.4817	0.3247	0.5496	0.081
Mof_C 	C 	0.5706	0.3304	0.6578	-0.657
Mof_H 	H 	0.5561	0.3777	0.6864	0.218
Mof_C 	C 	0.5535	0.1974	0.6262	0.174
Mof_C 	C 	0.5753	0.1267	0.5834	0.409
Mof_H 	H 	0.5639	0.0378	0.5623	0.113
Mof_C 	C 	0.6142	0.189	0.5723	0.123
Mof_H 	H 	0.6288	0.1417	0.5437	0.076
Mof_C 	C 	0.6313	0.322	0.6039	-0.013
Mof_C 	C 	0.6095	0.3927	0.6466	0.038
Mof_H 	H 	0.621	0.4816	0.6678	0.05
Mof_C 	C 	0.3945	0.0723	0.5736	-0.027
Mof_H 	H 	0.372	0.005	0.5762	0.027
Mof_C 	C 	0.4385	0.026	0.5881	-0.052
Mof_H 	H 	0.4469	0.934	0.6085	0.064
Mof_C 	C 	0.4705	0.1139	0.5727	0.054
Mof_O 	O 	0.5139	0.0535	0.5862	-0.07
Mof_Eu	Eu	0.75015	0.02719	0.92724	2.015
Mof_O 	O 	0.81919	0.1221	0.0017	-0.585
Mof_O 	O 	0.19357	0.0318	0.1354	-0.475
Mof_O 	O 	0.68312	0.9734	0.8188	-0.446
Mof_O 	O 	0.69933	0.8136	0.9036	-0.476
Mof_O 	O 	0.19557	0.1831	0.0509	-0.446
Mof_O 	O 	0.80433	0.3392	0.0409	-0.655
Mof_C 	C 	0.62641	0.789	0.8206	-0.211
Mof_C 	C 	0.672	0.8623	0.8482	0.366
Mof_C 	C 	0.8815	0.2775	0.0543	-0.272
Mof_C 	C 	0.5945	0.8395	0.7606	0.17
Mof_H 	H 	0.6019	0.9179	0.7361	-0.021
Mof_C 	C 	0.1757	0.133	0.0939	0.365
Mof_C 	C 	0.83113	0.2435	0.0307	0.555
Mof_C 	C 	0.6147	0.671	0.8565	0.165
Mof_H 	H 	0.6359	0.6369	0.8968	-0.013
Mof_C 	C 	0.9133	0.2042	0.0307	0.208
Mof_H 	H 	0.9037	0.1257	0.0002	-0.034
Mof_C 	C 	0.5722	0.6036	0.8332	-0.294
Mof_H 	H 	0.5648	0.5246	0.8573	0.146
Mof_C 	C 	0.5407	0.6565	0.7728	0.311
Mof_C 	C 	0.5516	0.7735	0.7369	-0.311
Mof_H 	H 	0.5302	0.8083	0.697	0.151
Mof_C 	C 	0.9591	0.2435	0.0508	-0.322
Mof_H 	H 	0.9788	0.2188	0.025	0.105
Mof_C 	C 	0.8978	0.3606	0.1207	0.168
Mof_H 	H 	0.8773	0.3923	0.144	-0.035
Mof_O 	O 	0.0197	0.3769	0.1448	-0.252
Mof_C 	C 	0.975	0.3295	0.1177	0.239
Mof_C 	C 	0.9444	0.3893	0.1467	-0.258
Mof_H 	H 	0.9549	0.451	0.1849	0.128
Mof_C 	C 	0.0497	0.3596	0.082	-0.369
Mof_C 	C 	0.0729	0.3968	0.0345	-0.429
Mof_H 	H 	0.0615	0.4708	0.0021	0.188
Mof_C 	C 	0.1131	0.3232	0.0355	-0.125
Mof_H 	H 	0.1286	0.3481	0.0037	0.052
Mof_C 	C 	0.1301	0.2126	0.0839	-0.232
Mof_C 	C 	0.1069	0.1754	0.1315	0.22
Mof_H 	H 	0.1183	0.1014	0.1639	-0.048
Mof_C 	C 	0.0667	0.249	0.1305	0.072
Mof_H 	H 	0.0512	0.2241	0.1623	0.233
Mof_H 	H 	0.9817	0.1753	0.0496	0.078
Mof_C 	C 	0.0706	0.1696	0.1578	-0.655
Mof_H 	H 	0.0561	0.1223	0.1864	0.219
Mof_C 	C 	0.0535	0.3026	0.1262	0.174
Mof_C 	C 	0.0753	0.3733	0.0834	0.414
Mof_H 	H 	0.0639	0.4622	0.0623	0.111
Mof_C 	C 	0.1142	0.311	0.0723	0.122
Mof_H 	H 	0.1288	0.3583	0.0437	0.078
Mof_C 	C 	0.1313	0.178	0.1039	-0.011
Mof_C 	C 	0.1095	0.1073	0.1466	0.038
Mof_H 	H 	0.121	0.0184	0.1678	0.051
Mof_C 	C 	0.8945	0.4277	0.0736	-0.016
Mof_H 	H 	0.872	0.495	0.0762	0.024
Mof_C 	C 	0.9385	0.474	0.0881	-0.059
Mof_H 	H 	0.9469	0.566	0.1085	0.063
Mof_C 	C 	0.9705	0.3861	0.0727	0.055
Mof_O 	O 	0.0139	0.4465	0.0862	-0.065
Mof_Eu	Eu	0.25015	0.52719	0.92724	2.03
Mof_O 	O 	0.31919	0.6221	0.0017	-0.588
Mof_O 	O 	0.69357	0.5318	0.1354	-0.478
Mof_O 	O 	0.18312	0.4734	0.8188	-0.45
Mof_O 	O 	0.19933	0.3136	0.9036	-0.48
Mof_O 	O 	0.69557	0.6831	0.0509	-0.449
Mof_O 	O 	0.30433	0.8392	0.0409	-0.655
Mof_C 	C 	0.12641	0.289	0.8206	-0.212
Mof_C 	C 	0.172	0.3623	0.8482	0.366
Mof_C 	C 	0.3815	0.7775	0.0543	-0.276
Mof_C 	C 	0.0945	0.3395	0.7606	0.17
Mof_H 	H 	0.1019	0.4179	0.7361	-0.022
Mof_C 	C 	0.6757	0.633	0.0939	0.367
Mof_C 	C 	0.33113	0.7435	0.0307	0.556
Mof_C 	C 	0.1147	0.171	0.8565	0.164
Mof_H 	H 	0.1359	0.1369	0.8968	-0.014
Mof_C 	C 	0.4133	0.7042	0.0307	0.213
Mof_H 	H 	0.4037	0.6257	0.0002	-0.036
Mof_C 	C 	0.0722	0.1036	0.8332	-0.293
Mof_H 	H 	0.0648	0.0246	0.8573	0.145
Mof_C 	C 	0.0407	0.1565	0.7728	0.31
Mof_C 	C 	0.0516	0.2735	0.7369	-0.31
Mof_H 	H 	0.0302	0.3083	0.697	0.153
Mof_C 	C 	0.4591	0.7435	0.0508	-0.329
Mof_H 	H 	0.4788	0.7188	0.025	0.109
Mof_C 	C 	0.3978	0.8606	0.1207	0.195
Mof_H 	H 	0.3773	0.8923	0.144	-0.045
Mof_O 	O 	0.5197	0.8769	0.1448	-0.262
Mof_C 	C 	0.475	0.8295	0.1177	0.261
Mof_C 	C 	0.4444	0.8893	0.1467	-0.284
Mof_H 	H 	0.4549	0.951	0.1849	0.138
Mof_C 	C 	0.5497	0.8596	0.082	-0.364
Mof_C 	C 	0.5729	0.8968	0.0345	-0.431
Mof_H 	H 	0.5615	0.9708	0.0021	0.188
Mof_C 	C 	0.6131	0.8232	0.0355	-0.121
Mof_H 	H 	0.6286	0.8481	0.0037	0.051
Mof_C 	C 	0.6301	0.7126	0.0839	-0.232
Mof_C 	C 	0.6069	0.6754	0.1315	0.222
Mof_H 	H 	0.6183	0.6014	0.1639	-0.049
Mof_C 	C 	0.5667	0.749	0.1305	0.072
Mof_H 	H 	0.5512	0.7241	0.1623	0.234
Mof_H 	H 	0.4817	0.6753	0.0496	0.08
Mof_C 	C 	0.5706	0.6696	0.1578	-0.658
Mof_H 	H 	0.5561	0.6223	0.1864	0.218
Mof_C 	C 	0.5535	0.8026	0.1262	0.174
Mof_C 	C 	0.5753	0.8733	0.0834	0.407
Mof_H 	H 	0.5639	0.9622	0.0623	0.113
Mof_C 	C 	0.6142	0.811	0.0723	0.123
Mof_H 	H 	0.6288	0.8583	0.0437	0.076
Mof_C 	C 	0.6313	0.678	0.1039	-0.013
Mof_C 	C 	0.6095	0.6073	0.1466	0.038
Mof_H 	H 	0.621	0.5184	0.1678	0.05
Mof_C 	C 	0.3945	0.9277	0.0736	-0.036
Mof_H 	H 	0.372	0.995	0.0762	0.029
Mof_C 	C 	0.4385	0.974	0.0881	-0.046
Mof_H 	H 	0.4469	0.066	0.1085	0.064
Mof_C 	C 	0.4705	0.8861	0.0727	0.048
Mof_O 	O 	0.5139	0.9465	0.0862	-0.07
Mof_Eu	Eu	0.24985	0.02719	0.57276	2.024
Mof_O 	O 	0.18081	0.1221	0.4983	-0.588
Mof_O 	O 	0.80643	0.0318	0.3646	-0.477
Mof_O 	O 	0.31688	0.9734	0.6812	-0.448
Mof_O 	O 	0.30067	0.8136	0.5964	-0.478
Mof_O 	O 	0.80443	0.1831	0.4491	-0.448
Mof_O 	O 	0.19567	0.3392	0.4591	-0.656
Mof_C 	C 	0.37359	0.789	0.6794	-0.211
Mof_C 	C 	0.328	0.8623	0.6518	0.366
Mof_C 	C 	0.1185	0.2775	0.4457	-0.28
Mof_C 	C 	0.4055	0.8395	0.7394	0.171
Mof_H 	H 	0.3981	0.9179	0.7639	-0.021
Mof_C 	C 	0.8243	0.133	0.4061	0.367
Mof_C 	C 	0.16887	0.2435	0.4693	0.558
Mof_C 	C 	0.3853	0.671	0.6435	0.165
Mof_H 	H 	0.3641	0.6369	0.6032	-0.013
Mof_C 	C 	0.0867	0.2042	0.4693	0.221
Mof_H 	H 	0.0963	0.1257	0.4998	-0.038
Mof_C 	C 	0.4278	0.6036	0.6668	-0.294
Mof_H 	H 	0.4352	0.5246	0.6427	0.146
Mof_C 	C 	0.4593	0.6565	0.7272	0.311
Mof_C 	C 	0.4484	0.7735	0.7631	-0.311
Mof_H 	H 	0.4698	0.8083	0.803	0.152
Mof_C 	C 	0.0409	0.2435	0.4492	-0.339
Mof_H 	H 	0.0212	0.2188	0.475	0.111
Mof_C 	C 	0.1022	0.3606	0.3793	0.182
Mof_H 	H 	0.1227	0.3923	0.356	-0.04
Mof_O 	O 	0.9803	0.3769	0.3552	-0.264
Mof_C 	C 	0.025	0.3295	0.3823	0.259
Mof_C 	C 	0.0556	0.3893	0.3533	-0.273
Mof_H 	H 	0.0451	0.451	0.3151	0.137
Mof_C 	C 	0.9503	0.3596	0.418	-0.362
Mof_C 	C 	0.9271	0.3968	0.4655	-0.433
Mof_H 	H 	0.9385	0.4708	0.4979	0.188
Mof_C 	C 	0.8869	0.3232	0.4645	-0.121
Mof_H 	H 	0.8714	0.3481	0.4963	0.052
Mof_C 	C 	0.8699	0.2126	0.4161	-0.232
Mof_C 	C 	0.8931	0.1754	0.3685	0.222
Mof_H 	H 	0.8817	0.1014	0.3361	-0.049
Mof_C 	C 	0.9333	0.249	0.3695	0.072
Mof_H 	H 	0.9488	0.2241	0.3377	0.233
Mof_H 	H 	0.0183	0.1753	0.4504	0.085
Mof_C 	C 	0.9294	0.1696	0.3422	-0.658
Mof_H 	H 	0.9439	0.1223	0.3136	0.217
Mof_C 	C 	0.9465	0.3026	0.3738	0.172
Mof_C 	C 	0.9247	0.3733	0.4166	0.407
Mof_H 	H 	0.9361	0.4622	0.4377	0.113
Mof_C 	C 	0.8858	0.311	0.4277	0.124
Mof_H 	H 	0.8712	0.3583	0.4563	0.075
Mof_C 	C 	0.8687	0.178	0.3961	-0.014
Mof_C 	C 	0.8905	0.1073	0.3534	0.039
Mof_H 	H 	0.879	0.0184	0.3322	0.05
Mof_C 	C 	0.1055	0.4277	0.4264	-0.021
Mof_H 	H 	0.128	0.495	0.4238	0.025
Mof_C 	C 	0.0615	0.474	0.4119	-0.058
Mof_H 	H 	0.0531	0.566	0.3915	0.067
Mof_C 	C 	0.0295	0.3861	0.4273	0.065
Mof_O 	O 	0.9861	0.4465	0.4138	-0.077
Mof_Eu	Eu	0.74985	0.52719	0.57276	2.029
Mof_O 	O 	0.68081	0.6221	0.4983	-0.588
Mof_O 	O 	0.30643	0.5318	0.3646	-0.478
Mof_O 	O 	0.81688	0.4734	0.6812	-0.45
Mof_O 	O 	0.80067	0.3136	0.5964	-0.479
Mof_O 	O 	0.30443	0.6831	0.4491	-0.448
Mof_O 	O 	0.69567	0.8392	0.4591	-0.655
Mof_C 	C 	0.87359	0.289	0.6794	-0.208
Mof_C 	C 	0.828	0.3623	0.6518	0.364
Mof_C 	C 	0.6185	0.7775	0.4457	-0.276
Mof_C 	C 	0.9055	0.3395	0.7394	0.164
Mof_H 	H 	0.8981	0.4179	0.7639	-0.02
Mof_C 	C 	0.3243	0.633	0.4061	0.366
Mof_C 	C 	0.66887	0.7435	0.4693	0.557
Mof_C 	C 	0.8853	0.171	0.6435	0.159
Mof_H 	H 	0.8641	0.1369	0.6032	-0.012
Mof_C 	C 	0.5867	0.7042	0.4693	0.214
Mof_H 	H 	0.5963	0.6257	0.4998	-0.036
Mof_C 	C 	0.9278	0.1036	0.6668	-0.287
Mof_H 	H 	0.9352	0.0246	0.6427	0.142
Mof_C 	C 	0.9593	0.1565	0.7272	0.298
Mof_C 	C 	0.9484	0.2735	0.7631	-0.304
Mof_H 	H 	0.9698	0.3083	0.803	0.146
Mof_C 	C 	0.5409	0.7435	0.4492	-0.33
Mof_H 	H 	0.5212	0.7188	0.475	0.109
Mof_C 	C 	0.6022	0.8606	0.3793	0.184
Mof_H 	H 	0.6227	0.8923	0.356	-0.041
Mof_O 	O 	0.4803	0.8769	0.3552	-0.26
Mof_C 	C 	0.525	0.8295	0.3823	0.255
Mof_C 	C 	0.5556	0.8893	0.3533	-0.274
Mof_H 	H 	0.5451	0.951	0.3151	0.135
Mof_C 	C 	0.4503	0.8596	0.418	-0.365
Mof_C 	C 	0.4271	0.8968	0.4655	-0.431
Mof_H 	H 	0.4385	0.9708	0.4979	0.189
Mof_C 	C 	0.3869	0.8232	0.4645	-0.122
Mof_H 	H 	0.3714	0.8481	0.4963	0.052
Mof_C 	C 	0.3699	0.7126	0.4161	-0.232
Mof_C 	C 	0.3931	0.6754	0.3685	0.221
Mof_H 	H 	0.3817	0.6014	0.3361	-0.049
Mof_C 	C 	0.4333	0.749	0.3695	0.072
Mof_H 	H 	0.4488	0.7241	0.3377	0.233
Mof_H 	H 	0.5183	0.6753	0.4504	0.081
Mof_C 	C 	0.4294	0.6696	0.3422	-0.657
Mof_H 	H 	0.4439	0.6223	0.3136	0.218
Mof_C 	C 	0.4465	0.8026	0.3738	0.174
Mof_C 	C 	0.4247	0.8733	0.4166	0.409
Mof_H 	H 	0.4361	0.9622	0.4377	0.113
Mof_C 	C 	0.3858	0.811	0.4277	0.123
Mof_H 	H 	0.3712	0.8583	0.4563	0.076
Mof_C 	C 	0.3687	0.678	0.3961	-0.013
Mof_C 	C 	0.3905	0.6073	0.3534	0.038
Mof_H 	H 	0.379	0.5184	0.3322	0.05
Mof_C 	C 	0.6055	0.9277	0.4264	-0.027
Mof_H 	H 	0.628	0.995	0.4238	0.027
Mof_C 	C 	0.5615	0.974	0.4119	-0.052
Mof_H 	H 	0.5531	0.066	0.3915	0.064
Mof_C 	C 	0.5295	0.8861	0.4273	0.054
Mof_O 	O 	0.4861	0.9465	0.4138	-0.07
Mof_O 	O 	0.5	0.4205	0.25	-0.333
Mof_O 	O 	-1.06758e-17	0.9205	0.25	-0.324
Mof_O 	O 	0.5	0.5795	0.75	-0.332
Mof_O 	O 	2.40915e-33	0.0795	0.75	-0.324
_end
