data_functionalizedCrystal
_audit_creation_method	'EQeq! by Chris Wilmer'
_symmetry_space_group_name_H-M	'P1'
_symmetry_Int_Tables_number	1
_symmetry_cell_setting	triclinic
loop_
_symmetry_equiv_pos_as_xyz
  x,y,z
_cell_length_a	10.0853
_cell_length_b	11.52
_cell_length_c	14.9596
_cell_angle_alpha	91.4664
_cell_angle_beta	90
_cell_angle_gamma	90
loop_
_atom_site_label
_atom_site_type_symbol
_atom_site_fract_x
_atom_site_fract_y
_atom_site_fract_z
_atom_site_charge
Mof_Fe	Fe	0.92791	0.75583	0.13361	1.016
Mof_Fe	Fe	0.878	0.2596	0.69416	0.959
Mof_Fe	Fe	0.42791	0.74417	0.36639	0.93
Mof_Fe	Fe	0.378	0.2404	0.80584	0.919
Mof_Fe	Fe	0.07209	0.24417	0.86639	0.825
Mof_Fe	Fe	0.122	0.7404	0.30584	0.896
Mof_Fe	Fe	0.57209	0.25583	0.63361	0.914
Mof_Fe	Fe	0.622	0.7596	0.19416	0.934
Mof_Fe	Fe	-0	0.5	-0	0.754
Mof_Fe	Fe	0.5	0	0.5	0.877
Mof_Fe	Fe	-0	0	-0	0.699
Mof_Fe	Fe	0.5	0.5	0.5	0.965
Mof_H 	H 	0.772	0.8456	0.3716	-0.09
Mof_H 	H 	0.061	0.4738	0.2588	-0.088
Mof_H 	H 	0.623	0.559	0.055	-0.104
Mof_H 	H 	0.218	0.9702	0.2152	-0.124
Mof_H 	H 	0.138	0.6981	0.9241	-0.159
Mof_H 	H 	0.715	0.9955	0.0275	-0.111
Mof_H 	H 	0.272	0.6544	0.1284	-0.119
Mof_H 	H 	0.561	0.0262	0.2412	-0.156
Mof_H 	H 	0.123	0.941	0.445	-0.09
Mof_H 	H 	0.718	0.5298	0.2848	-0.099
Mof_H 	H 	0.638	0.8019	0.5759	-0.115
Mof_H 	H 	0.215	0.5045	0.4725	-0.132
Mof_H 	H 	0.228	0.1544	0.6284	-0.118
Mof_H 	H 	0.939	0.5262	0.7412	-0.045
Mof_H 	H 	0.377	0.441	0.945	-0.061
Mof_H 	H 	0.782	0.0298	0.7848	-0.075
Mof_H 	H 	0.862	0.3019	0.0759	-0.065
Mof_H 	H 	0.285	0.0045	0.9725	-0.104
Mof_H 	H 	0.728	0.3456	0.8716	-0.085
Mof_H 	H 	0.439	0.9738	0.7588	0.019
Mof_H 	H 	0.877	0.059	0.555	-0.08
Mof_H 	H 	0.282	0.4702	0.7152	-0.114
Mof_H 	H 	0.362	0.1981	0.4241	-0.145
Mof_H 	H 	0.785	0.4955	0.5275	-0.11
Mof_C 	C 	0.8411	0.81914	0.33234	0.489
Mof_C 	C 	0.0369	0.52045	0.20475	0.465
Mof_C 	C 	0.7185	0.57145	0.05925	0.481
Mof_C 	C 	0.1431	0.94811	0.17811	0.577
Mof_C 	C 	0.0916	0.74256	0.96396	0.66
Mof_C 	C 	0.731	0.93444	0.06394	0.518
Mof_C 	C 	0.3411	0.68086	0.16766	0.496
Mof_C 	C 	0.5369	0.97955	0.29525	0.626
Mof_C 	C 	0.2185	0.92855	0.44075	0.472
Mof_C 	C 	0.6431	0.55189	0.32189	0.494
Mof_C 	C 	0.5916	0.75744	0.53604	0.547
Mof_C 	C 	0.231	0.56556	0.43606	0.542
Mof_C 	C 	0.1589	0.18086	0.66766	0.495
Mof_C 	C 	0.9631	0.47955	0.79525	0.43
Mof_C 	C 	0.2815	0.42855	0.94075	0.45
Mof_C 	C 	0.8569	0.05189	0.82189	0.376
Mof_C 	C 	0.9084	0.25744	0.03604	0.374
Mof_C 	C 	0.269	0.06556	0.93606	0.514
Mof_C 	C 	0.6589	0.31914	0.83234	0.487
Mof_C 	C 	0.4631	0.02045	0.70475	0.281
Mof_C 	C 	0.7815	0.07145	0.55925	0.477
Mof_C 	C 	0.3569	0.44811	0.67811	0.501
Mof_C 	C 	0.4084	0.24256	0.46396	0.563
Mof_C 	C 	0.769	0.43444	0.56394	0.531
Mof_O 	O 	0.81188	0.802	0.25048	-0.457
Mof_O 	O 	0.95124	0.80561	0.36626	-0.343
Mof_O 	O 	0.0203	0.62903	0.21329	-0.494
Mof_O 	O 	0.01856	0.46086	0.1366	-0.405
Mof_O 	O 	0.75054	0.65401	0.1124	-0.465
Mof_O 	O 	0.79383	0.51277	0.01128	-0.382
Mof_O 	O 	0.08968	0.85099	0.19355	-0.514
Mof_O 	O 	0.11856	0.01157	0.11594	-0.467
Mof_O 	O 	0.02478	0.68713	0.02095	-0.572
Mof_O 	O 	0.09854	0.84808	0.95783	-0.379
Mof_O 	O 	0.85028	0.90027	0.06733	-0.439
Mof_O 	O 	0.63629	0.8948	0.10522	-0.398
Mof_O 	O 	0.31188	0.698	0.24952	-0.467
Mof_O 	O 	0.45124	0.69439	0.13374	-0.406
Mof_O 	O 	0.5203	0.87097	0.28671	-0.498
Mof_O 	O 	0.51856	0.03914	0.3634	-0.455
Mof_O 	O 	0.25054	0.84599	0.3876	-0.46
Mof_O 	O 	0.29383	0.98723	0.48872	-0.352
Mof_O 	O 	0.58968	0.64901	0.30645	-0.469
Mof_O 	O 	0.61856	0.48843	0.38406	-0.392
Mof_O 	O 	0.52478	0.81287	0.47905	-0.463
Mof_O 	O 	0.59854	0.65192	0.54217	-0.408
Mof_O 	O 	0.35028	0.59973	0.43267	-0.486
Mof_O 	O 	0.13629	0.6052	0.39478	-0.421
Mof_O 	O 	0.18812	0.198	0.74952	-0.478
Mof_O 	O 	0.04876	0.19439	0.63374	-0.443
Mof_O 	O 	0.9797	0.37097	0.78671	-0.414
Mof_O 	O 	0.98144	0.53914	0.8634	-0.289
Mof_O 	O 	0.24946	0.34599	0.8876	-0.447
Mof_O 	O 	0.20617	0.48723	0.98872	-0.325
Mof_O 	O 	0.91032	0.14901	0.80645	-0.404
Mof_O 	O 	0.88144	0.98843	0.88406	-0.231
Mof_O 	O 	0.97522	0.31287	0.97905	-0.309
Mof_O 	O 	0.90146	0.15192	0.04217	-0.347
Mof_O 	O 	0.14972	0.09973	0.93267	-0.443
Mof_O 	O 	0.36371	0.1052	0.89478	-0.399
Mof_O 	O 	0.68812	0.302	0.75048	-0.467
Mof_O 	O 	0.54876	0.30561	0.86626	-0.378
Mof_O 	O 	0.4797	0.12903	0.71329	-0.419
Mof_O 	O 	0.48144	0.96086	0.6366	-0.279
Mof_O 	O 	0.74946	0.15401	0.6124	-0.463
Mof_O 	O 	0.70617	0.01277	0.51128	-0.396
Mof_O 	O 	0.41032	0.35099	0.69355	-0.472
Mof_O 	O 	0.38144	0.51157	0.61594	-0.398
Mof_O 	O 	0.47522	0.18713	0.52095	-0.482
Mof_O 	O 	0.40146	0.34808	0.45783	-0.423
Mof_O 	O 	0.64972	0.40027	0.56733	-0.477
Mof_O 	O 	0.86371	0.3948	0.60522	-0.389
_end
