# CIF file generated by openbabel 3.1.0, see https://openbabel.org
data_I
_chemical_name_common 'IJANAJ_clean'
_cell_length_a 9.349
_cell_length_b 10.441
_cell_length_c 12.177
_cell_angle_alpha 109.956
_cell_angle_beta 103.388
_cell_angle_gamma 90.275
_space_group_name_H-M_alt 'P 1'
_space_group_name_Hall 'P 1'
loop_
    _symmetry_equiv_pos_as_xyz
    x,y,z
loop_
    _atom_site_label
    _atom_site_type_symbol
    _atom_site_fract_x
    _atom_site_fract_y
    _atom_site_fract_z
    _atom_site_occupancy
    Zn1      Zn       0.26055    0.07308    0.48656    1.000
    Zn2      Zn       0.73945    0.92692    0.51344    1.000
    Zn3      Zn       0.50000    0.50000    0.50000    1.000
    H1       H        0.44450    0.08270    0.17320    1.000
    H2       H        0.60920    0.06770    0.05490    1.000
    H3       H        0.85960    0.11780    0.14200    1.000
    H4       H        0.11000    0.17650    0.67600    1.000
    H5       H        0.15380    0.27440    0.88210    1.000
    H6       H        0.58760    0.28720    0.90150    1.000
    H7       H        0.53260    0.19120    0.69530    1.000
    H8       H        0.19870    0.31700    0.06440    1.000
    H9       H        0.24910    0.39120    0.26900    1.000
    H10      H        0.66220    0.48390    0.29690    1.000
    H11      H        0.62370    0.40410    0.09150    1.000
    H12      H        0.55550    0.91730    0.82680    1.000
    H13      H        0.39080    0.93230    0.94510    1.000
    H14      H        0.14040    0.88220    0.85800    1.000
    H15      H        0.89000    0.82350    0.32400    1.000
    H16      H        0.84620    0.72560    0.11790    1.000
    H17      H        0.41240    0.71280    0.09850    1.000
    H18      H        0.46740    0.80880    0.30470    1.000
    H19      H        0.80130    0.68300    0.93560    1.000
    H20      H        0.75090    0.60880    0.73100    1.000
    H21      H        0.33780    0.51610    0.70310    1.000
    H22      H        0.37630    0.59590    0.90850    1.000
    C1       C        0.84695    0.15978    0.31503    1.000
    C2       C        0.74840    0.17321    0.38808    1.000
    C3       C        0.59679    0.14923    0.33424    1.000
    C4       C        0.54498    0.10495    0.20894    1.000
    C5       C        0.64398    0.09435    0.13816    1.000
    C6       C        0.79405    0.12297    0.19006    1.000
    C7       C        0.01164    0.17676    0.36615    1.000
    C8       C        0.80479    0.21360    0.52320    1.000
    C9       C        0.48786    0.17313    0.41128    1.000
    C10      C        0.20700    0.19860    0.72206    1.000
    C11      C        0.23270    0.25750    0.84622    1.000
    C12      C        0.37729    0.29137    0.91741    1.000
    C13      C        0.48950    0.26535    0.85783    1.000
    C14      C        0.45572    0.20698    0.73361    1.000
    C15      C        0.40738    0.34913    0.05144    1.000
    C16      C        0.29490    0.34860    0.10963    1.000
    C17      C        0.32610    0.39450    0.23326    1.000
    C18      C        0.56790    0.44782    0.24977    1.000
    C19      C        0.54490    0.40068    0.12524    1.000
    C20      C        0.15305    0.84022    0.68497    1.000
    C21      C        0.25160    0.82679    0.61192    1.000
    C22      C        0.40321    0.85077    0.66576    1.000
    C23      C        0.45502    0.89505    0.79106    1.000
    C24      C        0.35602    0.90565    0.86184    1.000
    C25      C        0.20595    0.87703    0.80994    1.000
    C26      C        0.98836    0.82324    0.63385    1.000
    C27      C        0.19521    0.78640    0.47680    1.000
    C28      C        0.51214    0.82687    0.58872    1.000
    C29      C        0.79300    0.80140    0.27794    1.000
    C30      C        0.76730    0.74250    0.15378    1.000
    C31      C        0.62271    0.70863    0.08259    1.000
    C32      C        0.51050    0.73465    0.14217    1.000
    C33      C        0.54428    0.79302    0.26639    1.000
    C34      C        0.59262    0.65087    0.94856    1.000
    C35      C        0.70510    0.65140    0.89037    1.000
    C36      C        0.67390    0.60550    0.76674    1.000
    C37      C        0.43210    0.55218    0.75023    1.000
    C38      C        0.45510    0.59932    0.87476    1.000
    N1       N        0.31648    0.17215    0.66585    1.000
    N2       N        0.46049    0.44390    0.30562    1.000
    N3       N        0.68352    0.82785    0.33415    1.000
    N4       N        0.53951    0.55610    0.69438    1.000
    O1       O        0.05698    0.11285    0.43758    1.000
    O2       O        0.09017    0.24499    0.33352    1.000
    O3       O        0.87232    0.32819    0.58156    1.000
    O4       O        0.77689    0.12910    0.57069    1.000
    O5       O        0.48617    0.28799    0.48733    1.000
    O6       O        0.40121    0.06933    0.39190    1.000
    O7       O        0.94302    0.88715    0.56242    1.000
    O8       O        0.90983    0.75501    0.66648    1.000
    O9       O        0.12768    0.67181    0.41844    1.000
    O10      O        0.22311    0.87090    0.42931    1.000
    O11      O        0.51383    0.71201    0.51267    1.000
    O12      O        0.59879    0.93067    0.60810    1.000
