# CIF file generated by openbabel 3.1.0, see https://openbabel.org
data_I
_chemical_name_common 'image0'
_cell_length_a 30.0968
_cell_length_b 30.0968
_cell_length_c 30.0968
_cell_angle_alpha 90
_cell_angle_beta 90
_cell_angle_gamma 90
_space_group_name_H-M_alt 'P 1'
_space_group_name_Hall 'P 1'
loop_
    _symmetry_equiv_pos_as_xyz
    x,y,z
loop_
    _atom_site_label
    _atom_site_type_symbol
    _atom_site_fract_x
    _atom_site_fract_y
    _atom_site_fract_z
    _atom_site_occupancy
    Cu1      Cu       0.04574    0.57552    0.48487    1.000
    Cl1      Cl       0.05580    0.62062    0.42425    1.000
    N1       N        0.98833    0.60654    0.49803    1.000
    N2       N        0.09649    0.53712    0.46616    1.000
    N3       N        0.93347    0.65205    0.50507    1.000
    C1       C        0.96877    0.64021    0.47940    1.000
    H1       H        0.97760    0.65430    0.45220    1.000
    C2       C        0.12410    0.54077    0.43268    1.000
    H2       H        0.12450    0.56440    0.41130    1.000
    Cu2      Cu       0.20426    0.17448    0.98487    1.000
    Cl2      Cl       0.19420    0.12938    0.92425    1.000
    N4       N        0.26167    0.14346    0.99803    1.000
    N5       N        0.15351    0.21288    0.96616    1.000
    N6       N        0.31653    0.09795    0.00507    1.000
    C3       C        0.28123    0.10979    0.97940    1.000
    H3       H        0.27240    0.09570    0.95220    1.000
    C4       C        0.12590    0.20923    0.93268    1.000
    H4       H        0.12550    0.18560    0.91130    1.000
    Cu3      Cu       0.70426    0.07552    0.76513    1.000
    Cl3      Cl       0.69420    0.12062    0.82575    1.000
    N7       N        0.76167    0.10654    0.75197    1.000
    N8       N        0.65351    0.03712    0.78384    1.000
    N9       N        0.81653    0.15205    0.74493    1.000
    C5       C        0.78123    0.14021    0.77060    1.000
    H5       H        0.77240    0.15430    0.79780    1.000
    C6       C        0.62590    0.04077    0.81732    1.000
    H6       H        0.62550    0.06440    0.83870    1.000
    Cu4      Cu       0.54574    0.67448    0.26513    1.000
    Cl4      Cl       0.55580    0.62938    0.32575    1.000
    N10      N        0.48833    0.64346    0.25197    1.000
    N11      N        0.59649    0.71288    0.28384    1.000
    N12      N        0.43347    0.59795    0.24493    1.000
    C7       C        0.46877    0.60979    0.27060    1.000
    H7       H        0.47760    0.59570    0.29780    1.000
    C8       C        0.62410    0.70923    0.31732    1.000
    H8       H        0.62450    0.68560    0.33870    1.000
    Cu5      Cu       0.98487    0.54574    0.57552    1.000
    Cl5      Cl       0.92425    0.55580    0.62062    1.000
    N13      N        0.99803    0.48833    0.60654    1.000
    N14      N        0.96616    0.59649    0.53712    1.000
    N15      N        0.00507    0.43347    0.65205    1.000
    C9       C        0.97940    0.46877    0.64021    1.000
    H9       H        0.95220    0.47760    0.65430    1.000
    C10      C        0.93268    0.62410    0.54077    1.000
    H10      H        0.91130    0.62450    0.56440    1.000
    Cu6      Cu       0.48487    0.70426    0.17448    1.000
    Cl6      Cl       0.42425    0.69420    0.12938    1.000
    N16      N        0.49803    0.76167    0.14346    1.000
    N17      N        0.46616    0.65351    0.21288    1.000
    N18      N        0.50507    0.81653    0.09795    1.000
    C11      C        0.47940    0.78123    0.10979    1.000
    H11      H        0.45220    0.77240    0.09570    1.000
    C12      C        0.43268    0.62590    0.20923    1.000
    H12      H        0.41130    0.62550    0.18560    1.000
    Cu7      Cu       0.26513    0.20426    0.07552    1.000
    Cl7      Cl       0.32575    0.19420    0.12062    1.000
    N19      N        0.25197    0.26167    0.10654    1.000
    N20      N        0.28384    0.15351    0.03712    1.000
    N21      N        0.24493    0.31653    0.15205    1.000
    C13      C        0.27060    0.28123    0.14021    1.000
    H13      H        0.29780    0.27240    0.15430    1.000
    C14      C        0.31732    0.12590    0.04077    1.000
    H14      H        0.33870    0.12550    0.06440    1.000
    Cu8      Cu       0.76513    0.04574    0.67448    1.000
    Cl8      Cl       0.82575    0.05580    0.62938    1.000
    N22      N        0.75197    0.98833    0.64346    1.000
    N23      N        0.78384    0.09649    0.71288    1.000
    N24      N        0.74493    0.93347    0.59795    1.000
    C15      C        0.77060    0.96877    0.60979    1.000
    H15      H        0.79780    0.97760    0.59570    1.000
    C16      C        0.81732    0.12410    0.70923    1.000
    H16      H        0.83870    0.12450    0.68560    1.000
    Cu9      Cu       0.07552    0.48487    0.54574    1.000
    Cl9      Cl       0.12062    0.42425    0.55580    1.000
    N25      N        0.10654    0.49803    0.48833    1.000
    N26      N        0.03712    0.46616    0.59649    1.000
    N27      N        0.15205    0.50507    0.43347    1.000
    C17      C        0.14021    0.47940    0.46877    1.000
    H17      H        0.15430    0.45220    0.47760    1.000
    C18      C        0.04077    0.43268    0.62410    1.000
    H18      H        0.06440    0.41130    0.62450    1.000
    Cu10     Cu       0.67448    0.98487    0.70426    1.000
    Cl10     Cl       0.62938    0.92425    0.69420    1.000
    N28      N        0.64346    0.99803    0.76167    1.000
    N29      N        0.71288    0.96616    0.65351    1.000
    N30      N        0.59795    0.00507    0.81653    1.000
    C19      C        0.60979    0.97940    0.78123    1.000
    H19      H        0.59570    0.95220    0.77240    1.000
    C20      C        0.70923    0.93268    0.62590    1.000
    H20      H        0.68560    0.91130    0.62550    1.000
    Cu11     Cu       0.57552    0.76513    0.20426    1.000
    Cl11     Cl       0.62062    0.82575    0.19420    1.000
    N31      N        0.60654    0.75197    0.26167    1.000
    N32      N        0.53712    0.78384    0.15351    1.000
    N33      N        0.65205    0.74493    0.31653    1.000
    C21      C        0.64021    0.77060    0.28123    1.000
    H21      H        0.65430    0.79780    0.27240    1.000
    C22      C        0.54077    0.81732    0.12590    1.000
    H22      H        0.56440    0.83870    0.12550    1.000
    Cu12     Cu       0.17448    0.26513    0.04574    1.000
    Cl12     Cl       0.12938    0.32575    0.05580    1.000
    N34      N        0.14346    0.25197    0.98833    1.000
    N35      N        0.21288    0.28384    0.09649    1.000
    N36      N        0.09795    0.24493    0.93347    1.000
    C23      C        0.10979    0.27060    0.96877    1.000
    H23      H        0.09570    0.29780    0.97760    1.000
    C24      C        0.20923    0.31732    0.12410    1.000
    H24      H        0.18560    0.33870    0.12450    1.000
    Cu13     Cu       0.82552    0.79574    0.51513    1.000
    Cl13     Cl       0.87062    0.80580    0.57575    1.000
    N37      N        0.85654    0.73833    0.50197    1.000
    N38      N        0.78712    0.84649    0.53384    1.000
    N39      N        0.90205    0.68347    0.49493    1.000
    C25      C        0.89021    0.71877    0.52060    1.000
    H25      H        0.90430    0.72760    0.54780    1.000
    C26      C        0.79077    0.87410    0.56732    1.000
    H26      H        0.81440    0.87450    0.58870    1.000
    Cu14     Cu       0.42448    0.95426    0.01513    1.000
    Cl14     Cl       0.37938    0.94420    0.07575    1.000
    N40      N        0.39346    0.01167    0.00197    1.000
    N41      N        0.46288    0.90351    0.03384    1.000
    N42      N        0.34795    0.06653    0.99493    1.000
    C27      C        0.35979    0.03123    0.02060    1.000
    H27      H        0.34570    0.02240    0.04780    1.000
    C28      C        0.45923    0.87590    0.06732    1.000
    H28      H        0.43560    0.87550    0.08870    1.000
    Cu15     Cu       0.32552    0.45426    0.23487    1.000
    Cl15     Cl       0.37062    0.44420    0.17425    1.000
    N43      N        0.35654    0.51167    0.24803    1.000
    N44      N        0.28712    0.40351    0.21616    1.000
    N45      N        0.40205    0.56653    0.25507    1.000
    C29      C        0.39021    0.53123    0.22940    1.000
    H29      H        0.40430    0.52240    0.20220    1.000
    C30      C        0.29077    0.37590    0.18268    1.000
    H30      H        0.31440    0.37550    0.16130    1.000
    Cu16     Cu       0.92448    0.29574    0.73487    1.000
    Cl16     Cl       0.87938    0.30580    0.67425    1.000
    N46      N        0.89346    0.23833    0.74803    1.000
    N47      N        0.96288    0.34649    0.71616    1.000
    N48      N        0.84795    0.18347    0.75507    1.000
    C31      C        0.85979    0.21877    0.72940    1.000
    H31      H        0.84570    0.22760    0.70220    1.000
    C32      C        0.95923    0.37410    0.68268    1.000
    H32      H        0.93560    0.37450    0.66130    1.000
    Cu17     Cu       0.79574    0.73487    0.42448    1.000
    Cl17     Cl       0.80580    0.67425    0.37938    1.000
    N49      N        0.73833    0.74803    0.39346    1.000
    N50      N        0.84649    0.71616    0.46288    1.000
    N51      N        0.68347    0.75507    0.34795    1.000
    C33      C        0.71877    0.72940    0.35979    1.000
    H33      H        0.72760    0.70220    0.34570    1.000
    C34      C        0.87410    0.68268    0.45923    1.000
    H34      H        0.87450    0.66130    0.43560    1.000
    Cu18     Cu       0.95426    0.23487    0.82552    1.000
    Cl18     Cl       0.94420    0.17425    0.87062    1.000
    N52      N        0.01167    0.24803    0.85654    1.000
    N53      N        0.90351    0.21616    0.78712    1.000
    N54      N        0.06653    0.25507    0.90205    1.000
    C35      C        0.03123    0.22940    0.89021    1.000
    H35      H        0.02240    0.20220    0.90430    1.000
    C36      C        0.87590    0.18268    0.79077    1.000
    H36      H        0.87550    0.16130    0.81440    1.000
    Cu19     Cu       0.45426    0.01513    0.92448    1.000
    Cl19     Cl       0.44420    0.07575    0.87938    1.000
    N55      N        0.51167    0.00197    0.89346    1.000
    N56      N        0.40351    0.03384    0.96288    1.000
    N57      N        0.56653    0.99493    0.84795    1.000
    C37      C        0.53123    0.02060    0.85979    1.000
    H37      H        0.52240    0.04780    0.84570    1.000
    C38      C        0.37590    0.06732    0.95923    1.000
    H38      H        0.37550    0.08870    0.93560    1.000
    Cu20     Cu       0.29574    0.51513    0.32552    1.000
    Cl20     Cl       0.30580    0.57575    0.37062    1.000
    N58      N        0.23833    0.50197    0.35654    1.000
    N59      N        0.34649    0.53384    0.28712    1.000
    N60      N        0.18347    0.49493    0.40205    1.000
    C39      C        0.21877    0.52060    0.39021    1.000
    H39      H        0.22760    0.54780    0.40430    1.000
    C40      C        0.37410    0.56732    0.29077    1.000
    H40      H        0.37450    0.58870    0.31440    1.000
    Cu21     Cu       0.73487    0.82552    0.45426    1.000
    Cl21     Cl       0.67425    0.87062    0.44420    1.000
    N61      N        0.74803    0.85654    0.51167    1.000
    N62      N        0.71616    0.78712    0.40351    1.000
    N63      N        0.75507    0.90205    0.56653    1.000
    C41      C        0.72940    0.89021    0.53123    1.000
    H41      H        0.70220    0.90430    0.52240    1.000
    C42      C        0.68268    0.79077    0.37590    1.000
    H42      H        0.66130    0.81440    0.37550    1.000
    Cu22     Cu       0.23487    0.42448    0.29574    1.000
    Cl22     Cl       0.17425    0.37938    0.30580    1.000
    N64      N        0.24803    0.39346    0.23833    1.000
    N65      N        0.21616    0.46288    0.34649    1.000
    N66      N        0.25507    0.34795    0.18347    1.000
    C43      C        0.22940    0.35979    0.21877    1.000
    H43      H        0.20220    0.34570    0.22760    1.000
    C44      C        0.18268    0.45923    0.37410    1.000
    H44      H        0.16130    0.43560    0.37450    1.000
    Cu23     Cu       0.01513    0.32552    0.79574    1.000
    Cl23     Cl       0.07575    0.37062    0.80580    1.000
    N67      N        0.00197    0.35654    0.73833    1.000
    N68      N        0.03384    0.28712    0.84649    1.000
    N69      N        0.99493    0.40205    0.68347    1.000
    C45      C        0.02060    0.39021    0.71877    1.000
    H45      H        0.04780    0.40430    0.72760    1.000
    C46      C        0.06732    0.29077    0.87410    1.000
    H46      H        0.08870    0.31440    0.87450    1.000
    Cu24     Cu       0.51513    0.92448    0.95426    1.000
    Cl24     Cl       0.57575    0.87938    0.94420    1.000
    N70      N        0.50197    0.89346    0.01167    1.000
    N71      N        0.53384    0.96288    0.90351    1.000
    N72      N        0.49493    0.84795    0.06653    1.000
    C47      C        0.52060    0.85979    0.03123    1.000
    H47      H        0.54780    0.84570    0.02240    1.000
    C48      C        0.56732    0.95923    0.87590    1.000
    H48      H        0.58870    0.93560    0.87550    1.000
    O1       O        0.02604    0.52604    0.52604    1.000
    H49      H        0.00970    0.50970    0.50970    1.000
    O2       O        0.22396    0.22396    0.02604    1.000
    H50      H        0.24030    0.24030    0.00970    1.000
    O3       O        0.72396    0.02604    0.72396    1.000
    H51      H        0.74030    0.00970    0.74030    1.000
    O4       O        0.52604    0.72396    0.22396    1.000
    H52      H        0.50970    0.74030    0.24030    1.000
    O5       O        0.97396    0.27604    0.77604    1.000
    H53      H        0.99030    0.25970    0.75970    1.000
    O6       O        0.77604    0.77604    0.47396    1.000
    H54      H        0.75970    0.75970    0.49030    1.000
    O7       O        0.47396    0.97396    0.97396    1.000
    H55      H        0.49030    0.99030    0.99030    1.000
    O8       O        0.27604    0.47396    0.27604    1.000
    H56      H        0.25970    0.49030    0.25970    1.000
    Cu25     Cu       0.04574    0.07552    0.98487    1.000
    Cl25     Cl       0.05580    0.12062    0.92425    1.000
    N73      N        0.98833    0.10654    0.99803    1.000
    N74      N        0.09649    0.03712    0.96616    1.000
    N75      N        0.93347    0.15205    0.00507    1.000
    C49      C        0.96877    0.14021    0.97940    1.000
    H57      H        0.97760    0.15430    0.95220    1.000
    C50      C        0.12410    0.04077    0.93268    1.000
    H58      H        0.12450    0.06440    0.91130    1.000
    Cu26     Cu       0.20426    0.67448    0.48487    1.000
    Cl26     Cl       0.19420    0.62938    0.42425    1.000
    N76      N        0.26167    0.64346    0.49803    1.000
    N77      N        0.15351    0.71288    0.46616    1.000
    N78      N        0.31653    0.59795    0.50507    1.000
    C51      C        0.28123    0.60979    0.47940    1.000
    H59      H        0.27240    0.59570    0.45220    1.000
    C52      C        0.12590    0.70923    0.43268    1.000
    H60      H        0.12550    0.68560    0.41130    1.000
    Cu27     Cu       0.70426    0.57552    0.26513    1.000
    Cl27     Cl       0.69420    0.62062    0.32575    1.000
    N79      N        0.76167    0.60654    0.25197    1.000
    N80      N        0.65351    0.53712    0.28384    1.000
    N81      N        0.81653    0.65205    0.24493    1.000
    C53      C        0.78123    0.64021    0.27060    1.000
    H61      H        0.77240    0.65430    0.29780    1.000
    C54      C        0.62590    0.54077    0.31732    1.000
    H62      H        0.62550    0.56440    0.33870    1.000
    Cu28     Cu       0.54574    0.17448    0.76513    1.000
    Cl28     Cl       0.55580    0.12938    0.82575    1.000
    N82      N        0.48833    0.14346    0.75197    1.000
    N83      N        0.59649    0.21288    0.78384    1.000
    N84      N        0.43347    0.09795    0.74493    1.000
    C55      C        0.46877    0.10979    0.77060    1.000
    H63      H        0.47760    0.09570    0.79780    1.000
    C56      C        0.62410    0.20923    0.81732    1.000
    H64      H        0.62450    0.18560    0.83870    1.000
    Cu29     Cu       0.98487    0.04574    0.07552    1.000
    Cl29     Cl       0.92425    0.05580    0.12062    1.000
    N85      N        0.99803    0.98833    0.10654    1.000
    N86      N        0.96616    0.09649    0.03712    1.000
    N87      N        0.00507    0.93347    0.15205    1.000
    C57      C        0.97940    0.96877    0.14021    1.000
    H65      H        0.95220    0.97760    0.15430    1.000
    C58      C        0.93268    0.12410    0.04077    1.000
    H66      H        0.91130    0.12450    0.06440    1.000
    Cu30     Cu       0.48487    0.20426    0.67448    1.000
    Cl30     Cl       0.42425    0.19420    0.62938    1.000
    N88      N        0.49803    0.26167    0.64346    1.000
    N89      N        0.46616    0.15351    0.71288    1.000
    N90      N        0.50507    0.31653    0.59795    1.000
    C59      C        0.47940    0.28123    0.60979    1.000
    H67      H        0.45220    0.27240    0.59570    1.000
    C60      C        0.43268    0.12590    0.70923    1.000
    H68      H        0.41130    0.12550    0.68560    1.000
    Cu31     Cu       0.26513    0.70426    0.57552    1.000
    Cl31     Cl       0.32575    0.69420    0.62062    1.000
    N91      N        0.25197    0.76167    0.60654    1.000
    N92      N        0.28384    0.65351    0.53712    1.000
    N93      N        0.24493    0.81653    0.65205    1.000
    C61      C        0.27060    0.78123    0.64021    1.000
    H69      H        0.29780    0.77240    0.65430    1.000
    C62      C        0.31732    0.62590    0.54077    1.000
    H70      H        0.33870    0.62550    0.56440    1.000
    Cu32     Cu       0.76513    0.54574    0.17448    1.000
    Cl32     Cl       0.82575    0.55580    0.12938    1.000
    N94      N        0.75197    0.48833    0.14346    1.000
    N95      N        0.78384    0.59649    0.21288    1.000
    N96      N        0.74493    0.43347    0.09795    1.000
    C63      C        0.77060    0.46877    0.10979    1.000
    H71      H        0.79780    0.47760    0.09570    1.000
    C64      C        0.81732    0.62410    0.20923    1.000
    H72      H        0.83870    0.62450    0.18560    1.000
    Cu33     Cu       0.07552    0.98487    0.04574    1.000
    Cl33     Cl       0.12062    0.92425    0.05580    1.000
    N97      N        0.10654    0.99803    0.98833    1.000
    N98      N        0.03712    0.96616    0.09649    1.000
    N99      N        0.15205    0.00507    0.93347    1.000
    C65      C        0.14021    0.97940    0.96877    1.000
    H73      H        0.15430    0.95220    0.97760    1.000
    C66      C        0.04077    0.93268    0.12410    1.000
    H74      H        0.06440    0.91130    0.12450    1.000
    Cu34     Cu       0.67448    0.48487    0.20426    1.000
    Cl34     Cl       0.62938    0.42425    0.19420    1.000
    N100     N        0.64346    0.49803    0.26167    1.000
    N101     N        0.71288    0.46616    0.15351    1.000
    N102     N        0.59795    0.50507    0.31653    1.000
    C67      C        0.60979    0.47940    0.28123    1.000
    H75      H        0.59570    0.45220    0.27240    1.000
    C68      C        0.70923    0.43268    0.12590    1.000
    H76      H        0.68560    0.41130    0.12550    1.000
    Cu35     Cu       0.57552    0.26513    0.70426    1.000
    Cl35     Cl       0.62062    0.32575    0.69420    1.000
    N103     N        0.60654    0.25197    0.76167    1.000
    N104     N        0.53712    0.28384    0.65351    1.000
    N105     N        0.65205    0.24493    0.81653    1.000
    C69      C        0.64021    0.27060    0.78123    1.000
    H77      H        0.65430    0.29780    0.77240    1.000
    C70      C        0.54077    0.31732    0.62590    1.000
    H78      H        0.56440    0.33870    0.62550    1.000
    Cu36     Cu       0.17448    0.76513    0.54574    1.000
    Cl36     Cl       0.12938    0.82575    0.55580    1.000
    N106     N        0.14346    0.75197    0.48833    1.000
    N107     N        0.21288    0.78384    0.59649    1.000
    N108     N        0.09795    0.74493    0.43347    1.000
    C71      C        0.10979    0.77060    0.46877    1.000
    H79      H        0.09570    0.79780    0.47760    1.000
    C72      C        0.20923    0.81732    0.62410    1.000
    H80      H        0.18560    0.83870    0.62450    1.000
    Cu37     Cu       0.82552    0.29574    0.01513    1.000
    Cl37     Cl       0.87062    0.30580    0.07575    1.000
    N109     N        0.85654    0.23833    0.00197    1.000
    N110     N        0.78712    0.34649    0.03384    1.000
    N111     N        0.90205    0.18347    0.99493    1.000
    C73      C        0.89021    0.21877    0.02060    1.000
    H81      H        0.90430    0.22760    0.04780    1.000
    C74      C        0.79077    0.37410    0.06732    1.000
    H82      H        0.81440    0.37450    0.08870    1.000
    Cu38     Cu       0.42448    0.45426    0.51513    1.000
    Cl38     Cl       0.37938    0.44420    0.57575    1.000
    N112     N        0.39346    0.51167    0.50197    1.000
    N113     N        0.46288    0.40351    0.53384    1.000
    N114     N        0.34795    0.56653    0.49493    1.000
    C75      C        0.35979    0.53123    0.52060    1.000
    H83      H        0.34570    0.52240    0.54780    1.000
    C76      C        0.45923    0.37590    0.56732    1.000
    H84      H        0.43560    0.37550    0.58870    1.000
    Cu39     Cu       0.32552    0.95426    0.73487    1.000
    Cl39     Cl       0.37062    0.94420    0.67425    1.000
    N115     N        0.35654    0.01167    0.74803    1.000
    N116     N        0.28712    0.90351    0.71616    1.000
    N117     N        0.40205    0.06653    0.75507    1.000
    C77      C        0.39021    0.03123    0.72940    1.000
    H85      H        0.40430    0.02240    0.70220    1.000
    C78      C        0.29077    0.87590    0.68268    1.000
    H86      H        0.31440    0.87550    0.66130    1.000
    Cu40     Cu       0.92448    0.79574    0.23487    1.000
    Cl40     Cl       0.87938    0.80580    0.17425    1.000
    N118     N        0.89346    0.73833    0.24803    1.000
    N119     N        0.96288    0.84649    0.21616    1.000
    N120     N        0.84795    0.68347    0.25507    1.000
    C79      C        0.85979    0.71877    0.22940    1.000
    H87      H        0.84570    0.72760    0.20220    1.000
    C80      C        0.95923    0.87410    0.18268    1.000
    H88      H        0.93560    0.87450    0.16130    1.000
    Cu41     Cu       0.79574    0.23487    0.92448    1.000
    Cl41     Cl       0.80580    0.17425    0.87938    1.000
    N121     N        0.73833    0.24803    0.89346    1.000
    N122     N        0.84649    0.21616    0.96288    1.000
    N123     N        0.68347    0.25507    0.84795    1.000
    C81      C        0.71877    0.22940    0.85979    1.000
    H89      H        0.72760    0.20220    0.84570    1.000
    C82      C        0.87410    0.18268    0.95923    1.000
    H90      H        0.87450    0.16130    0.93560    1.000
    Cu42     Cu       0.95426    0.73487    0.32552    1.000
    Cl42     Cl       0.94420    0.67425    0.37062    1.000
    N124     N        0.01167    0.74803    0.35654    1.000
    N125     N        0.90351    0.71616    0.28712    1.000
    N126     N        0.06653    0.75507    0.40205    1.000
    C83      C        0.03123    0.72940    0.39021    1.000
    H91      H        0.02240    0.70220    0.40430    1.000
    C84      C        0.87590    0.68268    0.29077    1.000
    H92      H        0.87550    0.66130    0.31440    1.000
    Cu43     Cu       0.45426    0.51513    0.42448    1.000
    Cl43     Cl       0.44420    0.57575    0.37938    1.000
    N127     N        0.51167    0.50197    0.39346    1.000
    N128     N        0.40351    0.53384    0.46288    1.000
    N129     N        0.56653    0.49493    0.34795    1.000
    C85      C        0.53123    0.52060    0.35979    1.000
    H93      H        0.52240    0.54780    0.34570    1.000
    C86      C        0.37590    0.56732    0.45923    1.000
    H94      H        0.37550    0.58870    0.43560    1.000
    Cu44     Cu       0.29574    0.01513    0.82552    1.000
    Cl44     Cl       0.30580    0.07575    0.87062    1.000
    N130     N        0.23833    0.00197    0.85654    1.000
    N131     N        0.34649    0.03384    0.78712    1.000
    N132     N        0.18347    0.99493    0.90205    1.000
    C87      C        0.21877    0.02060    0.89021    1.000
    H95      H        0.22760    0.04780    0.90430    1.000
    C88      C        0.37410    0.06732    0.79077    1.000
    H96      H        0.37450    0.08870    0.81440    1.000
    Cu45     Cu       0.73487    0.32552    0.95426    1.000
    Cl45     Cl       0.67425    0.37062    0.94420    1.000
    N133     N        0.74803    0.35654    0.01167    1.000
    N134     N        0.71616    0.28712    0.90351    1.000
    N135     N        0.75507    0.40205    0.06653    1.000
    C89      C        0.72940    0.39021    0.03123    1.000
    H97      H        0.70220    0.40430    0.02240    1.000
    C90      C        0.68268    0.29077    0.87590    1.000
    H98      H        0.66130    0.31440    0.87550    1.000
    Cu46     Cu       0.23487    0.92448    0.79574    1.000
    Cl46     Cl       0.17425    0.87938    0.80580    1.000
    N136     N        0.24803    0.89346    0.73833    1.000
    N137     N        0.21616    0.96288    0.84649    1.000
    N138     N        0.25507    0.84795    0.68347    1.000
    C91      C        0.22940    0.85979    0.71877    1.000
    H99      H        0.20220    0.84570    0.72760    1.000
    C92      C        0.18268    0.95923    0.87410    1.000
    H100     H        0.16130    0.93560    0.87450    1.000
    Cu47     Cu       0.01513    0.82552    0.29574    1.000
    Cl47     Cl       0.07575    0.87062    0.30580    1.000
    N139     N        0.00197    0.85654    0.23833    1.000
    N140     N        0.03384    0.78712    0.34649    1.000
    N141     N        0.99493    0.90205    0.18347    1.000
    C93      C        0.02060    0.89021    0.21877    1.000
    H101     H        0.04780    0.90430    0.22760    1.000
    C94      C        0.06732    0.79077    0.37410    1.000
    H102     H        0.08870    0.81440    0.37450    1.000
    Cu48     Cu       0.51513    0.42448    0.45426    1.000
    Cl48     Cl       0.57575    0.37938    0.44420    1.000
    N142     N        0.50197    0.39346    0.51167    1.000
    N143     N        0.53384    0.46288    0.40351    1.000
    N144     N        0.49493    0.34795    0.56653    1.000
    C95      C        0.52060    0.35979    0.53123    1.000
    H103     H        0.54780    0.34570    0.52240    1.000
    C96      C        0.56732    0.45923    0.37590    1.000
    H104     H        0.58870    0.43560    0.37550    1.000
    O9       O        0.02604    0.02604    0.02604    1.000
    H105     H        0.00970    0.00970    0.00970    1.000
    O10      O        0.22396    0.72396    0.52604    1.000
    H106     H        0.24030    0.74030    0.50970    1.000
    O11      O        0.72396    0.52604    0.22396    1.000
    H107     H        0.74030    0.50970    0.24030    1.000
    O12      O        0.52604    0.22396    0.72396    1.000
    H108     H        0.50970    0.24030    0.74030    1.000
    O13      O        0.47396    0.47396    0.47396    1.000
    H109     H        0.49030    0.49030    0.49030    1.000
    O14      O        0.77604    0.27604    0.97396    1.000
    H110     H        0.75970    0.25970    0.99030    1.000
    O15      O        0.97396    0.77604    0.27604    1.000
    H111     H        0.99030    0.75970    0.25970    1.000
    O16      O        0.27604    0.97396    0.77604    1.000
    H112     H        0.25970    0.99030    0.75970    1.000
    Cu49     Cu       0.54574    0.57552    0.98487    1.000
    Cl49     Cl       0.55580    0.62062    0.92425    1.000
    N145     N        0.48833    0.60654    0.99803    1.000
    N146     N        0.59649    0.53712    0.96616    1.000
    N147     N        0.43347    0.65205    0.00507    1.000
    C97      C        0.46877    0.64021    0.97940    1.000
    H113     H        0.47760    0.65430    0.95220    1.000
    C98      C        0.62410    0.54077    0.93268    1.000
    H114     H        0.62450    0.56440    0.91130    1.000
    Cu50     Cu       0.70426    0.17448    0.48487    1.000
    Cl50     Cl       0.69420    0.12938    0.42425    1.000
    N148     N        0.76167    0.14346    0.49803    1.000
    N149     N        0.65351    0.21288    0.46616    1.000
    N150     N        0.81653    0.09795    0.50507    1.000
    C99      C        0.78123    0.10979    0.47940    1.000
    H115     H        0.77240    0.09570    0.45220    1.000
    C100     C        0.62590    0.20923    0.43268    1.000
    H116     H        0.62550    0.18560    0.41130    1.000
    Cu51     Cu       0.20426    0.07552    0.26513    1.000
    Cl51     Cl       0.19420    0.12062    0.32575    1.000
    N151     N        0.26167    0.10654    0.25197    1.000
    N152     N        0.15351    0.03712    0.28384    1.000
    N153     N        0.31653    0.15205    0.24493    1.000
    C101     C        0.28123    0.14021    0.27060    1.000
    H117     H        0.27240    0.15430    0.29780    1.000
    C102     C        0.12590    0.04077    0.31732    1.000
    H118     H        0.12550    0.06440    0.33870    1.000
    Cu52     Cu       0.04574    0.67448    0.76513    1.000
    Cl52     Cl       0.05580    0.62938    0.82575    1.000
    N154     N        0.98833    0.64346    0.75197    1.000
    N155     N        0.09649    0.71288    0.78384    1.000
    N156     N        0.93347    0.59795    0.74493    1.000
    C103     C        0.96877    0.60979    0.77060    1.000
    H119     H        0.97760    0.59570    0.79780    1.000
    C104     C        0.12410    0.70923    0.81732    1.000
    H120     H        0.12450    0.68560    0.83870    1.000
    Cu53     Cu       0.48487    0.54574    0.07552    1.000
    Cl53     Cl       0.42425    0.55580    0.12062    1.000
    N157     N        0.49803    0.48833    0.10654    1.000
    N158     N        0.46616    0.59649    0.03712    1.000
    N159     N        0.50507    0.43347    0.15205    1.000
    C105     C        0.47940    0.46877    0.14021    1.000
    H121     H        0.45220    0.47760    0.15430    1.000
    C106     C        0.43268    0.62410    0.04077    1.000
    H122     H        0.41130    0.62450    0.06440    1.000
    Cu54     Cu       0.98487    0.70426    0.67448    1.000
    Cl54     Cl       0.92425    0.69420    0.62938    1.000
    N160     N        0.99803    0.76167    0.64346    1.000
    N161     N        0.96616    0.65351    0.71288    1.000
    N162     N        0.00507    0.81653    0.59795    1.000
    C107     C        0.97940    0.78123    0.60979    1.000
    H123     H        0.95220    0.77240    0.59570    1.000
    C108     C        0.93268    0.62590    0.70923    1.000
    H124     H        0.91130    0.62550    0.68560    1.000
    Cu55     Cu       0.76513    0.20426    0.57552    1.000
    Cl55     Cl       0.82575    0.19420    0.62062    1.000
    N163     N        0.75197    0.26167    0.60654    1.000
    N164     N        0.78384    0.15351    0.53712    1.000
    N165     N        0.74493    0.31653    0.65205    1.000
    C109     C        0.77060    0.28123    0.64021    1.000
    H125     H        0.79780    0.27240    0.65430    1.000
    C110     C        0.81732    0.12590    0.54077    1.000
    H126     H        0.83870    0.12550    0.56440    1.000
    Cu56     Cu       0.26513    0.04574    0.17448    1.000
    Cl56     Cl       0.32575    0.05580    0.12938    1.000
    N166     N        0.25197    0.98833    0.14346    1.000
    N167     N        0.28384    0.09649    0.21288    1.000
    N168     N        0.24493    0.93347    0.09795    1.000
    C111     C        0.27060    0.96877    0.10979    1.000
    H127     H        0.29780    0.97760    0.09570    1.000
    C112     C        0.31732    0.12410    0.20923    1.000
    H128     H        0.33870    0.12450    0.18560    1.000
    Cu57     Cu       0.57552    0.48487    0.04574    1.000
    Cl57     Cl       0.62062    0.42425    0.05580    1.000
    N169     N        0.60654    0.49803    0.98833    1.000
    N170     N        0.53712    0.46616    0.09649    1.000
    N171     N        0.65205    0.50507    0.93347    1.000
    C113     C        0.64021    0.47940    0.96877    1.000
    H129     H        0.65430    0.45220    0.97760    1.000
    C114     C        0.54077    0.43268    0.12410    1.000
    H130     H        0.56440    0.41130    0.12450    1.000
    Cu58     Cu       0.17448    0.98487    0.20426    1.000
    Cl58     Cl       0.12938    0.92425    0.19420    1.000
    N172     N        0.14346    0.99803    0.26167    1.000
    N173     N        0.21288    0.96616    0.15351    1.000
    N174     N        0.09795    0.00507    0.31653    1.000
    C115     C        0.10979    0.97940    0.28123    1.000
    H131     H        0.09570    0.95220    0.27240    1.000
    C116     C        0.20923    0.93268    0.12590    1.000
    H132     H        0.18560    0.91130    0.12550    1.000
    Cu59     Cu       0.07552    0.76513    0.70426    1.000
    Cl59     Cl       0.12062    0.82575    0.69420    1.000
    N175     N        0.10654    0.75197    0.76167    1.000
    N176     N        0.03712    0.78384    0.65351    1.000
    N177     N        0.15205    0.74493    0.81653    1.000
    C117     C        0.14021    0.77060    0.78123    1.000
    H133     H        0.15430    0.79780    0.77240    1.000
    C118     C        0.04077    0.81732    0.62590    1.000
    H134     H        0.06440    0.83870    0.62550    1.000
    Cu60     Cu       0.67448    0.26513    0.54574    1.000
    Cl60     Cl       0.62938    0.32575    0.55580    1.000
    N178     N        0.64346    0.25197    0.48833    1.000
    N179     N        0.71288    0.28384    0.59649    1.000
    N180     N        0.59795    0.24493    0.43347    1.000
    C119     C        0.60979    0.27060    0.46877    1.000
    H135     H        0.59570    0.29780    0.47760    1.000
    C120     C        0.70923    0.31732    0.62410    1.000
    H136     H        0.68560    0.33870    0.62450    1.000
    Cu61     Cu       0.32552    0.79574    0.01513    1.000
    Cl61     Cl       0.37062    0.80580    0.07575    1.000
    N181     N        0.35654    0.73833    0.00197    1.000
    N182     N        0.28712    0.84649    0.03384    1.000
    N183     N        0.40205    0.68347    0.99493    1.000
    C121     C        0.39021    0.71877    0.02060    1.000
    H137     H        0.40430    0.72760    0.04780    1.000
    C122     C        0.29077    0.87410    0.06732    1.000
    H138     H        0.31440    0.87450    0.08870    1.000
    Cu62     Cu       0.92448    0.95426    0.51513    1.000
    Cl62     Cl       0.87938    0.94420    0.57575    1.000
    N184     N        0.89346    0.01167    0.50197    1.000
    N185     N        0.96288    0.90351    0.53384    1.000
    N186     N        0.84795    0.06653    0.49493    1.000
    C123     C        0.85979    0.03123    0.52060    1.000
    H139     H        0.84570    0.02240    0.54780    1.000
    C124     C        0.95923    0.87590    0.56732    1.000
    H140     H        0.93560    0.87550    0.58870    1.000
    Cu63     Cu       0.82552    0.45426    0.73487    1.000
    Cl63     Cl       0.87062    0.44420    0.67425    1.000
    N187     N        0.85654    0.51167    0.74803    1.000
    N188     N        0.78712    0.40351    0.71616    1.000
    N189     N        0.90205    0.56653    0.75507    1.000
    C125     C        0.89021    0.53123    0.72940    1.000
    H141     H        0.90430    0.52240    0.70220    1.000
    C126     C        0.79077    0.37590    0.68268    1.000
    H142     H        0.81440    0.37550    0.66130    1.000
    Cu64     Cu       0.42448    0.29574    0.23487    1.000
    Cl64     Cl       0.37938    0.30580    0.17425    1.000
    N190     N        0.39346    0.23833    0.24803    1.000
    N191     N        0.46288    0.34649    0.21616    1.000
    N192     N        0.34795    0.18347    0.25507    1.000
    C127     C        0.35979    0.21877    0.22940    1.000
    H143     H        0.34570    0.22760    0.20220    1.000
    C128     C        0.45923    0.37410    0.18268    1.000
    H144     H        0.43560    0.37450    0.16130    1.000
    Cu65     Cu       0.29574    0.73487    0.92448    1.000
    Cl65     Cl       0.30580    0.67425    0.87938    1.000
    N193     N        0.23833    0.74803    0.89346    1.000
    N194     N        0.34649    0.71616    0.96288    1.000
    N195     N        0.18347    0.75507    0.84795    1.000
    C129     C        0.21877    0.72940    0.85979    1.000
    H145     H        0.22760    0.70220    0.84570    1.000
    C130     C        0.37410    0.68268    0.95923    1.000
    H146     H        0.37450    0.66130    0.93560    1.000
    Cu66     Cu       0.45426    0.23487    0.32552    1.000
    Cl66     Cl       0.44420    0.17425    0.37062    1.000
    N196     N        0.51167    0.24803    0.35654    1.000
    N197     N        0.40351    0.21616    0.28712    1.000
    N198     N        0.56653    0.25507    0.40205    1.000
    C131     C        0.53123    0.22940    0.39021    1.000
    H147     H        0.52240    0.20220    0.40430    1.000
    C132     C        0.37590    0.18268    0.29077    1.000
    H148     H        0.37550    0.16130    0.31440    1.000
    Cu67     Cu       0.95426    0.01513    0.42448    1.000
    Cl67     Cl       0.94420    0.07575    0.37938    1.000
    N199     N        0.01167    0.00197    0.39346    1.000
    N200     N        0.90351    0.03384    0.46288    1.000
    N201     N        0.06653    0.99493    0.34795    1.000
    C133     C        0.03123    0.02060    0.35979    1.000
    H149     H        0.02240    0.04780    0.34570    1.000
    C134     C        0.87590    0.06732    0.45923    1.000
    H150     H        0.87550    0.08870    0.43560    1.000
    Cu68     Cu       0.79574    0.51513    0.82552    1.000
    Cl68     Cl       0.80580    0.57575    0.87062    1.000
    N202     N        0.73833    0.50197    0.85654    1.000
    N203     N        0.84649    0.53384    0.78712    1.000
    N204     N        0.68347    0.49493    0.90205    1.000
    C135     C        0.71877    0.52060    0.89021    1.000
    H151     H        0.72760    0.54780    0.90430    1.000
    C136     C        0.87410    0.56732    0.79077    1.000
    H152     H        0.87450    0.58870    0.81440    1.000
    Cu69     Cu       0.23487    0.82552    0.95426    1.000
    Cl69     Cl       0.17425    0.87062    0.94420    1.000
    N205     N        0.24803    0.85654    0.01167    1.000
    N206     N        0.21616    0.78712    0.90351    1.000
    N207     N        0.25507    0.90205    0.06653    1.000
    C137     C        0.22940    0.89021    0.03123    1.000
    H153     H        0.20220    0.90430    0.02240    1.000
    C138     C        0.18268    0.79077    0.87590    1.000
    H154     H        0.16130    0.81440    0.87550    1.000
    Cu70     Cu       0.73487    0.42448    0.79574    1.000
    Cl70     Cl       0.67425    0.37938    0.80580    1.000
    N208     N        0.74803    0.39346    0.73833    1.000
    N209     N        0.71616    0.46288    0.84649    1.000
    N210     N        0.75507    0.34795    0.68347    1.000
    C139     C        0.72940    0.35979    0.71877    1.000
    H155     H        0.70220    0.34570    0.72760    1.000
    C140     C        0.68268    0.45923    0.87410    1.000
    H156     H        0.66130    0.43560    0.87450    1.000
    Cu71     Cu       0.51513    0.32552    0.29574    1.000
    Cl71     Cl       0.57575    0.37062    0.30580    1.000
    N211     N        0.50197    0.35654    0.23833    1.000
    N212     N        0.53384    0.28712    0.34649    1.000
    N213     N        0.49493    0.40205    0.18347    1.000
    C141     C        0.52060    0.39021    0.21877    1.000
    H157     H        0.54780    0.40430    0.22760    1.000
    C142     C        0.56732    0.29077    0.37410    1.000
    H158     H        0.58870    0.31440    0.37450    1.000
    Cu72     Cu       0.01513    0.92448    0.45426    1.000
    Cl72     Cl       0.07575    0.87938    0.44420    1.000
    N214     N        0.00197    0.89346    0.51167    1.000
    N215     N        0.03384    0.96288    0.40351    1.000
    N216     N        0.99493    0.84795    0.56653    1.000
    C143     C        0.02060    0.85979    0.53123    1.000
    H159     H        0.04780    0.84570    0.52240    1.000
    C144     C        0.06732    0.95923    0.37590    1.000
    H160     H        0.08870    0.93560    0.37550    1.000
    O17      O        0.02604    0.72396    0.72396    1.000
    H161     H        0.00970    0.74030    0.74030    1.000
    O18      O        0.22396    0.02604    0.22396    1.000
    H162     H        0.24030    0.00970    0.24030    1.000
    O19      O        0.52604    0.52604    0.02604    1.000
    H163     H        0.50970    0.50970    0.00970    1.000
    O20      O        0.72396    0.22396    0.52604    1.000
    H164     H        0.74030    0.24030    0.50970    1.000
    O21      O        0.27604    0.77604    0.97396    1.000
    H165     H        0.25970    0.75970    0.99030    1.000
    O22      O        0.77604    0.47396    0.77604    1.000
    H166     H        0.75970    0.49030    0.75970    1.000
    O23      O        0.47396    0.27604    0.27604    1.000
    H167     H        0.49030    0.25970    0.25970    1.000
    O24      O        0.97396    0.97396    0.47396    1.000
    H168     H        0.99030    0.99030    0.49030    1.000
    Cu73     Cu       0.54574    0.07552    0.48487    1.000
    Cl73     Cl       0.55580    0.12062    0.42425    1.000
    N217     N        0.48833    0.10654    0.49803    1.000
    N218     N        0.59649    0.03712    0.46616    1.000
    N219     N        0.43347    0.15205    0.50507    1.000
    C145     C        0.46877    0.14021    0.47940    1.000
    H169     H        0.47760    0.15430    0.45220    1.000
    C146     C        0.62410    0.04077    0.43268    1.000
    H170     H        0.62450    0.06440    0.41130    1.000
    Cu74     Cu       0.70426    0.67448    0.98487    1.000
    Cl74     Cl       0.69420    0.62938    0.92425    1.000
    N220     N        0.76167    0.64346    0.99803    1.000
    N221     N        0.65351    0.71288    0.96616    1.000
    N222     N        0.81653    0.59795    0.00507    1.000
    C147     C        0.78123    0.60979    0.97940    1.000
    H171     H        0.77240    0.59570    0.95220    1.000
    C148     C        0.62590    0.70923    0.93268    1.000
    H172     H        0.62550    0.68560    0.91130    1.000
    Cu75     Cu       0.20426    0.57552    0.76513    1.000
    Cl75     Cl       0.19420    0.62062    0.82575    1.000
    N223     N        0.26167    0.60654    0.75197    1.000
    N224     N        0.15351    0.53712    0.78384    1.000
    N225     N        0.31653    0.65205    0.74493    1.000
    C149     C        0.28123    0.64021    0.77060    1.000
    H173     H        0.27240    0.65430    0.79780    1.000
    C150     C        0.12590    0.54077    0.81732    1.000
    H174     H        0.12550    0.56440    0.83870    1.000
    Cu76     Cu       0.04574    0.17448    0.26513    1.000
    Cl76     Cl       0.05580    0.12938    0.32575    1.000
    N226     N        0.98833    0.14346    0.25197    1.000
    N227     N        0.09649    0.21288    0.28384    1.000
    N228     N        0.93347    0.09795    0.24493    1.000
    C151     C        0.96877    0.10979    0.27060    1.000
    H175     H        0.97760    0.09570    0.29780    1.000
    C152     C        0.12410    0.20923    0.31732    1.000
    H176     H        0.12450    0.18560    0.33870    1.000
    Cu77     Cu       0.48487    0.04574    0.57552    1.000
    Cl77     Cl       0.42425    0.05580    0.62062    1.000
    N229     N        0.49803    0.98833    0.60654    1.000
    N230     N        0.46616    0.09649    0.53712    1.000
    N231     N        0.50507    0.93347    0.65205    1.000
    C153     C        0.47940    0.96877    0.64021    1.000
    H177     H        0.45220    0.97760    0.65430    1.000
    C154     C        0.43268    0.12410    0.54077    1.000
    H178     H        0.41130    0.12450    0.56440    1.000
    Cu78     Cu       0.98487    0.20426    0.17448    1.000
    Cl78     Cl       0.92425    0.19420    0.12938    1.000
    N232     N        0.99803    0.26167    0.14346    1.000
    N233     N        0.96616    0.15351    0.21288    1.000
    N234     N        0.00507    0.31653    0.09795    1.000
    C155     C        0.97940    0.28123    0.10979    1.000
    H179     H        0.95220    0.27240    0.09570    1.000
    C156     C        0.93268    0.12590    0.20923    1.000
    H180     H        0.91130    0.12550    0.18560    1.000
    Cu79     Cu       0.76513    0.70426    0.07552    1.000
    Cl79     Cl       0.82575    0.69420    0.12062    1.000
    N235     N        0.75197    0.76167    0.10654    1.000
    N236     N        0.78384    0.65351    0.03712    1.000
    N237     N        0.74493    0.81653    0.15205    1.000
    C157     C        0.77060    0.78123    0.14021    1.000
    H181     H        0.79780    0.77240    0.15430    1.000
    C158     C        0.81732    0.62590    0.04077    1.000
    H182     H        0.83870    0.62550    0.06440    1.000
    Cu80     Cu       0.26513    0.54574    0.67448    1.000
    Cl80     Cl       0.32575    0.55580    0.62938    1.000
    N238     N        0.25197    0.48833    0.64346    1.000
    N239     N        0.28384    0.59649    0.71288    1.000
    N240     N        0.24493    0.43347    0.59795    1.000
    C159     C        0.27060    0.46877    0.60979    1.000
    H183     H        0.29780    0.47760    0.59570    1.000
    C160     C        0.31732    0.62410    0.70923    1.000
    H184     H        0.33870    0.62450    0.68560    1.000
    Cu81     Cu       0.57552    0.98487    0.54574    1.000
    Cl81     Cl       0.62062    0.92425    0.55580    1.000
    N241     N        0.60654    0.99803    0.48833    1.000
    N242     N        0.53712    0.96616    0.59649    1.000
    N243     N        0.65205    0.00507    0.43347    1.000
    C161     C        0.64021    0.97940    0.46877    1.000
    H185     H        0.65430    0.95220    0.47760    1.000
    C162     C        0.54077    0.93268    0.62410    1.000
    H186     H        0.56440    0.91130    0.62450    1.000
    Cu82     Cu       0.17448    0.48487    0.70426    1.000
    Cl82     Cl       0.12938    0.42425    0.69420    1.000
    N244     N        0.14346    0.49803    0.76167    1.000
    N245     N        0.21288    0.46616    0.65351    1.000
    N246     N        0.09795    0.50507    0.81653    1.000
    C163     C        0.10979    0.47940    0.78123    1.000
    H187     H        0.09570    0.45220    0.77240    1.000
    C164     C        0.20923    0.43268    0.62590    1.000
    H188     H        0.18560    0.41130    0.62550    1.000
    Cu83     Cu       0.07552    0.26513    0.20426    1.000
    Cl83     Cl       0.12062    0.32575    0.19420    1.000
    N247     N        0.10654    0.25197    0.26167    1.000
    N248     N        0.03712    0.28384    0.15351    1.000
    N249     N        0.15205    0.24493    0.31653    1.000
    C165     C        0.14021    0.27060    0.28123    1.000
    H189     H        0.15430    0.29780    0.27240    1.000
    C166     C        0.04077    0.31732    0.12590    1.000
    H190     H        0.06440    0.33870    0.12550    1.000
    Cu84     Cu       0.67448    0.76513    0.04574    1.000
    Cl84     Cl       0.62938    0.82575    0.05580    1.000
    N250     N        0.64346    0.75197    0.98833    1.000
    N251     N        0.71288    0.78384    0.09649    1.000
    N252     N        0.59795    0.74493    0.93347    1.000
    C167     C        0.60979    0.77060    0.96877    1.000
    H191     H        0.59570    0.79780    0.97760    1.000
    C168     C        0.70923    0.81732    0.12410    1.000
    H192     H        0.68560    0.83870    0.12450    1.000
    Cu85     Cu       0.32552    0.29574    0.51513    1.000
    Cl85     Cl       0.37062    0.30580    0.57575    1.000
    N253     N        0.35654    0.23833    0.50197    1.000
    N254     N        0.28712    0.34649    0.53384    1.000
    N255     N        0.40205    0.18347    0.49493    1.000
    C169     C        0.39021    0.21877    0.52060    1.000
    H193     H        0.40430    0.22760    0.54780    1.000
    C170     C        0.29077    0.37410    0.56732    1.000
    H194     H        0.31440    0.37450    0.58870    1.000
    Cu86     Cu       0.92448    0.45426    0.01513    1.000
    Cl86     Cl       0.87938    0.44420    0.07575    1.000
    N256     N        0.89346    0.51167    0.00197    1.000
    N257     N        0.96288    0.40351    0.03384    1.000
    N258     N        0.84795    0.56653    0.99493    1.000
    C171     C        0.85979    0.53123    0.02060    1.000
    H195     H        0.84570    0.52240    0.04780    1.000
    C172     C        0.95923    0.37590    0.06732    1.000
    H196     H        0.93560    0.37550    0.08870    1.000
    Cu87     Cu       0.82552    0.95426    0.23487    1.000
    Cl87     Cl       0.87062    0.94420    0.17425    1.000
    N259     N        0.85654    0.01167    0.24803    1.000
    N260     N        0.78712    0.90351    0.21616    1.000
    N261     N        0.90205    0.06653    0.25507    1.000
    C173     C        0.89021    0.03123    0.22940    1.000
    H197     H        0.90430    0.02240    0.20220    1.000
    C174     C        0.79077    0.87590    0.18268    1.000
    H198     H        0.81440    0.87550    0.16130    1.000
    Cu88     Cu       0.42448    0.79574    0.73487    1.000
    Cl88     Cl       0.37938    0.80580    0.67425    1.000
    N262     N        0.39346    0.73833    0.74803    1.000
    N263     N        0.46288    0.84649    0.71616    1.000
    N264     N        0.34795    0.68347    0.75507    1.000
    C175     C        0.35979    0.71877    0.72940    1.000
    H199     H        0.34570    0.72760    0.70220    1.000
    C176     C        0.45923    0.87410    0.68268    1.000
    H200     H        0.43560    0.87450    0.66130    1.000
    Cu89     Cu       0.29574    0.23487    0.42448    1.000
    Cl89     Cl       0.30580    0.17425    0.37938    1.000
    N265     N        0.23833    0.24803    0.39346    1.000
    N266     N        0.34649    0.21616    0.46288    1.000
    N267     N        0.18347    0.25507    0.34795    1.000
    C177     C        0.21877    0.22940    0.35979    1.000
    H201     H        0.22760    0.20220    0.34570    1.000
    C178     C        0.37410    0.18268    0.45923    1.000
    H202     H        0.37450    0.16130    0.43560    1.000
    Cu90     Cu       0.45426    0.73487    0.82552    1.000
    Cl90     Cl       0.44420    0.67425    0.87062    1.000
    N268     N        0.51167    0.74803    0.85654    1.000
    N269     N        0.40351    0.71616    0.78712    1.000
    N270     N        0.56653    0.75507    0.90205    1.000
    C179     C        0.53123    0.72940    0.89021    1.000
    H203     H        0.52240    0.70220    0.90430    1.000
    C180     C        0.37590    0.68268    0.79077    1.000
    H204     H        0.37550    0.66130    0.81440    1.000
    Cu91     Cu       0.95426    0.51513    0.92448    1.000
    Cl91     Cl       0.94420    0.57575    0.87938    1.000
    N271     N        0.01167    0.50197    0.89346    1.000
    N272     N        0.90351    0.53384    0.96288    1.000
    N273     N        0.06653    0.49493    0.84795    1.000
    C181     C        0.03123    0.52060    0.85979    1.000
    H205     H        0.02240    0.54780    0.84570    1.000
    C182     C        0.87590    0.56732    0.95923    1.000
    H206     H        0.87550    0.58870    0.93560    1.000
    Cu92     Cu       0.79574    0.01513    0.32552    1.000
    Cl92     Cl       0.80580    0.07575    0.37062    1.000
    N274     N        0.73833    0.00197    0.35654    1.000
    N275     N        0.84649    0.03384    0.28712    1.000
    N276     N        0.68347    0.99493    0.40205    1.000
    C183     C        0.71877    0.02060    0.39021    1.000
    H207     H        0.72760    0.04780    0.40430    1.000
    C184     C        0.87410    0.06732    0.29077    1.000
    H208     H        0.87450    0.08870    0.31440    1.000
    Cu93     Cu       0.23487    0.32552    0.45426    1.000
    Cl93     Cl       0.17425    0.37062    0.44420    1.000
    N277     N        0.24803    0.35654    0.51167    1.000
    N278     N        0.21616    0.28712    0.40351    1.000
    N279     N        0.25507    0.40205    0.56653    1.000
    C185     C        0.22940    0.39021    0.53123    1.000
    H209     H        0.20220    0.40430    0.52240    1.000
    C186     C        0.18268    0.29077    0.37590    1.000
    H210     H        0.16130    0.31440    0.37550    1.000
    Cu94     Cu       0.73487    0.92448    0.29574    1.000
    Cl94     Cl       0.67425    0.87938    0.30580    1.000
    N280     N        0.74803    0.89346    0.23833    1.000
    N281     N        0.71616    0.96288    0.34649    1.000
    N282     N        0.75507    0.84795    0.18347    1.000
    C187     C        0.72940    0.85979    0.21877    1.000
    H211     H        0.70220    0.84570    0.22760    1.000
    C188     C        0.68268    0.95923    0.37410    1.000
    H212     H        0.66130    0.93560    0.37450    1.000
    Cu95     Cu       0.51513    0.82552    0.79574    1.000
    Cl95     Cl       0.57575    0.87062    0.80580    1.000
    N283     N        0.50197    0.85654    0.73833    1.000
    N284     N        0.53384    0.78712    0.84649    1.000
    N285     N        0.49493    0.90205    0.68347    1.000
    C189     C        0.52060    0.89021    0.71877    1.000
    H213     H        0.54780    0.90430    0.72760    1.000
    C190     C        0.56732    0.79077    0.87410    1.000
    H214     H        0.58870    0.81440    0.87450    1.000
    Cu96     Cu       0.01513    0.42448    0.95426    1.000
    Cl96     Cl       0.07575    0.37938    0.94420    1.000
    N286     N        0.00197    0.39346    0.01167    1.000
    N287     N        0.03384    0.46288    0.90351    1.000
    N288     N        0.99493    0.34795    0.06653    1.000
    C191     C        0.02060    0.35979    0.03123    1.000
    H215     H        0.04780    0.34570    0.02240    1.000
    C192     C        0.06732    0.45923    0.87590    1.000
    H216     H        0.08870    0.43560    0.87550    1.000
    O25      O        0.02604    0.22396    0.22396    1.000
    H217     H        0.00970    0.24030    0.24030    1.000
    O26      O        0.52604    0.02604    0.52604    1.000
    H218     H        0.50970    0.00970    0.50970    1.000
    O27      O        0.72396    0.72396    0.02604    1.000
    H219     H        0.74030    0.74030    0.00970    1.000
    O28      O        0.22396    0.52604    0.72396    1.000
    H220     H        0.24030    0.50970    0.74030    1.000
    O29      O        0.27604    0.27604    0.47396    1.000
    H221     H        0.25970    0.25970    0.49030    1.000
    O30      O        0.97396    0.47396    0.97396    1.000
    H222     H        0.99030    0.49030    0.99030    1.000
    O31      O        0.77604    0.97396    0.27604    1.000
    H223     H        0.75970    0.99030    0.25970    1.000
    O32      O        0.47396    0.77604    0.77604    1.000
    H224     H        0.49030    0.75970    0.75970    1.000
    Cu97     Cu       0.95426    0.42448    0.51513    1.000
    Cl97     Cl       0.94420    0.37938    0.57575    1.000
    N289     N        0.01167    0.39346    0.50197    1.000
    N290     N        0.90351    0.46288    0.53384    1.000
    N291     N        0.06653    0.34795    0.49493    1.000
    C193     C        0.03123    0.35979    0.52060    1.000
    H225     H        0.02240    0.34570    0.54780    1.000
    C194     C        0.87590    0.45923    0.56732    1.000
    H226     H        0.87550    0.43560    0.58870    1.000
    Cu98     Cu       0.79574    0.82552    0.01513    1.000
    Cl98     Cl       0.80580    0.87062    0.07575    1.000
    N292     N        0.73833    0.85654    0.00197    1.000
    N293     N        0.84649    0.78712    0.03384    1.000
    N294     N        0.68347    0.90205    0.99493    1.000
    C195     C        0.71877    0.89021    0.02060    1.000
    H227     H        0.72760    0.90430    0.04780    1.000
    C196     C        0.87410    0.79077    0.06732    1.000
    H228     H        0.87450    0.81440    0.08870    1.000
    Cu99     Cu       0.29574    0.92448    0.23487    1.000
    Cl99     Cl       0.30580    0.87938    0.17425    1.000
    N295     N        0.23833    0.89346    0.24803    1.000
    N296     N        0.34649    0.96288    0.21616    1.000
    N297     N        0.18347    0.84795    0.25507    1.000
    C197     C        0.21877    0.85979    0.22940    1.000
    H229     H        0.22760    0.84570    0.20220    1.000
    C198     C        0.37410    0.95923    0.18268    1.000
    H230     H        0.37450    0.93560    0.16130    1.000
    Cu100    Cu       0.45426    0.32552    0.73487    1.000
    Cl100    Cl       0.44420    0.37062    0.67425    1.000
    N298     N        0.51167    0.35654    0.74803    1.000
    N299     N        0.40351    0.28712    0.71616    1.000
    N300     N        0.56653    0.40205    0.75507    1.000
    C199     C        0.53123    0.39021    0.72940    1.000
    H231     H        0.52240    0.40430    0.70220    1.000
    C200     C        0.37590    0.29077    0.68268    1.000
    H232     H        0.37550    0.31440    0.66130    1.000
    Cu101    Cu       0.01513    0.45426    0.42448    1.000
    Cl101    Cl       0.07575    0.44420    0.37938    1.000
    N301     N        0.00197    0.51167    0.39346    1.000
    N302     N        0.03384    0.40351    0.46288    1.000
    N303     N        0.99493    0.56653    0.34795    1.000
    C201     C        0.02060    0.53123    0.35979    1.000
    H233     H        0.04780    0.52240    0.34570    1.000
    C202     C        0.06732    0.37590    0.45923    1.000
    H234     H        0.08870    0.37550    0.43560    1.000
    Cu102    Cu       0.51513    0.29574    0.82552    1.000
    Cl102    Cl       0.57575    0.30580    0.87062    1.000
    N304     N        0.50197    0.23833    0.85654    1.000
    N305     N        0.53384    0.34649    0.78712    1.000
    N306     N        0.49493    0.18347    0.90205    1.000
    C203     C        0.52060    0.21877    0.89021    1.000
    H235     H        0.54780    0.22760    0.90430    1.000
    C204     C        0.56732    0.37410    0.79077    1.000
    H236     H        0.58870    0.37450    0.81440    1.000
    Cu103    Cu       0.73487    0.79574    0.92448    1.000
    Cl103    Cl       0.67425    0.80580    0.87938    1.000
    N307     N        0.74803    0.73833    0.89346    1.000
    N308     N        0.71616    0.84649    0.96288    1.000
    N309     N        0.75507    0.68347    0.84795    1.000
    C205     C        0.72940    0.71877    0.85979    1.000
    H237     H        0.70220    0.72760    0.84570    1.000
    C206     C        0.68268    0.87410    0.95923    1.000
    H238     H        0.66130    0.87450    0.93560    1.000
    Cu104    Cu       0.23487    0.95426    0.32552    1.000
    Cl104    Cl       0.17425    0.94420    0.37062    1.000
    N310     N        0.24803    0.01167    0.35654    1.000
    N311     N        0.21616    0.90351    0.28712    1.000
    N312     N        0.25507    0.06653    0.40205    1.000
    C207     C        0.22940    0.03123    0.39021    1.000
    H239     H        0.20220    0.02240    0.40430    1.000
    C208     C        0.18268    0.87590    0.29077    1.000
    H240     H        0.16130    0.87550    0.31440    1.000
    Cu105    Cu       0.92448    0.51513    0.45426    1.000
    Cl105    Cl       0.87938    0.57575    0.44420    1.000
    N313     N        0.89346    0.50197    0.51167    1.000
    N314     N        0.96288    0.53384    0.40351    1.000
    N315     N        0.84795    0.49493    0.56653    1.000
    C209     C        0.85979    0.52060    0.53123    1.000
    H241     H        0.84570    0.54780    0.52240    1.000
    C210     C        0.95923    0.56732    0.37590    1.000
    H242     H        0.93560    0.58870    0.37550    1.000
    Cu106    Cu       0.32552    0.01513    0.29574    1.000
    Cl106    Cl       0.37062    0.07575    0.30580    1.000
    N316     N        0.35654    0.00197    0.23833    1.000
    N317     N        0.28712    0.03384    0.34649    1.000
    N318     N        0.40205    0.99493    0.18347    1.000
    C211     C        0.39021    0.02060    0.21877    1.000
    H243     H        0.40430    0.04780    0.22760    1.000
    C212     C        0.29077    0.06732    0.37410    1.000
    H244     H        0.31440    0.08870    0.37450    1.000
    Cu107    Cu       0.42448    0.23487    0.79574    1.000
    Cl107    Cl       0.37938    0.17425    0.80580    1.000
    N319     N        0.39346    0.24803    0.73833    1.000
    N320     N        0.46288    0.21616    0.84649    1.000
    N321     N        0.34795    0.25507    0.68347    1.000
    C213     C        0.35979    0.22940    0.71877    1.000
    H245     H        0.34570    0.20220    0.72760    1.000
    C214     C        0.45923    0.18268    0.87410    1.000
    H246     H        0.43560    0.16130    0.87450    1.000
    Cu108    Cu       0.82552    0.73487    0.95426    1.000
    Cl108    Cl       0.87062    0.67425    0.94420    1.000
    N322     N        0.85654    0.74803    0.01167    1.000
    N323     N        0.78712    0.71616    0.90351    1.000
    N324     N        0.90205    0.75507    0.06653    1.000
    C215     C        0.89021    0.72940    0.03123    1.000
    H247     H        0.90430    0.70220    0.02240    1.000
    C216     C        0.79077    0.68268    0.87590    1.000
    H248     H        0.81440    0.66130    0.87550    1.000
    Cu109    Cu       0.17448    0.20426    0.48487    1.000
    Cl109    Cl       0.12938    0.19420    0.42425    1.000
    N325     N        0.14346    0.26167    0.49803    1.000
    N326     N        0.21288    0.15351    0.46616    1.000
    N327     N        0.09795    0.31653    0.50507    1.000
    C217     C        0.10979    0.28123    0.47940    1.000
    H249     H        0.09570    0.27240    0.45220    1.000
    C218     C        0.20923    0.12590    0.43268    1.000
    H250     H        0.18560    0.12550    0.41130    1.000
    Cu110    Cu       0.57552    0.04574    0.98487    1.000
    Cl110    Cl       0.62062    0.05580    0.92425    1.000
    N328     N        0.60654    0.98833    0.99803    1.000
    N329     N        0.53712    0.09649    0.96616    1.000
    N330     N        0.65205    0.93347    0.00507    1.000
    C219     C        0.64021    0.96877    0.97940    1.000
    H251     H        0.65430    0.97760    0.95220    1.000
    C220     C        0.54077    0.12410    0.93268    1.000
    H252     H        0.56440    0.12450    0.91130    1.000
    Cu111    Cu       0.67448    0.54574    0.76513    1.000
    Cl111    Cl       0.62938    0.55580    0.82575    1.000
    N331     N        0.64346    0.48833    0.75197    1.000
    N332     N        0.71288    0.59649    0.78384    1.000
    N333     N        0.59795    0.43347    0.74493    1.000
    C221     C        0.60979    0.46877    0.77060    1.000
    H253     H        0.59570    0.47760    0.79780    1.000
    C222     C        0.70923    0.62410    0.81732    1.000
    H254     H        0.68560    0.62450    0.83870    1.000
    Cu112    Cu       0.07552    0.70426    0.26513    1.000
    Cl112    Cl       0.12062    0.69420    0.32575    1.000
    N334     N        0.10654    0.76167    0.25197    1.000
    N335     N        0.03712    0.65351    0.28384    1.000
    N336     N        0.15205    0.81653    0.24493    1.000
    C223     C        0.14021    0.78123    0.27060    1.000
    H255     H        0.15430    0.77240    0.29780    1.000
    C224     C        0.04077    0.62590    0.31732    1.000
    H256     H        0.06440    0.62550    0.33870    1.000
    Cu113    Cu       0.20426    0.26513    0.57552    1.000
    Cl113    Cl       0.19420    0.32575    0.62062    1.000
    N337     N        0.26167    0.25197    0.60654    1.000
    N338     N        0.15351    0.28384    0.53712    1.000
    N339     N        0.31653    0.24493    0.65205    1.000
    C225     C        0.28123    0.27060    0.64021    1.000
    H257     H        0.27240    0.29780    0.65430    1.000
    C226     C        0.12590    0.31732    0.54077    1.000
    H258     H        0.12550    0.33870    0.56440    1.000
    Cu114    Cu       0.04574    0.76513    0.17448    1.000
    Cl114    Cl       0.05580    0.82575    0.12938    1.000
    N340     N        0.98833    0.75197    0.14346    1.000
    N341     N        0.09649    0.78384    0.21288    1.000
    N342     N        0.93347    0.74493    0.09795    1.000
    C227     C        0.96877    0.77060    0.10979    1.000
    H259     H        0.97760    0.79780    0.09570    1.000
    C228     C        0.12410    0.81732    0.20923    1.000
    H260     H        0.12450    0.83870    0.18560    1.000
    Cu115    Cu       0.54574    0.98487    0.07552    1.000
    Cl115    Cl       0.55580    0.92425    0.12062    1.000
    N343     N        0.48833    0.99803    0.10654    1.000
    N344     N        0.59649    0.96616    0.03712    1.000
    N345     N        0.43347    0.00507    0.15205    1.000
    C229     C        0.46877    0.97940    0.14021    1.000
    H261     H        0.47760    0.95220    0.15430    1.000
    C230     C        0.62410    0.93268    0.04077    1.000
    H262     H        0.62450    0.91130    0.06440    1.000
    Cu116    Cu       0.70426    0.48487    0.67448    1.000
    Cl116    Cl       0.69420    0.42425    0.62938    1.000
    N346     N        0.76167    0.49803    0.64346    1.000
    N347     N        0.65351    0.46616    0.71288    1.000
    N348     N        0.81653    0.50507    0.59795    1.000
    C231     C        0.78123    0.47940    0.60979    1.000
    H263     H        0.77240    0.45220    0.59570    1.000
    C232     C        0.62590    0.43268    0.70923    1.000
    H264     H        0.62550    0.41130    0.68560    1.000
    Cu117    Cu       0.26513    0.17448    0.54574    1.000
    Cl117    Cl       0.32575    0.12938    0.55580    1.000
    N349     N        0.25197    0.14346    0.48833    1.000
    N350     N        0.28384    0.21288    0.59649    1.000
    N351     N        0.24493    0.09795    0.43347    1.000
    C233     C        0.27060    0.10979    0.46877    1.000
    H265     H        0.29780    0.09570    0.47760    1.000
    C234     C        0.31732    0.20923    0.62410    1.000
    H266     H        0.33870    0.18560    0.62450    1.000
    Cu118    Cu       0.76513    0.57552    0.70426    1.000
    Cl118    Cl       0.82575    0.62062    0.69420    1.000
    N352     N        0.75197    0.60654    0.76167    1.000
    N353     N        0.78384    0.53712    0.65351    1.000
    N354     N        0.74493    0.65205    0.81653    1.000
    C235     C        0.77060    0.64021    0.78123    1.000
    H267     H        0.79780    0.65430    0.77240    1.000
    C236     C        0.81732    0.54077    0.62590    1.000
    H268     H        0.83870    0.56440    0.62550    1.000
    Cu119    Cu       0.98487    0.67448    0.20426    1.000
    Cl119    Cl       0.92425    0.62938    0.19420    1.000
    N355     N        0.99803    0.64346    0.26167    1.000
    N356     N        0.96616    0.71288    0.15351    1.000
    N357     N        0.00507    0.59795    0.31653    1.000
    C237     C        0.97940    0.60979    0.28123    1.000
    H269     H        0.95220    0.59570    0.27240    1.000
    C238     C        0.93268    0.70923    0.12590    1.000
    H270     H        0.91130    0.68560    0.12550    1.000
    Cu120    Cu       0.48487    0.07552    0.04574    1.000
    Cl120    Cl       0.42425    0.12062    0.05580    1.000
    N358     N        0.49803    0.10654    0.98833    1.000
    N359     N        0.46616    0.03712    0.09649    1.000
    N360     N        0.50507    0.15205    0.93347    1.000
    C239     C        0.47940    0.14021    0.96877    1.000
    H271     H        0.45220    0.15430    0.97760    1.000
    C240     C        0.43268    0.04077    0.12410    1.000
    H272     H        0.41130    0.06440    0.12450    1.000
    O33      O        0.97396    0.47396    0.47396    1.000
    H273     H        0.99030    0.49030    0.49030    1.000
    O34      O        0.77604    0.77604    0.97396    1.000
    H274     H        0.75970    0.75970    0.99030    1.000
    O35      O        0.27604    0.97396    0.27604    1.000
    H275     H        0.25970    0.99030    0.25970    1.000
    O36      O        0.47396    0.27604    0.77604    1.000
    H276     H        0.49030    0.25970    0.75970    1.000
    O37      O        0.72396    0.52604    0.72396    1.000
    H277     H        0.74030    0.50970    0.74030    1.000
    O38      O        0.22396    0.22396    0.52604    1.000
    H278     H        0.24030    0.24030    0.50970    1.000
    O39      O        0.02604    0.72396    0.22396    1.000
    H279     H        0.00970    0.74030    0.24030    1.000
    O40      O        0.52604    0.02604    0.02604    1.000
    H280     H        0.50970    0.00970    0.00970    1.000
    Cu121    Cu       0.95426    0.92448    0.01513    1.000
    Cl121    Cl       0.94420    0.87938    0.07575    1.000
    N361     N        0.01167    0.89346    0.00197    1.000
    N362     N        0.90351    0.96288    0.03384    1.000
    N363     N        0.06653    0.84795    0.99493    1.000
    C241     C        0.03123    0.85979    0.02060    1.000
    H281     H        0.02240    0.84570    0.04780    1.000
    C242     C        0.87590    0.95923    0.06732    1.000
    H282     H        0.87550    0.93560    0.08870    1.000
    Cu122    Cu       0.79574    0.32552    0.51513    1.000
    Cl122    Cl       0.80580    0.37062    0.57575    1.000
    N364     N        0.73833    0.35654    0.50197    1.000
    N365     N        0.84649    0.28712    0.53384    1.000
    N366     N        0.68347    0.40205    0.49493    1.000
    C243     C        0.71877    0.39021    0.52060    1.000
    H283     H        0.72760    0.40430    0.54780    1.000
    C244     C        0.87410    0.29077    0.56732    1.000
    H284     H        0.87450    0.31440    0.58870    1.000
    Cu123    Cu       0.29574    0.42448    0.73487    1.000
    Cl123    Cl       0.30580    0.37938    0.67425    1.000
    N367     N        0.23833    0.39346    0.74803    1.000
    N368     N        0.34649    0.46288    0.71616    1.000
    N369     N        0.18347    0.34795    0.75507    1.000
    C245     C        0.21877    0.35979    0.72940    1.000
    H285     H        0.22760    0.34570    0.70220    1.000
    C246     C        0.37410    0.45923    0.68268    1.000
    H286     H        0.37450    0.43560    0.66130    1.000
    Cu124    Cu       0.45426    0.82552    0.23487    1.000
    Cl124    Cl       0.44420    0.87062    0.17425    1.000
    N370     N        0.51167    0.85654    0.24803    1.000
    N371     N        0.40351    0.78712    0.21616    1.000
    N372     N        0.56653    0.90205    0.25507    1.000
    C247     C        0.53123    0.89021    0.22940    1.000
    H287     H        0.52240    0.90430    0.20220    1.000
    C248     C        0.37590    0.79077    0.18268    1.000
    H288     H        0.37550    0.81440    0.16130    1.000
    Cu125    Cu       0.01513    0.95426    0.92448    1.000
    Cl125    Cl       0.07575    0.94420    0.87938    1.000
    N373     N        0.00197    0.01167    0.89346    1.000
    N374     N        0.03384    0.90351    0.96288    1.000
    N375     N        0.99493    0.06653    0.84795    1.000
    C249     C        0.02060    0.03123    0.85979    1.000
    H289     H        0.04780    0.02240    0.84570    1.000
    C250     C        0.06732    0.87590    0.95923    1.000
    H290     H        0.08870    0.87550    0.93560    1.000
    Cu126    Cu       0.51513    0.79574    0.32552    1.000
    Cl126    Cl       0.57575    0.80580    0.37062    1.000
    N376     N        0.50197    0.73833    0.35654    1.000
    N377     N        0.53384    0.84649    0.28712    1.000
    N378     N        0.49493    0.68347    0.40205    1.000
    C251     C        0.52060    0.71877    0.39021    1.000
    H291     H        0.54780    0.72760    0.40430    1.000
    C252     C        0.56732    0.87410    0.29077    1.000
    H292     H        0.58870    0.87450    0.31440    1.000
    Cu127    Cu       0.73487    0.29574    0.42448    1.000
    Cl127    Cl       0.67425    0.30580    0.37938    1.000
    N379     N        0.74803    0.23833    0.39346    1.000
    N380     N        0.71616    0.34649    0.46288    1.000
    N381     N        0.75507    0.18347    0.34795    1.000
    C253     C        0.72940    0.21877    0.35979    1.000
    H293     H        0.70220    0.22760    0.34570    1.000
    C254     C        0.68268    0.37410    0.45923    1.000
    H294     H        0.66130    0.37450    0.43560    1.000
    Cu128    Cu       0.23487    0.45426    0.82552    1.000
    Cl128    Cl       0.17425    0.44420    0.87062    1.000
    N382     N        0.24803    0.51167    0.85654    1.000
    N383     N        0.21616    0.40351    0.78712    1.000
    N384     N        0.25507    0.56653    0.90205    1.000
    C255     C        0.22940    0.53123    0.89021    1.000
    H295     H        0.20220    0.52240    0.90430    1.000
    C256     C        0.18268    0.37590    0.79077    1.000
    H296     H        0.16130    0.37550    0.81440    1.000
    Cu129    Cu       0.92448    0.01513    0.95426    1.000
    Cl129    Cl       0.87938    0.07575    0.94420    1.000
    N385     N        0.89346    0.00197    0.01167    1.000
    N386     N        0.96288    0.03384    0.90351    1.000
    N387     N        0.84795    0.99493    0.06653    1.000
    C257     C        0.85979    0.02060    0.03123    1.000
    H297     H        0.84570    0.04780    0.02240    1.000
    C258     C        0.95923    0.06732    0.87590    1.000
    H298     H        0.93560    0.08870    0.87550    1.000
    Cu130    Cu       0.32552    0.51513    0.79574    1.000
    Cl130    Cl       0.37062    0.57575    0.80580    1.000
    N388     N        0.35654    0.50197    0.73833    1.000
    N389     N        0.28712    0.53384    0.84649    1.000
    N390     N        0.40205    0.49493    0.68347    1.000
    C259     C        0.39021    0.52060    0.71877    1.000
    H299     H        0.40430    0.54780    0.72760    1.000
    C260     C        0.29077    0.56732    0.87410    1.000
    H300     H        0.31440    0.58870    0.87450    1.000
    Cu131    Cu       0.42448    0.73487    0.29574    1.000
    Cl131    Cl       0.37938    0.67425    0.30580    1.000
    N391     N        0.39346    0.74803    0.23833    1.000
    N392     N        0.46288    0.71616    0.34649    1.000
    N393     N        0.34795    0.75507    0.18347    1.000
    C261     C        0.35979    0.72940    0.21877    1.000
    H301     H        0.34570    0.70220    0.22760    1.000
    C262     C        0.45923    0.68268    0.37410    1.000
    H302     H        0.43560    0.66130    0.37450    1.000
    Cu132    Cu       0.82552    0.23487    0.45426    1.000
    Cl132    Cl       0.87062    0.17425    0.44420    1.000
    N394     N        0.85654    0.24803    0.51167    1.000
    N395     N        0.78712    0.21616    0.40351    1.000
    N396     N        0.90205    0.25507    0.56653    1.000
    C263     C        0.89021    0.22940    0.53123    1.000
    H303     H        0.90430    0.20220    0.52240    1.000
    C264     C        0.79077    0.18268    0.37590    1.000
    H304     H        0.81440    0.16130    0.37550    1.000
    Cu133    Cu       0.17448    0.70426    0.98487    1.000
    Cl133    Cl       0.12938    0.69420    0.92425    1.000
    N397     N        0.14346    0.76167    0.99803    1.000
    N398     N        0.21288    0.65351    0.96616    1.000
    N399     N        0.09795    0.81653    0.00507    1.000
    C265     C        0.10979    0.78123    0.97940    1.000
    H305     H        0.09570    0.77240    0.95220    1.000
    C266     C        0.20923    0.62590    0.93268    1.000
    H306     H        0.18560    0.62550    0.91130    1.000
    Cu134    Cu       0.57552    0.54574    0.48487    1.000
    Cl134    Cl       0.62062    0.55580    0.42425    1.000
    N400     N        0.60654    0.48833    0.49803    1.000
    N401     N        0.53712    0.59649    0.46616    1.000
    N402     N        0.65205    0.43347    0.50507    1.000
    C267     C        0.64021    0.46877    0.47940    1.000
    H307     H        0.65430    0.47760    0.45220    1.000
    C268     C        0.54077    0.62410    0.43268    1.000
    H308     H        0.56440    0.62450    0.41130    1.000
    Cu135    Cu       0.67448    0.04574    0.26513    1.000
    Cl135    Cl       0.62938    0.05580    0.32575    1.000
    N403     N        0.64346    0.98833    0.25197    1.000
    N404     N        0.71288    0.09649    0.28384    1.000
    N405     N        0.59795    0.93347    0.24493    1.000
    C269     C        0.60979    0.96877    0.27060    1.000
    H309     H        0.59570    0.97760    0.29780    1.000
    C270     C        0.70923    0.12410    0.31732    1.000
    H310     H        0.68560    0.12450    0.33870    1.000
    Cu136    Cu       0.07552    0.20426    0.76513    1.000
    Cl136    Cl       0.12062    0.19420    0.82575    1.000
    N406     N        0.10654    0.26167    0.75197    1.000
    N407     N        0.03712    0.15351    0.78384    1.000
    N408     N        0.15205    0.31653    0.74493    1.000
    C271     C        0.14021    0.28123    0.77060    1.000
    H311     H        0.15430    0.27240    0.79780    1.000
    C272     C        0.04077    0.12590    0.81732    1.000
    H312     H        0.06440    0.12550    0.83870    1.000
    Cu137    Cu       0.20426    0.76513    0.07552    1.000
    Cl137    Cl       0.19420    0.82575    0.12062    1.000
    N409     N        0.26167    0.75197    0.10654    1.000
    N410     N        0.15351    0.78384    0.03712    1.000
    N411     N        0.31653    0.74493    0.15205    1.000
    C273     C        0.28123    0.77060    0.14021    1.000
    H313     H        0.27240    0.79780    0.15430    1.000
    C274     C        0.12590    0.81732    0.04077    1.000
    H314     H        0.12550    0.83870    0.06440    1.000
    Cu138    Cu       0.04574    0.26513    0.67448    1.000
    Cl138    Cl       0.05580    0.32575    0.62938    1.000
    N412     N        0.98833    0.25197    0.64346    1.000
    N413     N        0.09649    0.28384    0.71288    1.000
    N414     N        0.93347    0.24493    0.59795    1.000
    C275     C        0.96877    0.27060    0.60979    1.000
    H315     H        0.97760    0.29780    0.59570    1.000
    C276     C        0.12410    0.31732    0.70923    1.000
    H316     H        0.12450    0.33870    0.68560    1.000
    Cu139    Cu       0.54574    0.48487    0.57552    1.000
    Cl139    Cl       0.55580    0.42425    0.62062    1.000
    N415     N        0.48833    0.49803    0.60654    1.000
    N416     N        0.59649    0.46616    0.53712    1.000
    N417     N        0.43347    0.50507    0.65205    1.000
    C277     C        0.46877    0.47940    0.64021    1.000
    H317     H        0.47760    0.45220    0.65430    1.000
    C278     C        0.62410    0.43268    0.54077    1.000
    H318     H        0.62450    0.41130    0.56440    1.000
    Cu140    Cu       0.70426    0.98487    0.17448    1.000
    Cl140    Cl       0.69420    0.92425    0.12938    1.000
    N418     N        0.76167    0.99803    0.14346    1.000
    N419     N        0.65351    0.96616    0.21288    1.000
    N420     N        0.81653    0.00507    0.09795    1.000
    C279     C        0.78123    0.97940    0.10979    1.000
    H319     H        0.77240    0.95220    0.09570    1.000
    C280     C        0.62590    0.93268    0.20923    1.000
    H320     H        0.62550    0.91130    0.18560    1.000
    Cu141    Cu       0.26513    0.67448    0.04574    1.000
    Cl141    Cl       0.32575    0.62938    0.05580    1.000
    N421     N        0.25197    0.64346    0.98833    1.000
    N422     N        0.28384    0.71288    0.09649    1.000
    N423     N        0.24493    0.59795    0.93347    1.000
    C281     C        0.27060    0.60979    0.96877    1.000
    H321     H        0.29780    0.59570    0.97760    1.000
    C282     C        0.31732    0.70923    0.12410    1.000
    H322     H        0.33870    0.68560    0.12450    1.000
    Cu142    Cu       0.76513    0.07552    0.20426    1.000
    Cl142    Cl       0.82575    0.12062    0.19420    1.000
    N424     N        0.75197    0.10654    0.26167    1.000
    N425     N        0.78384    0.03712    0.15351    1.000
    N426     N        0.74493    0.15205    0.31653    1.000
    C283     C        0.77060    0.14021    0.28123    1.000
    H323     H        0.79780    0.15430    0.27240    1.000
    C284     C        0.81732    0.04077    0.12590    1.000
    H324     H        0.83870    0.06440    0.12550    1.000
    Cu143    Cu       0.98487    0.17448    0.70426    1.000
    Cl143    Cl       0.92425    0.12938    0.69420    1.000
    N427     N        0.99803    0.14346    0.76167    1.000
    N428     N        0.96616    0.21288    0.65351    1.000
    N429     N        0.00507    0.09795    0.81653    1.000
    C285     C        0.97940    0.10979    0.78123    1.000
    H325     H        0.95220    0.09570    0.77240    1.000
    C286     C        0.93268    0.20923    0.62590    1.000
    H326     H        0.91130    0.18560    0.62550    1.000
    Cu144    Cu       0.48487    0.57552    0.54574    1.000
    Cl144    Cl       0.42425    0.62062    0.55580    1.000
    N430     N        0.49803    0.60654    0.48833    1.000
    N431     N        0.46616    0.53712    0.59649    1.000
    N432     N        0.50507    0.65205    0.43347    1.000
    C287     C        0.47940    0.64021    0.46877    1.000
    H327     H        0.45220    0.65430    0.47760    1.000
    C288     C        0.43268    0.54077    0.62410    1.000
    H328     H        0.41130    0.56440    0.62450    1.000
    O41      O        0.97396    0.97396    0.97396    1.000
    H329     H        0.99030    0.99030    0.99030    1.000
    O42      O        0.77604    0.27604    0.47396    1.000
    H330     H        0.75970    0.25970    0.49030    1.000
    O43      O        0.27604    0.47396    0.77604    1.000
    H331     H        0.25970    0.49030    0.75970    1.000
    O44      O        0.47396    0.77604    0.27604    1.000
    H332     H        0.49030    0.75970    0.25970    1.000
    O45      O        0.22396    0.72396    0.02604    1.000
    H333     H        0.24030    0.74030    0.00970    1.000
    O46      O        0.02604    0.22396    0.72396    1.000
    H334     H        0.00970    0.24030    0.74030    1.000
    O47      O        0.52604    0.52604    0.52604    1.000
    H335     H        0.50970    0.50970    0.50970    1.000
    O48      O        0.72396    0.02604    0.22396    1.000
    H336     H        0.74030    0.00970    0.24030    1.000
    Cu145    Cu       0.45426    0.42448    0.01513    1.000
    Cl145    Cl       0.44420    0.37938    0.07575    1.000
    N433     N        0.51167    0.39346    0.00197    1.000
    N434     N        0.40351    0.46288    0.03384    1.000
    N435     N        0.56653    0.34795    0.99493    1.000
    C289     C        0.53123    0.35979    0.02060    1.000
    H337     H        0.52240    0.34570    0.04780    1.000
    C290     C        0.37590    0.45923    0.06732    1.000
    H338     H        0.37550    0.43560    0.08870    1.000
    Cu146    Cu       0.29574    0.82552    0.51513    1.000
    Cl146    Cl       0.30580    0.87062    0.57575    1.000
    N436     N        0.23833    0.85654    0.50197    1.000
    N437     N        0.34649    0.78712    0.53384    1.000
    N438     N        0.18347    0.90205    0.49493    1.000
    C291     C        0.21877    0.89021    0.52060    1.000
    H339     H        0.22760    0.90430    0.54780    1.000
    C292     C        0.37410    0.79077    0.56732    1.000
    H340     H        0.37450    0.81440    0.58870    1.000
    Cu147    Cu       0.79574    0.92448    0.73487    1.000
    Cl147    Cl       0.80580    0.87938    0.67425    1.000
    N439     N        0.73833    0.89346    0.74803    1.000
    N440     N        0.84649    0.96288    0.71616    1.000
    N441     N        0.68347    0.84795    0.75507    1.000
    C293     C        0.71877    0.85979    0.72940    1.000
    H341     H        0.72760    0.84570    0.70220    1.000
    C294     C        0.87410    0.95923    0.68268    1.000
    H342     H        0.87450    0.93560    0.66130    1.000
    Cu148    Cu       0.95426    0.32552    0.23487    1.000
    Cl148    Cl       0.94420    0.37062    0.17425    1.000
    N442     N        0.01167    0.35654    0.24803    1.000
    N443     N        0.90351    0.28712    0.21616    1.000
    N444     N        0.06653    0.40205    0.25507    1.000
    C295     C        0.03123    0.39021    0.22940    1.000
    H343     H        0.02240    0.40430    0.20220    1.000
    C296     C        0.87590    0.29077    0.18268    1.000
    H344     H        0.87550    0.31440    0.16130    1.000
    Cu149    Cu       0.51513    0.45426    0.92448    1.000
    Cl149    Cl       0.57575    0.44420    0.87938    1.000
    N445     N        0.50197    0.51167    0.89346    1.000
    N446     N        0.53384    0.40351    0.96288    1.000
    N447     N        0.49493    0.56653    0.84795    1.000
    C297     C        0.52060    0.53123    0.85979    1.000
    H345     H        0.54780    0.52240    0.84570    1.000
    C298     C        0.56732    0.37590    0.95923    1.000
    H346     H        0.58870    0.37550    0.93560    1.000
    Cu150    Cu       0.01513    0.29574    0.32552    1.000
    Cl150    Cl       0.07575    0.30580    0.37062    1.000
    N448     N        0.00197    0.23833    0.35654    1.000
    N449     N        0.03384    0.34649    0.28712    1.000
    N450     N        0.99493    0.18347    0.40205    1.000
    C299     C        0.02060    0.21877    0.39021    1.000
    H347     H        0.04780    0.22760    0.40430    1.000
    C300     C        0.06732    0.37410    0.29077    1.000
    H348     H        0.08870    0.37450    0.31440    1.000
    Cu151    Cu       0.23487    0.79574    0.42448    1.000
    Cl151    Cl       0.17425    0.80580    0.37938    1.000
    N451     N        0.24803    0.73833    0.39346    1.000
    N452     N        0.21616    0.84649    0.46288    1.000
    N453     N        0.25507    0.68347    0.34795    1.000
    C301     C        0.22940    0.71877    0.35979    1.000
    H349     H        0.20220    0.72760    0.34570    1.000
    C302     C        0.18268    0.87410    0.45923    1.000
    H350     H        0.16130    0.87450    0.43560    1.000
    Cu152    Cu       0.73487    0.95426    0.82552    1.000
    Cl152    Cl       0.67425    0.94420    0.87062    1.000
    N454     N        0.74803    0.01167    0.85654    1.000
    N455     N        0.71616    0.90351    0.78712    1.000
    N456     N        0.75507    0.06653    0.90205    1.000
    C303     C        0.72940    0.03123    0.89021    1.000
    H351     H        0.70220    0.02240    0.90430    1.000
    C304     C        0.68268    0.87590    0.79077    1.000
    H352     H        0.66130    0.87550    0.81440    1.000
    Cu153    Cu       0.42448    0.51513    0.95426    1.000
    Cl153    Cl       0.37938    0.57575    0.94420    1.000
    N457     N        0.39346    0.50197    0.01167    1.000
    N458     N        0.46288    0.53384    0.90351    1.000
    N459     N        0.34795    0.49493    0.06653    1.000
    C305     C        0.35979    0.52060    0.03123    1.000
    H353     H        0.34570    0.54780    0.02240    1.000
    C306     C        0.45923    0.56732    0.87590    1.000
    H354     H        0.43560    0.58870    0.87550    1.000
    Cu154    Cu       0.82552    0.01513    0.79574    1.000
    Cl154    Cl       0.87062    0.07575    0.80580    1.000
    N460     N        0.85654    0.00197    0.73833    1.000
    N461     N        0.78712    0.03384    0.84649    1.000
    N462     N        0.90205    0.99493    0.68347    1.000
    C307     C        0.89021    0.02060    0.71877    1.000
    H355     H        0.90430    0.04780    0.72760    1.000
    C308     C        0.79077    0.06732    0.87410    1.000
    H356     H        0.81440    0.08870    0.87450    1.000
    Cu155    Cu       0.92448    0.23487    0.29574    1.000
    Cl155    Cl       0.87938    0.17425    0.30580    1.000
    N463     N        0.89346    0.24803    0.23833    1.000
    N464     N        0.96288    0.21616    0.34649    1.000
    N465     N        0.84795    0.25507    0.18347    1.000
    C309     C        0.85979    0.22940    0.21877    1.000
    H357     H        0.84570    0.20220    0.22760    1.000
    C310     C        0.95923    0.18268    0.37410    1.000
    H358     H        0.93560    0.16130    0.37450    1.000
    Cu156    Cu       0.32552    0.73487    0.45426    1.000
    Cl156    Cl       0.37062    0.67425    0.44420    1.000
    N466     N        0.35654    0.74803    0.51167    1.000
    N467     N        0.28712    0.71616    0.40351    1.000
    N468     N        0.40205    0.75507    0.56653    1.000
    C311     C        0.39021    0.72940    0.53123    1.000
    H359     H        0.40430    0.70220    0.52240    1.000
    C312     C        0.29077    0.68268    0.37590    1.000
    H360     H        0.31440    0.66130    0.37550    1.000
    Cu157    Cu       0.67448    0.20426    0.98487    1.000
    Cl157    Cl       0.62938    0.19420    0.92425    1.000
    N469     N        0.64346    0.26167    0.99803    1.000
    N470     N        0.71288    0.15351    0.96616    1.000
    N471     N        0.59795    0.31653    0.00507    1.000
    C313     C        0.60979    0.28123    0.97940    1.000
    H361     H        0.59570    0.27240    0.95220    1.000
    C314     C        0.70923    0.12590    0.93268    1.000
    H362     H        0.68560    0.12550    0.91130    1.000
    Cu158    Cu       0.07552    0.04574    0.48487    1.000
    Cl158    Cl       0.12062    0.05580    0.42425    1.000
    N472     N        0.10654    0.98833    0.49803    1.000
    N473     N        0.03712    0.09649    0.46616    1.000
    N474     N        0.15205    0.93347    0.50507    1.000
    C315     C        0.14021    0.96877    0.47940    1.000
    H363     H        0.15430    0.97760    0.45220    1.000
    C316     C        0.04077    0.12410    0.43268    1.000
    H364     H        0.06440    0.12450    0.41130    1.000
    Cu159    Cu       0.17448    0.54574    0.26513    1.000
    Cl159    Cl       0.12938    0.55580    0.32575    1.000
    N475     N        0.14346    0.48833    0.25197    1.000
    N476     N        0.21288    0.59649    0.28384    1.000
    N477     N        0.09795    0.43347    0.24493    1.000
    C317     C        0.10979    0.46877    0.27060    1.000
    H365     H        0.09570    0.47760    0.29780    1.000
    C318     C        0.20923    0.62410    0.31732    1.000
    H366     H        0.18560    0.62450    0.33870    1.000
    Cu160    Cu       0.57552    0.70426    0.76513    1.000
    Cl160    Cl       0.62062    0.69420    0.82575    1.000
    N478     N        0.60654    0.76167    0.75197    1.000
    N479     N        0.53712    0.65351    0.78384    1.000
    N480     N        0.65205    0.81653    0.74493    1.000
    C319     C        0.64021    0.78123    0.77060    1.000
    H367     H        0.65430    0.77240    0.79780    1.000
    C320     C        0.54077    0.62590    0.81732    1.000
    H368     H        0.56440    0.62550    0.83870    1.000
    Cu161    Cu       0.70426    0.26513    0.07552    1.000
    Cl161    Cl       0.69420    0.32575    0.12062    1.000
    N481     N        0.76167    0.25197    0.10654    1.000
    N482     N        0.65351    0.28384    0.03712    1.000
    N483     N        0.81653    0.24493    0.15205    1.000
    C321     C        0.78123    0.27060    0.14021    1.000
    H369     H        0.77240    0.29780    0.15430    1.000
    C322     C        0.62590    0.31732    0.04077    1.000
    H370     H        0.62550    0.33870    0.06440    1.000
    Cu162    Cu       0.54574    0.76513    0.67448    1.000
    Cl162    Cl       0.55580    0.82575    0.62938    1.000
    N484     N        0.48833    0.75197    0.64346    1.000
    N485     N        0.59649    0.78384    0.71288    1.000
    N486     N        0.43347    0.74493    0.59795    1.000
    C323     C        0.46877    0.77060    0.60979    1.000
    H371     H        0.47760    0.79780    0.59570    1.000
    C324     C        0.62410    0.81732    0.70923    1.000
    H372     H        0.62450    0.83870    0.68560    1.000
    Cu163    Cu       0.04574    0.98487    0.57552    1.000
    Cl163    Cl       0.05580    0.92425    0.62062    1.000
    N487     N        0.98833    0.99803    0.60654    1.000
    N488     N        0.09649    0.96616    0.53712    1.000
    N489     N        0.93347    0.00507    0.65205    1.000
    C325     C        0.96877    0.97940    0.64021    1.000
    H373     H        0.97760    0.95220    0.65430    1.000
    C326     C        0.12410    0.93268    0.54077    1.000
    H374     H        0.12450    0.91130    0.56440    1.000
    Cu164    Cu       0.20426    0.48487    0.17448    1.000
    Cl164    Cl       0.19420    0.42425    0.12938    1.000
    N490     N        0.26167    0.49803    0.14346    1.000
    N491     N        0.15351    0.46616    0.21288    1.000
    N492     N        0.31653    0.50507    0.09795    1.000
    C327     C        0.28123    0.47940    0.10979    1.000
    H375     H        0.27240    0.45220    0.09570    1.000
    C328     C        0.12590    0.43268    0.20923    1.000
    H376     H        0.12550    0.41130    0.18560    1.000
    Cu165    Cu       0.76513    0.17448    0.04574    1.000
    Cl165    Cl       0.82575    0.12938    0.05580    1.000
    N493     N        0.75197    0.14346    0.98833    1.000
    N494     N        0.78384    0.21288    0.09649    1.000
    N495     N        0.74493    0.09795    0.93347    1.000
    C329     C        0.77060    0.10979    0.96877    1.000
    H377     H        0.79780    0.09570    0.97760    1.000
    C330     C        0.81732    0.20923    0.12410    1.000
    H378     H        0.83870    0.18560    0.12450    1.000
    Cu166    Cu       0.26513    0.57552    0.20426    1.000
    Cl166    Cl       0.32575    0.62062    0.19420    1.000
    N496     N        0.25197    0.60654    0.26167    1.000
    N497     N        0.28384    0.53712    0.15351    1.000
    N498     N        0.24493    0.65205    0.31653    1.000
    C331     C        0.27060    0.64021    0.28123    1.000
    H379     H        0.29780    0.65430    0.27240    1.000
    C332     C        0.31732    0.54077    0.12590    1.000
    H380     H        0.33870    0.56440    0.12550    1.000
    Cu167    Cu       0.48487    0.67448    0.70426    1.000
    Cl167    Cl       0.42425    0.62938    0.69420    1.000
    N499     N        0.49803    0.64346    0.76167    1.000
    N500     N        0.46616    0.71288    0.65351    1.000
    N501     N        0.50507    0.59795    0.81653    1.000
    C333     C        0.47940    0.60979    0.78123    1.000
    H381     H        0.45220    0.59570    0.77240    1.000
    C334     C        0.43268    0.70923    0.62590    1.000
    H382     H        0.41130    0.68560    0.62550    1.000
    Cu168    Cu       0.98487    0.07552    0.54574    1.000
    Cl168    Cl       0.92425    0.12062    0.55580    1.000
    N502     N        0.99803    0.10654    0.48833    1.000
    N503     N        0.96616    0.03712    0.59649    1.000
    N504     N        0.00507    0.15205    0.43347    1.000
    C335     C        0.97940    0.14021    0.46877    1.000
    H383     H        0.95220    0.15430    0.47760    1.000
    C336     C        0.93268    0.04077    0.62410    1.000
    H384     H        0.91130    0.06440    0.62450    1.000
    O49      O        0.27604    0.77604    0.47396    1.000
    H385     H        0.25970    0.75970    0.49030    1.000
    O50      O        0.47396    0.47396    0.97396    1.000
    H386     H        0.49030    0.49030    0.99030    1.000
    O51      O        0.77604    0.97396    0.77604    1.000
    H387     H        0.75970    0.99030    0.75970    1.000
    O52      O        0.97396    0.27604    0.27604    1.000
    H388     H        0.99030    0.25970    0.25970    1.000
    O53      O        0.22396    0.52604    0.22396    1.000
    H389     H        0.24030    0.50970    0.24030    1.000
    O54      O        0.52604    0.72396    0.72396    1.000
    H390     H        0.50970    0.74030    0.74030    1.000
    O55      O        0.72396    0.22396    0.02604    1.000
    H391     H        0.74030    0.24030    0.00970    1.000
    O56      O        0.02604    0.02604    0.52604    1.000
    H392     H        0.00970    0.00970    0.50970    1.000
    Cu169    Cu       0.45426    0.92448    0.51513    1.000
    Cl169    Cl       0.44420    0.87938    0.57575    1.000
    N505     N        0.51167    0.89346    0.50197    1.000
    N506     N        0.40351    0.96288    0.53384    1.000
    N507     N        0.56653    0.84795    0.49493    1.000
    C337     C        0.53123    0.85979    0.52060    1.000
    H393     H        0.52240    0.84570    0.54780    1.000
    C338     C        0.37590    0.95923    0.56732    1.000
    H394     H        0.37550    0.93560    0.58870    1.000
    Cu170    Cu       0.29574    0.32552    0.01513    1.000
    Cl170    Cl       0.30580    0.37062    0.07575    1.000
    N508     N        0.23833    0.35654    0.00197    1.000
    N509     N        0.34649    0.28712    0.03384    1.000
    N510     N        0.18347    0.40205    0.99493    1.000
    C339     C        0.21877    0.39021    0.02060    1.000
    H395     H        0.22760    0.40430    0.04780    1.000
    C340     C        0.37410    0.29077    0.06732    1.000
    H396     H        0.37450    0.31440    0.08870    1.000
    Cu171    Cu       0.79574    0.42448    0.23487    1.000
    Cl171    Cl       0.80580    0.37938    0.17425    1.000
    N511     N        0.73833    0.39346    0.24803    1.000
    N512     N        0.84649    0.46288    0.21616    1.000
    N513     N        0.68347    0.34795    0.25507    1.000
    C341     C        0.71877    0.35979    0.22940    1.000
    H397     H        0.72760    0.34570    0.20220    1.000
    C342     C        0.87410    0.45923    0.18268    1.000
    H398     H        0.87450    0.43560    0.16130    1.000
    Cu172    Cu       0.95426    0.82552    0.73487    1.000
    Cl172    Cl       0.94420    0.87062    0.67425    1.000
    N514     N        0.01167    0.85654    0.74803    1.000
    N515     N        0.90351    0.78712    0.71616    1.000
    N516     N        0.06653    0.90205    0.75507    1.000
    C343     C        0.03123    0.89021    0.72940    1.000
    H399     H        0.02240    0.90430    0.70220    1.000
    C344     C        0.87590    0.79077    0.68268    1.000
    H400     H        0.87550    0.81440    0.66130    1.000
    Cu173    Cu       0.51513    0.95426    0.42448    1.000
    Cl173    Cl       0.57575    0.94420    0.37938    1.000
    N517     N        0.50197    0.01167    0.39346    1.000
    N518     N        0.53384    0.90351    0.46288    1.000
    N519     N        0.49493    0.06653    0.34795    1.000
    C345     C        0.52060    0.03123    0.35979    1.000
    H401     H        0.54780    0.02240    0.34570    1.000
    C346     C        0.56732    0.87590    0.45923    1.000
    H402     H        0.58870    0.87550    0.43560    1.000
    Cu174    Cu       0.01513    0.79574    0.82552    1.000
    Cl174    Cl       0.07575    0.80580    0.87062    1.000
    N520     N        0.00197    0.73833    0.85654    1.000
    N521     N        0.03384    0.84649    0.78712    1.000
    N522     N        0.99493    0.68347    0.90205    1.000
    C347     C        0.02060    0.71877    0.89021    1.000
    H403     H        0.04780    0.72760    0.90430    1.000
    C348     C        0.06732    0.87410    0.79077    1.000
    H404     H        0.08870    0.87450    0.81440    1.000
    Cu175    Cu       0.23487    0.29574    0.92448    1.000
    Cl175    Cl       0.17425    0.30580    0.87938    1.000
    N523     N        0.24803    0.23833    0.89346    1.000
    N524     N        0.21616    0.34649    0.96288    1.000
    N525     N        0.25507    0.18347    0.84795    1.000
    C349     C        0.22940    0.21877    0.85979    1.000
    H405     H        0.20220    0.22760    0.84570    1.000
    C350     C        0.18268    0.37410    0.95923    1.000
    H406     H        0.16130    0.37450    0.93560    1.000
    Cu176    Cu       0.73487    0.45426    0.32552    1.000
    Cl176    Cl       0.67425    0.44420    0.37062    1.000
    N526     N        0.74803    0.51167    0.35654    1.000
    N527     N        0.71616    0.40351    0.28712    1.000
    N528     N        0.75507    0.56653    0.40205    1.000
    C351     C        0.72940    0.53123    0.39021    1.000
    H407     H        0.70220    0.52240    0.40430    1.000
    C352     C        0.68268    0.37590    0.29077    1.000
    H408     H        0.66130    0.37550    0.31440    1.000
    Cu177    Cu       0.42448    0.01513    0.45426    1.000
    Cl177    Cl       0.37938    0.07575    0.44420    1.000
    N529     N        0.39346    0.00197    0.51167    1.000
    N530     N        0.46288    0.03384    0.40351    1.000
    N531     N        0.34795    0.99493    0.56653    1.000
    C353     C        0.35979    0.02060    0.53123    1.000
    H409     H        0.34570    0.04780    0.52240    1.000
    C354     C        0.45923    0.06732    0.37590    1.000
    H410     H        0.43560    0.08870    0.37550    1.000
    Cu178    Cu       0.82552    0.51513    0.29574    1.000
    Cl178    Cl       0.87062    0.57575    0.30580    1.000
    N532     N        0.85654    0.50197    0.23833    1.000
    N533     N        0.78712    0.53384    0.34649    1.000
    N534     N        0.90205    0.49493    0.18347    1.000
    C355     C        0.89021    0.52060    0.21877    1.000
    H411     H        0.90430    0.54780    0.22760    1.000
    C356     C        0.79077    0.56732    0.37410    1.000
    H412     H        0.81440    0.58870    0.37450    1.000
    Cu179    Cu       0.92448    0.73487    0.79574    1.000
    Cl179    Cl       0.87938    0.67425    0.80580    1.000
    N535     N        0.89346    0.74803    0.73833    1.000
    N536     N        0.96288    0.71616    0.84649    1.000
    N537     N        0.84795    0.75507    0.68347    1.000
    C357     C        0.85979    0.72940    0.71877    1.000
    H413     H        0.84570    0.70220    0.72760    1.000
    C358     C        0.95923    0.68268    0.87410    1.000
    H414     H        0.93560    0.66130    0.87450    1.000
    Cu180    Cu       0.32552    0.23487    0.95426    1.000
    Cl180    Cl       0.37062    0.17425    0.94420    1.000
    N538     N        0.35654    0.24803    0.01167    1.000
    N539     N        0.28712    0.21616    0.90351    1.000
    N540     N        0.40205    0.25507    0.06653    1.000
    C359     C        0.39021    0.22940    0.03123    1.000
    H415     H        0.40430    0.20220    0.02240    1.000
    C360     C        0.29077    0.18268    0.87590    1.000
    H416     H        0.31440    0.16130    0.87550    1.000
    Cu181    Cu       0.67448    0.70426    0.48487    1.000
    Cl181    Cl       0.62938    0.69420    0.42425    1.000
    N541     N        0.64346    0.76167    0.49803    1.000
    N542     N        0.71288    0.65351    0.46616    1.000
    N543     N        0.59795    0.81653    0.50507    1.000
    C361     C        0.60979    0.78123    0.47940    1.000
    H417     H        0.59570    0.77240    0.45220    1.000
    C362     C        0.70923    0.62590    0.43268    1.000
    H418     H        0.68560    0.62550    0.41130    1.000
    Cu182    Cu       0.07552    0.54574    0.98487    1.000
    Cl182    Cl       0.12062    0.55580    0.92425    1.000
    N544     N        0.10654    0.48833    0.99803    1.000
    N545     N        0.03712    0.59649    0.96616    1.000
    N546     N        0.15205    0.43347    0.00507    1.000
    C363     C        0.14021    0.46877    0.97940    1.000
    H419     H        0.15430    0.47760    0.95220    1.000
    C364     C        0.04077    0.62410    0.93268    1.000
    H420     H        0.06440    0.62450    0.91130    1.000
    Cu183    Cu       0.17448    0.04574    0.76513    1.000
    Cl183    Cl       0.12938    0.05580    0.82575    1.000
    N547     N        0.14346    0.98833    0.75197    1.000
    N548     N        0.21288    0.09649    0.78384    1.000
    N549     N        0.09795    0.93347    0.74493    1.000
    C365     C        0.10979    0.96877    0.77060    1.000
    H421     H        0.09570    0.97760    0.79780    1.000
    C366     C        0.20923    0.12410    0.81732    1.000
    H422     H        0.18560    0.12450    0.83870    1.000
    Cu184    Cu       0.57552    0.20426    0.26513    1.000
    Cl184    Cl       0.62062    0.19420    0.32575    1.000
    N550     N        0.60654    0.26167    0.25197    1.000
    N551     N        0.53712    0.15351    0.28384    1.000
    N552     N        0.65205    0.31653    0.24493    1.000
    C367     C        0.64021    0.28123    0.27060    1.000
    H423     H        0.65430    0.27240    0.29780    1.000
    C368     C        0.54077    0.12590    0.31732    1.000
    H424     H        0.56440    0.12550    0.33870    1.000
    Cu185    Cu       0.70426    0.76513    0.57552    1.000
    Cl185    Cl       0.69420    0.82575    0.62062    1.000
    N553     N        0.76167    0.75197    0.60654    1.000
    N554     N        0.65351    0.78384    0.53712    1.000
    N555     N        0.81653    0.74493    0.65205    1.000
    C369     C        0.78123    0.77060    0.64021    1.000
    H425     H        0.77240    0.79780    0.65430    1.000
    C370     C        0.62590    0.81732    0.54077    1.000
    H426     H        0.62550    0.83870    0.56440    1.000
    Cu186    Cu       0.54574    0.26513    0.17448    1.000
    Cl186    Cl       0.55580    0.32575    0.12938    1.000
    N556     N        0.48833    0.25197    0.14346    1.000
    N557     N        0.59649    0.28384    0.21288    1.000
    N558     N        0.43347    0.24493    0.09795    1.000
    C371     C        0.46877    0.27060    0.10979    1.000
    H427     H        0.47760    0.29780    0.09570    1.000
    C372     C        0.62410    0.31732    0.20923    1.000
    H428     H        0.62450    0.33870    0.18560    1.000
    Cu187    Cu       0.04574    0.48487    0.07552    1.000
    Cl187    Cl       0.05580    0.42425    0.12062    1.000
    N559     N        0.98833    0.49803    0.10654    1.000
    N560     N        0.09649    0.46616    0.03712    1.000
    N561     N        0.93347    0.50507    0.15205    1.000
    C373     C        0.96877    0.47940    0.14021    1.000
    H429     H        0.97760    0.45220    0.15430    1.000
    C374     C        0.12410    0.43268    0.04077    1.000
    H430     H        0.12450    0.41130    0.06440    1.000
    Cu188    Cu       0.20426    0.98487    0.67448    1.000
    Cl188    Cl       0.19420    0.92425    0.62938    1.000
    N562     N        0.26167    0.99803    0.64346    1.000
    N563     N        0.15351    0.96616    0.71288    1.000
    N564     N        0.31653    0.00507    0.59795    1.000
    C375     C        0.28123    0.97940    0.60979    1.000
    H431     H        0.27240    0.95220    0.59570    1.000
    C376     C        0.12590    0.93268    0.70923    1.000
    H432     H        0.12550    0.91130    0.68560    1.000
    Cu189    Cu       0.76513    0.67448    0.54574    1.000
    Cl189    Cl       0.82575    0.62938    0.55580    1.000
    N565     N        0.75197    0.64346    0.48833    1.000
    N566     N        0.78384    0.71288    0.59649    1.000
    N567     N        0.74493    0.59795    0.43347    1.000
    C377     C        0.77060    0.60979    0.46877    1.000
    H433     H        0.79780    0.59570    0.47760    1.000
    C378     C        0.81732    0.70923    0.62410    1.000
    H434     H        0.83870    0.68560    0.62450    1.000
    Cu190    Cu       0.26513    0.07552    0.70426    1.000
    Cl190    Cl       0.32575    0.12062    0.69420    1.000
    N568     N        0.25197    0.10654    0.76167    1.000
    N569     N        0.28384    0.03712    0.65351    1.000
    N570     N        0.24493    0.15205    0.81653    1.000
    C379     C        0.27060    0.14021    0.78123    1.000
    H435     H        0.29780    0.15430    0.77240    1.000
    C380     C        0.31732    0.04077    0.62590    1.000
    H436     H        0.33870    0.06440    0.62550    1.000
    Cu191    Cu       0.48487    0.17448    0.20426    1.000
    Cl191    Cl       0.42425    0.12938    0.19420    1.000
    N571     N        0.49803    0.14346    0.26167    1.000
    N572     N        0.46616    0.21288    0.15351    1.000
    N573     N        0.50507    0.09795    0.31653    1.000
    C381     C        0.47940    0.10979    0.28123    1.000
    H437     H        0.45220    0.09570    0.27240    1.000
    C382     C        0.43268    0.20923    0.12590    1.000
    H438     H        0.41130    0.18560    0.12550    1.000
    Cu192    Cu       0.98487    0.57552    0.04574    1.000
    Cl192    Cl       0.92425    0.62062    0.05580    1.000
    N574     N        0.99803    0.60654    0.98833    1.000
    N575     N        0.96616    0.53712    0.09649    1.000
    N576     N        0.00507    0.65205    0.93347    1.000
    C383     C        0.97940    0.64021    0.96877    1.000
    H439     H        0.95220    0.65430    0.97760    1.000
    C384     C        0.93268    0.54077    0.12410    1.000
    H440     H        0.91130    0.56440    0.12450    1.000
    O57      O        0.77604    0.47396    0.27604    1.000
    H441     H        0.75970    0.49030    0.25970    1.000
    O58      O        0.47396    0.97396    0.47396    1.000
    H442     H        0.49030    0.99030    0.49030    1.000
    O59      O        0.97396    0.77604    0.77604    1.000
    H443     H        0.99030    0.75970    0.75970    1.000
    O60      O        0.27604    0.27604    0.97396    1.000
    H444     H        0.25970    0.25970    0.99030    1.000
    O61      O        0.72396    0.72396    0.52604    1.000
    H445     H        0.74030    0.74030    0.50970    1.000
    O62      O        0.02604    0.52604    0.02604    1.000
    H446     H        0.00970    0.50970    0.00970    1.000
    O63      O        0.22396    0.02604    0.72396    1.000
    H447     H        0.24030    0.00970    0.74030    1.000
    O64      O        0.52604    0.22396    0.22396    1.000
    H448     H        0.50970    0.24030    0.24030    1.000
