data_functionalizedCrystal
_audit_creation_method	'EQeq! by Chris Wilmer'
_symmetry_space_group_name_H-M	'P1'
_symmetry_Int_Tables_number	1
_symmetry_cell_setting	triclinic
loop_
_symmetry_equiv_pos_as_xyz
  x,y,z
_cell_length_a	8.986
_cell_length_b	14.915
_cell_length_c	26.759
_cell_angle_alpha	96.272
_cell_angle_beta	90
_cell_angle_gamma	90
loop_
_atom_site_label
_atom_site_type_symbol
_atom_site_fract_x
_atom_site_fract_y
_atom_site_fract_z
_atom_site_charge
Mof_Cd	Cd	0.81224	0.55884	0.85852	0.469
Mof_Cd	Cd	0.68776	0.05884	0.35852	0.469
Mof_H 	H 	0.4021	0.6823	0.975	0.053
Mof_H 	H 	0.2575	0.7982	0.0125	0.068
Mof_H 	H 	0.4652	0.9709	0.9308	0.064
Mof_H 	H 	0.6084	0.8538	0.8932	0.048
Mof_H 	H 	0.2316	0.9216	0.0682	0.076
Mof_H 	H 	0.0319	0.1616	0.0658	0.08
Mof_H 	H 	0.2556	0.0512	0.9447	0.075
Mof_H 	H 	0.2297	0.9712	0.1564	0.067
Mof_H 	H 	0.1252	0.9649	0.2345	0.049
Mof_H 	H 	0.7587	0.0868	0.1907	0.047
Mof_H 	H 	0.8632	0.0959	0.1133	0.066
Mof_H 	H 	0.0915	0.291	0.0355	0.075
Mof_H 	H 	0.0768	0.1316	0.9049	0.07
Mof_H 	H 	0.997	0.4088	0.9959	0.057
Mof_H 	H 	0.9822	0.2491	0.8655	0.045
Mof_H 	H 	0.0979	0.1823	0.475	0.052
Mof_H 	H 	0.2425	0.2982	0.5125	0.067
Mof_H 	H 	0.0348	0.4709	0.4308	0.062
Mof_H 	H 	0.8916	0.3538	0.3932	0.047
Mof_H 	H 	0.2684	0.4216	0.5682	0.077
Mof_H 	H 	0.4681	0.6616	0.5658	0.081
Mof_H 	H 	0.2444	0.5512	0.4447	0.076
Mof_H 	H 	0.2703	0.4712	0.6564	0.067
Mof_H 	H 	0.3748	0.4649	0.7345	0.049
Mof_H 	H 	0.7413	0.5868	0.6907	0.047
Mof_H 	H 	0.6368	0.5959	0.6133	0.066
Mof_H 	H 	0.4085	0.791	0.5355	0.072
Mof_H 	H 	0.4232	0.6316	0.4049	0.067
Mof_H 	H 	0.503	0.9088	0.4959	0.06
Mof_H 	H 	0.5178	0.7491	0.3655	0.048
Mof_C 	C 	0.5217	0.75625	0.93096	-0.07
Mof_C 	C 	0.4155	0.7405	0.9663	0.011
Mof_C 	C 	0.3288	0.81007	0.98891	-0.085
Mof_C 	C 	0.3475	0.89783	0.97659	0.022
Mof_C 	C 	0.4527	0.91307	0.94008	-0.083
Mof_C 	C 	0.5388	0.84281	0.91749	0.009
Mof_C 	C 	0.2578	0.97399	0.00241	0.059
Mof_C 	C 	0.2077	0.97096	0.05124	-0.125
Mof_C 	C 	0.1215	0.04101	0.07548	0.059
Mof_C 	C 	0.0885	0.1147	0.04992	-0.12
Mof_C 	C 	0.1382	0.12004	0.001	0.059
Mof_C 	C 	0.2225	0.04881	0.97744	-0.119
Mof_C 	C 	0.0586	0.0356	0.12614	0.028
Mof_C 	C 	0.1355	0.99531	0.1632	-0.087
Mof_C 	C 	0.0722	0.99106	0.21003	0.016
Mof_C 	C 	0.9311	0.02519	0.22095	-0.075
Mof_C 	C 	0.8539	0.06405	0.18402	0.016
Mof_C 	C 	0.9166	0.06933	0.1376	-0.09
Mof_C 	C 	0.0913	0.19759	0.9747	0.032
Mof_C 	C 	0.0686	0.28204	0.00142	-0.088
Mof_C 	C 	0.0597	0.18702	0.92351	-0.093
Mof_C 	C 	0.012	0.35287	0.97757	0.02
Mof_C 	C 	0.9778	0.34116	0.92684	-0.082
Mof_C 	C 	0.0032	0.25757	0.89968	0.022
Mof_C 	C 	0.9182	0.41715	0.9013	0.307
Mof_C 	C 	0.861	0.02379	0.27209	0.312
Mof_C 	C 	0.6199	0.682	0.90704	0.293
Mof_C 	C 	0.9783	0.25625	0.43096	-0.071
Mof_C 	C 	0.0845	0.2405	0.4663	0.011
Mof_C 	C 	0.1712	0.31007	0.48891	-0.085
Mof_C 	C 	0.1525	0.39783	0.47659	0.022
Mof_C 	C 	0.0473	0.41307	0.44008	-0.083
Mof_C 	C 	0.9612	0.34281	0.41749	0.009
Mof_C 	C 	0.2422	0.47399	0.50241	0.06
Mof_C 	C 	0.2923	0.47096	0.55124	-0.126
Mof_C 	C 	0.3785	0.54101	0.57548	0.061
Mof_C 	C 	0.4115	0.6147	0.54992	-0.122
Mof_C 	C 	0.3618	0.62004	0.501	0.063
Mof_C 	C 	0.2775	0.54881	0.47744	-0.123
Mof_C 	C 	0.4414	0.5356	0.62614	0.026
Mof_C 	C 	0.3645	0.49531	0.6632	-0.086
Mof_C 	C 	0.4278	0.49106	0.71003	0.016
Mof_C 	C 	0.5689	0.52519	0.72095	-0.075
Mof_C 	C 	0.6461	0.56405	0.68402	0.016
Mof_C 	C 	0.5834	0.56933	0.6376	-0.088
Mof_C 	C 	0.4087	0.69759	0.4747	0.027
Mof_C 	C 	0.4314	0.78204	0.50142	-0.082
Mof_C 	C 	0.4403	0.68702	0.42351	-0.087
Mof_C 	C 	0.488	0.85287	0.47757	0.013
Mof_C 	C 	0.5222	0.84116	0.42684	-0.076
Mof_C 	C 	0.4968	0.75757	0.39968	0.014
Mof_C 	C 	0.5818	0.91715	0.4013	0.305
Mof_C 	C 	0.639	0.52379	0.77209	0.313
Mof_C 	C 	0.8801	0.182	0.40704	0.293
Mof_O 	O 	0.7214	0.70072	0.87832	-0.275
Mof_O 	O 	0.597	0.60182	0.91719	-0.235
Mof_O 	O 	0.9319	0.99582	0.30637	-0.241
Mof_O 	O 	0.7303	0.05406	0.27693	-0.273
Mof_O 	O 	0.8836	0.40498	0.85615	-0.26
Mof_O 	O 	0.9037	0.49342	0.92625	-0.269
Mof_O 	O 	0.7786	0.20072	0.37832	-0.275
Mof_O 	O 	0.903	0.10182	0.41719	-0.236
Mof_O 	O 	0.5681	0.49582	0.80637	-0.242
Mof_O 	O 	0.7697	0.55406	0.77693	-0.273
Mof_O 	O 	0.6164	0.90498	0.35615	-0.259
Mof_O 	O 	0.5963	0.99342	0.42625	-0.268
Mof_Cd	Cd	0.31224	0.94116	0.64148	0.468
Mof_Cd	Cd	0.18776	0.44116	0.14149	0.468
Mof_H 	H 	0.9021	0.8177	0.525	0.052
Mof_H 	H 	0.7575	0.7018	0.4875	0.067
Mof_H 	H 	0.9652	0.5291	0.5692	0.062
Mof_H 	H 	0.1084	0.6462	0.6068	0.047
Mof_H 	H 	0.7316	0.5784	0.4318	0.077
Mof_H 	H 	0.5319	0.3384	0.4342	0.081
Mof_H 	H 	0.7556	0.4488	0.5553	0.076
Mof_H 	H 	0.7297	0.5288	0.3436	0.067
Mof_H 	H 	0.6252	0.5351	0.2655	0.049
Mof_H 	H 	0.2587	0.4132	0.3093	0.047
Mof_H 	H 	0.3632	0.4041	0.3867	0.066
Mof_H 	H 	0.5915	0.209	0.4645	0.072
Mof_H 	H 	0.5768	0.3684	0.5951	0.067
Mof_H 	H 	0.497	0.0912	0.5041	0.06
Mof_H 	H 	0.4822	0.2509	0.6345	0.048
Mof_H 	H 	0.5979	0.3177	0.025	0.052
Mof_H 	H 	0.7425	0.2018	0.9875	0.067
Mof_H 	H 	0.5348	0.0291	0.0692	0.063
Mof_H 	H 	0.3916	0.1462	0.1068	0.047
Mof_H 	H 	0.7684	0.0784	0.9318	0.076
Mof_H 	H 	0.9681	0.8384	0.9342	0.08
Mof_H 	H 	0.7444	0.9488	0.0553	0.075
Mof_H 	H 	0.7703	0.0288	0.8436	0.067
Mof_H 	H 	0.8748	0.0351	0.7655	0.049
Mof_H 	H 	0.2413	0.9132	0.8093	0.047
Mof_H 	H 	0.1368	0.9041	0.8867	0.066
Mof_H 	H 	0.9085	0.709	0.9645	0.075
Mof_H 	H 	0.9232	0.8684	0.0951	0.07
Mof_H 	H 	0.003	0.5912	0.0041	0.057
Mof_H 	H 	0.0178	0.7509	0.1345	0.045
Mof_C 	C 	0.0217	0.74375	0.56904	-0.071
Mof_C 	C 	0.9155	0.7595	0.5337	0.011
Mof_C 	C 	0.8288	0.68993	0.51109	-0.085
Mof_C 	C 	0.8475	0.60217	0.52341	0.022
Mof_C 	C 	0.9527	0.58693	0.55992	-0.083
Mof_C 	C 	0.0388	0.65719	0.58251	0.009
Mof_C 	C 	0.7578	0.52601	0.49759	0.06
Mof_C 	C 	0.7077	0.52904	0.44876	-0.126
Mof_C 	C 	0.6215	0.45899	0.42452	0.061
Mof_C 	C 	0.5885	0.3853	0.45008	-0.122
Mof_C 	C 	0.6382	0.37996	0.499	0.063
Mof_C 	C 	0.7225	0.45119	0.52256	-0.123
Mof_C 	C 	0.5586	0.4644	0.37386	0.026
Mof_C 	C 	0.6355	0.50469	0.3368	-0.086
Mof_C 	C 	0.5722	0.50894	0.28997	0.016
Mof_C 	C 	0.4311	0.47481	0.27905	-0.075
Mof_C 	C 	0.3539	0.43595	0.31598	0.016
Mof_C 	C 	0.4166	0.43067	0.3624	-0.088
Mof_C 	C 	0.5913	0.30241	0.5253	0.027
Mof_C 	C 	0.5686	0.21796	0.49858	-0.082
Mof_C 	C 	0.5597	0.31298	0.57649	-0.087
Mof_C 	C 	0.512	0.14713	0.52243	0.013
Mof_C 	C 	0.4778	0.15884	0.57316	-0.076
Mof_C 	C 	0.5032	0.24243	0.60032	0.014
Mof_C 	C 	0.4182	0.08285	0.5987	0.305
Mof_C 	C 	0.361	0.47621	0.22791	0.313
Mof_C 	C 	0.1199	0.818	0.59296	0.293
Mof_C 	C 	0.4783	0.24375	0.06904	-0.07
Mof_C 	C 	0.5845	0.2595	0.0337	0.011
Mof_C 	C 	0.6712	0.18993	0.01109	-0.085
Mof_C 	C 	0.6525	0.10217	0.02341	0.022
Mof_C 	C 	0.5473	0.08693	0.05992	-0.083
Mof_C 	C 	0.4612	0.15719	0.08251	0.009
Mof_C 	C 	0.7422	0.02601	0.99759	0.059
Mof_C 	C 	0.7923	0.02904	0.94876	-0.125
Mof_C 	C 	0.8785	0.95899	0.92452	0.059
Mof_C 	C 	0.9115	0.8853	0.95008	-0.12
Mof_C 	C 	0.8618	0.87996	0.999	0.059
Mof_C 	C 	0.7775	0.95119	0.02256	-0.119
Mof_C 	C 	0.9414	0.9644	0.87386	0.028
Mof_C 	C 	0.8645	0.00469	0.8368	-0.087
Mof_C 	C 	0.9278	0.00894	0.78997	0.016
Mof_C 	C 	0.0689	0.97481	0.77905	-0.075
Mof_C 	C 	0.1461	0.93595	0.81598	0.016
Mof_C 	C 	0.0834	0.93067	0.8624	-0.09
Mof_C 	C 	0.9087	0.80241	0.0253	0.032
Mof_C 	C 	0.9314	0.71796	0.99858	-0.088
Mof_C 	C 	0.9403	0.81298	0.07649	-0.093
Mof_C 	C 	0.988	0.64713	0.02243	0.02
Mof_C 	C 	0.0222	0.65884	0.07316	-0.082
Mof_C 	C 	0.9968	0.74243	0.10032	0.022
Mof_C 	C 	0.0818	0.58285	0.0987	0.307
Mof_C 	C 	0.139	0.97621	0.72791	0.312
Mof_C 	C 	0.3801	0.318	0.09296	0.293
Mof_O 	O 	0.2214	0.79928	0.62168	-0.275
Mof_O 	O 	0.097	0.89818	0.58281	-0.236
Mof_O 	O 	0.4319	0.50418	0.19363	-0.242
Mof_O 	O 	0.2303	0.44594	0.22307	-0.273
Mof_O 	O 	0.3836	0.09502	0.64385	-0.259
Mof_O 	O 	0.4037	0.00658	0.57375	-0.268
Mof_O 	O 	0.2786	0.29928	0.12168	-0.275
Mof_O 	O 	0.403	0.39818	0.08281	-0.235
Mof_O 	O 	0.0681	0.00418	0.69363	-0.241
Mof_O 	O 	0.2697	0.94594	0.72307	-0.273
Mof_O 	O 	0.1164	0.59502	0.14385	-0.26
Mof_O 	O 	0.0963	0.50658	0.07375	-0.269
_end
