# CIF file generated by openbabel 3.1.0, see https://openbabel.org
data_I
_chemical_name_common 'image0'
_cell_length_a 15.882
_cell_length_b 8.462
_cell_length_c 16.096
_cell_angle_alpha 90
_cell_angle_beta 112.563
_cell_angle_gamma 90
_space_group_name_H-M_alt 'P 1'
_space_group_name_Hall 'P 1'
loop_
    _symmetry_equiv_pos_as_xyz
    x,y,z
loop_
    _atom_site_label
    _atom_site_type_symbol
    _atom_site_fract_x
    _atom_site_fract_y
    _atom_site_fract_z
    _atom_site_occupancy
    Co1      Co       0.36390    0.13654    0.47626    1.000
    P1       P        0.15253    0.13676    0.36334    1.000
    P2       P        0.02018    0.62988    0.40078    1.000
    O1       O        0.11130    0.24880    0.28466    1.000
    O2       O        0.24815    0.09650    0.37567    1.000
    O3       O        0.13960    0.18990    0.44642    1.000
    O4       O        0.10849    0.58070    0.47636    1.000
    O5       O        0.97443    0.49190    0.34059    1.000
    O6       O        0.95619    0.71510    0.43460    1.000
    H1       H        0.11000    0.00600    0.34400    1.000
    H2       H        0.04200    0.73700    0.35300    1.000
    Co2      Co       0.86390    0.63654    0.47626    1.000
    P3       P        0.65253    0.63676    0.36334    1.000
    P4       P        0.52018    0.12988    0.40078    1.000
    O7       O        0.61130    0.74880    0.28466    1.000
    O8       O        0.74815    0.59650    0.37567    1.000
    O9       O        0.63960    0.68990    0.44642    1.000
    O10      O        0.60849    0.08070    0.47636    1.000
    O11      O        0.47443    0.99190    0.34059    1.000
    O12      O        0.45619    0.21510    0.43460    1.000
    H3       H        0.61000    0.50600    0.34400    1.000
    H4       H        0.54200    0.23700    0.35300    1.000
    Co3      Co       0.63610    0.13654    0.02374    1.000
    P5       P        0.84747    0.13676    0.13666    1.000
    P6       P        0.97982    0.62988    0.09922    1.000
    O13      O        0.88870    0.24880    0.21534    1.000
    O14      O        0.75185    0.09650    0.12433    1.000
    O15      O        0.86040    0.18990    0.05358    1.000
    O16      O        0.89151    0.58070    0.02364    1.000
    O17      O        0.02557    0.49190    0.15941    1.000
    O18      O        0.04381    0.71510    0.06540    1.000
    H5       H        0.89000    0.00600    0.15600    1.000
    H6       H        0.95800    0.73700    0.14700    1.000
    Co4      Co       0.13610    0.63654    0.02374    1.000
    P7       P        0.34747    0.63676    0.13666    1.000
    P8       P        0.47982    0.12988    0.09922    1.000
    O19      O        0.38870    0.74880    0.21534    1.000
    O20      O        0.25185    0.59650    0.12433    1.000
    O21      O        0.36040    0.68990    0.05358    1.000
    O22      O        0.39151    0.08070    0.02364    1.000
    O23      O        0.52557    0.99190    0.15941    1.000
    O24      O        0.54381    0.21510    0.06540    1.000
    H7       H        0.39000    0.50600    0.15600    1.000
    H8       H        0.45800    0.23700    0.14700    1.000
    Co5      Co       0.63610    0.86346    0.52374    1.000
    P9       P        0.84747    0.86324    0.63666    1.000
    P10      P        0.97982    0.37012    0.59922    1.000
    O25      O        0.88870    0.75120    0.71534    1.000
    O26      O        0.75185    0.90350    0.62433    1.000
    O27      O        0.86040    0.81010    0.55358    1.000
    O28      O        0.89151    0.41930    0.52364    1.000
    O29      O        0.02557    0.50810    0.65941    1.000
    O30      O        0.04381    0.28490    0.56540    1.000
    H9       H        0.89000    0.99400    0.65600    1.000
    H10      H        0.95800    0.26300    0.64700    1.000
    Co6      Co       0.13610    0.36346    0.52374    1.000
    P11      P        0.34747    0.36324    0.63666    1.000
    P12      P        0.47982    0.87012    0.59922    1.000
    O31      O        0.38870    0.25120    0.71534    1.000
    O32      O        0.25185    0.40350    0.62433    1.000
    O33      O        0.36040    0.31010    0.55358    1.000
    O34      O        0.39151    0.91930    0.52364    1.000
    O35      O        0.52557    0.00810    0.65941    1.000
    O36      O        0.54381    0.78490    0.56540    1.000
    H11      H        0.39000    0.49400    0.65600    1.000
    H12      H        0.45800    0.76300    0.64700    1.000
    Co7      Co       0.36390    0.86346    0.97626    1.000
    P13      P        0.15253    0.86324    0.86334    1.000
    P14      P        0.02018    0.37012    0.90078    1.000
    O37      O        0.11130    0.75120    0.78466    1.000
    O38      O        0.24815    0.90350    0.87567    1.000
    O39      O        0.13960    0.81010    0.94642    1.000
    O40      O        0.10849    0.41930    0.97636    1.000
    O41      O        0.97443    0.50810    0.84059    1.000
    O42      O        0.95619    0.28490    0.93460    1.000
    H13      H        0.11000    0.99400    0.84400    1.000
    H14      H        0.04200    0.26300    0.85300    1.000
    Co8      Co       0.86390    0.36346    0.97626    1.000
    P15      P        0.65253    0.36324    0.86334    1.000
    P16      P        0.52018    0.87012    0.90078    1.000
    O43      O        0.61130    0.25120    0.78466    1.000
    O44      O        0.74815    0.40350    0.87567    1.000
    O45      O        0.63960    0.31010    0.94642    1.000
    O46      O        0.60849    0.91930    0.97636    1.000
    O47      O        0.47443    0.00810    0.84059    1.000
    O48      O        0.45619    0.78490    0.93460    1.000
    H15      H        0.61000    0.49400    0.84400    1.000
    H16      H        0.54200    0.76300    0.85300    1.000
    Co9      Co       0.00000    0.37328    0.25000    1.000
    Co10     Co       0.50000    0.87328    0.25000    1.000
    Co11     Co       0.00000    0.62672    0.75000    1.000
    Co12     Co       0.50000    0.12672    0.75000    1.000
