data_functionalizedCrystal
_audit_creation_method	'EQeq! by Chris Wilmer'
_symmetry_space_group_name_H-M	'P1'
_symmetry_Int_Tables_number	1
_symmetry_cell_setting	triclinic
loop_
_symmetry_equiv_pos_as_xyz
  x,y,z
_cell_length_a	24.681
_cell_length_b	24.681
_cell_length_c	10.819
_cell_angle_alpha	90
_cell_angle_beta	90
_cell_angle_gamma	90
loop_
_atom_site_label
_atom_site_type_symbol
_atom_site_fract_x
_atom_site_fract_y
_atom_site_fract_z
_atom_site_charge
Mof_In	In	0.38016	0.7898	0.35556	1.68
Mof_O 	O 	0.5991	0.8604	0.3217	-0.319
Mof_O 	O 	0.6274	0.8633	0.1267	-0.567
Mof_O 	O 	0.1914	0.7282	0.1114	-0.363
Mof_O 	O 	0.2009	0.7289	0.908	-0.561
Mof_N 	N 	0.448	0.8077	0.2175	-0.317
Mof_N 	N 	0.3484	0.7765	0.1619	-0.289
Mof_C 	C 	0.4976	0.8235	0.2504	0.138
Mof_H 	H 	0.5054	0.8259	0.3343	-0.064
Mof_C 	C 	0.5379	0.8366	0.1678	-0.214
Mof_C 	C 	0.5254	0.8322	0.0444	0.106
Mof_H 	H 	0.5509	0.8388	0.983	-0.01
Mof_C 	C 	0.4713	0.8169	0.0158	-0.177
Mof_H 	H 	0.4612	0.8147	0.9332	0.072
Mof_C 	C 	0.4359	0.8059	0.0986	0.09
Mof_C 	C 	0.3797	0.787	0.0638	0.053
Mof_C 	C 	0.3597	0.7798	0.9508	-0.136
Mof_H 	H 	0.3832	0.7863	0.8852	0.059
Mof_C 	C 	0.3104	0.7647	0.9221	0.064
Mof_H 	H 	0.2987	0.7614	0.8407	0.021
Mof_C 	C 	0.276	0.7538	0.0247	-0.165
Mof_C 	C 	0.2985	0.7594	0.1434	0.094
Mof_H 	H 	0.2773	0.7506	0.2116	-0.007
Mof_C 	C 	0.5916	0.8532	0.2078	0.428
Mof_C 	C 	0.2184	0.7352	0.0163	0.402
Mof_In	In	0.88016	0.2898	0.85556	1.679
Mof_O 	O 	0.0991	0.3604	0.8217	-0.32
Mof_O 	O 	0.1274	0.3633	0.6267	-0.568
Mof_O 	O 	0.6914	0.2282	0.6114	-0.364
Mof_O 	O 	0.7009	0.2289	0.408	-0.562
Mof_N 	N 	0.948	0.3077	0.7175	-0.318
Mof_N 	N 	0.8484	0.2765	0.6619	-0.29
Mof_C 	C 	0.9976	0.3235	0.7504	0.137
Mof_H 	H 	0.0054	0.3259	0.8343	-0.065
Mof_C 	C 	0.0379	0.3366	0.6678	-0.215
Mof_C 	C 	0.0254	0.3322	0.5444	0.104
Mof_H 	H 	0.0509	0.3388	0.483	-0.011
Mof_C 	C 	0.9713	0.3169	0.5158	-0.178
Mof_H 	H 	0.9612	0.3147	0.4332	0.071
Mof_C 	C 	0.9359	0.3059	0.5986	0.089
Mof_C 	C 	0.8797	0.287	0.5638	0.052
Mof_C 	C 	0.8597	0.2798	0.4508	-0.137
Mof_H 	H 	0.8832	0.2863	0.3852	0.058
Mof_C 	C 	0.8104	0.2647	0.4221	0.063
Mof_H 	H 	0.7987	0.2614	0.3407	0.02
Mof_C 	C 	0.776	0.2538	0.5247	-0.165
Mof_C 	C 	0.7985	0.2594	0.6434	0.094
Mof_H 	H 	0.7773	0.2506	0.7116	-0.007
Mof_C 	C 	0.0916	0.3532	0.7078	0.428
Mof_C 	C 	0.7184	0.2352	0.5163	0.402
Mof_In	In	0.61984	0.2102	0.35556	1.679
Mof_O 	O 	0.4009	0.1396	0.3217	-0.32
Mof_O 	O 	0.3726	0.1367	0.1267	-0.568
Mof_O 	O 	0.8086	0.2718	0.1114	-0.364
Mof_O 	O 	0.7991	0.2711	0.908	-0.562
Mof_N 	N 	0.552	0.1923	0.2175	-0.318
Mof_N 	N 	0.6516	0.2235	0.1619	-0.29
Mof_C 	C 	0.5024	0.1765	0.2504	0.137
Mof_H 	H 	0.4946	0.1741	0.3343	-0.065
Mof_C 	C 	0.4621	0.1634	0.1678	-0.215
Mof_C 	C 	0.4746	0.1678	0.0444	0.105
Mof_H 	H 	0.4491	0.1612	0.983	-0.011
Mof_C 	C 	0.5287	0.1831	0.0158	-0.178
Mof_H 	H 	0.5388	0.1853	0.9332	0.071
Mof_C 	C 	0.5641	0.1941	0.0986	0.089
Mof_C 	C 	0.6203	0.213	0.0638	0.052
Mof_C 	C 	0.6403	0.2202	0.9508	-0.137
Mof_H 	H 	0.6168	0.2137	0.8852	0.058
Mof_C 	C 	0.6896	0.2353	0.9221	0.063
Mof_H 	H 	0.7013	0.2386	0.8407	0.02
Mof_C 	C 	0.724	0.2462	0.0247	-0.165
Mof_C 	C 	0.7015	0.2406	0.1434	0.094
Mof_H 	H 	0.7227	0.2494	0.2116	-0.007
Mof_C 	C 	0.4084	0.1468	0.2078	0.428
Mof_C 	C 	0.7816	0.2648	0.0163	0.402
Mof_In	In	0.11984	0.7102	0.85556	1.679
Mof_O 	O 	0.9009	0.6396	0.8217	-0.32
Mof_O 	O 	0.8726	0.6367	0.6267	-0.568
Mof_O 	O 	0.3086	0.7718	0.6114	-0.364
Mof_O 	O 	0.2991	0.7711	0.408	-0.562
Mof_N 	N 	0.052	0.6923	0.7175	-0.318
Mof_N 	N 	0.1516	0.7235	0.6619	-0.29
Mof_C 	C 	0.0024	0.6765	0.7504	0.137
Mof_H 	H 	0.9946	0.6741	0.8343	-0.065
Mof_C 	C 	0.9621	0.6634	0.6678	-0.215
Mof_C 	C 	0.9746	0.6678	0.5444	0.104
Mof_H 	H 	0.9491	0.6612	0.483	-0.011
Mof_C 	C 	0.0287	0.6831	0.5158	-0.178
Mof_H 	H 	0.0388	0.6853	0.4332	0.071
Mof_C 	C 	0.0641	0.6941	0.5986	0.089
Mof_C 	C 	0.1203	0.713	0.5638	0.052
Mof_C 	C 	0.1403	0.7202	0.4508	-0.137
Mof_H 	H 	0.1168	0.7137	0.3852	0.058
Mof_C 	C 	0.1896	0.7353	0.4221	0.063
Mof_H 	H 	0.2013	0.7386	0.3407	0.02
Mof_C 	C 	0.224	0.7462	0.5247	-0.165
Mof_C 	C 	0.2015	0.7406	0.6434	0.094
Mof_H 	H 	0.2227	0.7494	0.7116	-0.007
Mof_C 	C 	0.9084	0.6468	0.7078	0.428
Mof_C 	C 	0.2816	0.7648	0.5163	0.402
Mof_In	In	0.7898	0.61984	0.64444	1.679
Mof_O 	O 	0.8604	0.4009	0.6783	-0.32
Mof_O 	O 	0.8633	0.3726	0.8733	-0.568
Mof_O 	O 	0.7282	0.8086	0.8886	-0.364
Mof_O 	O 	0.7289	0.7991	0.092	-0.562
Mof_N 	N 	0.8077	0.552	0.7825	-0.318
Mof_N 	N 	0.7765	0.6516	0.8381	-0.29
Mof_C 	C 	0.8235	0.5024	0.7496	0.137
Mof_H 	H 	0.8259	0.4946	0.6657	-0.065
Mof_C 	C 	0.8366	0.4621	0.8322	-0.215
Mof_C 	C 	0.8322	0.4746	0.9556	0.105
Mof_H 	H 	0.8388	0.4491	0.017	-0.011
Mof_C 	C 	0.8169	0.5287	0.9842	-0.178
Mof_H 	H 	0.8147	0.5388	0.0668	0.071
Mof_C 	C 	0.8059	0.5641	0.9014	0.089
Mof_C 	C 	0.787	0.6203	0.9362	0.052
Mof_C 	C 	0.7798	0.6403	0.0492	-0.137
Mof_H 	H 	0.7863	0.6168	0.1148	0.058
Mof_C 	C 	0.7647	0.6896	0.0779	0.063
Mof_H 	H 	0.7614	0.7013	0.1593	0.02
Mof_C 	C 	0.7538	0.724	0.9753	-0.165
Mof_C 	C 	0.7594	0.7015	0.8566	0.094
Mof_H 	H 	0.7506	0.7227	0.7884	-0.007
Mof_C 	C 	0.8532	0.4084	0.7922	0.428
Mof_C 	C 	0.7352	0.7816	0.9837	0.402
Mof_In	In	0.2898	0.11984	0.14444	1.679
Mof_O 	O 	0.3604	0.9009	0.1783	-0.32
Mof_O 	O 	0.3633	0.8726	0.3733	-0.568
Mof_O 	O 	0.2282	0.3086	0.3886	-0.364
Mof_O 	O 	0.2289	0.2991	0.592	-0.562
Mof_N 	N 	0.3077	0.052	0.2825	-0.318
Mof_N 	N 	0.2765	0.1516	0.3381	-0.29
Mof_C 	C 	0.3235	0.0024	0.2496	0.137
Mof_H 	H 	0.3259	0.9946	0.1657	-0.065
Mof_C 	C 	0.3366	0.9621	0.3322	-0.215
Mof_C 	C 	0.3322	0.9746	0.4556	0.104
Mof_H 	H 	0.3388	0.9491	0.517	-0.011
Mof_C 	C 	0.3169	0.0287	0.4842	-0.178
Mof_H 	H 	0.3147	0.0388	0.5668	0.071
Mof_C 	C 	0.3059	0.0641	0.4014	0.089
Mof_C 	C 	0.287	0.1203	0.4362	0.052
Mof_C 	C 	0.2798	0.1403	0.5492	-0.137
Mof_H 	H 	0.2863	0.1168	0.6148	0.058
Mof_C 	C 	0.2647	0.1896	0.5779	0.063
Mof_H 	H 	0.2614	0.2013	0.6593	0.02
Mof_C 	C 	0.2538	0.224	0.4753	-0.165
Mof_C 	C 	0.2594	0.2015	0.3566	0.094
Mof_H 	H 	0.2506	0.2227	0.2884	-0.007
Mof_C 	C 	0.3532	0.9084	0.2922	0.428
Mof_C 	C 	0.2352	0.2816	0.4837	0.402
Mof_In	In	0.2102	0.38016	0.64444	1.679
Mof_O 	O 	0.1396	0.5991	0.6783	-0.32
Mof_O 	O 	0.1367	0.6274	0.8733	-0.568
Mof_O 	O 	0.2718	0.1914	0.8886	-0.364
Mof_O 	O 	0.2711	0.2009	0.092	-0.562
Mof_N 	N 	0.1923	0.448	0.7825	-0.318
Mof_N 	N 	0.2235	0.3484	0.8381	-0.29
Mof_C 	C 	0.1765	0.4976	0.7496	0.137
Mof_H 	H 	0.1741	0.5054	0.6657	-0.065
Mof_C 	C 	0.1634	0.5379	0.8322	-0.215
Mof_C 	C 	0.1678	0.5254	0.9556	0.105
Mof_H 	H 	0.1612	0.5509	0.017	-0.011
Mof_C 	C 	0.1831	0.4713	0.9842	-0.178
Mof_H 	H 	0.1853	0.4612	0.0668	0.071
Mof_C 	C 	0.1941	0.4359	0.9014	0.089
Mof_C 	C 	0.213	0.3797	0.9362	0.052
Mof_C 	C 	0.2202	0.3597	0.0492	-0.137
Mof_H 	H 	0.2137	0.3832	0.1148	0.058
Mof_C 	C 	0.2353	0.3104	0.0779	0.063
Mof_H 	H 	0.2386	0.2987	0.1593	0.02
Mof_C 	C 	0.2462	0.276	0.9753	-0.165
Mof_C 	C 	0.2406	0.2985	0.8566	0.094
Mof_H 	H 	0.2494	0.2773	0.7884	-0.007
Mof_C 	C 	0.1468	0.5916	0.7922	0.428
Mof_C 	C 	0.2648	0.2184	0.9837	0.402
Mof_In	In	0.7102	0.88016	0.14444	1.679
Mof_O 	O 	0.6396	0.0991	0.1783	-0.32
Mof_O 	O 	0.6367	0.1274	0.3733	-0.568
Mof_O 	O 	0.7718	0.6914	0.3886	-0.364
Mof_O 	O 	0.7711	0.7009	0.592	-0.562
Mof_N 	N 	0.6923	0.948	0.2825	-0.318
Mof_N 	N 	0.7235	0.8484	0.3381	-0.29
Mof_C 	C 	0.6765	0.9976	0.2496	0.137
Mof_H 	H 	0.6741	0.0054	0.1657	-0.065
Mof_C 	C 	0.6634	0.0379	0.3322	-0.215
Mof_C 	C 	0.6678	0.0254	0.4556	0.104
Mof_H 	H 	0.6612	0.0509	0.517	-0.011
Mof_C 	C 	0.6831	0.9713	0.4842	-0.178
Mof_H 	H 	0.6853	0.9612	0.5668	0.071
Mof_C 	C 	0.6941	0.9359	0.4014	0.089
Mof_C 	C 	0.713	0.8797	0.4362	0.052
Mof_C 	C 	0.7202	0.8597	0.5492	-0.137
Mof_H 	H 	0.7137	0.8832	0.6148	0.058
Mof_C 	C 	0.7353	0.8104	0.5779	0.063
Mof_H 	H 	0.7386	0.7987	0.6593	0.02
Mof_C 	C 	0.7462	0.776	0.4753	-0.165
Mof_C 	C 	0.7406	0.7985	0.3566	0.094
Mof_H 	H 	0.7494	0.7773	0.2884	-0.007
Mof_C 	C 	0.6468	0.0916	0.2922	0.428
Mof_C 	C 	0.7648	0.7184	0.4837	0.402
_end
