data_functionalizedCrystal
_audit_creation_method	'EQeq! by Chris Wilmer'
_symmetry_space_group_name_H-M	'P1'
_symmetry_Int_Tables_number	1
_symmetry_cell_setting	triclinic
loop_
_symmetry_equiv_pos_as_xyz
  x,y,z
_cell_length_a	16.2295
_cell_length_b	16.2295
_cell_length_c	28.0346
_cell_angle_alpha	80.1219
_cell_angle_beta	80.1219
_cell_angle_gamma	62.9324
loop_
_atom_site_label
_atom_site_type_symbol
_atom_site_fract_x
_atom_site_fract_y
_atom_site_fract_z
_atom_site_charge
Mof_Tb	Tb	0.43125	0.97098	0.95556	1.978
Mof_Tb	Tb	0.02902	0.56875	0.54444	1.988
Mof_Tb	Tb	0.56874	0.02902	0.04444	1.978
Mof_Tb	Tb	0.97098	0.43125	0.45556	1.988
Mof_H 	H 	0.4592	0.876	0.7943	0.019
Mof_H 	H 	0.4268	0.814	0.7363	0.074
Mof_H 	H 	0.3294	0.6684	0.8432	0.074
Mof_H 	H 	0.3576	0.7394	0.9002	0.021
Mof_H 	H 	0.3662	0.717	0.7135	0.054
Mof_H 	H 	0.7579	0.8249	0.0265	-0.077
Mof_H 	H 	0.9104	0.7052	0.0287	0.092
Mof_H 	H 	0.8493	0.5533	0.9557	0.098
Mof_H 	H 	0.7041	0.6713	0.9478	-0.006
Mof_H 	H 	0.028	0.5582	0.0127	0.054
Mof_H 	H 	0.6646	0.1766	0.9145	0.001
Mof_H 	H 	0.7175	0.2483	0.8444	0.083
Mof_H 	H 	0.6302	0.1298	0.7603	0.084
Mof_H 	H 	0.5763	0.0603	0.83	-0.001
Mof_H 	H 	0.7058	0.2246	0.7199	0.054
Mof_H 	H 	0.124	0.5408	0.7057	0.019
Mof_H 	H 	0.186	0.5732	0.7637	0.075
Mof_H 	H 	0.3316	0.6706	0.6568	0.074
Mof_H 	H 	0.2606	0.6424	0.5998	0.021
Mof_H 	H 	0.283	0.6338	0.7865	0.054
Mof_H 	H 	0.1751	0.2421	0.4735	-0.078
Mof_H 	H 	0.2948	0.0896	0.4713	0.092
Mof_H 	H 	0.4467	0.1507	0.5443	0.099
Mof_H 	H 	0.3287	0.2959	0.5522	-0.007
Mof_H 	H 	0.4418	0.972	0.4873	0.055
Mof_H 	H 	0.8234	0.3354	0.5855	-0
Mof_H 	H 	0.7517	0.2825	0.6556	0.083
Mof_H 	H 	0.8702	0.3698	0.7397	0.084
Mof_H 	H 	0.9397	0.4237	0.67	-0.002
Mof_H 	H 	0.7754	0.2942	0.7801	0.054
Mof_H 	H 	0.5408	0.124	0.2057	0.019
Mof_H 	H 	0.5732	0.186	0.2637	0.074
Mof_H 	H 	0.6706	0.3316	0.1568	0.074
Mof_H 	H 	0.6424	0.2606	0.0998	0.021
Mof_H 	H 	0.6338	0.283	0.2865	0.054
Mof_H 	H 	0.2421	0.1751	0.9735	-0.077
Mof_H 	H 	0.0896	0.2948	0.9713	0.092
Mof_H 	H 	0.1507	0.4467	0.0443	0.098
Mof_H 	H 	0.2959	0.3287	0.0522	-0.006
Mof_H 	H 	0.972	0.4418	0.9873	0.054
Mof_H 	H 	0.3354	0.8234	0.0855	0.001
Mof_H 	H 	0.2825	0.7517	0.1556	0.083
Mof_H 	H 	0.3698	0.8702	0.2397	0.084
Mof_H 	H 	0.4237	0.9397	0.17	-0.001
Mof_H 	H 	0.2942	0.7754	0.2801	0.054
Mof_H 	H 	0.876	0.4592	0.2943	0.019
Mof_H 	H 	0.814	0.4268	0.2363	0.075
Mof_H 	H 	0.6684	0.3294	0.3432	0.074
Mof_H 	H 	0.7394	0.3576	0.4002	0.021
Mof_H 	H 	0.717	0.3662	0.2135	0.054
Mof_H 	H 	0.8249	0.7579	0.5265	-0.078
Mof_H 	H 	0.7052	0.9104	0.5287	0.092
Mof_H 	H 	0.5533	0.8493	0.4557	0.099
Mof_H 	H 	0.6713	0.7041	0.4478	-0.007
Mof_H 	H 	0.5582	0.028	0.5127	0.055
Mof_H 	H 	0.1766	0.6646	0.4145	-0
Mof_H 	H 	0.2483	0.7175	0.3444	0.083
Mof_H 	H 	0.1298	0.6302	0.2603	0.084
Mof_H 	H 	0.0603	0.5763	0.33	-0.002
Mof_H 	H 	0.2246	0.7058	0.2199	0.054
Mof_C 	C 	0.4213	0.8593	0.8921	0.335
Mof_C 	C 	0.408	0.816	0.8537	-0.131
Mof_C 	C 	0.4306	0.8352	0.8043	0.063
Mof_C 	C 	0.413	0.7972	0.7698	-0.147
Mof_C 	C 	0.375	0.7338	0.7833	0.096
Mof_C 	C 	0.3547	0.7119	0.8326	-0.14
Mof_C 	C 	0.372	0.7546	0.8665	0.058
Mof_C 	C 	0.3472	0.7014	0.7464	-0.08
Mof_C 	C 	0.61964	0.83624	0.9824	0.508
Mof_C 	C 	0.7148	0.761	0.9857	-0.253
Mof_C 	C 	0.7765	0.7703	0.0112	0.158
Mof_C 	C 	0.8668	0.6974	0.0136	-0.223
Mof_C 	C 	0.8929	0.6167	0.9951	0.149
Mof_C 	C 	0.8309	0.6089	0.97	-0.216
Mof_C 	C 	0.7448	0.6788	0.9654	0.153
Mof_C 	C 	0.9854	0.5412	0.0026	-0.092
Mof_C 	C 	0.57901	0.06881	0.92295	0.5
Mof_C 	C 	0.61688	0.11048	0.8782	-0.207
Mof_C 	C 	0.6582	0.167	0.8831	0.102
Mof_C 	C 	0.69	0.209	0.8415	-0.168
Mof_C 	C 	0.6821	0.1937	0.7954	0.114
Mof_C 	C 	0.638	0.1388	0.7915	-0.175
Mof_C 	C 	0.606	0.0976	0.83287	0.11
Mof_C 	C 	0.7177	0.2337	0.7502	-0.084
Mof_C 	C 	0.1407	0.5787	0.6079	0.335
Mof_C 	C 	0.184	0.592	0.6463	-0.131
Mof_C 	C 	0.1648	0.5694	0.6957	0.063
Mof_C 	C 	0.2028	0.587	0.7302	-0.146
Mof_C 	C 	0.2662	0.625	0.7167	0.096
Mof_C 	C 	0.2881	0.6453	0.6674	-0.139
Mof_C 	C 	0.2454	0.628	0.6335	0.057
Mof_C 	C 	0.2986	0.6528	0.7536	-0.08
Mof_C 	C 	0.16376	0.38036	0.5176	0.513
Mof_C 	C 	0.239	0.2852	0.5143	-0.253
Mof_C 	C 	0.2297	0.2235	0.4888	0.158
Mof_C 	C 	0.3026	0.1332	0.4864	-0.227
Mof_C 	C 	0.3833	0.1071	0.5049	0.153
Mof_C 	C 	0.3911	0.1691	0.53	-0.218
Mof_C 	C 	0.3212	0.2552	0.5346	0.155
Mof_C 	C 	0.4588	0.0146	0.4974	-0.094
Mof_C 	C 	0.93119	0.42099	0.57705	0.502
Mof_C 	C 	0.88952	0.38312	0.6218	-0.209
Mof_C 	C 	0.833	0.3418	0.6169	0.103
Mof_C 	C 	0.791	0.31	0.6585	-0.169
Mof_C 	C 	0.8063	0.3179	0.7046	0.115
Mof_C 	C 	0.8612	0.362	0.7085	-0.176
Mof_C 	C 	0.9024	0.394	0.66713	0.111
Mof_C 	C 	0.7663	0.2823	0.7498	-0.085
Mof_C 	C 	0.5787	0.1407	0.1079	0.335
Mof_C 	C 	0.592	0.184	0.1463	-0.131
Mof_C 	C 	0.5694	0.1648	0.1957	0.063
Mof_C 	C 	0.587	0.2028	0.2302	-0.147
Mof_C 	C 	0.625	0.2662	0.2167	0.096
Mof_C 	C 	0.6453	0.2881	0.1674	-0.14
Mof_C 	C 	0.628	0.2454	0.1335	0.058
Mof_C 	C 	0.6528	0.2986	0.2536	-0.08
Mof_C 	C 	0.38036	0.16376	0.0176	0.508
Mof_C 	C 	0.2852	0.239	0.0143	-0.253
Mof_C 	C 	0.2235	0.2297	0.9888	0.158
Mof_C 	C 	0.1332	0.3026	0.9864	-0.223
Mof_C 	C 	0.1071	0.3833	0.0049	0.149
Mof_C 	C 	0.1691	0.3911	0.03	-0.216
Mof_C 	C 	0.2552	0.3212	0.0346	0.153
Mof_C 	C 	0.0146	0.4588	0.9974	-0.092
Mof_C 	C 	0.42099	0.93119	0.07705	0.5
Mof_C 	C 	0.38312	0.88952	0.1218	-0.207
Mof_C 	C 	0.3418	0.833	0.1169	0.102
Mof_C 	C 	0.31	0.791	0.1585	-0.168
Mof_C 	C 	0.3179	0.8063	0.2046	0.114
Mof_C 	C 	0.362	0.8612	0.2085	-0.175
Mof_C 	C 	0.394	0.9024	0.16713	0.11
Mof_C 	C 	0.2823	0.7663	0.2498	-0.084
Mof_C 	C 	0.8593	0.4213	0.3921	0.335
Mof_C 	C 	0.816	0.408	0.3537	-0.131
Mof_C 	C 	0.8352	0.4306	0.3043	0.063
Mof_C 	C 	0.7972	0.413	0.2698	-0.146
Mof_C 	C 	0.7338	0.375	0.2833	0.096
Mof_C 	C 	0.7119	0.3547	0.3326	-0.139
Mof_C 	C 	0.7546	0.372	0.3665	0.057
Mof_C 	C 	0.7014	0.3472	0.2464	-0.08
Mof_C 	C 	0.83624	0.61964	0.4824	0.513
Mof_C 	C 	0.761	0.7148	0.4857	-0.253
Mof_C 	C 	0.7703	0.7765	0.5112	0.158
Mof_C 	C 	0.6974	0.8668	0.5136	-0.227
Mof_C 	C 	0.6167	0.8929	0.4951	0.153
Mof_C 	C 	0.6089	0.8309	0.47	-0.218
Mof_C 	C 	0.6788	0.7448	0.4654	0.155
Mof_C 	C 	0.5412	0.9854	0.5026	-0.094
Mof_C 	C 	0.06881	0.57901	0.42295	0.502
Mof_C 	C 	0.11048	0.61688	0.3782	-0.209
Mof_C 	C 	0.167	0.6582	0.3831	0.103
Mof_C 	C 	0.209	0.69	0.3415	-0.169
Mof_C 	C 	0.1937	0.6821	0.2954	0.115
Mof_C 	C 	0.1388	0.638	0.2915	-0.176
Mof_C 	C 	0.0976	0.606	0.33287	0.111
Mof_C 	C 	0.2337	0.7177	0.2502	-0.085
Mof_O 	O 	0.45913	0.91293	0.87641	-0.433
Mof_O 	O 	0.39371	0.84911	0.93631	-0.431
Mof_O 	O 	0.56935	0.82655	0.95758	-0.475
Mof_O 	O 	0.59381	0.90701	0.00394	-0.62
Mof_O 	O 	0.54126	0.01926	0.91616	-0.535
Mof_O 	O 	0.58931	0.08431	0.96338	-0.539
Mof_O 	O 	0.08707	0.54087	0.62359	-0.433
Mof_O 	O 	0.15089	0.60629	0.56369	-0.431
Mof_O 	O 	0.17345	0.43065	0.54242	-0.477
Mof_O 	O 	0.09299	0.40619	0.49606	-0.625
Mof_O 	O 	0.98074	0.45874	0.58384	-0.537
Mof_O 	O 	0.91569	0.41069	0.53662	-0.541
Mof_O 	O 	0.54087	0.08707	0.12359	-0.433
Mof_O 	O 	0.60629	0.15089	0.06369	-0.431
Mof_O 	O 	0.43065	0.17345	0.04242	-0.475
Mof_O 	O 	0.40619	0.09299	0.99606	-0.62
Mof_O 	O 	0.45874	0.98074	0.08384	-0.535
Mof_O 	O 	0.41069	0.91569	0.03662	-0.539
Mof_O 	O 	0.91293	0.45913	0.37641	-0.433
Mof_O 	O 	0.84911	0.39371	0.43631	-0.431
Mof_O 	O 	0.82655	0.56935	0.45758	-0.477
Mof_O 	O 	0.90701	0.59381	0.50394	-0.625
Mof_O 	O 	0.01926	0.54126	0.41616	-0.537
Mof_O 	O 	0.08431	0.58931	0.46338	-0.541
_end
