# CIF file generated by openbabel 3.1.0, see https://openbabel.org
data_I
_chemical_name_common 'image0'
_cell_length_a 24.6493
_cell_length_b 24.0029
_cell_length_c 17.2267
_cell_angle_alpha 90
_cell_angle_beta 91.311
_cell_angle_gamma 90
_space_group_name_H-M_alt 'P 1'
_space_group_name_Hall 'P 1'
loop_
    _symmetry_equiv_pos_as_xyz
    x,y,z
loop_
    _atom_site_label
    _atom_site_type_symbol
    _atom_site_fract_x
    _atom_site_fract_y
    _atom_site_fract_z
    _atom_site_occupancy
    Zn1      Zn       0.35300    0.43412    0.18990    1.000
    O1       O        0.35370    0.45410    0.08120    1.000
    O2       O        0.29370    0.38130    0.19970    1.000
    O3       O        0.25620    0.43210    0.29600    1.000
    O4       O        0.91840    0.10840    0.20710    1.000
    O5       O        0.96680    0.06380    0.29740    1.000
    C1       C        0.35390    0.45110    0.84300    1.000
    H1       H        0.36010    0.41740    0.81780    1.000
    C2       C        0.34970    0.45340    0.92200    1.000
    H2       H        0.34500    0.42070    0.95000    1.000
    C3       C        0.26200    0.39200    0.25200    1.000
    C4       C        0.12680    0.31500    0.29400    1.000
    H3       H        0.09700    0.31940    0.32600    1.000
    C5       C        0.17000    0.35220    0.29900    1.000
    H4       H        0.16870    0.38190    0.33350    1.000
    C6       C        0.21420    0.34530    0.25200    1.000
    C7       C        0.21570    0.30100    0.20000    1.000
    H5       H        0.24550    0.29630    0.16840    1.000
    C8       C        0.17300    0.26350    0.19550    1.000
    H6       H        0.17380    0.23380    0.16080    1.000
    C9       C        0.12830    0.27040    0.24300    1.000
    C10      C        0.00520    0.18760    0.19120    1.000
    H7       H        0.97700    0.18990    0.15450    1.000
    C11      C        0.00680    0.14390    0.24400    1.000
    C12      C        0.04890    0.14040    0.29890    1.000
    H8       H        0.05000    0.11120    0.33430    1.000
    C13      C        0.08950    0.18060    0.30070    1.000
    H9       H        0.11770    0.17830    0.33740    1.000
    C14      C        0.08800    0.22430    0.24800    1.000
    C15      C        0.04580    0.22780    0.19300    1.000
    H10      H        0.04480    0.25700    0.15760    1.000
    C16      C        0.95600    0.10200    0.25200    1.000
    Zn2      Zn       0.85300    0.93412    0.18990    1.000
    O6       O        0.85370    0.95410    0.08120    1.000
    O7       O        0.79370    0.88130    0.19970    1.000
    O8       O        0.75620    0.93210    0.29600    1.000
    O9       O        0.41840    0.60840    0.20710    1.000
    O10      O        0.46680    0.56380    0.29740    1.000
    C17      C        0.85390    0.95110    0.84300    1.000
    H11      H        0.86010    0.91740    0.81780    1.000
    C18      C        0.84970    0.95340    0.92200    1.000
    H12      H        0.84500    0.92070    0.95000    1.000
    C19      C        0.76200    0.89200    0.25200    1.000
    C20      C        0.62680    0.81500    0.29400    1.000
    H13      H        0.59700    0.81940    0.32600    1.000
    C21      C        0.67000    0.85220    0.29900    1.000
    H14      H        0.66870    0.88190    0.33350    1.000
    C22      C        0.71420    0.84530    0.25200    1.000
    C23      C        0.71570    0.80100    0.20000    1.000
    H15      H        0.74550    0.79630    0.16840    1.000
    C24      C        0.67300    0.76350    0.19550    1.000
    H16      H        0.67380    0.73380    0.16080    1.000
    C25      C        0.62830    0.77040    0.24300    1.000
    C26      C        0.50520    0.68760    0.19120    1.000
    H17      H        0.47700    0.68990    0.15450    1.000
    C27      C        0.50680    0.64390    0.24400    1.000
    C28      C        0.54890    0.64040    0.29890    1.000
    H18      H        0.55000    0.61120    0.33430    1.000
    C29      C        0.58950    0.68060    0.30070    1.000
    H19      H        0.61770    0.67830    0.33740    1.000
    C30      C        0.58800    0.72430    0.24800    1.000
    C31      C        0.54580    0.72780    0.19300    1.000
    H20      H        0.54480    0.75700    0.15760    1.000
    C32      C        0.45600    0.60200    0.25200    1.000
    Zn3      Zn       0.35300    0.56588    0.18990    1.000
    O11      O        0.35370    0.54590    0.08120    1.000
    O12      O        0.29370    0.61870    0.19970    1.000
    O13      O        0.25620    0.56790    0.29600    1.000
    O14      O        0.91840    0.89160    0.20710    1.000
    O15      O        0.96680    0.93620    0.29740    1.000
    C33      C        0.35390    0.54890    0.84300    1.000
    H21      H        0.36010    0.58260    0.81780    1.000
    C34      C        0.34970    0.54660    0.92200    1.000
    H22      H        0.34500    0.57930    0.95000    1.000
    C35      C        0.26200    0.60800    0.25200    1.000
    C36      C        0.12680    0.68500    0.29400    1.000
    H23      H        0.09700    0.68060    0.32600    1.000
    C37      C        0.17000    0.64780    0.29900    1.000
    H24      H        0.16870    0.61810    0.33350    1.000
    C38      C        0.21420    0.65470    0.25200    1.000
    C39      C        0.21570    0.69900    0.20000    1.000
    H25      H        0.24550    0.70370    0.16840    1.000
    C40      C        0.17300    0.73650    0.19550    1.000
    H26      H        0.17380    0.76620    0.16080    1.000
    C41      C        0.12830    0.72960    0.24300    1.000
    C42      C        0.00520    0.81240    0.19120    1.000
    H27      H        0.97700    0.81010    0.15450    1.000
    C43      C        0.00680    0.85610    0.24400    1.000
    C44      C        0.04890    0.85960    0.29890    1.000
    H28      H        0.05000    0.88880    0.33430    1.000
    C45      C        0.08950    0.81940    0.30070    1.000
    H29      H        0.11770    0.82170    0.33740    1.000
    C46      C        0.08800    0.77570    0.24800    1.000
    C47      C        0.04580    0.77220    0.19300    1.000
    H30      H        0.04480    0.74300    0.15760    1.000
    C48      C        0.95600    0.89800    0.25200    1.000
    Zn4      Zn       0.85300    0.06588    0.18990    1.000
    O16      O        0.85370    0.04590    0.08120    1.000
    O17      O        0.79370    0.11870    0.19970    1.000
    O18      O        0.75620    0.06790    0.29600    1.000
    O19      O        0.41840    0.39160    0.20710    1.000
    O20      O        0.46680    0.43620    0.29740    1.000
    C49      C        0.85390    0.04890    0.84300    1.000
    H31      H        0.86010    0.08260    0.81780    1.000
    C50      C        0.84970    0.04660    0.92200    1.000
    H32      H        0.84500    0.07930    0.95000    1.000
    C51      C        0.76200    0.10800    0.25200    1.000
    C52      C        0.62680    0.18500    0.29400    1.000
    H33      H        0.59700    0.18060    0.32600    1.000
    C53      C        0.67000    0.14780    0.29900    1.000
    H34      H        0.66870    0.11810    0.33350    1.000
    C54      C        0.71420    0.15470    0.25200    1.000
    C55      C        0.71570    0.19900    0.20000    1.000
    H35      H        0.74550    0.20370    0.16840    1.000
    C56      C        0.67300    0.23650    0.19550    1.000
    H36      H        0.67380    0.26620    0.16080    1.000
    C57      C        0.62830    0.22960    0.24300    1.000
    C58      C        0.50520    0.31240    0.19120    1.000
    H37      H        0.47700    0.31010    0.15450    1.000
    C59      C        0.50680    0.35610    0.24400    1.000
    C60      C        0.54890    0.35960    0.29890    1.000
    H38      H        0.55000    0.38880    0.33430    1.000
    C61      C        0.58950    0.31940    0.30070    1.000
    H39      H        0.61770    0.32170    0.33740    1.000
    C62      C        0.58800    0.27570    0.24800    1.000
    C63      C        0.54580    0.27220    0.19300    1.000
    H40      H        0.54480    0.24300    0.15760    1.000
    C64      C        0.45600    0.39800    0.25200    1.000
    Zn5      Zn       0.41770    0.50000    0.31980    1.000
    Zn6      Zn       0.28690    0.50000    0.31960    1.000
    O21      O        0.35350    0.50000    0.25430    1.000
    O22      O        0.41020    0.50000    0.43270    1.000
    O23      O        0.31900    0.50000    0.42300    1.000
    C65      C        0.36360    0.50000    0.45800    1.000
    C66      C        0.31400    0.50000    0.58300    1.000
    H41      H        0.28250    0.50000    0.55130    1.000
    C67      C        0.31000    0.50000    0.66400    1.000
    H42      H        0.27660    0.50000    0.68700    1.000
    C68      C        0.35800    0.50000    0.70900    1.000
    C69      C        0.40800    0.50000    0.67400    1.000
    H43      H        0.43950    0.50000    0.70580    1.000
    C70      C        0.41300    0.50000    0.59400    1.000
    H44      H        0.44680    0.50000    0.57080    1.000
    C71      C        0.36500    0.50000    0.55100    1.000
    C72      C        0.34900    0.50000    0.80100    1.000
    C73      C        0.35200    0.50000    0.95700    1.000
    C74      C        0.35000    0.50000    0.04400    1.000
    Zn7      Zn       0.91770    0.00000    0.31980    1.000
    Zn8      Zn       0.78690    0.00000    0.31960    1.000
    O24      O        0.85350    0.00000    0.25430    1.000
    O25      O        0.91020    0.00000    0.43270    1.000
    O26      O        0.81900    0.00000    0.42300    1.000
    C75      C        0.86360    0.00000    0.45800    1.000
    C76      C        0.81400    0.00000    0.58300    1.000
    H45      H        0.78250    0.00000    0.55130    1.000
    C77      C        0.81000    0.00000    0.66400    1.000
    H46      H        0.77660    0.00000    0.68700    1.000
    C78      C        0.85800    0.00000    0.70900    1.000
    C79      C        0.90800    0.00000    0.67400    1.000
    H47      H        0.93950    0.00000    0.70580    1.000
    C80      C        0.91300    0.00000    0.59400    1.000
    H48      H        0.94680    0.00000    0.57080    1.000
    C81      C        0.86500    0.00000    0.55100    1.000
    C82      C        0.84900    0.00000    0.80100    1.000
    C83      C        0.85200    0.00000    0.95700    1.000
    C84      C        0.85000    0.00000    0.04400    1.000
    Zn9      Zn       0.64700    0.43412    0.81010    1.000
    O27      O        0.64630    0.45410    0.91880    1.000
    O28      O        0.70630    0.38130    0.80030    1.000
    O29      O        0.74380    0.43210    0.70400    1.000
    O30      O        0.08160    0.10840    0.79290    1.000
    O31      O        0.03320    0.06380    0.70260    1.000
    C85      C        0.64610    0.45110    0.15700    1.000
    H49      H        0.63990    0.41740    0.18220    1.000
    C86      C        0.65030    0.45340    0.07800    1.000
    H50      H        0.65500    0.42070    0.05000    1.000
    C87      C        0.73800    0.39200    0.74800    1.000
    C88      C        0.87320    0.31500    0.70600    1.000
    H51      H        0.90300    0.31940    0.67400    1.000
    C89      C        0.83000    0.35220    0.70100    1.000
    H52      H        0.83130    0.38190    0.66650    1.000
    C90      C        0.78580    0.34530    0.74800    1.000
    C91      C        0.78430    0.30100    0.80000    1.000
    H53      H        0.75450    0.29630    0.83160    1.000
    C92      C        0.82700    0.26350    0.80450    1.000
    H54      H        0.82620    0.23380    0.83920    1.000
    C93      C        0.87170    0.27040    0.75700    1.000
    C94      C        0.99480    0.18760    0.80880    1.000
    H55      H        0.02300    0.18990    0.84550    1.000
    C95      C        0.99320    0.14390    0.75600    1.000
    C96      C        0.95110    0.14040    0.70110    1.000
    H56      H        0.95000    0.11120    0.66570    1.000
    C97      C        0.91050    0.18060    0.69930    1.000
    H57      H        0.88230    0.17830    0.66260    1.000
    C98      C        0.91200    0.22430    0.75200    1.000
    C99      C        0.95420    0.22780    0.80700    1.000
    H58      H        0.95520    0.25700    0.84240    1.000
    C100     C        0.04400    0.10200    0.74800    1.000
    Zn10     Zn       0.14700    0.93412    0.81010    1.000
    O32      O        0.14630    0.95410    0.91880    1.000
    O33      O        0.20630    0.88130    0.80030    1.000
    O34      O        0.24380    0.93210    0.70400    1.000
    O35      O        0.58160    0.60840    0.79290    1.000
    O36      O        0.53320    0.56380    0.70260    1.000
    C101     C        0.14610    0.95110    0.15700    1.000
    H59      H        0.13990    0.91740    0.18220    1.000
    C102     C        0.15030    0.95340    0.07800    1.000
    H60      H        0.15500    0.92070    0.05000    1.000
    C103     C        0.23800    0.89200    0.74800    1.000
    C104     C        0.37320    0.81500    0.70600    1.000
    H61      H        0.40300    0.81940    0.67400    1.000
    C105     C        0.33000    0.85220    0.70100    1.000
    H62      H        0.33130    0.88190    0.66650    1.000
    C106     C        0.28580    0.84530    0.74800    1.000
    C107     C        0.28430    0.80100    0.80000    1.000
    H63      H        0.25450    0.79630    0.83160    1.000
    C108     C        0.32700    0.76350    0.80450    1.000
    H64      H        0.32620    0.73380    0.83920    1.000
    C109     C        0.37170    0.77040    0.75700    1.000
    C110     C        0.49480    0.68760    0.80880    1.000
    H65      H        0.52300    0.68990    0.84550    1.000
    C111     C        0.49320    0.64390    0.75600    1.000
    C112     C        0.45110    0.64040    0.70110    1.000
    H66      H        0.45000    0.61120    0.66570    1.000
    C113     C        0.41050    0.68060    0.69930    1.000
    H67      H        0.38230    0.67830    0.66260    1.000
    C114     C        0.41200    0.72430    0.75200    1.000
    C115     C        0.45420    0.72780    0.80700    1.000
    H68      H        0.45520    0.75700    0.84240    1.000
    C116     C        0.54400    0.60200    0.74800    1.000
    Zn11     Zn       0.64700    0.56588    0.81010    1.000
    O37      O        0.64630    0.54590    0.91880    1.000
    O38      O        0.70630    0.61870    0.80030    1.000
    O39      O        0.74380    0.56790    0.70400    1.000
    O40      O        0.08160    0.89160    0.79290    1.000
    O41      O        0.03320    0.93620    0.70260    1.000
    C117     C        0.64610    0.54890    0.15700    1.000
    H69      H        0.63990    0.58260    0.18220    1.000
    C118     C        0.65030    0.54660    0.07800    1.000
    H70      H        0.65500    0.57930    0.05000    1.000
    C119     C        0.73800    0.60800    0.74800    1.000
    C120     C        0.87320    0.68500    0.70600    1.000
    H71      H        0.90300    0.68060    0.67400    1.000
    C121     C        0.83000    0.64780    0.70100    1.000
    H72      H        0.83130    0.61810    0.66650    1.000
    C122     C        0.78580    0.65470    0.74800    1.000
    C123     C        0.78430    0.69900    0.80000    1.000
    H73      H        0.75450    0.70370    0.83160    1.000
    C124     C        0.82700    0.73650    0.80450    1.000
    H74      H        0.82620    0.76620    0.83920    1.000
    C125     C        0.87170    0.72960    0.75700    1.000
    C126     C        0.99480    0.81240    0.80880    1.000
    H75      H        0.02300    0.81010    0.84550    1.000
    C127     C        0.99320    0.85610    0.75600    1.000
    C128     C        0.95110    0.85960    0.70110    1.000
    H76      H        0.95000    0.88880    0.66570    1.000
    C129     C        0.91050    0.81940    0.69930    1.000
    H77      H        0.88230    0.82170    0.66260    1.000
    C130     C        0.91200    0.77570    0.75200    1.000
    C131     C        0.95420    0.77220    0.80700    1.000
    H78      H        0.95520    0.74300    0.84240    1.000
    C132     C        0.04400    0.89800    0.74800    1.000
    Zn12     Zn       0.14700    0.06588    0.81010    1.000
    O42      O        0.14630    0.04590    0.91880    1.000
    O43      O        0.20630    0.11870    0.80030    1.000
    O44      O        0.24380    0.06790    0.70400    1.000
    O45      O        0.58160    0.39160    0.79290    1.000
    O46      O        0.53320    0.43620    0.70260    1.000
    C133     C        0.14610    0.04890    0.15700    1.000
    H79      H        0.13990    0.08260    0.18220    1.000
    C134     C        0.15030    0.04660    0.07800    1.000
    H80      H        0.15500    0.07930    0.05000    1.000
    C135     C        0.23800    0.10800    0.74800    1.000
    C136     C        0.37320    0.18500    0.70600    1.000
    H81      H        0.40300    0.18060    0.67400    1.000
    C137     C        0.33000    0.14780    0.70100    1.000
    H82      H        0.33130    0.11810    0.66650    1.000
    C138     C        0.28580    0.15470    0.74800    1.000
    C139     C        0.28430    0.19900    0.80000    1.000
    H83      H        0.25450    0.20370    0.83160    1.000
    C140     C        0.32700    0.23650    0.80450    1.000
    H84      H        0.32620    0.26620    0.83920    1.000
    C141     C        0.37170    0.22960    0.75700    1.000
    C142     C        0.49480    0.31240    0.80880    1.000
    H85      H        0.52300    0.31010    0.84550    1.000
    C143     C        0.49320    0.35610    0.75600    1.000
    C144     C        0.45110    0.35960    0.70110    1.000
    H86      H        0.45000    0.38880    0.66570    1.000
    C145     C        0.41050    0.31940    0.69930    1.000
    H87      H        0.38230    0.32170    0.66260    1.000
    C146     C        0.41200    0.27570    0.75200    1.000
    C147     C        0.45420    0.27220    0.80700    1.000
    H88      H        0.45520    0.24300    0.84240    1.000
    C148     C        0.54400    0.39800    0.74800    1.000
    Zn13     Zn       0.58230    0.50000    0.68020    1.000
    Zn14     Zn       0.71310    0.50000    0.68040    1.000
    O47      O        0.64650    0.50000    0.74570    1.000
    O48      O        0.58980    0.50000    0.56730    1.000
    O49      O        0.68100    0.50000    0.57700    1.000
    C149     C        0.63640    0.50000    0.54200    1.000
    C150     C        0.68600    0.50000    0.41700    1.000
    H89      H        0.71750    0.50000    0.44870    1.000
    C151     C        0.69000    0.50000    0.33600    1.000
    H90      H        0.72340    0.50000    0.31300    1.000
    C152     C        0.64200    0.50000    0.29100    1.000
    C153     C        0.59200    0.50000    0.32600    1.000
    H91      H        0.56050    0.50000    0.29420    1.000
    C154     C        0.58700    0.50000    0.40600    1.000
    H92      H        0.55320    0.50000    0.42920    1.000
    C155     C        0.63500    0.50000    0.44900    1.000
    C156     C        0.65100    0.50000    0.19900    1.000
    C157     C        0.64800    0.50000    0.04300    1.000
    C158     C        0.65000    0.50000    0.95600    1.000
    Zn15     Zn       0.08230    0.00000    0.68020    1.000
    Zn16     Zn       0.21310    0.00000    0.68040    1.000
    O50      O        0.14650    0.00000    0.74570    1.000
    O51      O        0.08980    0.00000    0.56730    1.000
    O52      O        0.18100    0.00000    0.57700    1.000
    C159     C        0.13640    0.00000    0.54200    1.000
    C160     C        0.18600    0.00000    0.41700    1.000
    H93      H        0.21750    0.00000    0.44870    1.000
    C161     C        0.19000    0.00000    0.33600    1.000
    H94      H        0.22340    0.00000    0.31300    1.000
    C162     C        0.14200    0.00000    0.29100    1.000
    C163     C        0.09200    0.00000    0.32600    1.000
    H95      H        0.06050    0.00000    0.29420    1.000
    C164     C        0.08700    0.00000    0.40600    1.000
    H96      H        0.05320    0.00000    0.42920    1.000
    C165     C        0.13500    0.00000    0.44900    1.000
    C166     C        0.15100    0.00000    0.19900    1.000
    C167     C        0.14800    0.00000    0.04300    1.000
    C168     C        0.15000    0.00000    0.95600    1.000
