data_functionalizedCrystal
_audit_creation_method	'EQeq! by Chris Wilmer'
_symmetry_space_group_name_H-M	'P1'
_symmetry_Int_Tables_number	1
_symmetry_cell_setting	triclinic
loop_
_symmetry_equiv_pos_as_xyz
  x,y,z
_cell_length_a	6.307
_cell_length_b	10.4919
_cell_length_c	12.611
_cell_angle_alpha	90
_cell_angle_beta	90
_cell_angle_gamma	91.227
loop_
_atom_site_label
_atom_site_type_symbol
_atom_site_fract_x
_atom_site_fract_y
_atom_site_fract_z
_atom_site_charge
Mof_Co	Co	0.372	0.25995	0.24626	1.159
Mof_Co	Co	0.872	0.75995	0.75374	1.147
Mof_H 	H 	0.7645	0.9868	0.6298	0.007
Mof_H 	H 	0.8866	0.1136	0.4913	0.087
Mof_H 	H 	0.4248	0.9166	0.4924	0.088
Mof_H 	H 	0.2911	0.8002	0.6335	0.01
Mof_H 	H 	0.9468	0.3195	0.1506	-0.078
Mof_H 	H 	0.8034	0.4409	0.0218	0.154
Mof_H 	H 	0.3533	0.6416	0.0133	0.115
Mof_H 	H 	0.4778	0.5151	0.1436	-0.026
Mof_H 	H 	0.2645	0.4868	0.3702	0.004
Mof_H 	H 	0.3866	0.6136	0.5087	0.085
Mof_H 	H 	0.9248	0.4166	0.5076	0.072
Mof_H 	H 	0.7911	0.3002	0.3665	0.007
Mof_H 	H 	0.4468	0.8195	0.8494	0.01
Mof_H 	H 	0.3034	0.9409	0.9782	0.095
Mof_H 	H 	0.8533	0.1416	0.9867	0.072
Mof_H 	H 	0.9778	0.0151	0.8564	0.014
Mof_C 	C 	0.2073	0.8622	0.6039	0.081
Mof_C 	C 	0.9767	0.6347	0.912	0.162
Mof_C 	C 	0.8989	0.9735	0.6021	0.011
Mof_C 	C 	0.9711	0.0499	0.5186	-0.113
Mof_C 	C 	0.1724	0.0292	0.4767	0.057
Mof_C 	C 	0.2911	0.9336	0.5193	-0.122
Mof_C 	C 	0.2576	0.1095	0.3852	0.262
Mof_C 	C 	0.0307	0.3842	0.1209	0.264
Mof_C 	C 	0.9413	0.4574	0.0448	-0.315
Mof_C 	C 	0.0637	0.5592	0.0016	0.157
Mof_C 	C 	0.267	0.5762	0.0401	-0.192
Mof_C 	C 	0.3425	0.4985	0.1169	0.123
Mof_C 	C 	0.7073	0.3622	0.3961	0.059
Mof_C 	C 	0.4767	0.1347	0.088	0.262
Mof_C 	C 	0.3989	0.4735	0.3979	0.054
Mof_C 	C 	0.4711	0.5499	0.4814	-0.082
Mof_C 	C 	0.6724	0.5292	0.5233	-0.003
Mof_C 	C 	0.7911	0.4336	0.4807	-0.09
Mof_C 	C 	0.7576	0.6095	0.6148	0.278
Mof_C 	C 	0.5307	0.8842	0.8791	0.071
Mof_C 	C 	0.4413	0.9574	0.9552	-0.111
Mof_C 	C 	0.5637	0.0592	0.9984	0.016
Mof_C 	C 	0.767	0.0762	0.9599	-0.06
Mof_C 	C 	0.8425	0.9985	0.8831	0.011
Mof_N 	N 	0.0177	0.881	0.6438	-0.211
Mof_N 	N 	0.2292	0.3976	0.1563	-0.283
Mof_N 	N 	0.5177	0.381	0.3562	-0.237
Mof_N 	N 	0.7292	0.8976	0.8437	-0.239
Mof_O 	O 	0.4408	0.0987	0.3568	-0.348
Mof_O 	O 	0.1342	0.1952	0.3476	-0.363
Mof_O 	O 	0.7886	0.6233	0.8847	-0.319
Mof_O 	O 	0.1002	0.7155	0.8655	-0.325
Mof_O 	O 	0.9408	0.5987	0.6432	-0.37
Mof_O 	O 	0.6342	0.6952	0.6524	-0.385
Mof_O 	O 	0.2886	0.1233	0.1153	-0.338
Mof_O 	O 	0.6002	0.2155	0.1345	-0.384
_end
