# CIF file generated by openbabel 3.1.0, see https://openbabel.org
data_I
_chemical_name_common 'image0'
_cell_length_a 10.8285
_cell_length_b 11.1933
_cell_length_c 14.799
_cell_angle_alpha 90
_cell_angle_beta 90
_cell_angle_gamma 90
_space_group_name_H-M_alt 'P 1'
_space_group_name_Hall 'P 1'
loop_
    _symmetry_equiv_pos_as_xyz
    x,y,z
loop_
    _atom_site_label
    _atom_site_type_symbol
    _atom_site_fract_x
    _atom_site_fract_y
    _atom_site_fract_z
    _atom_site_occupancy
    Zn1      Zn       0.34279    0.81577    0.15840    1.000
    O1       O        0.26005    0.24718    0.56238    1.000
    O2       O        0.10602    0.37047    0.52490    1.000
    O3       O        0.40304    0.70387    0.24790    1.000
    O4       O        0.21025    0.69836    0.29872    1.000
    N1       N        0.49701    0.39689    0.37997    1.000
    C1       C        0.46436    0.49909    0.33816    1.000
    H1       H        0.52200    0.53630    0.29880    1.000
    C2       C        0.41604    0.34601    0.43704    1.000
    H2       H        0.43860    0.27390    0.46670    1.000
    C3       C        0.30105    0.39490    0.45414    1.000
    C4       C        0.26720    0.49950    0.40980    1.000
    H3       H        0.18850    0.53450    0.42010    1.000
    C5       C        0.35020    0.55179    0.35045    1.000
    C6       C        0.21200    0.33560    0.51874    1.000
    C7       C        0.31580    0.66090    0.29602    1.000
    Zn2      Zn       0.15721    0.18423    0.65840    1.000
    O5       O        0.23995    0.75282    0.06238    1.000
    O6       O        0.39398    0.62953    0.02490    1.000
    O7       O        0.09696    0.29613    0.74790    1.000
    O8       O        0.28975    0.30164    0.79872    1.000
    N2       N        0.00299    0.60311    0.87997    1.000
    C8       C        0.03564    0.50091    0.83816    1.000
    H4       H        0.97800    0.46370    0.79880    1.000
    C9       C        0.08396    0.65399    0.93704    1.000
    H5       H        0.06140    0.72610    0.96670    1.000
    C10      C        0.19895    0.60510    0.95414    1.000
    C11      C        0.23280    0.50050    0.90980    1.000
    H6       H        0.31150    0.46550    0.92010    1.000
    C12      C        0.14980    0.44821    0.85045    1.000
    C13      C        0.28800    0.66440    0.01874    1.000
    C14      C        0.18420    0.33910    0.79602    1.000
    Zn3      Zn       0.65721    0.31577    0.34160    1.000
    O9       O        0.73995    0.74718    0.93762    1.000
    O10      O        0.89398    0.87047    0.97510    1.000
    O11      O        0.59696    0.20387    0.25210    1.000
    O12      O        0.78975    0.19836    0.20128    1.000
    N3       N        0.50299    0.89689    0.12003    1.000
    C15      C        0.53564    0.99909    0.16184    1.000
    H7       H        0.47800    0.03630    0.20120    1.000
    C16      C        0.58396    0.84601    0.06296    1.000
    H8       H        0.56140    0.77390    0.03330    1.000
    C17      C        0.69895    0.89490    0.04586    1.000
    C18      C        0.73280    0.99950    0.09020    1.000
    H9       H        0.81150    0.03450    0.07990    1.000
    C19      C        0.64980    0.05179    0.14955    1.000
    C20      C        0.78800    0.83560    0.98126    1.000
    C21      C        0.68420    0.16090    0.20398    1.000
    Zn4      Zn       0.84279    0.68423    0.84160    1.000
    O13      O        0.76005    0.25282    0.43762    1.000
    O14      O        0.60602    0.12953    0.47510    1.000
    O15      O        0.90304    0.79613    0.75210    1.000
    O16      O        0.71025    0.80164    0.70128    1.000
    N4       N        0.99701    0.10311    0.62003    1.000
    C22      C        0.96436    0.00091    0.66184    1.000
    H10      H        0.02200    0.96370    0.70120    1.000
    C23      C        0.91604    0.15399    0.56296    1.000
    H11      H        0.93860    0.22610    0.53330    1.000
    C24      C        0.80105    0.10510    0.54586    1.000
    C25      C        0.76720    0.00050    0.59020    1.000
    H12      H        0.68850    0.96550    0.57990    1.000
    C26      C        0.85020    0.94821    0.64955    1.000
    C27      C        0.71200    0.16440    0.48126    1.000
    C28      C        0.81580    0.83910    0.70398    1.000
