# CIF file generated by openbabel 3.1.0, see https://openbabel.org
data_I
_chemical_name_common 'image0'
_cell_length_a 33.4649
_cell_length_b 33.4755
_cell_length_c 26.6222
_cell_angle_alpha 90
_cell_angle_beta 127.581
_cell_angle_gamma 90
_space_group_name_H-M_alt 'P 1'
_space_group_name_Hall 'P 1'
loop_
    _symmetry_equiv_pos_as_xyz
    x,y,z
loop_
    _atom_site_label
    _atom_site_type_symbol
    _atom_site_fract_x
    _atom_site_fract_y
    _atom_site_fract_z
    _atom_site_occupancy
    As1      As       0.36191    0.87278    0.51968    1.000
    As2      As       0.19808    0.86890    0.16285    1.000
    As3      As       0.38266    0.63215    0.02096    1.000
    As4      As       0.19396    0.61145    0.66583    1.000
    C1       C        0.44060    0.45600    0.97700    1.000
    C2       C        0.38750    0.57420    0.68600    1.000
    C3       C        0.40060    0.46360    0.77040    1.000
    H1       H        0.40240    0.43980    0.78980    1.000
    C4       C        0.39230    0.53430    0.71450    1.000
    C5       C        0.04340    0.79370    0.20740    1.000
    C6       C        0.41280    0.44800    0.00430    1.000
    C7       C        0.16770    0.71200    0.42100    1.000
    H2       H        0.13480    0.71830    0.40500    1.000
    C8       C        0.26290    0.69510    0.46950    1.000
    C9       C        0.03760    0.72620    0.23400    1.000
    H3       H        0.02040    0.70610    0.23770    1.000
    C10      C        0.19670    0.74120    0.41480    1.000
    H4       H        0.18240    0.76530    0.39410    1.000
    C11      C        0.31750    0.68930    0.49890    1.000
    C12      C        0.01290    0.76360    0.20080    1.000
    H5       H        0.97820    0.76680    0.17650    1.000
    C13      C        0.47570    0.43080    0.98000    1.000
    H6       H        0.48470    0.40600    0.00030    1.000
    C14      C        0.37480    0.49990    0.77300    1.000
    H7       H        0.36040    0.49850    0.79410    1.000
    C15      C        0.42160    0.46630    0.73820    1.000
    H8       H        0.43850    0.44480    0.73660    1.000
    C16      C        0.49550    0.44530    0.95200    1.000
    H9       H        0.52010    0.43000    0.95470    1.000
    C17      C        0.48350    0.47710    0.92230    1.000
    H10      H        0.49600    0.48400    0.90050    1.000
    C18      C        0.44900    0.50390    0.92280    1.000
    H11      H        0.44190    0.52890    0.90400    1.000
    C19      C        0.41620    0.50230    0.70890    1.000
    H12      H        0.42830    0.50510    0.68560    1.000
    C20      C        0.18550    0.67860    0.44720    1.000
    H13      H        0.16490    0.66070    0.44870    1.000
    C21      C        0.23480    0.66760    0.47400    1.000
    H14      H        0.24800    0.64300    0.49380    1.000
    C22      C        0.11310    0.75440    0.25960    1.000
    H15      H        0.14680    0.75100    0.27720    1.000
    C23      C        0.08610    0.72230    0.25820    1.000
    H16      H        0.10200    0.69780    0.27450    1.000
    C24      C        0.02440    0.83480    0.18200    1.000
    Dy1      Dy       0.21826    0.87556    0.41516    1.000
    Dy2      Dy       0.24942    0.77404    0.26428    1.000
    Dy3      Dy       0.42043    0.63277    0.91212    1.000
    Dy4      Dy       0.24719    0.52247    0.77691    1.000
    K1       K        0.32910    0.57630    0.51960    1.000
    K2       K        0.41640    0.66600    0.51280    1.000
    K3       K        0.40380    0.66430    0.66820    1.000
    K4       K        0.99340    0.92560    0.16800    1.000
    N1       N        0.42750    0.49310    0.94940    1.000
    N2       N        0.37300    0.53460    0.74510    1.000
    N3       N        0.24560    0.73240    0.43990    1.000
    N4       N        0.09150    0.78980    0.23610    1.000
    O1       O        0.48680    0.92370    0.61700    1.000
    O2       O        0.44280    0.92270    0.66950    1.000
    O3       O        0.48690    0.85790    0.67230    1.000
    O4       O        0.38460    0.98440    0.60130    1.000
    O5       O        0.38810    0.88020    0.69400    1.000
    O6       O        0.43280    0.81290    0.69450    1.000
    O7       O        0.43060    0.98500    0.55090    1.000
    O8       O        0.49680    0.87710    0.54120    1.000
    O9       O        0.42190    0.93030    0.47140    1.000
    O10      O        0.33180    0.99220    0.47780    1.000
    O11      O        0.37470    0.92510    0.53480    1.000
    O12      O        0.32710    0.92670    0.59390    1.000
    O13      O        0.42170    0.85970    0.53880    1.000
    O14      O        0.37630    0.85750    0.59410    1.000
    O15      O        0.33210    0.81550    0.63010    1.000
    O16      O        0.38390    0.74190    0.64960    1.000
    O17      O        0.32280    0.77880    0.53470    1.000
    O18      O        0.42110    0.78620    0.59160    1.000
    O19      O        0.26980    0.86350    0.52150    1.000
    O20      O        0.26980    0.93210    0.46600    1.000
    O21      O        0.49740    0.81180    0.59580    1.000
    O22      O        0.43560    0.81730    0.47210    1.000
    O23      O        0.44890    0.74380    0.52910    1.000
    O24      O        0.35750    0.79200    0.46780    1.000
    O25      O        0.32530    0.93970    0.39130    1.000
    O26      O        0.35820    0.86900    0.40930    1.000
    O27      O        0.06160    0.95180    0.15020    1.000
    O28      O        0.16270    0.69500    0.71290    1.000
    O29      O        0.20340    0.94930    0.06920    1.000
    O30      O        0.27940    0.95350    0.21630    1.000
    O31      O        0.24480    0.87520    0.15050    1.000
    O32      O        0.19750    0.65980    0.64160    1.000
    O33      O        0.09280    0.68650    0.56610    1.000
    O34      O        0.10140    0.96840    0.08690    1.000
    O35      O        0.38750    0.60360    0.81370    1.000
    O36      O        0.26260    0.88370    0.38000    1.000
    O37      O        0.17910    0.87830    0.01740    1.000
    O38      O        0.35430    0.68490    0.11890    1.000
    O39      O        0.16400    0.96470    0.21180    1.000
    O40      O        0.19350    0.64140    0.79380    1.000
    O41      O        0.33770    0.63600    0.87640    1.000
    O42      O        0.25890    0.58670    0.80870    1.000
    O43      O        0.06970    0.66700    0.64040    1.000
    O44      O        0.34060    0.54960    0.97840    1.000
    O45      O        0.36820    0.60100    0.69760    1.000
    O46      O        0.41890    0.68890    0.95950    1.000
    O47      O        0.47620    0.62500    0.01970    1.000
    O48      O        0.27060    0.71080    0.70180    1.000
    O49      O        0.17490    0.92070    0.14480    1.000
    O50      O        0.30410    0.55570    0.76580    1.000
    O51      O        0.27550    0.62300    0.91230    1.000
    O52      O        0.40130    0.54810    0.09990    1.000
    O53      O        0.18440    0.80830    0.25720    1.000
    O54      O        0.25550    0.81420    0.42060    1.000
    O55      O        0.24030    0.63040    0.58810    1.000
    O56      O        0.10710    0.53800    0.60260    1.000
    O57      O        0.16380    0.54610    0.72570    1.000
    O58      O        0.27400    0.85420    0.08310    1.000
    O59      O        0.20380    0.51780    0.66870    1.000
    O60      O        0.32590    0.89470    0.29070    1.000
    O61      O        0.27140    0.63500    0.04740    1.000
    O62      O        0.14030    0.89000    0.21240    1.000
    O63      O        0.19340    0.99360    0.14440    1.000
    O64      O        0.26540    0.57230    0.98270    1.000
    O65      O        0.43820    0.53860    0.03980    1.000
    O66      O        0.27450    0.68460    0.97220    1.000
    O67      O        0.48620    0.58150    0.19930    1.000
    O68      O        0.06940    0.61480    0.51870    1.000
    O69      O        0.28210    0.56570    0.65280    1.000
    O70      O        0.39300    0.56910    0.92620    1.000
    O71      O        0.16200    0.59150    0.48910    1.000
    O72      O        0.05710    0.85750    0.98610    1.000
    O73      O        0.97700    0.83970    0.14650    1.000
    O74      O        0.34350    0.61860    0.04260    1.000
    O75      O        0.48520    0.68880    0.08490    1.000
    O76      O        0.25210    0.56440    0.53230    1.000
    O77      O        0.42170    0.41590    0.03540    1.000
    O78      O        0.38030    0.47370    0.99360    1.000
    O79      O        0.33610    0.74310    0.04100    1.000
    O80      O        0.40360    0.57990    0.65480    1.000
    O81      O        0.09540    0.82360    0.14570    1.000
    O82      O        0.27270    0.83700    0.30180    1.000
    O83      O        0.14670    0.84810    0.08660    1.000
    O84      O        0.15280    0.85360    0.31490    1.000
    O85      O        0.12810    0.65550    0.50550    1.000
    O86      O        0.43370    0.74830    0.09030    1.000
    O87      O        0.33660    0.71740    0.48300    1.000
    O88      O        0.33010    0.57250    0.10980    1.000
    O89      O        0.27290    0.75530    0.36510    1.000
    O90      O        0.17150    0.58650    0.59230    1.000
    O91      O        0.11180    0.92390    0.01250    1.000
    O92      O        0.07410    0.89230    0.08620    1.000
    O93      O        0.52790    0.64660    0.19080    1.000
    O94      O        0.37990    0.68450    0.02780    1.000
    O95      O        0.28100    0.80010    0.21360    1.000
    O96      O        0.13680    0.61840    0.65600    1.000
    O97      O        0.10010    0.54580    0.49740    1.000
    O98      O        0.34240    0.66020    0.53370    1.000
    O99      O        0.18660    0.77400    0.15540    1.000
    O100     O        0.29850    0.92540    0.13900    1.000
    O101     O        0.10230    0.60260    0.71530    1.000
    O102     O        0.44220    0.62050    0.09500    1.000
    O103     O        0.29870    0.63470    0.71130    1.000
    O104     O        0.31510    0.50150    0.04580    1.000
    O105     O        0.19600    0.52440    0.55850    1.000
    O106     O        0.04380    0.59370    0.59090    1.000
    O107     O        0.08720    0.78740    0.04960    1.000
    O108     O        0.00460    0.82900    0.02650    1.000
    O109     O        0.24520    0.91860    0.27550    1.000
    O110     O        0.21010    0.70520    0.57550    1.000
    O111     O        0.28940    0.69160    0.88870    1.000
    O112     O        0.49760    0.50760    0.16210    1.000
    O113     O        0.05690    0.85930    0.19610    1.000
    O114     O        0.12300    0.81140    0.98760    1.000
    O115     O        0.17400    0.73410    0.63190    1.000
    O116     O        0.41020    0.62370    0.17620    1.000
    O117     O        0.33800    0.85730    0.20810    1.000
    O118     O        0.31140    0.69130    0.64050    1.000
    O119     O        0.32340    0.51080    0.87560    1.000
    O120     O        0.52240    0.58060    0.13150    1.000
    O121     O        0.21700    0.79890    0.08960    1.000
    O122     O        0.25400    0.66800    0.77240    1.000
    O123     O        0.36460    0.74850    0.96940    1.000
    O124     O        0.44760    0.68670    0.16710    1.000
    W1       W        0.44414    0.87007    0.69992    1.000
    W2       W        0.44431    0.96269    0.62051    1.000
    W3       W        0.50478    0.87050    0.62131    1.000
    W4       W        0.31708    0.87259    0.60651    1.000
    W5       W        0.37563    0.78867    0.61535    1.000
    W6       W        0.43476    0.79190    0.53451    1.000
    W7       W        0.43230    0.87469    0.46271    1.000
    W8       W        0.37367    0.96818    0.45874    1.000
    W9       W        0.31685    0.96208    0.52965    1.000
    W10      W        0.29689    0.77201    0.44030    1.000
    W11      W        0.29356    0.88423    0.34187    1.000
    W12      W        0.13311    0.84066    0.23762    1.000
    W13      W        0.22724    0.96569    0.22294    1.000
    W14      W        0.32388    0.90930    0.22827    1.000
    W15      W        0.28347    0.81899    0.15436    1.000
    W16      W        0.15578    0.78236    0.07305    1.000
    W17      W        0.06636    0.83639    0.06257    1.000
    W18      W        0.10876    0.93379    0.14618    1.000
    W19      W        0.14884    0.96347    0.06377    1.000
    W20      W        0.11113    0.86559    0.98347    1.000
    W21      W        0.24261    0.90347    0.06643    1.000
    W22      W        0.34329    0.63201    0.12775    1.000
    W23      W        0.39577    0.72499    0.11471    1.000
    W24      W        0.47865    0.63619    0.19966    1.000
    W25      W        0.33260    0.55054    0.04772    1.000
    W26      W        0.25866    0.62989    0.96938    1.000
    W27      W        0.30643    0.72383    0.95354    1.000
    W28      W        0.43143    0.72256    0.02032    1.000
    W29      W        0.51206    0.63645    0.10316    1.000
    W30      W        0.46934    0.55186    0.12316    1.000
    W31      W        0.27389    0.63579    0.84255    1.000
    W32      W        0.37514    0.52961    0.94961    1.000
    W33      W        0.33314    0.58626    0.74116    1.000
    W34      W        0.13141    0.65491    0.72880    1.000
    W35      W        0.10359    0.56158    0.66515    1.000
    W36      W        0.15254    0.52089    0.58614    1.000
    W37      W        0.22808    0.57416    0.56802    1.000
    W38      W        0.26270    0.67504    0.63994    1.000
    W39      W        0.21759    0.71123    0.71364    1.000
    W40      W        0.05448    0.64181    0.56777    1.000
    W41      W        0.14121    0.70099    0.55567    1.000
    W42      W        0.10513    0.59957    0.48640    1.000
    As5      As       0.86191    0.37278    0.51968    1.000
    As6      As       0.69808    0.36890    0.16285    1.000
    As7      As       0.88266    0.13215    0.02096    1.000
    As8      As       0.69396    0.11145    0.66583    1.000
    C25      C        0.94060    0.95600    0.97700    1.000
    C26      C        0.88750    0.07420    0.68600    1.000
    C27      C        0.90060    0.96360    0.77040    1.000
    H17      H        0.90240    0.93980    0.78980    1.000
    C28      C        0.89230    0.03430    0.71450    1.000
    C29      C        0.54340    0.29370    0.20740    1.000
    C30      C        0.91280    0.94800    0.00430    1.000
    C31      C        0.66770    0.21200    0.42100    1.000
    H18      H        0.63480    0.21830    0.40500    1.000
    C32      C        0.76290    0.19510    0.46950    1.000
    C33      C        0.53760    0.22620    0.23400    1.000
    H19      H        0.52040    0.20610    0.23770    1.000
    C34      C        0.69670    0.24120    0.41480    1.000
    H20      H        0.68240    0.26530    0.39410    1.000
    C35      C        0.81750    0.18930    0.49890    1.000
    C36      C        0.51290    0.26360    0.20080    1.000
    H21      H        0.47820    0.26680    0.17650    1.000
    C37      C        0.97570    0.93080    0.98000    1.000
    H22      H        0.98470    0.90600    0.00030    1.000
    C38      C        0.87480    0.99990    0.77300    1.000
    H23      H        0.86040    0.99850    0.79410    1.000
    C39      C        0.92160    0.96630    0.73820    1.000
    H24      H        0.93850    0.94480    0.73660    1.000
    C40      C        0.99550    0.94530    0.95200    1.000
    H25      H        0.02010    0.93000    0.95470    1.000
    C41      C        0.98350    0.97710    0.92230    1.000
    H26      H        0.99600    0.98400    0.90050    1.000
    C42      C        0.94900    0.00390    0.92280    1.000
    H27      H        0.94190    0.02890    0.90400    1.000
    C43      C        0.91620    0.00230    0.70890    1.000
    H28      H        0.92830    0.00510    0.68560    1.000
    C44      C        0.68550    0.17860    0.44720    1.000
    H29      H        0.66490    0.16070    0.44870    1.000
    C45      C        0.73480    0.16760    0.47400    1.000
    H30      H        0.74800    0.14300    0.49380    1.000
    C46      C        0.61310    0.25440    0.25960    1.000
    H31      H        0.64680    0.25100    0.27720    1.000
    C47      C        0.58610    0.22230    0.25820    1.000
    H32      H        0.60200    0.19780    0.27450    1.000
    C48      C        0.52440    0.33480    0.18200    1.000
    Dy5      Dy       0.71826    0.37556    0.41516    1.000
    Dy6      Dy       0.74942    0.27404    0.26428    1.000
    Dy7      Dy       0.92043    0.13277    0.91212    1.000
    Dy8      Dy       0.74719    0.02247    0.77691    1.000
    K5       K        0.82910    0.07630    0.51960    1.000
    K6       K        0.91640    0.16600    0.51280    1.000
    K7       K        0.90380    0.16430    0.66820    1.000
    K8       K        0.49340    0.42560    0.16800    1.000
    N5       N        0.92750    0.99310    0.94940    1.000
    N6       N        0.87300    0.03460    0.74510    1.000
    N7       N        0.74560    0.23240    0.43990    1.000
    N8       N        0.59150    0.28980    0.23610    1.000
    O125     O        0.98680    0.42370    0.61700    1.000
    O126     O        0.94280    0.42270    0.66950    1.000
    O127     O        0.98690    0.35790    0.67230    1.000
    O128     O        0.88460    0.48440    0.60130    1.000
    O129     O        0.88810    0.38020    0.69400    1.000
    O130     O        0.93280    0.31290    0.69450    1.000
    O131     O        0.93060    0.48500    0.55090    1.000
    O132     O        0.99680    0.37710    0.54120    1.000
    O133     O        0.92190    0.43030    0.47140    1.000
    O134     O        0.83180    0.49220    0.47780    1.000
    O135     O        0.87470    0.42510    0.53480    1.000
    O136     O        0.82710    0.42670    0.59390    1.000
    O137     O        0.92170    0.35970    0.53880    1.000
    O138     O        0.87630    0.35750    0.59410    1.000
    O139     O        0.83210    0.31550    0.63010    1.000
    O140     O        0.88390    0.24190    0.64960    1.000
    O141     O        0.82280    0.27880    0.53470    1.000
    O142     O        0.92110    0.28620    0.59160    1.000
    O143     O        0.76980    0.36350    0.52150    1.000
    O144     O        0.76980    0.43210    0.46600    1.000
    O145     O        0.99740    0.31180    0.59580    1.000
    O146     O        0.93560    0.31730    0.47210    1.000
    O147     O        0.94890    0.24380    0.52910    1.000
    O148     O        0.85750    0.29200    0.46780    1.000
    O149     O        0.82530    0.43970    0.39130    1.000
    O150     O        0.85820    0.36900    0.40930    1.000
    O151     O        0.56160    0.45180    0.15020    1.000
    O152     O        0.66270    0.19500    0.71290    1.000
    O153     O        0.70340    0.44930    0.06920    1.000
    O154     O        0.77940    0.45350    0.21630    1.000
    O155     O        0.74480    0.37520    0.15050    1.000
    O156     O        0.69750    0.15980    0.64160    1.000
    O157     O        0.59280    0.18650    0.56610    1.000
    O158     O        0.60140    0.46840    0.08690    1.000
    O159     O        0.88750    0.10360    0.81370    1.000
    O160     O        0.76260    0.38370    0.38000    1.000
    O161     O        0.67910    0.37830    0.01740    1.000
    O162     O        0.85430    0.18490    0.11890    1.000
    O163     O        0.66400    0.46470    0.21180    1.000
    O164     O        0.69350    0.14140    0.79380    1.000
    O165     O        0.83770    0.13600    0.87640    1.000
    O166     O        0.75890    0.08670    0.80870    1.000
    O167     O        0.56970    0.16700    0.64040    1.000
    O168     O        0.84060    0.04960    0.97840    1.000
    O169     O        0.86820    0.10100    0.69760    1.000
    O170     O        0.91890    0.18890    0.95950    1.000
    O171     O        0.97620    0.12500    0.01970    1.000
    O172     O        0.77060    0.21080    0.70180    1.000
    O173     O        0.67490    0.42070    0.14480    1.000
    O174     O        0.80410    0.05570    0.76580    1.000
    O175     O        0.77550    0.12300    0.91230    1.000
    O176     O        0.90130    0.04810    0.09990    1.000
    O177     O        0.68440    0.30830    0.25720    1.000
    O178     O        0.75550    0.31420    0.42060    1.000
    O179     O        0.74030    0.13040    0.58810    1.000
    O180     O        0.60710    0.03800    0.60260    1.000
    O181     O        0.66380    0.04610    0.72570    1.000
    O182     O        0.77400    0.35420    0.08310    1.000
    O183     O        0.70380    0.01780    0.66870    1.000
    O184     O        0.82590    0.39470    0.29070    1.000
    O185     O        0.77140    0.13500    0.04740    1.000
    O186     O        0.64030    0.39000    0.21240    1.000
    O187     O        0.69340    0.49360    0.14440    1.000
    O188     O        0.76540    0.07230    0.98270    1.000
    O189     O        0.93820    0.03860    0.03980    1.000
    O190     O        0.77450    0.18460    0.97220    1.000
    O191     O        0.98620    0.08150    0.19930    1.000
    O192     O        0.56940    0.11480    0.51870    1.000
    O193     O        0.78210    0.06570    0.65280    1.000
    O194     O        0.89300    0.06910    0.92620    1.000
    O195     O        0.66200    0.09150    0.48910    1.000
    O196     O        0.55710    0.35750    0.98610    1.000
    O197     O        0.47700    0.33970    0.14650    1.000
    O198     O        0.84350    0.11860    0.04260    1.000
    O199     O        0.98520    0.18880    0.08490    1.000
    O200     O        0.75210    0.06440    0.53230    1.000
    O201     O        0.92170    0.91590    0.03540    1.000
    O202     O        0.88030    0.97370    0.99360    1.000
    O203     O        0.83610    0.24310    0.04100    1.000
    O204     O        0.90360    0.07990    0.65480    1.000
    O205     O        0.59540    0.32360    0.14570    1.000
    O206     O        0.77270    0.33700    0.30180    1.000
    O207     O        0.64670    0.34810    0.08660    1.000
    O208     O        0.65280    0.35360    0.31490    1.000
    O209     O        0.62810    0.15550    0.50550    1.000
    O210     O        0.93370    0.24830    0.09030    1.000
    O211     O        0.83660    0.21740    0.48300    1.000
    O212     O        0.83010    0.07250    0.10980    1.000
    O213     O        0.77290    0.25530    0.36510    1.000
    O214     O        0.67150    0.08650    0.59230    1.000
    O215     O        0.61180    0.42390    0.01250    1.000
    O216     O        0.57410    0.39230    0.08620    1.000
    O217     O        0.02790    0.14660    0.19080    1.000
    O218     O        0.87990    0.18450    0.02780    1.000
    O219     O        0.78100    0.30010    0.21360    1.000
    O220     O        0.63680    0.11840    0.65600    1.000
    O221     O        0.60010    0.04580    0.49740    1.000
    O222     O        0.84240    0.16020    0.53370    1.000
    O223     O        0.68660    0.27400    0.15540    1.000
    O224     O        0.79850    0.42540    0.13900    1.000
    O225     O        0.60230    0.10260    0.71530    1.000
    O226     O        0.94220    0.12050    0.09500    1.000
    O227     O        0.79870    0.13470    0.71130    1.000
    O228     O        0.81510    0.00150    0.04580    1.000
    O229     O        0.69600    0.02440    0.55850    1.000
    O230     O        0.54380    0.09370    0.59090    1.000
    O231     O        0.58720    0.28740    0.04960    1.000
    O232     O        0.50460    0.32900    0.02650    1.000
    O233     O        0.74520    0.41860    0.27550    1.000
    O234     O        0.71010    0.20520    0.57550    1.000
    O235     O        0.78940    0.19160    0.88870    1.000
    O236     O        0.99760    0.00760    0.16210    1.000
    O237     O        0.55690    0.35930    0.19610    1.000
    O238     O        0.62300    0.31140    0.98760    1.000
    O239     O        0.67400    0.23410    0.63190    1.000
    O240     O        0.91020    0.12370    0.17620    1.000
    O241     O        0.83800    0.35730    0.20810    1.000
    O242     O        0.81140    0.19130    0.64050    1.000
    O243     O        0.82340    0.01080    0.87560    1.000
    O244     O        0.02240    0.08060    0.13150    1.000
    O245     O        0.71700    0.29890    0.08960    1.000
    O246     O        0.75400    0.16800    0.77240    1.000
    O247     O        0.86460    0.24850    0.96940    1.000
    O248     O        0.94760    0.18670    0.16710    1.000
    W43      W        0.94414    0.37007    0.69992    1.000
    W44      W        0.94431    0.46269    0.62051    1.000
    W45      W        0.00478    0.37050    0.62131    1.000
    W46      W        0.81708    0.37259    0.60651    1.000
    W47      W        0.87563    0.28867    0.61535    1.000
    W48      W        0.93476    0.29190    0.53451    1.000
    W49      W        0.93230    0.37469    0.46271    1.000
    W50      W        0.87367    0.46818    0.45874    1.000
    W51      W        0.81685    0.46208    0.52965    1.000
    W52      W        0.79689    0.27201    0.44030    1.000
    W53      W        0.79356    0.38423    0.34187    1.000
    W54      W        0.63311    0.34066    0.23762    1.000
    W55      W        0.72724    0.46569    0.22294    1.000
    W56      W        0.82388    0.40930    0.22827    1.000
    W57      W        0.78347    0.31899    0.15436    1.000
    W58      W        0.65578    0.28236    0.07305    1.000
    W59      W        0.56636    0.33639    0.06257    1.000
    W60      W        0.60876    0.43379    0.14618    1.000
    W61      W        0.64884    0.46347    0.06377    1.000
    W62      W        0.61113    0.36559    0.98347    1.000
    W63      W        0.74261    0.40347    0.06643    1.000
    W64      W        0.84329    0.13201    0.12775    1.000
    W65      W        0.89577    0.22499    0.11471    1.000
    W66      W        0.97865    0.13619    0.19966    1.000
    W67      W        0.83260    0.05054    0.04772    1.000
    W68      W        0.75866    0.12989    0.96938    1.000
    W69      W        0.80643    0.22383    0.95354    1.000
    W70      W        0.93143    0.22256    0.02032    1.000
    W71      W        0.01206    0.13645    0.10316    1.000
    W72      W        0.96934    0.05186    0.12316    1.000
    W73      W        0.77389    0.13579    0.84255    1.000
    W74      W        0.87514    0.02961    0.94961    1.000
    W75      W        0.83314    0.08626    0.74116    1.000
    W76      W        0.63141    0.15491    0.72880    1.000
    W77      W        0.60359    0.06158    0.66515    1.000
    W78      W        0.65254    0.02089    0.58614    1.000
    W79      W        0.72808    0.07416    0.56802    1.000
    W80      W        0.76270    0.17504    0.63994    1.000
    W81      W        0.71759    0.21123    0.71364    1.000
    W82      W        0.55448    0.14181    0.56777    1.000
    W83      W        0.64121    0.20099    0.55567    1.000
    W84      W        0.60513    0.09957    0.48640    1.000
    As9      As       0.36191    0.12722    0.01968    1.000
    As10     As       0.19808    0.13110    0.66285    1.000
    As11     As       0.38266    0.36785    0.52096    1.000
    As12     As       0.19396    0.38855    0.16583    1.000
    C49      C        0.44060    0.54400    0.47700    1.000
    C50      C        0.38750    0.42580    0.18600    1.000
    C51      C        0.40060    0.53640    0.27040    1.000
    H33      H        0.40240    0.56020    0.28980    1.000
    C52      C        0.39230    0.46570    0.21450    1.000
    C53      C        0.04340    0.20630    0.70740    1.000
    C54      C        0.41280    0.55200    0.50430    1.000
    C55      C        0.16770    0.28800    0.92100    1.000
    H34      H        0.13480    0.28170    0.90500    1.000
    C56      C        0.26290    0.30490    0.96950    1.000
    C57      C        0.03760    0.27380    0.73400    1.000
    H35      H        0.02040    0.29390    0.73770    1.000
    C58      C        0.19670    0.25880    0.91480    1.000
    H36      H        0.18240    0.23470    0.89410    1.000
    C59      C        0.31750    0.31070    0.99890    1.000
    C60      C        0.01290    0.23640    0.70080    1.000
    H37      H        0.97820    0.23320    0.67650    1.000
    C61      C        0.47570    0.56920    0.48000    1.000
    H38      H        0.48470    0.59400    0.50030    1.000
    C62      C        0.37480    0.50010    0.27300    1.000
    H39      H        0.36040    0.50150    0.29410    1.000
    C63      C        0.42160    0.53370    0.23820    1.000
    H40      H        0.43850    0.55520    0.23660    1.000
    C64      C        0.49550    0.55470    0.45200    1.000
    H41      H        0.52010    0.57000    0.45470    1.000
    C65      C        0.48350    0.52290    0.42230    1.000
    H42      H        0.49600    0.51600    0.40050    1.000
    C66      C        0.44900    0.49610    0.42280    1.000
    H43      H        0.44190    0.47110    0.40400    1.000
    C67      C        0.41620    0.49770    0.20890    1.000
    H44      H        0.42830    0.49490    0.18560    1.000
    C68      C        0.18550    0.32140    0.94720    1.000
    H45      H        0.16490    0.33930    0.94870    1.000
    C69      C        0.23480    0.33240    0.97400    1.000
    H46      H        0.24800    0.35700    0.99380    1.000
    C70      C        0.11310    0.24560    0.75960    1.000
    H47      H        0.14680    0.24900    0.77720    1.000
    C71      C        0.08610    0.27770    0.75820    1.000
    H48      H        0.10200    0.30220    0.77450    1.000
    C72      C        0.02440    0.16520    0.68200    1.000
    Dy9      Dy       0.21826    0.12444    0.91516    1.000
    Dy10     Dy       0.24942    0.22596    0.76428    1.000
    Dy11     Dy       0.42043    0.36723    0.41212    1.000
    Dy12     Dy       0.24719    0.47753    0.27691    1.000
    K9       K        0.32910    0.42370    0.01960    1.000
    K10      K        0.41640    0.33400    0.01280    1.000
    K11      K        0.40380    0.33570    0.16820    1.000
    K12      K        0.99340    0.07440    0.66800    1.000
    N9       N        0.42750    0.50690    0.44940    1.000
    N10      N        0.37300    0.46540    0.24510    1.000
    N11      N        0.24560    0.26760    0.93990    1.000
    N12      N        0.09150    0.21020    0.73610    1.000
    O249     O        0.48680    0.07630    0.11700    1.000
    O250     O        0.44280    0.07730    0.16950    1.000
    O251     O        0.48690    0.14210    0.17230    1.000
    O252     O        0.38460    0.01560    0.10130    1.000
    O253     O        0.38810    0.11980    0.19400    1.000
    O254     O        0.43280    0.18710    0.19450    1.000
    O255     O        0.43060    0.01500    0.05090    1.000
    O256     O        0.49680    0.12290    0.04120    1.000
    O257     O        0.42190    0.06970    0.97140    1.000
    O258     O        0.33180    0.00780    0.97780    1.000
    O259     O        0.37470    0.07490    0.03480    1.000
    O260     O        0.32710    0.07330    0.09390    1.000
    O261     O        0.42170    0.14030    0.03880    1.000
    O262     O        0.37630    0.14250    0.09410    1.000
    O263     O        0.33210    0.18450    0.13010    1.000
    O264     O        0.38390    0.25810    0.14960    1.000
    O265     O        0.32280    0.22120    0.03470    1.000
    O266     O        0.42110    0.21380    0.09160    1.000
    O267     O        0.26980    0.13650    0.02150    1.000
    O268     O        0.26980    0.06790    0.96600    1.000
    O269     O        0.49740    0.18820    0.09580    1.000
    O270     O        0.43560    0.18270    0.97210    1.000
    O271     O        0.44890    0.25620    0.02910    1.000
    O272     O        0.35750    0.20800    0.96780    1.000
    O273     O        0.32530    0.06030    0.89130    1.000
    O274     O        0.35820    0.13100    0.90930    1.000
    O275     O        0.06160    0.04820    0.65020    1.000
    O276     O        0.16270    0.30500    0.21290    1.000
    O277     O        0.20340    0.05070    0.56920    1.000
    O278     O        0.27940    0.04650    0.71630    1.000
    O279     O        0.24480    0.12480    0.65050    1.000
    O280     O        0.19750    0.34020    0.14160    1.000
    O281     O        0.09280    0.31350    0.06610    1.000
    O282     O        0.10140    0.03160    0.58690    1.000
    O283     O        0.38750    0.39640    0.31370    1.000
    O284     O        0.26260    0.11630    0.88000    1.000
    O285     O        0.17910    0.12170    0.51740    1.000
    O286     O        0.35430    0.31510    0.61890    1.000
    O287     O        0.16400    0.03530    0.71180    1.000
    O288     O        0.19350    0.35860    0.29380    1.000
    O289     O        0.33770    0.36400    0.37640    1.000
    O290     O        0.25890    0.41330    0.30870    1.000
    O291     O        0.06970    0.33300    0.14040    1.000
    O292     O        0.34060    0.45040    0.47840    1.000
    O293     O        0.36820    0.39900    0.19760    1.000
    O294     O        0.41890    0.31110    0.45950    1.000
    O295     O        0.47620    0.37500    0.51970    1.000
    O296     O        0.27060    0.28920    0.20180    1.000
    O297     O        0.17490    0.07930    0.64480    1.000
    O298     O        0.30410    0.44430    0.26580    1.000
    O299     O        0.27550    0.37700    0.41230    1.000
    O300     O        0.40130    0.45190    0.59990    1.000
    O301     O        0.18440    0.19170    0.75720    1.000
    O302     O        0.25550    0.18580    0.92060    1.000
    O303     O        0.24030    0.36960    0.08810    1.000
    O304     O        0.10710    0.46200    0.10260    1.000
    O305     O        0.16380    0.45390    0.22570    1.000
    O306     O        0.27400    0.14580    0.58310    1.000
    O307     O        0.20380    0.48220    0.16870    1.000
    O308     O        0.32590    0.10530    0.79070    1.000
    O309     O        0.27140    0.36500    0.54740    1.000
    O310     O        0.14030    0.11000    0.71240    1.000
    O311     O        0.19340    0.00640    0.64440    1.000
    O312     O        0.26540    0.42770    0.48270    1.000
    O313     O        0.43820    0.46140    0.53980    1.000
    O314     O        0.27450    0.31540    0.47220    1.000
    O315     O        0.48620    0.41850    0.69930    1.000
    O316     O        0.06940    0.38520    0.01870    1.000
    O317     O        0.28210    0.43430    0.15280    1.000
    O318     O        0.39300    0.43090    0.42620    1.000
    O319     O        0.16200    0.40850    0.98910    1.000
    O320     O        0.05710    0.14250    0.48610    1.000
    O321     O        0.97700    0.16030    0.64650    1.000
    O322     O        0.34350    0.38140    0.54260    1.000
    O323     O        0.48520    0.31120    0.58490    1.000
    O324     O        0.25210    0.43560    0.03230    1.000
    O325     O        0.42170    0.58410    0.53540    1.000
    O326     O        0.38030    0.52630    0.49360    1.000
    O327     O        0.33610    0.25690    0.54100    1.000
    O328     O        0.40360    0.42010    0.15480    1.000
    O329     O        0.09540    0.17640    0.64570    1.000
    O330     O        0.27270    0.16300    0.80180    1.000
    O331     O        0.14670    0.15190    0.58660    1.000
    O332     O        0.15280    0.14640    0.81490    1.000
    O333     O        0.12810    0.34450    0.00550    1.000
    O334     O        0.43370    0.25170    0.59030    1.000
    O335     O        0.33660    0.28260    0.98300    1.000
    O336     O        0.33010    0.42750    0.60980    1.000
    O337     O        0.27290    0.24470    0.86510    1.000
    O338     O        0.17150    0.41350    0.09230    1.000
    O339     O        0.11180    0.07610    0.51250    1.000
    O340     O        0.07410    0.10770    0.58620    1.000
    O341     O        0.52790    0.35340    0.69080    1.000
    O342     O        0.37990    0.31550    0.52780    1.000
    O343     O        0.28100    0.19990    0.71360    1.000
    O344     O        0.13680    0.38160    0.15600    1.000
    O345     O        0.10010    0.45420    0.99740    1.000
    O346     O        0.34240    0.33980    0.03370    1.000
    O347     O        0.18660    0.22600    0.65540    1.000
    O348     O        0.29850    0.07460    0.63900    1.000
    O349     O        0.10230    0.39740    0.21530    1.000
    O350     O        0.44220    0.37950    0.59500    1.000
    O351     O        0.29870    0.36530    0.21130    1.000
    O352     O        0.31510    0.49850    0.54580    1.000
    O353     O        0.19600    0.47560    0.05850    1.000
    O354     O        0.04380    0.40630    0.09090    1.000
    O355     O        0.08720    0.21260    0.54960    1.000
    O356     O        0.00460    0.17100    0.52650    1.000
    O357     O        0.24520    0.08140    0.77550    1.000
    O358     O        0.21010    0.29480    0.07550    1.000
    O359     O        0.28940    0.30840    0.38870    1.000
    O360     O        0.49760    0.49240    0.66210    1.000
    O361     O        0.05690    0.14070    0.69610    1.000
    O362     O        0.12300    0.18860    0.48760    1.000
    O363     O        0.17400    0.26590    0.13190    1.000
    O364     O        0.41020    0.37630    0.67620    1.000
    O365     O        0.33800    0.14270    0.70810    1.000
    O366     O        0.31140    0.30870    0.14050    1.000
    O367     O        0.32340    0.48920    0.37560    1.000
    O368     O        0.52240    0.41940    0.63150    1.000
    O369     O        0.21700    0.20110    0.58960    1.000
    O370     O        0.25400    0.33200    0.27240    1.000
    O371     O        0.36460    0.25150    0.46940    1.000
    O372     O        0.44760    0.31330    0.66710    1.000
    W85      W        0.44414    0.12993    0.19992    1.000
    W86      W        0.44431    0.03731    0.12051    1.000
    W87      W        0.50478    0.12950    0.12131    1.000
    W88      W        0.31708    0.12741    0.10651    1.000
    W89      W        0.37563    0.21133    0.11535    1.000
    W90      W        0.43476    0.20810    0.03451    1.000
    W91      W        0.43230    0.12531    0.96271    1.000
    W92      W        0.37367    0.03182    0.95874    1.000
    W93      W        0.31685    0.03792    0.02965    1.000
    W94      W        0.29689    0.22799    0.94030    1.000
    W95      W        0.29356    0.11577    0.84187    1.000
    W96      W        0.13311    0.15934    0.73762    1.000
    W97      W        0.22724    0.03431    0.72294    1.000
    W98      W        0.32388    0.09070    0.72827    1.000
    W99      W        0.28347    0.18101    0.65436    1.000
    W100     W        0.15578    0.21764    0.57305    1.000
    W101     W        0.06636    0.16361    0.56257    1.000
    W102     W        0.10876    0.06621    0.64618    1.000
    W103     W        0.14884    0.03653    0.56377    1.000
    W104     W        0.11113    0.13441    0.48347    1.000
    W105     W        0.24261    0.09653    0.56643    1.000
    W106     W        0.34329    0.36799    0.62775    1.000
    W107     W        0.39577    0.27501    0.61471    1.000
    W108     W        0.47865    0.36381    0.69966    1.000
    W109     W        0.33260    0.44946    0.54772    1.000
    W110     W        0.25866    0.37011    0.46938    1.000
    W111     W        0.30643    0.27617    0.45354    1.000
    W112     W        0.43143    0.27744    0.52032    1.000
    W113     W        0.51206    0.36355    0.60316    1.000
    W114     W        0.46934    0.44814    0.62316    1.000
    W115     W        0.27389    0.36421    0.34255    1.000
    W116     W        0.37514    0.47039    0.44961    1.000
    W117     W        0.33314    0.41374    0.24116    1.000
    W118     W        0.13141    0.34509    0.22880    1.000
    W119     W        0.10359    0.43842    0.16515    1.000
    W120     W        0.15254    0.47911    0.08614    1.000
    W121     W        0.22808    0.42584    0.06802    1.000
    W122     W        0.26270    0.32496    0.13994    1.000
    W123     W        0.21759    0.28877    0.21364    1.000
    W124     W        0.05448    0.35819    0.06777    1.000
    W125     W        0.14121    0.29901    0.05567    1.000
    W126     W        0.10513    0.40043    0.98640    1.000
    As13     As       0.86191    0.62722    0.01968    1.000
    As14     As       0.69808    0.63110    0.66285    1.000
    As15     As       0.88266    0.86785    0.52096    1.000
    As16     As       0.69396    0.88855    0.16583    1.000
    C73      C        0.94060    0.04400    0.47700    1.000
    C74      C        0.88750    0.92580    0.18600    1.000
    C75      C        0.90060    0.03640    0.27040    1.000
    H49      H        0.90240    0.06020    0.28980    1.000
    C76      C        0.89230    0.96570    0.21450    1.000
    C77      C        0.54340    0.70630    0.70740    1.000
    C78      C        0.91280    0.05200    0.50430    1.000
    C79      C        0.66770    0.78800    0.92100    1.000
    H50      H        0.63480    0.78170    0.90500    1.000
    C80      C        0.76290    0.80490    0.96950    1.000
    C81      C        0.53760    0.77380    0.73400    1.000
    H51      H        0.52040    0.79390    0.73770    1.000
    C82      C        0.69670    0.75880    0.91480    1.000
    H52      H        0.68240    0.73470    0.89410    1.000
    C83      C        0.81750    0.81070    0.99890    1.000
    C84      C        0.51290    0.73640    0.70080    1.000
    H53      H        0.47820    0.73320    0.67650    1.000
    C85      C        0.97570    0.06920    0.48000    1.000
    H54      H        0.98470    0.09400    0.50030    1.000
    C86      C        0.87480    0.00010    0.27300    1.000
    H55      H        0.86040    0.00150    0.29410    1.000
    C87      C        0.92160    0.03370    0.23820    1.000
    H56      H        0.93850    0.05520    0.23660    1.000
    C88      C        0.99550    0.05470    0.45200    1.000
    H57      H        0.02010    0.07000    0.45470    1.000
    C89      C        0.98350    0.02290    0.42230    1.000
    H58      H        0.99600    0.01600    0.40050    1.000
    C90      C        0.94900    0.99610    0.42280    1.000
    H59      H        0.94190    0.97110    0.40400    1.000
    C91      C        0.91620    0.99770    0.20890    1.000
    H60      H        0.92830    0.99490    0.18560    1.000
    C92      C        0.68550    0.82140    0.94720    1.000
    H61      H        0.66490    0.83930    0.94870    1.000
    C93      C        0.73480    0.83240    0.97400    1.000
    H62      H        0.74800    0.85700    0.99380    1.000
    C94      C        0.61310    0.74560    0.75960    1.000
    H63      H        0.64680    0.74900    0.77720    1.000
    C95      C        0.58610    0.77770    0.75820    1.000
    H64      H        0.60200    0.80220    0.77450    1.000
    C96      C        0.52440    0.66520    0.68200    1.000
    Dy13     Dy       0.71826    0.62444    0.91516    1.000
    Dy14     Dy       0.74942    0.72596    0.76428    1.000
    Dy15     Dy       0.92043    0.86723    0.41212    1.000
    Dy16     Dy       0.74719    0.97753    0.27691    1.000
    K13      K        0.82910    0.92370    0.01960    1.000
    K14      K        0.91640    0.83400    0.01280    1.000
    K15      K        0.90380    0.83570    0.16820    1.000
    K16      K        0.49340    0.57440    0.66800    1.000
    N13      N        0.92750    0.00690    0.44940    1.000
    N14      N        0.87300    0.96540    0.24510    1.000
    N15      N        0.74560    0.76760    0.93990    1.000
    N16      N        0.59150    0.71020    0.73610    1.000
    O373     O        0.98680    0.57630    0.11700    1.000
    O374     O        0.94280    0.57730    0.16950    1.000
    O375     O        0.98690    0.64210    0.17230    1.000
    O376     O        0.88460    0.51560    0.10130    1.000
    O377     O        0.88810    0.61980    0.19400    1.000
    O378     O        0.93280    0.68710    0.19450    1.000
    O379     O        0.93060    0.51500    0.05090    1.000
    O380     O        0.99680    0.62290    0.04120    1.000
    O381     O        0.92190    0.56970    0.97140    1.000
    O382     O        0.83180    0.50780    0.97780    1.000
    O383     O        0.87470    0.57490    0.03480    1.000
    O384     O        0.82710    0.57330    0.09390    1.000
    O385     O        0.92170    0.64030    0.03880    1.000
    O386     O        0.87630    0.64250    0.09410    1.000
    O387     O        0.83210    0.68450    0.13010    1.000
    O388     O        0.88390    0.75810    0.14960    1.000
    O389     O        0.82280    0.72120    0.03470    1.000
    O390     O        0.92110    0.71380    0.09160    1.000
    O391     O        0.76980    0.63650    0.02150    1.000
    O392     O        0.76980    0.56790    0.96600    1.000
    O393     O        0.99740    0.68820    0.09580    1.000
    O394     O        0.93560    0.68270    0.97210    1.000
    O395     O        0.94890    0.75620    0.02910    1.000
    O396     O        0.85750    0.70800    0.96780    1.000
    O397     O        0.82530    0.56030    0.89130    1.000
    O398     O        0.85820    0.63100    0.90930    1.000
    O399     O        0.56160    0.54820    0.65020    1.000
    O400     O        0.66270    0.80500    0.21290    1.000
    O401     O        0.70340    0.55070    0.56920    1.000
    O402     O        0.77940    0.54650    0.71630    1.000
    O403     O        0.74480    0.62480    0.65050    1.000
    O404     O        0.69750    0.84020    0.14160    1.000
    O405     O        0.59280    0.81350    0.06610    1.000
    O406     O        0.60140    0.53160    0.58690    1.000
    O407     O        0.88750    0.89640    0.31370    1.000
    O408     O        0.76260    0.61630    0.88000    1.000
    O409     O        0.67910    0.62170    0.51740    1.000
    O410     O        0.85430    0.81510    0.61890    1.000
    O411     O        0.66400    0.53530    0.71180    1.000
    O412     O        0.69350    0.85860    0.29380    1.000
    O413     O        0.83770    0.86400    0.37640    1.000
    O414     O        0.75890    0.91330    0.30870    1.000
    O415     O        0.56970    0.83300    0.14040    1.000
    O416     O        0.84060    0.95040    0.47840    1.000
    O417     O        0.86820    0.89900    0.19760    1.000
    O418     O        0.91890    0.81110    0.45950    1.000
    O419     O        0.97620    0.87500    0.51970    1.000
    O420     O        0.77060    0.78920    0.20180    1.000
    O421     O        0.67490    0.57930    0.64480    1.000
    O422     O        0.80410    0.94430    0.26580    1.000
    O423     O        0.77550    0.87700    0.41230    1.000
    O424     O        0.90130    0.95190    0.59990    1.000
    O425     O        0.68440    0.69170    0.75720    1.000
    O426     O        0.75550    0.68580    0.92060    1.000
    O427     O        0.74030    0.86960    0.08810    1.000
    O428     O        0.60710    0.96200    0.10260    1.000
    O429     O        0.66380    0.95390    0.22570    1.000
    O430     O        0.77400    0.64580    0.58310    1.000
    O431     O        0.70380    0.98220    0.16870    1.000
    O432     O        0.82590    0.60530    0.79070    1.000
    O433     O        0.77140    0.86500    0.54740    1.000
    O434     O        0.64030    0.61000    0.71240    1.000
    O435     O        0.69340    0.50640    0.64440    1.000
    O436     O        0.76540    0.92770    0.48270    1.000
    O437     O        0.93820    0.96140    0.53980    1.000
    O438     O        0.77450    0.81540    0.47220    1.000
    O439     O        0.98620    0.91850    0.69930    1.000
    O440     O        0.56940    0.88520    0.01870    1.000
    O441     O        0.78210    0.93430    0.15280    1.000
    O442     O        0.89300    0.93090    0.42620    1.000
    O443     O        0.66200    0.90850    0.98910    1.000
    O444     O        0.55710    0.64250    0.48610    1.000
    O445     O        0.47700    0.66030    0.64650    1.000
    O446     O        0.84350    0.88140    0.54260    1.000
    O447     O        0.98520    0.81120    0.58490    1.000
    O448     O        0.75210    0.93560    0.03230    1.000
    O449     O        0.92170    0.08410    0.53540    1.000
    O450     O        0.88030    0.02630    0.49360    1.000
    O451     O        0.83610    0.75690    0.54100    1.000
    O452     O        0.90360    0.92010    0.15480    1.000
    O453     O        0.59540    0.67640    0.64570    1.000
    O454     O        0.77270    0.66300    0.80180    1.000
    O455     O        0.64670    0.65190    0.58660    1.000
    O456     O        0.65280    0.64640    0.81490    1.000
    O457     O        0.62810    0.84450    0.00550    1.000
    O458     O        0.93370    0.75170    0.59030    1.000
    O459     O        0.83660    0.78260    0.98300    1.000
    O460     O        0.83010    0.92750    0.60980    1.000
    O461     O        0.77290    0.74470    0.86510    1.000
    O462     O        0.67150    0.91350    0.09230    1.000
    O463     O        0.61180    0.57610    0.51250    1.000
    O464     O        0.57410    0.60770    0.58620    1.000
    O465     O        0.02790    0.85340    0.69080    1.000
    O466     O        0.87990    0.81550    0.52780    1.000
    O467     O        0.78100    0.69990    0.71360    1.000
    O468     O        0.63680    0.88160    0.15600    1.000
    O469     O        0.60010    0.95420    0.99740    1.000
    O470     O        0.84240    0.83980    0.03370    1.000
    O471     O        0.68660    0.72600    0.65540    1.000
    O472     O        0.79850    0.57460    0.63900    1.000
    O473     O        0.60230    0.89740    0.21530    1.000
    O474     O        0.94220    0.87950    0.59500    1.000
    O475     O        0.79870    0.86530    0.21130    1.000
    O476     O        0.81510    0.99850    0.54580    1.000
    O477     O        0.69600    0.97560    0.05850    1.000
    O478     O        0.54380    0.90630    0.09090    1.000
    O479     O        0.58720    0.71260    0.54960    1.000
    O480     O        0.50460    0.67100    0.52650    1.000
    O481     O        0.74520    0.58140    0.77550    1.000
    O482     O        0.71010    0.79480    0.07550    1.000
    O483     O        0.78940    0.80840    0.38870    1.000
    O484     O        0.99760    0.99240    0.66210    1.000
    O485     O        0.55690    0.64070    0.69610    1.000
    O486     O        0.62300    0.68860    0.48760    1.000
    O487     O        0.67400    0.76590    0.13190    1.000
    O488     O        0.91020    0.87630    0.67620    1.000
    O489     O        0.83800    0.64270    0.70810    1.000
    O490     O        0.81140    0.80870    0.14050    1.000
    O491     O        0.82340    0.98920    0.37560    1.000
    O492     O        0.02240    0.91940    0.63150    1.000
    O493     O        0.71700    0.70110    0.58960    1.000
    O494     O        0.75400    0.83200    0.27240    1.000
    O495     O        0.86460    0.75150    0.46940    1.000
    O496     O        0.94760    0.81330    0.66710    1.000
    W127     W        0.94414    0.62993    0.19992    1.000
    W128     W        0.94431    0.53731    0.12051    1.000
    W129     W        0.00478    0.62950    0.12131    1.000
    W130     W        0.81708    0.62741    0.10651    1.000
    W131     W        0.87563    0.71133    0.11535    1.000
    W132     W        0.93476    0.70810    0.03451    1.000
    W133     W        0.93230    0.62531    0.96271    1.000
    W134     W        0.87367    0.53182    0.95874    1.000
    W135     W        0.81685    0.53792    0.02965    1.000
    W136     W        0.79689    0.72799    0.94030    1.000
    W137     W        0.79356    0.61577    0.84187    1.000
    W138     W        0.63311    0.65934    0.73762    1.000
    W139     W        0.72724    0.53431    0.72294    1.000
    W140     W        0.82388    0.59070    0.72827    1.000
    W141     W        0.78347    0.68101    0.65436    1.000
    W142     W        0.65578    0.71764    0.57305    1.000
    W143     W        0.56636    0.66361    0.56257    1.000
    W144     W        0.60876    0.56621    0.64618    1.000
    W145     W        0.64884    0.53653    0.56377    1.000
    W146     W        0.61113    0.63441    0.48347    1.000
    W147     W        0.74261    0.59653    0.56643    1.000
    W148     W        0.84329    0.86799    0.62775    1.000
    W149     W        0.89577    0.77501    0.61471    1.000
    W150     W        0.97865    0.86381    0.69966    1.000
    W151     W        0.83260    0.94946    0.54772    1.000
    W152     W        0.75866    0.87011    0.46938    1.000
    W153     W        0.80643    0.77617    0.45354    1.000
    W154     W        0.93143    0.77744    0.52032    1.000
    W155     W        0.01206    0.86355    0.60316    1.000
    W156     W        0.96934    0.94814    0.62316    1.000
    W157     W        0.77389    0.86421    0.34255    1.000
    W158     W        0.87514    0.97039    0.44961    1.000
    W159     W        0.83314    0.91374    0.24116    1.000
    W160     W        0.63141    0.84509    0.22880    1.000
    W161     W        0.60359    0.93842    0.16515    1.000
    W162     W        0.65254    0.97911    0.08614    1.000
    W163     W        0.72808    0.92584    0.06802    1.000
    W164     W        0.76270    0.82496    0.13994    1.000
    W165     W        0.71759    0.78877    0.21364    1.000
    W166     W        0.55448    0.85819    0.06777    1.000
    W167     W        0.64121    0.79901    0.05567    1.000
    W168     W        0.60513    0.90043    0.98640    1.000
