# CIF file generated by openbabel 3.1.0, see https://openbabel.org
data_I
_chemical_name_common 'image0'
_cell_length_a 11.5359
_cell_length_b 15.0948
_cell_length_c 22.6817
_cell_angle_alpha 90
_cell_angle_beta 91.483
_cell_angle_gamma 90
_space_group_name_H-M_alt 'P 1'
_space_group_name_Hall 'P 1'
loop_
    _symmetry_equiv_pos_as_xyz
    x,y,z
loop_
    _atom_site_label
    _atom_site_type_symbol
    _atom_site_fract_x
    _atom_site_fract_y
    _atom_site_fract_z
    _atom_site_occupancy
    Cu1      Cu       0.88410    0.72140    0.72786    1.000
    C1       C        0.05700    0.62800    0.81000    1.000
    H1       H        0.04150    0.66250    0.84300    1.000
    C2       C        0.05700    0.58400    0.72600    1.000
    H2       H        0.04210    0.57580    0.68570    1.000
    C3       C        0.20900    0.45900    0.73930    1.000
    H3       H        0.23440    0.46870    0.69950    1.000
    H4       H        0.27760    0.45820    0.76490    1.000
    C4       C        0.16000    0.37700    0.74130    1.000
    H5       H        0.11600    0.36880    0.77680    1.000
    H6       H        0.21800    0.33030    0.73920    1.000
    C5       C        0.08400    0.37700    0.68900    1.000
    H7       H        0.01160    0.40510    0.69870    1.000
    H8       H        0.12000    0.41250    0.65880    1.000
    C6       C        0.05900    0.28800    0.66430    1.000
    H9       H        0.12990    0.25770    0.65400    1.000
    H10      H        0.01820    0.25150    0.69250    1.000
    C7       C        0.98400    0.30500    0.61020    1.000
    H11      H        0.02910    0.32510    0.57750    1.000
    H12      H        0.92360    0.34790    0.61800    1.000
    C8       C        0.93000    0.21000    0.59760    1.000
    H13      H        0.99390    0.16890    0.59250    1.000
    H14      H        0.88690    0.21270    0.56050    1.000
    C9       C        0.71900    0.87500    0.73030    1.000
    H15      H        0.74050    0.88820    0.76900    1.000
    C10      C        0.70400    0.81500    0.65210    1.000
    H16      H        0.71240    0.77500    0.62110    1.000
    C11      C        0.55400    0.90600    0.59890    1.000
    H17      H        0.49220    0.94200    0.61350    1.000
    H18      H        0.51990    0.85310    0.58100    1.000
    C12      C        0.61700    0.95500    0.55370    1.000
    H19      H        0.68530    0.92150    0.54390    1.000
    H20      H        0.64370    0.01040    0.57140    1.000
    C13      C        0.54900    0.97900    0.49370    1.000
    H21      H        0.59700    0.01660    0.46960    1.000
    H22      H        0.53190    0.92520    0.47180    1.000
    C14      C        0.16100    0.93700    0.59900    1.000
    H23      H        0.15710    0.97860    0.63110    1.000
    H24      H        0.24280    0.92500    0.59360    1.000
    C15      C        0.12600    0.98500    0.54800    1.000
    H25      H        0.13410    0.04800    0.55700    1.000
    H26      H        0.17850    0.97190    0.51680    1.000
    C16      C        0.00700    0.97100    0.52500    1.000
    H27      H        0.95100    0.98520    0.55470    1.000
    H28      H        0.99630    0.90970    0.51320    1.000
    N1       N        0.00700    0.63900    0.75390    1.000
    N2       N        0.13700    0.53500    0.75630    1.000
    N3       N        0.13000    0.56200    0.80870    1.000
    N4       N        0.85100    0.17170    0.64400    1.000
    N5       N        0.87860    0.10570    0.67930    1.000
    C17      C        0.80400    0.10440    0.72200    1.000
    H29      H        0.80380    0.06430    0.75310    1.000
    N6       N        0.73100    0.16950    0.71310    1.000
    C18      C        0.76000    0.21110    0.66500    1.000
    H30      H        0.72190    0.26000    0.64850    1.000
    N7       N        0.76400    0.80720    0.70050    1.000
    N8       N        0.63100    0.87890    0.64840    1.000
    N9       N        0.63800    0.92210    0.69960    1.000
    N10      N        0.98800    0.76710    0.66580    1.000
    C19      C        0.05700    0.83700    0.67240    1.000
    H31      H        0.06810    0.87010    0.70660    1.000
    N11      N        0.10900    0.85040    0.62150    1.000
    N12      N        0.07200    0.78900    0.58340    1.000
    C20      C        0.99600    0.73770    0.61080    1.000
    H32      H        0.95700    0.68960    0.59440    1.000
    Cu2      Cu       0.61590    0.22140    0.77214    1.000
    C21      C        0.44300    0.12800    0.69000    1.000
    H33      H        0.45850    0.16250    0.65700    1.000
    C22      C        0.44300    0.08400    0.77400    1.000
    H34      H        0.45790    0.07580    0.81430    1.000
    C23      C        0.29100    0.95900    0.76070    1.000
    H35      H        0.26560    0.96870    0.80050    1.000
    H36      H        0.22240    0.95820    0.73510    1.000
    C24      C        0.34000    0.87700    0.75870    1.000
    H37      H        0.38400    0.86880    0.72320    1.000
    H38      H        0.28200    0.83030    0.76080    1.000
    C25      C        0.41600    0.87700    0.81100    1.000
    H39      H        0.48840    0.90510    0.80130    1.000
    H40      H        0.38000    0.91250    0.84120    1.000
    C26      C        0.44100    0.78800    0.83570    1.000
    H41      H        0.37010    0.75770    0.84600    1.000
    H42      H        0.48180    0.75150    0.80750    1.000
    C27      C        0.51600    0.80500    0.88980    1.000
    H43      H        0.47090    0.82510    0.92250    1.000
    H44      H        0.57640    0.84790    0.88200    1.000
    C28      C        0.57000    0.71000    0.90240    1.000
    H45      H        0.50610    0.66890    0.90750    1.000
    H46      H        0.61310    0.71270    0.93950    1.000
    C29      C        0.78100    0.37500    0.76970    1.000
    H47      H        0.75950    0.38820    0.73100    1.000
    C30      C        0.79600    0.31500    0.84790    1.000
    H48      H        0.78760    0.27500    0.87890    1.000
    C31      C        0.94600    0.40600    0.90110    1.000
    H49      H        0.00780    0.44200    0.88650    1.000
    H50      H        0.98010    0.35310    0.91900    1.000
    C32      C        0.88300    0.45500    0.94630    1.000
    H51      H        0.81470    0.42150    0.95610    1.000
    H52      H        0.85630    0.51040    0.92860    1.000
    C33      C        0.95100    0.47900    0.00630    1.000
    H53      H        0.90300    0.51660    0.03040    1.000
    H54      H        0.96810    0.42520    0.02820    1.000
    C34      C        0.33900    0.43700    0.90100    1.000
    H55      H        0.34290    0.47860    0.86890    1.000
    H56      H        0.25720    0.42500    0.90640    1.000
    C35      C        0.37400    0.48500    0.95200    1.000
    H57      H        0.36590    0.54800    0.94300    1.000
    H58      H        0.32150    0.47190    0.98320    1.000
    C36      C        0.49300    0.47100    0.97500    1.000
    H59      H        0.54900    0.48520    0.94530    1.000
    H60      H        0.50370    0.40970    0.98680    1.000
    N13      N        0.49300    0.13900    0.74610    1.000
    N14      N        0.36300    0.03500    0.74370    1.000
    N15      N        0.37000    0.06200    0.69130    1.000
    N16      N        0.64900    0.67170    0.85600    1.000
    N17      N        0.62140    0.60570    0.82070    1.000
    C37      C        0.69600    0.60440    0.77800    1.000
    H61      H        0.69620    0.56430    0.74690    1.000
    N18      N        0.76900    0.66950    0.78690    1.000
    C38      C        0.74000    0.71110    0.83500    1.000
    H62      H        0.77810    0.76000    0.85150    1.000
    N19      N        0.73600    0.30720    0.79950    1.000
    N20      N        0.86900    0.37890    0.85160    1.000
    N21      N        0.86200    0.42210    0.80040    1.000
    N22      N        0.51200    0.26710    0.83420    1.000
    C39      C        0.44300    0.33700    0.82760    1.000
    H63      H        0.43190    0.37010    0.79340    1.000
    N23      N        0.39100    0.35040    0.87850    1.000
    N24      N        0.42800    0.28900    0.91660    1.000
    C40      C        0.50400    0.23770    0.88920    1.000
    H64      H        0.54300    0.18960    0.90560    1.000
    Cu3      Cu       0.11590    0.27860    0.27214    1.000
    C41      C        0.94300    0.37200    0.19000    1.000
    H65      H        0.95850    0.33750    0.15700    1.000
    C42      C        0.94300    0.41600    0.27400    1.000
    H66      H        0.95790    0.42420    0.31430    1.000
    C43      C        0.79100    0.54100    0.26070    1.000
    H67      H        0.76560    0.53130    0.30050    1.000
    H68      H        0.72240    0.54180    0.23510    1.000
    C44      C        0.84000    0.62300    0.25870    1.000
    H69      H        0.88400    0.63120    0.22320    1.000
    H70      H        0.78200    0.66970    0.26080    1.000
    C45      C        0.91600    0.62300    0.31100    1.000
    H71      H        0.98840    0.59490    0.30130    1.000
    H72      H        0.88000    0.58750    0.34120    1.000
    C46      C        0.94100    0.71200    0.33570    1.000
    H73      H        0.87010    0.74230    0.34600    1.000
    H74      H        0.98180    0.74850    0.30750    1.000
    C47      C        0.01600    0.69500    0.38980    1.000
    H75      H        0.97090    0.67490    0.42250    1.000
    H76      H        0.07640    0.65210    0.38200    1.000
    C48      C        0.07000    0.79000    0.40240    1.000
    H77      H        0.00610    0.83110    0.40750    1.000
    H78      H        0.11310    0.78730    0.43950    1.000
    C49      C        0.28100    0.12500    0.26970    1.000
    H79      H        0.25950    0.11180    0.23100    1.000
    C50      C        0.29600    0.18500    0.34790    1.000
    H80      H        0.28760    0.22500    0.37890    1.000
    C51      C        0.44600    0.09400    0.40110    1.000
    H81      H        0.50780    0.05800    0.38650    1.000
    H82      H        0.48010    0.14690    0.41900    1.000
    C52      C        0.38300    0.04500    0.44630    1.000
    H83      H        0.31470    0.07850    0.45610    1.000
    H84      H        0.35630    0.98960    0.42860    1.000
    C53      C        0.45100    0.02100    0.50630    1.000
    H85      H        0.40300    0.98340    0.53040    1.000
    H86      H        0.46810    0.07480    0.52820    1.000
    C54      C        0.83900    0.06300    0.40100    1.000
    H87      H        0.84290    0.02140    0.36890    1.000
    H88      H        0.75720    0.07500    0.40640    1.000
    C55      C        0.87400    0.01500    0.45200    1.000
    H89      H        0.86590    0.95200    0.44300    1.000
    H90      H        0.82150    0.02810    0.48320    1.000
    C56      C        0.99300    0.02900    0.47500    1.000
    H91      H        0.04900    0.01480    0.44530    1.000
    H92      H        0.00370    0.09030    0.48680    1.000
    N25      N        0.99300    0.36100    0.24610    1.000
    N26      N        0.86300    0.46500    0.24370    1.000
    N27      N        0.87000    0.43800    0.19130    1.000
    N28      N        0.14900    0.82830    0.35600    1.000
    N29      N        0.12140    0.89430    0.32070    1.000
    C57      C        0.19600    0.89560    0.27800    1.000
    H93      H        0.19620    0.93570    0.24690    1.000
    N30      N        0.26900    0.83050    0.28690    1.000
    C58      C        0.24000    0.78890    0.33500    1.000
    H94      H        0.27810    0.74000    0.35150    1.000
    N31      N        0.23600    0.19280    0.29950    1.000
    N32      N        0.36900    0.12110    0.35160    1.000
    N33      N        0.36200    0.07790    0.30040    1.000
    N34      N        0.01200    0.23290    0.33420    1.000
    C59      C        0.94300    0.16300    0.32760    1.000
    H95      H        0.93190    0.12990    0.29340    1.000
    N35      N        0.89100    0.14960    0.37850    1.000
    N36      N        0.92800    0.21100    0.41660    1.000
    C60      C        0.00400    0.26230    0.38920    1.000
    H96      H        0.04300    0.31040    0.40560    1.000
    Cu4      Cu       0.38410    0.77860    0.22786    1.000
    C61      C        0.55700    0.87200    0.31000    1.000
    H97      H        0.54150    0.83750    0.34300    1.000
    C62      C        0.55700    0.91600    0.22600    1.000
    H98      H        0.54210    0.92420    0.18570    1.000
    C63      C        0.70900    0.04100    0.23930    1.000
    H99      H        0.73440    0.03130    0.19950    1.000
    H100     H        0.77760    0.04180    0.26490    1.000
    C64      C        0.66000    0.12300    0.24130    1.000
    H101     H        0.61600    0.13120    0.27680    1.000
    H102     H        0.71800    0.16970    0.23920    1.000
    C65      C        0.58400    0.12300    0.18900    1.000
    H103     H        0.51160    0.09490    0.19870    1.000
    H104     H        0.62000    0.08750    0.15880    1.000
    C66      C        0.55900    0.21200    0.16430    1.000
    H105     H        0.62990    0.24230    0.15400    1.000
    H106     H        0.51820    0.24850    0.19250    1.000
    C67      C        0.48400    0.19500    0.11020    1.000
    H107     H        0.52910    0.17490    0.07750    1.000
    H108     H        0.42360    0.15210    0.11800    1.000
    C68      C        0.43000    0.29000    0.09760    1.000
    H109     H        0.49390    0.33110    0.09250    1.000
    H110     H        0.38690    0.28730    0.06050    1.000
    C69      C        0.21900    0.62500    0.23030    1.000
    H111     H        0.24050    0.61180    0.26900    1.000
    C70      C        0.20400    0.68500    0.15210    1.000
    H112     H        0.21240    0.72500    0.12110    1.000
    C71      C        0.05400    0.59400    0.09890    1.000
    H113     H        0.99220    0.55800    0.11350    1.000
    H114     H        0.01990    0.64690    0.08100    1.000
    C72      C        0.11700    0.54500    0.05370    1.000
    H115     H        0.18530    0.57850    0.04390    1.000
    H116     H        0.14370    0.48960    0.07140    1.000
    C73      C        0.04900    0.52100    0.99370    1.000
    H117     H        0.09700    0.48340    0.96960    1.000
    H118     H        0.03190    0.57480    0.97180    1.000
    C74      C        0.66100    0.56300    0.09900    1.000
    H119     H        0.65710    0.52140    0.13110    1.000
    H120     H        0.74280    0.57500    0.09360    1.000
    C75      C        0.62600    0.51500    0.04800    1.000
    H121     H        0.63410    0.45200    0.05700    1.000
    H122     H        0.67850    0.52810    0.01680    1.000
    C76      C        0.50700    0.52900    0.02500    1.000
    H123     H        0.45100    0.51480    0.05470    1.000
    H124     H        0.49630    0.59030    0.01320    1.000
    N37      N        0.50700    0.86100    0.25390    1.000
    N38      N        0.63700    0.96500    0.25630    1.000
    N39      N        0.63000    0.93800    0.30870    1.000
    N40      N        0.35100    0.32830    0.14400    1.000
    N41      N        0.37860    0.39430    0.17930    1.000
    C77      C        0.30400    0.39560    0.22200    1.000
    H125     H        0.30380    0.43570    0.25310    1.000
    N42      N        0.23100    0.33050    0.21310    1.000
    C78      C        0.26000    0.28890    0.16500    1.000
    H126     H        0.22190    0.24000    0.14850    1.000
    N43      N        0.26400    0.69280    0.20050    1.000
    N44      N        0.13100    0.62110    0.14840    1.000
    N45      N        0.13800    0.57790    0.19960    1.000
    N46      N        0.48800    0.73290    0.16580    1.000
    C79      C        0.55700    0.66300    0.17240    1.000
    H127     H        0.56810    0.62990    0.20660    1.000
    N47      N        0.60900    0.64960    0.12150    1.000
    N48      N        0.57200    0.71100    0.08340    1.000
    C80      C        0.49600    0.76230    0.11080    1.000
    H128     H        0.45700    0.81040    0.09440    1.000
