# CIF file generated by openbabel 3.1.0, see https://openbabel.org
data_I
_chemical_name_common 'image0'
_cell_length_a 10.013
_cell_length_b 10.607
_cell_length_c 10.993
_cell_angle_alpha 80.746
_cell_angle_beta 72.107
_cell_angle_gamma 74.537
_space_group_name_H-M_alt 'P 1'
_space_group_name_Hall 'P 1'
loop_
    _symmetry_equiv_pos_as_xyz
    x,y,z
loop_
    _atom_site_label
    _atom_site_type_symbol
    _atom_site_fract_x
    _atom_site_fract_y
    _atom_site_fract_z
    _atom_site_occupancy
    Ho1      Ho       0.82633    0.30692    0.46628    1.000
    Zn1      Zn       0.70883    0.13228    0.88229    1.000
    N1       N        0.86980    0.19700    0.92490    1.000
    N2       N        0.52170    0.29700    0.92820    1.000
    C1       C        0.77320    0.07740    0.12710    1.000
    C2       C        0.88820    0.14870    0.04200    1.000
    C3       C        0.00620    0.16190    0.07750    1.000
    C4       C        0.10830    0.22280    0.98770    1.000
    H1       H        0.19200    0.22900    0.00800    1.000
    C5       C        0.08740    0.27230    0.86850    1.000
    H2       H        0.15400    0.31400    0.80100    1.000
    C6       C        0.96620    0.25850    0.84040    1.000
    H3       H        0.95400    0.28700    0.76300    1.000
    C7       C        0.02720    0.11710    0.21070    1.000
    C8       C        0.59720    0.33100    0.69710    1.000
    C9       C        0.48520    0.36440    0.82330    1.000
    C10      C        0.35940    0.46320    0.83130    1.000
    C11      C        0.27170    0.49510    0.95370    1.000
    H4       H        0.19200    0.57100    0.96200    1.000
    C12      C        0.31150    0.42850    0.06220    1.000
    H5       H        0.25300    0.45100    0.15000    1.000
    C13      C        0.43700    0.32850    0.04500    1.000
    H6       H        0.46200    0.28500    0.11400    1.000
    C14      C        0.31140    0.53830    0.71570    1.000
    C15      C        0.05920    0.47910    0.43730    1.000
    O1       O        0.68320    0.06170    0.07450    1.000
    O2       O        0.77790    0.03620    0.23900    1.000
    O3       O        0.96960    0.20090    0.29110    1.000
    O4       O        0.10570    0.00680    0.23050    1.000
    O5       O        0.71100    0.24140    0.70110    1.000
    O6       O        0.58050    0.39460    0.59520    1.000
    O7       O        0.32900    0.65390    0.68400    1.000
    O8       O        0.24370    0.48920    0.66320    1.000
    O9       O        0.04260    0.39340    0.38110    1.000
    O10      O        0.16200    0.53630    0.40300    1.000
    Ho2      Ho       0.17367    0.69308    0.53373    1.000
    Zn2      Zn       0.29117    0.86772    0.11771    1.000
    N3       N        0.13020    0.80300    0.07510    1.000
    N4       N        0.47830    0.70300    0.07180    1.000
    C16      C        0.22680    0.92260    0.87290    1.000
    C17      C        0.11180    0.85130    0.95800    1.000
    C18      C        0.99380    0.83810    0.92250    1.000
    C19      C        0.89170    0.77720    0.01230    1.000
    H7       H        0.80800    0.77100    0.99200    1.000
    C20      C        0.91260    0.72770    0.13150    1.000
    H8       H        0.84600    0.68600    0.19900    1.000
    C21      C        0.03380    0.74150    0.15960    1.000
    H9       H        0.04600    0.71300    0.23700    1.000
    C22      C        0.97280    0.88290    0.78930    1.000
    C23      C        0.40280    0.66900    0.30290    1.000
    C24      C        0.51480    0.63560    0.17670    1.000
    C25      C        0.64060    0.53680    0.16870    1.000
    C26      C        0.72830    0.50490    0.04630    1.000
    H10      H        0.80800    0.42900    0.03800    1.000
    C27      C        0.68850    0.57150    0.93780    1.000
    H11      H        0.74700    0.54900    0.85000    1.000
    C28      C        0.56300    0.67150    0.95500    1.000
    H12      H        0.53800    0.71500    0.88600    1.000
    C29      C        0.68860    0.46170    0.28430    1.000
    C30      C        0.94080    0.52090    0.56270    1.000
    O11      O        0.31680    0.93830    0.92550    1.000
    O12      O        0.22210    0.96380    0.76100    1.000
    O13      O        0.03040    0.79910    0.70890    1.000
    O14      O        0.89430    0.99320    0.76950    1.000
    O15      O        0.28900    0.75860    0.29890    1.000
    O16      O        0.41950    0.60540    0.40480    1.000
    O17      O        0.67100    0.34610    0.31600    1.000
    O18      O        0.75630    0.51080    0.33680    1.000
    O19      O        0.95740    0.60660    0.61890    1.000
    O20      O        0.83800    0.46370    0.59700    1.000
