data_functionalizedCrystal
_audit_creation_method	'EQeq! by Chris Wilmer'
_symmetry_space_group_name_H-M	'P1'
_symmetry_Int_Tables_number	1
_symmetry_cell_setting	triclinic
loop_
_symmetry_equiv_pos_as_xyz
  x,y,z
_cell_length_a	11.066
_cell_length_b	13.8214
_cell_length_c	16.8387
_cell_angle_alpha	90
_cell_angle_beta	103.31
_cell_angle_gamma	90
loop_
_atom_site_label
_atom_site_type_symbol
_atom_site_fract_x
_atom_site_fract_y
_atom_site_fract_z
_atom_site_charge
Mof_Co	Co	0.05672	0.08925	0.17407	1.191
Mof_Co	Co	0.14177	0.99727	0.99494	1.161
Mof_C 	C 	0.6736	0.058	0.20162	-0.046
Mof_C 	C 	0.5513	0.0502	0.15661	-0.012
Mof_H 	H 	0.5348	0.0384	0.0995	0.06
Mof_C 	C 	0.4539	0.0596	0.19516	-0.035
Mof_C 	C 	0.4782	0.0744	0.27912	-0.096
Mof_H 	H 	0.4111	0.0812	0.3052	0.077
Mof_C 	C 	0.6002	0.0791	0.32538	0.115
Mof_C 	C 	0.6967	0.0718	0.286	-0.092
Mof_H 	H 	0.78	0.0763	0.3168	0.081
Mof_C 	C 	0.6239	0.0907	0.41671	-0.28
Mof_C 	C 	0.6536	0.9972	0.46507	0.115
Mof_C 	C 	0.6035	0.9083	0.43588	-0.097
Mof_H 	H 	0.5487	0.9046	0.3835	0.085
Mof_C 	C 	0.6325	0.8241	0.4826	-0.043
Mof_C 	C 	0.71	0.8305	0.56021	-0.033
Mof_H 	H 	0.7297	0.7738	0.5926	0.069
Mof_C 	C 	0.7588	0.9191	0.59054	-0.019
Mof_C 	C 	0.7313	0.0017	0.54308	-0.103
Mof_H 	H 	0.7656	0.0621	0.5639	0.081
Mof_C 	C 	0.7793	0.0468	0.15981	0.359
Mof_C 	C 	0.3212	0.0527	0.14716	0.322
Mof_C 	C 	0.5839	0.7253	0.4533	0.336
Mof_C 	C 	0.8387	0.9249	0.67564	0.262
Mof_O 	O 	0.88325	0.0787	0.19762	-0.421
Mof_O 	O 	0.7551	0.00517	0.09159	-0.434
Mof_O 	O 	0.30055	0.99428	0.08752	-0.39
Mof_O 	O 	0.24351	0.10505	0.17039	-0.409
Mof_O 	O 	0.49145	0.71939	0.39259	-0.397
Mof_O 	O 	0.6384	0.6556	0.49286	-0.425
Mof_O 	O 	0.88452	0.84598	0.70965	-0.34
Mof_O 	O 	0.8562	0.00384	0.71296	-0.326
Mof_O 	O 	0.03072	0.99278	0.08246	-0.921
Mof_H 	H 	0.557	0.123	0.435	0.111
Mof_H 	H 	0.692	0.135	0.4365	0.109
Mof_H 	H 	0.038	0.941	0.098	0.387
Mof_Co	Co	0.44328	0.58925	0.32593	1.193
Mof_Co	Co	0.35823	0.49727	0.50506	1.166
Mof_C 	C 	0.8264	0.558	0.29838	-0.047
Mof_C 	C 	0.9487	0.5502	0.34339	-0.011
Mof_H 	H 	0.9652	0.5384	0.4005	0.061
Mof_C 	C 	0.0461	0.5596	0.30484	-0.038
Mof_C 	C 	0.0218	0.5744	0.22088	-0.087
Mof_H 	H 	0.0889	0.5812	0.1948	0.076
Mof_C 	C 	0.8998	0.5791	0.17462	0.109
Mof_C 	C 	0.8033	0.5718	0.214	-0.088
Mof_H 	H 	0.72	0.5763	0.1832	0.08
Mof_C 	C 	0.8761	0.5907	0.08329	-0.275
Mof_C 	C 	0.8464	0.4972	0.03493	0.11
Mof_C 	C 	0.8965	0.4083	0.06412	-0.091
Mof_H 	H 	0.9513	0.4046	0.1165	0.082
Mof_C 	C 	0.8675	0.3241	0.0174	-0.054
Mof_C 	C 	0.79	0.3305	0.93979	-0.019
Mof_H 	H 	0.7703	0.2738	0.9074	0.067
Mof_C 	C 	0.7412	0.4191	0.90946	-0.023
Mof_C 	C 	0.7687	0.5017	0.95692	-0.098
Mof_H 	H 	0.7344	0.5621	0.9361	0.079
Mof_C 	C 	0.7207	0.5468	0.34019	0.359
Mof_C 	C 	0.1788	0.5527	0.35284	0.336
Mof_C 	C 	0.9161	0.2253	0.0467	0.338
Mof_C 	C 	0.6613	0.4249	0.82436	0.273
Mof_O 	O 	0.61675	0.5787	0.30238	-0.42
Mof_O 	O 	0.7449	0.50517	0.40841	-0.43
Mof_O 	O 	0.19945	0.49428	0.41248	-0.405
Mof_O 	O 	0.25649	0.60505	0.32961	-0.41
Mof_O 	O 	0.00855	0.21939	0.10741	-0.398
Mof_O 	O 	0.8616	0.1556	0.00714	-0.43
Mof_O 	O 	0.61548	0.34598	0.79035	-0.341
Mof_O 	O 	0.6438	0.50384	0.78704	-0.336
Mof_O 	O 	0.46928	0.49278	0.41754	-0.933
Mof_H 	H 	0.943	0.623	0.065	0.109
Mof_H 	H 	0.808	0.635	0.0635	0.108
Mof_H 	H 	0.462	0.441	0.402	0.387
Mof_Co	Co	0.94328	0.91075	0.82593	1.19
Mof_Co	Co	0.85823	0.00273	0.00506	1.16
Mof_C 	C 	0.3264	0.942	0.79838	-0.046
Mof_C 	C 	0.4487	0.9498	0.84339	-0.012
Mof_H 	H 	0.4652	0.9616	0.9005	0.06
Mof_C 	C 	0.5461	0.9404	0.80484	-0.035
Mof_C 	C 	0.5218	0.9256	0.72088	-0.096
Mof_H 	H 	0.5889	0.9188	0.6948	0.077
Mof_C 	C 	0.3998	0.9209	0.67462	0.115
Mof_C 	C 	0.3033	0.9282	0.714	-0.092
Mof_H 	H 	0.22	0.9237	0.6832	0.081
Mof_C 	C 	0.3761	0.9093	0.58329	-0.28
Mof_C 	C 	0.3464	0.0028	0.53493	0.115
Mof_C 	C 	0.3965	0.0917	0.56412	-0.097
Mof_H 	H 	0.4513	0.0954	0.6165	0.085
Mof_C 	C 	0.3675	0.1759	0.5174	-0.043
Mof_C 	C 	0.29	0.1695	0.43979	-0.033
Mof_H 	H 	0.2703	0.2262	0.4074	0.069
Mof_C 	C 	0.2412	0.0809	0.40946	-0.019
Mof_C 	C 	0.2687	0.9983	0.45692	-0.103
Mof_H 	H 	0.2344	0.9379	0.4361	0.081
Mof_C 	C 	0.2207	0.9532	0.84019	0.359
Mof_C 	C 	0.6788	0.9473	0.85284	0.322
Mof_C 	C 	0.4161	0.2747	0.5467	0.336
Mof_C 	C 	0.1613	0.0751	0.32436	0.262
Mof_O 	O 	0.11675	0.9213	0.80238	-0.421
Mof_O 	O 	0.2449	0.99483	0.90841	-0.434
Mof_O 	O 	0.69945	0.00572	0.91248	-0.39
Mof_O 	O 	0.75649	0.89495	0.82961	-0.409
Mof_O 	O 	0.50855	0.28061	0.60741	-0.397
Mof_O 	O 	0.3616	0.3444	0.50714	-0.425
Mof_O 	O 	0.11548	0.15402	0.29035	-0.34
Mof_O 	O 	0.1438	0.99616	0.28704	-0.326
Mof_O 	O 	0.96928	0.00722	0.91754	-0.921
Mof_H 	H 	0.443	0.877	0.565	0.111
Mof_H 	H 	0.308	0.865	0.5635	0.109
Mof_H 	H 	0.962	0.059	0.902	0.387
Mof_Co	Co	0.55672	0.41075	0.67407	1.193
Mof_Co	Co	0.64177	0.50273	0.49494	1.166
Mof_C 	C 	0.1736	0.442	0.70162	-0.047
Mof_C 	C 	0.0513	0.4498	0.65661	-0.011
Mof_H 	H 	0.0348	0.4616	0.5995	0.061
Mof_C 	C 	0.9539	0.4404	0.69516	-0.038
Mof_C 	C 	0.9782	0.4256	0.77912	-0.087
Mof_H 	H 	0.9111	0.4188	0.8052	0.076
Mof_C 	C 	0.1002	0.4209	0.82538	0.109
Mof_C 	C 	0.1967	0.4282	0.786	-0.088
Mof_H 	H 	0.28	0.4237	0.8168	0.08
Mof_C 	C 	0.1239	0.4093	0.91671	-0.275
Mof_C 	C 	0.1536	0.5028	0.96507	0.11
Mof_C 	C 	0.1035	0.5917	0.93588	-0.091
Mof_H 	H 	0.0487	0.5954	0.8835	0.082
Mof_C 	C 	0.1325	0.6759	0.9826	-0.054
Mof_C 	C 	0.21	0.6695	0.06021	-0.019
Mof_H 	H 	0.2297	0.7262	0.0926	0.067
Mof_C 	C 	0.2588	0.5809	0.09054	-0.023
Mof_C 	C 	0.2313	0.4983	0.04308	-0.098
Mof_H 	H 	0.2656	0.4379	0.0639	0.079
Mof_C 	C 	0.2793	0.4532	0.65981	0.359
Mof_C 	C 	0.8212	0.4473	0.64716	0.336
Mof_C 	C 	0.0839	0.7747	0.9533	0.338
Mof_C 	C 	0.3387	0.5751	0.17564	0.273
Mof_O 	O 	0.38325	0.4213	0.69762	-0.42
Mof_O 	O 	0.2551	0.49483	0.59159	-0.43
Mof_O 	O 	0.80055	0.50572	0.58752	-0.405
Mof_O 	O 	0.74351	0.39495	0.67039	-0.41
Mof_O 	O 	0.99145	0.78061	0.89259	-0.398
Mof_O 	O 	0.1384	0.8444	0.99286	-0.43
Mof_O 	O 	0.38452	0.65402	0.20965	-0.341
Mof_O 	O 	0.3562	0.49616	0.21296	-0.336
Mof_O 	O 	0.53072	0.50722	0.58246	-0.933
Mof_H 	H 	0.057	0.377	0.935	0.109
Mof_H 	H 	0.192	0.365	0.9365	0.108
Mof_H 	H 	0.538	0.559	0.598	0.387
_end
