data_functionalizedCrystal
_audit_creation_method	'EQeq! by Chris Wilmer'
_symmetry_space_group_name_H-M	'P1'
_symmetry_Int_Tables_number	1
_symmetry_cell_setting	triclinic
loop_
_symmetry_equiv_pos_as_xyz
  x,y,z
_cell_length_a	18.6229
_cell_length_b	18.6229
_cell_length_c	18.6229
_cell_angle_alpha	60
_cell_angle_beta	60
_cell_angle_gamma	60
loop_
_atom_site_label
_atom_site_type_symbol
_atom_site_fract_x
_atom_site_fract_y
_atom_site_fract_z
_atom_site_charge
Mof_Cu	Cu	-1.24467e-17	0.43	0.57	0.799
Mof_Cu	Cu	0.43	0	-0	0.683
Mof_Cu	Cu	0.57	0	-0	0.696
Mof_Cu	Cu	-7.468e-17	0.57	0.43	0.799
Mof_Cu	Cu	-0	0.57	-0	0.696
Mof_Cu	Cu	0.43	0	0.57	0.799
Mof_Cu	Cu	0.57	0	0.43	0.799
Mof_Cu	Cu	-0	0.43	-0	0.683
Mof_Cu	Cu	2.48933e-17	0	0.43	0.683
Mof_Cu	Cu	0.43	0.57	-0	0.799
Mof_Cu	Cu	0.57	0.43	-0	0.799
Mof_Cu	Cu	6.22334e-17	0	0.57	0.696
Mof_H 	H 	0.9718	0.2704	0.4874	0.072
Mof_H 	H 	0.2704	0.9718	0.2704	0.048
Mof_H 	H 	0.4874	0.2704	0.9718	0.072
Mof_H 	H 	0.2704	0.4874	0.2704	0.002
Mof_H 	H 	0.9718	0.4874	0.2704	0.072
Mof_H 	H 	0.2704	0.2704	0.4874	0.002
Mof_H 	H 	0.4874	0.9718	0.2704	0.072
Mof_H 	H 	0.2704	0.2704	0.9718	0.048
Mof_H 	H 	0.9718	0.2704	0.2704	0.048
Mof_H 	H 	0.2704	0.4874	0.9718	0.072
Mof_H 	H 	0.4874	0.2704	0.2704	0.002
Mof_H 	H 	0.2704	0.9718	0.4874	0.072
Mof_H 	H 	0.7296	0.0282	0.5126	0.025
Mof_H 	H 	0.0282	0.7296	0.7296	0.051
Mof_H 	H 	0.7296	0.5126	0.0282	0.025
Mof_H 	H 	0.5126	0.7296	0.7296	0.089
Mof_H 	H 	0.5126	0.0282	0.7296	0.025
Mof_H 	H 	0.7296	0.7296	0.5126	0.089
Mof_H 	H 	0.0282	0.5126	0.7296	0.025
Mof_H 	H 	0.7296	0.7296	0.0282	0.051
Mof_H 	H 	0.7296	0.0282	0.7296	0.051
Mof_H 	H 	0.5126	0.7296	0.0282	0.025
Mof_H 	H 	0.7296	0.5126	0.7296	0.089
Mof_H 	H 	0.0282	0.7296	0.5126	0.025
Mof_C 	C 	0.97092	0.3001	0.42888	0.05
Mof_C 	C 	0.3001	0.97092	0.3001	0.052
Mof_C 	C 	0.42888	0.3001	0.97092	0.05
Mof_C 	C 	0.3001	0.42888	0.3001	0.091
Mof_C 	C 	0.97092	0.42888	0.3001	0.05
Mof_C 	C 	0.3001	0.3001	0.42888	0.091
Mof_C 	C 	0.42888	0.97092	0.3001	0.05
Mof_C 	C 	0.3001	0.3001	0.97092	0.052
Mof_C 	C 	0.97092	0.3001	0.3001	0.052
Mof_C 	C 	0.3001	0.42888	0.97092	0.05
Mof_C 	C 	0.42888	0.3001	0.3001	0.091
Mof_C 	C 	0.3001	0.97092	0.42888	0.05
Mof_C 	C 	0.6999	0.02908	0.57112	0.069
Mof_C 	C 	0.02908	0.6999	0.6999	0.064
Mof_C 	C 	0.6999	0.57112	0.02908	0.069
Mof_C 	C 	0.57112	0.6999	0.6999	0.038
Mof_C 	C 	0.57112	0.02908	0.6999	0.069
Mof_C 	C 	0.6999	0.6999	0.57112	0.038
Mof_C 	C 	0.02908	0.57112	0.6999	0.069
Mof_C 	C 	0.6999	0.6999	0.02908	0.064
Mof_C 	C 	0.6999	0.02908	0.6999	0.064
Mof_C 	C 	0.57112	0.6999	0.02908	0.069
Mof_C 	C 	0.6999	0.57112	0.6999	0.038
Mof_C 	C 	0.02908	0.6999	0.57112	0.069
Mof_C 	C 	0.9704	0.3863	0.3863	-0.076
Mof_C 	C 	0.97722	0.4302	0.4302	0.356
Mof_C 	C 	0.3863	0.9704	0.257	-0.093
Mof_C 	C 	0.4302	0.97722	0.16238	0.356
Mof_C 	C 	0.3863	0.257	0.9704	-0.093
Mof_C 	C 	0.4302	0.16238	0.97722	0.356
Mof_C 	C 	0.257	0.3863	0.3863	-0.183
Mof_C 	C 	0.16238	0.4302	0.4302	0.385
Mof_C 	C 	0.9704	0.3863	0.257	-0.093
Mof_C 	C 	0.97722	0.4302	0.16238	0.356
Mof_C 	C 	0.3863	0.257	0.3863	-0.183
Mof_C 	C 	0.4302	0.16238	0.4302	0.385
Mof_C 	C 	0.3863	0.9704	0.3863	-0.076
Mof_C 	C 	0.4302	0.97722	0.4302	0.356
Mof_C 	C 	0.257	0.3863	0.9704	-0.093
Mof_C 	C 	0.16238	0.4302	0.97722	0.356
Mof_C 	C 	0.9704	0.257	0.3863	-0.093
Mof_C 	C 	0.97722	0.16238	0.4302	0.356
Mof_C 	C 	0.3863	0.3863	0.9704	-0.076
Mof_C 	C 	0.4302	0.4302	0.97722	0.356
Mof_C 	C 	0.3863	0.3863	0.257	-0.183
Mof_C 	C 	0.4302	0.4302	0.16238	0.385
Mof_C 	C 	0.257	0.9704	0.3863	-0.093
Mof_C 	C 	0.16238	0.97722	0.4302	0.356
Mof_C 	C 	0.6137	0.0296	0.6137	-0.15
Mof_C 	C 	0.5698	0.02278	0.5698	0.379
Mof_C 	C 	0.0296	0.6137	0.743	-0.125
Mof_C 	C 	0.02278	0.5698	0.83762	0.359
Mof_C 	C 	0.743	0.6137	0.0296	-0.125
Mof_C 	C 	0.83762	0.5698	0.02278	0.359
Mof_C 	C 	0.6137	0.743	0.6137	-0.052
Mof_C 	C 	0.5698	0.83762	0.5698	0.353
Mof_C 	C 	0.6137	0.0296	0.743	-0.125
Mof_C 	C 	0.5698	0.02278	0.83762	0.359
Mof_C 	C 	0.743	0.6137	0.6137	-0.052
Mof_C 	C 	0.83762	0.5698	0.5698	0.353
Mof_C 	C 	0.0296	0.6137	0.6137	-0.15
Mof_C 	C 	0.02278	0.5698	0.5698	0.379
Mof_C 	C 	0.6137	0.743	0.0296	-0.125
Mof_C 	C 	0.5698	0.83762	0.02278	0.359
Mof_C 	C 	0.743	0.0296	0.6137	-0.125
Mof_C 	C 	0.83762	0.02278	0.5698	0.359
Mof_C 	C 	0.6137	0.6137	0.0296	-0.15
Mof_C 	C 	0.5698	0.5698	0.02278	0.379
Mof_C 	C 	0.6137	0.6137	0.743	-0.052
Mof_C 	C 	0.5698	0.5698	0.83762	0.353
Mof_C 	C 	0.0296	0.743	0.6137	-0.125
Mof_C 	C 	0.02278	0.83762	0.5698	0.359
Mof_O 	O 	0.97996	0.3874	0.50684	-0.294
Mof_O 	O 	0.3874	0.97996	0.1258	-0.355
Mof_O 	O 	0.50684	0.1258	0.97996	-0.336
Mof_O 	O 	0.1258	0.50684	0.3874	-0.476
Mof_O 	O 	0.97996	0.50684	0.1258	-0.336
Mof_O 	O 	0.3874	0.1258	0.50684	-0.476
Mof_O 	O 	0.50684	0.97996	0.3874	-0.294
Mof_O 	O 	0.1258	0.3874	0.97996	-0.355
Mof_O 	O 	0.97996	0.1258	0.3874	-0.355
Mof_O 	O 	0.3874	0.50684	0.97996	-0.294
Mof_O 	O 	0.50684	0.3874	0.1258	-0.476
Mof_O 	O 	0.1258	0.97996	0.50684	-0.336
Mof_O 	O 	0.6126	0.02004	0.49316	-0.464
Mof_O 	O 	0.02004	0.6126	0.8742	-0.347
Mof_O 	O 	0.8742	0.49316	0.02004	-0.367
Mof_O 	O 	0.49316	0.8742	0.6126	-0.286
Mof_O 	O 	0.49316	0.02004	0.8742	-0.367
Mof_O 	O 	0.8742	0.6126	0.49316	-0.286
Mof_O 	O 	0.02004	0.49316	0.6126	-0.464
Mof_O 	O 	0.6126	0.8742	0.02004	-0.347
Mof_O 	O 	0.8742	0.02004	0.6126	-0.347
Mof_O 	O 	0.49316	0.6126	0.02004	-0.464
Mof_O 	O 	0.6126	0.49316	0.8742	-0.286
Mof_O 	O 	0.02004	0.8742	0.49316	-0.367
Mof_O 	O 	0.02004	0.6126	0.49316	-0.464
Mof_O 	O 	0.6126	0.02004	0.8742	-0.347
Mof_O 	O 	0.49316	0.8742	0.02004	-0.367
Mof_O 	O 	0.8742	0.49316	0.6126	-0.286
Mof_O 	O 	0.02004	0.49316	0.8742	-0.367
Mof_O 	O 	0.6126	0.8742	0.49316	-0.286
Mof_O 	O 	0.49316	0.02004	0.6126	-0.464
Mof_O 	O 	0.8742	0.6126	0.02004	-0.347
Mof_O 	O 	0.02004	0.8742	0.6126	-0.347
Mof_O 	O 	0.6126	0.49316	0.02004	-0.464
Mof_O 	O 	0.49316	0.6126	0.8742	-0.286
Mof_O 	O 	0.8742	0.02004	0.49316	-0.367
Mof_O 	O 	0.3874	0.97996	0.50684	-0.294
Mof_O 	O 	0.97996	0.3874	0.1258	-0.355
Mof_O 	O 	0.1258	0.50684	0.97996	-0.336
Mof_O 	O 	0.50684	0.1258	0.3874	-0.476
Mof_O 	O 	0.50684	0.97996	0.1258	-0.336
Mof_O 	O 	0.1258	0.3874	0.50684	-0.476
Mof_O 	O 	0.97996	0.50684	0.3874	-0.294
Mof_O 	O 	0.3874	0.1258	0.97996	-0.355
Mof_O 	O 	0.1258	0.97996	0.3874	-0.355
Mof_O 	O 	0.50684	0.3874	0.97996	-0.294
Mof_O 	O 	0.3874	0.50684	0.1258	-0.476
Mof_O 	O 	0.97996	0.1258	0.50684	-0.336
_end
