data_functionalizedCrystal
_audit_creation_method	'EQeq! by Chris Wilmer'
_symmetry_space_group_name_H-M	'P1'
_symmetry_Int_Tables_number	1
_symmetry_cell_setting	triclinic
loop_
_symmetry_equiv_pos_as_xyz
  x,y,z
_cell_length_a	14.665
_cell_length_b	16.7949
_cell_length_c	16.7292
_cell_angle_alpha	90
_cell_angle_beta	90
_cell_angle_gamma	90
loop_
_atom_site_label
_atom_site_type_symbol
_atom_site_fract_x
_atom_site_fract_y
_atom_site_fract_z
_atom_site_charge
Mof_O 	O 	0.9486	0.4016	0.0226	-0.376
Mof_O 	O 	0.046	0.3545	0.1129	-0.403
Mof_O 	O 	0.2292	0.1147	0.0332	-0.632
Mof_O 	O 	0.2232	0.0745	0.9143	-0.376
Mof_C 	C 	0.0392	0.2712	0.761	0.065
Mof_H 	H 	0.0612	0.2356	0.742	-0.017
Mof_H 	H 	0.0671	0.3174	0.7376	-0.008
Mof_O 	O 	0.8685	0.5351	0.1379	-0.491
Mof_O 	O 	0.895	0.4356	0.2219	-0.545
Mof_O 	O 	0.5701	0.721	0.3347	-0.482
Mof_O 	O 	0.6451	0.7506	0.2259	-0.494
Mof_C 	C 	0.7771	0.5355	0.488	-0.236
Mof_H 	H 	0.735	0.5562	0.5102	0.135
Mof_H 	H 	0.8313	0.5589	0.51	0.102
Mof_C 	C 	0.0107	0.3569	0.0434	-0.395
Mof_C 	C 	0.2004	0.1233	0.9634	0.443
Mof_C 	C 	0.0501	0.3064	0.9808	1.292
Mof_C 	C 	0.1085	0.2428	0.0028	-1.545
Mof_H 	H 	0.1238	0.2351	0.0562	0.497
Mof_C 	C 	0.1427	0.1922	0.9445	0.782
Mof_C 	C 	0.1182	0.2071	0.8644	-0.583
Mof_H 	H 	0.1371	0.1716	0.8252	0.211
Mof_C 	C 	0.0664	0.2733	0.8418	0.477
Mof_C 	C 	0.0255	0.3155	0.9032	-1.063
Mof_H 	H 	0.9794	0.3515	0.8907	0.524
Mof_C 	C 	0.8625	0.5033	0.2057	0.511
Mof_C 	C 	0.6334	0.7065	0.2878	0.319
Mof_C 	C 	0.8129	0.5459	0.2686	-0.139
Mof_C 	C 	0.7542	0.6067	0.249	0.032
Mof_H 	H 	0.75	0.6238	0.1963	0.029
Mof_C 	C 	0.701	0.643	0.3078	-0.057
Mof_C 	C 	0.7138	0.619	0.3888	-0.115
Mof_H 	H 	0.6819	0.6406	0.4253	0.087
Mof_C 	C 	0.7763	0.5622	0.409	0.091
Mof_C 	C 	0.8229	0.5197	0.3482	-0.035
Mof_H 	H 	0.859	0.4758	0.3604	0.053
Mof_O 	O 	0.4486	0.9016	0.0226	-0.358
Mof_O 	O 	0.546	0.8545	0.1129	-0.424
Mof_O 	O 	0.7292	0.6147	0.0332	-0.65
Mof_O 	O 	0.7232	0.5745	0.9143	-0.345
Mof_C 	C 	0.5392	0.7712	0.761	-0.244
Mof_H 	H 	0.5612	0.7356	0.742	0.157
Mof_H 	H 	0.5671	0.8174	0.7376	0.102
Mof_O 	O 	0.3685	0.0351	0.1379	-0.426
Mof_O 	O 	0.395	0.9356	0.2219	-0.426
Mof_O 	O 	0.0701	0.221	0.3347	-0.516
Mof_O 	O 	0.1451	0.2506	0.2259	-0.488
Mof_C 	C 	0.2771	0.0355	0.488	0.387
Mof_H 	H 	0.235	0.0562	0.5102	-0.163
Mof_H 	H 	0.3313	0.0589	0.51	-0.109
Mof_C 	C 	0.5107	0.8569	0.0434	-0.274
Mof_C 	C 	0.7004	0.6233	0.9634	0.455
Mof_C 	C 	0.5501	0.8064	0.9808	1.24
Mof_C 	C 	0.6085	0.7428	0.0028	-1.544
Mof_H 	H 	0.6238	0.7351	0.0562	0.506
Mof_C 	C 	0.6427	0.6922	0.9445	0.824
Mof_C 	C 	0.6182	0.7071	0.8644	-0.62
Mof_H 	H 	0.6371	0.6716	0.8252	0.25
Mof_C 	C 	0.5664	0.7733	0.8418	0.554
Mof_C 	C 	0.5255	0.8155	0.9032	-0.858
Mof_H 	H 	0.4794	0.8515	0.8907	0.396
Mof_C 	C 	0.3625	0.0033	0.2057	0.22
Mof_C 	C 	0.1334	0.2065	0.2878	0.319
Mof_C 	C 	0.3129	0.0459	0.2686	0.003
Mof_C 	C 	0.2542	0.1067	0.249	-0.045
Mof_H 	H 	0.25	0.1238	0.1963	0.048
Mof_C 	C 	0.201	0.143	0.3078	-0.088
Mof_C 	C 	0.2138	0.119	0.3888	-0.009
Mof_H 	H 	0.1819	0.1406	0.4253	0.025
Mof_C 	C 	0.2763	0.0622	0.409	-0.095
Mof_C 	C 	0.3229	0.0197	0.3482	-0.351
Mof_H 	H 	0.359	0.9758	0.3604	0.252
Mof_O 	O 	0.0514	0.5984	0.5226	-0.839
Mof_O 	O 	0.954	0.6455	0.6129	-0.602
Mof_O 	O 	0.7708	0.8853	0.5332	-0.41
Mof_O 	O 	0.7768	0.9255	0.4143	-0.391
Mof_C 	C 	0.9608	0.7288	0.261	-0.158
Mof_H 	H 	0.9388	0.7644	0.242	0.129
Mof_H 	H 	0.9329	0.6826	0.2376	0.1
Mof_O 	O 	0.1315	0.4649	0.6379	-0.573
Mof_O 	O 	0.105	0.5644	0.7219	-0.565
Mof_O 	O 	0.4299	0.279	0.8347	-0.382
Mof_O 	O 	0.3549	0.2494	0.7259	-0.405
Mof_C 	C 	0.2229	0.4645	0.988	-3.679
Mof_H 	H 	0.265	0.4438	0.0102	1.225
Mof_H 	H 	0.1687	0.4411	0.01	0.829
Mof_C 	C 	0.9893	0.6431	0.5434	0.83
Mof_C 	C 	0.7996	0.8767	0.4634	0.412
Mof_C 	C 	0.9499	0.6936	0.4808	-0.399
Mof_C 	C 	0.8915	0.7572	0.5028	0.224
Mof_H 	H 	0.8762	0.7649	0.5562	-0.014
Mof_C 	C 	0.8573	0.8078	0.4445	-0.181
Mof_C 	C 	0.8818	0.7929	0.3644	0.073
Mof_H 	H 	0.8629	0.8284	0.3252	0.035
Mof_C 	C 	0.9336	0.7267	0.3418	-0.092
Mof_C 	C 	0.9745	0.6845	0.4032	0.388
Mof_H 	H 	0.0206	0.6485	0.3907	-0.17
Mof_C 	C 	0.1375	0.4967	0.7057	0.307
Mof_C 	C 	0.3666	0.2935	0.7878	0.035
Mof_C 	C 	0.1871	0.4541	0.7686	0.496
Mof_C 	C 	0.2458	0.3933	0.749	-0.631
Mof_H 	H 	0.25	0.3762	0.6963	0.259
Mof_C 	C 	0.299	0.357	0.8078	0.716
Mof_C 	C 	0.2862	0.381	0.8888	-1.655
Mof_H 	H 	0.3181	0.3594	0.9253	0.761
Mof_C 	C 	0.2237	0.4378	0.909	2.13
Mof_C 	C 	0.1771	0.4803	0.8482	-1.201
Mof_H 	H 	0.141	0.5242	0.8604	0.514
Mof_O 	O 	0.5514	0.0984	0.5226	-0.669
Mof_O 	O 	0.454	0.1455	0.6129	-0.641
Mof_O 	O 	0.2708	0.3853	0.5332	-0.525
Mof_O 	O 	0.2768	0.4255	0.4143	-0.547
Mof_C 	C 	0.4608	0.2288	0.261	0.146
Mof_H 	H 	0.4388	0.2644	0.242	-0.041
Mof_H 	H 	0.4329	0.1826	0.2376	-0.006
Mof_O 	O 	0.6315	0.9649	0.6379	-0.495
Mof_O 	O 	0.605	0.0644	0.7219	-0.758
Mof_O 	O 	0.9299	0.779	0.8347	-0.27
Mof_O 	O 	0.8549	0.7494	0.7259	-0.333
Mof_C 	C 	0.7229	0.9645	0.988	-4.358
Mof_H 	H 	0.765	0.9438	0.0102	1.543
Mof_H 	H 	0.6687	0.9411	0.01	1.056
Mof_C 	C 	0.4893	0.1431	0.5434	0.616
Mof_C 	C 	0.2996	0.3767	0.4634	0.439
Mof_C 	C 	0.4499	0.1936	0.4808	-0.276
Mof_C 	C 	0.3915	0.2572	0.5028	0.165
Mof_H 	H 	0.3762	0.2649	0.5562	-0.012
Mof_C 	C 	0.3573	0.3078	0.4445	-0.203
Mof_C 	C 	0.3818	0.2929	0.3644	0.091
Mof_H 	H 	0.3629	0.3284	0.3252	0.002
Mof_C 	C 	0.4336	0.2267	0.3418	-0.146
Mof_C 	C 	0.4745	0.1845	0.4032	0.142
Mof_H 	H 	0.5206	0.1485	0.3907	-0.021
Mof_C 	C 	0.6375	0.9967	0.7057	0.583
Mof_C 	C 	0.8666	0.7935	0.7878	0.016
Mof_C 	C 	0.6871	0.9541	0.7686	0.376
Mof_C 	C 	0.7458	0.8933	0.749	-0.577
Mof_H 	H 	0.75	0.8762	0.6963	0.258
Mof_C 	C 	0.799	0.857	0.8078	0.771
Mof_C 	C 	0.7862	0.881	0.8888	-1.793
Mof_H 	H 	0.8181	0.8594	0.9253	0.835
Mof_C 	C 	0.7237	0.9378	0.909	2.353
Mof_C 	C 	0.6771	0.9803	0.8482	-0.906
Mof_H 	H 	0.641	0.0242	0.8604	0.319
Mof_O 	O 	0.0514	0.4016	0.4774	-0.827
Mof_O 	O 	0.954	0.3545	0.3871	-0.582
Mof_O 	O 	0.7708	0.1147	0.4668	-0.46
Mof_O 	O 	0.7768	0.0745	0.5857	-0.525
Mof_C 	C 	0.9608	0.2712	0.739	-0.942
Mof_H 	H 	0.9388	0.2356	0.758	0.504
Mof_H 	H 	0.9329	0.3174	0.7624	0.327
Mof_O 	O 	0.1315	0.5351	0.3621	-0.692
Mof_O 	O 	0.105	0.4356	0.2781	-0.709
Mof_O 	O 	0.4299	0.721	0.1653	-0.581
Mof_O 	O 	0.3549	0.7506	0.2741	-0.521
Mof_C 	C 	0.2229	0.5355	0.012	3.244
Mof_H 	H 	0.265	0.5562	0.9898	-0.964
Mof_H 	H 	0.1687	0.5589	0.99	-0.644
Mof_C 	C 	0.9893	0.3569	0.4566	0.774
Mof_C 	C 	0.7996	0.1233	0.5366	0.389
Mof_C 	C 	0.9499	0.3064	0.5192	-0.271
Mof_C 	C 	0.8915	0.2428	0.4972	0.11
Mof_H 	H 	0.8762	0.2351	0.4438	0.022
Mof_C 	C 	0.8573	0.1922	0.5555	-0.095
Mof_C 	C 	0.8818	0.2071	0.6356	-0.151
Mof_H 	H 	0.8629	0.1716	0.6748	0.089
Mof_C 	C 	0.9336	0.2733	0.6582	0.271
Mof_C 	C 	0.9745	0.3155	0.5968	0.143
Mof_H 	H 	0.0206	0.3515	0.6093	-0.089
Mof_C 	C 	0.1375	0.5033	0.2943	0.807
Mof_C 	C 	0.3666	0.7065	0.2122	0.605
Mof_C 	C 	0.1871	0.5459	0.2314	-0.859
Mof_C 	C 	0.2458	0.6067	0.251	0.748
Mof_H 	H 	0.25	0.6238	0.3037	-0.202
Mof_C 	C 	0.299	0.643	0.1922	-0.84
Mof_C 	C 	0.2862	0.619	0.1112	1.459
Mof_H 	H 	0.3181	0.6406	0.0747	-0.592
Mof_C 	C 	0.2237	0.5622	0.091	-1.984
Mof_C 	C 	0.1771	0.5197	0.1518	1.161
Mof_H 	H 	0.141	0.4758	0.1396	-0.461
Mof_O 	O 	0.5514	0.9016	0.4774	-0.554
Mof_O 	O 	0.454	0.8545	0.3871	-0.586
Mof_O 	O 	0.2708	0.6147	0.4668	-0.485
Mof_O 	O 	0.2768	0.5745	0.5857	-0.517
Mof_C 	C 	0.4608	0.7712	0.739	-0.685
Mof_H 	H 	0.4388	0.7356	0.758	0.373
Mof_H 	H 	0.4329	0.8174	0.7624	0.236
Mof_O 	O 	0.6315	0.0351	0.3621	-0.597
Mof_O 	O 	0.605	0.9356	0.2781	-0.523
Mof_O 	O 	0.9299	0.221	0.1653	-0.509
Mof_O 	O 	0.8549	0.2506	0.2741	-0.472
Mof_C 	C 	0.7229	0.0355	0.012	3.875
Mof_H 	H 	0.765	0.0562	0.9898	-1.245
Mof_H 	H 	0.6687	0.0589	0.99	-0.84
Mof_C 	C 	0.4893	0.8569	0.4566	0.524
Mof_C 	C 	0.2996	0.6233	0.5366	0.367
Mof_C 	C 	0.4499	0.8064	0.5192	-0.104
Mof_C 	C 	0.3915	0.7428	0.4972	0.003
Mof_H 	H 	0.3762	0.7351	0.4438	0.05
Mof_C 	C 	0.3573	0.6922	0.5555	-0.042
Mof_C 	C 	0.3818	0.7071	0.6356	-0.181
Mof_H 	H 	0.3629	0.6716	0.6748	0.107
Mof_C 	C 	0.4336	0.7733	0.6582	0.268
Mof_C 	C 	0.4745	0.8155	0.5968	-0.149
Mof_H 	H 	0.5206	0.8515	0.6093	0.096
Mof_C 	C 	0.6375	0.0033	0.2943	0.51
Mof_C 	C 	0.8666	0.2065	0.2122	0.586
Mof_C 	C 	0.6871	0.0459	0.2314	-0.686
Mof_C 	C 	0.7458	0.1067	0.251	0.644
Mof_H 	H 	0.75	0.1238	0.3037	-0.168
Mof_C 	C 	0.799	0.143	0.1922	-0.826
Mof_C 	C 	0.7862	0.119	0.1112	1.536
Mof_H 	H 	0.8181	0.1406	0.0747	-0.62
Mof_C 	C 	0.7237	0.0622	0.091	-2.147
Mof_C 	C 	0.6771	0.0197	0.1518	0.837
Mof_H 	H 	0.641	0.9758	0.1396	-0.234
Mof_O 	O 	0.9486	0.5984	0.9774	-0.37
Mof_O 	O 	0.046	0.6455	0.8871	-0.667
Mof_O 	O 	0.2292	0.8853	0.9668	-0.008
Mof_O 	O 	0.2232	0.9255	0.0857	-0.302
Mof_C 	C 	0.0392	0.7288	0.239	0.016
Mof_H 	H 	0.0612	0.7644	0.258	0.018
Mof_H 	H 	0.0671	0.6826	0.2624	0.021
Mof_O 	O 	0.8685	0.4649	0.8621	-0.404
Mof_O 	O 	0.895	0.5644	0.7781	-0.536
Mof_O 	O 	0.5701	0.279	0.6653	-0.487
Mof_O 	O 	0.6451	0.2494	0.7741	-0.426
Mof_C 	C 	0.7771	0.4645	0.512	-0.214
Mof_H 	H 	0.735	0.4438	0.4898	0.127
Mof_H 	H 	0.8313	0.4411	0.49	0.097
Mof_C 	C 	0.0107	0.6431	0.9566	0.998
Mof_C 	C 	0.2004	0.8767	0.0366	0.212
Mof_C 	C 	0.0501	0.6936	0.0192	-1.319
Mof_C 	C 	0.1085	0.7572	0.9972	1.477
Mof_H 	H 	0.1238	0.7649	0.9438	-0.385
Mof_C 	C 	0.1427	0.8078	0.0555	-0.903
Mof_C 	C 	0.1182	0.7929	0.1356	0.445
Mof_H 	H 	0.1371	0.8284	0.1748	-0.099
Mof_C 	C 	0.0664	0.7267	0.1582	-0.403
Mof_C 	C 	0.0255	0.6845	0.0968	0.493
Mof_H 	H 	0.9794	0.6485	0.1093	-0.106
Mof_C 	C 	0.8625	0.4967	0.7943	0.48
Mof_C 	C 	0.6334	0.2935	0.7122	0.302
Mof_C 	C 	0.8129	0.4541	0.7314	-0.119
Mof_C 	C 	0.7542	0.3933	0.751	0.002
Mof_H 	H 	0.75	0.3762	0.8037	0.07
Mof_C 	C 	0.701	0.357	0.6922	-0.025
Mof_C 	C 	0.7138	0.381	0.6112	-0.132
Mof_H 	H 	0.6819	0.3594	0.5747	0.094
Mof_C 	C 	0.7763	0.4378	0.591	0.093
Mof_C 	C 	0.8229	0.4803	0.6518	-0.047
Mof_H 	H 	0.859	0.5242	0.6396	0.055
Mof_O 	O 	0.4486	0.0984	0.9774	-0.493
Mof_O 	O 	0.546	0.1455	0.8871	-0.735
Mof_O 	O 	0.7292	0.3853	0.9668	-0.09
Mof_O 	O 	0.7232	0.4255	0.0857	-0.436
Mof_C 	C 	0.5392	0.2288	0.239	-0.252
Mof_H 	H 	0.5612	0.2644	0.258	0.154
Mof_H 	H 	0.5671	0.1826	0.2624	0.114
Mof_O 	O 	0.3685	0.9649	0.8621	-0.365
Mof_O 	O 	0.395	0.0644	0.7781	-0.8
Mof_O 	O 	0.0701	0.779	0.6653	-0.491
Mof_O 	O 	0.1451	0.7494	0.7741	-0.405
Mof_C 	C 	0.2771	0.9645	0.512	-0.812
Mof_H 	H 	0.235	0.9438	0.4898	0.398
Mof_H 	H 	0.3313	0.9411	0.49	0.293
Mof_C 	C 	0.5107	0.1431	0.9566	1.238
Mof_C 	C 	0.7004	0.3767	0.0366	0.262
Mof_C 	C 	0.5501	0.1936	0.0192	-1.51
Mof_C 	C 	0.6085	0.2572	0.9972	1.642
Mof_H 	H 	0.6238	0.2649	0.9438	-0.435
Mof_C 	C 	0.6427	0.3078	0.0555	-0.998
Mof_C 	C 	0.6182	0.2929	0.1356	0.491
Mof_H 	H 	0.6371	0.3284	0.1748	-0.123
Mof_C 	C 	0.5664	0.2267	0.1582	-0.402
Mof_C 	C 	0.5255	0.1845	0.0968	0.774
Mof_H 	H 	0.4794	0.1485	0.1093	-0.27
Mof_C 	C 	0.3625	0.9967	0.7943	0.764
Mof_C 	C 	0.1334	0.7935	0.7122	0.309
Mof_C 	C 	0.3129	0.9541	0.7314	-0.29
Mof_C 	C 	0.2542	0.8933	0.751	0.1
Mof_H 	H 	0.25	0.8762	0.8037	0.045
Mof_C 	C 	0.201	0.857	0.6922	-0.038
Mof_C 	C 	0.2138	0.881	0.6112	-0.201
Mof_H 	H 	0.1819	0.8594	0.5747	0.116
Mof_C 	C 	0.2763	0.9378	0.591	0.24
Mof_C 	C 	0.3229	0.9803	0.6518	0.284
Mof_H 	H 	0.359	0.0242	0.6396	-0.18
Mof_Pr	Pr	4.13256e-33	0.33163	0.25	2.475
Mof_Pr	Pr	0.5	0.83163	0.25	2.774
Mof_Pr	Pr	9.33441e-33	0.66837	0.75	2.51
Mof_Pr	Pr	0.5	0.16837	0.75	2.945
Mof_Pr	Pr	0.83765	0.5	-0	1.71
Mof_Pr	Pr	0.33765	0	-0	1.175
Mof_Pr	Pr	0.16235	0.5	0.5	2.998
Mof_Pr	Pr	0.66235	0	0.5	2.35
_end
