# CIF file generated by openbabel 3.1.0, see https://openbabel.org
data_I
_chemical_name_common 'image0'
_cell_length_a 18.368
_cell_length_b 18.368
_cell_length_c 17.964
_cell_angle_alpha 90
_cell_angle_beta 90
_cell_angle_gamma 120
_space_group_name_H-M_alt 'P 1'
_space_group_name_Hall 'P 1'
loop_
    _symmetry_equiv_pos_as_xyz
    x,y,z
loop_
    _atom_site_label
    _atom_site_type_symbol
    _atom_site_fract_x
    _atom_site_fract_y
    _atom_site_fract_z
    _atom_site_occupancy
    O1       O        0.31760    0.22430    0.84260    1.000
    Zn1      Zn       0.24313    0.34157    0.67044    1.000
    C1       C        0.27920    0.15740    0.80650    1.000
    O2       O        0.21190    0.28190    0.57550    1.000
    O3       O        0.23650    0.44200    0.65480    1.000
    O4       O        0.15160    0.27130    0.73730    1.000
    C2       C        0.24170    0.07590    0.84960    1.000
    C3       C        0.30860    0.49900    0.63300    1.000
    C4       C        0.25370    0.07600    0.92500    1.000
    O5       O        0.36810    0.48600    0.62140    1.000
    C5       C        0.32160    0.58590    0.62440    1.000
    H1       H        0.28300    0.12730    0.95070    1.000
    C6       C        0.25240    0.59870    0.62450    1.000
    H2       H        0.19760    0.55220    0.62470    1.000
    O6       O        0.77570    0.09330    0.84260    1.000
    Zn2      Zn       0.65843    0.90156    0.67044    1.000
    C7       C        0.84260    0.12180    0.80650    1.000
    O7       O        0.71810    0.93000    0.57550    1.000
    O8       O        0.55800    0.79450    0.65480    1.000
    O9       O        0.72870    0.88030    0.73730    1.000
    C8       C        0.92410    0.16580    0.84960    1.000
    C9       C        0.50100    0.80960    0.63300    1.000
    C10      C        0.92400    0.17770    0.92500    1.000
    O10      O        0.51400    0.88210    0.62140    1.000
    C11      C        0.41410    0.73570    0.62440    1.000
    H3       H        0.87270    0.15570    0.95070    1.000
    C12      C        0.40130    0.65370    0.62450    1.000
    H4       H        0.44780    0.64540    0.62470    1.000
    O11      O        0.90670    0.68240    0.84260    1.000
    Zn3      Zn       0.09844    0.75687    0.67044    1.000
    C13      C        0.87820    0.72080    0.80650    1.000
    O12      O        0.07000    0.78810    0.57550    1.000
    O13      O        0.20550    0.76350    0.65480    1.000
    O14      O        0.11970    0.84840    0.73730    1.000
    C14      C        0.83420    0.75830    0.84960    1.000
    C15      C        0.19040    0.69140    0.63300    1.000
    C16      C        0.82230    0.74630    0.92500    1.000
    O15      O        0.11790    0.63190    0.62140    1.000
    C17      C        0.26430    0.67840    0.62440    1.000
    H5       H        0.84430    0.71700    0.95070    1.000
    C18      C        0.34630    0.74760    0.62450    1.000
    H6       H        0.35460    0.80240    0.62470    1.000
    O16      O        0.68240    0.77570    0.34260    1.000
    Zn4      Zn       0.75687    0.65843    0.17044    1.000
    C19      C        0.72080    0.84260    0.30650    1.000
    O17      O        0.78810    0.71810    0.07550    1.000
    O18      O        0.76350    0.55800    0.15480    1.000
    O19      O        0.84840    0.72870    0.23730    1.000
    C20      C        0.75830    0.92410    0.34960    1.000
    C21      C        0.69140    0.50100    0.13300    1.000
    C22      C        0.74630    0.92400    0.42500    1.000
    O20      O        0.63190    0.51400    0.12140    1.000
    C23      C        0.67840    0.41410    0.12440    1.000
    H7       H        0.71700    0.87270    0.45070    1.000
    C24      C        0.74760    0.40130    0.12450    1.000
    H8       H        0.80240    0.44780    0.12470    1.000
    O21      O        0.22430    0.90670    0.34260    1.000
    Zn5      Zn       0.34157    0.09844    0.17044    1.000
    C25      C        0.15740    0.87820    0.30650    1.000
    O22      O        0.28190    0.07000    0.07550    1.000
    O23      O        0.44200    0.20550    0.15480    1.000
    O24      O        0.27130    0.11970    0.23730    1.000
    C26      C        0.07590    0.83420    0.34960    1.000
    C27      C        0.49900    0.19040    0.13300    1.000
    C28      C        0.07600    0.82230    0.42500    1.000
    O25      O        0.48600    0.11790    0.12140    1.000
    C29      C        0.58590    0.26430    0.12440    1.000
    H9       H        0.12730    0.84430    0.45070    1.000
    C30      C        0.59870    0.34630    0.12450    1.000
    H10      H        0.55220    0.35460    0.12470    1.000
    O26      O        0.09330    0.31760    0.34260    1.000
    Zn6      Zn       0.90156    0.24313    0.17044    1.000
    C31      C        0.12180    0.27920    0.30650    1.000
    O27      O        0.93000    0.21190    0.07550    1.000
    O28      O        0.79450    0.23650    0.15480    1.000
    O29      O        0.88030    0.15160    0.23730    1.000
    C32      C        0.16580    0.24170    0.34960    1.000
    C33      C        0.80960    0.30860    0.13300    1.000
    C34      C        0.17770    0.25370    0.42500    1.000
    O30      O        0.88210    0.36810    0.12140    1.000
    C35      C        0.73570    0.32160    0.12440    1.000
    H11      H        0.15570    0.28300    0.45070    1.000
    C36      C        0.65370    0.25240    0.12450    1.000
    H12      H        0.64540    0.19760    0.12470    1.000
    O31      O        0.77570    0.68240    0.34260    1.000
    Zn7      Zn       0.65843    0.75687    0.17044    1.000
    C37      C        0.84260    0.72080    0.30650    1.000
    O32      O        0.71810    0.78810    0.07550    1.000
    O33      O        0.55800    0.76350    0.15480    1.000
    O34      O        0.72870    0.84840    0.23730    1.000
    C38      C        0.92410    0.75830    0.34960    1.000
    C39      C        0.50100    0.69140    0.13300    1.000
    C40      C        0.92400    0.74630    0.42500    1.000
    O35      O        0.51400    0.63190    0.12140    1.000
    C41      C        0.41410    0.67840    0.12440    1.000
    H13      H        0.87270    0.71700    0.45070    1.000
    C42      C        0.40130    0.74760    0.12450    1.000
    H14      H        0.44780    0.80240    0.12470    1.000
    O36      O        0.90670    0.22430    0.34260    1.000
    Zn8      Zn       0.09844    0.34157    0.17044    1.000
    C43      C        0.87820    0.15740    0.30650    1.000
    O37      O        0.07000    0.28190    0.07550    1.000
    O38      O        0.20550    0.44200    0.15480    1.000
    O39      O        0.11970    0.27130    0.23730    1.000
    C44      C        0.83420    0.07590    0.34960    1.000
    C45      C        0.19040    0.49900    0.13300    1.000
    C46      C        0.82230    0.07600    0.42500    1.000
    O40      O        0.11790    0.48600    0.12140    1.000
    C47      C        0.26430    0.58590    0.12440    1.000
    H15      H        0.84430    0.12730    0.45070    1.000
    C48      C        0.34630    0.59870    0.12450    1.000
    H16      H        0.35460    0.55220    0.12470    1.000
    O41      O        0.31760    0.09330    0.34260    1.000
    Zn9      Zn       0.24313    0.90156    0.17044    1.000
    C49      C        0.27920    0.12180    0.30650    1.000
    O42      O        0.21190    0.93000    0.07550    1.000
    O43      O        0.23650    0.79450    0.15480    1.000
    O44      O        0.15160    0.88030    0.23730    1.000
    C50      C        0.24170    0.16580    0.34960    1.000
    C51      C        0.30860    0.80960    0.13300    1.000
    C52      C        0.25370    0.17770    0.42500    1.000
    O45      O        0.36810    0.88210    0.12140    1.000
    C53      C        0.32160    0.73570    0.12440    1.000
    H17      H        0.28300    0.15570    0.45070    1.000
    C54      C        0.25240    0.65370    0.12450    1.000
    H18      H        0.19760    0.64540    0.12470    1.000
    O46      O        0.22430    0.31760    0.84260    1.000
    Zn10     Zn       0.34157    0.24313    0.67044    1.000
    C55      C        0.15740    0.27920    0.80650    1.000
    O47      O        0.28190    0.21190    0.57550    1.000
    O48      O        0.44200    0.23650    0.65480    1.000
    O49      O        0.27130    0.15160    0.73730    1.000
    C56      C        0.07590    0.24170    0.84960    1.000
    C57      C        0.49900    0.30860    0.63300    1.000
    C58      C        0.07600    0.25370    0.92500    1.000
    O50      O        0.48600    0.36810    0.62140    1.000
    C59      C        0.58590    0.32160    0.62440    1.000
    H19      H        0.12730    0.28300    0.95070    1.000
    C60      C        0.59870    0.25240    0.62450    1.000
    H20      H        0.55220    0.19760    0.62470    1.000
    O51      O        0.09330    0.77570    0.84260    1.000
    Zn11     Zn       0.90156    0.65843    0.67044    1.000
    C61      C        0.12180    0.84260    0.80650    1.000
    O52      O        0.93000    0.71810    0.57550    1.000
    O53      O        0.79450    0.55800    0.65480    1.000
    O54      O        0.88030    0.72870    0.73730    1.000
    C62      C        0.16580    0.92410    0.84960    1.000
    C63      C        0.80960    0.50100    0.63300    1.000
    C64      C        0.17770    0.92400    0.92500    1.000
    O55      O        0.88210    0.51400    0.62140    1.000
    C65      C        0.73570    0.41410    0.62440    1.000
    H21      H        0.15570    0.87270    0.95070    1.000
    C66      C        0.65370    0.40130    0.62450    1.000
    H22      H        0.64540    0.44780    0.62470    1.000
    O56      O        0.68240    0.90670    0.84260    1.000
    Zn12     Zn       0.75687    0.09844    0.67044    1.000
    C67      C        0.72080    0.87820    0.80650    1.000
    O57      O        0.78810    0.07000    0.57550    1.000
    O58      O        0.76350    0.20550    0.65480    1.000
    O59      O        0.84840    0.11970    0.73730    1.000
    C68      C        0.75830    0.83420    0.84960    1.000
    C69      C        0.69140    0.19040    0.63300    1.000
    C70      C        0.74630    0.82230    0.92500    1.000
    O60      O        0.63190    0.11790    0.62140    1.000
    C71      C        0.67840    0.26430    0.62440    1.000
    H23      H        0.71700    0.84430    0.95070    1.000
    C72      C        0.74760    0.34630    0.62450    1.000
    H24      H        0.80240    0.35460    0.62470    1.000
    Zn13     Zn       0.34910    0.34910    0.82824    1.000
    O61      O        0.34350    0.34350    0.71270    1.000
    C73      C        0.23910    0.23910    0.54520    1.000
    C74      C        0.22240    0.22240    0.46420    1.000
    Zn14     Zn       0.65090    0.00000    0.82824    1.000
    O62      O        0.65650    0.00000    0.71270    1.000
    C75      C        0.76090    0.00000    0.54520    1.000
    C76      C        0.77760    0.00000    0.46420    1.000
    Zn15     Zn       0.00000    0.65090    0.82824    1.000
    O63      O        0.00000    0.65650    0.71270    1.000
    C77      C        0.00000    0.76090    0.54520    1.000
    C78      C        0.00000    0.77760    0.46420    1.000
    Zn16     Zn       0.65090    0.65090    0.32824    1.000
    O64      O        0.65650    0.65650    0.21270    1.000
    C79      C        0.76090    0.76090    0.04520    1.000
    C80      C        0.77760    0.77760    0.96420    1.000
    Zn17     Zn       0.34910    0.00000    0.32824    1.000
    O65      O        0.34350    0.00000    0.21270    1.000
    C81      C        0.23910    0.00000    0.04520    1.000
    C82      C        0.22240    0.00000    0.96420    1.000
    Zn18     Zn       0.00000    0.34910    0.32824    1.000
    O66      O        0.00000    0.34350    0.21270    1.000
    C83      C        0.00000    0.23910    0.04520    1.000
    C84      C        0.00000    0.22240    0.96420    1.000
    C85      C        0.19770    0.00000    0.81110    1.000
    H25      H        0.18960    0.00000    0.75950    1.000
    C86      C        0.00000    0.19770    0.81110    1.000
    H26      H        0.00000    0.18960    0.75950    1.000
    C87      C        0.80230    0.80230    0.81110    1.000
    H27      H        0.81040    0.81040    0.75950    1.000
    C88      C        0.80230    0.00000    0.31110    1.000
    H28      H        0.81040    0.00000    0.25950    1.000
    C89      C        0.00000    0.80230    0.31110    1.000
    H29      H        0.00000    0.81040    0.25950    1.000
    C90      C        0.19770    0.19770    0.31110    1.000
    H30      H        0.18960    0.18960    0.25950    1.000
