data_functionalizedCrystal
_audit_creation_method	'EQeq! by Chris Wilmer'
_symmetry_space_group_name_H-M	'P1'
_symmetry_Int_Tables_number	1
_symmetry_cell_setting	triclinic
loop_
_symmetry_equiv_pos_as_xyz
  x,y,z
_cell_length_a	9.6084
_cell_length_b	15.8032
_cell_length_c	23.7927
_cell_angle_alpha	90
_cell_angle_beta	96.84
_cell_angle_gamma	90
loop_
_atom_site_label
_atom_site_type_symbol
_atom_site_fract_x
_atom_site_fract_y
_atom_site_fract_z
_atom_site_charge
Mof_Y 	Y 	0.86919	0.67458	0.02199	1.344
Mof_O 	O 	0.7117	0.5711	0.9817	-0.344
Mof_O 	O 	0.1121	0.6932	0.0449	-0.404
Mof_O 	O 	0.9506	0.5428	0.0619	-0.341
Mof_O 	O 	0.1868	0.7542	0.127	-0.399
Mof_O 	O 	0.0183	0.4116	0.0435	-0.319
Mof_N 	N 	0.6297	0.6719	0.0614	-0.189
Mof_N 	N 	0.4539	0.732	0.1117	-0.171
Mof_C 	C 	0.5301	0.6323	0.0261	0.005
Mof_C 	C 	0.2054	0.7156	0.0829	0.375
Mof_C 	C 	0.3882	0.6412	0.032	-0.043
Mof_C 	C 	0.3552	0.6939	0.0747	-0.026
Mof_O 	O 	0.491	0.5572	0.9409	-0.241
Mof_C 	C 	0.581	0.5821	0.9794	0.312
Mof_C 	C 	0.5868	0.7191	0.1032	0.123
Mof_C 	C 	0.9897	0.4869	0.0306	0.267
Mof_H 	H 	0.321	0.606	0.013	0.077
Mof_H 	H 	0.646	0.753	0.127	-0.014
Mof_Y 	Y 	0.36614	0.8348	0.85758	1.363
Mof_O 	O 	0.2067	0.9363	0.8164	-0.34
Mof_O 	O 	0.6071	0.8161	0.8823	-0.41
Mof_O 	O 	0.443	0.9696	0.8944	-0.337
Mof_O 	O 	0.564	0.0404	0.7699	-0.333
Mof_O 	O 	0.6874	0.737	0.9564	-0.401
Mof_O 	O 	0.4748	0.9151	0.7905	-0.326
Mof_O 	O 	0.5268	0.0965	0.874	-0.331
Mof_N 	N 	0.1251	0.8312	0.8934	-0.2
Mof_N 	N 	0.9523	0.7668	0.9414	-0.182
Mof_C 	C 	0.0254	0.8719	0.8593	0.018
Mof_C 	C 	0.7027	0.7857	0.9165	0.369
Mof_C 	C 	0.8846	0.8625	0.8665	-0.067
Mof_C 	C 	0.8533	0.8078	0.9068	-0.015
Mof_O 	O 	0.9851	0.9499	0.7747	-0.244
Mof_C 	C 	0.0741	0.9243	0.812	0.307
Mof_C 	C 	0.0834	0.7807	0.9326	0.153
Mof_C 	C 	0.4942	0.0223	0.8624	0.267
Mof_C 	C 	0.5135	0.9901	0.8022	0.264
Mof_H 	H 	0.816	0.886	0.845	0.084
Mof_H 	H 	0.156	0.758	0.952	-0.037
Mof_Y 	Y 	0.36551	0.82187	0.19299	1.35
Mof_O 	O 	0.2072	0.9229	0.1505	-0.342
Mof_O 	O 	0.6064	0.8078	0.217	-0.41
Mof_O 	O 	0.6877	0.7295	0.2923	-0.407
Mof_N 	N 	0.1231	0.8218	0.2281	-0.192
Mof_N 	N 	0.9499	0.7586	0.2774	-0.175
Mof_C 	C 	0.0253	0.864	0.1955	0.002
Mof_C 	C 	0.7022	0.7775	0.2521	0.375
Mof_C 	C 	0.8833	0.8553	0.2021	-0.018
Mof_C 	C 	0.8511	0.8008	0.2434	-0.035
Mof_O 	O 	0.9873	0.9408	0.1095	-0.24
Mof_C 	C 	0.0758	0.9139	0.1489	0.306
Mof_C 	C 	0.0802	0.7715	0.2681	0.132
Mof_H 	H 	0.799	0.884	0.177	0.062
Mof_H 	H 	0.15	0.741	0.291	-0.021
Mof_Y 	Y 	0.63081	0.17458	0.47801	1.348
Mof_O 	O 	0.7883	0.0711	0.5183	-0.345
Mof_O 	O 	0.3879	0.1932	0.4551	-0.406
Mof_O 	O 	0.5494	0.0428	0.4381	-0.341
Mof_O 	O 	0.3132	0.2542	0.373	-0.399
Mof_O 	O 	0.4817	0.9116	0.4565	-0.322
Mof_N 	N 	0.8703	0.1719	0.4386	-0.189
Mof_N 	N 	0.0461	0.232	0.3883	-0.17
Mof_C 	C 	0.9699	0.1323	0.4739	0.004
Mof_C 	C 	0.2946	0.2156	0.4171	0.376
Mof_C 	C 	0.1118	0.1412	0.468	-0.041
Mof_C 	C 	0.1448	0.1939	0.4253	-0.026
Mof_O 	O 	0.009	0.0572	0.5591	-0.241
Mof_C 	C 	0.919	0.0821	0.5206	0.311
Mof_C 	C 	0.9132	0.2191	0.3968	0.122
Mof_C 	C 	0.5103	0.9869	0.4694	0.27
Mof_H 	H 	0.179	0.106	0.487	0.076
Mof_H 	H 	0.854	0.253	0.373	-0.014
Mof_Y 	Y 	0.13386	0.3348	0.64242	1.363
Mof_O 	O 	0.2933	0.4363	0.6836	-0.341
Mof_O 	O 	0.8929	0.3161	0.6177	-0.41
Mof_O 	O 	0.057	0.4696	0.6056	-0.337
Mof_O 	O 	0.936	0.5404	0.7301	-0.332
Mof_O 	O 	0.8126	0.237	0.5436	-0.402
Mof_O 	O 	0.0252	0.4151	0.7095	-0.327
Mof_O 	O 	0.9732	0.5965	0.626	-0.331
Mof_N 	N 	0.3749	0.3312	0.6066	-0.201
Mof_N 	N 	0.5477	0.2668	0.5586	-0.185
Mof_C 	C 	0.4746	0.3719	0.6407	0.022
Mof_C 	C 	0.7973	0.2857	0.5835	0.369
Mof_C 	C 	0.6154	0.3625	0.6335	-0.073
Mof_C 	C 	0.6467	0.3078	0.5932	-0.014
Mof_O 	O 	0.5149	0.4499	0.7253	-0.246
Mof_C 	C 	0.4259	0.4243	0.688	0.309
Mof_C 	C 	0.4166	0.2807	0.5674	0.157
Mof_C 	C 	0.0058	0.5223	0.6376	0.267
Mof_C 	C 	0.9865	0.4901	0.6978	0.264
Mof_H 	H 	0.684	0.386	0.655	0.086
Mof_H 	H 	0.344	0.258	0.548	-0.039
Mof_Y 	Y 	0.13449	0.32187	0.30701	1.351
Mof_O 	O 	0.2928	0.4229	0.3495	-0.342
Mof_O 	O 	0.8936	0.3078	0.283	-0.411
Mof_O 	O 	0.8123	0.2295	0.2077	-0.408
Mof_N 	N 	0.3769	0.3218	0.2719	-0.192
Mof_N 	N 	0.5501	0.2586	0.2226	-0.174
Mof_C 	C 	0.4747	0.364	0.3045	0.002
Mof_C 	C 	0.7978	0.2775	0.2479	0.375
Mof_C 	C 	0.6167	0.3553	0.2979	-0.017
Mof_C 	C 	0.6489	0.3008	0.2566	-0.035
Mof_O 	O 	0.5127	0.4408	0.3905	-0.239
Mof_C 	C 	0.4242	0.4139	0.3511	0.305
Mof_C 	C 	0.4198	0.2715	0.2319	0.131
Mof_H 	H 	0.701	0.384	0.323	0.062
Mof_H 	H 	0.35	0.241	0.209	-0.021
Mof_Y 	Y 	0.13081	0.32542	0.97801	1.344
Mof_O 	O 	0.2883	0.4289	0.0183	-0.344
Mof_O 	O 	0.8879	0.3068	0.9551	-0.404
Mof_O 	O 	0.0494	0.4572	0.9381	-0.341
Mof_O 	O 	0.8132	0.2458	0.873	-0.399
Mof_O 	O 	0.9817	0.5884	0.9565	-0.319
Mof_N 	N 	0.3703	0.3281	0.9386	-0.189
Mof_N 	N 	0.5461	0.268	0.8883	-0.171
Mof_C 	C 	0.4699	0.3677	0.9739	0.005
Mof_C 	C 	0.7946	0.2844	0.9171	0.375
Mof_C 	C 	0.6118	0.3588	0.968	-0.043
Mof_C 	C 	0.6448	0.3061	0.9253	-0.026
Mof_O 	O 	0.509	0.4428	0.0591	-0.241
Mof_C 	C 	0.419	0.4179	0.0206	0.312
Mof_C 	C 	0.4132	0.2809	0.8968	0.123
Mof_C 	C 	0.0103	0.5131	0.9694	0.267
Mof_H 	H 	0.679	0.394	0.987	0.077
Mof_H 	H 	0.354	0.247	0.873	-0.014
Mof_Y 	Y 	0.63386	0.1652	0.14242	1.363
Mof_O 	O 	0.7933	0.0637	0.1836	-0.34
Mof_O 	O 	0.3929	0.1839	0.1177	-0.41
Mof_O 	O 	0.557	0.0304	0.1056	-0.337
Mof_O 	O 	0.436	0.9596	0.2301	-0.333
Mof_O 	O 	0.3126	0.263	0.0436	-0.401
Mof_O 	O 	0.5252	0.0849	0.2095	-0.326
Mof_O 	O 	0.4732	0.9035	0.126	-0.331
Mof_N 	N 	0.8749	0.1688	0.1066	-0.2
Mof_N 	N 	0.0477	0.2332	0.0586	-0.182
Mof_C 	C 	0.9746	0.1281	0.1407	0.018
Mof_C 	C 	0.2973	0.2143	0.0835	0.369
Mof_C 	C 	0.1154	0.1375	0.1335	-0.067
Mof_C 	C 	0.1467	0.1922	0.0932	-0.015
Mof_O 	O 	0.0149	0.0501	0.2253	-0.244
Mof_C 	C 	0.9259	0.0757	0.188	0.307
Mof_C 	C 	0.9166	0.2193	0.0674	0.153
Mof_C 	C 	0.5058	0.9777	0.1376	0.267
Mof_C 	C 	0.4865	0.0099	0.1978	0.264
Mof_H 	H 	0.184	0.114	0.155	0.084
Mof_H 	H 	0.844	0.242	0.048	-0.037
Mof_Y 	Y 	0.63449	0.17813	0.80701	1.35
Mof_O 	O 	0.7928	0.0771	0.8495	-0.342
Mof_O 	O 	0.3936	0.1922	0.783	-0.41
Mof_O 	O 	0.3123	0.2705	0.7077	-0.407
Mof_N 	N 	0.8769	0.1782	0.7719	-0.192
Mof_N 	N 	0.0501	0.2414	0.7226	-0.175
Mof_C 	C 	0.9747	0.136	0.8045	0.002
Mof_C 	C 	0.2978	0.2225	0.7479	0.375
Mof_C 	C 	0.1167	0.1447	0.7979	-0.018
Mof_C 	C 	0.1489	0.1992	0.7566	-0.035
Mof_O 	O 	0.0127	0.0592	0.8905	-0.24
Mof_C 	C 	0.9242	0.0861	0.8511	0.306
Mof_C 	C 	0.9198	0.2285	0.7319	0.132
Mof_H 	H 	0.201	0.116	0.823	0.062
Mof_H 	H 	0.85	0.259	0.709	-0.021
Mof_Y 	Y 	0.36919	0.82542	0.52199	1.348
Mof_O 	O 	0.2117	0.9289	0.4817	-0.345
Mof_O 	O 	0.6121	0.8068	0.5449	-0.406
Mof_O 	O 	0.4506	0.9572	0.5619	-0.341
Mof_O 	O 	0.6868	0.7458	0.627	-0.399
Mof_O 	O 	0.5183	0.0884	0.5435	-0.322
Mof_N 	N 	0.1297	0.8281	0.5614	-0.189
Mof_N 	N 	0.9539	0.768	0.6117	-0.17
Mof_C 	C 	0.0301	0.8677	0.5261	0.004
Mof_C 	C 	0.7054	0.7844	0.5829	0.376
Mof_C 	C 	0.8882	0.8588	0.532	-0.041
Mof_C 	C 	0.8552	0.8061	0.5747	-0.026
Mof_O 	O 	0.991	0.9428	0.4409	-0.241
Mof_C 	C 	0.081	0.9179	0.4794	0.311
Mof_C 	C 	0.0868	0.7809	0.6032	0.122
Mof_C 	C 	0.4897	0.0131	0.5306	0.27
Mof_H 	H 	0.821	0.894	0.513	0.076
Mof_H 	H 	0.146	0.747	0.627	-0.014
Mof_Y 	Y 	0.86614	0.6652	0.35758	1.363
Mof_O 	O 	0.7067	0.5637	0.3164	-0.341
Mof_O 	O 	0.1071	0.6839	0.3823	-0.41
Mof_O 	O 	0.943	0.5304	0.3944	-0.337
Mof_O 	O 	0.064	0.4596	0.2699	-0.332
Mof_O 	O 	0.1874	0.763	0.4564	-0.402
Mof_O 	O 	0.9748	0.5849	0.2905	-0.327
Mof_O 	O 	0.0268	0.4035	0.374	-0.331
Mof_N 	N 	0.6251	0.6688	0.3934	-0.201
Mof_N 	N 	0.4523	0.7332	0.4414	-0.185
Mof_C 	C 	0.5254	0.6281	0.3593	0.022
Mof_C 	C 	0.2027	0.7143	0.4165	0.369
Mof_C 	C 	0.3846	0.6375	0.3665	-0.073
Mof_C 	C 	0.3533	0.6922	0.4068	-0.014
Mof_O 	O 	0.4851	0.5501	0.2747	-0.246
Mof_C 	C 	0.5741	0.5757	0.312	0.309
Mof_C 	C 	0.5834	0.7193	0.4326	0.157
Mof_C 	C 	0.9942	0.4777	0.3624	0.267
Mof_C 	C 	0.0135	0.5099	0.3022	0.264
Mof_H 	H 	0.316	0.614	0.345	0.086
Mof_H 	H 	0.656	0.742	0.452	-0.039
Mof_Y 	Y 	0.86551	0.67813	0.69299	1.351
Mof_O 	O 	0.7072	0.5771	0.6505	-0.342
Mof_O 	O 	0.1064	0.6922	0.717	-0.411
Mof_O 	O 	0.1877	0.7705	0.7923	-0.408
Mof_N 	N 	0.6231	0.6782	0.7281	-0.192
Mof_N 	N 	0.4499	0.7414	0.7774	-0.174
Mof_C 	C 	0.5253	0.636	0.6955	0.002
Mof_C 	C 	0.2022	0.7225	0.7521	0.375
Mof_C 	C 	0.3833	0.6447	0.7021	-0.017
Mof_C 	C 	0.3511	0.6992	0.7434	-0.035
Mof_O 	O 	0.4873	0.5592	0.6095	-0.239
Mof_C 	C 	0.5758	0.5861	0.6489	0.305
Mof_C 	C 	0.5802	0.7285	0.7681	0.131
Mof_H 	H 	0.299	0.616	0.677	0.062
Mof_H 	H 	0.65	0.759	0.791	-0.021
_end
