data_functionalizedCrystal
_audit_creation_method	'EQeq! by Chris Wilmer'
_symmetry_space_group_name_H-M	'P1'
_symmetry_Int_Tables_number	1
_symmetry_cell_setting	triclinic
loop_
_symmetry_equiv_pos_as_xyz
  x,y,z
_cell_length_a	36.4789
_cell_length_b	36.4789
_cell_length_c	36.4789
_cell_angle_alpha	90
_cell_angle_beta	90
_cell_angle_gamma	90
loop_
_atom_site_label
_atom_site_type_symbol
_atom_site_fract_x
_atom_site_fract_y
_atom_site_fract_z
_atom_site_charge
Mof_C 	C 	0.37095	0.31683	0.33871	0.012
Mof_C 	C 	0.36771	0.34532	0.31352	-0.019
Mof_C 	C 	0.40023	0.2939	0.33064	-0.009
Mof_C 	C 	0.41894	0.30537	0.29931	-0.087
Mof_S 	S 	0.40049	0.3445	0.2798	0.039
Mof_H 	H 	0.4073	0.26971	0.3463	0.046
Mof_O 	O 	0.24747	0.03598	0.29816	-0.413
Mof_O 	O 	0.29526	0.03722	0.2445	-0.405
Mof_C 	C 	0.21811	0.04968	0.2854	0.356
Mof_C 	C 	0.37095	0.81683	0.83871	0.013
Mof_C 	C 	0.36771	0.84532	0.81352	-0.019
Mof_C 	C 	0.40023	0.7939	0.83064	-0.009
Mof_C 	C 	0.41894	0.80537	0.79931	-0.086
Mof_S 	S 	0.40049	0.8445	0.7798	0.042
Mof_H 	H 	0.4073	0.76971	0.8463	0.047
Mof_O 	O 	0.24747	0.53598	0.79816	-0.409
Mof_O 	O 	0.29526	0.53722	0.7445	-0.402
Mof_C 	C 	0.21811	0.54968	0.7854	0.356
Mof_C 	C 	0.87095	0.31683	0.83871	0.013
Mof_C 	C 	0.86771	0.34532	0.81352	-0.019
Mof_C 	C 	0.90023	0.2939	0.83064	-0.009
Mof_C 	C 	0.91894	0.30537	0.79931	-0.085
Mof_S 	S 	0.90049	0.3445	0.7798	0.043
Mof_H 	H 	0.9073	0.26971	0.8463	0.048
Mof_O 	O 	0.74747	0.03598	0.79816	-0.412
Mof_O 	O 	0.79526	0.03722	0.7445	-0.404
Mof_C 	C 	0.71811	0.04968	0.7854	0.356
Mof_C 	C 	0.87095	0.81683	0.33871	0.013
Mof_C 	C 	0.86771	0.84532	0.31352	-0.02
Mof_C 	C 	0.90023	0.7939	0.33064	-0.009
Mof_C 	C 	0.91894	0.80537	0.29931	-0.084
Mof_S 	S 	0.90049	0.8445	0.2798	0.045
Mof_H 	H 	0.9073	0.76971	0.3463	0.048
Mof_O 	O 	0.74747	0.53598	0.29816	-0.408
Mof_O 	O 	0.79526	0.53722	0.2445	-0.401
Mof_C 	C 	0.71811	0.54968	0.2854	0.357
Mof_C 	C 	0.62905	0.68317	0.33871	0.013
Mof_C 	C 	0.63229	0.65468	0.31352	-0.018
Mof_C 	C 	0.59977	0.7061	0.33064	-0.008
Mof_C 	C 	0.58106	0.69463	0.29931	-0.085
Mof_S 	S 	0.59951	0.6555	0.2798	0.04
Mof_H 	H 	0.5927	0.73029	0.3463	0.047
Mof_O 	O 	0.75253	0.96402	0.29816	-0.403
Mof_O 	O 	0.70474	0.96278	0.2445	-0.395
Mof_C 	C 	0.78189	0.95032	0.2854	0.356
Mof_C 	C 	0.62905	0.18317	0.83871	0.013
Mof_C 	C 	0.63229	0.15468	0.81352	-0.018
Mof_C 	C 	0.59977	0.2061	0.83064	-0.008
Mof_C 	C 	0.58106	0.19463	0.79931	-0.085
Mof_S 	S 	0.59951	0.1555	0.7798	0.039
Mof_H 	H 	0.5927	0.23029	0.8463	0.047
Mof_O 	O 	0.75253	0.46402	0.79816	-0.408
Mof_O 	O 	0.70474	0.46278	0.7445	-0.401
Mof_C 	C 	0.78189	0.45032	0.7854	0.357
Mof_C 	C 	0.12905	0.68317	0.83871	0.013
Mof_C 	C 	0.13229	0.65468	0.81352	-0.018
Mof_C 	C 	0.09977	0.7061	0.83064	-0.008
Mof_C 	C 	0.08106	0.69463	0.79931	-0.086
Mof_S 	S 	0.09951	0.6555	0.7798	0.039
Mof_H 	H 	0.0927	0.73029	0.8463	0.047
Mof_O 	O 	0.25253	0.96402	0.79816	-0.403
Mof_O 	O 	0.20474	0.96278	0.7445	-0.395
Mof_C 	C 	0.28189	0.95032	0.7854	0.356
Mof_C 	C 	0.12905	0.18317	0.33871	0.012
Mof_C 	C 	0.13229	0.15468	0.31352	-0.018
Mof_C 	C 	0.09977	0.2061	0.33064	-0.008
Mof_C 	C 	0.08106	0.19463	0.29931	-0.086
Mof_S 	S 	0.09951	0.1555	0.2798	0.036
Mof_H 	H 	0.0927	0.23029	0.3463	0.046
Mof_O 	O 	0.25253	0.46402	0.29816	-0.409
Mof_O 	O 	0.20474	0.46278	0.2445	-0.402
Mof_C 	C 	0.28189	0.45032	0.2854	0.357
Mof_C 	C 	0.62905	0.31683	0.66129	0.013
Mof_C 	C 	0.63229	0.34532	0.68648	-0.018
Mof_C 	C 	0.59977	0.2939	0.66936	-0.008
Mof_C 	C 	0.58106	0.30537	0.70069	-0.086
Mof_S 	S 	0.59951	0.3445	0.7202	0.041
Mof_H 	H 	0.5927	0.26971	0.6537	0.047
Mof_O 	O 	0.75253	0.03598	0.70184	-0.412
Mof_O 	O 	0.70474	0.03722	0.7555	-0.404
Mof_C 	C 	0.78189	0.04968	0.7146	0.356
Mof_C 	C 	0.62905	0.81683	0.16129	0.013
Mof_C 	C 	0.63229	0.84532	0.18648	-0.018
Mof_C 	C 	0.59977	0.7939	0.16936	-0.008
Mof_C 	C 	0.58106	0.80537	0.20069	-0.086
Mof_S 	S 	0.59951	0.8445	0.2202	0.042
Mof_H 	H 	0.5927	0.76971	0.1537	0.046
Mof_O 	O 	0.75253	0.53598	0.20184	-0.409
Mof_O 	O 	0.70474	0.53722	0.2555	-0.401
Mof_C 	C 	0.78189	0.54968	0.2146	0.357
Mof_C 	C 	0.12905	0.31683	0.16129	0.011
Mof_C 	C 	0.13229	0.34532	0.18648	-0.018
Mof_C 	C 	0.09977	0.2939	0.16936	-0.008
Mof_C 	C 	0.08106	0.30537	0.20069	-0.087
Mof_S 	S 	0.09951	0.3445	0.2202	0.038
Mof_H 	H 	0.0927	0.26971	0.1537	0.045
Mof_O 	O 	0.25253	0.03598	0.20184	-0.412
Mof_O 	O 	0.20474	0.03722	0.2555	-0.405
Mof_C 	C 	0.28189	0.04968	0.2146	0.356
Mof_C 	C 	0.12905	0.81683	0.66129	0.013
Mof_C 	C 	0.13229	0.84532	0.68648	-0.018
Mof_C 	C 	0.09977	0.7939	0.66936	-0.008
Mof_C 	C 	0.08106	0.80537	0.70069	-0.087
Mof_S 	S 	0.09951	0.8445	0.7202	0.041
Mof_H 	H 	0.0927	0.76971	0.6537	0.046
Mof_O 	O 	0.25253	0.53598	0.70184	-0.409
Mof_O 	O 	0.20474	0.53722	0.7555	-0.401
Mof_C 	C 	0.28189	0.54968	0.7146	0.357
Mof_C 	C 	0.37095	0.68317	0.66129	0.013
Mof_C 	C 	0.36771	0.65468	0.68648	-0.018
Mof_C 	C 	0.40023	0.7061	0.66936	-0.008
Mof_C 	C 	0.41894	0.69463	0.70069	-0.086
Mof_S 	S 	0.40049	0.6555	0.7202	0.041
Mof_H 	H 	0.4073	0.73029	0.6537	0.047
Mof_O 	O 	0.24747	0.96402	0.70184	-0.403
Mof_O 	O 	0.29526	0.96278	0.7555	-0.395
Mof_C 	C 	0.21811	0.95032	0.7146	0.356
Mof_C 	C 	0.37095	0.18317	0.16129	0.012
Mof_C 	C 	0.36771	0.15468	0.18648	-0.018
Mof_C 	C 	0.40023	0.2061	0.16936	-0.008
Mof_C 	C 	0.41894	0.19463	0.20069	-0.086
Mof_S 	S 	0.40049	0.1555	0.2202	0.039
Mof_H 	H 	0.4073	0.23029	0.1537	0.046
Mof_O 	O 	0.24747	0.46402	0.20184	-0.409
Mof_O 	O 	0.29526	0.46278	0.2555	-0.401
Mof_C 	C 	0.21811	0.45032	0.2146	0.357
Mof_C 	C 	0.87095	0.68317	0.16129	0.013
Mof_C 	C 	0.86771	0.65468	0.18648	-0.018
Mof_C 	C 	0.90023	0.7061	0.16936	-0.008
Mof_C 	C 	0.91894	0.69463	0.20069	-0.084
Mof_S 	S 	0.90049	0.6555	0.2202	0.043
Mof_H 	H 	0.9073	0.73029	0.1537	0.048
Mof_O 	O 	0.74747	0.96402	0.20184	-0.403
Mof_O 	O 	0.79526	0.96278	0.2555	-0.395
Mof_C 	C 	0.71811	0.95032	0.2146	0.356
Mof_C 	C 	0.87095	0.18317	0.66129	0.013
Mof_C 	C 	0.86771	0.15468	0.68648	-0.018
Mof_C 	C 	0.90023	0.2061	0.66936	-0.008
Mof_C 	C 	0.91894	0.19463	0.70069	-0.084
Mof_S 	S 	0.90049	0.1555	0.7202	0.042
Mof_H 	H 	0.9073	0.23029	0.6537	0.048
Mof_O 	O 	0.74747	0.46402	0.70184	-0.408
Mof_O 	O 	0.79526	0.46278	0.7555	-0.4
Mof_C 	C 	0.71811	0.45032	0.7146	0.357
Mof_C 	C 	0.33871	0.37095	0.31683	0.013
Mof_C 	C 	0.31352	0.36771	0.34532	-0.018
Mof_C 	C 	0.33064	0.40023	0.2939	-0.008
Mof_C 	C 	0.29931	0.41894	0.30537	-0.086
Mof_S 	S 	0.2798	0.40049	0.3445	0.04
Mof_H 	H 	0.3463	0.4073	0.26971	0.047
Mof_O 	O 	0.29816	0.24747	0.03598	-0.412
Mof_O 	O 	0.2445	0.29526	0.03722	-0.404
Mof_C 	C 	0.2854	0.21811	0.04968	0.357
Mof_C 	C 	0.33871	0.87095	0.81683	0.014
Mof_C 	C 	0.31352	0.86771	0.84532	-0.019
Mof_C 	C 	0.33064	0.90023	0.7939	-0.008
Mof_C 	C 	0.29931	0.91894	0.80537	-0.084
Mof_S 	S 	0.2798	0.90049	0.8445	0.045
Mof_H 	H 	0.3463	0.9073	0.76971	0.048
Mof_O 	O 	0.29816	0.74747	0.53598	-0.408
Mof_O 	O 	0.2445	0.79526	0.53722	-0.401
Mof_C 	C 	0.2854	0.71811	0.54968	0.357
Mof_C 	C 	0.83871	0.37095	0.81683	0.014
Mof_C 	C 	0.81352	0.36771	0.84532	-0.018
Mof_C 	C 	0.83064	0.40023	0.7939	-0.008
Mof_C 	C 	0.79931	0.41894	0.80537	-0.085
Mof_S 	S 	0.7798	0.40049	0.8445	0.043
Mof_H 	H 	0.8463	0.4073	0.76971	0.048
Mof_O 	O 	0.79816	0.24747	0.53598	-0.408
Mof_O 	O 	0.7445	0.29526	0.53722	-0.401
Mof_C 	C 	0.7854	0.21811	0.54968	0.357
Mof_C 	C 	0.83871	0.87095	0.31683	0.014
Mof_C 	C 	0.81352	0.86771	0.34532	-0.018
Mof_C 	C 	0.83064	0.90023	0.2939	-0.008
Mof_C 	C 	0.79931	0.91894	0.30537	-0.084
Mof_S 	S 	0.7798	0.90049	0.3445	0.044
Mof_H 	H 	0.8463	0.9073	0.26971	0.049
Mof_O 	O 	0.79816	0.74747	0.03598	-0.411
Mof_O 	O 	0.7445	0.79526	0.03722	-0.403
Mof_C 	C 	0.7854	0.71811	0.04968	0.357
Mof_C 	C 	0.33871	0.62905	0.68317	0.013
Mof_C 	C 	0.31352	0.63229	0.65468	-0.018
Mof_C 	C 	0.33064	0.59977	0.7061	-0.008
Mof_C 	C 	0.29931	0.58106	0.69463	-0.085
Mof_S 	S 	0.2798	0.59951	0.6555	0.04
Mof_H 	H 	0.3463	0.5927	0.73029	0.047
Mof_O 	O 	0.29816	0.75253	0.96402	-0.403
Mof_O 	O 	0.2445	0.70474	0.96278	-0.395
Mof_C 	C 	0.2854	0.78189	0.95032	0.356
Mof_C 	C 	0.33871	0.12905	0.18317	0.012
Mof_C 	C 	0.31352	0.13229	0.15468	-0.018
Mof_C 	C 	0.33064	0.09977	0.2061	-0.008
Mof_C 	C 	0.29931	0.08106	0.19463	-0.086
Mof_S 	S 	0.2798	0.09951	0.1555	0.036
Mof_H 	H 	0.3463	0.0927	0.23029	0.046
Mof_O 	O 	0.29816	0.25253	0.46402	-0.409
Mof_O 	O 	0.2445	0.20474	0.46278	-0.402
Mof_C 	C 	0.2854	0.28189	0.45032	0.357
Mof_C 	C 	0.83871	0.62905	0.18317	0.013
Mof_C 	C 	0.81352	0.63229	0.15468	-0.018
Mof_C 	C 	0.83064	0.59977	0.2061	-0.008
Mof_C 	C 	0.79931	0.58106	0.19463	-0.085
Mof_S 	S 	0.7798	0.59951	0.1555	0.039
Mof_H 	H 	0.8463	0.5927	0.23029	0.047
Mof_O 	O 	0.79816	0.75253	0.46402	-0.408
Mof_O 	O 	0.7445	0.70474	0.46278	-0.401
Mof_C 	C 	0.7854	0.78189	0.45032	0.357
Mof_C 	C 	0.83871	0.12905	0.68317	0.013
Mof_C 	C 	0.81352	0.13229	0.65468	-0.018
Mof_C 	C 	0.83064	0.09977	0.7061	-0.008
Mof_C 	C 	0.79931	0.08106	0.69463	-0.086
Mof_S 	S 	0.7798	0.09951	0.6555	0.039
Mof_H 	H 	0.8463	0.0927	0.73029	0.047
Mof_O 	O 	0.79816	0.25253	0.96402	-0.403
Mof_O 	O 	0.7445	0.20474	0.96278	-0.395
Mof_C 	C 	0.7854	0.28189	0.95032	0.356
Mof_C 	C 	0.66129	0.62905	0.31683	0.013
Mof_C 	C 	0.68648	0.63229	0.34532	-0.018
Mof_C 	C 	0.66936	0.59977	0.2939	-0.008
Mof_C 	C 	0.70069	0.58106	0.30537	-0.086
Mof_S 	S 	0.7202	0.59951	0.3445	0.041
Mof_H 	H 	0.6537	0.5927	0.26971	0.047
Mof_O 	O 	0.70184	0.75253	0.03598	-0.412
Mof_O 	O 	0.7555	0.70474	0.03722	-0.404
Mof_C 	C 	0.7146	0.78189	0.04968	0.356
Mof_C 	C 	0.66129	0.12905	0.81683	0.013
Mof_C 	C 	0.68648	0.13229	0.84532	-0.018
Mof_C 	C 	0.66936	0.09977	0.7939	-0.008
Mof_C 	C 	0.70069	0.08106	0.80537	-0.087
Mof_S 	S 	0.7202	0.09951	0.8445	0.041
Mof_H 	H 	0.6537	0.0927	0.76971	0.046
Mof_O 	O 	0.70184	0.25253	0.53598	-0.409
Mof_O 	O 	0.7555	0.20474	0.53722	-0.401
Mof_C 	C 	0.7146	0.28189	0.54968	0.357
Mof_C 	C 	0.16129	0.62905	0.81683	0.013
Mof_C 	C 	0.18648	0.63229	0.84532	-0.018
Mof_C 	C 	0.16936	0.59977	0.7939	-0.008
Mof_C 	C 	0.20069	0.58106	0.80537	-0.086
Mof_S 	S 	0.2202	0.59951	0.8445	0.042
Mof_H 	H 	0.1537	0.5927	0.76971	0.046
Mof_O 	O 	0.20184	0.75253	0.53598	-0.409
Mof_O 	O 	0.2555	0.70474	0.53722	-0.401
Mof_C 	C 	0.2146	0.78189	0.54968	0.357
Mof_C 	C 	0.16129	0.12905	0.31683	0.011
Mof_C 	C 	0.18648	0.13229	0.34532	-0.018
Mof_C 	C 	0.16936	0.09977	0.2939	-0.008
Mof_C 	C 	0.20069	0.08106	0.30537	-0.087
Mof_S 	S 	0.2202	0.09951	0.3445	0.038
Mof_H 	H 	0.1537	0.0927	0.26971	0.045
Mof_O 	O 	0.20184	0.25253	0.03598	-0.412
Mof_O 	O 	0.2555	0.20474	0.03722	-0.405
Mof_C 	C 	0.2146	0.28189	0.04968	0.356
Mof_C 	C 	0.66129	0.37095	0.68317	0.013
Mof_C 	C 	0.68648	0.36771	0.65468	-0.018
Mof_C 	C 	0.66936	0.40023	0.7061	-0.008
Mof_C 	C 	0.70069	0.41894	0.69463	-0.086
Mof_S 	S 	0.7202	0.40049	0.6555	0.041
Mof_H 	H 	0.6537	0.4073	0.73029	0.047
Mof_O 	O 	0.70184	0.24747	0.96402	-0.403
Mof_O 	O 	0.7555	0.29526	0.96278	-0.395
Mof_C 	C 	0.7146	0.21811	0.95032	0.356
Mof_C 	C 	0.66129	0.87095	0.18317	0.013
Mof_C 	C 	0.68648	0.86771	0.15468	-0.018
Mof_C 	C 	0.66936	0.90023	0.2061	-0.008
Mof_C 	C 	0.70069	0.91894	0.19463	-0.084
Mof_S 	S 	0.7202	0.90049	0.1555	0.042
Mof_H 	H 	0.6537	0.9073	0.23029	0.048
Mof_O 	O 	0.70184	0.74747	0.46402	-0.408
Mof_O 	O 	0.7555	0.79526	0.46278	-0.4
Mof_C 	C 	0.7146	0.71811	0.45032	0.357
Mof_C 	C 	0.16129	0.37095	0.18317	0.012
Mof_C 	C 	0.18648	0.36771	0.15468	-0.018
Mof_C 	C 	0.16936	0.40023	0.2061	-0.008
Mof_C 	C 	0.20069	0.41894	0.19463	-0.086
Mof_S 	S 	0.2202	0.40049	0.1555	0.039
Mof_H 	H 	0.1537	0.4073	0.23029	0.046
Mof_O 	O 	0.20184	0.24747	0.46402	-0.409
Mof_O 	O 	0.2555	0.29526	0.46278	-0.401
Mof_C 	C 	0.2146	0.21811	0.45032	0.357
Mof_C 	C 	0.16129	0.87095	0.68317	0.013
Mof_C 	C 	0.18648	0.86771	0.65468	-0.018
Mof_C 	C 	0.16936	0.90023	0.7061	-0.008
Mof_C 	C 	0.20069	0.91894	0.69463	-0.084
Mof_S 	S 	0.2202	0.90049	0.6555	0.043
Mof_H 	H 	0.1537	0.9073	0.73029	0.048
Mof_O 	O 	0.20184	0.74747	0.96402	-0.403
Mof_O 	O 	0.2555	0.79526	0.96278	-0.395
Mof_C 	C 	0.2146	0.71811	0.95032	0.356
Mof_C 	C 	0.31683	0.33871	0.37095	0.013
Mof_C 	C 	0.34532	0.31352	0.36771	-0.018
Mof_C 	C 	0.2939	0.33064	0.40023	-0.008
Mof_C 	C 	0.30537	0.29931	0.41894	-0.086
Mof_S 	S 	0.3445	0.2798	0.40049	0.04
Mof_H 	H 	0.26971	0.3463	0.4073	0.047
Mof_O 	O 	0.03598	0.29816	0.24747	-0.412
Mof_O 	O 	0.03722	0.2445	0.29526	-0.404
Mof_C 	C 	0.04968	0.2854	0.21811	0.357
Mof_C 	C 	0.31683	0.83871	0.87095	0.014
Mof_C 	C 	0.34532	0.81352	0.86771	-0.018
Mof_C 	C 	0.2939	0.83064	0.90023	-0.008
Mof_C 	C 	0.30537	0.79931	0.91894	-0.084
Mof_S 	S 	0.3445	0.7798	0.90049	0.044
Mof_H 	H 	0.26971	0.8463	0.9073	0.049
Mof_O 	O 	0.03598	0.79816	0.74747	-0.411
Mof_O 	O 	0.03722	0.7445	0.79526	-0.403
Mof_C 	C 	0.04968	0.7854	0.71811	0.357
Mof_C 	C 	0.81683	0.33871	0.87095	0.014
Mof_C 	C 	0.84532	0.31352	0.86771	-0.019
Mof_C 	C 	0.7939	0.33064	0.90023	-0.008
Mof_C 	C 	0.80537	0.29931	0.91894	-0.084
Mof_S 	S 	0.8445	0.2798	0.90049	0.045
Mof_H 	H 	0.76971	0.3463	0.9073	0.048
Mof_O 	O 	0.53598	0.29816	0.74747	-0.408
Mof_O 	O 	0.53722	0.2445	0.79526	-0.401
Mof_C 	C 	0.54968	0.2854	0.71811	0.357
Mof_C 	C 	0.81683	0.83871	0.37095	0.014
Mof_C 	C 	0.84532	0.81352	0.36771	-0.018
Mof_C 	C 	0.7939	0.83064	0.40023	-0.008
Mof_C 	C 	0.80537	0.79931	0.41894	-0.085
Mof_S 	S 	0.8445	0.7798	0.40049	0.043
Mof_H 	H 	0.76971	0.8463	0.4073	0.048
Mof_O 	O 	0.53598	0.79816	0.24747	-0.408
Mof_O 	O 	0.53722	0.7445	0.29526	-0.401
Mof_C 	C 	0.54968	0.7854	0.21811	0.357
Mof_C 	C 	0.68317	0.33871	0.62905	0.013
Mof_C 	C 	0.65468	0.31352	0.63229	-0.018
Mof_C 	C 	0.7061	0.33064	0.59977	-0.008
Mof_C 	C 	0.69463	0.29931	0.58106	-0.085
Mof_S 	S 	0.6555	0.2798	0.59951	0.04
Mof_H 	H 	0.73029	0.3463	0.5927	0.047
Mof_O 	O 	0.96402	0.29816	0.75253	-0.403
Mof_O 	O 	0.96278	0.2445	0.70474	-0.395
Mof_C 	C 	0.95032	0.2854	0.78189	0.356
Mof_C 	C 	0.68317	0.83871	0.12905	0.013
Mof_C 	C 	0.65468	0.81352	0.13229	-0.018
Mof_C 	C 	0.7061	0.83064	0.09977	-0.008
Mof_C 	C 	0.69463	0.79931	0.08106	-0.086
Mof_S 	S 	0.6555	0.7798	0.09951	0.039
Mof_H 	H 	0.73029	0.8463	0.0927	0.047
Mof_O 	O 	0.96402	0.79816	0.25253	-0.403
Mof_O 	O 	0.96278	0.7445	0.20474	-0.395
Mof_C 	C 	0.95032	0.7854	0.28189	0.356
Mof_C 	C 	0.18317	0.33871	0.12905	0.012
Mof_C 	C 	0.15468	0.31352	0.13229	-0.018
Mof_C 	C 	0.2061	0.33064	0.09977	-0.008
Mof_C 	C 	0.19463	0.29931	0.08106	-0.086
Mof_S 	S 	0.1555	0.2798	0.09951	0.036
Mof_H 	H 	0.23029	0.3463	0.0927	0.046
Mof_O 	O 	0.46402	0.29816	0.25253	-0.409
Mof_O 	O 	0.46278	0.2445	0.20474	-0.402
Mof_C 	C 	0.45032	0.2854	0.28189	0.357
Mof_C 	C 	0.18317	0.83871	0.62905	0.013
Mof_C 	C 	0.15468	0.81352	0.63229	-0.018
Mof_C 	C 	0.2061	0.83064	0.59977	-0.008
Mof_C 	C 	0.19463	0.79931	0.58106	-0.085
Mof_S 	S 	0.1555	0.7798	0.59951	0.039
Mof_H 	H 	0.23029	0.8463	0.5927	0.047
Mof_O 	O 	0.46402	0.79816	0.75253	-0.408
Mof_O 	O 	0.46278	0.7445	0.70474	-0.401
Mof_C 	C 	0.45032	0.7854	0.78189	0.357
Mof_C 	C 	0.31683	0.66129	0.62905	0.013
Mof_C 	C 	0.34532	0.68648	0.63229	-0.018
Mof_C 	C 	0.2939	0.66936	0.59977	-0.008
Mof_C 	C 	0.30537	0.70069	0.58106	-0.086
Mof_S 	S 	0.3445	0.7202	0.59951	0.041
Mof_H 	H 	0.26971	0.6537	0.5927	0.047
Mof_O 	O 	0.03598	0.70184	0.75253	-0.412
Mof_O 	O 	0.03722	0.7555	0.70474	-0.404
Mof_C 	C 	0.04968	0.7146	0.78189	0.356
Mof_C 	C 	0.31683	0.16129	0.12905	0.011
Mof_C 	C 	0.34532	0.18648	0.13229	-0.018
Mof_C 	C 	0.2939	0.16936	0.09977	-0.008
Mof_C 	C 	0.30537	0.20069	0.08106	-0.087
Mof_S 	S 	0.3445	0.2202	0.09951	0.038
Mof_H 	H 	0.26971	0.1537	0.0927	0.045
Mof_O 	O 	0.03598	0.20184	0.25253	-0.412
Mof_O 	O 	0.03722	0.2555	0.20474	-0.405
Mof_C 	C 	0.04968	0.2146	0.28189	0.356
Mof_C 	C 	0.81683	0.66129	0.12905	0.013
Mof_C 	C 	0.84532	0.68648	0.13229	-0.018
Mof_C 	C 	0.7939	0.66936	0.09977	-0.008
Mof_C 	C 	0.80537	0.70069	0.08106	-0.087
Mof_S 	S 	0.8445	0.7202	0.09951	0.041
Mof_H 	H 	0.76971	0.6537	0.0927	0.046
Mof_O 	O 	0.53598	0.70184	0.25253	-0.409
Mof_O 	O 	0.53722	0.7555	0.20474	-0.401
Mof_C 	C 	0.54968	0.7146	0.28189	0.357
Mof_C 	C 	0.81683	0.16129	0.62905	0.013
Mof_C 	C 	0.84532	0.18648	0.63229	-0.018
Mof_C 	C 	0.7939	0.16936	0.59977	-0.008
Mof_C 	C 	0.80537	0.20069	0.58106	-0.086
Mof_S 	S 	0.8445	0.2202	0.59951	0.042
Mof_H 	H 	0.76971	0.1537	0.5927	0.046
Mof_O 	O 	0.53598	0.20184	0.75253	-0.409
Mof_O 	O 	0.53722	0.2555	0.70474	-0.401
Mof_C 	C 	0.54968	0.2146	0.78189	0.357
Mof_C 	C 	0.68317	0.66129	0.37095	0.013
Mof_C 	C 	0.65468	0.68648	0.36771	-0.018
Mof_C 	C 	0.7061	0.66936	0.40023	-0.008
Mof_C 	C 	0.69463	0.70069	0.41894	-0.086
Mof_S 	S 	0.6555	0.7202	0.40049	0.041
Mof_H 	H 	0.73029	0.6537	0.4073	0.047
Mof_O 	O 	0.96402	0.70184	0.24747	-0.403
Mof_O 	O 	0.96278	0.7555	0.29526	-0.395
Mof_C 	C 	0.95032	0.7146	0.21811	0.356
Mof_C 	C 	0.68317	0.16129	0.87095	0.013
Mof_C 	C 	0.65468	0.18648	0.86771	-0.018
Mof_C 	C 	0.7061	0.16936	0.90023	-0.008
Mof_C 	C 	0.69463	0.20069	0.91894	-0.084
Mof_S 	S 	0.6555	0.2202	0.90049	0.043
Mof_H 	H 	0.73029	0.1537	0.9073	0.048
Mof_O 	O 	0.96402	0.20184	0.74747	-0.403
Mof_O 	O 	0.96278	0.2555	0.79526	-0.395
Mof_C 	C 	0.95032	0.2146	0.71811	0.356
Mof_C 	C 	0.18317	0.66129	0.87095	0.013
Mof_C 	C 	0.15468	0.68648	0.86771	-0.018
Mof_C 	C 	0.2061	0.66936	0.90023	-0.008
Mof_C 	C 	0.19463	0.70069	0.91894	-0.084
Mof_S 	S 	0.1555	0.7202	0.90049	0.042
Mof_H 	H 	0.23029	0.6537	0.9073	0.048
Mof_O 	O 	0.46402	0.70184	0.74747	-0.408
Mof_O 	O 	0.46278	0.7555	0.79526	-0.4
Mof_C 	C 	0.45032	0.7146	0.71811	0.357
Mof_C 	C 	0.18317	0.16129	0.37095	0.012
Mof_C 	C 	0.15468	0.18648	0.36771	-0.018
Mof_C 	C 	0.2061	0.16936	0.40023	-0.008
Mof_C 	C 	0.19463	0.20069	0.41894	-0.086
Mof_S 	S 	0.1555	0.2202	0.40049	0.039
Mof_H 	H 	0.23029	0.1537	0.4073	0.046
Mof_O 	O 	0.46402	0.20184	0.24747	-0.409
Mof_O 	O 	0.46278	0.2555	0.29526	-0.401
Mof_C 	C 	0.45032	0.2146	0.21811	0.357
Mof_C 	C 	0.31683	0.37095	0.66129	0.013
Mof_C 	C 	0.34532	0.36771	0.68648	-0.018
Mof_C 	C 	0.2939	0.40023	0.66936	-0.008
Mof_C 	C 	0.30537	0.41894	0.70069	-0.086
Mof_S 	S 	0.3445	0.40049	0.7202	0.041
Mof_H 	H 	0.26971	0.4073	0.6537	0.047
Mof_O 	O 	0.03598	0.24747	0.70184	-0.412
Mof_O 	O 	0.03722	0.29526	0.7555	-0.404
Mof_C 	C 	0.04968	0.21811	0.7146	0.356
Mof_C 	C 	0.31683	0.87095	0.16129	0.013
Mof_C 	C 	0.34532	0.86771	0.18648	-0.018
Mof_C 	C 	0.2939	0.90023	0.16936	-0.008
Mof_C 	C 	0.30537	0.91894	0.20069	-0.085
Mof_S 	S 	0.3445	0.90049	0.2202	0.043
Mof_H 	H 	0.26971	0.9073	0.1537	0.047
Mof_O 	O 	0.03598	0.74747	0.20184	-0.412
Mof_O 	O 	0.03722	0.79526	0.2555	-0.404
Mof_C 	C 	0.04968	0.71811	0.2146	0.356
Mof_C 	C 	0.81683	0.37095	0.16129	0.013
Mof_C 	C 	0.84532	0.36771	0.18648	-0.018
Mof_C 	C 	0.7939	0.40023	0.16936	-0.008
Mof_C 	C 	0.80537	0.41894	0.20069	-0.086
Mof_S 	S 	0.8445	0.40049	0.2202	0.042
Mof_H 	H 	0.76971	0.4073	0.1537	0.046
Mof_O 	O 	0.53598	0.24747	0.20184	-0.409
Mof_O 	O 	0.53722	0.29526	0.2555	-0.401
Mof_C 	C 	0.54968	0.21811	0.2146	0.357
Mof_C 	C 	0.81683	0.87095	0.66129	0.014
Mof_C 	C 	0.84532	0.86771	0.68648	-0.019
Mof_C 	C 	0.7939	0.90023	0.66936	-0.008
Mof_C 	C 	0.80537	0.91894	0.70069	-0.084
Mof_S 	S 	0.8445	0.90049	0.7202	0.046
Mof_H 	H 	0.76971	0.9073	0.6537	0.048
Mof_O 	O 	0.53598	0.74747	0.70184	-0.408
Mof_O 	O 	0.53722	0.79526	0.7555	-0.4
Mof_C 	C 	0.54968	0.71811	0.7146	0.357
Mof_C 	C 	0.68317	0.62905	0.66129	0.013
Mof_C 	C 	0.65468	0.63229	0.68648	-0.018
Mof_C 	C 	0.7061	0.59977	0.66936	-0.008
Mof_C 	C 	0.69463	0.58106	0.70069	-0.086
Mof_S 	S 	0.6555	0.59951	0.7202	0.041
Mof_H 	H 	0.73029	0.5927	0.6537	0.047
Mof_O 	O 	0.96402	0.75253	0.70184	-0.403
Mof_O 	O 	0.96278	0.70474	0.7555	-0.395
Mof_C 	C 	0.95032	0.78189	0.7146	0.356
Mof_C 	C 	0.68317	0.12905	0.16129	0.012
Mof_C 	C 	0.65468	0.13229	0.18648	-0.018
Mof_C 	C 	0.7061	0.09977	0.16936	-0.008
Mof_C 	C 	0.69463	0.08106	0.20069	-0.087
Mof_S 	S 	0.6555	0.09951	0.2202	0.038
Mof_H 	H 	0.73029	0.0927	0.1537	0.045
Mof_O 	O 	0.96402	0.25253	0.20184	-0.404
Mof_O 	O 	0.96278	0.20474	0.2555	-0.396
Mof_C 	C 	0.95032	0.28189	0.2146	0.356
Mof_C 	C 	0.18317	0.62905	0.16129	0.012
Mof_C 	C 	0.15468	0.63229	0.18648	-0.018
Mof_C 	C 	0.2061	0.59977	0.16936	-0.008
Mof_C 	C 	0.19463	0.58106	0.20069	-0.086
Mof_S 	S 	0.1555	0.59951	0.2202	0.039
Mof_H 	H 	0.23029	0.5927	0.1537	0.046
Mof_O 	O 	0.46402	0.75253	0.20184	-0.409
Mof_O 	O 	0.46278	0.70474	0.2555	-0.401
Mof_C 	C 	0.45032	0.78189	0.2146	0.357
Mof_C 	C 	0.18317	0.12905	0.66129	0.012
Mof_C 	C 	0.15468	0.13229	0.68648	-0.018
Mof_C 	C 	0.2061	0.09977	0.66936	-0.008
Mof_C 	C 	0.19463	0.08106	0.70069	-0.087
Mof_S 	S 	0.1555	0.09951	0.7202	0.037
Mof_H 	H 	0.23029	0.0927	0.6537	0.046
Mof_O 	O 	0.46402	0.25253	0.70184	-0.409
Mof_O 	O 	0.46278	0.20474	0.7555	-0.401
Mof_C 	C 	0.45032	0.28189	0.7146	0.357
Mof_C 	C 	0.31683	0.62905	0.33871	0.013
Mof_C 	C 	0.34532	0.63229	0.31352	-0.018
Mof_C 	C 	0.2939	0.59977	0.33064	-0.008
Mof_C 	C 	0.30537	0.58106	0.29931	-0.086
Mof_S 	S 	0.3445	0.59951	0.2798	0.04
Mof_H 	H 	0.26971	0.5927	0.3463	0.047
Mof_O 	O 	0.03598	0.75253	0.29816	-0.412
Mof_O 	O 	0.03722	0.70474	0.2445	-0.404
Mof_C 	C 	0.04968	0.78189	0.2854	0.357
Mof_C 	C 	0.31683	0.12905	0.83871	0.013
Mof_C 	C 	0.34532	0.13229	0.81352	-0.018
Mof_C 	C 	0.2939	0.09977	0.83064	-0.008
Mof_C 	C 	0.30537	0.08106	0.79931	-0.086
Mof_S 	S 	0.3445	0.09951	0.7798	0.039
Mof_H 	H 	0.26971	0.0927	0.8463	0.046
Mof_O 	O 	0.03598	0.25253	0.79816	-0.411
Mof_O 	O 	0.03722	0.20474	0.7445	-0.404
Mof_C 	C 	0.04968	0.28189	0.7854	0.357
Mof_C 	C 	0.81683	0.62905	0.83871	0.014
Mof_C 	C 	0.84532	0.63229	0.81352	-0.018
Mof_C 	C 	0.7939	0.59977	0.83064	-0.008
Mof_C 	C 	0.80537	0.58106	0.79931	-0.085
Mof_S 	S 	0.8445	0.59951	0.7798	0.043
Mof_H 	H 	0.76971	0.5927	0.8463	0.048
Mof_O 	O 	0.53598	0.75253	0.79816	-0.408
Mof_O 	O 	0.53722	0.70474	0.7445	-0.401
Mof_C 	C 	0.54968	0.78189	0.7854	0.357
Mof_C 	C 	0.81683	0.12905	0.33871	0.012
Mof_C 	C 	0.84532	0.13229	0.31352	-0.018
Mof_C 	C 	0.7939	0.09977	0.33064	-0.008
Mof_C 	C 	0.80537	0.08106	0.29931	-0.086
Mof_S 	S 	0.8445	0.09951	0.2798	0.04
Mof_H 	H 	0.76971	0.0927	0.3463	0.046
Mof_O 	O 	0.53598	0.25253	0.29816	-0.409
Mof_O 	O 	0.53722	0.20474	0.2445	-0.402
Mof_C 	C 	0.54968	0.28189	0.2854	0.357
Mof_C 	C 	0.68317	0.37095	0.33871	0.013
Mof_C 	C 	0.65468	0.36771	0.31352	-0.018
Mof_C 	C 	0.7061	0.40023	0.33064	-0.008
Mof_C 	C 	0.69463	0.41894	0.29931	-0.085
Mof_S 	S 	0.6555	0.40049	0.2798	0.04
Mof_H 	H 	0.73029	0.4073	0.3463	0.047
Mof_O 	O 	0.96402	0.24747	0.29816	-0.403
Mof_O 	O 	0.96278	0.29526	0.2445	-0.395
Mof_C 	C 	0.95032	0.21811	0.2854	0.356
Mof_C 	C 	0.68317	0.87095	0.83871	0.015
Mof_C 	C 	0.65468	0.86771	0.81352	-0.019
Mof_C 	C 	0.7061	0.90023	0.83064	-0.008
Mof_C 	C 	0.69463	0.91894	0.79931	-0.084
Mof_S 	S 	0.6555	0.90049	0.7798	0.044
Mof_H 	H 	0.73029	0.9073	0.8463	0.049
Mof_O 	O 	0.96402	0.74747	0.79816	-0.402
Mof_O 	O 	0.96278	0.79526	0.7445	-0.394
Mof_C 	C 	0.95032	0.71811	0.7854	0.356
Mof_C 	C 	0.18317	0.37095	0.83871	0.013
Mof_C 	C 	0.15468	0.36771	0.81352	-0.018
Mof_C 	C 	0.2061	0.40023	0.83064	-0.008
Mof_C 	C 	0.19463	0.41894	0.79931	-0.085
Mof_S 	S 	0.1555	0.40049	0.7798	0.039
Mof_H 	H 	0.23029	0.4073	0.8463	0.047
Mof_O 	O 	0.46402	0.24747	0.79816	-0.408
Mof_O 	O 	0.46278	0.29526	0.7445	-0.401
Mof_C 	C 	0.45032	0.21811	0.7854	0.357
Mof_C 	C 	0.18317	0.87095	0.33871	0.013
Mof_C 	C 	0.15468	0.86771	0.31352	-0.018
Mof_C 	C 	0.2061	0.90023	0.33064	-0.008
Mof_C 	C 	0.19463	0.91894	0.29931	-0.084
Mof_S 	S 	0.1555	0.90049	0.2798	0.041
Mof_H 	H 	0.23029	0.9073	0.3463	0.048
Mof_O 	O 	0.46402	0.74747	0.29816	-0.408
Mof_O 	O 	0.46278	0.79526	0.2445	-0.401
Mof_C 	C 	0.45032	0.71811	0.2854	0.357
Mof_C 	C 	0.37095	0.33871	0.68317	0.013
Mof_C 	C 	0.36771	0.31352	0.65468	-0.018
Mof_C 	C 	0.40023	0.33064	0.7061	-0.008
Mof_C 	C 	0.41894	0.29931	0.69463	-0.085
Mof_S 	S 	0.40049	0.2798	0.6555	0.04
Mof_H 	H 	0.4073	0.3463	0.73029	0.047
Mof_O 	O 	0.24747	0.29816	0.96402	-0.403
Mof_O 	O 	0.29526	0.2445	0.96278	-0.395
Mof_C 	C 	0.21811	0.2854	0.95032	0.356
Mof_C 	C 	0.37095	0.83871	0.18317	0.013
Mof_C 	C 	0.36771	0.81352	0.15468	-0.018
Mof_C 	C 	0.40023	0.83064	0.2061	-0.008
Mof_C 	C 	0.41894	0.79931	0.19463	-0.085
Mof_S 	S 	0.40049	0.7798	0.1555	0.039
Mof_H 	H 	0.4073	0.8463	0.23029	0.047
Mof_O 	O 	0.24747	0.79816	0.46402	-0.408
Mof_O 	O 	0.29526	0.7445	0.46278	-0.401
Mof_C 	C 	0.21811	0.7854	0.45032	0.357
Mof_C 	C 	0.87095	0.33871	0.18317	0.013
Mof_C 	C 	0.86771	0.31352	0.15468	-0.018
Mof_C 	C 	0.90023	0.33064	0.2061	-0.008
Mof_C 	C 	0.91894	0.29931	0.19463	-0.084
Mof_S 	S 	0.90049	0.2798	0.1555	0.041
Mof_H 	H 	0.9073	0.3463	0.23029	0.048
Mof_O 	O 	0.74747	0.29816	0.46402	-0.408
Mof_O 	O 	0.79526	0.2445	0.46278	-0.401
Mof_C 	C 	0.71811	0.2854	0.45032	0.357
Mof_C 	C 	0.87095	0.83871	0.68317	0.015
Mof_C 	C 	0.86771	0.81352	0.65468	-0.019
Mof_C 	C 	0.90023	0.83064	0.7061	-0.008
Mof_C 	C 	0.91894	0.79931	0.69463	-0.084
Mof_S 	S 	0.90049	0.7798	0.6555	0.044
Mof_H 	H 	0.9073	0.8463	0.73029	0.049
Mof_O 	O 	0.74747	0.79816	0.96402	-0.402
Mof_O 	O 	0.79526	0.7445	0.96278	-0.394
Mof_C 	C 	0.71811	0.7854	0.95032	0.356
Mof_C 	C 	0.62905	0.33871	0.31683	0.013
Mof_C 	C 	0.63229	0.31352	0.34532	-0.018
Mof_C 	C 	0.59977	0.33064	0.2939	-0.008
Mof_C 	C 	0.58106	0.29931	0.30537	-0.086
Mof_S 	S 	0.59951	0.2798	0.3445	0.04
Mof_H 	H 	0.5927	0.3463	0.26971	0.047
Mof_O 	O 	0.75253	0.29816	0.03598	-0.412
Mof_O 	O 	0.70474	0.2445	0.03722	-0.404
Mof_C 	C 	0.78189	0.2854	0.04968	0.357
Mof_C 	C 	0.62905	0.83871	0.81683	0.014
Mof_C 	C 	0.63229	0.81352	0.84532	-0.018
Mof_C 	C 	0.59977	0.83064	0.7939	-0.008
Mof_C 	C 	0.58106	0.79931	0.80537	-0.085
Mof_S 	S 	0.59951	0.7798	0.8445	0.043
Mof_H 	H 	0.5927	0.8463	0.76971	0.048
Mof_O 	O 	0.75253	0.79816	0.53598	-0.408
Mof_O 	O 	0.70474	0.7445	0.53722	-0.401
Mof_C 	C 	0.78189	0.7854	0.54968	0.357
Mof_C 	C 	0.12905	0.33871	0.81683	0.012
Mof_C 	C 	0.13229	0.31352	0.84532	-0.018
Mof_C 	C 	0.09977	0.33064	0.7939	-0.008
Mof_C 	C 	0.08106	0.29931	0.80537	-0.086
Mof_S 	S 	0.09951	0.2798	0.8445	0.04
Mof_H 	H 	0.0927	0.3463	0.76971	0.046
Mof_O 	O 	0.25253	0.29816	0.53598	-0.409
Mof_O 	O 	0.20474	0.2445	0.53722	-0.402
Mof_C 	C 	0.28189	0.2854	0.54968	0.357
Mof_C 	C 	0.12905	0.83871	0.31683	0.013
Mof_C 	C 	0.13229	0.81352	0.34532	-0.018
Mof_C 	C 	0.09977	0.83064	0.2939	-0.008
Mof_C 	C 	0.08106	0.79931	0.30537	-0.086
Mof_S 	S 	0.09951	0.7798	0.3445	0.039
Mof_H 	H 	0.0927	0.8463	0.26971	0.046
Mof_O 	O 	0.25253	0.79816	0.03598	-0.411
Mof_O 	O 	0.20474	0.7445	0.03722	-0.404
Mof_C 	C 	0.28189	0.7854	0.04968	0.357
Mof_C 	C 	0.62905	0.66129	0.68317	0.013
Mof_C 	C 	0.63229	0.68648	0.65468	-0.018
Mof_C 	C 	0.59977	0.66936	0.7061	-0.008
Mof_C 	C 	0.58106	0.70069	0.69463	-0.086
Mof_S 	S 	0.59951	0.7202	0.6555	0.041
Mof_H 	H 	0.5927	0.6537	0.73029	0.047
Mof_O 	O 	0.75253	0.70184	0.96402	-0.403
Mof_O 	O 	0.70474	0.7555	0.96278	-0.395
Mof_C 	C 	0.78189	0.7146	0.95032	0.356
Mof_C 	C 	0.62905	0.16129	0.18317	0.012
Mof_C 	C 	0.63229	0.18648	0.15468	-0.018
Mof_C 	C 	0.59977	0.16936	0.2061	-0.008
Mof_C 	C 	0.58106	0.20069	0.19463	-0.086
Mof_S 	S 	0.59951	0.2202	0.1555	0.039
Mof_H 	H 	0.5927	0.1537	0.23029	0.046
Mof_O 	O 	0.75253	0.20184	0.46402	-0.409
Mof_O 	O 	0.70474	0.2555	0.46278	-0.401
Mof_C 	C 	0.78189	0.2146	0.45032	0.357
Mof_C 	C 	0.12905	0.66129	0.18317	0.012
Mof_C 	C 	0.13229	0.68648	0.15468	-0.018
Mof_C 	C 	0.09977	0.66936	0.2061	-0.008
Mof_C 	C 	0.08106	0.70069	0.19463	-0.087
Mof_S 	S 	0.09951	0.7202	0.1555	0.037
Mof_H 	H 	0.0927	0.6537	0.23029	0.046
Mof_O 	O 	0.25253	0.70184	0.46402	-0.409
Mof_O 	O 	0.20474	0.7555	0.46278	-0.401
Mof_C 	C 	0.28189	0.7146	0.45032	0.357
Mof_C 	C 	0.12905	0.16129	0.68317	0.012
Mof_C 	C 	0.13229	0.18648	0.65468	-0.018
Mof_C 	C 	0.09977	0.16936	0.7061	-0.008
Mof_C 	C 	0.08106	0.20069	0.69463	-0.087
Mof_S 	S 	0.09951	0.2202	0.6555	0.038
Mof_H 	H 	0.0927	0.1537	0.73029	0.045
Mof_O 	O 	0.25253	0.20184	0.96402	-0.404
Mof_O 	O 	0.20474	0.2555	0.96278	-0.396
Mof_C 	C 	0.28189	0.2146	0.95032	0.356
Mof_C 	C 	0.37095	0.66129	0.31683	0.013
Mof_C 	C 	0.36771	0.68648	0.34532	-0.018
Mof_C 	C 	0.40023	0.66936	0.2939	-0.008
Mof_C 	C 	0.41894	0.70069	0.30537	-0.086
Mof_S 	S 	0.40049	0.7202	0.3445	0.041
Mof_H 	H 	0.4073	0.6537	0.26971	0.047
Mof_O 	O 	0.24747	0.70184	0.03598	-0.412
Mof_O 	O 	0.29526	0.7555	0.03722	-0.404
Mof_C 	C 	0.21811	0.7146	0.04968	0.356
Mof_C 	C 	0.37095	0.16129	0.81683	0.013
Mof_C 	C 	0.36771	0.18648	0.84532	-0.018
Mof_C 	C 	0.40023	0.16936	0.7939	-0.008
Mof_C 	C 	0.41894	0.20069	0.80537	-0.086
Mof_S 	S 	0.40049	0.2202	0.8445	0.042
Mof_H 	H 	0.4073	0.1537	0.76971	0.046
Mof_O 	O 	0.24747	0.20184	0.53598	-0.409
Mof_O 	O 	0.29526	0.2555	0.53722	-0.401
Mof_C 	C 	0.21811	0.2146	0.54968	0.357
Mof_C 	C 	0.87095	0.66129	0.81683	0.014
Mof_C 	C 	0.86771	0.68648	0.84532	-0.019
Mof_C 	C 	0.90023	0.66936	0.7939	-0.008
Mof_C 	C 	0.91894	0.70069	0.80537	-0.084
Mof_S 	S 	0.90049	0.7202	0.8445	0.046
Mof_H 	H 	0.9073	0.6537	0.76971	0.048
Mof_O 	O 	0.74747	0.70184	0.53598	-0.408
Mof_O 	O 	0.79526	0.7555	0.53722	-0.4
Mof_C 	C 	0.71811	0.7146	0.54968	0.357
Mof_C 	C 	0.87095	0.16129	0.31683	0.013
Mof_C 	C 	0.86771	0.18648	0.34532	-0.018
Mof_C 	C 	0.90023	0.16936	0.2939	-0.008
Mof_C 	C 	0.91894	0.20069	0.30537	-0.085
Mof_S 	S 	0.90049	0.2202	0.3445	0.043
Mof_H 	H 	0.9073	0.1537	0.26971	0.047
Mof_O 	O 	0.74747	0.20184	0.03598	-0.412
Mof_O 	O 	0.79526	0.2555	0.03722	-0.404
Mof_C 	C 	0.71811	0.2146	0.04968	0.356
Mof_C 	C 	0.33871	0.31683	0.62905	0.013
Mof_C 	C 	0.31352	0.34532	0.63229	-0.018
Mof_C 	C 	0.33064	0.2939	0.59977	-0.008
Mof_C 	C 	0.29931	0.30537	0.58106	-0.086
Mof_S 	S 	0.2798	0.3445	0.59951	0.04
Mof_H 	H 	0.3463	0.26971	0.5927	0.047
Mof_O 	O 	0.29816	0.03598	0.75253	-0.412
Mof_O 	O 	0.2445	0.03722	0.70474	-0.404
Mof_C 	C 	0.2854	0.04968	0.78189	0.357
Mof_C 	C 	0.33871	0.81683	0.12905	0.012
Mof_C 	C 	0.31352	0.84532	0.13229	-0.018
Mof_C 	C 	0.33064	0.7939	0.09977	-0.008
Mof_C 	C 	0.29931	0.80537	0.08106	-0.086
Mof_S 	S 	0.2798	0.8445	0.09951	0.04
Mof_H 	H 	0.3463	0.76971	0.0927	0.046
Mof_O 	O 	0.29816	0.53598	0.25253	-0.409
Mof_O 	O 	0.2445	0.53722	0.20474	-0.402
Mof_C 	C 	0.2854	0.54968	0.28189	0.357
Mof_C 	C 	0.83871	0.31683	0.12905	0.013
Mof_C 	C 	0.81352	0.34532	0.13229	-0.018
Mof_C 	C 	0.83064	0.2939	0.09977	-0.008
Mof_C 	C 	0.79931	0.30537	0.08106	-0.086
Mof_S 	S 	0.7798	0.3445	0.09951	0.039
Mof_H 	H 	0.8463	0.26971	0.0927	0.046
Mof_O 	O 	0.79816	0.03598	0.25253	-0.411
Mof_O 	O 	0.7445	0.03722	0.20474	-0.404
Mof_C 	C 	0.7854	0.04968	0.28189	0.357
Mof_C 	C 	0.83871	0.81683	0.62905	0.014
Mof_C 	C 	0.81352	0.84532	0.63229	-0.018
Mof_C 	C 	0.83064	0.7939	0.59977	-0.008
Mof_C 	C 	0.79931	0.80537	0.58106	-0.085
Mof_S 	S 	0.7798	0.8445	0.59951	0.043
Mof_H 	H 	0.8463	0.76971	0.5927	0.048
Mof_O 	O 	0.79816	0.53598	0.75253	-0.408
Mof_O 	O 	0.7445	0.53722	0.70474	-0.401
Mof_C 	C 	0.7854	0.54968	0.78189	0.357
Mof_C 	C 	0.33871	0.68317	0.37095	0.013
Mof_C 	C 	0.31352	0.65468	0.36771	-0.018
Mof_C 	C 	0.33064	0.7061	0.40023	-0.008
Mof_C 	C 	0.29931	0.69463	0.41894	-0.085
Mof_S 	S 	0.2798	0.6555	0.40049	0.04
Mof_H 	H 	0.3463	0.73029	0.4073	0.047
Mof_O 	O 	0.29816	0.96402	0.24747	-0.403
Mof_O 	O 	0.2445	0.96278	0.29526	-0.395
Mof_C 	C 	0.2854	0.95032	0.21811	0.356
Mof_C 	C 	0.33871	0.18317	0.87095	0.013
Mof_C 	C 	0.31352	0.15468	0.86771	-0.018
Mof_C 	C 	0.33064	0.2061	0.90023	-0.008
Mof_C 	C 	0.29931	0.19463	0.91894	-0.084
Mof_S 	S 	0.2798	0.1555	0.90049	0.041
Mof_H 	H 	0.3463	0.23029	0.9073	0.048
Mof_O 	O 	0.29816	0.46402	0.74747	-0.408
Mof_O 	O 	0.2445	0.46278	0.79526	-0.401
Mof_C 	C 	0.2854	0.45032	0.71811	0.357
Mof_C 	C 	0.83871	0.68317	0.87095	0.015
Mof_C 	C 	0.81352	0.65468	0.86771	-0.019
Mof_C 	C 	0.83064	0.7061	0.90023	-0.008
Mof_C 	C 	0.79931	0.69463	0.91894	-0.084
Mof_S 	S 	0.7798	0.6555	0.90049	0.044
Mof_H 	H 	0.8463	0.73029	0.9073	0.049
Mof_O 	O 	0.79816	0.96402	0.74747	-0.402
Mof_O 	O 	0.7445	0.96278	0.79526	-0.394
Mof_C 	C 	0.7854	0.95032	0.71811	0.356
Mof_C 	C 	0.83871	0.18317	0.37095	0.013
Mof_C 	C 	0.81352	0.15468	0.36771	-0.018
Mof_C 	C 	0.83064	0.2061	0.40023	-0.008
Mof_C 	C 	0.79931	0.19463	0.41894	-0.085
Mof_S 	S 	0.7798	0.1555	0.40049	0.039
Mof_H 	H 	0.8463	0.23029	0.4073	0.047
Mof_O 	O 	0.79816	0.46402	0.24747	-0.408
Mof_O 	O 	0.7445	0.46278	0.29526	-0.401
Mof_C 	C 	0.7854	0.45032	0.21811	0.357
Mof_C 	C 	0.66129	0.31683	0.37095	0.013
Mof_C 	C 	0.68648	0.34532	0.36771	-0.018
Mof_C 	C 	0.66936	0.2939	0.40023	-0.008
Mof_C 	C 	0.70069	0.30537	0.41894	-0.086
Mof_S 	S 	0.7202	0.3445	0.40049	0.041
Mof_H 	H 	0.6537	0.26971	0.4073	0.047
Mof_O 	O 	0.70184	0.03598	0.24747	-0.412
Mof_O 	O 	0.7555	0.03722	0.29526	-0.404
Mof_C 	C 	0.7146	0.04968	0.21811	0.356
Mof_C 	C 	0.66129	0.81683	0.87095	0.014
Mof_C 	C 	0.68648	0.84532	0.86771	-0.019
Mof_C 	C 	0.66936	0.7939	0.90023	-0.008
Mof_C 	C 	0.70069	0.80537	0.91894	-0.084
Mof_S 	S 	0.7202	0.8445	0.90049	0.046
Mof_H 	H 	0.6537	0.76971	0.9073	0.048
Mof_O 	O 	0.70184	0.53598	0.74747	-0.408
Mof_O 	O 	0.7555	0.53722	0.79526	-0.4
Mof_C 	C 	0.7146	0.54968	0.71811	0.357
Mof_C 	C 	0.16129	0.31683	0.87095	0.013
Mof_C 	C 	0.18648	0.34532	0.86771	-0.018
Mof_C 	C 	0.16936	0.2939	0.90023	-0.008
Mof_C 	C 	0.20069	0.30537	0.91894	-0.085
Mof_S 	S 	0.2202	0.3445	0.90049	0.043
Mof_H 	H 	0.1537	0.26971	0.9073	0.047
Mof_O 	O 	0.20184	0.03598	0.74747	-0.412
Mof_O 	O 	0.2555	0.03722	0.79526	-0.404
Mof_C 	C 	0.2146	0.04968	0.71811	0.356
Mof_C 	C 	0.16129	0.81683	0.37095	0.013
Mof_C 	C 	0.18648	0.84532	0.36771	-0.018
Mof_C 	C 	0.16936	0.7939	0.40023	-0.008
Mof_C 	C 	0.20069	0.80537	0.41894	-0.086
Mof_S 	S 	0.2202	0.8445	0.40049	0.042
Mof_H 	H 	0.1537	0.76971	0.4073	0.046
Mof_O 	O 	0.20184	0.53598	0.24747	-0.409
Mof_O 	O 	0.2555	0.53722	0.29526	-0.401
Mof_C 	C 	0.2146	0.54968	0.21811	0.357
Mof_C 	C 	0.66129	0.68317	0.62905	0.013
Mof_C 	C 	0.68648	0.65468	0.63229	-0.018
Mof_C 	C 	0.66936	0.7061	0.59977	-0.008
Mof_C 	C 	0.70069	0.69463	0.58106	-0.086
Mof_S 	S 	0.7202	0.6555	0.59951	0.041
Mof_H 	H 	0.6537	0.73029	0.5927	0.047
Mof_O 	O 	0.70184	0.96402	0.75253	-0.403
Mof_O 	O 	0.7555	0.96278	0.70474	-0.395
Mof_C 	C 	0.7146	0.95032	0.78189	0.356
Mof_C 	C 	0.66129	0.18317	0.12905	0.012
Mof_C 	C 	0.68648	0.15468	0.13229	-0.018
Mof_C 	C 	0.66936	0.2061	0.09977	-0.008
Mof_C 	C 	0.70069	0.19463	0.08106	-0.087
Mof_S 	S 	0.7202	0.1555	0.09951	0.037
Mof_H 	H 	0.6537	0.23029	0.0927	0.046
Mof_O 	O 	0.70184	0.46402	0.25253	-0.409
Mof_O 	O 	0.7555	0.46278	0.20474	-0.401
Mof_C 	C 	0.7146	0.45032	0.28189	0.357
Mof_C 	C 	0.16129	0.68317	0.12905	0.012
Mof_C 	C 	0.18648	0.65468	0.13229	-0.018
Mof_C 	C 	0.16936	0.7061	0.09977	-0.008
Mof_C 	C 	0.20069	0.69463	0.08106	-0.087
Mof_S 	S 	0.2202	0.6555	0.09951	0.038
Mof_H 	H 	0.1537	0.73029	0.0927	0.045
Mof_O 	O 	0.20184	0.96402	0.25253	-0.404
Mof_O 	O 	0.2555	0.96278	0.20474	-0.396
Mof_C 	C 	0.2146	0.95032	0.28189	0.356
Mof_C 	C 	0.16129	0.18317	0.62905	0.012
Mof_C 	C 	0.18648	0.15468	0.63229	-0.018
Mof_C 	C 	0.16936	0.2061	0.59977	-0.008
Mof_C 	C 	0.20069	0.19463	0.58106	-0.086
Mof_S 	S 	0.2202	0.1555	0.59951	0.039
Mof_H 	H 	0.1537	0.23029	0.5927	0.046
Mof_O 	O 	0.20184	0.46402	0.75253	-0.409
Mof_O 	O 	0.2555	0.46278	0.70474	-0.401
Mof_C 	C 	0.2146	0.45032	0.78189	0.357
Mof_Cu	Cu	0.27537	2.0801e-33	0.27537	0.923
Mof_Cu	Cu	0.27537	0.5	0.77537	0.928
Mof_Cu	Cu	0.77537	0	0.77537	0.923
Mof_Cu	Cu	0.77537	0.5	0.27537	0.928
Mof_Cu	Cu	0.72463	2.0801e-33	0.27537	0.923
Mof_Cu	Cu	0.72463	0.5	0.77537	0.928
Mof_Cu	Cu	0.22463	0	0.77537	0.923
Mof_Cu	Cu	0.22463	0.5	0.27537	0.928
Mof_Cu	Cu	0.72463	0	0.72463	0.923
Mof_Cu	Cu	0.72463	0.5	0.22463	0.928
Mof_Cu	Cu	0.22463	0	0.22463	0.922
Mof_Cu	Cu	0.22463	0.5	0.72463	0.928
Mof_Cu	Cu	0.27537	0	0.72463	0.923
Mof_Cu	Cu	0.27537	0.5	0.22463	0.928
Mof_Cu	Cu	0.77537	0	0.22463	0.923
Mof_Cu	Cu	0.77537	0.5	0.72463	0.928
Mof_Cu	Cu	0.27537	0.27537	-0	0.923
Mof_Cu	Cu	0.27537	0.77537	0.5	0.928
Mof_Cu	Cu	0.77537	0.27537	0.5	0.928
Mof_Cu	Cu	0.77537	0.77537	-0	0.923
Mof_Cu	Cu	0.27537	0.72463	-0	0.923
Mof_Cu	Cu	0.27537	0.22463	0.5	0.928
Mof_Cu	Cu	0.77537	0.72463	0.5	0.928
Mof_Cu	Cu	0.77537	0.22463	-0	0.923
Mof_Cu	Cu	0.72463	0.72463	-0	0.923
Mof_Cu	Cu	0.72463	0.22463	0.5	0.928
Mof_Cu	Cu	0.22463	0.72463	0.5	0.928
Mof_Cu	Cu	0.22463	0.22463	-0	0.922
Mof_Cu	Cu	0.72463	0.27537	-0	0.923
Mof_Cu	Cu	0.72463	0.77537	0.5	0.928
Mof_Cu	Cu	0.22463	0.27537	0.5	0.928
Mof_Cu	Cu	0.22463	0.77537	-0	0.923
Mof_Cu	Cu	5.19268e-33	0.27537	0.27537	0.923
Mof_Cu	Cu	-1.37337e-32	0.77537	0.77537	0.923
Mof_Cu	Cu	0.5	0.27537	0.77537	0.928
Mof_Cu	Cu	0.5	0.77537	0.27537	0.928
Mof_Cu	Cu	2.71693e-33	0.27537	0.72463	0.923
Mof_Cu	Cu	-3.31798e-33	0.77537	0.22463	0.923
Mof_Cu	Cu	0.5	0.27537	0.22463	0.928
Mof_Cu	Cu	0.5	0.77537	0.72463	0.928
Mof_Cu	Cu	1.93578e-32	0.72463	0.72463	0.923
Mof_Cu	Cu	-3.31798e-33	0.22463	0.22463	0.922
Mof_Cu	Cu	0.5	0.72463	0.22463	0.928
Mof_Cu	Cu	0.5	0.22463	0.72463	0.928
Mof_Cu	Cu	5.19268e-33	0.72463	0.27537	0.923
Mof_Cu	Cu	-5.41325e-33	0.22463	0.77537	0.923
Mof_Cu	Cu	0.5	0.72463	0.77537	0.928
Mof_Cu	Cu	0.5	0.22463	0.27537	0.928
_end
