data_functionalizedCrystal
_audit_creation_method	'EQeq! by Chris Wilmer'
_symmetry_space_group_name_H-M	'P1'
_symmetry_Int_Tables_number	1
_symmetry_cell_setting	triclinic
loop_
_symmetry_equiv_pos_as_xyz
  x,y,z
_cell_length_a	9.376
_cell_length_b	9.94
_cell_length_c	11.377
_cell_angle_alpha	92.979
_cell_angle_beta	97.836
_cell_angle_gamma	110.33
loop_
_atom_site_label
_atom_site_type_symbol
_atom_site_fract_x
_atom_site_fract_y
_atom_site_fract_z
_atom_site_charge
Mof_La	La	0.71556	0.95229	0.01678	2.008
Mof_La	La	0.28444	0.04771	0.98322	2.008
Mof_H 	H 	0.3173	0.4979	0.0401	0.025
Mof_H 	H 	0.1922	0.7827	0.2219	0.041
Mof_H 	H 	0.9138	0.3649	0.1632	0.08
Mof_H 	H 	0.17	0.5966	0.429	0.132
Mof_H 	H 	0.2612	0.722	0.6189	-0.017
Mof_H 	H 	0.9303	0.8939	0.5737	-0.019
Mof_H 	H 	0.8398	0.7697	0.3842	0.142
Mof_H 	H 	0.6827	0.5021	0.9599	0.024
Mof_H 	H 	0.8078	0.2173	0.7781	0.04
Mof_H 	H 	0.0862	0.6351	0.8368	0.08
Mof_H 	H 	0.83	0.4034	0.571	0.132
Mof_H 	H 	0.7388	0.278	0.3811	-0.017
Mof_H 	H 	0.0697	0.1061	0.4263	-0.019
Mof_H 	H 	0.1602	0.2303	0.6158	0.142
Mof_C 	C 	0.0743	0.2595	0.0299	0.437
Mof_C 	C 	0.107	0.4068	0.0887	-0.111
Mof_C 	C 	0.2458	0.5189	0.0797	0.034
Mof_C 	C 	0.2785	0.657	0.127	-0.107
Mof_C 	C 	0.423	0.7722	0.1063	0.384
Mof_C 	C 	0.1741	0.6886	0.1911	-0.079
Mof_C 	C 	0.0435	0.5761	0.2071	0.151
Mof_C 	C 	0.0056	0.4369	0.1546	-0.093
Mof_C 	C 	0.0006	0.6769	0.3888	0.283
Mof_C 	C 	0.124	0.6579	0.4578	-0.278
Mof_C 	C 	0.1777	0.7323	0.571	0.148
Mof_C 	C 	0.1055	0.823	0.613	-0.187
Mof_C 	C 	0.1712	0.9087	0.7326	0.357
Mof_C 	C 	0.9794	0.8358	0.5442	0.139
Mof_C 	C 	0.9254	0.762	0.4311	-0.277
Mof_C 	C 	0.9257	0.7405	0.9701	0.437
Mof_C 	C 	0.893	0.5932	0.9113	-0.111
Mof_C 	C 	0.7542	0.4811	0.9203	0.034
Mof_C 	C 	0.7215	0.343	0.873	-0.107
Mof_C 	C 	0.577	0.2278	0.8937	0.384
Mof_C 	C 	0.8259	0.3114	0.8089	-0.079
Mof_C 	C 	0.9565	0.4239	0.7929	0.151
Mof_C 	C 	0.9944	0.5631	0.8454	-0.093
Mof_C 	C 	0.9994	0.3231	0.6112	0.283
Mof_C 	C 	0.876	0.3421	0.5422	-0.278
Mof_C 	C 	0.8223	0.2677	0.429	0.148
Mof_C 	C 	0.8945	0.177	0.387	-0.187
Mof_C 	C 	0.8288	0.0913	0.2674	0.357
Mof_C 	C 	0.0206	0.1642	0.4558	0.139
Mof_C 	C 	0.0746	0.238	0.5689	-0.277
Mof_O 	O 	0.9407	0.1642	0.0311	-0.522
Mof_O 	O 	0.1776	0.2352	0.9825	-0.531
Mof_O 	O 	0.5449	0.7475	0.1182	-0.449
Mof_O 	O 	0.4179	0.8936	0.0786	-0.587
Mof_O 	O 	0.9392	0.6034	0.2741	-0.271
Mof_O 	O 	0.2854	0.8958	0.7963	-0.439
Mof_O 	O 	0.114	0.9988	0.7707	-0.393
Mof_O 	O 	0.0593	0.8358	0.9689	-0.522
Mof_O 	O 	0.8224	0.7648	0.0175	-0.531
Mof_O 	O 	0.4551	0.2525	0.8818	-0.449
Mof_O 	O 	0.5821	0.1064	0.9214	-0.587
Mof_O 	O 	0.0608	0.3966	0.7259	-0.271
Mof_O 	O 	0.7146	0.1042	0.2037	-0.439
Mof_O 	O 	0.886	0.0012	0.2293	-0.393
_end
