# CIF file generated by openbabel 3.1.0, see https://openbabel.org
data_I
_chemical_name_common 'image0'
_cell_length_a 7.0465
_cell_length_b 15.646
_cell_length_c 17.396
_cell_angle_alpha 90
_cell_angle_beta 90
_cell_angle_gamma 90
_space_group_name_H-M_alt 'P 1'
_space_group_name_Hall 'P 1'
loop_
    _symmetry_equiv_pos_as_xyz
    x,y,z
loop_
    _atom_site_label
    _atom_site_type_symbol
    _atom_site_fract_x
    _atom_site_fract_y
    _atom_site_fract_z
    _atom_site_occupancy
    P1       P        0.25330    0.13322    0.40057    1.000
    O1       O        0.29240    0.14630    0.31510    1.000
    O2       O        0.43430    0.10430    0.44170    1.000
    O3       O        0.09020    0.07110    0.41260    1.000
    O4       O        0.35940    0.35990    0.46080    1.000
    O5       O        0.29910    0.32490    0.34170    1.000
    C1       C        0.28900    0.31160    0.41430    1.000
    C2       C        0.17940    0.23380    0.44030    1.000
    H1       H        0.04680    0.24240    0.42750    1.000
    H2       H        0.18830    0.23020    0.49580    1.000
    P2       P        0.24670    0.86678    0.40057    1.000
    O6       O        0.20760    0.85370    0.31510    1.000
    O7       O        0.06570    0.89570    0.44170    1.000
    O8       O        0.40980    0.92890    0.41260    1.000
    O9       O        0.14060    0.64010    0.46080    1.000
    O10      O        0.20090    0.67510    0.34170    1.000
    C3       C        0.21100    0.68840    0.41430    1.000
    C4       C        0.32060    0.76620    0.44030    1.000
    H3       H        0.45320    0.75760    0.42750    1.000
    H4       H        0.31170    0.76980    0.49580    1.000
    P3       P        0.24670    0.63322    0.09943    1.000
    O11      O        0.20760    0.64630    0.18490    1.000
    O12      O        0.06570    0.60430    0.05830    1.000
    O13      O        0.40980    0.57110    0.08740    1.000
    O14      O        0.14060    0.85990    0.03920    1.000
    O15      O        0.20090    0.82490    0.15830    1.000
    C5       C        0.21100    0.81160    0.08570    1.000
    C6       C        0.32060    0.73380    0.05970    1.000
    H5       H        0.45320    0.74240    0.07250    1.000
    H6       H        0.31170    0.73020    0.00420    1.000
    P4       P        0.25330    0.36678    0.09943    1.000
    O16      O        0.29240    0.35370    0.18490    1.000
    O17      O        0.43430    0.39570    0.05830    1.000
    O18      O        0.09020    0.42890    0.08740    1.000
    O19      O        0.35940    0.14010    0.03920    1.000
    O20      O        0.29910    0.17510    0.15830    1.000
    C7       C        0.28900    0.18840    0.08570    1.000
    C8       C        0.17940    0.26620    0.05970    1.000
    H7       H        0.04680    0.25760    0.07250    1.000
    H8       H        0.18830    0.26980    0.00420    1.000
    P5       P        0.74670    0.86678    0.59943    1.000
    O21      O        0.70760    0.85370    0.68490    1.000
    O22      O        0.56570    0.89570    0.55830    1.000
    O23      O        0.90980    0.92890    0.58740    1.000
    O24      O        0.64060    0.64010    0.53920    1.000
    O25      O        0.70090    0.67510    0.65830    1.000
    C9       C        0.71100    0.68840    0.58570    1.000
    C10      C        0.82060    0.76620    0.55970    1.000
    H9       H        0.95320    0.75760    0.57250    1.000
    H10      H        0.81170    0.76980    0.50420    1.000
    P6       P        0.75330    0.13322    0.59943    1.000
    O26      O        0.79240    0.14630    0.68490    1.000
    O27      O        0.93430    0.10430    0.55830    1.000
    O28      O        0.59020    0.07110    0.58740    1.000
    O29      O        0.85940    0.35990    0.53920    1.000
    O30      O        0.79910    0.32490    0.65830    1.000
    C11      C        0.78900    0.31160    0.58570    1.000
    C12      C        0.67940    0.23380    0.55970    1.000
    H11      H        0.54680    0.24240    0.57250    1.000
    H12      H        0.68830    0.23020    0.50420    1.000
    P7       P        0.75330    0.36678    0.90057    1.000
    O31      O        0.79240    0.35370    0.81510    1.000
    O32      O        0.93430    0.39570    0.94170    1.000
    O33      O        0.59020    0.42890    0.91260    1.000
    O34      O        0.85940    0.14010    0.96080    1.000
    O35      O        0.79910    0.17510    0.84170    1.000
    C13      C        0.78900    0.18840    0.91430    1.000
    C14      C        0.67940    0.26620    0.94030    1.000
    H13      H        0.54680    0.25760    0.92750    1.000
    H14      H        0.68830    0.26980    0.99580    1.000
    P8       P        0.74670    0.63322    0.90057    1.000
    O36      O        0.70760    0.64630    0.81510    1.000
    O37      O        0.56570    0.60430    0.94170    1.000
    O38      O        0.90980    0.57110    0.91260    1.000
    O39      O        0.64060    0.85990    0.96080    1.000
    O40      O        0.70090    0.82490    0.84170    1.000
    C15      C        0.71100    0.81160    0.91430    1.000
    C16      C        0.82060    0.73380    0.94030    1.000
    H15      H        0.95320    0.74240    0.92750    1.000
    H16      H        0.81170    0.73020    0.99580    1.000
    V1       V        0.24690    0.25000    0.25000    1.000
    V2       V        0.25310    0.75000    0.25000    1.000
    V3       V        0.75310    0.75000    0.75000    1.000
    V4       V        0.74690    0.25000    0.75000    1.000
    V5       V        0.50000    0.00000    0.50000    1.000
    V6       V        0.00000    0.00000    0.50000    1.000
    V7       V        0.00000    0.50000    0.00000    1.000
    V8       V        0.50000    0.50000    0.00000    1.000
    O41      O        0.75000    0.00000    0.45820    1.000
    O42      O        0.75000    0.50000    0.04180    1.000
    O43      O        0.25000    0.00000    0.54180    1.000
    O44      O        0.25000    0.50000    0.95820    1.000
