# CIF file generated by openbabel 3.1.0, see https://openbabel.org
data_I
_chemical_name_common 'image0'
_cell_length_a 21.169
_cell_length_b 11.2196
_cell_length_c 23.5169
_cell_angle_alpha 90
_cell_angle_beta 90
_cell_angle_gamma 90
_space_group_name_H-M_alt 'P 1'
_space_group_name_Hall 'P 1'
loop_
    _symmetry_equiv_pos_as_xyz
    x,y,z
loop_
    _atom_site_label
    _atom_site_type_symbol
    _atom_site_fract_x
    _atom_site_fract_y
    _atom_site_fract_z
    _atom_site_occupancy
    Zn1      Zn       0.40171    0.72937    0.85858    1.000
    Zn2      Zn       0.39919    0.00592    0.85717    1.000
    Zn3      Zn       0.33959    0.87569    0.96216    1.000
    Zn4      Zn       0.48685    0.83146    0.94945    1.000
    O1       O        0.41160    0.86670    0.90700    1.000
    O2       O        0.48440    0.67290    0.83290    1.000
    O3       O        0.54530    0.74060    0.90410    1.000
    O4       O        0.76940    0.62010    0.90190    1.000
    O5       O        0.80510    0.49130    0.83830    1.000
    O6       O        0.39960    0.91530    0.77370    1.000
    O7       O        0.35060    0.74430    0.79100    1.000
    O8       O        0.17470    0.18840    0.46800    1.000
    O9       O        0.12640    0.08820    0.39950    1.000
    O10      O        0.10830    0.65050    0.40810    1.000
    O11      O        0.16130    0.55440    0.47710    1.000
    O12      O        0.60400    0.14510    0.53520    1.000
    O13      O        0.53160    0.28100    0.51510    1.000
    C1       C        0.53480    0.67950    0.85720    1.000
    C2       C        0.59260    0.62210    0.82890    1.000
    C3       C        0.65170    0.62150    0.85470    1.000
    H1       H        0.65870    0.66490    0.88780    1.000
    C4       C        0.70150    0.55380    0.82990    1.000
    C5       C        0.68920    0.50640    0.77610    1.000
    H2       H        0.72240    0.47180    0.75610    1.000
    C6       C        0.63020    0.50800    0.75110    1.000
    C7       C        0.58360    0.56880    0.77620    1.000
    H3       H        0.54470    0.57540    0.75820    1.000
    C8       C        0.76100    0.55330    0.85950    1.000
    C9       C        0.61890    0.44430    0.69650    1.000
    C10      C        0.65220    0.33460    0.68590    1.000
    H4       H        0.68100    0.30490    0.71220    1.000
    C11      C        0.63990    0.27090    0.63290    1.000
    H5       H        0.66370    0.20410    0.62360    1.000
    C12      C        0.59130    0.31080    0.59530    1.000
    C13      C        0.57430    0.48260    0.65770    1.000
    H6       H        0.55380    0.55480    0.66380    1.000
    C14      C        0.36200    0.83990    0.76050    1.000
    C15      C        0.32660    0.85040    0.70810    1.000
    C16      C        0.33350    0.94190    0.67150    1.000
    H7       H        0.36400    0.99940    0.67910    1.000
    C17      C        0.25240    0.86920    0.60820    1.000
    C18      C        0.24530    0.78290    0.64690    1.000
    H8       H        0.21470    0.72600    0.63850    1.000
    C19      C        0.27580    0.76730    0.69550    1.000
    H9       H        0.26530    0.70610    0.72030    1.000
    C20      C        0.21860    0.86960    0.55220    1.000
    C21      C        0.20560    0.97410    0.52590    1.000
    H10      H        0.22180    0.04480    0.54050    1.000
    C22      C        0.16620    0.97700    0.47440    1.000
    C23      C        0.15170    0.86740    0.45360    1.000
    H11      H        0.13200    0.86640    0.41820    1.000
    C24      C        0.19260    0.76260    0.52760    1.000
    H12      H        0.19690    0.69130    0.54730    1.000
    C25      C        0.16210    0.76170    0.47710    1.000
    C26      C        0.15600    0.09650    0.45030    1.000
    C27      C        0.14730    0.64690    0.45480    1.000
    C28      C        0.29650    0.95380    0.62220    1.000
    H13      H        0.30200    0.01990    0.59880    1.000
    C29      C        0.55910    0.41560    0.60940    1.000
    H14      H        0.52660    0.44160    0.58600    1.000
    C30      C        0.57370    0.24050    0.54510    1.000
    Zn5      Zn       0.59829    0.27063    0.35858    1.000
    Zn6      Zn       0.60081    0.99408    0.35717    1.000
    Zn7      Zn       0.66041    0.12431    0.46216    1.000
    Zn8      Zn       0.51315    0.16854    0.44945    1.000
    O14      O        0.58840    0.13330    0.40700    1.000
    O15      O        0.51560    0.32710    0.33290    1.000
    O16      O        0.45470    0.25940    0.40410    1.000
    O17      O        0.23060    0.37990    0.40190    1.000
    O18      O        0.19490    0.50870    0.33830    1.000
    O19      O        0.60040    0.08470    0.27370    1.000
    O20      O        0.64940    0.25570    0.29100    1.000
    O21      O        0.82530    0.81160    0.96800    1.000
    O22      O        0.87360    0.91180    0.89950    1.000
    O23      O        0.89170    0.34950    0.90810    1.000
    O24      O        0.83870    0.44560    0.97710    1.000
    O25      O        0.39600    0.85490    0.03520    1.000
    O26      O        0.46840    0.71900    0.01510    1.000
    C31      C        0.46520    0.32050    0.35720    1.000
    C32      C        0.40740    0.37790    0.32890    1.000
    C33      C        0.34830    0.37850    0.35470    1.000
    H15      H        0.34130    0.33510    0.38780    1.000
    C34      C        0.29850    0.44620    0.32990    1.000
    C35      C        0.31080    0.49360    0.27610    1.000
    H16      H        0.27760    0.52820    0.25610    1.000
    C36      C        0.36980    0.49200    0.25110    1.000
    C37      C        0.41640    0.43120    0.27620    1.000
    H17      H        0.45530    0.42460    0.25820    1.000
    C38      C        0.23900    0.44670    0.35950    1.000
    C39      C        0.38110    0.55570    0.19650    1.000
    C40      C        0.34780    0.66540    0.18590    1.000
    H18      H        0.31900    0.69510    0.21220    1.000
    C41      C        0.36010    0.72910    0.13290    1.000
    H19      H        0.33630    0.79590    0.12360    1.000
    C42      C        0.40870    0.68920    0.09530    1.000
    C43      C        0.42570    0.51740    0.15770    1.000
    H20      H        0.44620    0.44520    0.16380    1.000
    C44      C        0.63800    0.16010    0.26050    1.000
    C45      C        0.67340    0.14960    0.20810    1.000
    C46      C        0.66650    0.05810    0.17150    1.000
    H21      H        0.63600    0.00060    0.17910    1.000
    C47      C        0.74760    0.13080    0.10820    1.000
    C48      C        0.75470    0.21710    0.14690    1.000
    H22      H        0.78530    0.27400    0.13850    1.000
    C49      C        0.72420    0.23270    0.19550    1.000
    H23      H        0.73470    0.29390    0.22030    1.000
    C50      C        0.78140    0.13040    0.05220    1.000
    C51      C        0.79440    0.02590    0.02590    1.000
    H24      H        0.77820    0.95520    0.04050    1.000
    C52      C        0.83380    0.02300    0.97440    1.000
    C53      C        0.84830    0.13260    0.95360    1.000
    H25      H        0.86800    0.13360    0.91820    1.000
    C54      C        0.80740    0.23740    0.02760    1.000
    H26      H        0.80310    0.30870    0.04730    1.000
    C55      C        0.83790    0.23830    0.97710    1.000
    C56      C        0.84400    0.90350    0.95030    1.000
    C57      C        0.85270    0.35310    0.95480    1.000
    C58      C        0.70350    0.04620    0.12220    1.000
    H27      H        0.69800    0.98010    0.09880    1.000
    C59      C        0.44090    0.58440    0.10940    1.000
    H28      H        0.47340    0.55840    0.08600    1.000
    C60      C        0.42630    0.75950    0.04510    1.000
    Zn9      Zn       0.90171    0.77063    0.85858    1.000
    Zn10     Zn       0.89919    0.49408    0.85717    1.000
    Zn11     Zn       0.83959    0.62431    0.96216    1.000
    Zn12     Zn       0.98685    0.66854    0.94945    1.000
    O27      O        0.91160    0.63330    0.90700    1.000
    O28      O        0.98440    0.82710    0.83290    1.000
    O29      O        0.04530    0.75940    0.90410    1.000
    O30      O        0.26940    0.87990    0.90190    1.000
    O31      O        0.30510    0.00870    0.83830    1.000
    O32      O        0.89960    0.58470    0.77370    1.000
    O33      O        0.85060    0.75570    0.79100    1.000
    O34      O        0.67470    0.31160    0.46800    1.000
    O35      O        0.62640    0.41180    0.39950    1.000
    O36      O        0.60830    0.84950    0.40810    1.000
    O37      O        0.66130    0.94560    0.47710    1.000
    O38      O        0.10400    0.35490    0.53520    1.000
    O39      O        0.03160    0.21900    0.51510    1.000
    C61      C        0.03480    0.82050    0.85720    1.000
    C62      C        0.09260    0.87790    0.82890    1.000
    C63      C        0.15170    0.87850    0.85470    1.000
    H29      H        0.15870    0.83510    0.88780    1.000
    C64      C        0.20150    0.94620    0.82990    1.000
    C65      C        0.18920    0.99360    0.77610    1.000
    H30      H        0.22240    0.02820    0.75610    1.000
    C66      C        0.13020    0.99200    0.75110    1.000
    C67      C        0.08360    0.93120    0.77620    1.000
    H31      H        0.04470    0.92460    0.75820    1.000
    C68      C        0.26100    0.94670    0.85950    1.000
    C69      C        0.11890    0.05570    0.69650    1.000
    C70      C        0.15220    0.16540    0.68590    1.000
    H32      H        0.18100    0.19510    0.71220    1.000
    C71      C        0.13990    0.22910    0.63290    1.000
    H33      H        0.16370    0.29590    0.62360    1.000
    C72      C        0.09130    0.18920    0.59530    1.000
    C73      C        0.07430    0.01740    0.65770    1.000
    H34      H        0.05380    0.94520    0.66380    1.000
    C74      C        0.86200    0.66010    0.76050    1.000
    C75      C        0.82660    0.64960    0.70810    1.000
    C76      C        0.83350    0.55810    0.67150    1.000
    H35      H        0.86400    0.50060    0.67910    1.000
    C77      C        0.75240    0.63080    0.60820    1.000
    C78      C        0.74530    0.71710    0.64690    1.000
    H36      H        0.71470    0.77400    0.63850    1.000
    C79      C        0.77580    0.73270    0.69550    1.000
    H37      H        0.76530    0.79390    0.72030    1.000
    C80      C        0.71860    0.63040    0.55220    1.000
    C81      C        0.70560    0.52590    0.52590    1.000
    H38      H        0.72180    0.45520    0.54050    1.000
    C82      C        0.66620    0.52300    0.47440    1.000
    C83      C        0.65170    0.63260    0.45360    1.000
    H39      H        0.63200    0.63360    0.41820    1.000
    C84      C        0.69260    0.73740    0.52760    1.000
    H40      H        0.69690    0.80870    0.54730    1.000
    C85      C        0.66210    0.73830    0.47710    1.000
    C86      C        0.65600    0.40350    0.45030    1.000
    C87      C        0.64730    0.85310    0.45480    1.000
    C88      C        0.79650    0.54620    0.62220    1.000
    H41      H        0.80200    0.48010    0.59880    1.000
    C89      C        0.05910    0.08440    0.60940    1.000
    H42      H        0.02660    0.05840    0.58600    1.000
    C90      C        0.07370    0.25950    0.54510    1.000
    Zn13     Zn       0.09829    0.22937    0.35858    1.000
    Zn14     Zn       0.10081    0.50592    0.35717    1.000
    Zn15     Zn       0.16041    0.37569    0.46216    1.000
    Zn16     Zn       0.01315    0.33146    0.44945    1.000
    O40      O        0.08840    0.36670    0.40700    1.000
    O41      O        0.01560    0.17290    0.33290    1.000
    O42      O        0.95470    0.24060    0.40410    1.000
    O43      O        0.73060    0.12010    0.40190    1.000
    O44      O        0.69490    0.99130    0.33830    1.000
    O45      O        0.10040    0.41530    0.27370    1.000
    O46      O        0.14940    0.24430    0.29100    1.000
    O47      O        0.32530    0.68840    0.96800    1.000
    O48      O        0.37360    0.58820    0.89950    1.000
    O49      O        0.39170    0.15050    0.90810    1.000
    O50      O        0.33870    0.05440    0.97710    1.000
    O51      O        0.89600    0.64510    0.03520    1.000
    O52      O        0.96840    0.78100    0.01510    1.000
    C91      C        0.96520    0.17950    0.35720    1.000
    C92      C        0.90740    0.12210    0.32890    1.000
    C93      C        0.84830    0.12150    0.35470    1.000
    H43      H        0.84130    0.16490    0.38780    1.000
    C94      C        0.79850    0.05380    0.32990    1.000
    C95      C        0.81080    0.00640    0.27610    1.000
    H44      H        0.77760    0.97180    0.25610    1.000
    C96      C        0.86980    0.00800    0.25110    1.000
    C97      C        0.91640    0.06880    0.27620    1.000
    H45      H        0.95530    0.07540    0.25820    1.000
    C98      C        0.73900    0.05330    0.35950    1.000
    C99      C        0.88110    0.94430    0.19650    1.000
    C100     C        0.84780    0.83460    0.18590    1.000
    H46      H        0.81900    0.80490    0.21220    1.000
    C101     C        0.86010    0.77090    0.13290    1.000
    H47      H        0.83630    0.70410    0.12360    1.000
    C102     C        0.90870    0.81080    0.09530    1.000
    C103     C        0.92570    0.98260    0.15770    1.000
    H48      H        0.94620    0.05480    0.16380    1.000
    C104     C        0.13800    0.33990    0.26050    1.000
    C105     C        0.17340    0.35040    0.20810    1.000
    C106     C        0.16650    0.44190    0.17150    1.000
    H49      H        0.13600    0.49940    0.17910    1.000
    C107     C        0.24760    0.36920    0.10820    1.000
    C108     C        0.25470    0.28290    0.14690    1.000
    H50      H        0.28530    0.22600    0.13850    1.000
    C109     C        0.22420    0.26730    0.19550    1.000
    H51      H        0.23470    0.20610    0.22030    1.000
    C110     C        0.28140    0.36960    0.05220    1.000
    C111     C        0.29440    0.47410    0.02590    1.000
    H52      H        0.27820    0.54480    0.04050    1.000
    C112     C        0.33380    0.47700    0.97440    1.000
    C113     C        0.34830    0.36740    0.95360    1.000
    H53      H        0.36800    0.36640    0.91820    1.000
    C114     C        0.30740    0.26260    0.02760    1.000
    H54      H        0.30310    0.19130    0.04730    1.000
    C115     C        0.33790    0.26170    0.97710    1.000
    C116     C        0.34400    0.59650    0.95030    1.000
    C117     C        0.35270    0.14690    0.95480    1.000
    C118     C        0.20350    0.45380    0.12220    1.000
    H55      H        0.19800    0.51990    0.09880    1.000
    C119     C        0.94090    0.91560    0.10940    1.000
    H56      H        0.97340    0.94160    0.08600    1.000
    C120     C        0.92630    0.74050    0.04510    1.000
