data_functionalizedCrystal
_audit_creation_method	'EQeq! by Chris Wilmer'
_symmetry_space_group_name_H-M	'P1'
_symmetry_Int_Tables_number	1
_symmetry_cell_setting	triclinic
loop_
_symmetry_equiv_pos_as_xyz
  x,y,z
_cell_length_a	27.538
_cell_length_b	27.538
_cell_length_c	20.139
_cell_angle_alpha	90
_cell_angle_beta	90
_cell_angle_gamma	120
loop_
_atom_site_label
_atom_site_type_symbol
_atom_site_fract_x
_atom_site_fract_y
_atom_site_fract_z
_atom_site_charge
Mof_I 	I 	0.22672	0.6342	0.54931	-0.567
Mof_Cu	Cu	0.28777	0.60524	0.47476	0.715
Mof_O 	O 	0.21137	0.36887	0.31983	-0.411
Mof_O 	O 	0.29103	0.45132	0.31759	-0.411
Mof_O 	O 	0.95908	0.27229	0.68097	-0.411
Mof_O 	O 	0.95458	0.35125	0.68229	-0.421
Mof_N 	N 	0.23769	0.52387	0.4501	-0.234
Mof_C 	C 	0.2515	0.4981	0.4032	0.075
Mof_H 	H 	0.2836	0.5199	0.3781	0.007
Mof_C 	C 	0.2208	0.441	0.39	-0.121
Mof_C 	C 	0.1737	0.408	0.4275	0.029
Mof_H 	H 	0.1525	0.3696	0.42	0.034
Mof_C 	C 	0.1585	0.4333	0.477	-0.061
Mof_C 	C 	0.1917	0.4905	0.4857	0.037
Mof_H 	H 	0.1815	0.5072	0.5188	0.007
Mof_C 	C 	0.2423	0.4178	0.3384	0.379
Mof_C 	C 	0.1079	0.4023	0.5203	0.105
Mof_C 	C 	0.0929	0.3493	0.542	-0.147
Mof_H 	H 	0.112	0.3315	0.5271	0.087
Mof_C 	C 	0.0479	0.3223	0.5871	0.064
Mof_H 	H 	0.0371	0.2861	0.6014	0.025
Mof_C 	C 	0.0196	0.3488	0.6108	-0.125
Mof_C 	C 	0.0336	0.4008	0.5858	0.071
Mof_H 	H 	0.0136	0.4182	0.5989	0.027
Mof_C 	C 	0.0776	0.4271	0.541	-0.15
Mof_H 	H 	0.0868	0.4622	0.5245	0.091
Mof_C 	C 	0.9736	0.3214	0.6624	0.378
Mof_C 	C 	0.3901	0.6864	0.7115	-0.065
Mof_H 	H 	0.4152	0.7241	0.6955	0.043
Mof_H 	H 	0.4038	0.6622	0.6955	0.041
Mof_I 	I 	0.3658	0.59252	0.54931	-0.566
Mof_Cu	Cu	0.39476	0.68253	0.47476	0.716
Mof_O 	O 	0.63113	0.8425	0.31983	-0.41
Mof_O 	O 	0.54868	0.83971	0.31759	-0.41
Mof_O 	O 	0.72771	0.68679	0.68097	-0.41
Mof_O 	O 	0.64875	0.60333	0.68229	-0.42
Mof_N 	N 	0.47613	0.71382	0.4501	-0.233
Mof_C 	C 	0.5019	0.7534	0.4032	0.076
Mof_H 	H 	0.4801	0.7637	0.3781	0.008
Mof_C 	C 	0.559	0.7798	0.39	-0.12
Mof_C 	C 	0.592	0.7657	0.4275	0.03
Mof_H 	H 	0.6304	0.7829	0.42	0.035
Mof_C 	C 	0.5667	0.7252	0.477	-0.061
Mof_C 	C 	0.5095	0.7012	0.4857	0.037
Mof_H 	H 	0.4928	0.6743	0.5188	0.007
Mof_C 	C 	0.5822	0.8245	0.3384	0.379
Mof_C 	C 	0.5977	0.7056	0.5203	0.105
Mof_C 	C 	0.6507	0.7436	0.542	-0.147
Mof_H 	H 	0.6685	0.7805	0.5271	0.087
Mof_C 	C 	0.6777	0.7256	0.5871	0.064
Mof_H 	H 	0.7139	0.751	0.6014	0.025
Mof_C 	C 	0.6512	0.6708	0.6108	-0.126
Mof_C 	C 	0.5992	0.6328	0.5858	0.071
Mof_H 	H 	0.5818	0.5954	0.5989	0.027
Mof_C 	C 	0.5729	0.6505	0.541	-0.15
Mof_H 	H 	0.5378	0.6246	0.5245	0.091
Mof_C 	C 	0.6786	0.6522	0.6624	0.378
Mof_C 	C 	0.3136	0.7037	0.7115	-0.065
Mof_H 	H 	0.2759	0.6911	0.6955	0.043
Mof_H 	H 	0.3378	0.7416	0.6955	0.041
Mof_I 	I 	0.40748	0.77328	0.54931	-0.566
Mof_Cu	Cu	0.31747	0.71223	0.47476	0.716
Mof_O 	O 	0.1575	0.78863	0.31983	-0.41
Mof_O 	O 	0.16029	0.70897	0.31759	-0.41
Mof_O 	O 	0.31321	0.04092	0.68097	-0.41
Mof_O 	O 	0.39667	0.04542	0.68229	-0.42
Mof_N 	N 	0.28618	0.76231	0.4501	-0.233
Mof_C 	C 	0.2466	0.7485	0.4032	0.076
Mof_H 	H 	0.2363	0.7164	0.3781	0.008
Mof_C 	C 	0.2202	0.7792	0.39	-0.12
Mof_C 	C 	0.2343	0.8263	0.4275	0.03
Mof_H 	H 	0.2171	0.8475	0.42	0.035
Mof_C 	C 	0.2748	0.8415	0.477	-0.061
Mof_C 	C 	0.2988	0.8083	0.4857	0.037
Mof_H 	H 	0.3257	0.8185	0.5188	0.007
Mof_C 	C 	0.1755	0.7577	0.3384	0.379
Mof_C 	C 	0.2944	0.8921	0.5203	0.105
Mof_C 	C 	0.2564	0.9071	0.542	-0.147
Mof_H 	H 	0.2195	0.888	0.5271	0.087
Mof_C 	C 	0.2744	0.9521	0.5871	0.064
Mof_H 	H 	0.249	0.9629	0.6014	0.025
Mof_C 	C 	0.3292	0.9804	0.6108	-0.126
Mof_C 	C 	0.3672	0.9664	0.5858	0.071
Mof_H 	H 	0.4046	0.9864	0.5989	0.027
Mof_C 	C 	0.3495	0.9224	0.541	-0.15
Mof_H 	H 	0.3754	0.9132	0.5245	0.091
Mof_C 	C 	0.3478	0.0264	0.6624	0.378
Mof_C 	C 	0.2963	0.6099	0.7115	-0.065
Mof_H 	H 	0.3089	0.5848	0.6955	0.043
Mof_H 	H 	0.2584	0.5962	0.6955	0.041
Mof_I 	I 	0.77328	0.3658	0.04931	-0.565
Mof_Cu	Cu	0.71223	0.39476	0.97476	0.715
Mof_O 	O 	0.78863	0.63113	0.81983	-0.41
Mof_O 	O 	0.70897	0.54868	0.81759	-0.41
Mof_O 	O 	0.04092	0.72771	0.18097	-0.41
Mof_O 	O 	0.04542	0.64875	0.18229	-0.42
Mof_N 	N 	0.76231	0.47613	0.9501	-0.232
Mof_C 	C 	0.7485	0.5019	0.9032	0.076
Mof_H 	H 	0.7164	0.4801	0.8781	0.008
Mof_C 	C 	0.7792	0.559	0.89	-0.12
Mof_C 	C 	0.8263	0.592	0.9275	0.03
Mof_H 	H 	0.8475	0.6304	0.92	0.035
Mof_C 	C 	0.8415	0.5667	0.977	-0.061
Mof_C 	C 	0.8083	0.5095	0.9857	0.036
Mof_H 	H 	0.8185	0.4928	0.0188	0.007
Mof_C 	C 	0.7577	0.5822	0.8384	0.379
Mof_C 	C 	0.8921	0.5977	0.0203	0.105
Mof_C 	C 	0.9071	0.6507	0.042	-0.147
Mof_H 	H 	0.888	0.6685	0.0271	0.087
Mof_C 	C 	0.9521	0.6777	0.0871	0.064
Mof_H 	H 	0.9629	0.7139	0.1014	0.025
Mof_C 	C 	0.9804	0.6512	0.1108	-0.125
Mof_C 	C 	0.9664	0.5992	0.0858	0.071
Mof_H 	H 	0.9864	0.5818	0.0989	0.027
Mof_C 	C 	0.9224	0.5729	0.041	-0.15
Mof_H 	H 	0.9132	0.5378	0.0245	0.091
Mof_C 	C 	0.0264	0.6786	0.1624	0.378
Mof_C 	C 	0.6099	0.3136	0.2115	-0.065
Mof_H 	H 	0.5848	0.2759	0.1955	0.043
Mof_H 	H 	0.5962	0.3378	0.1955	0.041
Mof_I 	I 	0.6342	0.40748	0.04931	-0.565
Mof_Cu	Cu	0.60524	0.31747	0.97476	0.715
Mof_O 	O 	0.36887	0.1575	0.81983	-0.41
Mof_O 	O 	0.45132	0.16029	0.81759	-0.41
Mof_O 	O 	0.27229	0.31321	0.18097	-0.41
Mof_O 	O 	0.35125	0.39667	0.18229	-0.42
Mof_N 	N 	0.52387	0.28618	0.9501	-0.233
Mof_C 	C 	0.4981	0.2466	0.9032	0.076
Mof_H 	H 	0.5199	0.2363	0.8781	0.008
Mof_C 	C 	0.441	0.2202	0.89	-0.12
Mof_C 	C 	0.408	0.2343	0.9275	0.03
Mof_H 	H 	0.3696	0.2171	0.92	0.035
Mof_C 	C 	0.4333	0.2748	0.977	-0.061
Mof_C 	C 	0.4905	0.2988	0.9857	0.037
Mof_H 	H 	0.5072	0.3257	0.0188	0.007
Mof_C 	C 	0.4178	0.1755	0.8384	0.379
Mof_C 	C 	0.4023	0.2944	0.0203	0.105
Mof_C 	C 	0.3493	0.2564	0.042	-0.147
Mof_H 	H 	0.3315	0.2195	0.0271	0.087
Mof_C 	C 	0.3223	0.2744	0.0871	0.064
Mof_H 	H 	0.2861	0.249	0.1014	0.025
Mof_C 	C 	0.3488	0.3292	0.1108	-0.126
Mof_C 	C 	0.4008	0.3672	0.0858	0.071
Mof_H 	H 	0.4182	0.4046	0.0989	0.027
Mof_C 	C 	0.4271	0.3495	0.041	-0.151
Mof_H 	H 	0.4622	0.3754	0.0245	0.091
Mof_C 	C 	0.3214	0.3478	0.1624	0.378
Mof_C 	C 	0.6864	0.2963	0.2115	-0.065
Mof_H 	H 	0.7241	0.3089	0.1955	0.043
Mof_H 	H 	0.6622	0.2584	0.1955	0.041
Mof_I 	I 	0.59252	0.22672	0.04931	-0.565
Mof_Cu	Cu	0.68253	0.28777	0.97476	0.715
Mof_O 	O 	0.8425	0.21137	0.81983	-0.41
Mof_O 	O 	0.83971	0.29103	0.81759	-0.41
Mof_O 	O 	0.68679	0.95908	0.18097	-0.41
Mof_O 	O 	0.60333	0.95458	0.18229	-0.42
Mof_N 	N 	0.71382	0.23769	0.9501	-0.232
Mof_C 	C 	0.7534	0.2515	0.9032	0.076
Mof_H 	H 	0.7637	0.2836	0.8781	0.008
Mof_C 	C 	0.7798	0.2208	0.89	-0.121
Mof_C 	C 	0.7657	0.1737	0.9275	0.03
Mof_H 	H 	0.7829	0.1525	0.92	0.035
Mof_C 	C 	0.7252	0.1585	0.977	-0.062
Mof_C 	C 	0.7012	0.1917	0.9857	0.036
Mof_H 	H 	0.6743	0.1815	0.0188	0.008
Mof_C 	C 	0.8245	0.2423	0.8384	0.379
Mof_C 	C 	0.7056	0.1079	0.0203	0.106
Mof_C 	C 	0.7436	0.0929	0.042	-0.148
Mof_H 	H 	0.7805	0.112	0.0271	0.088
Mof_C 	C 	0.7256	0.0479	0.0871	0.064
Mof_H 	H 	0.751	0.0371	0.1014	0.025
Mof_C 	C 	0.6708	0.0196	0.1108	-0.125
Mof_C 	C 	0.6328	0.0336	0.0858	0.071
Mof_H 	H 	0.5954	0.0136	0.0989	0.027
Mof_C 	C 	0.6505	0.0776	0.041	-0.151
Mof_H 	H 	0.6246	0.0868	0.0245	0.092
Mof_C 	C 	0.6522	0.9736	0.1624	0.378
Mof_C 	C 	0.7037	0.3901	0.2115	-0.065
Mof_H 	H 	0.6911	0.4152	0.1955	0.043
Mof_H 	H 	0.7416	0.4038	0.1955	0.041
Mof_I 	I 	0.77328	0.3658	0.45069	-0.566
Mof_Cu	Cu	0.71223	0.39476	0.52524	0.716
Mof_O 	O 	0.78863	0.63113	0.68017	-0.41
Mof_O 	O 	0.70897	0.54868	0.68241	-0.41
Mof_O 	O 	0.04092	0.72771	0.31903	-0.41
Mof_O 	O 	0.04542	0.64875	0.31771	-0.42
Mof_N 	N 	0.76231	0.47613	0.5499	-0.233
Mof_C 	C 	0.7485	0.5019	0.5968	0.076
Mof_H 	H 	0.7164	0.4801	0.6219	0.008
Mof_C 	C 	0.7792	0.559	0.61	-0.12
Mof_C 	C 	0.8263	0.592	0.5725	0.03
Mof_H 	H 	0.8475	0.6304	0.58	0.035
Mof_C 	C 	0.8415	0.5667	0.523	-0.061
Mof_C 	C 	0.8083	0.5095	0.5143	0.037
Mof_H 	H 	0.8185	0.4928	0.4812	0.007
Mof_C 	C 	0.7577	0.5822	0.6616	0.379
Mof_C 	C 	0.8921	0.5977	0.4797	0.105
Mof_C 	C 	0.9071	0.6507	0.458	-0.147
Mof_H 	H 	0.888	0.6685	0.4729	0.087
Mof_C 	C 	0.9521	0.6777	0.4129	0.064
Mof_H 	H 	0.9629	0.7139	0.3986	0.025
Mof_C 	C 	0.9804	0.6512	0.3892	-0.125
Mof_C 	C 	0.9664	0.5992	0.4142	0.071
Mof_H 	H 	0.9864	0.5818	0.4011	0.027
Mof_C 	C 	0.9224	0.5729	0.459	-0.15
Mof_H 	H 	0.9132	0.5378	0.4755	0.091
Mof_C 	C 	0.0264	0.6786	0.3376	0.378
Mof_C 	C 	0.6099	0.3136	0.2885	-0.065
Mof_H 	H 	0.5848	0.2759	0.3045	0.043
Mof_H 	H 	0.5962	0.3378	0.3045	0.041
Mof_I 	I 	0.6342	0.40748	0.45069	-0.566
Mof_Cu	Cu	0.60524	0.31747	0.52524	0.716
Mof_O 	O 	0.36887	0.1575	0.68017	-0.41
Mof_O 	O 	0.45132	0.16029	0.68241	-0.41
Mof_O 	O 	0.27229	0.31321	0.31903	-0.41
Mof_O 	O 	0.35125	0.39667	0.31771	-0.42
Mof_N 	N 	0.52387	0.28618	0.5499	-0.233
Mof_C 	C 	0.4981	0.2466	0.5968	0.076
Mof_H 	H 	0.5199	0.2363	0.6219	0.008
Mof_C 	C 	0.441	0.2202	0.61	-0.12
Mof_C 	C 	0.408	0.2343	0.5725	0.03
Mof_H 	H 	0.3696	0.2171	0.58	0.035
Mof_C 	C 	0.4333	0.2748	0.523	-0.061
Mof_C 	C 	0.4905	0.2988	0.5143	0.037
Mof_H 	H 	0.5072	0.3257	0.4812	0.007
Mof_C 	C 	0.4178	0.1755	0.6616	0.379
Mof_C 	C 	0.4023	0.2944	0.4797	0.105
Mof_C 	C 	0.3493	0.2564	0.458	-0.147
Mof_H 	H 	0.3315	0.2195	0.4729	0.087
Mof_C 	C 	0.3223	0.2744	0.4129	0.064
Mof_H 	H 	0.2861	0.249	0.3986	0.025
Mof_C 	C 	0.3488	0.3292	0.3892	-0.126
Mof_C 	C 	0.4008	0.3672	0.4142	0.071
Mof_H 	H 	0.4182	0.4046	0.4011	0.027
Mof_C 	C 	0.4271	0.3495	0.459	-0.15
Mof_H 	H 	0.4622	0.3754	0.4755	0.091
Mof_C 	C 	0.3214	0.3478	0.3376	0.378
Mof_C 	C 	0.6864	0.2963	0.2885	-0.065
Mof_H 	H 	0.7241	0.3089	0.3045	0.043
Mof_H 	H 	0.6622	0.2584	0.3045	0.041
Mof_I 	I 	0.59252	0.22672	0.45069	-0.566
Mof_Cu	Cu	0.68253	0.28777	0.52524	0.716
Mof_O 	O 	0.8425	0.21137	0.68017	-0.41
Mof_O 	O 	0.83971	0.29103	0.68241	-0.41
Mof_O 	O 	0.68679	0.95908	0.31903	-0.41
Mof_O 	O 	0.60333	0.95458	0.31771	-0.42
Mof_N 	N 	0.71382	0.23769	0.5499	-0.233
Mof_C 	C 	0.7534	0.2515	0.5968	0.076
Mof_H 	H 	0.7637	0.2836	0.6219	0.008
Mof_C 	C 	0.7798	0.2208	0.61	-0.12
Mof_C 	C 	0.7657	0.1737	0.5725	0.03
Mof_H 	H 	0.7829	0.1525	0.58	0.035
Mof_C 	C 	0.7252	0.1585	0.523	-0.061
Mof_C 	C 	0.7012	0.1917	0.5143	0.037
Mof_H 	H 	0.6743	0.1815	0.4812	0.007
Mof_C 	C 	0.8245	0.2423	0.6616	0.379
Mof_C 	C 	0.7056	0.1079	0.4797	0.105
Mof_C 	C 	0.7436	0.0929	0.458	-0.147
Mof_H 	H 	0.7805	0.112	0.4729	0.087
Mof_C 	C 	0.7256	0.0479	0.4129	0.064
Mof_H 	H 	0.751	0.0371	0.3986	0.025
Mof_C 	C 	0.6708	0.0196	0.3892	-0.126
Mof_C 	C 	0.6328	0.0336	0.4142	0.071
Mof_H 	H 	0.5954	0.0136	0.4011	0.027
Mof_C 	C 	0.6505	0.0776	0.459	-0.15
Mof_H 	H 	0.6246	0.0868	0.4755	0.091
Mof_C 	C 	0.6522	0.9736	0.3376	0.378
Mof_C 	C 	0.7037	0.3901	0.2885	-0.065
Mof_H 	H 	0.6911	0.4152	0.3045	0.043
Mof_H 	H 	0.7416	0.4038	0.3045	0.041
Mof_I 	I 	0.22672	0.6342	0.95069	-0.565
Mof_Cu	Cu	0.28777	0.60524	0.02524	0.715
Mof_O 	O 	0.21137	0.36887	0.18017	-0.41
Mof_O 	O 	0.29103	0.45132	0.18241	-0.41
Mof_O 	O 	0.95908	0.27229	0.81903	-0.41
Mof_O 	O 	0.95458	0.35125	0.81771	-0.42
Mof_N 	N 	0.23769	0.52387	0.0499	-0.232
Mof_C 	C 	0.2515	0.4981	0.0968	0.076
Mof_H 	H 	0.2836	0.5199	0.1219	0.008
Mof_C 	C 	0.2208	0.441	0.11	-0.12
Mof_C 	C 	0.1737	0.408	0.0725	0.03
Mof_H 	H 	0.1525	0.3696	0.08	0.035
Mof_C 	C 	0.1585	0.4333	0.023	-0.061
Mof_C 	C 	0.1917	0.4905	0.0143	0.036
Mof_H 	H 	0.1815	0.5072	0.9812	0.007
Mof_C 	C 	0.2423	0.4178	0.1616	0.379
Mof_C 	C 	0.1079	0.4023	0.9797	0.105
Mof_C 	C 	0.0929	0.3493	0.958	-0.147
Mof_H 	H 	0.112	0.3315	0.9729	0.087
Mof_C 	C 	0.0479	0.3223	0.9129	0.064
Mof_H 	H 	0.0371	0.2861	0.8986	0.025
Mof_C 	C 	0.0196	0.3488	0.8892	-0.125
Mof_C 	C 	0.0336	0.4008	0.9142	0.071
Mof_H 	H 	0.0136	0.4182	0.9011	0.027
Mof_C 	C 	0.0776	0.4271	0.959	-0.15
Mof_H 	H 	0.0868	0.4622	0.9755	0.091
Mof_C 	C 	0.9736	0.3214	0.8376	0.378
Mof_C 	C 	0.3901	0.6864	0.7885	-0.065
Mof_H 	H 	0.4152	0.7241	0.8045	0.043
Mof_H 	H 	0.4038	0.6622	0.8045	0.041
Mof_I 	I 	0.3658	0.59252	0.95069	-0.565
Mof_Cu	Cu	0.39476	0.68253	0.02524	0.715
Mof_O 	O 	0.63113	0.8425	0.18017	-0.41
Mof_O 	O 	0.54868	0.83971	0.18241	-0.41
Mof_O 	O 	0.72771	0.68679	0.81903	-0.41
Mof_O 	O 	0.64875	0.60333	0.81771	-0.42
Mof_N 	N 	0.47613	0.71382	0.0499	-0.233
Mof_C 	C 	0.5019	0.7534	0.0968	0.076
Mof_H 	H 	0.4801	0.7637	0.1219	0.008
Mof_C 	C 	0.559	0.7798	0.11	-0.12
Mof_C 	C 	0.592	0.7657	0.0725	0.03
Mof_H 	H 	0.6304	0.7829	0.08	0.035
Mof_C 	C 	0.5667	0.7252	0.023	-0.061
Mof_C 	C 	0.5095	0.7012	0.0143	0.037
Mof_H 	H 	0.4928	0.6743	0.9812	0.007
Mof_C 	C 	0.5822	0.8245	0.1616	0.379
Mof_C 	C 	0.5977	0.7056	0.9797	0.105
Mof_C 	C 	0.6507	0.7436	0.958	-0.147
Mof_H 	H 	0.6685	0.7805	0.9729	0.087
Mof_C 	C 	0.6777	0.7256	0.9129	0.064
Mof_H 	H 	0.7139	0.751	0.8986	0.025
Mof_C 	C 	0.6512	0.6708	0.8892	-0.126
Mof_C 	C 	0.5992	0.6328	0.9142	0.071
Mof_H 	H 	0.5818	0.5954	0.9011	0.027
Mof_C 	C 	0.5729	0.6505	0.959	-0.151
Mof_H 	H 	0.5378	0.6246	0.9755	0.091
Mof_C 	C 	0.6786	0.6522	0.8376	0.378
Mof_C 	C 	0.3136	0.7037	0.7885	-0.065
Mof_H 	H 	0.2759	0.6911	0.8045	0.043
Mof_H 	H 	0.3378	0.7416	0.8045	0.041
Mof_I 	I 	0.40748	0.77328	0.95069	-0.565
Mof_Cu	Cu	0.31747	0.71223	0.02524	0.715
Mof_O 	O 	0.1575	0.78863	0.18017	-0.41
Mof_O 	O 	0.16029	0.70897	0.18241	-0.41
Mof_O 	O 	0.31321	0.04092	0.81903	-0.41
Mof_O 	O 	0.39667	0.04542	0.81771	-0.42
Mof_N 	N 	0.28618	0.76231	0.0499	-0.232
Mof_C 	C 	0.2466	0.7485	0.0968	0.076
Mof_H 	H 	0.2363	0.7164	0.1219	0.008
Mof_C 	C 	0.2202	0.7792	0.11	-0.121
Mof_C 	C 	0.2343	0.8263	0.0725	0.03
Mof_H 	H 	0.2171	0.8475	0.08	0.035
Mof_C 	C 	0.2748	0.8415	0.023	-0.062
Mof_C 	C 	0.2988	0.8083	0.0143	0.036
Mof_H 	H 	0.3257	0.8185	0.9812	0.008
Mof_C 	C 	0.1755	0.7577	0.1616	0.379
Mof_C 	C 	0.2944	0.8921	0.9797	0.106
Mof_C 	C 	0.2564	0.9071	0.958	-0.148
Mof_H 	H 	0.2195	0.888	0.9729	0.088
Mof_C 	C 	0.2744	0.9521	0.9129	0.064
Mof_H 	H 	0.249	0.9629	0.8986	0.025
Mof_C 	C 	0.3292	0.9804	0.8892	-0.125
Mof_C 	C 	0.3672	0.9664	0.9142	0.071
Mof_H 	H 	0.4046	0.9864	0.9011	0.027
Mof_C 	C 	0.3495	0.9224	0.959	-0.151
Mof_H 	H 	0.3754	0.9132	0.9755	0.092
Mof_C 	C 	0.3478	0.0264	0.8376	0.378
Mof_C 	C 	0.2963	0.6099	0.7885	-0.065
Mof_H 	H 	0.3089	0.5848	0.8045	0.043
Mof_H 	H 	0.2584	0.5962	0.8045	0.041
Mof_I 	I 	0.33333	0.66667	0.36496	-0.559
Mof_Cu	Cu	0.33333	0.66667	0.58258	0.715
Mof_N 	N 	0.33333	0.66667	0.6854	-0.175
Mof_I 	I 	0.66667	0.33333	0.86496	-0.559
Mof_Cu	Cu	0.66667	0.33333	0.08258	0.715
Mof_N 	N 	0.66667	0.33333	0.1854	-0.175
Mof_I 	I 	0.66667	0.33333	0.63504	-0.559
Mof_Cu	Cu	0.66667	0.33333	0.41742	0.715
Mof_N 	N 	0.66667	0.33333	0.3146	-0.175
Mof_I 	I 	0.33333	0.66667	0.13504	-0.559
Mof_Cu	Cu	0.33333	0.66667	0.91742	0.715
Mof_N 	N 	0.33333	0.66667	0.8146	-0.175
Mof_Cu	Cu	0.23443	0.33287	0.25	0.9
Mof_Cu	Cu	0.32881	0.43117	0.25	0.91
Mof_Cu	Cu	0.66713	0.90156	0.25	0.9
Mof_Cu	Cu	0.56883	0.89764	0.25	0.91
Mof_Cu	Cu	0.09844	0.76557	0.25	0.9
Mof_Cu	Cu	0.10236	0.67119	0.25	0.91
Mof_Cu	Cu	0.76557	0.66713	0.75	0.9
Mof_Cu	Cu	0.67119	0.56883	0.75	0.91
Mof_Cu	Cu	0.33287	0.09844	0.75	0.9
Mof_Cu	Cu	0.43117	0.10236	0.75	0.91
Mof_Cu	Cu	0.90156	0.23443	0.75	0.9
Mof_Cu	Cu	0.89764	0.32881	0.75	0.91
_end
