data_functionalizedCrystal
_audit_creation_method	'EQeq! by Chris Wilmer'
_symmetry_space_group_name_H-M	'P1'
_symmetry_Int_Tables_number	1
_symmetry_cell_setting	triclinic
loop_
_symmetry_equiv_pos_as_xyz
  x,y,z
_cell_length_a	15.5006
_cell_length_b	15.5006
_cell_length_c	18.3368
_cell_angle_alpha	115.003
_cell_angle_beta	115.003
_cell_angle_gamma	90
loop_
_atom_site_label
_atom_site_type_symbol
_atom_site_fract_x
_atom_site_fract_y
_atom_site_fract_z
_atom_site_charge
Mof_Cu	Cu	0.88418	0.88418	-0	0.73
Mof_Cu	Cu	0.11582	0.11582	-0	0.794
Mof_Cu	Cu	0.88418	0.11582	-0	0.764
Mof_Cu	Cu	0.11582	0.88418	-0	0.764
Mof_Cu	Cu	0.88316	0.88316	0.18952	0.676
Mof_Cu	Cu	0.30636	0.30636	0.18952	0.723
Mof_Cu	Cu	0.88316	0.30636	0.18952	0.701
Mof_Cu	Cu	0.30636	0.88316	0.18952	0.701
Mof_Cu	Cu	0.69364	0.11684	0.81048	0.767
Mof_Cu	Cu	0.11684	0.69364	0.81048	0.767
Mof_Cu	Cu	0.69364	0.69364	0.81048	0.747
Mof_Cu	Cu	0.11684	0.11684	0.81048	0.783
Mof_H 	H 	0.0229	0.8372	0.303	-0.102
Mof_H 	H 	0.0825	0.801	0.4218	0.089
Mof_H 	H 	0.2801	0.4658	0.303	-0.109
Mof_H 	H 	0.3393	0.6208	0.4218	0.083
Mof_H 	H 	0.8372	0.2801	0.303	-0.117
Mof_H 	H 	0.801	0.3393	0.4218	0.081
Mof_H 	H 	0.4658	0.0229	0.303	-0.095
Mof_H 	H 	0.6208	0.0825	0.4218	0.091
Mof_H 	H 	0.7199	0.1628	0.697	-0.095
Mof_H 	H 	0.6607	0.199	0.5782	0.095
Mof_H 	H 	0.9771	0.5342	0.697	-0.117
Mof_H 	H 	0.9175	0.3792	0.5782	0.085
Mof_H 	H 	0.5342	0.7199	0.697	-0.102
Mof_H 	H 	0.3792	0.6607	0.5782	0.093
Mof_H 	H 	0.1628	0.9771	0.697	-0.109
Mof_H 	H 	0.199	0.9175	0.5782	0.087
Mof_H 	H 	0.9771	0.1628	0.697	-0.109
Mof_H 	H 	0.9175	0.199	0.5782	0.087
Mof_H 	H 	0.7199	0.5342	0.697	-0.102
Mof_H 	H 	0.6607	0.3792	0.5782	0.093
Mof_H 	H 	0.1628	0.7199	0.697	-0.095
Mof_H 	H 	0.199	0.6607	0.5782	0.095
Mof_H 	H 	0.5342	0.9771	0.697	-0.117
Mof_H 	H 	0.3792	0.9175	0.5782	0.085
Mof_H 	H 	0.2801	0.8372	0.303	-0.117
Mof_H 	H 	0.3393	0.801	0.4218	0.081
Mof_H 	H 	0.0229	0.4658	0.303	-0.095
Mof_H 	H 	0.0825	0.6208	0.4218	0.091
Mof_H 	H 	0.4658	0.2801	0.303	-0.109
Mof_H 	H 	0.6208	0.3393	0.4218	0.083
Mof_H 	H 	0.8372	0.0229	0.303	-0.102
Mof_H 	H 	0.801	0.0825	0.4218	0.089
Mof_C 	C 	0.08663	0.82893	0.32606	0.121
Mof_C 	C 	0.12264	0.80704	0.39748	-0.25
Mof_C 	C 	0.23943	0.49713	0.32606	0.121
Mof_C 	C 	0.27484	0.59044	0.39748	-0.248
Mof_C 	C 	0.82893	0.23943	0.32606	0.121
Mof_C 	C 	0.80704	0.27484	0.39748	-0.253
Mof_C 	C 	0.49713	0.08663	0.32606	0.122
Mof_C 	C 	0.59044	0.12264	0.39748	-0.245
Mof_C 	C 	0.76057	0.17107	0.67394	0.129
Mof_C 	C 	0.72516	0.19296	0.60252	-0.247
Mof_C 	C 	0.91337	0.50287	0.67394	0.129
Mof_C 	C 	0.87736	0.40956	0.60252	-0.255
Mof_C 	C 	0.50287	0.76057	0.67394	0.129
Mof_C 	C 	0.40956	0.72516	0.60252	-0.253
Mof_C 	C 	0.17107	0.91337	0.67394	0.129
Mof_C 	C 	0.19296	0.87736	0.60252	-0.249
Mof_C 	C 	0.91337	0.17107	0.67394	0.129
Mof_C 	C 	0.87736	0.19296	0.60252	-0.249
Mof_C 	C 	0.76057	0.50287	0.67394	0.129
Mof_C 	C 	0.72516	0.40956	0.60252	-0.253
Mof_C 	C 	0.17107	0.76057	0.67394	0.129
Mof_C 	C 	0.19296	0.72516	0.60252	-0.247
Mof_C 	C 	0.50287	0.91337	0.67394	0.129
Mof_C 	C 	0.40956	0.87736	0.60252	-0.255
Mof_C 	C 	0.23943	0.82893	0.32606	0.121
Mof_C 	C 	0.27484	0.80704	0.39748	-0.253
Mof_C 	C 	0.08663	0.49713	0.32606	0.122
Mof_C 	C 	0.12264	0.59044	0.39748	-0.245
Mof_C 	C 	0.49713	0.23943	0.32606	0.121
Mof_C 	C 	0.59044	0.27484	0.39748	-0.248
Mof_C 	C 	0.82893	0.08663	0.32606	0.121
Mof_C 	C 	0.80704	0.12264	0.39748	-0.25
Mof_C 	C 	0.10392	0.85472	0.20784	0.126
Mof_C 	C 	0.14427	0.83877	0.28854	-0.204
Mof_C 	C 	0.21686	0.79386	0.43372	0.17
Mof_C 	C 	0.10392	0.35312	0.20784	0.133
Mof_C 	C 	0.14427	0.44977	0.28854	-0.197
Mof_C 	C 	0.21686	0.63986	0.43372	0.17
Mof_C 	C 	0.85472	0.10392	0.20784	0.126
Mof_C 	C 	0.83877	0.14427	0.28854	-0.204
Mof_C 	C 	0.79386	0.21686	0.43372	0.17
Mof_C 	C 	0.35312	0.10392	0.20784	0.133
Mof_C 	C 	0.44977	0.14427	0.28854	-0.197
Mof_C 	C 	0.63986	0.21686	0.43372	0.17
Mof_C 	C 	0.89608	0.14528	0.79216	0.143
Mof_C 	C 	0.85573	0.16123	0.71146	-0.198
Mof_C 	C 	0.78314	0.20614	0.56628	0.173
Mof_C 	C 	0.89608	0.64688	0.79216	0.136
Mof_C 	C 	0.85573	0.55023	0.71146	-0.206
Mof_C 	C 	0.78314	0.36014	0.56628	0.173
Mof_C 	C 	0.64688	0.89608	0.79216	0.136
Mof_C 	C 	0.55023	0.85573	0.71146	-0.206
Mof_C 	C 	0.36014	0.78314	0.56628	0.173
Mof_C 	C 	0.14528	0.89608	0.79216	0.143
Mof_C 	C 	0.16123	0.85573	0.71146	-0.198
Mof_C 	C 	0.20614	0.78314	0.56628	0.173
Mof_C 	C 	0.25	0.75	0.5	-0.21
Mof_C 	C 	0.75	0.25	0.5	-0.21
Mof_N 	N 	0.00513	0.87128	0.09568	-0.182
Mof_N 	N 	0.01108	0.86108	0.16602	-0.226
Mof_N 	N 	0.09055	0.2244	0.09568	-0.185
Mof_N 	N 	0.15494	0.30494	0.16602	-0.234
Mof_N 	N 	0.87128	0.09055	0.09568	-0.196
Mof_N 	N 	0.86108	0.15494	0.16602	-0.241
Mof_N 	N 	0.2244	0.00513	0.09568	-0.172
Mof_N 	N 	0.30494	0.01108	0.16602	-0.22
Mof_N 	N 	0.90945	0.12872	0.90432	-0.142
Mof_N 	N 	0.84506	0.13892	0.83398	-0.218
Mof_N 	N 	0.99487	0.7756	0.90432	-0.164
Mof_N 	N 	0.98892	0.69506	0.83398	-0.238
Mof_N 	N 	0.7756	0.90945	0.90432	-0.15
Mof_N 	N 	0.69506	0.84506	0.83398	-0.224
Mof_N 	N 	0.12872	0.99487	0.90432	-0.155
Mof_N 	N 	0.13892	0.98892	0.83398	-0.231
Mof_N 	N 	0.99487	0.12872	0.90432	-0.155
Mof_N 	N 	0.98892	0.13892	0.83398	-0.231
Mof_N 	N 	0.90945	0.7756	0.90432	-0.15
Mof_N 	N 	0.84506	0.69506	0.83398	-0.224
Mof_N 	N 	0.12872	0.90945	0.90432	-0.142
Mof_N 	N 	0.13892	0.84506	0.83398	-0.218
Mof_N 	N 	0.7756	0.99487	0.90432	-0.164
Mof_N 	N 	0.69506	0.98892	0.83398	-0.238
Mof_N 	N 	0.09055	0.87128	0.09568	-0.196
Mof_N 	N 	0.15494	0.86108	0.16602	-0.241
Mof_N 	N 	0.00513	0.2244	0.09568	-0.172
Mof_N 	N 	0.01108	0.30494	0.16602	-0.22
Mof_N 	N 	0.2244	0.09055	0.09568	-0.185
Mof_N 	N 	0.30494	0.15494	0.16602	-0.234
Mof_N 	N 	0.87128	0.00513	0.09568	-0.182
Mof_N 	N 	0.86108	0.01108	0.16602	-0.226
Mof_Cl	Cl	-0	0	-0	-0.697
_end
