data_functionalizedCrystal
_audit_creation_method	'EQeq! by Chris Wilmer'
_symmetry_space_group_name_H-M	'P1'
_symmetry_Int_Tables_number	1
_symmetry_cell_setting	triclinic
loop_
_symmetry_equiv_pos_as_xyz
  x,y,z
_cell_length_a	22.9094
_cell_length_b	22.9094
_cell_length_c	16.3322
_cell_angle_alpha	90
_cell_angle_beta	90
_cell_angle_gamma	90
loop_
_atom_site_label
_atom_site_type_symbol
_atom_site_fract_x
_atom_site_fract_y
_atom_site_fract_z
_atom_site_charge
Mof_Si	Si	0.22091	0.65497	0.76654	1.318
Mof_N 	N 	0.04733	0.70516	0.7849	-0.294
Mof_C 	C 	0.1051	0.6975	0.7944	0.212
Mof_H 	H 	0.1232	0.7156	0.8401	-0.114
Mof_C 	C 	0.1407	0.6646	0.7418	-0.509
Mof_C 	C 	0.1125	0.6402	0.6741	0.217
Mof_H 	H 	0.1344	0.6184	0.6353	-0.118
Mof_C 	C 	0.0531	0.6475	0.6631	-0.223
Mof_H 	H 	0.034	0.6306	0.6172	0.057
Mof_C 	C 	0.022	0.6797	0.72	0.019
Mof_H 	H 	0.9811	0.684	0.7127	0.015
Mof_C 	C 	0.2274	0.6483	0.8794	-1.245
Mof_H 	H 	0.2685	0.6431	0.8943	0.33
Mof_H 	H 	0.2122	0.6838	0.9054	0.338
Mof_H 	H 	0.2048	0.6145	0.8982	0.315
Mof_C 	C 	0.2475	0.5878	0.7152	-1.234
Mof_H 	H 	0.289	0.5822	0.7276	0.309
Mof_H 	H 	0.2252	0.5541	0.7351	0.305
Mof_H 	H 	0.2423	0.5916	0.6559	0.313
Mof_C 	C 	0.2603	0.7212	0.7302	-0.495
Mof_H 	H 	0.2554	0.7243	0.6701	0.1
Mof_H 	H 	0.3025	0.7162	0.7414	0.108
Mof_Si	Si	0.72091	0.15497	0.26654	1.329
Mof_N 	N 	0.54733	0.20516	0.2849	-0.309
Mof_C 	C 	0.6051	0.1975	0.2944	0.223
Mof_H 	H 	0.6232	0.2156	0.3401	-0.116
Mof_C 	C 	0.6407	0.1646	0.2418	-0.528
Mof_C 	C 	0.6125	0.1402	0.1741	0.255
Mof_H 	H 	0.6344	0.1184	0.1353	-0.13
Mof_C 	C 	0.5531	0.1475	0.1631	-0.287
Mof_H 	H 	0.534	0.1306	0.1172	0.093
Mof_C 	C 	0.522	0.1797	0.22	0.133
Mof_H 	H 	0.4811	0.184	0.2127	-0.054
Mof_C 	C 	0.7274	0.1483	0.3794	-1.253
Mof_H 	H 	0.7685	0.1431	0.3943	0.332
Mof_H 	H 	0.7122	0.1838	0.4054	0.34
Mof_H 	H 	0.7048	0.1145	0.3982	0.317
Mof_C 	C 	0.7475	0.0878	0.2152	-1.243
Mof_H 	H 	0.789	0.0822	0.2276	0.314
Mof_H 	H 	0.7252	0.0541	0.2351	0.307
Mof_H 	H 	0.7423	0.0916	0.1559	0.316
Mof_C 	C 	0.7603	0.2212	0.2302	-0.499
Mof_H 	H 	0.7554	0.2243	0.1701	0.102
Mof_H 	H 	0.8025	0.2162	0.2414	0.11
Mof_Si	Si	0.27909	0.34503	0.26654	1.326
Mof_N 	N 	0.45267	0.29484	0.2849	-0.308
Mof_C 	C 	0.3949	0.3025	0.2944	0.223
Mof_H 	H 	0.3768	0.2844	0.3401	-0.116
Mof_C 	C 	0.3593	0.3354	0.2418	-0.527
Mof_C 	C 	0.3875	0.3598	0.1741	0.255
Mof_H 	H 	0.3656	0.3816	0.1353	-0.13
Mof_C 	C 	0.4469	0.3525	0.1631	-0.287
Mof_H 	H 	0.466	0.3694	0.1172	0.093
Mof_C 	C 	0.478	0.3203	0.22	0.133
Mof_H 	H 	0.5189	0.316	0.2127	-0.054
Mof_C 	C 	0.2726	0.3517	0.3794	-1.251
Mof_H 	H 	0.2315	0.3569	0.3943	0.332
Mof_H 	H 	0.2878	0.3162	0.4054	0.34
Mof_H 	H 	0.2952	0.3855	0.3982	0.317
Mof_C 	C 	0.2525	0.4122	0.2152	-1.238
Mof_H 	H 	0.211	0.4178	0.2276	0.309
Mof_H 	H 	0.2748	0.4459	0.2351	0.306
Mof_H 	H 	0.2577	0.4084	0.1559	0.314
Mof_C 	C 	0.2397	0.2788	0.2302	-0.5
Mof_H 	H 	0.2446	0.2757	0.1701	0.102
Mof_H 	H 	0.1975	0.2838	0.2414	0.108
Mof_Si	Si	0.77909	0.84503	0.76654	1.338
Mof_N 	N 	0.95267	0.79484	0.7849	-0.318
Mof_C 	C 	0.8949	0.8025	0.7944	0.235
Mof_H 	H 	0.8768	0.7844	0.8401	-0.117
Mof_C 	C 	0.8593	0.8354	0.7418	-0.546
Mof_C 	C 	0.8875	0.8598	0.6741	0.293
Mof_H 	H 	0.8656	0.8816	0.6353	-0.142
Mof_C 	C 	0.9469	0.8525	0.6631	-0.35
Mof_H 	H 	0.966	0.8694	0.6172	0.129
Mof_C 	C 	0.978	0.8203	0.72	0.247
Mof_H 	H 	0.0189	0.816	0.7127	-0.122
Mof_C 	C 	0.7726	0.8517	0.8794	-1.259
Mof_H 	H 	0.7315	0.8569	0.8943	0.334
Mof_H 	H 	0.7878	0.8162	0.9054	0.342
Mof_H 	H 	0.7952	0.8855	0.8982	0.319
Mof_C 	C 	0.7525	0.9122	0.7152	-1.248
Mof_H 	H 	0.711	0.9178	0.7276	0.313
Mof_H 	H 	0.7748	0.9459	0.7351	0.308
Mof_H 	H 	0.7577	0.9084	0.6559	0.317
Mof_C 	C 	0.7397	0.7788	0.7302	-0.503
Mof_H 	H 	0.7446	0.7757	0.6701	0.102
Mof_H 	H 	0.6975	0.7838	0.7414	0.11
Mof_Si	Si	0.90497	0.97091	0.98346	1.328
Mof_N 	N 	0.95516	0.79733	0.9651	-0.296
Mof_C 	C 	0.9475	0.8551	0.9556	0.228
Mof_H 	H 	0.9656	0.8732	0.9099	-0.106
Mof_C 	C 	0.9146	0.8907	0.0082	-0.521
Mof_C 	C 	0.8902	0.8625	0.0759	0.256
Mof_H 	H 	0.8684	0.8844	0.1147	-0.128
Mof_C 	C 	0.8975	0.8031	0.0869	-0.284
Mof_H 	H 	0.8806	0.784	0.1328	0.093
Mof_C 	C 	0.9297	0.772	0.03	0.138
Mof_H 	H 	0.934	0.7311	0.0373	-0.047
Mof_C 	C 	0.8983	0.9774	0.8706	-1.256
Mof_H 	H 	0.8931	0.0185	0.8557	0.336
Mof_H 	H 	0.9338	0.9622	0.8446	0.349
Mof_H 	H 	0.8645	0.9548	0.8518	0.318
Mof_C 	C 	0.8378	0.9975	0.0348	-1.243
Mof_H 	H 	0.8322	0.039	0.0224	0.313
Mof_H 	H 	0.8041	0.9752	0.0149	0.307
Mof_H 	H 	0.8416	0.9923	0.0941	0.317
Mof_C 	C 	0.9712	0.0103	0.0198	-0.451
Mof_H 	H 	0.9743	0.0054	0.0799	0.105
Mof_H 	H 	0.9662	0.0525	0.0086	0.109
Mof_Si	Si	0.40497	0.47091	0.48346	1.328
Mof_N 	N 	0.45516	0.29733	0.4651	-0.309
Mof_C 	C 	0.4475	0.3551	0.4556	0.223
Mof_H 	H 	0.4656	0.3732	0.4099	-0.116
Mof_C 	C 	0.4146	0.3907	0.5082	-0.528
Mof_C 	C 	0.3902	0.3625	0.5759	0.255
Mof_H 	H 	0.3684	0.3844	0.6147	-0.13
Mof_C 	C 	0.3975	0.3031	0.5869	-0.287
Mof_H 	H 	0.3806	0.284	0.6328	0.093
Mof_C 	C 	0.4297	0.272	0.53	0.133
Mof_H 	H 	0.434	0.2311	0.5373	-0.054
Mof_C 	C 	0.3983	0.4774	0.3706	-1.252
Mof_H 	H 	0.3931	0.5185	0.3557	0.332
Mof_H 	H 	0.4338	0.4622	0.3446	0.34
Mof_H 	H 	0.3645	0.4548	0.3518	0.317
Mof_C 	C 	0.3378	0.4975	0.5348	-1.241
Mof_H 	H 	0.3322	0.539	0.5224	0.311
Mof_H 	H 	0.3041	0.4752	0.5149	0.307
Mof_H 	H 	0.3416	0.4923	0.5941	0.315
Mof_C 	C 	0.4712	0.5103	0.5198	-0.499
Mof_H 	H 	0.4743	0.5054	0.5799	0.102
Mof_H 	H 	0.4662	0.5525	0.5086	0.109
Mof_Si	Si	0.59503	0.02909	0.48346	1.327
Mof_N 	N 	0.54484	0.20267	0.4651	-0.308
Mof_C 	C 	0.5525	0.1449	0.4556	0.223
Mof_H 	H 	0.5344	0.1268	0.4099	-0.116
Mof_C 	C 	0.5854	0.1093	0.5082	-0.528
Mof_C 	C 	0.6098	0.1375	0.5759	0.255
Mof_H 	H 	0.6316	0.1156	0.6147	-0.13
Mof_C 	C 	0.6025	0.1969	0.5869	-0.287
Mof_H 	H 	0.6194	0.216	0.6328	0.093
Mof_C 	C 	0.5703	0.228	0.53	0.133
Mof_H 	H 	0.566	0.2689	0.5373	-0.054
Mof_C 	C 	0.6017	0.0226	0.3706	-1.252
Mof_H 	H 	0.6069	0.9815	0.3557	0.332
Mof_H 	H 	0.5662	0.0378	0.3446	0.34
Mof_H 	H 	0.6355	0.0452	0.3518	0.317
Mof_C 	C 	0.6622	0.0025	0.5348	-1.241
Mof_H 	H 	0.6678	0.961	0.5224	0.311
Mof_H 	H 	0.6959	0.0248	0.5149	0.306
Mof_H 	H 	0.6584	0.0077	0.5941	0.315
Mof_C 	C 	0.5288	0.9897	0.5198	-0.499
Mof_H 	H 	0.5257	0.9946	0.5799	0.101
Mof_H 	H 	0.5338	0.9475	0.5086	0.109
Mof_Si	Si	0.09503	0.52909	0.98346	1.328
Mof_N 	N 	0.04484	0.70267	0.9651	-0.316
Mof_C 	C 	0.0525	0.6449	0.9556	0.219
Mof_H 	H 	0.0344	0.6268	0.9099	-0.125
Mof_C 	C 	0.0854	0.6093	0.0082	-0.535
Mof_C 	C 	0.1098	0.6375	0.0759	0.254
Mof_H 	H 	0.1316	0.6156	0.1147	-0.132
Mof_C 	C 	0.1025	0.6969	0.0869	-0.29
Mof_H 	H 	0.1194	0.716	0.1328	0.093
Mof_C 	C 	0.0703	0.728	0.03	0.128
Mof_H 	H 	0.066	0.7689	0.0373	-0.061
Mof_C 	C 	0.1017	0.5226	0.8706	-1.249
Mof_H 	H 	0.1069	0.4815	0.8557	0.328
Mof_H 	H 	0.0662	0.5378	0.8446	0.332
Mof_H 	H 	0.1355	0.5452	0.8518	0.316
Mof_C 	C 	0.1622	0.5025	0.0348	-1.24
Mof_H 	H 	0.1678	0.461	0.0224	0.31
Mof_H 	H 	0.1959	0.5248	0.0149	0.307
Mof_H 	H 	0.1584	0.5077	0.0941	0.313
Mof_C 	C 	0.0288	0.4897	0.0198	-0.549
Mof_H 	H 	0.0257	0.4946	0.0799	0.098
Mof_H 	H 	0.0338	0.4475	0.0086	0.11
Mof_Si	Si	0.77909	0.34503	0.23346	1.338
Mof_N 	N 	0.95267	0.29484	0.2151	-0.318
Mof_C 	C 	0.8949	0.3025	0.2056	0.235
Mof_H 	H 	0.8768	0.2844	0.1599	-0.118
Mof_C 	C 	0.8593	0.3354	0.2582	-0.546
Mof_C 	C 	0.8875	0.3598	0.3259	0.293
Mof_H 	H 	0.8656	0.3816	0.3647	-0.142
Mof_C 	C 	0.9469	0.3525	0.3369	-0.35
Mof_H 	H 	0.966	0.3694	0.3828	0.129
Mof_C 	C 	0.978	0.3203	0.28	0.247
Mof_H 	H 	0.0189	0.316	0.2873	-0.123
Mof_C 	C 	0.7726	0.3517	0.1206	-1.259
Mof_H 	H 	0.7315	0.3569	0.1057	0.334
Mof_H 	H 	0.7878	0.3162	0.0946	0.342
Mof_H 	H 	0.7952	0.3855	0.1018	0.319
Mof_C 	C 	0.7525	0.4122	0.2848	-1.248
Mof_H 	H 	0.711	0.4178	0.2724	0.313
Mof_H 	H 	0.7748	0.4459	0.2649	0.309
Mof_H 	H 	0.7577	0.4084	0.3441	0.317
Mof_C 	C 	0.7397	0.2788	0.2698	-0.503
Mof_H 	H 	0.7446	0.2757	0.3299	0.103
Mof_H 	H 	0.6975	0.2838	0.2586	0.11
Mof_Si	Si	0.27909	0.84503	0.73346	1.326
Mof_N 	N 	0.45267	0.79484	0.7151	-0.308
Mof_C 	C 	0.3949	0.8025	0.7056	0.223
Mof_H 	H 	0.3768	0.7844	0.6599	-0.116
Mof_C 	C 	0.3593	0.8354	0.7582	-0.527
Mof_C 	C 	0.3875	0.8598	0.8259	0.255
Mof_H 	H 	0.3656	0.8816	0.8647	-0.13
Mof_C 	C 	0.4469	0.8525	0.8369	-0.287
Mof_H 	H 	0.466	0.8694	0.8828	0.093
Mof_C 	C 	0.478	0.8203	0.78	0.133
Mof_H 	H 	0.5189	0.816	0.7873	-0.054
Mof_C 	C 	0.2726	0.8517	0.6206	-1.251
Mof_H 	H 	0.2315	0.8569	0.6057	0.332
Mof_H 	H 	0.2878	0.8162	0.5946	0.34
Mof_H 	H 	0.2952	0.8855	0.6018	0.317
Mof_C 	C 	0.2525	0.9122	0.7848	-1.238
Mof_H 	H 	0.211	0.9178	0.7724	0.309
Mof_H 	H 	0.2748	0.9459	0.7649	0.306
Mof_H 	H 	0.2577	0.9084	0.8441	0.314
Mof_C 	C 	0.2397	0.7788	0.7698	-0.5
Mof_H 	H 	0.2446	0.7757	0.8299	0.102
Mof_H 	H 	0.1975	0.7838	0.7586	0.108
Mof_Si	Si	0.72091	0.65497	0.73346	1.329
Mof_N 	N 	0.54733	0.70516	0.7151	-0.309
Mof_C 	C 	0.6051	0.6975	0.7056	0.223
Mof_H 	H 	0.6232	0.7156	0.6599	-0.116
Mof_C 	C 	0.6407	0.6646	0.7582	-0.528
Mof_C 	C 	0.6125	0.6402	0.8259	0.255
Mof_H 	H 	0.6344	0.6184	0.8647	-0.13
Mof_C 	C 	0.5531	0.6475	0.8369	-0.287
Mof_H 	H 	0.534	0.6306	0.8828	0.093
Mof_C 	C 	0.522	0.6797	0.78	0.133
Mof_H 	H 	0.4811	0.684	0.7873	-0.054
Mof_C 	C 	0.7274	0.6483	0.6206	-1.253
Mof_H 	H 	0.7685	0.6431	0.6057	0.332
Mof_H 	H 	0.7122	0.6838	0.5946	0.34
Mof_H 	H 	0.7048	0.6145	0.6018	0.317
Mof_C 	C 	0.7475	0.5878	0.7848	-1.244
Mof_H 	H 	0.789	0.5822	0.7724	0.314
Mof_H 	H 	0.7252	0.5541	0.7649	0.308
Mof_H 	H 	0.7423	0.5916	0.8441	0.316
Mof_C 	C 	0.7603	0.7212	0.7698	-0.499
Mof_H 	H 	0.7554	0.7243	0.8299	0.102
Mof_H 	H 	0.8025	0.7162	0.7586	0.11
Mof_Si	Si	0.22091	0.15497	0.23346	1.317
Mof_N 	N 	0.04733	0.20516	0.2151	-0.294
Mof_C 	C 	0.1051	0.1975	0.2056	0.212
Mof_H 	H 	0.1232	0.2156	0.1599	-0.114
Mof_C 	C 	0.1407	0.1646	0.2582	-0.509
Mof_C 	C 	0.1125	0.1402	0.3259	0.217
Mof_H 	H 	0.1344	0.1184	0.3647	-0.118
Mof_C 	C 	0.0531	0.1475	0.3369	-0.223
Mof_H 	H 	0.034	0.1306	0.3828	0.057
Mof_C 	C 	0.022	0.1797	0.28	0.02
Mof_H 	H 	0.9811	0.184	0.2873	0.015
Mof_C 	C 	0.2274	0.1483	0.1206	-1.245
Mof_H 	H 	0.2685	0.1431	0.1057	0.33
Mof_H 	H 	0.2122	0.1838	0.0946	0.338
Mof_H 	H 	0.2048	0.1145	0.1018	0.315
Mof_C 	C 	0.2475	0.0878	0.2848	-1.233
Mof_H 	H 	0.289	0.0822	0.2724	0.309
Mof_H 	H 	0.2252	0.0541	0.2649	0.305
Mof_H 	H 	0.2423	0.0916	0.3441	0.313
Mof_C 	C 	0.2603	0.2212	0.2698	-0.495
Mof_H 	H 	0.2554	0.2243	0.3299	0.1
Mof_H 	H 	0.3025	0.2162	0.2586	0.108
Mof_Si	Si	0.09503	0.02909	0.01654	1.328
Mof_N 	N 	0.04484	0.20267	0.0349	-0.316
Mof_C 	C 	0.0525	0.1449	0.0444	0.219
Mof_H 	H 	0.0344	0.1268	0.0901	-0.125
Mof_C 	C 	0.0854	0.1093	0.9918	-0.535
Mof_C 	C 	0.1098	0.1375	0.9241	0.254
Mof_H 	H 	0.1316	0.1156	0.8853	-0.132
Mof_C 	C 	0.1025	0.1969	0.9131	-0.29
Mof_H 	H 	0.1194	0.216	0.8672	0.093
Mof_C 	C 	0.0703	0.228	0.97	0.128
Mof_H 	H 	0.066	0.2689	0.9627	-0.061
Mof_C 	C 	0.1017	0.0226	0.1294	-1.249
Mof_H 	H 	0.1069	0.9815	0.1443	0.328
Mof_H 	H 	0.0662	0.0378	0.1554	0.332
Mof_H 	H 	0.1355	0.0452	0.1482	0.316
Mof_C 	C 	0.1622	0.0025	0.9652	-1.241
Mof_H 	H 	0.1678	0.961	0.9776	0.31
Mof_H 	H 	0.1959	0.0248	0.9851	0.307
Mof_H 	H 	0.1584	0.0077	0.9059	0.313
Mof_C 	C 	0.0288	0.9897	0.9802	-0.548
Mof_H 	H 	0.0257	0.9946	0.9201	0.098
Mof_H 	H 	0.0338	0.9475	0.9914	0.11
Mof_Si	Si	0.59503	0.52909	0.51654	1.327
Mof_N 	N 	0.54484	0.70267	0.5349	-0.309
Mof_C 	C 	0.5525	0.6449	0.5444	0.223
Mof_H 	H 	0.5344	0.6268	0.5901	-0.116
Mof_C 	C 	0.5854	0.6093	0.4918	-0.528
Mof_C 	C 	0.6098	0.6375	0.4241	0.255
Mof_H 	H 	0.6316	0.6156	0.3853	-0.13
Mof_C 	C 	0.6025	0.6969	0.4131	-0.287
Mof_H 	H 	0.6194	0.716	0.3672	0.093
Mof_C 	C 	0.5703	0.728	0.47	0.133
Mof_H 	H 	0.566	0.7689	0.4627	-0.054
Mof_C 	C 	0.6017	0.5226	0.6294	-1.252
Mof_H 	H 	0.6069	0.4815	0.6443	0.332
Mof_H 	H 	0.5662	0.5378	0.6554	0.34
Mof_H 	H 	0.6355	0.5452	0.6482	0.317
Mof_C 	C 	0.6622	0.5025	0.4652	-1.241
Mof_H 	H 	0.6678	0.461	0.4776	0.311
Mof_H 	H 	0.6959	0.5248	0.4851	0.306
Mof_H 	H 	0.6584	0.5077	0.4059	0.315
Mof_C 	C 	0.5288	0.4897	0.4802	-0.499
Mof_H 	H 	0.5257	0.4946	0.4201	0.101
Mof_H 	H 	0.5338	0.4475	0.4914	0.109
Mof_Si	Si	0.40497	0.97091	0.51654	1.328
Mof_N 	N 	0.45516	0.79733	0.5349	-0.309
Mof_C 	C 	0.4475	0.8551	0.5444	0.223
Mof_H 	H 	0.4656	0.8732	0.5901	-0.116
Mof_C 	C 	0.4146	0.8907	0.4918	-0.528
Mof_C 	C 	0.3902	0.8625	0.4241	0.255
Mof_H 	H 	0.3684	0.8844	0.3853	-0.13
Mof_C 	C 	0.3975	0.8031	0.4131	-0.287
Mof_H 	H 	0.3806	0.784	0.3672	0.093
Mof_C 	C 	0.4297	0.772	0.47	0.133
Mof_H 	H 	0.434	0.7311	0.4627	-0.054
Mof_C 	C 	0.3983	0.9774	0.6294	-1.252
Mof_H 	H 	0.3931	0.0185	0.6443	0.332
Mof_H 	H 	0.4338	0.9622	0.6554	0.34
Mof_H 	H 	0.3645	0.9548	0.6482	0.317
Mof_C 	C 	0.3378	0.9975	0.4652	-1.241
Mof_H 	H 	0.3322	0.039	0.4776	0.311
Mof_H 	H 	0.3041	0.9752	0.4851	0.307
Mof_H 	H 	0.3416	0.9923	0.4059	0.315
Mof_C 	C 	0.4712	0.0103	0.4802	-0.499
Mof_H 	H 	0.4743	0.0054	0.4201	0.101
Mof_H 	H 	0.4662	0.0525	0.4914	0.109
Mof_Si	Si	0.90497	0.47091	0.01654	1.328
Mof_N 	N 	0.95516	0.29733	0.0349	-0.296
Mof_C 	C 	0.9475	0.3551	0.0444	0.227
Mof_H 	H 	0.9656	0.3732	0.0901	-0.106
Mof_C 	C 	0.9146	0.3907	0.9918	-0.52
Mof_C 	C 	0.8902	0.3625	0.9241	0.256
Mof_H 	H 	0.8684	0.3844	0.8853	-0.128
Mof_C 	C 	0.8975	0.3031	0.9131	-0.283
Mof_H 	H 	0.8806	0.284	0.8672	0.093
Mof_C 	C 	0.9297	0.272	0.97	0.138
Mof_H 	H 	0.934	0.2311	0.9627	-0.047
Mof_C 	C 	0.8983	0.4774	0.1294	-1.255
Mof_H 	H 	0.8931	0.5185	0.1443	0.336
Mof_H 	H 	0.9338	0.4622	0.1554	0.349
Mof_H 	H 	0.8645	0.4548	0.1482	0.318
Mof_C 	C 	0.8378	0.4975	0.9652	-1.242
Mof_H 	H 	0.8322	0.539	0.9776	0.313
Mof_H 	H 	0.8041	0.4752	0.9851	0.307
Mof_H 	H 	0.8416	0.4923	0.9059	0.317
Mof_C 	C 	0.9712	0.5103	0.9802	-0.45
Mof_H 	H 	0.9743	0.5054	0.9201	0.105
Mof_H 	H 	0.9662	0.5525	0.9914	0.109
Mof_Ni	Ni	8.22875e-33	0.75	0.875	0.986
Mof_Ni	Ni	0.5	0.25	0.375	1.006
Mof_Ni	Ni	-4.02118e-34	0.25	0.125	0.986
Mof_Ni	Ni	0.5	0.75	0.625	1.006
Mof_Si	Si	0.59503	0.97091	0.01654	1.327
Mof_N 	N 	0.54484	0.79733	0.0349	-0.308
Mof_C 	C 	0.5525	0.8551	0.0444	0.223
Mof_H 	H 	0.5344	0.8732	0.0901	-0.116
Mof_C 	C 	0.5854	0.8907	0.9918	-0.527
Mof_C 	C 	0.6098	0.8625	0.9241	0.255
Mof_H 	H 	0.6316	0.8844	0.8853	-0.13
Mof_C 	C 	0.6025	0.8031	0.9131	-0.287
Mof_H 	H 	0.6194	0.784	0.8672	0.093
Mof_C 	C 	0.5703	0.772	0.97	0.133
Mof_H 	H 	0.566	0.7311	0.9627	-0.054
Mof_C 	C 	0.6017	0.9774	0.1294	-1.252
Mof_H 	H 	0.6069	0.0185	0.1443	0.332
Mof_H 	H 	0.5662	0.9622	0.1554	0.34
Mof_H 	H 	0.6355	0.9548	0.1482	0.317
Mof_C 	C 	0.6622	0.9975	0.9652	-1.241
Mof_H 	H 	0.6678	0.039	0.9776	0.311
Mof_H 	H 	0.6959	0.9752	0.9851	0.306
Mof_H 	H 	0.6584	0.9923	0.9059	0.315
Mof_C 	C 	0.5288	0.0103	0.9802	-0.499
Mof_H 	H 	0.5257	0.0054	0.9201	0.101
Mof_H 	H 	0.5338	0.0525	0.9914	0.109
Mof_Si	Si	0.09503	0.47091	0.51654	1.328
Mof_N 	N 	0.04484	0.29733	0.5349	-0.316
Mof_C 	C 	0.0525	0.3551	0.5444	0.219
Mof_H 	H 	0.0344	0.3732	0.5901	-0.125
Mof_C 	C 	0.0854	0.3907	0.4918	-0.535
Mof_C 	C 	0.1098	0.3625	0.4241	0.254
Mof_H 	H 	0.1316	0.3844	0.3853	-0.132
Mof_C 	C 	0.1025	0.3031	0.4131	-0.29
Mof_H 	H 	0.1194	0.284	0.3672	0.093
Mof_C 	C 	0.0703	0.272	0.47	0.128
Mof_H 	H 	0.066	0.2311	0.4627	-0.061
Mof_C 	C 	0.1017	0.4774	0.6294	-1.249
Mof_H 	H 	0.1069	0.5185	0.6443	0.328
Mof_H 	H 	0.0662	0.4622	0.6554	0.332
Mof_H 	H 	0.1355	0.4548	0.6482	0.316
Mof_C 	C 	0.1622	0.4975	0.4652	-1.24
Mof_H 	H 	0.1678	0.539	0.4776	0.31
Mof_H 	H 	0.1959	0.4752	0.4851	0.307
Mof_H 	H 	0.1584	0.4923	0.4059	0.313
Mof_C 	C 	0.0288	0.5103	0.4802	-0.55
Mof_H 	H 	0.0257	0.5054	0.4201	0.099
Mof_H 	H 	0.0338	0.5525	0.4914	0.11
Mof_Si	Si	0.90497	0.02909	0.51654	1.328
Mof_N 	N 	0.95516	0.20267	0.5349	-0.295
Mof_C 	C 	0.9475	0.1449	0.5444	0.228
Mof_H 	H 	0.9656	0.1268	0.5901	-0.106
Mof_C 	C 	0.9146	0.1093	0.4918	-0.52
Mof_C 	C 	0.8902	0.1375	0.4241	0.256
Mof_H 	H 	0.8684	0.1156	0.3853	-0.128
Mof_C 	C 	0.8975	0.1969	0.4131	-0.283
Mof_H 	H 	0.8806	0.216	0.3672	0.093
Mof_C 	C 	0.9297	0.228	0.47	0.138
Mof_H 	H 	0.934	0.2689	0.4627	-0.047
Mof_C 	C 	0.8983	0.0226	0.6294	-1.255
Mof_H 	H 	0.8931	0.9815	0.6443	0.336
Mof_H 	H 	0.9338	0.0378	0.6554	0.349
Mof_H 	H 	0.8645	0.0452	0.6482	0.318
Mof_C 	C 	0.8378	0.0025	0.4652	-1.243
Mof_H 	H 	0.8322	0.961	0.4776	0.313
Mof_H 	H 	0.8041	0.0248	0.4851	0.307
Mof_H 	H 	0.8416	0.0077	0.4059	0.317
Mof_C 	C 	0.9712	0.9897	0.4802	-0.45
Mof_H 	H 	0.9743	0.9946	0.4201	0.105
Mof_H 	H 	0.9662	0.9475	0.4914	0.109
Mof_Si	Si	0.40497	0.52909	0.01654	1.328
Mof_N 	N 	0.45516	0.70267	0.0349	-0.309
Mof_C 	C 	0.4475	0.6449	0.0444	0.223
Mof_H 	H 	0.4656	0.6268	0.0901	-0.116
Mof_C 	C 	0.4146	0.6093	0.9918	-0.528
Mof_C 	C 	0.3902	0.6375	0.9241	0.255
Mof_H 	H 	0.3684	0.6156	0.8853	-0.13
Mof_C 	C 	0.3975	0.6969	0.9131	-0.287
Mof_H 	H 	0.3806	0.716	0.8672	0.093
Mof_C 	C 	0.4297	0.728	0.97	0.133
Mof_H 	H 	0.434	0.7689	0.9627	-0.054
Mof_C 	C 	0.3983	0.5226	0.1294	-1.252
Mof_H 	H 	0.3931	0.4815	0.1443	0.332
Mof_H 	H 	0.4338	0.5378	0.1554	0.34
Mof_H 	H 	0.3645	0.5452	0.1482	0.317
Mof_C 	C 	0.3378	0.5025	0.9652	-1.241
Mof_H 	H 	0.3322	0.461	0.9776	0.311
Mof_H 	H 	0.3041	0.5248	0.9851	0.307
Mof_H 	H 	0.3416	0.5077	0.9059	0.315
Mof_C 	C 	0.4712	0.4897	0.9802	-0.5
Mof_H 	H 	0.4743	0.4946	0.9201	0.102
Mof_H 	H 	0.4662	0.4475	0.9914	0.109
Mof_Si	Si	0.27909	0.65497	0.23346	1.326
Mof_N 	N 	0.45267	0.70516	0.2151	-0.308
Mof_C 	C 	0.3949	0.6975	0.2056	0.223
Mof_H 	H 	0.3768	0.7156	0.1599	-0.116
Mof_C 	C 	0.3593	0.6646	0.2582	-0.527
Mof_C 	C 	0.3875	0.6402	0.3259	0.255
Mof_H 	H 	0.3656	0.6184	0.3647	-0.13
Mof_C 	C 	0.4469	0.6475	0.3369	-0.287
Mof_H 	H 	0.466	0.6306	0.3828	0.093
Mof_C 	C 	0.478	0.6797	0.28	0.133
Mof_H 	H 	0.5189	0.684	0.2873	-0.054
Mof_C 	C 	0.2726	0.6483	0.1206	-1.251
Mof_H 	H 	0.2315	0.6431	0.1057	0.332
Mof_H 	H 	0.2878	0.6838	0.0946	0.34
Mof_H 	H 	0.2952	0.6145	0.1018	0.317
Mof_C 	C 	0.2525	0.5878	0.2848	-1.238
Mof_H 	H 	0.211	0.5822	0.2724	0.309
Mof_H 	H 	0.2748	0.5541	0.2649	0.306
Mof_H 	H 	0.2577	0.5916	0.3441	0.314
Mof_C 	C 	0.2397	0.7212	0.2698	-0.5
Mof_H 	H 	0.2446	0.7243	0.3299	0.101
Mof_H 	H 	0.1975	0.7162	0.2586	0.108
Mof_Si	Si	0.77909	0.15497	0.73346	1.338
Mof_N 	N 	0.95267	0.20516	0.7151	-0.318
Mof_C 	C 	0.8949	0.1975	0.7056	0.234
Mof_H 	H 	0.8768	0.2156	0.6599	-0.117
Mof_C 	C 	0.8593	0.1646	0.7582	-0.546
Mof_C 	C 	0.8875	0.1402	0.8259	0.293
Mof_H 	H 	0.8656	0.1184	0.8647	-0.142
Mof_C 	C 	0.9469	0.1475	0.8369	-0.35
Mof_H 	H 	0.966	0.1306	0.8828	0.129
Mof_C 	C 	0.978	0.1797	0.78	0.246
Mof_H 	H 	0.0189	0.184	0.7873	-0.122
Mof_C 	C 	0.7726	0.1483	0.6206	-1.259
Mof_H 	H 	0.7315	0.1431	0.6057	0.334
Mof_H 	H 	0.7878	0.1838	0.5946	0.342
Mof_H 	H 	0.7952	0.1145	0.6018	0.319
Mof_C 	C 	0.7525	0.0878	0.7848	-1.248
Mof_H 	H 	0.711	0.0822	0.7724	0.313
Mof_H 	H 	0.7748	0.0541	0.7649	0.308
Mof_H 	H 	0.7577	0.0916	0.8441	0.317
Mof_C 	C 	0.7397	0.2212	0.7698	-0.503
Mof_H 	H 	0.7446	0.2243	0.8299	0.102
Mof_H 	H 	0.6975	0.2162	0.7586	0.11
Mof_Si	Si	0.22091	0.34503	0.73346	1.317
Mof_N 	N 	0.04733	0.29484	0.7151	-0.294
Mof_C 	C 	0.1051	0.3025	0.7056	0.212
Mof_H 	H 	0.1232	0.2844	0.6599	-0.114
Mof_C 	C 	0.1407	0.3354	0.7582	-0.509
Mof_C 	C 	0.1125	0.3598	0.8259	0.217
Mof_H 	H 	0.1344	0.3816	0.8647	-0.118
Mof_C 	C 	0.0531	0.3525	0.8369	-0.223
Mof_H 	H 	0.034	0.3694	0.8828	0.057
Mof_C 	C 	0.022	0.3203	0.78	0.02
Mof_H 	H 	0.9811	0.316	0.7873	0.015
Mof_C 	C 	0.2274	0.3517	0.6206	-1.245
Mof_H 	H 	0.2685	0.3569	0.6057	0.33
Mof_H 	H 	0.2122	0.3162	0.5946	0.338
Mof_H 	H 	0.2048	0.3855	0.6018	0.315
Mof_C 	C 	0.2475	0.4122	0.7848	-1.234
Mof_H 	H 	0.289	0.4178	0.7724	0.309
Mof_H 	H 	0.2252	0.4459	0.7649	0.305
Mof_H 	H 	0.2423	0.4084	0.8441	0.313
Mof_C 	C 	0.2603	0.2788	0.7698	-0.495
Mof_H 	H 	0.2554	0.2757	0.8299	0.1
Mof_H 	H 	0.3025	0.2838	0.7586	0.108
Mof_Si	Si	0.72091	0.84503	0.23346	1.329
Mof_N 	N 	0.54733	0.79484	0.2151	-0.309
Mof_C 	C 	0.6051	0.8025	0.2056	0.223
Mof_H 	H 	0.6232	0.7844	0.1599	-0.116
Mof_C 	C 	0.6407	0.8354	0.2582	-0.528
Mof_C 	C 	0.6125	0.8598	0.3259	0.255
Mof_H 	H 	0.6344	0.8816	0.3647	-0.13
Mof_C 	C 	0.5531	0.8525	0.3369	-0.287
Mof_H 	H 	0.534	0.8694	0.3828	0.093
Mof_C 	C 	0.522	0.8203	0.28	0.133
Mof_H 	H 	0.4811	0.816	0.2873	-0.054
Mof_C 	C 	0.7274	0.8517	0.1206	-1.253
Mof_H 	H 	0.7685	0.8569	0.1057	0.332
Mof_H 	H 	0.7122	0.8162	0.0946	0.34
Mof_H 	H 	0.7048	0.8855	0.1018	0.317
Mof_C 	C 	0.7475	0.9122	0.2848	-1.243
Mof_H 	H 	0.789	0.9178	0.2724	0.314
Mof_H 	H 	0.7252	0.9459	0.2649	0.307
Mof_H 	H 	0.7423	0.9084	0.3441	0.316
Mof_C 	C 	0.7603	0.7788	0.2698	-0.499
Mof_H 	H 	0.7554	0.7757	0.3299	0.102
Mof_H 	H 	0.8025	0.7838	0.2586	0.11
Mof_Si	Si	0.40497	0.02909	0.98346	1.328
Mof_N 	N 	0.45516	0.20267	0.9651	-0.308
Mof_C 	C 	0.4475	0.1449	0.9556	0.223
Mof_H 	H 	0.4656	0.1268	0.9099	-0.116
Mof_C 	C 	0.4146	0.1093	0.0082	-0.527
Mof_C 	C 	0.3902	0.1375	0.0759	0.255
Mof_H 	H 	0.3684	0.1156	0.1147	-0.13
Mof_C 	C 	0.3975	0.1969	0.0869	-0.287
Mof_H 	H 	0.3806	0.216	0.1328	0.093
Mof_C 	C 	0.4297	0.228	0.03	0.133
Mof_H 	H 	0.434	0.2689	0.0373	-0.054
Mof_C 	C 	0.3983	0.0226	0.8706	-1.252
Mof_H 	H 	0.3931	0.9815	0.8557	0.332
Mof_H 	H 	0.4338	0.0378	0.8446	0.34
Mof_H 	H 	0.3645	0.0452	0.8518	0.317
Mof_C 	C 	0.3378	0.0025	0.0348	-1.241
Mof_H 	H 	0.3322	0.961	0.0224	0.311
Mof_H 	H 	0.3041	0.0248	0.0149	0.307
Mof_H 	H 	0.3416	0.0077	0.0941	0.315
Mof_C 	C 	0.4712	0.9897	0.0198	-0.5
Mof_H 	H 	0.4743	0.9946	0.0799	0.101
Mof_H 	H 	0.4662	0.9475	0.0086	0.109
Mof_Si	Si	0.90497	0.52909	0.48346	1.328
Mof_N 	N 	0.95516	0.70267	0.4651	-0.295
Mof_C 	C 	0.9475	0.6449	0.4556	0.228
Mof_H 	H 	0.9656	0.6268	0.4099	-0.106
Mof_C 	C 	0.9146	0.6093	0.5082	-0.52
Mof_C 	C 	0.8902	0.6375	0.5759	0.256
Mof_H 	H 	0.8684	0.6156	0.6147	-0.128
Mof_C 	C 	0.8975	0.6969	0.5869	-0.283
Mof_H 	H 	0.8806	0.716	0.6328	0.093
Mof_C 	C 	0.9297	0.728	0.53	0.138
Mof_H 	H 	0.934	0.7689	0.5373	-0.047
Mof_C 	C 	0.8983	0.5226	0.3706	-1.255
Mof_H 	H 	0.8931	0.4815	0.3557	0.336
Mof_H 	H 	0.9338	0.5378	0.3446	0.349
Mof_H 	H 	0.8645	0.5452	0.3518	0.318
Mof_C 	C 	0.8378	0.5025	0.5348	-1.242
Mof_H 	H 	0.8322	0.461	0.5224	0.313
Mof_H 	H 	0.8041	0.5248	0.5149	0.307
Mof_H 	H 	0.8416	0.5077	0.5941	0.317
Mof_C 	C 	0.9712	0.4897	0.5198	-0.449
Mof_H 	H 	0.9743	0.4946	0.5799	0.105
Mof_H 	H 	0.9662	0.4475	0.5086	0.109
Mof_Si	Si	0.09503	0.97091	0.48346	1.327
Mof_N 	N 	0.04484	0.79733	0.4651	-0.316
Mof_C 	C 	0.0525	0.8551	0.4556	0.219
Mof_H 	H 	0.0344	0.8732	0.4099	-0.125
Mof_C 	C 	0.0854	0.8907	0.5082	-0.535
Mof_C 	C 	0.1098	0.8625	0.5759	0.254
Mof_H 	H 	0.1316	0.8844	0.6147	-0.132
Mof_C 	C 	0.1025	0.8031	0.5869	-0.29
Mof_H 	H 	0.1194	0.784	0.6328	0.093
Mof_C 	C 	0.0703	0.772	0.53	0.128
Mof_H 	H 	0.066	0.7311	0.5373	-0.061
Mof_C 	C 	0.1017	0.9774	0.3706	-1.249
Mof_H 	H 	0.1069	0.0185	0.3557	0.328
Mof_H 	H 	0.0662	0.9622	0.3446	0.332
Mof_H 	H 	0.1355	0.9548	0.3518	0.316
Mof_C 	C 	0.1622	0.9975	0.5348	-1.24
Mof_H 	H 	0.1678	0.039	0.5224	0.31
Mof_H 	H 	0.1959	0.9752	0.5149	0.306
Mof_H 	H 	0.1584	0.9923	0.5941	0.313
Mof_C 	C 	0.0288	0.0103	0.5198	-0.549
Mof_H 	H 	0.0257	0.0054	0.5799	0.098
Mof_H 	H 	0.0338	0.0525	0.5086	0.109
Mof_Si	Si	0.59503	0.47091	0.98346	1.327
Mof_N 	N 	0.54484	0.29733	0.9651	-0.308
Mof_C 	C 	0.5525	0.3551	0.9556	0.223
Mof_H 	H 	0.5344	0.3732	0.9099	-0.116
Mof_C 	C 	0.5854	0.3907	0.0082	-0.528
Mof_C 	C 	0.6098	0.3625	0.0759	0.255
Mof_H 	H 	0.6316	0.3844	0.1147	-0.13
Mof_C 	C 	0.6025	0.3031	0.0869	-0.287
Mof_H 	H 	0.6194	0.284	0.1328	0.093
Mof_C 	C 	0.5703	0.272	0.03	0.133
Mof_H 	H 	0.566	0.2311	0.0373	-0.054
Mof_C 	C 	0.6017	0.4774	0.8706	-1.252
Mof_H 	H 	0.6069	0.5185	0.8557	0.332
Mof_H 	H 	0.5662	0.4622	0.8446	0.34
Mof_H 	H 	0.6355	0.4548	0.8518	0.317
Mof_C 	C 	0.6622	0.4975	0.0348	-1.24
Mof_H 	H 	0.6678	0.539	0.0224	0.311
Mof_H 	H 	0.6959	0.4752	0.0149	0.306
Mof_H 	H 	0.6584	0.4923	0.0941	0.315
Mof_C 	C 	0.5288	0.5103	0.0198	-0.499
Mof_H 	H 	0.5257	0.5054	0.0799	0.101
Mof_H 	H 	0.5338	0.5525	0.0086	0.109
Mof_Si	Si	0.72091	0.34503	0.76654	1.329
Mof_N 	N 	0.54733	0.29484	0.7849	-0.309
Mof_C 	C 	0.6051	0.3025	0.7944	0.223
Mof_H 	H 	0.6232	0.2844	0.8401	-0.116
Mof_C 	C 	0.6407	0.3354	0.7418	-0.528
Mof_C 	C 	0.6125	0.3598	0.6741	0.255
Mof_H 	H 	0.6344	0.3816	0.6353	-0.13
Mof_C 	C 	0.5531	0.3525	0.6631	-0.287
Mof_H 	H 	0.534	0.3694	0.6172	0.093
Mof_C 	C 	0.522	0.3203	0.72	0.133
Mof_H 	H 	0.4811	0.316	0.7127	-0.054
Mof_C 	C 	0.7274	0.3517	0.8794	-1.253
Mof_H 	H 	0.7685	0.3569	0.8943	0.332
Mof_H 	H 	0.7122	0.3162	0.9054	0.34
Mof_H 	H 	0.7048	0.3855	0.8982	0.317
Mof_C 	C 	0.7475	0.4122	0.7152	-1.244
Mof_H 	H 	0.789	0.4178	0.7276	0.314
Mof_H 	H 	0.7252	0.4459	0.7351	0.308
Mof_H 	H 	0.7423	0.4084	0.6559	0.316
Mof_C 	C 	0.7603	0.2788	0.7302	-0.499
Mof_H 	H 	0.7554	0.2757	0.6701	0.102
Mof_H 	H 	0.8025	0.2838	0.7414	0.11
Mof_Si	Si	0.22091	0.84503	0.26654	1.317
Mof_N 	N 	0.04733	0.79484	0.2849	-0.294
Mof_C 	C 	0.1051	0.8025	0.2944	0.212
Mof_H 	H 	0.1232	0.7844	0.3401	-0.114
Mof_C 	C 	0.1407	0.8354	0.2418	-0.509
Mof_C 	C 	0.1125	0.8598	0.1741	0.217
Mof_H 	H 	0.1344	0.8816	0.1353	-0.118
Mof_C 	C 	0.0531	0.8525	0.1631	-0.223
Mof_H 	H 	0.034	0.8694	0.1172	0.057
Mof_C 	C 	0.022	0.8203	0.22	0.02
Mof_H 	H 	0.9811	0.816	0.2127	0.015
Mof_C 	C 	0.2274	0.8517	0.3794	-1.245
Mof_H 	H 	0.2685	0.8569	0.3943	0.33
Mof_H 	H 	0.2122	0.8162	0.4054	0.338
Mof_H 	H 	0.2048	0.8855	0.3982	0.315
Mof_C 	C 	0.2475	0.9122	0.2152	-1.233
Mof_H 	H 	0.289	0.9178	0.2276	0.309
Mof_H 	H 	0.2252	0.9459	0.2351	0.305
Mof_H 	H 	0.2423	0.9084	0.1559	0.313
Mof_C 	C 	0.2603	0.7788	0.2302	-0.495
Mof_H 	H 	0.2554	0.7757	0.1701	0.1
Mof_H 	H 	0.3025	0.7838	0.2414	0.108
Mof_Si	Si	0.77909	0.65497	0.26654	1.338
Mof_N 	N 	0.95267	0.70516	0.2849	-0.318
Mof_C 	C 	0.8949	0.6975	0.2944	0.235
Mof_H 	H 	0.8768	0.7156	0.3401	-0.117
Mof_C 	C 	0.8593	0.6646	0.2418	-0.546
Mof_C 	C 	0.8875	0.6402	0.1741	0.293
Mof_H 	H 	0.8656	0.6184	0.1353	-0.142
Mof_C 	C 	0.9469	0.6475	0.1631	-0.35
Mof_H 	H 	0.966	0.6306	0.1172	0.129
Mof_C 	C 	0.978	0.6797	0.22	0.247
Mof_H 	H 	0.0189	0.684	0.2127	-0.122
Mof_C 	C 	0.7726	0.6483	0.3794	-1.259
Mof_H 	H 	0.7315	0.6431	0.3943	0.334
Mof_H 	H 	0.7878	0.6838	0.4054	0.342
Mof_H 	H 	0.7952	0.6145	0.3982	0.319
Mof_C 	C 	0.7525	0.5878	0.2152	-1.248
Mof_H 	H 	0.711	0.5822	0.2276	0.313
Mof_H 	H 	0.7748	0.5541	0.2351	0.309
Mof_H 	H 	0.7577	0.5916	0.1559	0.317
Mof_C 	C 	0.7397	0.7212	0.2302	-0.503
Mof_H 	H 	0.7446	0.7243	0.1701	0.103
Mof_H 	H 	0.6975	0.7162	0.2414	0.11
Mof_Si	Si	0.27909	0.15497	0.76654	1.326
Mof_N 	N 	0.45267	0.20516	0.7849	-0.308
Mof_C 	C 	0.3949	0.1975	0.7944	0.223
Mof_H 	H 	0.3768	0.2156	0.8401	-0.116
Mof_C 	C 	0.3593	0.1646	0.7418	-0.527
Mof_C 	C 	0.3875	0.1402	0.6741	0.255
Mof_H 	H 	0.3656	0.1184	0.6353	-0.13
Mof_C 	C 	0.4469	0.1475	0.6631	-0.287
Mof_H 	H 	0.466	0.1306	0.6172	0.093
Mof_C 	C 	0.478	0.1797	0.72	0.133
Mof_H 	H 	0.5189	0.184	0.7127	-0.054
Mof_C 	C 	0.2726	0.1483	0.8794	-1.251
Mof_H 	H 	0.2315	0.1431	0.8943	0.332
Mof_H 	H 	0.2878	0.1838	0.9054	0.34
Mof_H 	H 	0.2952	0.1145	0.8982	0.317
Mof_C 	C 	0.2525	0.0878	0.7152	-1.238
Mof_H 	H 	0.211	0.0822	0.7276	0.309
Mof_H 	H 	0.2748	0.0541	0.7351	0.306
Mof_H 	H 	0.2577	0.0916	0.6559	0.314
Mof_C 	C 	0.2397	0.2212	0.7302	-0.5
Mof_H 	H 	0.2446	0.2243	0.6701	0.101
Mof_H 	H 	0.1975	0.2162	0.7414	0.108
Mof_Ni	Ni	0.5	0.75	0.125	1.006
Mof_Ni	Ni	1.6706e-33	0.25	0.625	0.986
Mof_Ni	Ni	0.5	0.25	0.875	1.006
Mof_Ni	Ni	6.89227e-33	0.75	0.375	0.986
_end
