data_functionalizedCrystal
_audit_creation_method	'EQeq! by Chris Wilmer'
_symmetry_space_group_name_H-M	'P1'
_symmetry_Int_Tables_number	1
_symmetry_cell_setting	triclinic
loop_
_symmetry_equiv_pos_as_xyz
  x,y,z
_cell_length_a	6.8945
_cell_length_b	15.2403
_cell_length_c	15.2403
_cell_angle_alpha	62.2321
_cell_angle_beta	81.327
_cell_angle_gamma	98.673
loop_
_atom_site_label
_atom_site_type_symbol
_atom_site_fract_x
_atom_site_fract_y
_atom_site_fract_z
_atom_site_charge
Mof_Fe	Fe	0.889	0.6792	0.5874	0.769
Mof_Fe	Fe	0.4764	0.5874	0.7334	0.768
Mof_Fe	Fe	0.2098	0.7334	0.6792	0.768
Mof_Fe	Fe	0.111	0.3208	0.4126	0.769
Mof_Fe	Fe	0.5236	0.4126	0.2666	0.769
Mof_Fe	Fe	0.7902	0.2666	0.3208	0.769
Mof_H 	H 	0.6583	0.0307	0.5378	0.064
Mof_H 	H 	0.1961	0.5378	0.4315	0.064
Mof_H 	H 	0.6276	0.4315	0.0307	0.064
Mof_H 	H 	0.3417	0.9693	0.4622	0.064
Mof_H 	H 	0.8039	0.4622	0.5685	0.064
Mof_H 	H 	0.3724	0.5685	0.9693	0.064
Mof_C 	C 	0.6286	0.8292	0.6174	0.558
Mof_C 	C 	0.8381	0.9106	0.5512	-0.184
Mof_C 	C 	0.0458	0.9008	0.5354	0.245
Mof_C 	C 	0.7976	0.0033	0.5275	-0.067
Mof_C 	C 	0.246	0.6174	0.5534	0.558
Mof_C 	C 	0.3893	0.5512	0.5382	-0.184
Mof_C 	C 	0.5812	0.5354	0.5638	0.245
Mof_C 	C 	0.3251	0.5275	0.4692	-0.067
Mof_C 	C 	0.7994	0.5534	0.8292	0.557
Mof_C 	C 	0.9275	0.5382	0.9106	-0.183
Mof_C 	C 	0.145	0.5638	0.9008	0.244
Mof_C 	C 	0.7943	0.4692	0.0033	-0.068
Mof_C 	C 	0.3714	0.1708	0.3826	0.558
Mof_C 	C 	0.1619	0.0894	0.4488	-0.184
Mof_C 	C 	0.9542	0.0992	0.4646	0.245
Mof_C 	C 	0.2024	0.9967	0.4725	-0.067
Mof_C 	C 	0.754	0.3826	0.4466	0.558
Mof_C 	C 	0.6107	0.4488	0.4618	-0.184
Mof_C 	C 	0.4188	0.4646	0.4362	0.245
Mof_C 	C 	0.6749	0.4725	0.5308	-0.067
Mof_C 	C 	0.2006	0.4466	0.1708	0.557
Mof_C 	C 	0.0725	0.4618	0.0894	-0.183
Mof_C 	C 	0.855	0.4362	0.0992	0.244
Mof_C 	C 	0.2057	0.5308	0.9967	-0.068
Mof_O 	O 	0.668	0.7485	0.6465	-0.489
Mof_O 	O 	0.4736	0.8448	0.624	-0.481
Mof_O 	O 	0.077	0.817	0.556	-0.414
Mof_O 	O 	0.3145	0.6465	0.605	-0.489
Mof_O 	O 	0.0976	0.624	0.5312	-0.481
Mof_O 	O 	0.633	0.556	0.627	-0.414
Mof_O 	O 	0.9195	0.605	0.7485	-0.489
Mof_O 	O 	0.6288	0.5312	0.8448	-0.481
Mof_O 	O 	0.26	0.627	0.817	-0.414
Mof_O 	O 	0.332	0.2515	0.3535	-0.489
Mof_O 	O 	0.5264	0.1552	0.376	-0.481
Mof_O 	O 	0.923	0.183	0.444	-0.414
Mof_O 	O 	0.6855	0.3535	0.395	-0.489
Mof_O 	O 	0.9024	0.376	0.4688	-0.481
Mof_O 	O 	0.367	0.444	0.373	-0.414
Mof_O 	O 	0.0805	0.395	0.2515	-0.489
Mof_O 	O 	0.3712	0.4688	0.1552	-0.481
Mof_O 	O 	0.74	0.373	0.183	-0.414
_end
