data_functionalizedCrystal
_audit_creation_method	'EQeq! by Chris Wilmer'
_symmetry_space_group_name_H-M	'P1'
_symmetry_Int_Tables_number	1
_symmetry_cell_setting	triclinic
loop_
_symmetry_equiv_pos_as_xyz
  x,y,z
_cell_length_a	12.789
_cell_length_b	12.789
_cell_length_c	12.789
_cell_angle_alpha	90
_cell_angle_beta	90
_cell_angle_gamma	90
loop_
_atom_site_label
_atom_site_type_symbol
_atom_site_fract_x
_atom_site_fract_y
_atom_site_fract_z
_atom_site_charge
Mof_Cs	Cs	0.5	0.5	0.5	3.002
Mof_Cs	Cs	0.5	0	-0	2.247
Mof_Cs	Cs	-0	0.5	-0	2.247
Mof_Cs	Cs	1.8747e-33	0	0.5	2.247
Mof_Cr	Cr	1.8747e-33	0.5	0.5	1.239
Mof_Cr	Cr	-0	0	-0	0.847
Mof_Cr	Cr	0.5	0	0.5	1.239
Mof_Cr	Cr	0.5	0.5	-0	1.239
Mof_N 	N 	0.2508	0.5	0.5	-0.311
Mof_C 	C 	0.1612	0.5	0.5	-0.311
Mof_N 	N 	0.2508	0	-0	-0.321
Mof_C 	C 	0.1612	0	-0	-0.337
Mof_N 	N 	0.7508	0.5	-0	-0.238
Mof_C 	C 	0.6612	0.5	-0	-0.346
Mof_N 	N 	0.7508	0	0.5	-0.238
Mof_C 	C 	0.6612	0	0.5	-0.346
Mof_N 	N 	0.7492	0.5	0.5	-0.312
Mof_C 	C 	0.8388	0.5	0.5	-0.179
Mof_N 	N 	0.7492	0	-0	-0.323
Mof_C 	C 	0.8388	0	-0	-0.199
Mof_N 	N 	0.2492	0.5	-0	-0.284
Mof_C 	C 	0.3388	0.5	-0	-0.37
Mof_N 	N 	0.2492	0	0.5	-0.284
Mof_C 	C 	0.3388	0	0.5	-0.37
Mof_N 	N 	0.5	0.2508	0.5	-0.311
Mof_C 	C 	0.5	0.1612	0.5	-0.311
Mof_N 	N 	0.5	0.7508	-0	-0.238
Mof_C 	C 	0.5	0.6612	-0	-0.346
Mof_N 	N 	-0	0.2508	-0	-0.321
Mof_C 	C 	-1.50852e-33	0.1612	-0	-0.337
Mof_N 	N 	-1.01934e-32	0.7508	0.5	-0.238
Mof_C 	C 	1.8747e-33	0.6612	0.5	-0.346
Mof_N 	N 	0.5	0.7492	0.5	-0.312
Mof_C 	C 	0.5	0.8388	0.5	-0.179
Mof_N 	N 	0.5	0.2492	-0	-0.284
Mof_C 	C 	0.5	0.3388	-0	-0.37
Mof_N 	N 	-6.03407e-33	0.7492	-0	-0.323
Mof_C 	C 	6.03407e-33	0.8388	-0	-0.199
Mof_N 	N 	1.8747e-33	0.2492	0.5	-0.284
Mof_C 	C 	-1.01934e-32	0.3388	0.5	-0.37
Mof_N 	N 	0.5	0.5	0.2508	-0.311
Mof_C 	C 	0.5	0.5	0.1612	-0.311
Mof_N 	N 	0.5	-6.03407e-33	0.7508	-0.238
Mof_C 	C 	0.5	6.03407e-33	0.6612	-0.346
Mof_N 	N 	-1.52872e-32	0.5	0.7508	-0.238
Mof_C 	C 	-3.55497e-33	0.5	0.6612	-0.346
Mof_N 	N 	9.40349e-34	0	0.2508	-0.321
Mof_C 	C 	-9.04115e-34	-1.50852e-33	0.1612	-0.337
Mof_N 	N 	0.5	0.5	0.7492	-0.312
Mof_C 	C 	0.5	0.5	0.8388	-0.179
Mof_N 	N 	0.5	0	0.2492	-0.284
Mof_C 	C 	0.5	-3.01704e-33	0.3388	-0.37
Mof_N 	N 	9.3435e-34	0.5	0.2492	-0.284
Mof_C 	C 	-1.07979e-32	0.5	0.3388	-0.37
Mof_N 	N 	-3.22502e-33	0	0.7492	-0.323
Mof_C 	C 	3.145e-33	0	0.8388	-0.199
_end
