data_functionalizedCrystal
_audit_creation_method	'EQeq! by Chris Wilmer'
_symmetry_space_group_name_H-M	'P1'
_symmetry_Int_Tables_number	1
_symmetry_cell_setting	triclinic
loop_
_symmetry_equiv_pos_as_xyz
  x,y,z
_cell_length_a	35.487
_cell_length_b	15.08
_cell_length_c	31.542
_cell_angle_alpha	90
_cell_angle_beta	102.107
_cell_angle_gamma	90
loop_
_atom_site_label
_atom_site_type_symbol
_atom_site_fract_x
_atom_site_fract_y
_atom_site_fract_z
_atom_site_charge
Mof_I 	I 	0.73742	0.26839	0.80593	-0.381
Mof_I 	I 	0.6299	0.3237	0.7039	-0.334
Mof_I 	I 	0.52756	0.14493	0.63252	-0.35
Mof_I 	I 	0.61775	0.23406	0.56141	-0.381
Mof_I 	I 	0.39474	0.72529	0.90161	-0.382
Mof_I 	I 	0.35576	0.58162	0.00794	-0.367
Mof_Zn	Zn	0.67582	0.35569	0.77908	1.162
Mof_Zn	Zn	0.58287	0.11525	0.59441	1.165
Mof_Zn	Zn	0.37454	0.58414	0.93464	1.165
Mof_N 	N 	0.52256	0.2643	0.9689	-0.145
Mof_N 	N 	0.57575	0.2202	0.9383	-0.135
Mof_N 	N 	0.5374	0.3442	0.9094	-0.133
Mof_C 	C 	0.5164	0.3277	0.9392	0.094
Mof_C 	C 	0.5521	0.2107	0.9658	0.095
Mof_C 	C 	0.5678	0.2906	0.9118	0.106
Mof_N 	N 	0.41916	0.4962	0.9368	-0.277
Mof_C 	C 	0.4376	0.4582	0.9728	0.084
Mof_H 	H 	0.4287	0.4697	0.9987	-0.01
Mof_C 	C 	0.4689	0.4031	0.9755	-0.131
Mof_H 	H 	0.4812	0.3777	0.0025	0.081
Mof_C 	C 	0.4818	0.3857	0.9383	0.057
Mof_C 	C 	0.4621	0.4215	0.8996	-0.128
Mof_H 	H 	0.47	0.4096	0.8733	0.089
Mof_C 	C 	0.4309	0.4743	0.9001	0.076
Mof_H 	H 	0.4168	0.4967	0.8733	-0.013
Mof_N 	N 	0.5691	0.9858	0.049	-0.27
Mof_C 	C 	0.595	0.0053	0.0248	0.062
Mof_H 	H 	0.6172	0.969	0.0266	-0.012
Mof_C 	C 	0.5897	0.0777	0.9974	-0.113
Mof_H 	H 	0.6081	0.0903	0.9803	0.079
Mof_C 	C 	0.5583	0.1315	0.9944	0.05
Mof_C 	C 	0.5313	0.1089	0.0193	-0.115
Mof_H 	H 	0.5089	0.144	0.0179	0.072
Mof_C 	C 	0.5377	0.0355	0.0458	0.07
Mof_H 	H 	0.5191	0.02	0.0623	-0.01
Mof_N 	N 	0.6422	0.3404	0.8251	-0.275
Mof_C 	C 	0.6073	0.3764	0.819	0.079
Mof_H 	H 	0.5993	0.4139	0.7945	-0.02
Mof_C 	C 	0.5823	0.3626	0.8459	-0.122
Mof_H 	H 	0.5576	0.3899	0.84	0.085
Mof_C 	C 	0.5931	0.3091	0.8816	0.062
Mof_C 	C 	0.6302	0.271	0.8891	-0.111
Mof_H 	H 	0.6392	0.2342	0.9136	0.083
Mof_C 	C 	0.6534	0.2888	0.8596	0.068
Mof_H 	H 	0.6783	0.263	0.8644	-0.01
Mof_C 	C 	0.7415	0.8914	0.8008	0.092
Mof_C 	C 	0.6916	0.8998	0.7443	0.099
Mof_C 	C 	0.7073	0.7698	0.7773	0.105
Mof_N 	N 	0.72075	0.9421	0.7709	-0.142
Mof_N 	N 	0.68304	0.8148	0.7472	-0.135
Mof_N 	N 	0.73686	0.8045	0.8058	-0.141
Mof_N 	N 	0.6221	0.0456	0.6403	-0.272
Mof_C 	C 	0.6168	0.9599	0.6462	0.078
Mof_H 	H 	0.5963	0.9308	0.627	-0.004
Mof_C 	C 	0.6394	0.9104	0.679	-0.125
Mof_H 	H 	0.6354	0.8484	0.681	0.096
Mof_C 	C 	0.6677	0.9524	0.7082	0.064
Mof_C 	C 	0.6732	0.0411	0.7025	-0.127
Mof_H 	H 	0.6925	0.0723	0.7223	0.078
Mof_C 	C 	0.6507	0.0854	0.6678	0.07
Mof_H 	H 	0.6558	0.1462	0.6634	-0.01
Mof_N 	N 	0.6872	0.4905	0.779	-0.275
Mof_C 	C 	0.6621	0.5446	0.7557	0.075
Mof_H 	H 	0.6391	0.5201	0.7388	-0.019
Mof_C 	C 	0.6674	0.6356	0.7543	-0.123
Mof_H 	H 	0.6487	0.6718	0.7365	0.084
Mof_C 	C 	0.7003	0.6731	0.7792	0.057
Mof_C 	C 	0.7267	0.6165	0.8043	-0.118
Mof_H 	H 	0.7496	0.6394	0.822	0.078
Mof_C 	C 	0.7194	0.5265	0.8033	0.065
Mof_H 	H 	0.7379	0.4883	0.8203	-0.01
Mof_N 	N 	0.83149	0.0229	0.8897	-0.274
Mof_C 	C 	0.8246	0.9382	0.8949	0.072
Mof_H 	H 	0.8397	0.9077	0.9189	-0.002
Mof_C 	C 	0.7958	0.8915	0.8666	-0.117
Mof_H 	H 	0.7916	0.8302	0.8708	0.085
Mof_C 	C 	0.7735	0.9372	0.8324	0.05
Mof_C 	C 	0.7812	0.0255	0.8266	-0.127
Mof_H 	H 	0.7666	0.058	0.803	0.091
Mof_C 	C 	0.8103	0.0654	0.8556	0.073
Mof_H 	H 	0.8158	0.1261	0.8514	-0.004
Mof_I 	I 	0.6412	0.315	0.7109	-0.038
Mof_I 	I 	0.23742	0.76839	0.80593	-0.382
Mof_I 	I 	0.1299	0.8237	0.7039	-0.335
Mof_I 	I 	0.02756	0.64493	0.63252	-0.351
Mof_I 	I 	0.11775	0.73406	0.56141	-0.382
Mof_I 	I 	0.89474	0.22529	0.90161	-0.383
Mof_I 	I 	0.85576	0.08162	0.00794	-0.368
Mof_Zn	Zn	0.17582	0.85569	0.77908	1.161
Mof_Zn	Zn	0.08287	0.61525	0.59441	1.164
Mof_Zn	Zn	0.87454	0.08414	0.93464	1.164
Mof_N 	N 	0.02256	0.7643	0.9689	-0.146
Mof_N 	N 	0.07575	0.7202	0.9383	-0.135
Mof_N 	N 	0.0374	0.8442	0.9094	-0.133
Mof_C 	C 	0.0164	0.8277	0.9392	0.095
Mof_C 	C 	0.0521	0.7107	0.9658	0.095
Mof_C 	C 	0.0678	0.7906	0.9118	0.106
Mof_N 	N 	0.91916	0.9962	0.9368	-0.276
Mof_C 	C 	0.9376	0.9582	0.9728	0.084
Mof_H 	H 	0.9287	0.9697	0.9987	-0.01
Mof_C 	C 	0.9689	0.9031	0.9755	-0.129
Mof_H 	H 	0.9812	0.8777	0.0025	0.08
Mof_C 	C 	0.9818	0.8857	0.9383	0.057
Mof_C 	C 	0.9621	0.9215	0.8996	-0.128
Mof_H 	H 	0.97	0.9096	0.8733	0.088
Mof_C 	C 	0.9309	0.9743	0.9001	0.076
Mof_H 	H 	0.9168	0.9967	0.8733	-0.013
Mof_N 	N 	0.0691	0.4858	0.049	-0.269
Mof_C 	C 	0.095	0.5053	0.0248	0.06
Mof_H 	H 	0.1172	0.469	0.0266	-0.011
Mof_C 	C 	0.0897	0.5777	0.9974	-0.111
Mof_H 	H 	0.1081	0.5903	0.9803	0.079
Mof_C 	C 	0.0583	0.6315	0.9944	0.05
Mof_C 	C 	0.0313	0.6089	0.0193	-0.115
Mof_H 	H 	0.0089	0.644	0.0179	0.072
Mof_C 	C 	0.0377	0.5355	0.0458	0.069
Mof_H 	H 	0.0191	0.52	0.0623	-0.01
Mof_N 	N 	0.1422	0.8404	0.8251	-0.275
Mof_C 	C 	0.1073	0.8764	0.819	0.079
Mof_H 	H 	0.0993	0.9139	0.7945	-0.02
Mof_C 	C 	0.0823	0.8626	0.8459	-0.122
Mof_H 	H 	0.0576	0.8899	0.84	0.085
Mof_C 	C 	0.0931	0.8091	0.8816	0.062
Mof_C 	C 	0.1302	0.771	0.8891	-0.111
Mof_H 	H 	0.1392	0.7342	0.9136	0.083
Mof_C 	C 	0.1534	0.7888	0.8596	0.068
Mof_H 	H 	0.1783	0.763	0.8644	-0.009
Mof_C 	C 	0.2415	0.3914	0.8008	0.093
Mof_C 	C 	0.1916	0.3998	0.7443	0.099
Mof_C 	C 	0.2073	0.2698	0.7773	0.105
Mof_N 	N 	0.22075	0.4421	0.7709	-0.142
Mof_N 	N 	0.18304	0.3148	0.7472	-0.135
Mof_N 	N 	0.23686	0.3045	0.8058	-0.142
Mof_N 	N 	0.1221	0.5456	0.6403	-0.272
Mof_C 	C 	0.1168	0.4599	0.6462	0.078
Mof_H 	H 	0.0963	0.4308	0.627	-0.004
Mof_C 	C 	0.1394	0.4104	0.679	-0.125
Mof_H 	H 	0.1354	0.3484	0.681	0.096
Mof_C 	C 	0.1677	0.4524	0.7082	0.063
Mof_C 	C 	0.1732	0.5411	0.7025	-0.127
Mof_H 	H 	0.1925	0.5723	0.7223	0.078
Mof_C 	C 	0.1507	0.5854	0.6678	0.07
Mof_H 	H 	0.1558	0.6462	0.6634	-0.01
Mof_N 	N 	0.1872	0.9905	0.779	-0.275
Mof_C 	C 	0.1621	0.0446	0.7557	0.074
Mof_H 	H 	0.1391	0.0201	0.7388	-0.019
Mof_C 	C 	0.1674	0.1356	0.7543	-0.123
Mof_H 	H 	0.1487	0.1718	0.7365	0.084
Mof_C 	C 	0.2003	0.1731	0.7792	0.056
Mof_C 	C 	0.2267	0.1165	0.8043	-0.117
Mof_H 	H 	0.2496	0.1394	0.822	0.077
Mof_C 	C 	0.2194	0.0265	0.8033	0.064
Mof_H 	H 	0.2379	0.9883	0.8203	-0.009
Mof_N 	N 	0.33149	0.5229	0.8897	-0.273
Mof_C 	C 	0.3246	0.4382	0.8949	0.071
Mof_H 	H 	0.3397	0.4077	0.9189	-0.002
Mof_C 	C 	0.2958	0.3915	0.8666	-0.117
Mof_H 	H 	0.2916	0.3302	0.8708	0.085
Mof_C 	C 	0.2735	0.4372	0.8324	0.049
Mof_C 	C 	0.2812	0.5255	0.8266	-0.126
Mof_H 	H 	0.2666	0.558	0.803	0.091
Mof_C 	C 	0.3103	0.5654	0.8556	0.072
Mof_H 	H 	0.3158	0.6261	0.8514	-0.004
Mof_I 	I 	0.1412	0.815	0.7109	-0.038
Mof_I 	I 	0.73742	0.73161	0.30593	-0.382
Mof_I 	I 	0.6299	0.6763	0.2039	-0.335
Mof_I 	I 	0.52756	0.85507	0.13252	-0.351
Mof_I 	I 	0.61775	0.76594	0.06141	-0.382
Mof_I 	I 	0.39474	0.27471	0.40161	-0.383
Mof_I 	I 	0.35576	0.41838	0.50794	-0.368
Mof_Zn	Zn	0.67582	0.64431	0.27908	1.161
Mof_Zn	Zn	0.58287	0.88475	0.09441	1.164
Mof_Zn	Zn	0.37454	0.41586	0.43464	1.164
Mof_N 	N 	0.52256	0.7357	0.4689	-0.146
Mof_N 	N 	0.57575	0.7798	0.4383	-0.135
Mof_N 	N 	0.5374	0.6558	0.4094	-0.133
Mof_C 	C 	0.5164	0.6723	0.4392	0.094
Mof_C 	C 	0.5521	0.7893	0.4658	0.095
Mof_C 	C 	0.5678	0.7094	0.4118	0.106
Mof_N 	N 	0.41916	0.5038	0.4368	-0.277
Mof_C 	C 	0.4376	0.5418	0.4728	0.084
Mof_H 	H 	0.4287	0.5303	0.4987	-0.01
Mof_C 	C 	0.4689	0.5969	0.4755	-0.13
Mof_H 	H 	0.4812	0.6223	0.5025	0.081
Mof_C 	C 	0.4818	0.6143	0.4383	0.057
Mof_C 	C 	0.4621	0.5785	0.3996	-0.128
Mof_H 	H 	0.47	0.5904	0.3733	0.089
Mof_C 	C 	0.4309	0.5257	0.4001	0.076
Mof_H 	H 	0.4168	0.5033	0.3733	-0.013
Mof_N 	N 	0.5691	0.0142	0.549	-0.269
Mof_C 	C 	0.595	0.9947	0.5248	0.06
Mof_H 	H 	0.6172	0.031	0.5266	-0.011
Mof_C 	C 	0.5897	0.9223	0.4974	-0.111
Mof_H 	H 	0.6081	0.9097	0.4803	0.079
Mof_C 	C 	0.5583	0.8685	0.4944	0.05
Mof_C 	C 	0.5313	0.8911	0.5193	-0.114
Mof_H 	H 	0.5089	0.856	0.5179	0.072
Mof_C 	C 	0.5377	0.9645	0.5458	0.069
Mof_H 	H 	0.5191	0.98	0.5623	-0.01
Mof_N 	N 	0.6422	0.6596	0.3251	-0.275
Mof_C 	C 	0.6073	0.6236	0.319	0.079
Mof_H 	H 	0.5993	0.5861	0.2945	-0.02
Mof_C 	C 	0.5823	0.6374	0.3459	-0.122
Mof_H 	H 	0.5576	0.6101	0.34	0.085
Mof_C 	C 	0.5931	0.6909	0.3816	0.062
Mof_C 	C 	0.6302	0.729	0.3891	-0.111
Mof_H 	H 	0.6392	0.7658	0.4136	0.083
Mof_C 	C 	0.6534	0.7112	0.3596	0.068
Mof_H 	H 	0.6783	0.737	0.3644	-0.01
Mof_C 	C 	0.7415	0.1086	0.3008	0.092
Mof_C 	C 	0.6916	0.1002	0.2443	0.099
Mof_C 	C 	0.7073	0.2302	0.2773	0.105
Mof_N 	N 	0.72075	0.0579	0.2709	-0.142
Mof_N 	N 	0.68304	0.1852	0.2472	-0.135
Mof_N 	N 	0.73686	0.1955	0.3058	-0.141
Mof_N 	N 	0.6221	0.9544	0.1403	-0.272
Mof_C 	C 	0.6168	0.0401	0.1462	0.078
Mof_H 	H 	0.5963	0.0692	0.127	-0.004
Mof_C 	C 	0.6394	0.0896	0.179	-0.125
Mof_H 	H 	0.6354	0.1516	0.181	0.096
Mof_C 	C 	0.6677	0.0476	0.2082	0.064
Mof_C 	C 	0.6732	0.9589	0.2025	-0.127
Mof_H 	H 	0.6925	0.9277	0.2223	0.078
Mof_C 	C 	0.6507	0.9146	0.1678	0.071
Mof_H 	H 	0.6558	0.8538	0.1634	-0.01
Mof_N 	N 	0.6872	0.5095	0.279	-0.275
Mof_C 	C 	0.6621	0.4554	0.2557	0.075
Mof_H 	H 	0.6391	0.4799	0.2388	-0.019
Mof_C 	C 	0.6674	0.3644	0.2543	-0.123
Mof_H 	H 	0.6487	0.3282	0.2365	0.084
Mof_C 	C 	0.7003	0.3269	0.2792	0.057
Mof_C 	C 	0.7267	0.3835	0.3043	-0.118
Mof_H 	H 	0.7496	0.3606	0.322	0.078
Mof_C 	C 	0.7194	0.4735	0.3033	0.065
Mof_H 	H 	0.7379	0.5117	0.3203	-0.01
Mof_N 	N 	0.83149	0.9771	0.3897	-0.273
Mof_C 	C 	0.8246	0.0618	0.3949	0.071
Mof_H 	H 	0.8397	0.0923	0.4189	-0.002
Mof_C 	C 	0.7958	0.1085	0.3666	-0.117
Mof_H 	H 	0.7916	0.1698	0.3708	0.085
Mof_C 	C 	0.7735	0.0628	0.3324	0.05
Mof_C 	C 	0.7812	0.9745	0.3266	-0.127
Mof_H 	H 	0.7666	0.942	0.303	0.091
Mof_C 	C 	0.8103	0.9346	0.3556	0.073
Mof_H 	H 	0.8158	0.8739	0.3514	-0.004
Mof_I 	I 	0.6412	0.685	0.2109	-0.038
Mof_I 	I 	0.23742	0.23161	0.30593	-0.382
Mof_I 	I 	0.1299	0.1763	0.2039	-0.335
Mof_I 	I 	0.02756	0.35507	0.13252	-0.351
Mof_I 	I 	0.11775	0.26594	0.06141	-0.382
Mof_I 	I 	0.89474	0.77471	0.40161	-0.383
Mof_I 	I 	0.85576	0.91838	0.50794	-0.368
Mof_Zn	Zn	0.17582	0.14431	0.27908	1.161
Mof_Zn	Zn	0.08287	0.38475	0.09441	1.164
Mof_Zn	Zn	0.87454	0.91586	0.43464	1.164
Mof_N 	N 	0.02256	0.2357	0.4689	-0.146
Mof_N 	N 	0.07575	0.2798	0.4383	-0.135
Mof_N 	N 	0.0374	0.1558	0.4094	-0.133
Mof_C 	C 	0.0164	0.1723	0.4392	0.094
Mof_C 	C 	0.0521	0.2893	0.4658	0.095
Mof_C 	C 	0.0678	0.2094	0.4118	0.106
Mof_N 	N 	0.91916	0.0038	0.4368	-0.277
Mof_C 	C 	0.9376	0.0418	0.4728	0.084
Mof_H 	H 	0.9287	0.0303	0.4987	-0.01
Mof_C 	C 	0.9689	0.0969	0.4755	-0.13
Mof_H 	H 	0.9812	0.1223	0.5025	0.081
Mof_C 	C 	0.9818	0.1143	0.4383	0.057
Mof_C 	C 	0.9621	0.0785	0.3996	-0.128
Mof_H 	H 	0.97	0.0904	0.3733	0.089
Mof_C 	C 	0.9309	0.0257	0.4001	0.076
Mof_H 	H 	0.9168	0.0033	0.3733	-0.013
Mof_N 	N 	0.0691	0.5142	0.549	-0.269
Mof_C 	C 	0.095	0.4947	0.5248	0.06
Mof_H 	H 	0.1172	0.531	0.5266	-0.011
Mof_C 	C 	0.0897	0.4223	0.4974	-0.111
Mof_H 	H 	0.1081	0.4097	0.4803	0.079
Mof_C 	C 	0.0583	0.3685	0.4944	0.05
Mof_C 	C 	0.0313	0.3911	0.5193	-0.114
Mof_H 	H 	0.0089	0.356	0.5179	0.072
Mof_C 	C 	0.0377	0.4645	0.5458	0.069
Mof_H 	H 	0.0191	0.48	0.5623	-0.01
Mof_N 	N 	0.1422	0.1596	0.3251	-0.275
Mof_C 	C 	0.1073	0.1236	0.319	0.079
Mof_H 	H 	0.0993	0.0861	0.2945	-0.02
Mof_C 	C 	0.0823	0.1374	0.3459	-0.122
Mof_H 	H 	0.0576	0.1101	0.34	0.085
Mof_C 	C 	0.0931	0.1909	0.3816	0.062
Mof_C 	C 	0.1302	0.229	0.3891	-0.111
Mof_H 	H 	0.1392	0.2658	0.4136	0.083
Mof_C 	C 	0.1534	0.2112	0.3596	0.068
Mof_H 	H 	0.1783	0.237	0.3644	-0.01
Mof_C 	C 	0.2415	0.6086	0.3008	0.093
Mof_C 	C 	0.1916	0.6002	0.2443	0.099
Mof_C 	C 	0.2073	0.7302	0.2773	0.105
Mof_N 	N 	0.22075	0.5579	0.2709	-0.142
Mof_N 	N 	0.18304	0.6852	0.2472	-0.135
Mof_N 	N 	0.23686	0.6955	0.3058	-0.142
Mof_N 	N 	0.1221	0.4544	0.1403	-0.272
Mof_C 	C 	0.1168	0.5401	0.1462	0.078
Mof_H 	H 	0.0963	0.5692	0.127	-0.004
Mof_C 	C 	0.1394	0.5896	0.179	-0.125
Mof_H 	H 	0.1354	0.6516	0.181	0.096
Mof_C 	C 	0.1677	0.5476	0.2082	0.063
Mof_C 	C 	0.1732	0.4589	0.2025	-0.127
Mof_H 	H 	0.1925	0.4277	0.2223	0.078
Mof_C 	C 	0.1507	0.4146	0.1678	0.07
Mof_H 	H 	0.1558	0.3538	0.1634	-0.01
Mof_N 	N 	0.1872	0.0095	0.279	-0.275
Mof_C 	C 	0.1621	0.9554	0.2557	0.074
Mof_H 	H 	0.1391	0.9799	0.2388	-0.019
Mof_C 	C 	0.1674	0.8644	0.2543	-0.123
Mof_H 	H 	0.1487	0.8282	0.2365	0.084
Mof_C 	C 	0.2003	0.8269	0.2792	0.057
Mof_C 	C 	0.2267	0.8835	0.3043	-0.118
Mof_H 	H 	0.2496	0.8606	0.322	0.077
Mof_C 	C 	0.2194	0.9735	0.3033	0.064
Mof_H 	H 	0.2379	0.0117	0.3203	-0.009
Mof_N 	N 	0.33149	0.4771	0.3897	-0.273
Mof_C 	C 	0.3246	0.5618	0.3949	0.071
Mof_H 	H 	0.3397	0.5923	0.4189	-0.002
Mof_C 	C 	0.2958	0.6085	0.3666	-0.117
Mof_H 	H 	0.2916	0.6698	0.3708	0.085
Mof_C 	C 	0.2735	0.5628	0.3324	0.049
Mof_C 	C 	0.2812	0.4745	0.3266	-0.126
Mof_H 	H 	0.2666	0.442	0.303	0.091
Mof_C 	C 	0.3103	0.4346	0.3556	0.072
Mof_H 	H 	0.3158	0.3739	0.3514	-0.004
Mof_I 	I 	0.1412	0.185	0.2109	-0.038
Mof_I 	I 	0.26258	0.26839	0.69407	-0.382
Mof_I 	I 	0.3701	0.3237	0.7961	-0.335
Mof_I 	I 	0.47244	0.14493	0.86748	-0.351
Mof_I 	I 	0.38225	0.23406	0.93859	-0.382
Mof_I 	I 	0.60526	0.72529	0.59839	-0.383
Mof_I 	I 	0.64424	0.58162	0.49206	-0.368
Mof_Zn	Zn	0.32418	0.35569	0.72092	1.161
Mof_Zn	Zn	0.41713	0.11525	0.90559	1.164
Mof_Zn	Zn	0.62546	0.58414	0.56536	1.164
Mof_N 	N 	0.47744	0.2643	0.5311	-0.146
Mof_N 	N 	0.42425	0.2202	0.5617	-0.135
Mof_N 	N 	0.4626	0.3442	0.5906	-0.133
Mof_C 	C 	0.4836	0.3277	0.5608	0.094
Mof_C 	C 	0.4479	0.2107	0.5342	0.095
Mof_C 	C 	0.4322	0.2906	0.5882	0.106
Mof_N 	N 	0.58084	0.4962	0.5632	-0.277
Mof_C 	C 	0.5624	0.4582	0.5272	0.084
Mof_H 	H 	0.5713	0.4697	0.5013	-0.01
Mof_C 	C 	0.5311	0.4031	0.5245	-0.13
Mof_H 	H 	0.5188	0.3777	0.4975	0.081
Mof_C 	C 	0.5182	0.3857	0.5617	0.057
Mof_C 	C 	0.5379	0.4215	0.6004	-0.128
Mof_H 	H 	0.53	0.4096	0.6267	0.089
Mof_C 	C 	0.5691	0.4743	0.5999	0.076
Mof_H 	H 	0.5832	0.4967	0.6267	-0.013
Mof_N 	N 	0.4309	0.9858	0.451	-0.269
Mof_C 	C 	0.405	0.0053	0.4752	0.06
Mof_H 	H 	0.3828	0.969	0.4734	-0.011
Mof_C 	C 	0.4103	0.0777	0.5026	-0.111
Mof_H 	H 	0.3919	0.0903	0.5197	0.079
Mof_C 	C 	0.4417	0.1315	0.5056	0.05
Mof_C 	C 	0.4687	0.1089	0.4807	-0.114
Mof_H 	H 	0.4911	0.144	0.4821	0.072
Mof_C 	C 	0.4623	0.0355	0.4542	0.069
Mof_H 	H 	0.4809	0.02	0.4377	-0.01
Mof_N 	N 	0.3578	0.3404	0.6749	-0.275
Mof_C 	C 	0.3927	0.3764	0.681	0.079
Mof_H 	H 	0.4007	0.4139	0.7055	-0.02
Mof_C 	C 	0.4177	0.3626	0.6541	-0.122
Mof_H 	H 	0.4424	0.3899	0.66	0.085
Mof_C 	C 	0.4069	0.3091	0.6184	0.062
Mof_C 	C 	0.3698	0.271	0.6109	-0.111
Mof_H 	H 	0.3608	0.2342	0.5864	0.083
Mof_C 	C 	0.3466	0.2888	0.6404	0.068
Mof_H 	H 	0.3217	0.263	0.6356	-0.01
Mof_C 	C 	0.2585	0.8914	0.6992	0.092
Mof_C 	C 	0.3084	0.8998	0.7557	0.099
Mof_C 	C 	0.2927	0.7698	0.7227	0.105
Mof_N 	N 	0.27925	0.9421	0.7291	-0.142
Mof_N 	N 	0.31696	0.8148	0.7528	-0.135
Mof_N 	N 	0.26314	0.8045	0.6942	-0.141
Mof_N 	N 	0.3779	0.0456	0.8597	-0.272
Mof_C 	C 	0.3832	0.9599	0.8538	0.078
Mof_H 	H 	0.4037	0.9308	0.873	-0.004
Mof_C 	C 	0.3606	0.9104	0.821	-0.125
Mof_H 	H 	0.3646	0.8484	0.819	0.096
Mof_C 	C 	0.3323	0.9524	0.7918	0.064
Mof_C 	C 	0.3268	0.0411	0.7975	-0.127
Mof_H 	H 	0.3075	0.0723	0.7777	0.078
Mof_C 	C 	0.3493	0.0854	0.8322	0.071
Mof_H 	H 	0.3442	0.1462	0.8366	-0.01
Mof_N 	N 	0.3128	0.4905	0.721	-0.275
Mof_C 	C 	0.3379	0.5446	0.7443	0.075
Mof_H 	H 	0.3609	0.5201	0.7612	-0.019
Mof_C 	C 	0.3326	0.6356	0.7457	-0.123
Mof_H 	H 	0.3513	0.6718	0.7635	0.084
Mof_C 	C 	0.2997	0.6731	0.7208	0.057
Mof_C 	C 	0.2733	0.6165	0.6957	-0.118
Mof_H 	H 	0.2504	0.6394	0.678	0.078
Mof_C 	C 	0.2806	0.5265	0.6967	0.065
Mof_H 	H 	0.2621	0.4883	0.6797	-0.01
Mof_N 	N 	0.16851	0.0229	0.6103	-0.273
Mof_C 	C 	0.1754	0.9382	0.6051	0.071
Mof_H 	H 	0.1603	0.9077	0.5811	-0.002
Mof_C 	C 	0.2042	0.8915	0.6334	-0.117
Mof_H 	H 	0.2084	0.8302	0.6292	0.085
Mof_C 	C 	0.2265	0.9372	0.6676	0.05
Mof_C 	C 	0.2188	0.0255	0.6734	-0.127
Mof_H 	H 	0.2334	0.058	0.697	0.091
Mof_C 	C 	0.1897	0.0654	0.6444	0.073
Mof_H 	H 	0.1842	0.1261	0.6486	-0.004
Mof_I 	I 	0.3588	0.315	0.7891	-0.038
Mof_I 	I 	0.76258	0.76839	0.69407	-0.382
Mof_I 	I 	0.8701	0.8237	0.7961	-0.335
Mof_I 	I 	0.97244	0.64493	0.86748	-0.351
Mof_I 	I 	0.88225	0.73406	0.93859	-0.382
Mof_I 	I 	0.10526	0.22529	0.59839	-0.383
Mof_I 	I 	0.14424	0.08162	0.49206	-0.368
Mof_Zn	Zn	0.82418	0.85569	0.72092	1.161
Mof_Zn	Zn	0.91713	0.61525	0.90559	1.164
Mof_Zn	Zn	0.12546	0.08414	0.56536	1.164
Mof_N 	N 	0.97744	0.7643	0.5311	-0.146
Mof_N 	N 	0.92425	0.7202	0.5617	-0.135
Mof_N 	N 	0.9626	0.8442	0.5906	-0.133
Mof_C 	C 	0.9836	0.8277	0.5608	0.094
Mof_C 	C 	0.9479	0.7107	0.5342	0.095
Mof_C 	C 	0.9322	0.7906	0.5882	0.106
Mof_N 	N 	0.08084	0.9962	0.5632	-0.277
Mof_C 	C 	0.0624	0.9582	0.5272	0.084
Mof_H 	H 	0.0713	0.9697	0.5013	-0.01
Mof_C 	C 	0.0311	0.9031	0.5245	-0.13
Mof_H 	H 	0.0188	0.8777	0.4975	0.081
Mof_C 	C 	0.0182	0.8857	0.5617	0.057
Mof_C 	C 	0.0379	0.9215	0.6004	-0.128
Mof_H 	H 	0.03	0.9096	0.6267	0.089
Mof_C 	C 	0.0691	0.9743	0.5999	0.076
Mof_H 	H 	0.0832	0.9967	0.6267	-0.013
Mof_N 	N 	0.9309	0.4858	0.451	-0.269
Mof_C 	C 	0.905	0.5053	0.4752	0.06
Mof_H 	H 	0.8828	0.469	0.4734	-0.011
Mof_C 	C 	0.9103	0.5777	0.5026	-0.111
Mof_H 	H 	0.8919	0.5903	0.5197	0.079
Mof_C 	C 	0.9417	0.6315	0.5056	0.05
Mof_C 	C 	0.9687	0.6089	0.4807	-0.114
Mof_H 	H 	0.9911	0.644	0.4821	0.072
Mof_C 	C 	0.9623	0.5355	0.4542	0.069
Mof_H 	H 	0.9809	0.52	0.4377	-0.01
Mof_N 	N 	0.8578	0.8404	0.6749	-0.275
Mof_C 	C 	0.8927	0.8764	0.681	0.079
Mof_H 	H 	0.9007	0.9139	0.7055	-0.02
Mof_C 	C 	0.9177	0.8626	0.6541	-0.122
Mof_H 	H 	0.9424	0.8899	0.66	0.085
Mof_C 	C 	0.9069	0.8091	0.6184	0.062
Mof_C 	C 	0.8698	0.771	0.6109	-0.111
Mof_H 	H 	0.8608	0.7342	0.5864	0.083
Mof_C 	C 	0.8466	0.7888	0.6404	0.068
Mof_H 	H 	0.8217	0.763	0.6356	-0.01
Mof_C 	C 	0.7585	0.3914	0.6992	0.093
Mof_C 	C 	0.8084	0.3998	0.7557	0.099
Mof_C 	C 	0.7927	0.2698	0.7227	0.105
Mof_N 	N 	0.77925	0.4421	0.7291	-0.142
Mof_N 	N 	0.81696	0.3148	0.7528	-0.135
Mof_N 	N 	0.76314	0.3045	0.6942	-0.142
Mof_N 	N 	0.8779	0.5456	0.8597	-0.272
Mof_C 	C 	0.8832	0.4599	0.8538	0.078
Mof_H 	H 	0.9037	0.4308	0.873	-0.004
Mof_C 	C 	0.8606	0.4104	0.821	-0.125
Mof_H 	H 	0.8646	0.3484	0.819	0.096
Mof_C 	C 	0.8323	0.4524	0.7918	0.063
Mof_C 	C 	0.8268	0.5411	0.7975	-0.127
Mof_H 	H 	0.8075	0.5723	0.7777	0.078
Mof_C 	C 	0.8493	0.5854	0.8322	0.07
Mof_H 	H 	0.8442	0.6462	0.8366	-0.01
Mof_N 	N 	0.8128	0.9905	0.721	-0.275
Mof_C 	C 	0.8379	0.0446	0.7443	0.074
Mof_H 	H 	0.8609	0.0201	0.7612	-0.019
Mof_C 	C 	0.8326	0.1356	0.7457	-0.123
Mof_H 	H 	0.8513	0.1718	0.7635	0.084
Mof_C 	C 	0.7997	0.1731	0.7208	0.057
Mof_C 	C 	0.7733	0.1165	0.6957	-0.118
Mof_H 	H 	0.7504	0.1394	0.678	0.077
Mof_C 	C 	0.7806	0.0265	0.6967	0.064
Mof_H 	H 	0.7621	0.9883	0.6797	-0.009
Mof_N 	N 	0.66851	0.5229	0.6103	-0.273
Mof_C 	C 	0.6754	0.4382	0.6051	0.071
Mof_H 	H 	0.6603	0.4077	0.5811	-0.002
Mof_C 	C 	0.7042	0.3915	0.6334	-0.117
Mof_H 	H 	0.7084	0.3302	0.6292	0.085
Mof_C 	C 	0.7265	0.4372	0.6676	0.049
Mof_C 	C 	0.7188	0.5255	0.6734	-0.126
Mof_H 	H 	0.7334	0.558	0.697	0.091
Mof_C 	C 	0.6897	0.5654	0.6444	0.072
Mof_H 	H 	0.6842	0.6261	0.6486	-0.004
Mof_I 	I 	0.8588	0.815	0.7891	-0.038
Mof_I 	I 	0.26258	0.73161	0.19407	-0.382
Mof_I 	I 	0.3701	0.6763	0.2961	-0.335
Mof_I 	I 	0.47244	0.85507	0.36748	-0.351
Mof_I 	I 	0.38225	0.76594	0.43859	-0.382
Mof_I 	I 	0.60526	0.27471	0.09839	-0.383
Mof_I 	I 	0.64424	0.41838	0.99206	-0.368
Mof_Zn	Zn	0.32418	0.64431	0.22092	1.161
Mof_Zn	Zn	0.41713	0.88475	0.40559	1.164
Mof_Zn	Zn	0.62546	0.41586	0.06536	1.164
Mof_N 	N 	0.47744	0.7357	0.0311	-0.146
Mof_N 	N 	0.42425	0.7798	0.0617	-0.135
Mof_N 	N 	0.4626	0.6558	0.0906	-0.133
Mof_C 	C 	0.4836	0.6723	0.0608	0.094
Mof_C 	C 	0.4479	0.7893	0.0342	0.095
Mof_C 	C 	0.4322	0.7094	0.0882	0.106
Mof_N 	N 	0.58084	0.5038	0.0632	-0.277
Mof_C 	C 	0.5624	0.5418	0.0272	0.084
Mof_H 	H 	0.5713	0.5303	0.0013	-0.01
Mof_C 	C 	0.5311	0.5969	0.0245	-0.131
Mof_H 	H 	0.5188	0.6223	0.9975	0.081
Mof_C 	C 	0.5182	0.6143	0.0617	0.057
Mof_C 	C 	0.5379	0.5785	0.1004	-0.128
Mof_H 	H 	0.53	0.5904	0.1267	0.089
Mof_C 	C 	0.5691	0.5257	0.0999	0.076
Mof_H 	H 	0.5832	0.5033	0.1267	-0.013
Mof_N 	N 	0.4309	0.0142	0.951	-0.27
Mof_C 	C 	0.405	0.9947	0.9752	0.062
Mof_H 	H 	0.3828	0.031	0.9734	-0.012
Mof_C 	C 	0.4103	0.9223	0.0026	-0.113
Mof_H 	H 	0.3919	0.9097	0.0197	0.079
Mof_C 	C 	0.4417	0.8685	0.0056	0.05
Mof_C 	C 	0.4687	0.8911	0.9807	-0.115
Mof_H 	H 	0.4911	0.856	0.9821	0.072
Mof_C 	C 	0.4623	0.9645	0.9542	0.07
Mof_H 	H 	0.4809	0.98	0.9377	-0.01
Mof_N 	N 	0.3578	0.6596	0.1749	-0.275
Mof_C 	C 	0.3927	0.6236	0.181	0.079
Mof_H 	H 	0.4007	0.5861	0.2055	-0.02
Mof_C 	C 	0.4177	0.6374	0.1541	-0.122
Mof_H 	H 	0.4424	0.6101	0.16	0.085
Mof_C 	C 	0.4069	0.6909	0.1184	0.062
Mof_C 	C 	0.3698	0.729	0.1109	-0.111
Mof_H 	H 	0.3608	0.7658	0.0864	0.083
Mof_C 	C 	0.3466	0.7112	0.1404	0.068
Mof_H 	H 	0.3217	0.737	0.1356	-0.01
Mof_C 	C 	0.2585	0.1086	0.1992	0.092
Mof_C 	C 	0.3084	0.1002	0.2557	0.099
Mof_C 	C 	0.2927	0.2302	0.2227	0.105
Mof_N 	N 	0.27925	0.0579	0.2291	-0.142
Mof_N 	N 	0.31696	0.1852	0.2528	-0.135
Mof_N 	N 	0.26314	0.1955	0.1942	-0.141
Mof_N 	N 	0.3779	0.9544	0.3597	-0.272
Mof_C 	C 	0.3832	0.0401	0.3538	0.078
Mof_H 	H 	0.4037	0.0692	0.373	-0.004
Mof_C 	C 	0.3606	0.0896	0.321	-0.125
Mof_H 	H 	0.3646	0.1516	0.319	0.096
Mof_C 	C 	0.3323	0.0476	0.2918	0.064
Mof_C 	C 	0.3268	0.9589	0.2975	-0.127
Mof_H 	H 	0.3075	0.9277	0.2777	0.078
Mof_C 	C 	0.3493	0.9146	0.3322	0.07
Mof_H 	H 	0.3442	0.8538	0.3366	-0.01
Mof_N 	N 	0.3128	0.5095	0.221	-0.275
Mof_C 	C 	0.3379	0.4554	0.2443	0.075
Mof_H 	H 	0.3609	0.4799	0.2612	-0.019
Mof_C 	C 	0.3326	0.3644	0.2457	-0.123
Mof_H 	H 	0.3513	0.3282	0.2635	0.084
Mof_C 	C 	0.2997	0.3269	0.2208	0.057
Mof_C 	C 	0.2733	0.3835	0.1957	-0.118
Mof_H 	H 	0.2504	0.3606	0.178	0.078
Mof_C 	C 	0.2806	0.4735	0.1967	0.065
Mof_H 	H 	0.2621	0.5117	0.1797	-0.01
Mof_N 	N 	0.16851	0.9771	0.1103	-0.274
Mof_C 	C 	0.1754	0.0618	0.1051	0.072
Mof_H 	H 	0.1603	0.0923	0.0811	-0.002
Mof_C 	C 	0.2042	0.1085	0.1334	-0.117
Mof_H 	H 	0.2084	0.1698	0.1292	0.085
Mof_C 	C 	0.2265	0.0628	0.1676	0.05
Mof_C 	C 	0.2188	0.9745	0.1734	-0.127
Mof_H 	H 	0.2334	0.942	0.197	0.091
Mof_C 	C 	0.1897	0.9346	0.1444	0.073
Mof_H 	H 	0.1842	0.8739	0.1486	-0.004
Mof_I 	I 	0.3588	0.685	0.2891	-0.038
Mof_I 	I 	0.76258	0.23161	0.19407	-0.382
Mof_I 	I 	0.8701	0.1763	0.2961	-0.335
Mof_I 	I 	0.97244	0.35507	0.36748	-0.351
Mof_I 	I 	0.88225	0.26594	0.43859	-0.382
Mof_I 	I 	0.10526	0.77471	0.09839	-0.383
Mof_I 	I 	0.14424	0.91838	0.99206	-0.368
Mof_Zn	Zn	0.82418	0.14431	0.22092	1.161
Mof_Zn	Zn	0.91713	0.38475	0.40559	1.164
Mof_Zn	Zn	0.12546	0.91586	0.06536	1.164
Mof_N 	N 	0.97744	0.2357	0.0311	-0.146
Mof_N 	N 	0.92425	0.2798	0.0617	-0.135
Mof_N 	N 	0.9626	0.1558	0.0906	-0.133
Mof_C 	C 	0.9836	0.1723	0.0608	0.095
Mof_C 	C 	0.9479	0.2893	0.0342	0.095
Mof_C 	C 	0.9322	0.2094	0.0882	0.106
Mof_N 	N 	0.08084	0.0038	0.0632	-0.276
Mof_C 	C 	0.0624	0.0418	0.0272	0.084
Mof_H 	H 	0.0713	0.0303	0.0013	-0.01
Mof_C 	C 	0.0311	0.0969	0.0245	-0.129
Mof_H 	H 	0.0188	0.1223	0.9975	0.08
Mof_C 	C 	0.0182	0.1143	0.0617	0.057
Mof_C 	C 	0.0379	0.0785	0.1004	-0.128
Mof_H 	H 	0.03	0.0904	0.1267	0.088
Mof_C 	C 	0.0691	0.0257	0.0999	0.076
Mof_H 	H 	0.0832	0.0033	0.1267	-0.013
Mof_N 	N 	0.9309	0.5142	0.951	-0.269
Mof_C 	C 	0.905	0.4947	0.9752	0.06
Mof_H 	H 	0.8828	0.531	0.9734	-0.011
Mof_C 	C 	0.9103	0.4223	0.0026	-0.111
Mof_H 	H 	0.8919	0.4097	0.0197	0.079
Mof_C 	C 	0.9417	0.3685	0.0056	0.05
Mof_C 	C 	0.9687	0.3911	0.9807	-0.115
Mof_H 	H 	0.9911	0.356	0.9821	0.072
Mof_C 	C 	0.9623	0.4645	0.9542	0.069
Mof_H 	H 	0.9809	0.48	0.9377	-0.01
Mof_N 	N 	0.8578	0.1596	0.1749	-0.275
Mof_C 	C 	0.8927	0.1236	0.181	0.079
Mof_H 	H 	0.9007	0.0861	0.2055	-0.02
Mof_C 	C 	0.9177	0.1374	0.1541	-0.122
Mof_H 	H 	0.9424	0.1101	0.16	0.085
Mof_C 	C 	0.9069	0.1909	0.1184	0.062
Mof_C 	C 	0.8698	0.229	0.1109	-0.111
Mof_H 	H 	0.8608	0.2658	0.0864	0.083
Mof_C 	C 	0.8466	0.2112	0.1404	0.068
Mof_H 	H 	0.8217	0.237	0.1356	-0.009
Mof_C 	C 	0.7585	0.6086	0.1992	0.093
Mof_C 	C 	0.8084	0.6002	0.2557	0.099
Mof_C 	C 	0.7927	0.7302	0.2227	0.105
Mof_N 	N 	0.77925	0.5579	0.2291	-0.142
Mof_N 	N 	0.81696	0.6852	0.2528	-0.135
Mof_N 	N 	0.76314	0.6955	0.1942	-0.142
Mof_N 	N 	0.8779	0.4544	0.3597	-0.272
Mof_C 	C 	0.8832	0.5401	0.3538	0.078
Mof_H 	H 	0.9037	0.5692	0.373	-0.004
Mof_C 	C 	0.8606	0.5896	0.321	-0.125
Mof_H 	H 	0.8646	0.6516	0.319	0.096
Mof_C 	C 	0.8323	0.5476	0.2918	0.063
Mof_C 	C 	0.8268	0.4589	0.2975	-0.127
Mof_H 	H 	0.8075	0.4277	0.2777	0.078
Mof_C 	C 	0.8493	0.4146	0.3322	0.07
Mof_H 	H 	0.8442	0.3538	0.3366	-0.01
Mof_N 	N 	0.8128	0.0095	0.221	-0.275
Mof_C 	C 	0.8379	0.9554	0.2443	0.074
Mof_H 	H 	0.8609	0.9799	0.2612	-0.019
Mof_C 	C 	0.8326	0.8644	0.2457	-0.123
Mof_H 	H 	0.8513	0.8282	0.2635	0.084
Mof_C 	C 	0.7997	0.8269	0.2208	0.056
Mof_C 	C 	0.7733	0.8835	0.1957	-0.117
Mof_H 	H 	0.7504	0.8606	0.178	0.077
Mof_C 	C 	0.7806	0.9735	0.1967	0.064
Mof_H 	H 	0.7621	0.0117	0.1797	-0.009
Mof_N 	N 	0.66851	0.4771	0.1103	-0.273
Mof_C 	C 	0.6754	0.5618	0.1051	0.071
Mof_H 	H 	0.6603	0.5923	0.0811	-0.002
Mof_C 	C 	0.7042	0.6085	0.1334	-0.117
Mof_H 	H 	0.7084	0.6698	0.1292	0.085
Mof_C 	C 	0.7265	0.5628	0.1676	0.049
Mof_C 	C 	0.7188	0.4745	0.1734	-0.126
Mof_H 	H 	0.7334	0.442	0.197	0.091
Mof_C 	C 	0.6897	0.4346	0.1444	0.072
Mof_H 	H 	0.6842	0.3739	0.1486	-0.004
Mof_I 	I 	0.8588	0.185	0.2891	-0.038
_end
