data_functionalizedCrystal
_audit_creation_method	'EQeq! by Chris Wilmer'
_symmetry_space_group_name_H-M	'P1'
_symmetry_Int_Tables_number	1
_symmetry_cell_setting	triclinic
loop_
_symmetry_equiv_pos_as_xyz
  x,y,z
_cell_length_a	15.401
_cell_length_b	17.3812
_cell_length_c	15.0538
_cell_angle_alpha	90
_cell_angle_beta	120.435
_cell_angle_gamma	90
loop_
_atom_site_label
_atom_site_type_symbol
_atom_site_fract_x
_atom_site_fract_y
_atom_site_fract_z
_atom_site_charge
Mof_Cd	Cd	0.36611	0.36744	0.71423	0.491
Mof_Br	Br	0.63795	0.36721	0.30801	-0.214
Mof_Br	Br	0.03682	0.40109	0.12956	-0.186
Mof_O 	O 	0.4488	0.32964	0.8825	-0.269
Mof_O 	O 	0.5761	0.2862	0.8654	-0.257
Mof_O 	O 	0.4044	0.5073	0.5711	-0.268
Mof_O 	O 	0.2845	0.4237	0.5497	-0.263
Mof_H 	H 	0.5227	0.4705	0.8065	0.409
Mof_N 	N 	0.7385	0.2203	0.1668	-0.113
Mof_N 	N 	0.2812	0.5449	0.2641	-0.107
Mof_C 	C 	0.7248	0.2596	0.2352	-0.034
Mof_H 	H 	0.7686	0.2512	0.3051	0.088
Mof_C 	C 	0.6481	0.3118	0.2054	0.134
Mof_C 	C 	0.5817	0.3257	0.1022	-0.08
Mof_H 	H 	0.5285	0.3601	0.0811	0.105
Mof_C 	C 	0.5973	0.2865	0.031	-0.045
Mof_C 	C 	0.6762	0.235	0.0664	0.049
Mof_H 	H 	0.6866	0.2092	0.0185	0.051
Mof_C 	C 	0.5351	0.302	0.9171	0.321
Mof_C 	C 	0.1978	0.5068	0.1972	-0.032
Mof_H 	H 	0.1698	0.5158	0.127	0.097
Mof_C 	C 	0.1526	0.4548	0.2295	0.142
Mof_C 	C 	0.1907	0.4405	0.3328	-0.087
Mof_H 	H 	0.1603	0.4052	0.3548	0.118
Mof_C 	C 	0.2758	0.4807	0.4025	-0.029
Mof_C 	C 	0.319	0.5315	0.3647	0.041
Mof_H 	H 	0.3772	0.5575	0.4116	0.058
Mof_C 	C 	0.3257	0.4692	0.5178	0.311
Mof_Cd	Cd	0.86611	0.86744	0.71423	0.475
Mof_Br	Br	0.13795	0.86721	0.30801	-0.194
Mof_Br	Br	0.53682	0.90109	0.12956	-0.218
Mof_O 	O 	0.9488	0.82964	0.8825	-0.308
Mof_O 	O 	0.0761	0.7862	0.8654	-0.259
Mof_O 	O 	0.9044	0.0073	0.5711	-0.275
Mof_O 	O 	0.7845	0.9237	0.5497	-0.266
Mof_H 	H 	0.0227	0.9705	0.8065	0.388
Mof_N 	N 	0.2385	0.7203	0.1668	-0.113
Mof_N 	N 	0.7812	0.0449	0.2641	-0.108
Mof_C 	C 	0.2248	0.7596	0.2352	-0.031
Mof_H 	H 	0.2686	0.7512	0.3051	0.09
Mof_C 	C 	0.1481	0.8118	0.2054	0.136
Mof_C 	C 	0.0817	0.8257	0.1022	-0.073
Mof_H 	H 	0.0285	0.8601	0.0811	0.117
Mof_C 	C 	0.0973	0.7865	0.031	-0.047
Mof_C 	C 	0.1762	0.735	0.0664	0.056
Mof_H 	H 	0.1866	0.7092	0.0185	0.052
Mof_C 	C 	0.0351	0.802	0.9171	0.365
Mof_C 	C 	0.6978	0.0068	0.1972	-0.037
Mof_H 	H 	0.6698	0.0158	0.127	0.093
Mof_C 	C 	0.6526	0.9548	0.2295	0.144
Mof_C 	C 	0.6907	0.9405	0.3328	-0.089
Mof_H 	H 	0.6603	0.9052	0.3548	0.113
Mof_C 	C 	0.7758	0.9807	0.4025	-0.031
Mof_C 	C 	0.819	0.0315	0.3647	0.038
Mof_H 	H 	0.8772	0.0575	0.4116	0.052
Mof_C 	C 	0.8257	0.9692	0.5178	0.311
Mof_Cd	Cd	0.63389	0.36744	0.78577	0.49
Mof_Br	Br	0.36205	0.36721	0.19199	-0.21
Mof_Br	Br	0.96318	0.40109	0.37044	-0.252
Mof_O 	O 	0.5512	0.32964	0.6175	-0.268
Mof_O 	O 	0.4239	0.2862	0.6346	-0.256
Mof_O 	O 	0.5956	0.5073	0.9289	-0.269
Mof_O 	O 	0.7155	0.4237	0.9503	-0.269
Mof_H 	H 	0.4773	0.4705	0.6935	0.409
Mof_N 	N 	0.2615	0.2203	0.3332	-0.112
Mof_N 	N 	0.7188	0.5449	0.2359	-0.109
Mof_C 	C 	0.2752	0.2596	0.2648	-0.034
Mof_H 	H 	0.2314	0.2512	0.1949	0.091
Mof_C 	C 	0.3519	0.3118	0.2946	0.136
Mof_C 	C 	0.4183	0.3257	0.3978	-0.083
Mof_H 	H 	0.4715	0.3601	0.4189	0.106
Mof_C 	C 	0.4027	0.2865	0.469	-0.038
Mof_C 	C 	0.3238	0.235	0.4336	0.048
Mof_H 	H 	0.3134	0.2092	0.4815	0.053
Mof_C 	C 	0.4649	0.302	0.5829	0.315
Mof_C 	C 	0.8022	0.5068	0.3028	-0.035
Mof_H 	H 	0.8302	0.5158	0.373	0.088
Mof_C 	C 	0.8474	0.4548	0.2705	0.139
Mof_C 	C 	0.8093	0.4405	0.1672	-0.087
Mof_H 	H 	0.8397	0.4052	0.1452	0.105
Mof_C 	C 	0.7242	0.4807	0.0975	-0.039
Mof_C 	C 	0.681	0.5315	0.1353	0.042
Mof_H 	H 	0.6228	0.5575	0.0884	0.056
Mof_C 	C 	0.6743	0.4692	0.9822	0.316
Mof_Cd	Cd	0.13389	0.86744	0.78577	0.495
Mof_Br	Br	0.86205	0.86721	0.19199	-0.227
Mof_Br	Br	0.46318	0.90109	0.37044	-0.217
Mof_O 	O 	0.0512	0.82964	0.6175	-0.228
Mof_O 	O 	0.9239	0.7862	0.6346	-0.255
Mof_O 	O 	0.0956	0.0073	0.9289	-0.249
Mof_O 	O 	0.2155	0.9237	0.9503	-0.264
Mof_H 	H 	0.9773	0.9705	0.6935	0.353
Mof_N 	N 	0.7615	0.7203	0.3332	-0.111
Mof_N 	N 	0.2188	0.0449	0.2359	-0.106
Mof_C 	C 	0.7752	0.7596	0.2648	-0.038
Mof_H 	H 	0.7314	0.7512	0.1949	0.089
Mof_C 	C 	0.8519	0.8118	0.2946	0.135
Mof_C 	C 	0.9183	0.8257	0.3978	-0.093
Mof_H 	H 	0.9715	0.8601	0.4189	0.097
Mof_C 	C 	0.9027	0.7865	0.469	-0.029
Mof_C 	C 	0.8238	0.735	0.4336	0.038
Mof_H 	H 	0.8134	0.7092	0.4815	0.054
Mof_C 	C 	0.9649	0.802	0.5829	0.263
Mof_C 	C 	0.3022	0.0068	0.3028	-0.036
Mof_H 	H 	0.3302	0.0158	0.373	0.094
Mof_C 	C 	0.3474	0.9548	0.2705	0.144
Mof_C 	C 	0.3093	0.9405	0.1672	-0.093
Mof_H 	H 	0.3397	0.9052	0.1452	0.114
Mof_C 	C 	0.2242	0.9807	0.0975	-0.024
Mof_C 	C 	0.181	0.0315	0.1353	0.035
Mof_H 	H 	0.1228	0.0575	0.0884	0.064
Mof_C 	C 	0.1743	0.9692	0.9822	0.303
Mof_Cd	Cd	0.63389	0.63256	0.28577	0.49
Mof_Br	Br	0.36205	0.63279	0.69199	-0.209
Mof_Br	Br	0.96318	0.59891	0.87044	-0.248
Mof_O 	O 	0.5512	0.67036	0.1175	-0.268
Mof_O 	O 	0.4239	0.7138	0.1346	-0.256
Mof_O 	O 	0.5956	0.4927	0.4289	-0.268
Mof_O 	O 	0.7155	0.5763	0.4503	-0.269
Mof_H 	H 	0.4773	0.5295	0.1935	0.408
Mof_N 	N 	0.2615	0.7797	0.8332	-0.111
Mof_N 	N 	0.7188	0.4551	0.7359	-0.109
Mof_C 	C 	0.2752	0.7404	0.7648	-0.035
Mof_H 	H 	0.2314	0.7488	0.6949	0.092
Mof_C 	C 	0.3519	0.6882	0.7946	0.137
Mof_C 	C 	0.4183	0.6743	0.8978	-0.085
Mof_H 	H 	0.4715	0.6399	0.9189	0.108
Mof_C 	C 	0.4027	0.7135	0.969	-0.033
Mof_C 	C 	0.3238	0.765	0.9336	0.046
Mof_H 	H 	0.3134	0.7908	0.9815	0.055
Mof_C 	C 	0.4649	0.698	0.0829	0.312
Mof_C 	C 	0.8022	0.4932	0.8028	-0.036
Mof_H 	H 	0.8302	0.4842	0.873	0.089
Mof_C 	C 	0.8474	0.5452	0.7705	0.14
Mof_C 	C 	0.8093	0.5595	0.6672	-0.09
Mof_H 	H 	0.8397	0.5948	0.6452	0.107
Mof_C 	C 	0.7242	0.5193	0.5975	-0.033
Mof_C 	C 	0.681	0.4685	0.6353	0.039
Mof_H 	H 	0.6228	0.4425	0.5884	0.058
Mof_C 	C 	0.6743	0.5308	0.4822	0.311
Mof_Cd	Cd	0.13389	0.13256	0.28577	0.495
Mof_Br	Br	0.86205	0.13279	0.69199	-0.227
Mof_Br	Br	0.46318	0.09891	0.87044	-0.214
Mof_O 	O 	0.0512	0.17036	0.1175	-0.226
Mof_O 	O 	0.9239	0.2138	0.1346	-0.254
Mof_O 	O 	0.0956	0.9927	0.4289	-0.254
Mof_O 	O 	0.2155	0.0763	0.4503	-0.265
Mof_H 	H 	0.9773	0.0295	0.1935	0.349
Mof_N 	N 	0.7615	0.2797	0.8332	-0.11
Mof_N 	N 	0.2188	0.9551	0.7359	-0.106
Mof_C 	C 	0.7752	0.2404	0.7648	-0.039
Mof_H 	H 	0.7314	0.2488	0.6949	0.09
Mof_C 	C 	0.8519	0.1882	0.7946	0.138
Mof_C 	C 	0.9183	0.1743	0.8978	-0.098
Mof_H 	H 	0.9715	0.1399	0.9189	0.1
Mof_C 	C 	0.9027	0.2135	0.969	-0.018
Mof_C 	C 	0.8238	0.265	0.9336	0.034
Mof_H 	H 	0.8134	0.2908	0.9815	0.058
Mof_C 	C 	0.9649	0.198	0.0829	0.253
Mof_C 	C 	0.3022	0.9932	0.8028	-0.037
Mof_H 	H 	0.3302	0.9842	0.873	0.094
Mof_C 	C 	0.3474	0.0452	0.7705	0.145
Mof_C 	C 	0.3093	0.0595	0.6672	-0.093
Mof_H 	H 	0.3397	0.0948	0.6452	0.114
Mof_C 	C 	0.2242	0.0193	0.5975	-0.025
Mof_C 	C 	0.181	0.9685	0.6353	0.036
Mof_H 	H 	0.1228	0.9425	0.5884	0.065
Mof_C 	C 	0.1743	0.0308	0.4822	0.307
Mof_Cd	Cd	0.36611	0.63256	0.21423	0.492
Mof_Br	Br	0.63795	0.63279	0.80801	-0.213
Mof_Br	Br	0.03682	0.59891	0.62956	-0.183
Mof_O 	O 	0.4488	0.67036	0.3825	-0.268
Mof_O 	O 	0.5761	0.7138	0.3654	-0.256
Mof_O 	O 	0.4044	0.4927	0.0711	-0.268
Mof_O 	O 	0.2845	0.5763	0.0497	-0.263
Mof_H 	H 	0.5227	0.5295	0.3065	0.409
Mof_N 	N 	0.7385	0.7797	0.6668	-0.112
Mof_N 	N 	0.2812	0.4551	0.7641	-0.107
Mof_C 	C 	0.7248	0.7404	0.7352	-0.035
Mof_H 	H 	0.7686	0.7488	0.8051	0.089
Mof_C 	C 	0.6481	0.6882	0.7054	0.136
Mof_C 	C 	0.5817	0.6743	0.6022	-0.083
Mof_H 	H 	0.5285	0.6399	0.5811	0.107
Mof_C 	C 	0.5973	0.7135	0.531	-0.037
Mof_C 	C 	0.6762	0.765	0.5664	0.046
Mof_H 	H 	0.6866	0.7908	0.5185	0.054
Mof_C 	C 	0.5351	0.698	0.4171	0.315
Mof_C 	C 	0.1978	0.4932	0.6972	-0.032
Mof_H 	H 	0.1698	0.4842	0.627	0.098
Mof_C 	C 	0.1526	0.5452	0.7295	0.143
Mof_C 	C 	0.1907	0.5595	0.8328	-0.089
Mof_H 	H 	0.1603	0.5948	0.8548	0.119
Mof_C 	C 	0.2758	0.5193	0.9025	-0.024
Mof_C 	C 	0.319	0.4685	0.8647	0.039
Mof_H 	H 	0.3772	0.4425	0.9116	0.06
Mof_C 	C 	0.3257	0.5308	0.0178	0.307
Mof_Cd	Cd	0.86611	0.13256	0.21423	0.473
Mof_Br	Br	0.13795	0.13279	0.80801	-0.192
Mof_Br	Br	0.53682	0.09891	0.62956	-0.217
Mof_O 	O 	0.9488	0.17036	0.3825	-0.311
Mof_O 	O 	0.0761	0.2138	0.3654	-0.259
Mof_O 	O 	0.9044	0.9927	0.0711	-0.27
Mof_O 	O 	0.7845	0.0763	0.0497	-0.265
Mof_H 	H 	0.0227	0.0295	0.3065	0.388
Mof_N 	N 	0.2385	0.2797	0.6668	-0.113
Mof_N 	N 	0.7812	0.9551	0.7641	-0.107
Mof_C 	C 	0.2248	0.2404	0.7352	-0.031
Mof_H 	H 	0.2686	0.2488	0.8051	0.09
Mof_C 	C 	0.1481	0.1882	0.7054	0.136
Mof_C 	C 	0.0817	0.1743	0.6022	-0.073
Mof_H 	H 	0.0285	0.1399	0.5811	0.117
Mof_C 	C 	0.0973	0.2135	0.531	-0.046
Mof_C 	C 	0.1762	0.265	0.5664	0.056
Mof_H 	H 	0.1866	0.2908	0.5185	0.053
Mof_C 	C 	0.0351	0.198	0.4171	0.367
Mof_C 	C 	0.6978	0.9932	0.6972	-0.037
Mof_H 	H 	0.6698	0.9842	0.627	0.094
Mof_C 	C 	0.6526	0.0452	0.7295	0.146
Mof_C 	C 	0.6907	0.0595	0.8328	-0.095
Mof_H 	H 	0.6603	0.0948	0.8548	0.116
Mof_C 	C 	0.7758	0.0193	0.9025	-0.019
Mof_C 	C 	0.819	0.9685	0.8647	0.032
Mof_H 	H 	0.8772	0.9425	0.9116	0.055
Mof_C 	C 	0.8257	0.0308	0.0178	0.298
Mof_O 	O 	0.5	0.4463	0.75	-0.776
Mof_O 	O 	-6.54418e-17	0.9463	0.75	-0.695
Mof_O 	O 	0.5	0.5537	0.25	-0.776
Mof_O 	O 	1.38034e-33	0.0537	0.25	-0.69
_end
