# CIF file generated by openbabel 3.1.0, see https://openbabel.org
data_I
_chemical_name_common 'image0'
_cell_length_a 30.353
_cell_length_b 4.8595
_cell_length_c 18.323
_cell_angle_alpha 90
_cell_angle_beta 118.123
_cell_angle_gamma 90
_space_group_name_H-M_alt 'P 1'
_space_group_name_Hall 'P 1'
loop_
    _symmetry_equiv_pos_as_xyz
    x,y,z
loop_
    _atom_site_label
    _atom_site_type_symbol
    _atom_site_fract_x
    _atom_site_fract_y
    _atom_site_fract_z
    _atom_site_occupancy
    C1       C        0.82870    0.28800    0.09230    1.000
    C2       C        0.88060    0.15100    0.14010    1.000
    H1       H        0.87620    0.95060    0.13640    1.000
    C3       C        0.91180    0.23200    0.09750    1.000
    H2       H        0.89620    0.15860    0.04180    1.000
    H3       H        0.91220    0.43140    0.09360    1.000
    C4       C        0.96500    0.12700    0.14450    1.000
    H4       H        0.96510    0.92770    0.14010    1.000
    H5       H        0.98470    0.20130    0.11990    1.000
    C5       C        0.96010    0.11200    0.27310    1.000
    H6       H        0.97710    0.16800    0.33060    1.000
    H7       H        0.95830    0.91240    0.27120    1.000
    C6       C        0.90730    0.23300    0.23070    1.000
    H8       H        0.88870    0.16580    0.25800    1.000
    H9       H        0.90920    0.43150    0.23530    1.000
    C7       C        0.02170    0.40700    0.26230    1.000
    C8       C        0.07430    0.67500    0.37100    1.000
    C9       C        0.07540    0.70100    0.25000    1.000
    C10      C        0.17560    0.73400    0.71260    1.000
    C11      C        0.13700    0.82600    0.62640    1.000
    H10      H        0.12300    0.00090    0.63220    1.000
    C12      C        0.16470    0.87900    0.57600    1.000
    H11      H        0.18240    0.71410    0.57530    1.000
    H12      H        0.18920    0.02400    0.60250    1.000
    C13      C        0.12860    0.96500    0.48610    1.000
    H13      H        0.11470    0.14550    0.48580    1.000
    H14      H        0.14650    0.97580    0.45420    1.000
    C14      C        0.06030    0.71100    0.49170    1.000
    H15      H        0.03690    0.56240    0.46410    1.000
    H16      H        0.04120    0.87330    0.49000    1.000
    C15      C        0.09460    0.63100    0.58140    1.000
    H17      H        0.07500    0.62120    0.61050    1.000
    H18      H        0.10810    0.44940    0.58250    1.000
    C16      C        0.20020    0.73500    0.11690    1.000
    C17      C        0.15840    0.85800    0.12850    1.000
    H19      H        0.14960    0.03600    0.09990    1.000
    C18      C        0.11320    0.68400    0.09370    1.000
    H20      H        0.12300    0.49630    0.11250    1.000
    H21      H        0.09870    0.68430    0.03390    1.000
    C19      C        0.07400    0.77400    0.11700    1.000
    H22      H        0.05820    0.94090    0.08720    1.000
    H23      H        0.04850    0.63260    0.10070    1.000
    C20      C        0.13560    0.01200    0.24000    1.000
    H24      H        0.14750    0.02220    0.29920    1.000
    H25      H        0.12480    0.19350    0.21670    1.000
    C21      C        0.17770    0.91000    0.22270    1.000
    H26      H        0.19160    0.74140    0.25300    1.000
    H27      H        0.20410    0.04690    0.24210    1.000
    N1       N        0.98780    0.20600    0.23200    1.000
    N2       N        0.03560    0.49300    0.34060    1.000
    N3       N        0.09640    0.77100    0.33070    1.000
    N4       N        0.03970    0.51400    0.21310    1.000
    N5       N        0.08870    0.76600    0.44920    1.000
    N6       N        0.09490    0.82200    0.20350    1.000
    O1       O        0.82470    0.52600    0.10180    1.000
    O2       O        0.79330    0.12800    0.04260    1.000
    O3       O        0.18810    0.47400    0.71230    1.000
    H28      H        0.20920    0.46380    0.69640    1.000
    O4       O        0.19000    0.86800    0.77340    1.000
    O5       O        0.24000    0.86600    0.13700    1.000
    O6       O        0.19610    0.49500    0.09030    1.000
    Cd1      Cd       0.75938    0.78000    0.08613    1.000
    C22      C        0.32870    0.78800    0.09230    1.000
    C23      C        0.38060    0.65100    0.14010    1.000
    H29      H        0.37620    0.45060    0.13640    1.000
    C24      C        0.41180    0.73200    0.09750    1.000
    H30      H        0.39620    0.65860    0.04180    1.000
    H31      H        0.41220    0.93140    0.09360    1.000
    C25      C        0.46500    0.62700    0.14450    1.000
    H32      H        0.46510    0.42770    0.14010    1.000
    H33      H        0.48470    0.70130    0.11990    1.000
    C26      C        0.46010    0.61200    0.27310    1.000
    H34      H        0.47710    0.66800    0.33060    1.000
    H35      H        0.45830    0.41240    0.27120    1.000
    C27      C        0.40730    0.73300    0.23070    1.000
    H36      H        0.38870    0.66580    0.25800    1.000
    H37      H        0.40920    0.93150    0.23530    1.000
    C28      C        0.52170    0.90700    0.26230    1.000
    C29      C        0.57430    0.17500    0.37100    1.000
    C30      C        0.57540    0.20100    0.25000    1.000
    C31      C        0.67560    0.23400    0.71260    1.000
    C32      C        0.63700    0.32600    0.62640    1.000
    H38      H        0.62300    0.50090    0.63220    1.000
    C33      C        0.66470    0.37900    0.57600    1.000
    H39      H        0.68240    0.21410    0.57530    1.000
    H40      H        0.68920    0.52400    0.60250    1.000
    C34      C        0.62860    0.46500    0.48610    1.000
    H41      H        0.61470    0.64550    0.48580    1.000
    H42      H        0.64650    0.47580    0.45420    1.000
    C35      C        0.56030    0.21100    0.49170    1.000
    H43      H        0.53690    0.06240    0.46410    1.000
    H44      H        0.54120    0.37330    0.49000    1.000
    C36      C        0.59460    0.13100    0.58140    1.000
    H45      H        0.57500    0.12120    0.61050    1.000
    H46      H        0.60810    0.94940    0.58250    1.000
    C37      C        0.70020    0.23500    0.11690    1.000
    C38      C        0.65840    0.35800    0.12850    1.000
    H47      H        0.64960    0.53600    0.09990    1.000
    C39      C        0.61320    0.18400    0.09370    1.000
    H48      H        0.62300    0.99630    0.11250    1.000
    H49      H        0.59870    0.18430    0.03390    1.000
    C40      C        0.57400    0.27400    0.11700    1.000
    H50      H        0.55820    0.44090    0.08720    1.000
    H51      H        0.54850    0.13260    0.10070    1.000
    C41      C        0.63560    0.51200    0.24000    1.000
    H52      H        0.64750    0.52220    0.29920    1.000
    H53      H        0.62480    0.69350    0.21670    1.000
    C42      C        0.67770    0.41000    0.22270    1.000
    H54      H        0.69160    0.24140    0.25300    1.000
    H55      H        0.70410    0.54690    0.24210    1.000
    N7       N        0.48780    0.70600    0.23200    1.000
    N8       N        0.53560    0.99300    0.34060    1.000
    N9       N        0.59640    0.27100    0.33070    1.000
    N10      N        0.53970    0.01400    0.21310    1.000
    N11      N        0.58870    0.26600    0.44920    1.000
    N12      N        0.59490    0.32200    0.20350    1.000
    O7       O        0.32470    0.02600    0.10180    1.000
    O8       O        0.29330    0.62800    0.04260    1.000
    O9       O        0.68810    0.97400    0.71230    1.000
    H56      H        0.70920    0.96380    0.69640    1.000
    O10      O        0.69000    0.36800    0.77340    1.000
    O11      O        0.74000    0.36600    0.13700    1.000
    O12      O        0.69610    0.99500    0.09030    1.000
    Cd2      Cd       0.25938    0.28000    0.08613    1.000
    C43      C        0.17130    0.28800    0.90770    1.000
    C44      C        0.11940    0.15100    0.85990    1.000
    H57      H        0.12380    0.95060    0.86360    1.000
    C45      C        0.08820    0.23200    0.90250    1.000
    H58      H        0.10380    0.15860    0.95820    1.000
    H59      H        0.08780    0.43140    0.90640    1.000
    C46      C        0.03500    0.12700    0.85550    1.000
    H60      H        0.03490    0.92770    0.85990    1.000
    H61      H        0.01530    0.20130    0.88010    1.000
    C47      C        0.03990    0.11200    0.72690    1.000
    H62      H        0.02290    0.16800    0.66940    1.000
    H63      H        0.04170    0.91240    0.72880    1.000
    C48      C        0.09270    0.23300    0.76930    1.000
    H64      H        0.11130    0.16580    0.74200    1.000
    H65      H        0.09080    0.43150    0.76470    1.000
    C49      C        0.97830    0.40700    0.73770    1.000
    C50      C        0.92570    0.67500    0.62900    1.000
    C51      C        0.92460    0.70100    0.75000    1.000
    C52      C        0.82440    0.73400    0.28740    1.000
    C53      C        0.86300    0.82600    0.37360    1.000
    H66      H        0.87700    0.00090    0.36780    1.000
    C54      C        0.83530    0.87900    0.42400    1.000
    H67      H        0.81760    0.71410    0.42470    1.000
    H68      H        0.81080    0.02400    0.39750    1.000
    C55      C        0.87140    0.96500    0.51390    1.000
    H69      H        0.88530    0.14550    0.51420    1.000
    H70      H        0.85350    0.97580    0.54580    1.000
    C56      C        0.93970    0.71100    0.50830    1.000
    H71      H        0.96310    0.56240    0.53590    1.000
    H72      H        0.95880    0.87330    0.51000    1.000
    C57      C        0.90540    0.63100    0.41860    1.000
    H73      H        0.92500    0.62120    0.38950    1.000
    H74      H        0.89190    0.44940    0.41750    1.000
    C58      C        0.79980    0.73500    0.88310    1.000
    C59      C        0.84160    0.85800    0.87150    1.000
    H75      H        0.85040    0.03600    0.90010    1.000
    C60      C        0.88680    0.68400    0.90630    1.000
    H76      H        0.87700    0.49630    0.88750    1.000
    H77      H        0.90130    0.68430    0.96610    1.000
    C61      C        0.92600    0.77400    0.88300    1.000
    H78      H        0.94180    0.94090    0.91280    1.000
    H79      H        0.95150    0.63260    0.89930    1.000
    C62      C        0.86440    0.01200    0.76000    1.000
    H80      H        0.85250    0.02220    0.70080    1.000
    H81      H        0.87520    0.19350    0.78330    1.000
    C63      C        0.82230    0.91000    0.77730    1.000
    H82      H        0.80840    0.74140    0.74700    1.000
    H83      H        0.79590    0.04690    0.75790    1.000
    N13      N        0.01220    0.20600    0.76800    1.000
    N14      N        0.96440    0.49300    0.65940    1.000
    N15      N        0.90360    0.77100    0.66930    1.000
    N16      N        0.96030    0.51400    0.78690    1.000
    N17      N        0.91130    0.76600    0.55080    1.000
    N18      N        0.90510    0.82200    0.79650    1.000
    O13      O        0.17530    0.52600    0.89820    1.000
    O14      O        0.20670    0.12800    0.95740    1.000
    O15      O        0.81190    0.47400    0.28770    1.000
    H84      H        0.79080    0.46380    0.30360    1.000
    O16      O        0.81000    0.86800    0.22660    1.000
    O17      O        0.76000    0.86600    0.86300    1.000
    O18      O        0.80390    0.49500    0.90970    1.000
    Cd3      Cd       0.24062    0.78000    0.91387    1.000
    C64      C        0.67130    0.78800    0.90770    1.000
    C65      C        0.61940    0.65100    0.85990    1.000
    H85      H        0.62380    0.45060    0.86360    1.000
    C66      C        0.58820    0.73200    0.90250    1.000
    H86      H        0.60380    0.65860    0.95820    1.000
    H87      H        0.58780    0.93140    0.90640    1.000
    C67      C        0.53500    0.62700    0.85550    1.000
    H88      H        0.53490    0.42770    0.85990    1.000
    H89      H        0.51530    0.70130    0.88010    1.000
    C68      C        0.53990    0.61200    0.72690    1.000
    H90      H        0.52290    0.66800    0.66940    1.000
    H91      H        0.54170    0.41240    0.72880    1.000
    C69      C        0.59270    0.73300    0.76930    1.000
    H92      H        0.61130    0.66580    0.74200    1.000
    H93      H        0.59080    0.93150    0.76470    1.000
    C70      C        0.47830    0.90700    0.73770    1.000
    C71      C        0.42570    0.17500    0.62900    1.000
    C72      C        0.42460    0.20100    0.75000    1.000
    C73      C        0.32440    0.23400    0.28740    1.000
    C74      C        0.36300    0.32600    0.37360    1.000
    H94      H        0.37700    0.50090    0.36780    1.000
    C75      C        0.33530    0.37900    0.42400    1.000
    H95      H        0.31760    0.21410    0.42470    1.000
    H96      H        0.31080    0.52400    0.39750    1.000
    C76      C        0.37140    0.46500    0.51390    1.000
    H97      H        0.38530    0.64550    0.51420    1.000
    H98      H        0.35350    0.47580    0.54580    1.000
    C77      C        0.43970    0.21100    0.50830    1.000
    H99      H        0.46310    0.06240    0.53590    1.000
    H100     H        0.45880    0.37330    0.51000    1.000
    C78      C        0.40540    0.13100    0.41860    1.000
    H101     H        0.42500    0.12120    0.38950    1.000
    H102     H        0.39190    0.94940    0.41750    1.000
    C79      C        0.29980    0.23500    0.88310    1.000
    C80      C        0.34160    0.35800    0.87150    1.000
    H103     H        0.35040    0.53600    0.90010    1.000
    C81      C        0.38680    0.18400    0.90630    1.000
    H104     H        0.37700    0.99630    0.88750    1.000
    H105     H        0.40130    0.18430    0.96610    1.000
    C82      C        0.42600    0.27400    0.88300    1.000
    H106     H        0.44180    0.44090    0.91280    1.000
    H107     H        0.45150    0.13260    0.89930    1.000
    C83      C        0.36440    0.51200    0.76000    1.000
    H108     H        0.35250    0.52220    0.70080    1.000
    H109     H        0.37520    0.69350    0.78330    1.000
    C84      C        0.32230    0.41000    0.77730    1.000
    H110     H        0.30840    0.24140    0.74700    1.000
    H111     H        0.29590    0.54690    0.75790    1.000
    N19      N        0.51220    0.70600    0.76800    1.000
    N20      N        0.46440    0.99300    0.65940    1.000
    N21      N        0.40360    0.27100    0.66930    1.000
    N22      N        0.46030    0.01400    0.78690    1.000
    N23      N        0.41130    0.26600    0.55080    1.000
    N24      N        0.40510    0.32200    0.79650    1.000
    O19      O        0.67530    0.02600    0.89820    1.000
    O20      O        0.70670    0.62800    0.95740    1.000
    O21      O        0.31190    0.97400    0.28770    1.000
    H112     H        0.29080    0.96380    0.30360    1.000
    O22      O        0.31000    0.36800    0.22660    1.000
    O23      O        0.26000    0.36600    0.86300    1.000
    O24      O        0.30390    0.99500    0.90970    1.000
    Cd4      Cd       0.74062    0.28000    0.91387    1.000
