data_functionalizedCrystal
_audit_creation_method	'EQeq! by Chris Wilmer'
_symmetry_space_group_name_H-M	'P1'
_symmetry_Int_Tables_number	1
_symmetry_cell_setting	triclinic
loop_
_symmetry_equiv_pos_as_xyz
  x,y,z
_cell_length_a	8.4653
_cell_length_b	9.9387
_cell_length_c	25.115
_cell_angle_alpha	90.56
_cell_angle_beta	90
_cell_angle_gamma	90
loop_
_atom_site_label
_atom_site_type_symbol
_atom_site_fract_x
_atom_site_fract_y
_atom_site_fract_z
_atom_site_charge
Mof_Co	Co	0.67333	0.25494	0.91237	1.147
Mof_Co	Co	0.2959	0.31571	0.90214	1.108
Mof_Co	Co	0.17333	0.24506	0.58763	1.132
Mof_Co	Co	0.7959	0.18429	0.59786	1.106
Mof_Co	Co	0.32667	0.74506	0.08763	1.14
Mof_Co	Co	0.7041	0.68429	0.09786	1.109
Mof_Co	Co	0.82667	0.75494	0.41237	1.151
Mof_Co	Co	0.2041	0.81571	0.40214	1.112
Mof_Co	Co	0.5	0.5	-0	1.153
Mof_Co	Co	3.54682e-33	0	0.5	1.142
Mof_H 	H 	0.01	0.9488	0.8137	0.043
Mof_H 	H 	0.968	0.5471	0.8311	0.046
Mof_H 	H 	0.7259	0.7998	0.927	0.051
Mof_H 	H 	0.1997	0.7969	0.7686	0.123
Mof_H 	H 	0.1958	0.6413	0.7791	0.117
Mof_H 	H 	0.0193	0.8908	0.7016	0.101
Mof_H 	H 	0.8428	0.6465	0.5889	0.06
Mof_H 	H 	0.0506	0.4913	0.7184	0.087
Mof_H 	H 	0.4649	0.2487	0.9831	0.163
Mof_H 	H 	0.51	0.5512	0.6863	0.077
Mof_H 	H 	0.468	0.9529	0.6689	0.068
Mof_H 	H 	0.2259	0.7002	0.573	0.039
Mof_H 	H 	0.6997	0.7031	0.7314	0.129
Mof_H 	H 	0.6958	0.8587	0.7209	0.132
Mof_H 	H 	0.5193	0.6092	0.7984	0.078
Mof_H 	H 	0.3428	0.8535	0.9111	0.056
Mof_H 	H 	0.5506	0.0087	0.7816	0.03
Mof_H 	H 	0.9649	0.2513	0.5169	0.159
Mof_H 	H 	0.99	0.0512	0.1863	0.114
Mof_H 	H 	0.032	0.4529	0.1689	0.074
Mof_H 	H 	0.2741	0.2002	0.073	0.037
Mof_H 	H 	0.8003	0.2031	0.2314	0.133
Mof_H 	H 	0.8042	0.3587	0.2209	0.134
Mof_H 	H 	0.9807	0.1092	0.2984	0.063
Mof_H 	H 	0.1572	0.3535	0.4111	0.031
Mof_H 	H 	0.9494	0.5087	0.2816	0.064
Mof_H 	H 	0.5351	0.7513	0.0169	0.145
Mof_H 	H 	0.49	0.4488	0.3137	0.082
Mof_H 	H 	0.532	0.0471	0.3311	0.052
Mof_H 	H 	0.7741	0.2998	0.427	0.053
Mof_H 	H 	0.3003	0.2969	0.2686	0.128
Mof_H 	H 	0.3042	0.1413	0.2791	0.119
Mof_H 	H 	0.4807	0.3908	0.2016	0.085
Mof_H 	H 	0.6572	0.1465	0.0889	0.033
Mof_H 	H 	0.4494	0.9913	0.2184	0.123
Mof_H 	H 	0.0351	0.7487	0.4831	0.149
Mof_C 	C 	0.8615	0.8937	0.8725	-0.033
Mof_C 	C 	0.9674	0.8752	0.8312	-0.012
Mof_C 	C 	0.0105	0.7416	0.81594	0.034
Mof_C 	C 	0.9433	0.6345	0.84179	-0.03
Mof_C 	C 	0.837	0.6565	0.88451	-0.088
Mof_C 	C 	0.7966	0.7852	0.89921	0.005
Mof_C 	C 	0.8051	0.0351	0.8859	0.255
Mof_C 	C 	0.7561	0.539	0.9105	0.363
Mof_C 	C 	0.131	0.7191	0.7712	-0.283
Mof_C 	C 	0.0461	0.697	0.71947	0.148
Mof_C 	C 	0.0007	0.8039	0.689	-0.161
Mof_C 	C 	0.9266	0.786	0.6393	-0.012
Mof_C 	C 	0.8941	0.659	0.62131	-0.046
Mof_C 	C 	0.9377	0.5481	0.65147	0.01
Mof_C 	C 	0.0168	0.5658	0.6994	-0.165
Mof_C 	C 	0.8833	0.9073	0.6074	0.369
Mof_C 	C 	0.8998	0.4091	0.63202	0.3
Mof_C 	C 	0.3615	0.6063	0.6275	-0.036
Mof_C 	C 	0.4674	0.6248	0.6688	-0.101
Mof_C 	C 	0.5105	0.7584	0.68406	0.111
Mof_C 	C 	0.4433	0.8655	0.65821	-0.087
Mof_C 	C 	0.337	0.8435	0.61549	-0.08
Mof_C 	C 	0.2966	0.7148	0.60079	-0.007
Mof_C 	C 	0.3051	0.4649	0.6141	0.275
Mof_C 	C 	0.2561	0.961	0.5895	0.402
Mof_C 	C 	0.631	0.7809	0.7288	-0.293
Mof_C 	C 	0.5461	0.803	0.78053	0.104
Mof_C 	C 	0.5007	0.6961	0.811	-0.095
Mof_C 	C 	0.4266	0.714	0.8607	-0.061
Mof_C 	C 	0.3941	0.841	0.87869	-0.01
Mof_C 	C 	0.4377	0.9519	0.84853	-0.035
Mof_C 	C 	0.5168	0.9342	0.8006	-0.041
Mof_C 	C 	0.3833	0.5927	0.8926	0.344
Mof_C 	C 	0.3998	0.0909	0.86798	0.29
Mof_C 	C 	0.1385	0.1063	0.1275	-0.034
Mof_C 	C 	0.0326	0.1248	0.1688	-0.195
Mof_C 	C 	0.9895	0.2584	0.18406	0.189
Mof_C 	C 	0.0567	0.3655	0.15821	-0.159
Mof_C 	C 	0.163	0.3435	0.11549	-0.049
Mof_C 	C 	0.2034	0.2148	0.10079	-0.033
Mof_C 	C 	0.1949	0.9649	0.1141	0.298
Mof_C 	C 	0.2439	0.461	0.0895	0.348
Mof_C 	C 	0.869	0.2809	0.2288	-0.326
Mof_C 	C 	0.9539	0.303	0.28053	0.104
Mof_C 	C 	0.9993	0.1961	0.311	-0.056
Mof_C 	C 	0.0734	0.214	0.3607	-0.1
Mof_C 	C 	0.1059	0.341	0.37869	0.023
Mof_C 	C 	0.0623	0.4519	0.34853	-0.097
Mof_C 	C 	0.9832	0.4342	0.3006	-0.051
Mof_C 	C 	0.1167	0.0927	0.3926	0.312
Mof_C 	C 	0.1002	0.5909	0.36798	0.33
Mof_C 	C 	0.6385	0.3937	0.3725	-0.021
Mof_C 	C 	0.5326	0.3752	0.3312	-0.113
Mof_C 	C 	0.4895	0.2416	0.31594	0.121
Mof_C 	C 	0.5567	0.1345	0.34179	-0.109
Mof_C 	C 	0.663	0.1565	0.38451	-0.053
Mof_C 	C 	0.7034	0.2852	0.39921	-0.028
Mof_C 	C 	0.6949	0.5351	0.3859	0.27
Mof_C 	C 	0.7439	0.039	0.4105	0.312
Mof_C 	C 	0.369	0.2191	0.2712	-0.317
Mof_C 	C 	0.4539	0.197	0.21947	0.147
Mof_C 	C 	0.4993	0.3039	0.189	-0.116
Mof_C 	C 	0.5734	0.286	0.1393	-0.058
Mof_C 	C 	0.6059	0.159	0.12131	-0.006
Mof_C 	C 	0.5623	0.0481	0.15147	-0.062
Mof_C 	C 	0.4832	0.0658	0.1994	-0.169
Mof_C 	C 	0.6167	0.4073	0.1074	0.349
Mof_C 	C 	0.6002	0.9091	0.13202	0.342
Mof_O 	O 	0.4862	0.3194	0.95716	-0.682
Mof_O 	O 	0.8491	0.1375	0.86076	-0.36
Mof_O 	O 	0.7043	0.0508	0.92394	-0.403
Mof_O 	O 	0.7075	0.5571	0.95684	-0.445
Mof_O 	O 	0.743	0.4333	0.88297	-0.456
Mof_O 	O 	0.8646	0.016	0.63211	-0.501
Mof_O 	O 	0.8674	0.8942	0.55718	-0.439
Mof_O 	O 	0.7843	0.3925	0.602	-0.434
Mof_O 	O 	0.9817	0.3094	0.64536	-0.443
Mof_O 	O 	0.9862	0.1806	0.54284	-0.683
Mof_O 	O 	0.3491	0.3625	0.63924	-0.372
Mof_O 	O 	0.2043	0.4492	0.57606	-0.414
Mof_O 	O 	0.2075	0.9429	0.54316	-0.465
Mof_O 	O 	0.243	0.0667	0.61703	-0.505
Mof_O 	O 	0.3646	0.484	0.86789	-0.477
Mof_O 	O 	0.3674	0.6058	0.94282	-0.439
Mof_O 	O 	0.2843	0.1075	0.898	-0.445
Mof_O 	O 	0.4817	0.1906	0.85464	-0.457
Mof_O 	O 	0.5138	0.6806	0.04284	-0.696
Mof_O 	O 	0.1509	0.8625	0.13924	-0.37
Mof_O 	O 	0.2957	0.9492	0.07606	-0.406
Mof_O 	O 	0.2925	0.4429	0.04316	-0.479
Mof_O 	O 	0.257	0.5667	0.11703	-0.46
Mof_O 	O 	0.1354	0.984	0.36789	-0.441
Mof_O 	O 	0.1326	0.1058	0.44282	-0.464
Mof_O 	O 	0.2157	0.6075	0.398	-0.443
Mof_O 	O 	0.0183	0.6906	0.35464	-0.471
Mof_O 	O 	0.0138	0.8194	0.45716	-0.688
Mof_O 	O 	0.6509	0.6375	0.36076	-0.36
Mof_O 	O 	0.7957	0.5508	0.42394	-0.396
Mof_O 	O 	0.7925	0.0571	0.45684	-0.456
Mof_O 	O 	0.757	0.9333	0.38297	-0.417
Mof_O 	O 	0.6354	0.516	0.13211	-0.475
Mof_O 	O 	0.6326	0.3942	0.05718	-0.466
Mof_O 	O 	0.7157	0.8925	0.102	-0.436
Mof_O 	O 	0.5183	0.8094	0.14536	-0.461
_end
