# CIF file generated by openbabel 3.1.0, see https://openbabel.org
data_I
_chemical_name_common 'image0'
_cell_length_a 18.8168
_cell_length_b 11.3511
_cell_length_c 16.9284
_cell_angle_alpha 90
_cell_angle_beta 102.051
_cell_angle_gamma 90
_space_group_name_H-M_alt 'P 1'
_space_group_name_Hall 'P 1'
loop_
    _symmetry_equiv_pos_as_xyz
    x,y,z
loop_
    _atom_site_label
    _atom_site_type_symbol
    _atom_site_fract_x
    _atom_site_fract_y
    _atom_site_fract_z
    _atom_site_occupancy
    La1      La       0.31000    0.20992    0.33598    1.000
    K1       K        0.65439    0.09950    0.52468    1.000
    O1       O        0.39290    0.14760    0.46860    1.000
    O2       O        0.50440    0.13260    0.54290    1.000
    O3       O        0.44260    0.21670    0.34280    1.000
    O4       O        0.55550    0.19050    0.40670    1.000
    O5       O        0.33840    0.41880    0.29750    1.000
    O6       O        0.22780    0.13950    0.42760    1.000
    O7       O        0.17070    0.48870    0.18040    1.000
    O8       O        0.21010    0.14720    0.55360    1.000
    O9       O        0.20220    0.33430    0.25940    1.000
    O10      O        0.29750    0.59150    0.24630    1.000
    C1       C        0.46040    0.15240    0.47900    1.000
    C2       C        0.49020    0.18880    0.40350    1.000
    C3       C        0.29040    0.48470    0.26140    1.000
    C4       C        0.23230    0.18750    0.49500    1.000
    C5       C        0.21450    0.43110    0.23170    1.000
    La2      La       0.81000    0.70992    0.33598    1.000
    K2       K        0.15439    0.59950    0.52468    1.000
    O11      O        0.89290    0.64760    0.46860    1.000
    O12      O        0.00440    0.63260    0.54290    1.000
    O13      O        0.94260    0.71670    0.34280    1.000
    O14      O        0.05550    0.69050    0.40670    1.000
    O15      O        0.83840    0.91880    0.29750    1.000
    O16      O        0.72780    0.63950    0.42760    1.000
    O17      O        0.67070    0.98870    0.18040    1.000
    O18      O        0.71010    0.64720    0.55360    1.000
    O19      O        0.70220    0.83430    0.25940    1.000
    O20      O        0.79750    0.09150    0.24630    1.000
    C6       C        0.96040    0.65240    0.47900    1.000
    C7       C        0.99020    0.68880    0.40350    1.000
    C8       C        0.79040    0.98470    0.26140    1.000
    C9       C        0.73230    0.68750    0.49500    1.000
    C10      C        0.71450    0.93110    0.23170    1.000
    La3      La       0.69000    0.20992    0.16402    1.000
    K3       K        0.34561    0.09950    0.97532    1.000
    O21      O        0.60710    0.14760    0.03140    1.000
    O22      O        0.49560    0.13260    0.95710    1.000
    O23      O        0.55740    0.21670    0.15720    1.000
    O24      O        0.44450    0.19050    0.09330    1.000
    O25      O        0.66160    0.41880    0.20250    1.000
    O26      O        0.77220    0.13950    0.07240    1.000
    O27      O        0.82930    0.48870    0.31960    1.000
    O28      O        0.78990    0.14720    0.94640    1.000
    O29      O        0.79780    0.33430    0.24060    1.000
    O30      O        0.70250    0.59150    0.25370    1.000
    C11      C        0.53960    0.15240    0.02100    1.000
    C12      C        0.50980    0.18880    0.09650    1.000
    C13      C        0.70960    0.48470    0.23860    1.000
    C14      C        0.76770    0.18750    0.00500    1.000
    C15      C        0.78550    0.43110    0.26830    1.000
    La4      La       0.19000    0.70992    0.16402    1.000
    K4       K        0.84561    0.59950    0.97532    1.000
    O31      O        0.10710    0.64760    0.03140    1.000
    O32      O        0.99560    0.63260    0.95710    1.000
    O33      O        0.05740    0.71670    0.15720    1.000
    O34      O        0.94450    0.69050    0.09330    1.000
    O35      O        0.16160    0.91880    0.20250    1.000
    O36      O        0.27220    0.63950    0.07240    1.000
    O37      O        0.32930    0.98870    0.31960    1.000
    O38      O        0.28990    0.64720    0.94640    1.000
    O39      O        0.29780    0.83430    0.24060    1.000
    O40      O        0.20250    0.09150    0.25370    1.000
    C16      C        0.03960    0.65240    0.02100    1.000
    C17      C        0.00980    0.68880    0.09650    1.000
    C18      C        0.20960    0.98470    0.23860    1.000
    C19      C        0.26770    0.68750    0.00500    1.000
    C20      C        0.28550    0.93110    0.26830    1.000
    La5      La       0.69000    0.79008    0.66402    1.000
    K5       K        0.34561    0.90050    0.47532    1.000
    O41      O        0.60710    0.85240    0.53140    1.000
    O42      O        0.49560    0.86740    0.45710    1.000
    O43      O        0.55740    0.78330    0.65720    1.000
    O44      O        0.44450    0.80950    0.59330    1.000
    O45      O        0.66160    0.58120    0.70250    1.000
    O46      O        0.77220    0.86050    0.57240    1.000
    O47      O        0.82930    0.51130    0.81960    1.000
    O48      O        0.78990    0.85280    0.44640    1.000
    O49      O        0.79780    0.66570    0.74060    1.000
    O50      O        0.70250    0.40850    0.75370    1.000
    C21      C        0.53960    0.84760    0.52100    1.000
    C22      C        0.50980    0.81120    0.59650    1.000
    C23      C        0.70960    0.51530    0.73860    1.000
    C24      C        0.76770    0.81250    0.50500    1.000
    C25      C        0.78550    0.56890    0.76830    1.000
    La6      La       0.19000    0.29008    0.66402    1.000
    K6       K        0.84561    0.40050    0.47532    1.000
    O51      O        0.10710    0.35240    0.53140    1.000
    O52      O        0.99560    0.36740    0.45710    1.000
    O53      O        0.05740    0.28330    0.65720    1.000
    O54      O        0.94450    0.30950    0.59330    1.000
    O55      O        0.16160    0.08120    0.70250    1.000
    O56      O        0.27220    0.36050    0.57240    1.000
    O57      O        0.32930    0.01130    0.81960    1.000
    O58      O        0.28990    0.35280    0.44640    1.000
    O59      O        0.29780    0.16570    0.74060    1.000
    O60      O        0.20250    0.90850    0.75370    1.000
    C26      C        0.03960    0.34760    0.52100    1.000
    C27      C        0.00980    0.31120    0.59650    1.000
    C28      C        0.20960    0.01530    0.73860    1.000
    C29      C        0.26770    0.31250    0.50500    1.000
    C30      C        0.28550    0.06890    0.76830    1.000
    La7      La       0.31000    0.79008    0.83598    1.000
    K7       K        0.65439    0.90050    0.02468    1.000
    O61      O        0.39290    0.85240    0.96860    1.000
    O62      O        0.50440    0.86740    0.04290    1.000
    O63      O        0.44260    0.78330    0.84280    1.000
    O64      O        0.55550    0.80950    0.90670    1.000
    O65      O        0.33840    0.58120    0.79750    1.000
    O66      O        0.22780    0.86050    0.92760    1.000
    O67      O        0.17070    0.51130    0.68040    1.000
    O68      O        0.21010    0.85280    0.05360    1.000
    O69      O        0.20220    0.66570    0.75940    1.000
    O70      O        0.29750    0.40850    0.74630    1.000
    C31      C        0.46040    0.84760    0.97900    1.000
    C32      C        0.49020    0.81120    0.90350    1.000
    C33      C        0.29040    0.51530    0.76140    1.000
    C34      C        0.23230    0.81250    0.99500    1.000
    C35      C        0.21450    0.56890    0.73170    1.000
    La8      La       0.81000    0.29008    0.83598    1.000
    K8       K        0.15439    0.40050    0.02468    1.000
    O71      O        0.89290    0.35240    0.96860    1.000
    O72      O        0.00440    0.36740    0.04290    1.000
    O73      O        0.94260    0.28330    0.84280    1.000
    O74      O        0.05550    0.30950    0.90670    1.000
    O75      O        0.83840    0.08120    0.79750    1.000
    O76      O        0.72780    0.36050    0.92760    1.000
    O77      O        0.67070    0.01130    0.68040    1.000
    O78      O        0.71010    0.35280    0.05360    1.000
    O79      O        0.70220    0.16570    0.75940    1.000
    O80      O        0.79750    0.90850    0.74630    1.000
    C36      C        0.96040    0.34760    0.97900    1.000
    C37      C        0.99020    0.31120    0.90350    1.000
    C38      C        0.79040    0.01530    0.76140    1.000
    C39      C        0.73230    0.31250    0.99500    1.000
    C40      C        0.71450    0.06890    0.73170    1.000
