# CIF file generated by openbabel 3.1.0, see https://openbabel.org
data_I
_chemical_name_common 'QEKLID01_clean'
_cell_length_a 7.8733
_cell_length_b 10.1432
_cell_length_c 13.528
_cell_angle_alpha 68.355
_cell_angle_beta 79.645
_cell_angle_gamma 70.702
_space_group_name_H-M_alt 'P 1'
_space_group_name_Hall 'P 1'
loop_
    _symmetry_equiv_pos_as_xyz
    x,y,z
loop_
    _atom_site_label
    _atom_site_type_symbol
    _atom_site_fract_x
    _atom_site_fract_y
    _atom_site_fract_z
    _atom_site_occupancy
    Cd1      Cd       0.82667    0.65590    0.54336    1.000
    Cd2      Cd       0.17333    0.34410    0.45664    1.000
    Cd3      Cd       0.50000    0.00000    0.50000    1.000
    H1       H        0.85330    0.13180    0.55650    1.000
    H2       H        0.79750    0.22290    0.82870    1.000
    H3       H        0.83030    0.81570    0.84190    1.000
    H4       H        0.60230    0.16680    0.97320    1.000
    H5       H        0.55090    0.11190    0.15660    1.000
    H6       H        0.88730    0.70390    0.19690    1.000
    H7       H        0.93570    0.75930    0.01270    1.000
    H8       H        0.14670    0.86820    0.44350    1.000
    H9       H        0.20250    0.77710    0.17130    1.000
    H10      H        0.16970    0.18430    0.15810    1.000
    H11      H        0.39770    0.83320    0.02680    1.000
    H12      H        0.44910    0.88810    0.84340    1.000
    H13      H        0.11270    0.29610    0.80310    1.000
    H14      H        0.06430    0.24070    0.98730    1.000
    C1       C        0.83980    0.95770    0.69070    1.000
    C2       C        0.84230    0.10210    0.63050    1.000
    C3       C        0.82790    0.20250    0.68260    1.000
    C4       C        0.80900    0.15580    0.79440    1.000
    C5       C        0.80690    0.01230    0.85510    1.000
    C6       C        0.82620    0.91340    0.80230    1.000
    C7       C        0.77630    0.97110    0.97420    1.000
    C8       C        0.66050    0.07340    0.01810    1.000
    C9       C        0.62810    0.04080    0.12840    1.000
    C10      C        0.71260    0.90150    0.19450    1.000
    C11      C        0.82900    0.79710    0.15180    1.000
    C12      C        0.85980    0.83060    0.04100    1.000
    C13      C        0.84320    0.84980    0.63850    1.000
    C14      C        0.83790    0.35460    0.62410    1.000
    C15      C        0.68490    0.86770    0.31480    1.000
    C16      C        0.16020    0.04230    0.30930    1.000
    C17      C        0.15770    0.89790    0.36950    1.000
    C18      C        0.17210    0.79750    0.31740    1.000
    C19      C        0.19100    0.84420    0.20560    1.000
    C20      C        0.19310    0.98770    0.14490    1.000
    C21      C        0.17380    0.08660    0.19770    1.000
    C22      C        0.22370    0.02890    0.02580    1.000
    C23      C        0.33950    0.92660    0.98190    1.000
    C24      C        0.37190    0.95920    0.87160    1.000
    C25      C        0.28740    0.09850    0.80550    1.000
    C26      C        0.17100    0.20290    0.84820    1.000
    C27      C        0.14020    0.16940    0.95900    1.000
    C28      C        0.15680    0.15020    0.36150    1.000
    C29      C        0.16210    0.64540    0.37590    1.000
    C30      C        0.31510    0.13230    0.68520    1.000
    O1       O        0.88390    0.71610    0.68620    1.000
    O2       O        0.79850    0.90040    0.54170    1.000
    O3       O        0.88110    0.39670    0.52110    1.000
    O4       O        0.79780    0.44670    0.67230    1.000
    O5       O        0.58060    0.97140    0.34540    1.000
    O6       O        0.76570    0.74360    0.37200    1.000
    O7       O        0.11610    0.28390    0.31380    1.000
    O8       O        0.20150    0.09960    0.45830    1.000
    O9       O        0.11890    0.60330    0.47890    1.000
    O10      O        0.20220    0.55330    0.32770    1.000
    O11      O        0.41940    0.02860    0.65460    1.000
    O12      O        0.23430    0.25640    0.62800    1.000
