data_functionalizedCrystal
_audit_creation_method	'EQeq! by Chris Wilmer'
_symmetry_space_group_name_H-M	'P1'
_symmetry_Int_Tables_number	1
_symmetry_cell_setting	triclinic
loop_
_symmetry_equiv_pos_as_xyz
  x,y,z
_cell_length_a	21.922
_cell_length_b	33.73
_cell_length_c	14.948
_cell_angle_alpha	90
_cell_angle_beta	130.512
_cell_angle_gamma	90
loop_
_atom_site_label
_atom_site_type_symbol
_atom_site_fract_x
_atom_site_fract_y
_atom_site_fract_z
_atom_site_charge
Mof_Eu	Eu	0.65592	0.25736	0.00111	2.015
Mof_Eu	Eu	0.58808	0.24525	0.58888	2.555
Mof_Eu	Eu	0.60041	0.24613	0.29368	2.283
Mof_Ag	Ag	0.49135	0.00562	0.78504	0.431
Mof_Ag	Ag	0.69063	0.00096	0.09806	0.362
Mof_Ag	Ag	0.59824	0.49936	0.74488	0.465
Mof_Ag	Ag	0.80755	0.51311	0.10532	0.349
Mof_Ag	Ag	0.38228	0.4856	0.29024	0.393
Mof_O 	O 	0.5995	0.20817	0.8528	-0.561
Mof_O 	O 	0.5905	0.19326	0.6988	-0.599
Mof_O 	O 	0.6885	0.20854	0.6082	-0.581
Mof_O 	O 	0.6774	0.19926	0.4508	-0.571
Mof_O 	O 	0.5217	0.19476	0.4399	-0.61
Mof_O 	O 	0.5058	0.20436	0.2797	-0.594
Mof_O 	O 	0.6069	0.19022	0.2004	-0.573
Mof_O 	O 	0.6491	0.20848	0.1042	-0.628
Mof_O 	O 	0.7434	0.30518	0.0175	-0.623
Mof_O 	O 	0.7726	0.3184	0.9042	-0.379
Mof_O 	O 	0.5714	0.29514	0.8285	-0.53
Mof_O 	O 	0.5616	0.29335	0.6696	-0.621
Mof_O 	O 	0.6688	0.29836	0.6014	-0.533
Mof_O 	O 	0.6756	0.28761	0.4617	-0.595
Mof_O 	O 	0.5051	0.28371	0.4154	-0.611
Mof_O 	O 	0.5088	0.29507	0.2726	-0.559
Mof_O 	O 	0.6156	0.29349	0.1962	-0.662
Mof_O 	O 	0.6346	0.31271	0.0755	-0.583
Mof_O 	O 	0.3827	0.6838	0.4583	-0.285
Mof_O 	O 	0.3834	0.69723	0.3118	-0.302
Mof_O 	O 	0.7117	0.25065	0.792	-0.926
Mof_H 	H 	0.7143	0.2273	0.7736	0.314
Mof_H 	H 	0.744	0.2619	0.8587	0.418
Mof_N 	N 	0.5153	0.06645	0.7769	-0.179
Mof_N 	N 	0.6995	0.0611	0.584	-0.195
Mof_N 	N 	0.4876	0.05757	0.2978	-0.192
Mof_N 	N 	0.6697	0.06122	0.1118	-0.184
Mof_N 	N 	0.8088	0.45034	0.0807	-0.121
Mof_N 	N 	0.5969	0.43674	0.7617	-0.19
Mof_N 	N 	0.7886	0.42392	0.6027	-0.183
Mof_N 	N 	0.3967	0.4215	0.2845	-0.18
Mof_N 	N 	0.6021	0.4403	0.2092	-0.188
Mof_N 	N 	0.3817	0.5488	0.3166	-0.204
Mof_C 	C 	0.5003	0.0967	0.8191	0.014
Mof_H 	H 	0.4762	0.0914	0.851	0.012
Mof_C 	C 	0.5196	0.1356	0.8164	0.004
Mof_H 	H 	0.5077	0.1559	0.845	0.024
Mof_C 	C 	0.5566	0.14417	0.7714	-0.142
Mof_C 	C 	0.571	0.1133	0.7269	-0.01
Mof_H 	H 	0.5939	0.1182	0.6932	0.029
Mof_C 	C 	0.551	0.0749	0.7327	0.009
Mof_H 	H 	0.5629	0.0542	0.705	-0.011
Mof_C 	C 	0.5834	0.18538	0.774	0.511
Mof_C 	C 	0.7071	0.0855	0.6608	0.014
Mof_H 	H 	0.7124	0.0744	0.7225	-0.009
Mof_C 	C 	0.7075	0.1268	0.6539	-0.015
Mof_H 	H 	0.7122	0.1428	0.7086	0.027
Mof_C 	C 	0.7007	0.1432	0.5619	-0.123
Mof_C 	C 	0.6968	0.1177	0.4858	-0.021
Mof_H 	H 	0.6936	0.1278	0.425	0.042
Mof_C 	C 	0.6977	0.077	0.5005	0.02
Mof_H 	H 	0.6971	0.0603	0.4504	-0.014
Mof_C 	C 	0.688	0.187	0.5373	0.502
Mof_C 	C 	0.4952	0.0739	0.3863	0.014
Mof_H 	H 	0.4997	0.0571	0.4398	-0.014
Mof_C 	C 	0.4968	0.1145	0.4021	-0.013
Mof_H 	H 	0.4999	0.1247	0.4627	0.036
Mof_C 	C 	0.4937	0.13923	0.3261	-0.13
Mof_C 	C 	0.4836	0.1227	0.2314	-0.014
Mof_H 	H 	0.4789	0.1388	0.1768	0.022
Mof_C 	C 	0.4806	0.0824	0.2204	0.008
Mof_H 	H 	0.4734	0.0715	0.1569	-0.018
Mof_C 	C 	0.5058	0.184	0.3479	0.542
Mof_C 	C 	0.636	0.0714	0.158	-0.004
Mof_H 	H 	0.6201	0.0514	0.1818	-0.012
Mof_C 	C 	0.6239	0.1101	0.1717	-0.012
Mof_H 	H 	0.5999	0.1158	0.2035	0.029
Mof_C 	C 	0.6476	0.14086	0.138	-0.159
Mof_C 	C 	0.6822	0.1301	0.0901	0.009
Mof_H 	H 	0.6972	0.1495	0.0634	-0.006
Mof_C 	C 	0.6944	0.0905	0.0821	-0.004
Mof_H 	H 	0.7211	0.084	0.0548	-0.008
Mof_C 	C 	0.6342	0.1829	0.1488	0.498
Mof_C 	C 	0.7952	0.4236	0.1316	-0.095
Mof_H 	H 	0.794	0.4322	0.1896	0.025
Mof_C 	C 	0.7829	0.3842	0.1035	0.134
Mof_H 	H 	0.7726	0.367	0.141	-0.027
Mof_C 	C 	0.7856	0.3698	0.0196	-0.371
Mof_C 	C 	0.804	0.3977	0.9733	0.321
Mof_H 	H 	0.8096	0.3899	0.9192	-0.07
Mof_C 	C 	0.8143	0.437	0.0057	-0.293
Mof_H 	H 	0.826	0.4549	0.9713	0.121
Mof_C 	C 	0.7679	0.3272	0.9787	0.604
Mof_C 	C 	0.5812	0.4191	0.8234	0.031
Mof_H 	H 	0.5749	0.4348	0.8681	-0
Mof_C 	C 	0.5736	0.3783	0.8251	-0.023
Mof_H 	H 	0.5648	0.3669	0.8724	0.058
Mof_C 	C 	0.5796	0.3551	0.7541	-0.124
Mof_C 	C 	0.5974	0.3734	0.691	-0.011
Mof_H 	H 	0.6023	0.3587	0.6434	0.037
Mof_C 	C 	0.6076	0.4136	0.6996	0.011
Mof_H 	H 	0.6228	0.4256	0.6605	-0.007
Mof_C 	C 	0.5708	0.3109	0.7509	0.524
Mof_C 	C 	0.7756	0.4088	0.6708	0.026
Mof_H 	H 	0.7885	0.4241	0.7328	-0.006
Mof_C 	C 	0.7444	0.3722	0.6553	-0.034
Mof_H 	H 	0.7329	0.3639	0.7022	0.059
Mof_C 	C 	0.7298	0.3473	0.5696	-0.121
Mof_C 	C 	0.7483	0.3614	0.5034	-0.017
Mof_H 	H 	0.741	0.3455	0.4463	0.023
Mof_C 	C 	0.7781	0.3997	0.5229	0.012
Mof_H 	H 	0.7912	0.4088	0.4786	-0.003
Mof_C 	C 	0.6884	0.3076	0.5421	0.511
Mof_C 	C 	0.4209	0.3995	0.3766	0.012
Mof_H 	H 	0.4192	0.4104	0.4321	-0.005
Mof_C 	C 	0.4485	0.3612	0.3925	-0.023
Mof_H 	H 	0.4642	0.3464	0.457	0.031
Mof_C 	C 	0.4524	0.3449	0.3102	-0.12
Mof_C 	C 	0.4236	0.367	0.2132	-0.031
Mof_H 	H 	0.4216	0.3564	0.154	0.039
Mof_C 	C 	0.3973	0.4053	0.2039	0.021
Mof_H 	H 	0.3794	0.4203	0.1387	-0.018
Mof_C 	C 	0.4924	0.3043	0.3338	0.517
Mof_C 	C 	0.582	0.4104	0.2458	-0.009
Mof_H 	H 	0.5668	0.4163	0.2897	0.004
Mof_C 	C 	0.5833	0.3715	0.2202	0.003
Mof_H 	H 	0.5669	0.3516	0.2437	0.024
Mof_C 	C 	0.6086	0.362	0.1607	-0.153
Mof_C 	C 	0.6279	0.3925	0.1199	-0.018
Mof_H 	H 	0.6434	0.3869	0.0763	0.025
Mof_C 	C 	0.6235	0.4307	0.1451	-0.002
Mof_H 	H 	0.6358	0.451	0.1171	-0.02
Mof_C 	C 	0.6211	0.3188	0.1433	0.545
Mof_C 	C 	0.3708	0.5619	0.3894	0.051
Mof_H 	H 	0.3617	0.5435	0.4259	-0.03
Mof_C 	C 	0.3725	0.6034	0.4142	-0.094
Mof_H 	H 	0.3649	0.6118	0.4657	0.067
Mof_C 	C 	0.3856	0.6297	0.3592	-0.008
Mof_C 	C 	0.3946	0.617	0.28	-0.097
Mof_H 	H 	0.4015	0.6349	0.2399	0.057
Mof_C 	C 	0.393	0.5757	0.2628	0.049
Mof_H 	H 	0.4001	0.5667	0.2113	-0.03
Mof_C 	C 	0.3851	0.6744	0.3823	0.28
Mof_Eu	Eu	0.15592	0.75736	0.00111	2.021
Mof_Eu	Eu	0.08808	0.74525	0.58888	2.56
Mof_Eu	Eu	0.10041	0.74613	0.29368	2.291
Mof_Ag	Ag	0.99135	0.50562	0.78504	0.388
Mof_Ag	Ag	0.19063	0.50096	0.09806	0.372
Mof_Ag	Ag	0.09824	0.99936	0.74488	0.482
Mof_Ag	Ag	0.30755	0.01311	0.10532	0.349
Mof_Ag	Ag	0.88228	0.9856	0.29024	0.377
Mof_O 	O 	0.0995	0.70817	0.8528	-0.558
Mof_O 	O 	0.0905	0.69326	0.6988	-0.594
Mof_O 	O 	0.1885	0.70854	0.6082	-0.581
Mof_O 	O 	0.1774	0.69926	0.4508	-0.571
Mof_O 	O 	0.0217	0.69476	0.4399	-0.611
Mof_O 	O 	0.0058	0.70436	0.2797	-0.594
Mof_O 	O 	0.1069	0.69022	0.2004	-0.569
Mof_O 	O 	0.1491	0.70848	0.1042	-0.627
Mof_O 	O 	0.2434	0.80518	0.0175	-0.624
Mof_O 	O 	0.2726	0.8184	0.9042	-0.377
Mof_O 	O 	0.0714	0.79514	0.8285	-0.526
Mof_O 	O 	0.0616	0.79335	0.6696	-0.617
Mof_O 	O 	0.1688	0.79836	0.6014	-0.532
Mof_O 	O 	0.1756	0.78761	0.4617	-0.595
Mof_O 	O 	0.0051	0.78371	0.4154	-0.574
Mof_O 	O 	0.0088	0.79507	0.2726	-0.52
Mof_O 	O 	0.1156	0.79349	0.1962	-0.661
Mof_O 	O 	0.1346	0.81271	0.0755	-0.582
Mof_O 	O 	0.8827	0.1838	0.4583	-0.294
Mof_O 	O 	0.8834	0.19723	0.3118	-0.31
Mof_O 	O 	0.2117	0.75065	0.792	-0.927
Mof_H 	H 	0.2143	0.7273	0.7736	0.315
Mof_H 	H 	0.244	0.7619	0.8587	0.421
Mof_N 	N 	0.0153	0.56645	0.7769	-0.18
Mof_N 	N 	0.1995	0.5611	0.584	-0.194
Mof_N 	N 	0.9876	0.55757	0.2978	-0.187
Mof_N 	N 	0.1697	0.56122	0.1118	-0.184
Mof_N 	N 	0.3088	0.95034	0.0807	-0.12
Mof_N 	N 	0.0969	0.93674	0.7617	-0.19
Mof_N 	N 	0.2886	0.92392	0.6027	-0.183
Mof_N 	N 	0.8967	0.9215	0.2845	-0.183
Mof_N 	N 	0.1021	0.9403	0.2092	-0.188
Mof_N 	N 	0.8817	0.0488	0.3166	-0.204
Mof_C 	C 	0.0003	0.5967	0.8191	0.086
Mof_H 	H 	0.9762	0.5914	0.851	-0.032
Mof_C 	C 	0.0196	0.6356	0.8164	-0.035
Mof_H 	H 	0.0077	0.6559	0.845	0.045
Mof_C 	C 	0.0566	0.64417	0.7714	-0.12
Mof_C 	C 	0.071	0.6133	0.7269	-0.022
Mof_H 	H 	0.0939	0.6182	0.6932	0.038
Mof_C 	C 	0.051	0.5749	0.7327	0.021
Mof_H 	H 	0.0629	0.5542	0.705	-0.007
Mof_C 	C 	0.0834	0.68538	0.774	0.506
Mof_C 	C 	0.2071	0.5855	0.6608	0.017
Mof_H 	H 	0.2124	0.5744	0.7225	-0.009
Mof_C 	C 	0.2075	0.6268	0.6539	-0.013
Mof_H 	H 	0.2122	0.6428	0.7086	0.028
Mof_C 	C 	0.2007	0.6432	0.5619	-0.12
Mof_C 	C 	0.1968	0.6177	0.4858	-0.019
Mof_H 	H 	0.1936	0.6278	0.425	0.044
Mof_C 	C 	0.1977	0.577	0.5005	0.023
Mof_H 	H 	0.1971	0.5603	0.4504	-0.012
Mof_C 	C 	0.188	0.687	0.5373	0.503
Mof_C 	C 	0.9952	0.5739	0.3863	-0.003
Mof_H 	H 	0.9997	0.5571	0.4398	-0.016
Mof_C 	C 	0.9968	0.6145	0.4021	0.008
Mof_H 	H 	0.9999	0.6247	0.4627	0.017
Mof_C 	C 	0.9937	0.63923	0.3261	-0.172
Mof_C 	C 	0.9836	0.6227	0.2314	0.006
Mof_H 	H 	0.9789	0.6388	0.1768	0.006
Mof_C 	C 	0.9806	0.5824	0.2204	-0.009
Mof_H 	H 	0.9734	0.5715	0.1569	-0.017
Mof_C 	C 	0.0058	0.684	0.3479	0.575
Mof_C 	C 	0.136	0.5714	0.158	-0
Mof_H 	H 	0.1201	0.5514	0.1818	-0.008
Mof_C 	C 	0.1239	0.6101	0.1717	-0.012
Mof_H 	H 	0.0999	0.6158	0.2035	0.036
Mof_C 	C 	0.1476	0.64086	0.138	-0.157
Mof_C 	C 	0.1822	0.6301	0.0901	0.008
Mof_H 	H 	0.1972	0.6495	0.0634	-0.005
Mof_C 	C 	0.1944	0.5905	0.0821	-0.003
Mof_H 	H 	0.2211	0.584	0.0548	-0.008
Mof_C 	C 	0.1342	0.6829	0.1488	0.499
Mof_C 	C 	0.2952	0.9236	0.1316	-0.096
Mof_H 	H 	0.294	0.9322	0.1896	0.026
Mof_C 	C 	0.2829	0.8842	0.1035	0.139
Mof_H 	H 	0.2726	0.867	0.141	-0.026
Mof_C 	C 	0.2856	0.8698	0.0196	-0.375
Mof_C 	C 	0.304	0.8977	0.9733	0.331
Mof_H 	H 	0.3096	0.8899	0.9192	-0.072
Mof_C 	C 	0.3143	0.937	0.0057	-0.298
Mof_H 	H 	0.326	0.9549	0.9713	0.125
Mof_C 	C 	0.2679	0.8272	0.9787	0.61
Mof_C 	C 	0.0812	0.9191	0.8234	0.036
Mof_H 	H 	0.0749	0.9348	0.8681	0.003
Mof_C 	C 	0.0736	0.8783	0.8251	-0.022
Mof_H 	H 	0.0648	0.8669	0.8724	0.063
Mof_C 	C 	0.0796	0.8551	0.7541	-0.12
Mof_C 	C 	0.0974	0.8734	0.691	-0.01
Mof_H 	H 	0.1023	0.8587	0.6434	0.041
Mof_C 	C 	0.1076	0.9136	0.6996	0.015
Mof_H 	H 	0.1228	0.9256	0.6605	-0.006
Mof_C 	C 	0.0708	0.8109	0.7509	0.525
Mof_C 	C 	0.2756	0.9088	0.6708	0.026
Mof_H 	H 	0.2885	0.9241	0.7328	-0.005
Mof_C 	C 	0.2444	0.8722	0.6553	-0.032
Mof_H 	H 	0.2329	0.8639	0.7022	0.06
Mof_C 	C 	0.2298	0.8473	0.5696	-0.119
Mof_C 	C 	0.2483	0.8614	0.5034	-0.016
Mof_H 	H 	0.241	0.8455	0.4463	0.024
Mof_C 	C 	0.2781	0.8997	0.5229	0.013
Mof_H 	H 	0.2912	0.9088	0.4786	-0.003
Mof_C 	C 	0.1884	0.8076	0.5421	0.514
Mof_C 	C 	0.9209	0.8995	0.3766	0.014
Mof_H 	H 	0.9192	0.9104	0.4321	-0.012
Mof_C 	C 	0.9485	0.8612	0.3925	-0.039
Mof_H 	H 	0.9642	0.8464	0.457	0.026
Mof_C 	C 	0.9524	0.8449	0.3102	-0.103
Mof_C 	C 	0.9236	0.867	0.2132	-0.048
Mof_H 	H 	0.9216	0.8564	0.154	0.04
Mof_C 	C 	0.8973	0.9053	0.2039	0.024
Mof_H 	H 	0.8794	0.9203	0.1387	-0.021
Mof_C 	C 	0.9924	0.8043	0.3338	0.444
Mof_C 	C 	0.082	0.9104	0.2458	-0.006
Mof_H 	H 	0.0668	0.9163	0.2897	0.009
Mof_C 	C 	0.0833	0.8715	0.2202	0.006
Mof_H 	H 	0.0669	0.8516	0.2437	0.028
Mof_C 	C 	0.1086	0.862	0.1607	-0.151
Mof_C 	C 	0.1279	0.8925	0.1199	-0.016
Mof_H 	H 	0.1434	0.8869	0.0763	0.026
Mof_C 	C 	0.1235	0.9307	0.1451	0.001
Mof_H 	H 	0.1358	0.951	0.1171	-0.019
Mof_C 	C 	0.1211	0.8188	0.1433	0.548
Mof_C 	C 	0.8708	0.0619	0.3894	0.046
Mof_H 	H 	0.8617	0.0435	0.4259	-0.031
Mof_C 	C 	0.8725	0.1034	0.4142	-0.094
Mof_H 	H 	0.8649	0.1118	0.4657	0.064
Mof_C 	C 	0.8856	0.1297	0.3592	-0.014
Mof_C 	C 	0.8946	0.117	0.28	-0.097
Mof_H 	H 	0.9015	0.1349	0.2399	0.052
Mof_C 	C 	0.893	0.0757	0.2628	0.044
Mof_H 	H 	0.9001	0.0667	0.2113	-0.033
Mof_C 	C 	0.8851	0.1744	0.3823	0.28
Mof_Eu	Eu	0.65592	0.74264	0.50111	2.115
Mof_Eu	Eu	0.58808	0.75475	0.08888	2.433
Mof_Eu	Eu	0.60041	0.75387	0.79368	2.299
Mof_Ag	Ag	0.49135	0.99438	0.28504	0.392
Mof_Ag	Ag	0.69063	0.99904	0.59806	0.41
Mof_Ag	Ag	0.59824	0.50064	0.24488	0.419
Mof_Ag	Ag	0.80755	0.48689	0.60532	0.401
Mof_Ag	Ag	0.38228	0.5144	0.79024	0.422
Mof_O 	O 	0.5995	0.79183	0.3528	-0.596
Mof_O 	O 	0.5905	0.80674	0.1988	-0.6
Mof_O 	O 	0.6885	0.79146	0.1082	-0.578
Mof_O 	O 	0.6774	0.80074	0.9508	-0.532
Mof_O 	O 	0.5217	0.80524	0.9399	-0.569
Mof_O 	O 	0.5058	0.79564	0.7797	-0.583
Mof_O 	O 	0.6069	0.80978	0.7004	-0.57
Mof_O 	O 	0.6491	0.79152	0.6042	-0.631
Mof_O 	O 	0.7434	0.69482	0.5175	-0.545
Mof_O 	O 	0.7726	0.6816	0.4042	-0.34
Mof_O 	O 	0.5714	0.70486	0.3285	-0.563
Mof_O 	O 	0.5616	0.70665	0.1696	-0.623
Mof_O 	O 	0.6688	0.70164	0.1014	-0.513
Mof_O 	O 	0.6756	0.71239	0.9617	-0.535
Mof_O 	O 	0.5051	0.71629	0.9154	-0.573
Mof_O 	O 	0.5088	0.70493	0.7726	-0.547
Mof_O 	O 	0.6156	0.70651	0.6962	-0.661
Mof_O 	O 	0.6346	0.68729	0.5755	-0.584
Mof_O 	O 	0.3827	0.3162	0.9583	-0.261
Mof_O 	O 	0.3834	0.30277	0.8118	-0.29
Mof_O 	O 	0.7117	0.74935	0.292	-0.911
Mof_H 	H 	0.7143	0.7727	0.2736	0.308
Mof_H 	H 	0.744	0.7381	0.3587	0.399
Mof_N 	N 	0.5153	0.93355	0.2769	-0.178
Mof_N 	N 	0.6995	0.9389	0.084	-0.139
Mof_N 	N 	0.4876	0.94243	0.7978	-0.194
Mof_N 	N 	0.6697	0.93878	0.6118	-0.184
Mof_N 	N 	0.8088	0.54966	0.5807	-0.208
Mof_N 	N 	0.5969	0.56326	0.2617	-0.19
Mof_N 	N 	0.7886	0.57608	0.1027	-0.179
Mof_N 	N 	0.3967	0.5785	0.7845	-0.182
Mof_N 	N 	0.6021	0.5597	0.7092	-0.188
Mof_N 	N 	0.3817	0.4512	0.8166	-0.205
Mof_C 	C 	0.5003	0.9033	0.3191	0.001
Mof_H 	H 	0.4762	0.9086	0.351	0.006
Mof_C 	C 	0.5196	0.8644	0.3164	0.005
Mof_H 	H 	0.5077	0.8441	0.345	0.01
Mof_C 	C 	0.5566	0.85583	0.2714	-0.16
Mof_C 	C 	0.571	0.8867	0.2269	-0.009
Mof_H 	H 	0.5939	0.8818	0.1932	0.019
Mof_C 	C 	0.551	0.9251	0.2327	-0.006
Mof_H 	H 	0.5629	0.9458	0.205	-0.016
Mof_C 	C 	0.5834	0.81462	0.274	0.515
Mof_C 	C 	0.7071	0.9145	0.1608	-0.054
Mof_H 	H 	0.7124	0.9256	0.2225	0.009
Mof_C 	C 	0.7075	0.8732	0.1539	0.078
Mof_H 	H 	0.7122	0.8572	0.2086	-0.009
Mof_C 	C 	0.7007	0.8568	0.0619	-0.278
Mof_C 	C 	0.6968	0.8823	0.9858	0.269
Mof_H 	H 	0.6936	0.8722	0.925	-0.049
Mof_C 	C 	0.6977	0.923	0.0005	-0.26
Mof_H 	H 	0.6971	0.9397	0.9504	0.117
Mof_C 	C 	0.688	0.813	0.0373	0.48
Mof_C 	C 	0.4952	0.9261	0.8863	0.026
Mof_H 	H 	0.4997	0.9429	0.9398	-0.004
Mof_C 	C 	0.4968	0.8855	0.9021	-0.016
Mof_H 	H 	0.4999	0.8753	0.9627	0.054
Mof_C 	C 	0.4937	0.86077	0.8261	-0.114
Mof_C 	C 	0.4836	0.8773	0.7314	-0.02
Mof_H 	H 	0.4789	0.8612	0.6768	0.032
Mof_C 	C 	0.4806	0.9176	0.7204	0.016
Mof_H 	H 	0.4734	0.9285	0.6569	-0.012
Mof_C 	C 	0.5058	0.816	0.8479	0.532
Mof_C 	C 	0.636	0.9286	0.658	0.004
Mof_H 	H 	0.6201	0.9486	0.6818	-0.01
Mof_C 	C 	0.6239	0.8899	0.6717	-0.008
Mof_H 	H 	0.5999	0.8842	0.7035	0.034
Mof_C 	C 	0.6476	0.85914	0.638	-0.153
Mof_C 	C 	0.6822	0.8699	0.5901	0.013
Mof_H 	H 	0.6972	0.8505	0.5634	0.003
Mof_C 	C 	0.6944	0.9095	0.5821	0.004
Mof_H 	H 	0.7211	0.916	0.5548	-0
Mof_C 	C 	0.6342	0.8171	0.6488	0.507
Mof_C 	C 	0.7952	0.5764	0.6316	0.029
Mof_H 	H 	0.794	0.5678	0.6896	-0.014
Mof_C 	C 	0.7829	0.6158	0.6035	-0.054
Mof_H 	H 	0.7726	0.633	0.641	0.042
Mof_C 	C 	0.7856	0.6302	0.5196	-0.073
Mof_C 	C 	0.804	0.6023	0.4733	-0.069
Mof_H 	H 	0.8096	0.6101	0.4192	0.055
Mof_C 	C 	0.8143	0.563	0.5057	0.051
Mof_H 	H 	0.826	0.5451	0.4713	-0.035
Mof_C 	C 	0.7679	0.6728	0.4787	0.405
Mof_C 	C 	0.5812	0.5809	0.3234	0.018
Mof_H 	H 	0.5749	0.5652	0.3681	-0.009
Mof_C 	C 	0.5736	0.6217	0.3251	-0.021
Mof_H 	H 	0.5648	0.6331	0.3724	0.042
Mof_C 	C 	0.5796	0.6449	0.2541	-0.14
Mof_C 	C 	0.5974	0.6266	0.191	-0.009
Mof_H 	H 	0.6023	0.6413	0.1434	0.026
Mof_C 	C 	0.6076	0.5864	0.1996	-0.002
Mof_H 	H 	0.6228	0.5744	0.1605	-0.011
Mof_C 	C 	0.5708	0.6891	0.2509	0.527
Mof_C 	C 	0.7756	0.5912	0.1708	0.039
Mof_H 	H 	0.7885	0.5759	0.2328	-0.014
Mof_C 	C 	0.7444	0.6278	0.1553	-0.069
Mof_H 	H 	0.7329	0.6361	0.2022	0.066
Mof_C 	C 	0.7298	0.6527	0.0696	-0.072
Mof_C 	C 	0.7483	0.6386	0.0034	-0.116
Mof_H 	H 	0.741	0.6545	0.9463	0.089
Mof_C 	C 	0.7781	0.6003	0.0229	-0.04
Mof_H 	H 	0.7912	0.5912	0.9786	0.054
Mof_C 	C 	0.6884	0.6924	0.0421	0.419
Mof_C 	C 	0.4209	0.6005	0.8766	0.023
Mof_H 	H 	0.4192	0.5896	0.9321	0.005
Mof_C 	C 	0.4485	0.6388	0.8925	-0.028
Mof_H 	H 	0.4642	0.6536	0.957	0.051
Mof_C 	C 	0.4524	0.6551	0.8102	-0.102
Mof_C 	C 	0.4236	0.633	0.7132	-0.038
Mof_H 	H 	0.4216	0.6436	0.654	0.056
Mof_C 	C 	0.3973	0.5947	0.7039	0.03
Mof_H 	H 	0.3794	0.5797	0.6387	-0.008
Mof_C 	C 	0.4924	0.6957	0.8338	0.51
Mof_C 	C 	0.582	0.5896	0.7458	0.001
Mof_H 	H 	0.5668	0.5837	0.7897	0.01
Mof_C 	C 	0.5833	0.6285	0.7202	0.007
Mof_H 	H 	0.5669	0.6484	0.7437	0.03
Mof_C 	C 	0.6086	0.638	0.6607	-0.145
Mof_C 	C 	0.6279	0.6075	0.6199	-0.016
Mof_H 	H 	0.6434	0.6131	0.5763	0.036
Mof_C 	C 	0.6235	0.5693	0.6451	0.008
Mof_H 	H 	0.6358	0.549	0.6171	-0.014
Mof_C 	C 	0.6211	0.6812	0.6433	0.552
Mof_C 	C 	0.3708	0.4381	0.8894	0.06
Mof_H 	H 	0.3617	0.4565	0.9259	-0.021
Mof_C 	C 	0.3725	0.3966	0.9142	-0.095
Mof_H 	H 	0.3649	0.3882	0.9657	0.083
Mof_C 	C 	0.3856	0.3703	0.8592	0.005
Mof_C 	C 	0.3946	0.383	0.78	-0.099
Mof_H 	H 	0.4015	0.3651	0.7399	0.065
Mof_C 	C 	0.393	0.4243	0.7628	0.056
Mof_H 	H 	0.4001	0.4333	0.7113	-0.026
Mof_C 	C 	0.3851	0.3256	0.8823	0.278
Mof_Eu	Eu	0.15592	0.24264	0.50111	2.124
Mof_Eu	Eu	0.08808	0.25475	0.08888	2.435
Mof_Eu	Eu	0.10041	0.25387	0.79368	2.307
Mof_Ag	Ag	0.99135	0.49438	0.28504	0.355
Mof_Ag	Ag	0.19063	0.49904	0.59806	0.425
Mof_Ag	Ag	0.09824	0.00064	0.24488	0.438
Mof_Ag	Ag	0.30755	0.98689	0.60532	0.399
Mof_Ag	Ag	0.88228	0.0144	0.79024	0.407
Mof_O 	O 	0.0995	0.29183	0.3528	-0.593
Mof_O 	O 	0.0905	0.30674	0.1988	-0.595
Mof_O 	O 	0.1885	0.29146	0.1082	-0.578
Mof_O 	O 	0.1774	0.30074	0.9508	-0.531
Mof_O 	O 	0.0217	0.30524	0.9399	-0.569
Mof_O 	O 	0.0058	0.29564	0.7797	-0.583
Mof_O 	O 	0.1069	0.30978	0.7004	-0.566
Mof_O 	O 	0.1491	0.29152	0.6042	-0.63
Mof_O 	O 	0.2434	0.19482	0.5175	-0.544
Mof_O 	O 	0.2726	0.1816	0.4042	-0.337
Mof_O 	O 	0.0714	0.20486	0.3285	-0.56
Mof_O 	O 	0.0616	0.20665	0.1696	-0.619
Mof_O 	O 	0.1688	0.20164	0.1014	-0.512
Mof_O 	O 	0.1756	0.21239	0.9617	-0.533
Mof_O 	O 	0.0051	0.21629	0.9154	-0.533
Mof_O 	O 	0.0088	0.20493	0.7726	-0.506
Mof_O 	O 	0.1156	0.20651	0.6962	-0.66
Mof_O 	O 	0.1346	0.18729	0.5755	-0.583
Mof_O 	O 	0.8827	0.8162	0.9583	-0.27
Mof_O 	O 	0.8834	0.80277	0.8118	-0.298
Mof_O 	O 	0.2117	0.24935	0.292	-0.912
Mof_H 	H 	0.2143	0.2727	0.2736	0.309
Mof_H 	H 	0.244	0.2381	0.3587	0.401
Mof_N 	N 	0.0153	0.43355	0.2769	-0.179
Mof_N 	N 	0.1995	0.4389	0.084	-0.136
Mof_N 	N 	0.9876	0.44243	0.7978	-0.188
Mof_N 	N 	0.1697	0.43878	0.6118	-0.184
Mof_N 	N 	0.3088	0.04966	0.5807	-0.207
Mof_N 	N 	0.0969	0.06326	0.2617	-0.19
Mof_N 	N 	0.2886	0.07608	0.1027	-0.179
Mof_N 	N 	0.8967	0.0785	0.7845	-0.185
Mof_N 	N 	0.1021	0.0597	0.7092	-0.187
Mof_N 	N 	0.8817	0.9512	0.8166	-0.205
Mof_C 	C 	0.0003	0.4033	0.3191	0.069
Mof_H 	H 	0.9762	0.4086	0.351	-0.037
Mof_C 	C 	0.0196	0.3644	0.3164	-0.032
Mof_H 	H 	0.0077	0.3441	0.345	0.03
Mof_C 	C 	0.0566	0.35583	0.2714	-0.138
Mof_C 	C 	0.071	0.3867	0.2269	-0.021
Mof_H 	H 	0.0939	0.3818	0.1932	0.027
Mof_C 	C 	0.051	0.4251	0.2327	0.006
Mof_H 	H 	0.0629	0.4458	0.205	-0.012
Mof_C 	C 	0.0834	0.31462	0.274	0.51
Mof_C 	C 	0.2071	0.4145	0.1608	-0.053
Mof_H 	H 	0.2124	0.4256	0.2225	0.01
Mof_C 	C 	0.2075	0.3732	0.1539	0.082
Mof_H 	H 	0.2122	0.3572	0.2086	-0.009
Mof_C 	C 	0.2007	0.3568	0.0619	-0.281
Mof_C 	C 	0.1968	0.3823	0.9858	0.28
Mof_H 	H 	0.1936	0.3722	0.925	-0.051
Mof_C 	C 	0.1977	0.423	0.0005	-0.265
Mof_H 	H 	0.1971	0.4397	0.9504	0.124
Mof_C 	C 	0.188	0.313	0.0373	0.481
Mof_C 	C 	0.9952	0.4261	0.8863	0.008
Mof_H 	H 	0.9997	0.4429	0.9398	-0.004
Mof_C 	C 	0.9968	0.3855	0.9021	0.005
Mof_H 	H 	0.9999	0.3753	0.9627	0.036
Mof_C 	C 	0.9937	0.36077	0.8261	-0.159
Mof_C 	C 	0.9836	0.3773	0.7314	0.001
Mof_H 	H 	0.9789	0.3612	0.6768	0.014
Mof_C 	C 	0.9806	0.4176	0.7204	-0.003
Mof_H 	H 	0.9734	0.4285	0.6569	-0.011
Mof_C 	C 	0.0058	0.316	0.8479	0.567
Mof_C 	C 	0.136	0.4286	0.658	0.008
Mof_H 	H 	0.1201	0.4486	0.6818	-0.005
Mof_C 	C 	0.1239	0.3899	0.6717	-0.008
Mof_H 	H 	0.0999	0.3842	0.7035	0.041
Mof_C 	C 	0.1476	0.35914	0.638	-0.15
Mof_C 	C 	0.1822	0.3699	0.5901	0.012
Mof_H 	H 	0.1972	0.3505	0.5634	0.004
Mof_C 	C 	0.1944	0.4095	0.5821	0.005
Mof_H 	H 	0.2211	0.416	0.5548	-0
Mof_C 	C 	0.1342	0.3171	0.6488	0.508
Mof_C 	C 	0.2952	0.0764	0.6316	0.032
Mof_H 	H 	0.294	0.0678	0.6896	-0.014
Mof_C 	C 	0.2829	0.1158	0.6035	-0.053
Mof_H 	H 	0.2726	0.133	0.641	0.044
Mof_C 	C 	0.2856	0.1302	0.5196	-0.07
Mof_C 	C 	0.304	0.1023	0.4733	-0.068
Mof_H 	H 	0.3096	0.1101	0.4192	0.057
Mof_C 	C 	0.3143	0.063	0.5057	0.054
Mof_H 	H 	0.326	0.0451	0.4713	-0.034
Mof_C 	C 	0.2679	0.1728	0.4787	0.407
Mof_C 	C 	0.0812	0.0809	0.3234	0.022
Mof_H 	H 	0.0749	0.0652	0.3681	-0.006
Mof_C 	C 	0.0736	0.1217	0.3251	-0.02
Mof_H 	H 	0.0648	0.1331	0.3724	0.046
Mof_C 	C 	0.0796	0.1449	0.2541	-0.135
Mof_C 	C 	0.0974	0.1266	0.191	-0.009
Mof_H 	H 	0.1023	0.1413	0.1434	0.03
Mof_C 	C 	0.1076	0.0864	0.1996	0.003
Mof_H 	H 	0.1228	0.0744	0.1605	-0.01
Mof_C 	C 	0.0708	0.1891	0.2509	0.528
Mof_C 	C 	0.2756	0.0912	0.1708	0.04
Mof_H 	H 	0.2885	0.0759	0.2328	-0.014
Mof_C 	C 	0.2444	0.1278	0.1553	-0.068
Mof_H 	H 	0.2329	0.1361	0.2022	0.066
Mof_C 	C 	0.2298	0.1527	0.0696	-0.068
Mof_C 	C 	0.2483	0.1386	0.0034	-0.118
Mof_H 	H 	0.241	0.1545	0.9463	0.092
Mof_C 	C 	0.2781	0.1003	0.0229	-0.042
Mof_H 	H 	0.2912	0.0912	0.9786	0.056
Mof_C 	C 	0.1884	0.1924	0.0421	0.42
Mof_C 	C 	0.9209	0.1005	0.8766	0.026
Mof_H 	H 	0.9192	0.0896	0.9321	-0.001
Mof_C 	C 	0.9485	0.1388	0.8925	-0.045
Mof_H 	H 	0.9642	0.1536	0.957	0.046
Mof_C 	C 	0.9524	0.1551	0.8102	-0.084
Mof_C 	C 	0.9236	0.133	0.7132	-0.056
Mof_H 	H 	0.9216	0.1436	0.654	0.056
Mof_C 	C 	0.8973	0.0947	0.7039	0.034
Mof_H 	H 	0.8794	0.0797	0.6387	-0.012
Mof_C 	C 	0.9924	0.1957	0.8338	0.432
Mof_C 	C 	0.082	0.0896	0.7458	0.005
Mof_H 	H 	0.0668	0.0837	0.7897	0.016
Mof_C 	C 	0.0833	0.1285	0.7202	0.01
Mof_H 	H 	0.0669	0.1484	0.7437	0.034
Mof_C 	C 	0.1086	0.138	0.6607	-0.142
Mof_C 	C 	0.1279	0.1075	0.6199	-0.014
Mof_H 	H 	0.1434	0.1131	0.5763	0.036
Mof_C 	C 	0.1235	0.0693	0.6451	0.011
Mof_H 	H 	0.1358	0.049	0.6171	-0.013
Mof_C 	C 	0.1211	0.1812	0.6433	0.555
Mof_C 	C 	0.8708	0.9381	0.8894	0.056
Mof_H 	H 	0.8617	0.9565	0.9259	-0.023
Mof_C 	C 	0.8725	0.8966	0.9142	-0.096
Mof_H 	H 	0.8649	0.8882	0.9657	0.08
Mof_C 	C 	0.8856	0.8703	0.8592	-0.001
Mof_C 	C 	0.8946	0.883	0.78	-0.1
Mof_H 	H 	0.9015	0.8651	0.7399	0.059
Mof_C 	C 	0.893	0.9243	0.7628	0.051
Mof_H 	H 	0.9001	0.9333	0.7113	-0.03
Mof_C 	C 	0.8851	0.8256	0.8823	0.278
_end
