# CIF file generated by openbabel 3.1.0, see https://openbabel.org
data_I
_chemical_name_common 'Cell_Modified_SUGDIJ'
_cell_length_a 24.36
_cell_length_b 24.36
_cell_length_c 16.909
_cell_angle_alpha 90
_cell_angle_beta 90
_cell_angle_gamma 90
_space_group_name_H-M_alt 'P 1'
_space_group_name_Hall 'P 1'
loop_
    _symmetry_equiv_pos_as_xyz
    x,y,z
loop_
    _atom_site_label
    _atom_site_type_symbol
    _atom_site_fract_x
    _atom_site_fract_y
    _atom_site_fract_z
    _atom_site_occupancy
    C1       C        0.34069    0.21081    0.98469    1.000
    C2       C        0.36042    0.23281    0.91297    1.000
    C3       C        0.39996    0.27508    0.91283    1.000
    C4       C        0.41929    0.29524    0.98575    1.000
    C5       C        0.39987    0.27425    0.05814    1.000
    C6       C        0.36074    0.23165    0.05696    1.000
    H7       H        0.34597    0.21610    0.85735    1.000
    H8       H        0.44996    0.32749    0.98619    1.000
    H9       H        0.34637    0.21423    0.11217    1.000
    C10      C        0.80051    0.67030    0.98517    1.000
    C11      C        0.77913    0.65010    0.91303    1.000
    C12      C        0.74177    0.60605    0.91186    1.000
    C13      C        0.72387    0.58356    0.98405    1.000
    C14      C        0.74445    0.60272    0.05674    1.000
    C15      C        0.78319    0.64558    0.05663    1.000
    H16      H        0.79242    0.66784    0.85749    1.000
    H17      H        0.69428    0.55032    0.98356    1.000
    H18      H        0.80064    0.65889    0.11234    1.000
    C19      C        0.31319    0.71147    0.48476    1.000
    C20      C        0.29187    0.73198    0.41301    1.000
    C21      C        0.24867    0.77043    0.41291    1.000
    C22      C        0.22808    0.78939    0.48587    1.000
    C23      C        0.24883    0.76956    0.55823    1.000
    C24      C        0.29154    0.73062    0.55705    1.000
    H25      H        0.30778    0.71673    0.35734    1.000
    H26      H        0.19505    0.81921    0.48633    1.000
    H27      H        0.30733    0.71452    0.61229    1.000
    C28      C        0.84875    0.16625    0.48450    1.000
    C29      C        0.86841    0.14392    0.55634    1.000
    C30      C        0.90939    0.10315    0.55672    1.000
    C31      C        0.93094    0.08480    0.48416    1.000
    C32      C        0.91234    0.10651    0.41187    1.000
    C33      C        0.87267    0.14845    0.41272    1.000
    H34      H        0.85058    0.15685    0.61199    1.000
    H35      H        0.96177    0.05271    0.48386    1.000
    H36      H        0.85898    0.16577    0.35710    1.000
    Zn37     Zn       0.06268    0.00997    0.98336    1.000
    Zn38     Zn       0.15201    0.92221    0.98554    1.000
    Zn39     Zn       0.04520    0.90440    0.07251    1.000
    Zn40     Zn       0.04608    0.90252    0.89794    1.000
    O41      O        0.07684    0.93508    0.98484    1.000
    O42      O        0.12562    0.04969    0.98192    1.000
    O43      O        0.17409    0.88422    0.07392    1.000
    O44      O        0.01320    0.95450    0.13429    1.000
    O45      O        0.19076    0.98617    0.98568    1.000
    O46      O        0.02493    0.03324    0.07127    1.000
    O47      O        0.09463    0.87094    0.13470    1.000
    O48      O        0.99497    0.85096    0.92058    1.000
    O49      O        0.17514    0.88378    0.89779    1.000
    O50      O        0.99231    0.85438    0.05101    1.000
    O51      O        0.09604    0.86967    0.83666    1.000
    O52      O        0.01270    0.95128    0.83487    1.000
    O53      O        0.02394    0.03107    0.89543    1.000
    C54      C        0.17622    0.03646    0.98362    1.000
    C55      C        0.14649    0.86519    0.13202    1.000
    C56      C        0.00690    0.00618    0.13046    1.000
    C57      C        0.97494    0.83488    0.98596    1.000
    C58      C        0.14786    0.86430    0.83966    1.000
    C59      C        0.00575    0.00296    0.83734    1.000
    Zn60     Zn       0.59172    0.50997    0.48341    1.000
    Zn61     Zn       0.50140    0.42353    0.48558    1.000
    Zn62     Zn       0.60685    0.40242    0.39777    1.000
    Zn63     Zn       0.60786    0.40416    0.57269    1.000
    O64      O        0.57666    0.43530    0.48489    1.000
    O65      O        0.52937    0.55059    0.48195    1.000
    O66      O        0.47768    0.38560    0.39801    1.000
    O67      O        0.64116    0.45072    0.33491    1.000
    O68      O        0.46344    0.48793    0.48585    1.000
    O69      O        0.63068    0.53057    0.39559    1.000
    O70      O        0.55628    0.37071    0.33602    1.000
    O71      O        0.65975    0.35304    0.55098    1.000
    O72      O        0.47883    0.38594    0.57370    1.000
    O73      O        0.65684    0.34982    0.42049    1.000
    O74      O        0.55779    0.37178    0.63537    1.000
    O75      O        0.64083    0.45388    0.63427    1.000
    O76      O        0.62976    0.53271    0.57120    1.000
    C77      C        0.47861    0.53802    0.48373    1.000
    C78      C        0.50438    0.36616    0.33934    1.000
    C79      C        0.64862    0.50233    0.33750    1.000
    C80      C        0.67655    0.33319    0.48581    1.000
    C81      C        0.50584    0.36688    0.63231    1.000
    C82      C        0.64761    0.50550    0.63035    1.000
    C83      C        0.71843    0.24719    0.43035    1.000
    C84      C        0.71983    0.29004    0.48579    1.000
    C85      C        0.76261    0.29106    0.54133    1.000
    C86      C        0.80401    0.25104    0.53997    1.000
    C87      C        0.80299    0.20770    0.48473    1.000
    C88      C        0.75819    0.20516    0.43087    1.000
    N89      N        0.75031    0.15895    0.37955    1.000
    H90      H        0.68480    0.24509    0.38849    1.000
    H91      H        0.83738    0.25435    0.58201    1.000
    H92      H        0.72022    0.15991    0.33557    1.000
    H93      H        0.76985    0.12149    0.38963    1.000
    C94      C        0.94712    0.00258    0.25093    1.000
    C95      C        0.97862    0.03403    0.19789    1.000
    C96      C        0.98463    0.09049    0.21293    1.000
    C97      C        0.96170    0.11423    0.28131    1.000
    C98      C        0.93191    0.08219    0.33576    1.000
    C99      C        0.92318    0.02605    0.31847    1.000
    N100     N        0.88907    0.99244    0.36778    1.000
    H101     H        0.94074    0.95926    0.23971    1.000
    H102     H        0.96856    0.15741    0.29296    1.000
    H103     H        0.88616    0.95020    0.35803    1.000
    H104     H        0.86300    0.00956    0.41002    1.000
    C105     C        0.94956    0.99739    0.71305    1.000
    C106     C        0.97686    0.02989    0.76955    1.000
    C107     C        0.97797    0.08706    0.75811    1.000
    C108     C        0.95432    0.11072    0.69025    1.000
    C109     C        0.92877    0.07791    0.63240    1.000
    C110     C        0.92509    0.02067    0.64567    1.000
    N111     N        0.89563    0.98561    0.59242    1.000
    H112     H        0.94701    0.95335    0.72124    1.000
    H113     H        0.95748    0.15467    0.68164    1.000
    H114     H        0.89643    0.94302    0.59953    1.000
    H115     H        0.86938    0.00153    0.54946    1.000
    C116     C        0.34229    0.61405    0.50486    1.000
    C117     C        0.35648    0.66811    0.48423    1.000
    C118     C        0.41152    0.67956    0.46313    1.000
    C119     C        0.45083    0.63702    0.46339    1.000
    C120     C        0.43645    0.58276    0.48351    1.000
    C121     C        0.38155    0.57189    0.50395    1.000
    H122     H        0.30039    0.60436    0.52117    1.000
    H123     H        0.49285    0.64647    0.44740    1.000
    N124     N        0.42847    0.73410    0.44260    1.000
    H125     H        0.40140    0.76728    0.44431    1.000
    H126     H        0.46907    0.74206    0.42637    1.000
    C127     C        0.25625    0.81700    0.69029    1.000
    C128     C        0.22405    0.78854    0.63453    1.000
    C129     C        0.16747    0.78138    0.65038    1.000
    C130     C        0.14396    0.80538    0.71795    1.000
    C131     C        0.17565    0.83566    0.77227    1.000
    C132     C        0.23241    0.84016    0.75848    1.000
    H133     H        0.29971    0.82282    0.67972    1.000
    H134     H        0.10035    0.80017    0.72800    1.000
    N135     N        0.13338    0.74890    0.59951    1.000
    H136     H        0.15015    0.72304    0.55672    1.000
    H137     H        0.09099    0.74708    0.60837    1.000
    C138     C        0.14257    0.80752    0.25514    1.000
    C139     C        0.17422    0.83683    0.19975    1.000
    C140     C        0.23118    0.84053    0.21242    1.000
    C141     C        0.25533    0.81742    0.28039    1.000
    C142     C        0.22327    0.78977    0.33714    1.000
    C143     C        0.16639    0.78347    0.32249    1.000
    N144     N        0.13230    0.75163    0.37419    1.000
    H145     H        0.09879    0.80295    0.24598    1.000
    H146     H        0.29900    0.82256    0.28992    1.000
    H147     H        0.08979    0.75059    0.36635    1.000
    H148     H        0.14909    0.72530    0.41636    1.000
    C149     C        0.69996    0.61001    0.19049    1.000
    C150     C        0.72543    0.57726    0.13249    1.000
    C151     C        0.72927    0.52001    0.14578    1.000
    C152     C        0.70488    0.49668    0.21322    1.000
    C153     C        0.67762    0.52917    0.26977    1.000
    C154     C        0.67647    0.58633    0.25838    1.000
    H155     H        0.69668    0.65396    0.18192    1.000
    H156     H        0.70746    0.45265    0.22143    1.000
    N157     N        0.75887    0.48503    0.09260    1.000
    H158     H        0.78530    0.50102    0.04994    1.000
    H159     H        0.75809    0.44244    0.09963    1.000
    C160     C        0.69332    0.61359    0.78065    1.000
    C161     C        0.72270    0.58154    0.83555    1.000
    C162     C        0.73113    0.52527    0.81864    1.000
    C163     C        0.70719    0.50175    0.75110    1.000
    C164     C        0.67606    0.53325    0.69769    1.000
    C165     C        0.67045    0.58980    0.71230    1.000
    H166     H        0.68662    0.65683    0.79198    1.000
    H167     H        0.71327    0.45834    0.74017    1.000
    N168     N        0.76495    0.49160    0.86825    1.000
    H169     H        0.79122    0.50871    0.91023    1.000
    H170     H        0.76752    0.44930    0.85887    1.000
    C171     C        0.84342    0.75866    0.04044    1.000
    C172     C        0.84354    0.71459    0.98529    1.000
    C173     C        0.88688    0.71193    0.93011    1.000
    C174     C        0.92899    0.75115    0.92972    1.000
    C175     C        0.93020    0.79325    0.98625    1.000
    C176     C        0.88744    0.79625    0.04180    1.000
    N177     N        0.79787    0.76794    0.09248    1.000
    H178     H        0.96142    0.74781    0.88617    1.000
    C179     C        0.41804    0.33995    0.26366    1.000
    C180     C        0.47557    0.33897    0.27155    1.000
    C181     C        0.50650    0.31441    0.21084    1.000
    C182     C        0.48113    0.29284    0.14352    1.000
    C183     C        0.42389    0.29492    0.13407    1.000
    C184     C        0.39193    0.31862    0.19547    1.000
    N185     N        0.33354    0.32407    0.18820    1.000
    H186     H        0.39336    0.35907    0.30928    1.000
    H187     H        0.50658    0.27484    0.09780    1.000
    H188     H        0.31034    0.34013    0.23469    1.000
    H189     H        0.31289    0.31468    0.13590    1.000
    C190     C        0.41938    0.34053    0.70736    1.000
    C191     C        0.47698    0.33993    0.70029    1.000
    C192     C        0.50766    0.31604    0.76177    1.000
    C193     C        0.48190    0.29454    0.82889    1.000
    C194     C        0.42453    0.29614    0.83741    1.000
    C195     C        0.39290    0.31939    0.77533    1.000
    N196     N        0.33443    0.32461    0.78166    1.000
    H197     H        0.39488    0.35921    0.66117    1.000
    H198     H        0.50714    0.27688    0.87512    1.000
    H199     H        0.31147    0.34009    0.73450    1.000
    H200     H        0.31349    0.31591    0.83397    1.000
    C201     C        0.24483    0.17684    0.96507    1.000
    C202     C        0.29974    0.16526    0.98408    1.000
    C203     C        0.31444    0.11049    0.00245    1.000
    C204     C        0.27412    0.06888    0.00159    1.000
    C205     C        0.21895    0.08068    0.98338    1.000
    C206     C        0.20493    0.13530    0.96523    1.000
    H207     H        0.23270    0.21845    0.95070    1.000
    H208     H        0.28599    0.02717    0.01575    1.000
    N209     N        0.37007    0.09616    0.02099    1.000
    H210     H        0.40171    0.12502    0.01960    1.000
    H211     H        0.38043    0.05576    0.03531    1.000
    H212     H        0.76479    0.32371    0.58470    1.000
    H213     H        0.99857    0.11336    0.80035    1.000
    H214     H        0.36895    0.53075    0.52006    1.000
    H215     H        0.25808    0.86313    0.79895    1.000
    H216     H        0.25686    0.86275    0.17110    1.000
    H217     H        0.64675    0.61526    0.67243    1.000
    H218     H        0.88869    0.67884    0.88744    1.000
    H219     H        0.55084    0.31257    0.21455    1.000
    H220     H        0.65589    0.61262    0.30067    1.000
    H221     H        0.88704    0.82949    0.08438    1.000
    H222     H        0.00861    0.11590    0.17334    1.000
    H223     H        0.55204    0.31457    0.75871    1.000
    H224     H        0.16299    0.14599    0.95064    1.000
    H225     H        0.75973    0.74963    0.08291    1.000
    H226     H        0.80027    0.79762    0.13693    1.000
