data_functionalizedCrystal
_audit_creation_method	'EQeq! by Chris Wilmer'
_symmetry_space_group_name_H-M	'P1'
_symmetry_Int_Tables_number	1
_symmetry_cell_setting	triclinic
loop_
_symmetry_equiv_pos_as_xyz
  x,y,z
_cell_length_a	6.8376
_cell_length_b	15.161
_cell_length_c	15.161
_cell_angle_alpha	62.2186
_cell_angle_beta	81.3537
_cell_angle_gamma	98.6463
loop_
_atom_site_label
_atom_site_type_symbol
_atom_site_fract_x
_atom_site_fract_y
_atom_site_fract_z
_atom_site_charge
Mof_Fe	Fe	0.8979	0.6852	0.5859	0.829
Mof_Fe	Fe	0.4838	0.5859	0.7289	0.829
Mof_Fe	Fe	0.2127	0.7289	0.6852	0.828
Mof_Fe	Fe	0.1021	0.3148	0.4141	0.829
Mof_Fe	Fe	0.5162	0.4141	0.2711	0.829
Mof_Fe	Fe	0.7873	0.2711	0.3148	0.828
Mof_H 	H 	0.6539	0.0195	0.5404	0.07
Mof_H 	H 	0.1943	0.5404	0.4401	0.07
Mof_H 	H 	0.6344	0.4401	0.0195	0.07
Mof_H 	H 	0.3461	0.9805	0.4596	0.07
Mof_H 	H 	0.8057	0.4596	0.5599	0.07
Mof_H 	H 	0.3656	0.5599	0.9805	0.07
Mof_C 	C 	0.6589	0.8208	0.618	0.293
Mof_C 	C 	0.8319	0.9097	0.5464	-0.135
Mof_C 	C 	0.0377	0.8972	0.5348	0.207
Mof_C 	C 	0.8111	0.004	0.527	-0.065
Mof_C 	C 	0.2769	0.618	0.5612	0.293
Mof_C 	C 	0.3783	0.5464	0.5439	-0.135
Mof_C 	C 	0.5725	0.5348	0.568	0.207
Mof_C 	C 	0.3381	0.527	0.469	-0.065
Mof_C 	C 	0.8381	0.5612	0.8208	0.292
Mof_C 	C 	0.9222	0.5439	0.9097	-0.134
Mof_C 	C 	0.1405	0.568	0.8972	0.206
Mof_C 	C 	0.8071	0.469	0.004	-0.066
Mof_C 	C 	0.3411	0.1792	0.382	0.293
Mof_C 	C 	0.1681	0.0903	0.4536	-0.135
Mof_C 	C 	0.9623	0.1028	0.4652	0.207
Mof_C 	C 	0.1889	0.996	0.473	-0.065
Mof_C 	C 	0.7231	0.382	0.4388	0.293
Mof_C 	C 	0.6217	0.4536	0.4561	-0.135
Mof_C 	C 	0.4275	0.4652	0.432	0.207
Mof_C 	C 	0.6619	0.473	0.531	-0.065
Mof_C 	C 	0.1619	0.4388	0.1792	0.292
Mof_C 	C 	0.0778	0.4561	0.0903	-0.134
Mof_C 	C 	0.8595	0.432	0.1028	0.206
Mof_C 	C 	0.1929	0.531	0.996	-0.066
Mof_O 	O 	0.6785	0.7284	0.6444	-0.453
Mof_O 	O 	0.4804	0.8626	0.6139	-0.31
Mof_O 	O 	0.0797	0.809	0.5657	-0.435
Mof_O 	O 	0.3229	0.6444	0.6272	-0.453
Mof_O 	O 	0.0943	0.6139	0.5235	-0.31
Mof_O 	O 	0.6454	0.5657	0.6253	-0.435
Mof_O 	O 	0.9501	0.6272	0.7284	-0.453
Mof_O 	O 	0.6178	0.5235	0.8626	-0.31
Mof_O 	O 	0.2707	0.6253	0.809	-0.435
Mof_O 	O 	0.3215	0.2716	0.3556	-0.453
Mof_O 	O 	0.5196	0.1374	0.3861	-0.31
Mof_O 	O 	0.9203	0.191	0.4343	-0.435
Mof_O 	O 	0.6771	0.3556	0.3728	-0.453
Mof_O 	O 	0.9057	0.3861	0.4765	-0.31
Mof_O 	O 	0.3546	0.4343	0.3747	-0.435
Mof_O 	O 	0.0499	0.3728	0.2716	-0.453
Mof_O 	O 	0.3822	0.4765	0.1374	-0.31
Mof_O 	O 	0.7293	0.3747	0.191	-0.435
_end
