# CIF file generated by openbabel 3.1.0, see https://openbabel.org
data_I
_chemical_name_common 'image0'
_cell_length_a 9.118
_cell_length_b 9.161
_cell_length_c 9.335
_cell_angle_alpha 85.98
_cell_angle_beta 77.45
_cell_angle_gamma 89.01
_space_group_name_H-M_alt 'P 1'
_space_group_name_Hall 'P 1'
loop_
    _symmetry_equiv_pos_as_xyz
    x,y,z
loop_
    _atom_site_label
    _atom_site_type_symbol
    _atom_site_fract_x
    _atom_site_fract_y
    _atom_site_fract_z
    _atom_site_occupancy
    P1       P        0.38120    0.18560    0.90040    1.000
    P2       P        0.83000    0.35450    0.85670    1.000
    P3       P        0.62760    0.37930    0.32380    1.000
    F1       F        0.98710    0.39240    0.08220    1.000
    O1       O        0.77440    0.20220    0.92760    1.000
    O2       O        0.45750    0.18840    0.03060    1.000
    O3       O        0.35290    0.02690    0.87350    1.000
    O4       O        0.48680    0.24940    0.76110    1.000
    O5       O        0.23390    0.26480    0.93060    1.000
    O6       O        0.76470    0.46920    0.96220    1.000
    O7       O        0.77490    0.37840    0.71210    1.000
    O8       O        0.00110    0.35540    0.81190    1.000
    O9       O        0.74600    0.49190    0.25830    1.000
    O10      O        0.64760    0.32460    0.47690    1.000
    O11      O        0.63730    0.24490    0.23480    1.000
    O12      O        0.47070    0.44690    0.33870    1.000
    Al1      Al       0.62960    0.15720    0.07910    1.000
    Al2      Al       0.13450    0.43770    0.91480    1.000
    Al3      Al       0.60620    0.37860    0.65600    1.000
    P4       P        0.61880    0.81440    0.09960    1.000
    P5       P        0.17000    0.64550    0.14330    1.000
    P6       P        0.37240    0.62070    0.67620    1.000
    F2       F        0.01290    0.60760    0.91780    1.000
    O13      O        0.22560    0.79780    0.07240    1.000
    O14      O        0.54250    0.81160    0.96940    1.000
    O15      O        0.64710    0.97310    0.12650    1.000
    O16      O        0.51320    0.75060    0.23890    1.000
    O17      O        0.76610    0.73520    0.06940    1.000
    O18      O        0.23530    0.53080    0.03780    1.000
    O19      O        0.22510    0.62160    0.28790    1.000
    O20      O        0.99890    0.64460    0.18810    1.000
    O21      O        0.25400    0.50810    0.74170    1.000
    O22      O        0.35240    0.67540    0.52310    1.000
    O23      O        0.36270    0.75510    0.76520    1.000
    O24      O        0.52930    0.55310    0.66130    1.000
    Al4      Al       0.37040    0.84280    0.92090    1.000
    Al5      Al       0.86550    0.56230    0.08520    1.000
    Al6      Al       0.39380    0.62140    0.34400    1.000
