data_functionalizedCrystal
_audit_creation_method	'EQeq! by Chris Wilmer'
_symmetry_space_group_name_H-M	'P1'
_symmetry_Int_Tables_number	1
_symmetry_cell_setting	triclinic
loop_
_symmetry_equiv_pos_as_xyz
  x,y,z
_cell_length_a	32.989
_cell_length_b	39.08
_cell_length_c	27.682
_cell_angle_alpha	90
_cell_angle_beta	124.04
_cell_angle_gamma	90
loop_
_atom_site_label
_atom_site_type_symbol
_atom_site_fract_x
_atom_site_fract_y
_atom_site_fract_z
_atom_site_charge
Mof_Co	Co	0.63636	0.22943	0.03348	1.125
Mof_Co	Co	0.72186	0.19013	0.15597	1.077
Mof_O 	O 	0.64691	0.02059	0.60812	-0.345
Mof_O 	O 	0.59426	0.21486	0.0591	-0.586
Mof_O 	O 	0.63654	0.18457	0.99951	-0.479
Mof_O 	O 	0.69056	0.15824	0.08295	-0.505
Mof_O 	O 	0.65699	0.19956	0.1466	-0.495
Mof_C 	C 	0.48745	0.17535	0.18877	0.006
Mof_O 	O 	0.19323	0.24708	0.02401	-0.429
Mof_O 	O 	0.21325	0.26381	0.11054	-0.596
Mof_C 	C 	0.22184	0.25327	0.0774	0.38
Mof_C 	C 	0.27616	0.23677	0.1116	-0.137
Mof_C 	C 	0.29129	0.22668	0.0777	0.045
Mof_H 	H 	0.2713	0.2298	0.0375	0.029
Mof_C 	C 	0.33747	0.21146	0.10339	-0.126
Mof_H 	H 	0.3482	0.2054	0.0798	0.075
Mof_C 	C 	0.3672	0.20515	0.16198	0.052
Mof_C 	C 	0.35135	0.21571	0.1975	-0.133
Mof_H 	H 	0.3709	0.2123	0.2376	0.062
Mof_C 	C 	0.30579	0.23141	0.1714	0.043
Mof_H 	H 	0.295	0.2384	0.1944	-0.018
Mof_C 	C 	0.41418	0.18709	0.18665	0.018
Mof_C 	C 	0.42907	0.16291	0.23078	-0.095
Mof_H 	H 	0.4093	0.1588	0.2443	0.055
Mof_C 	C 	0.50121	0.15122	0.23295	-0.088
Mof_H 	H 	0.5301	0.139	0.2481	0.052
Mof_C 	C 	0.47243	0.14499	0.25495	0.017
Mof_C 	C 	0.4435	0.19297	0.16624	-0.085
Mof_H 	H 	0.4337	0.209	0.1369	0.046
Mof_C 	C 	0.48894	0.11948	0.30236	0.046
Mof_C 	C 	0.63914	0.03077	0.9103	0.025
Mof_C 	C 	0.63206	0.03055	0.85561	-0.1
Mof_H 	H 	0.63	0.0511	0.8375	0.06
Mof_C 	C 	0.51816	0.18231	0.16664	0.085
Mof_C 	C 	0.51975	0.07289	0.39374	-0.13
Mof_C 	C 	0.53585	0.0472	0.4421	0.392
Mof_C 	C 	0.49882	0.19025	0.11024	-0.168
Mof_H 	H 	0.465	0.1911	0.0839	0.079
Mof_C 	C 	0.62257	0.12306	0.93714	0.085
Mof_H 	H 	0.6038	0.1418	0.9152	0.012
Mof_C 	C 	0.61835	0.09341	0.9109	-0.149
Mof_H 	H 	0.5966	0.0922	0.8706	0.081
Mof_C 	C 	0.64455	0.06425	0.94019	0.065
Mof_C 	C 	0.68297	0.09768	0.0283	0.079
Mof_H 	H 	0.7059	0.0994	0.0683	-0.005
Mof_O 	O 	0.5034	0.0331	0.4461	-0.39
Mof_O 	O 	0.5817	0.0425	0.476	-0.28
Mof_C 	C 	0.4545	0.0994	0.3048	-0.084
Mof_H 	H 	0.4214	0.1009	0.275	0.051
Mof_C 	C 	0.4694	0.0773	0.3515	0.013
Mof_H 	H 	0.4464	0.0656	0.3546	0.026
Mof_C 	C 	0.538	0.11525	0.3491	-0.117
Mof_H 	H 	0.5614	0.1293	0.3505	0.058
Mof_C 	C 	0.5534	0.09133	0.393	0.079
Mof_H 	H 	0.5866	0.0882	0.4214	-0
Mof_C 	C 	0.62278	0.99365	0.77008	0.024
Mof_C 	C 	0.65292	0.97217	0.76342	-0.105
Mof_H 	H 	0.6754	0.9582	0.794	0.062
Mof_C 	C 	0.64943	0.97165	0.71101	0.043
Mof_H 	H 	0.6696	0.9573	0.7066	0.024
Mof_C 	C 	0.61581	0.9926	0.66525	-0.114
Mof_C 	C 	0.58567	0.01407	0.67191	0.033
Mof_H 	H 	0.5632	0.0281	0.6413	0.033
Mof_C 	C 	0.58915	0.0146	0.72432	-0.108
Mof_H 	H 	0.569	0.029	0.7288	0.066
Mof_C 	C 	0.65522	0.12613	0.99766	-0.169
Mof_C 	C 	0.5801	0.19598	0.1301	-0.204
Mof_C 	C 	0.66108	0.15878	0.02941	0.423
Mof_C 	C 	0.52877	0.19703	0.0916	0.089
Mof_H 	H 	0.5149	0.2025	0.0526	0.005
Mof_C 	C 	0.56941	0.18106	0.20628	-0.172
Mof_H 	H 	0.5836	0.1764	0.2455	0.078
Mof_C 	C 	0.6773	0.06697	0.00097	-0.146
Mof_H 	H 	0.6952	0.048	0.0227	0.07
Mof_C 	C 	0.59872	0.18721	0.1843	0.114
Mof_H 	H 	0.6325	0.1849	0.2094	-0.018
Mof_C 	C 	0.6079	0.20515	0.1018	0.494
Mof_C 	C 	0.4716	0.8811	0.3364	-0.039
Mof_C 	C 	0.4861	0.9044	0.3791	0.01
Mof_C 	C 	0.5204	0.9057	0.3087	-0.017
Mof_C 	C 	0.5388	0.9286	0.3569	-0.047
Mof_H 	H 	0.4487	0.8647	0.3302	0.034
Mof_H 	H 	0.471	0.9042	0.3991	0.025
Mof_H 	H 	0.5295	0.9078	0.2825	0.027
Mof_H 	H 	0.5629	0.9444	0.3649	0.044
Mof_O 	O 	0.5125	0.9558	0.4619	-0.073
Mof_O 	O 	0.4249	0.9691	0.5461	-0.207
Mof_Co	Co	0.13636	0.72943	0.03348	1.124
Mof_Co	Co	0.22186	0.69013	0.15597	1.076
Mof_O 	O 	0.14691	0.52059	0.60812	-0.343
Mof_O 	O 	0.09426	0.71486	0.0591	-0.584
Mof_O 	O 	0.13654	0.68457	0.99951	-0.478
Mof_O 	O 	0.19056	0.65824	0.08295	-0.505
Mof_O 	O 	0.15699	0.69956	0.1466	-0.494
Mof_C 	C 	0.98745	0.67535	0.18877	0.036
Mof_O 	O 	0.69323	0.74708	0.02401	-0.428
Mof_O 	O 	0.71325	0.76381	0.11054	-0.595
Mof_C 	C 	0.72184	0.75327	0.0774	0.379
Mof_C 	C 	0.77616	0.73677	0.1116	-0.134
Mof_C 	C 	0.79129	0.72668	0.0777	0.042
Mof_H 	H 	0.7713	0.7298	0.0375	0.03
Mof_C 	C 	0.83747	0.71146	0.10339	-0.121
Mof_H 	H 	0.8482	0.7054	0.0798	0.073
Mof_C 	C 	0.8672	0.70515	0.16198	0.046
Mof_C 	C 	0.85135	0.71571	0.1975	-0.128
Mof_H 	H 	0.8709	0.7123	0.2376	0.06
Mof_C 	C 	0.80579	0.73141	0.1714	0.04
Mof_H 	H 	0.795	0.7384	0.1944	-0.017
Mof_C 	C 	0.91418	0.68709	0.18665	0.03
Mof_C 	C 	0.92907	0.66291	0.23078	-0.106
Mof_H 	H 	0.9093	0.6588	0.2443	0.059
Mof_C 	C 	0.00121	0.65122	0.23295	-0.115
Mof_H 	H 	0.0301	0.639	0.2481	0.061
Mof_C 	C 	0.97243	0.64499	0.25495	0.031
Mof_C 	C 	0.9435	0.69297	0.16624	-0.103
Mof_H 	H 	0.9337	0.709	0.1369	0.053
Mof_C 	C 	0.98894	0.61948	0.30236	0.05
Mof_C 	C 	0.13914	0.53077	0.9103	0.025
Mof_C 	C 	0.13206	0.53055	0.85561	-0.103
Mof_H 	H 	0.13	0.5511	0.8375	0.062
Mof_C 	C 	0.01816	0.68231	0.16664	0.049
Mof_C 	C 	0.01975	0.57289	0.39374	-0.144
Mof_C 	C 	0.03585	0.5472	0.4421	0.398
Mof_C 	C 	0.99882	0.69025	0.11024	-0.127
Mof_H 	H 	0.965	0.6911	0.0839	0.065
Mof_C 	C 	0.12257	0.62306	0.93714	0.084
Mof_H 	H 	0.1038	0.6418	0.9152	0.012
Mof_C 	C 	0.11835	0.59341	0.9109	-0.149
Mof_H 	H 	0.0966	0.5922	0.8706	0.081
Mof_C 	C 	0.14455	0.56425	0.94019	0.065
Mof_C 	C 	0.18297	0.59768	0.0283	0.078
Mof_H 	H 	0.2059	0.5994	0.0683	-0.005
Mof_O 	O 	0.0034	0.5331	0.4461	-0.375
Mof_O 	O 	0.0817	0.5425	0.476	-0.282
Mof_C 	C 	0.9545	0.5994	0.3048	-0.085
Mof_H 	H 	0.9214	0.6009	0.275	0.051
Mof_C 	C 	0.9694	0.5773	0.3515	0.017
Mof_H 	H 	0.9464	0.5656	0.3546	0.025
Mof_C 	C 	0.038	0.61525	0.3491	-0.135
Mof_H 	H 	0.0614	0.6293	0.3505	0.064
Mof_C 	C 	0.0534	0.59133	0.393	0.099
Mof_H 	H 	0.0866	0.5882	0.4214	-0.007
Mof_C 	C 	0.12278	0.49365	0.77008	0.031
Mof_C 	C 	0.15292	0.47217	0.76342	-0.097
Mof_H 	H 	0.1754	0.4582	0.794	0.058
Mof_C 	C 	0.14943	0.47165	0.71101	0.03
Mof_H 	H 	0.1696	0.4573	0.7066	0.027
Mof_C 	C 	0.11581	0.4926	0.66525	-0.092
Mof_C 	C 	0.08567	0.51407	0.67191	0.034
Mof_H 	H 	0.0632	0.5281	0.6413	0.033
Mof_C 	C 	0.08915	0.5146	0.72432	-0.069
Mof_H 	H 	0.069	0.529	0.7288	0.053
Mof_C 	C 	0.15522	0.62613	0.99766	-0.168
Mof_C 	C 	0.0801	0.69598	0.1301	-0.185
Mof_C 	C 	0.16108	0.65878	0.02941	0.421
Mof_C 	C 	0.02877	0.69703	0.0916	0.058
Mof_H 	H 	0.0149	0.7025	0.0526	0.014
Mof_C 	C 	0.06941	0.68106	0.20628	-0.148
Mof_H 	H 	0.0836	0.6764	0.2455	0.069
Mof_C 	C 	0.1773	0.56697	0.00097	-0.146
Mof_H 	H 	0.1952	0.548	0.0227	0.07
Mof_C 	C 	0.09872	0.68721	0.1843	0.092
Mof_H 	H 	0.1325	0.6849	0.2094	-0.011
Mof_C 	C 	0.1079	0.70515	0.1018	0.487
Mof_C 	C 	0.9716	0.3811	0.3364	-0.041
Mof_C 	C 	0.9861	0.4044	0.3791	0.019
Mof_C 	C 	0.0204	0.4057	0.3087	-0.008
Mof_C 	C 	0.0388	0.4286	0.3569	-0.059
Mof_H 	H 	0.9487	0.3647	0.3302	0.034
Mof_H 	H 	0.971	0.4042	0.3991	0.022
Mof_H 	H 	0.0295	0.4078	0.2825	0.021
Mof_H 	H 	0.0629	0.4444	0.3649	0.046
Mof_O 	O 	0.0125	0.4558	0.4619	-0.059
Mof_O 	O 	0.9249	0.4691	0.5461	-0.208
Mof_Co	Co	0.36364	0.22943	0.96652	1.124
Mof_Co	Co	0.27814	0.19013	0.84403	1.076
Mof_O 	O 	0.35309	0.02059	0.39188	-0.345
Mof_O 	O 	0.40574	0.21486	0.9409	-0.586
Mof_O 	O 	0.36346	0.18457	0.00049	-0.478
Mof_O 	O 	0.30944	0.15824	0.91705	-0.505
Mof_O 	O 	0.34301	0.19956	0.8534	-0.495
Mof_C 	C 	0.51255	0.17535	0.81123	0.006
Mof_O 	O 	0.80677	0.24708	0.97599	-0.429
Mof_O 	O 	0.78675	0.26381	0.88946	-0.595
Mof_C 	C 	0.77816	0.25327	0.9226	0.38
Mof_C 	C 	0.72384	0.23677	0.8884	-0.137
Mof_C 	C 	0.70871	0.22668	0.9223	0.045
Mof_H 	H 	0.7287	0.2298	0.9625	0.029
Mof_C 	C 	0.66253	0.21146	0.89661	-0.126
Mof_H 	H 	0.6518	0.2054	0.9202	0.075
Mof_C 	C 	0.6328	0.20515	0.83802	0.052
Mof_C 	C 	0.64865	0.21571	0.8025	-0.133
Mof_H 	H 	0.6291	0.2123	0.7624	0.062
Mof_C 	C 	0.69421	0.23141	0.8286	0.043
Mof_H 	H 	0.705	0.2384	0.8056	-0.018
Mof_C 	C 	0.58582	0.18709	0.81335	0.018
Mof_C 	C 	0.57093	0.16291	0.76922	-0.095
Mof_H 	H 	0.5907	0.1588	0.7557	0.055
Mof_C 	C 	0.49879	0.15122	0.76705	-0.088
Mof_H 	H 	0.4699	0.139	0.7519	0.052
Mof_C 	C 	0.52757	0.14499	0.74505	0.017
Mof_C 	C 	0.5565	0.19297	0.83376	-0.085
Mof_H 	H 	0.5663	0.209	0.8631	0.046
Mof_C 	C 	0.51106	0.11948	0.69764	0.046
Mof_C 	C 	0.36086	0.03077	0.0897	0.025
Mof_C 	C 	0.36794	0.03055	0.14439	-0.1
Mof_H 	H 	0.37	0.0511	0.1625	0.06
Mof_C 	C 	0.48184	0.18231	0.83336	0.085
Mof_C 	C 	0.48025	0.07289	0.60626	-0.13
Mof_C 	C 	0.46415	0.0472	0.5579	0.392
Mof_C 	C 	0.50118	0.19025	0.88976	-0.168
Mof_H 	H 	0.535	0.1911	0.9161	0.079
Mof_C 	C 	0.37743	0.12306	0.06286	0.084
Mof_H 	H 	0.3962	0.1418	0.0848	0.012
Mof_C 	C 	0.38165	0.09341	0.0891	-0.149
Mof_H 	H 	0.4034	0.0922	0.1294	0.081
Mof_C 	C 	0.35545	0.06425	0.05981	0.065
Mof_C 	C 	0.31703	0.09768	0.9717	0.078
Mof_H 	H 	0.2941	0.0994	0.9317	-0.005
Mof_O 	O 	0.4966	0.0331	0.5539	-0.389
Mof_O 	O 	0.4183	0.0425	0.524	-0.28
Mof_C 	C 	0.5455	0.0994	0.6952	-0.084
Mof_H 	H 	0.5786	0.1009	0.725	0.051
Mof_C 	C 	0.5306	0.0773	0.6485	0.013
Mof_H 	H 	0.5536	0.0656	0.6454	0.026
Mof_C 	C 	0.462	0.11525	0.6509	-0.117
Mof_H 	H 	0.4386	0.1293	0.6495	0.058
Mof_C 	C 	0.4466	0.09133	0.607	0.079
Mof_H 	H 	0.4134	0.0882	0.5786	-0
Mof_C 	C 	0.37722	0.99365	0.22992	0.024
Mof_C 	C 	0.34708	0.97217	0.23658	-0.105
Mof_H 	H 	0.3246	0.9582	0.206	0.062
Mof_C 	C 	0.35057	0.97165	0.28899	0.043
Mof_H 	H 	0.3304	0.9573	0.2934	0.023
Mof_C 	C 	0.38419	0.9926	0.33475	-0.114
Mof_C 	C 	0.41433	0.01407	0.32809	0.033
Mof_H 	H 	0.4368	0.0281	0.3587	0.033
Mof_C 	C 	0.41085	0.0146	0.27568	-0.108
Mof_H 	H 	0.431	0.029	0.2712	0.066
Mof_C 	C 	0.34478	0.12613	0.00234	-0.168
Mof_C 	C 	0.4199	0.19598	0.8699	-0.204
Mof_C 	C 	0.33892	0.15878	0.97059	0.422
Mof_C 	C 	0.47123	0.19703	0.9084	0.089
Mof_H 	H 	0.4851	0.2025	0.9474	0.005
Mof_C 	C 	0.43059	0.18106	0.79372	-0.172
Mof_H 	H 	0.4164	0.1764	0.7545	0.078
Mof_C 	C 	0.3227	0.06697	0.99903	-0.146
Mof_H 	H 	0.3048	0.048	0.9773	0.069
Mof_C 	C 	0.40128	0.18721	0.8157	0.114
Mof_H 	H 	0.3675	0.1849	0.7906	-0.019
Mof_C 	C 	0.3921	0.20515	0.8982	0.494
Mof_C 	C 	0.5284	0.8811	0.6636	-0.039
Mof_C 	C 	0.5139	0.9044	0.6209	0.01
Mof_C 	C 	0.4796	0.9057	0.6913	-0.017
Mof_C 	C 	0.4612	0.9286	0.6431	-0.047
Mof_H 	H 	0.5513	0.8647	0.6698	0.034
Mof_H 	H 	0.529	0.9042	0.6009	0.025
Mof_H 	H 	0.4705	0.9078	0.7175	0.027
Mof_H 	H 	0.4371	0.9444	0.6351	0.044
Mof_O 	O 	0.4875	0.9558	0.5381	-0.073
Mof_O 	O 	0.5751	0.9691	0.4539	-0.207
Mof_Co	Co	0.86364	0.72943	0.96652	1.124
Mof_Co	Co	0.77814	0.69013	0.84403	1.076
Mof_O 	O 	0.85309	0.52059	0.39188	-0.343
Mof_O 	O 	0.90574	0.71486	0.9409	-0.587
Mof_O 	O 	0.86346	0.68457	0.00049	-0.476
Mof_O 	O 	0.80944	0.65824	0.91705	-0.504
Mof_O 	O 	0.84301	0.69956	0.8534	-0.496
Mof_C 	C 	0.01255	0.67535	0.81123	-0.018
Mof_O 	O 	0.30677	0.74708	0.97599	-0.428
Mof_O 	O 	0.28675	0.76381	0.88946	-0.596
Mof_C 	C 	0.27816	0.75327	0.9226	0.381
Mof_C 	C 	0.22384	0.73677	0.8884	-0.138
Mof_C 	C 	0.20871	0.72668	0.9223	0.047
Mof_H 	H 	0.2287	0.7298	0.9625	0.028
Mof_C 	C 	0.16253	0.71146	0.89661	-0.129
Mof_H 	H 	0.1518	0.7054	0.9202	0.076
Mof_C 	C 	0.1328	0.70515	0.83802	0.057
Mof_C 	C 	0.14865	0.71571	0.8025	-0.136
Mof_H 	H 	0.1291	0.7123	0.7624	0.063
Mof_C 	C 	0.19421	0.73141	0.8286	0.045
Mof_H 	H 	0.205	0.7384	0.8056	-0.019
Mof_C 	C 	0.08582	0.68709	0.81335	0.009
Mof_C 	C 	0.07093	0.66291	0.76922	-0.086
Mof_H 	H 	0.0907	0.6588	0.7557	0.053
Mof_C 	C 	0.99879	0.65122	0.76705	-0.067
Mof_H 	H 	0.9699	0.639	0.7519	0.046
Mof_C 	C 	0.02757	0.64499	0.74505	0.006
Mof_C 	C 	0.0565	0.69297	0.83376	-0.071
Mof_H 	H 	0.0663	0.709	0.8631	0.04
Mof_C 	C 	0.01106	0.61948	0.69764	0.042
Mof_C 	C 	0.86086	0.53077	0.0897	0.026
Mof_C 	C 	0.86794	0.53055	0.14439	-0.103
Mof_H 	H 	0.87	0.5511	0.1625	0.062
Mof_C 	C 	0.98184	0.68231	0.83336	0.113
Mof_C 	C 	0.98025	0.57289	0.60626	-0.118
Mof_C 	C 	0.96415	0.5472	0.5579	0.39
Mof_C 	C 	0.00118	0.69025	0.88976	-0.2
Mof_H 	H 	0.035	0.6911	0.9161	0.089
Mof_C 	C 	0.87743	0.62306	0.06286	0.084
Mof_H 	H 	0.8962	0.6418	0.0848	0.013
Mof_C 	C 	0.88165	0.59341	0.0891	-0.148
Mof_H 	H 	0.9034	0.5922	0.1294	0.082
Mof_C 	C 	0.85545	0.56425	0.05981	0.066
Mof_C 	C 	0.81703	0.59768	0.9717	0.076
Mof_H 	H 	0.7941	0.5994	0.9317	-0.004
Mof_O 	O 	0.9966	0.5331	0.5539	-0.372
Mof_O 	O 	0.9183	0.5425	0.524	-0.28
Mof_C 	C 	0.0455	0.5994	0.6952	-0.081
Mof_H 	H 	0.0786	0.6009	0.725	0.05
Mof_C 	C 	0.0306	0.5773	0.6485	0.01
Mof_H 	H 	0.0536	0.5656	0.6454	0.026
Mof_C 	C 	0.962	0.61525	0.6509	-0.1
Mof_H 	H 	0.9386	0.6293	0.6495	0.053
Mof_C 	C 	0.9466	0.59133	0.607	0.06
Mof_H 	H 	0.9134	0.5882	0.5786	0.007
Mof_C 	C 	0.87722	0.49365	0.22992	0.03
Mof_C 	C 	0.84708	0.47217	0.23658	-0.097
Mof_H 	H 	0.8246	0.4582	0.206	0.058
Mof_C 	C 	0.85057	0.47165	0.28899	0.029
Mof_H 	H 	0.8304	0.4573	0.2934	0.027
Mof_C 	C 	0.88419	0.4926	0.33475	-0.091
Mof_C 	C 	0.91433	0.51407	0.32809	0.034
Mof_H 	H 	0.9368	0.5281	0.3587	0.036
Mof_C 	C 	0.91085	0.5146	0.27568	-0.069
Mof_H 	H 	0.931	0.529	0.2712	0.055
Mof_C 	C 	0.84478	0.62613	0.00234	-0.165
Mof_C 	C 	0.9199	0.69598	0.8699	-0.218
Mof_C 	C 	0.83892	0.65878	0.97059	0.42
Mof_C 	C 	0.97123	0.69703	0.9084	0.113
Mof_H 	H 	0.9851	0.7025	0.9474	-0.002
Mof_C 	C 	0.93059	0.68106	0.79372	-0.191
Mof_H 	H 	0.9164	0.6764	0.7545	0.086
Mof_C 	C 	0.8227	0.56697	0.99903	-0.146
Mof_H 	H 	0.8048	0.548	0.9773	0.07
Mof_C 	C 	0.90128	0.68721	0.8157	0.131
Mof_H 	H 	0.8675	0.6849	0.7906	-0.024
Mof_C 	C 	0.8921	0.70515	0.8982	0.499
Mof_C 	C 	0.0284	0.3811	0.6636	-0.036
Mof_C 	C 	0.0139	0.4044	0.6209	0.002
Mof_C 	C 	0.9796	0.4057	0.6913	-0.024
Mof_C 	C 	0.9612	0.4286	0.6431	-0.038
Mof_H 	H 	0.0513	0.3647	0.6698	0.032
Mof_H 	H 	0.029	0.4042	0.6009	0.026
Mof_H 	H 	0.9705	0.4078	0.7175	0.03
Mof_H 	H 	0.9371	0.4444	0.6351	0.04
Mof_O 	O 	0.9875	0.4558	0.5381	-0.054
Mof_O 	O 	0.0751	0.4691	0.4539	-0.209
Mof_Co	Co	0.36364	0.77057	0.96652	1.124
Mof_Co	Co	0.27814	0.80987	0.84403	1.076
Mof_O 	O 	0.35309	0.97941	0.39188	-0.336
Mof_O 	O 	0.40574	0.78514	0.9409	-0.586
Mof_O 	O 	0.36346	0.81543	0.00049	-0.478
Mof_O 	O 	0.30944	0.84176	0.91705	-0.504
Mof_O 	O 	0.34301	0.80044	0.8534	-0.495
Mof_C 	C 	0.51255	0.82465	0.81123	0.006
Mof_O 	O 	0.80677	0.75292	0.97599	-0.428
Mof_O 	O 	0.78675	0.73619	0.88946	-0.595
Mof_C 	C 	0.77816	0.74673	0.9226	0.38
Mof_C 	C 	0.72384	0.76323	0.8884	-0.137
Mof_C 	C 	0.70871	0.77332	0.9223	0.045
Mof_H 	H 	0.7287	0.7702	0.9625	0.029
Mof_C 	C 	0.66253	0.78854	0.89661	-0.126
Mof_H 	H 	0.6518	0.7946	0.9202	0.075
Mof_C 	C 	0.6328	0.79485	0.83802	0.052
Mof_C 	C 	0.64865	0.78429	0.8025	-0.132
Mof_H 	H 	0.6291	0.7877	0.7624	0.062
Mof_C 	C 	0.69421	0.76859	0.8286	0.043
Mof_H 	H 	0.705	0.7616	0.8056	-0.018
Mof_C 	C 	0.58582	0.81291	0.81335	0.018
Mof_C 	C 	0.57093	0.83709	0.76922	-0.095
Mof_H 	H 	0.5907	0.8412	0.7557	0.056
Mof_C 	C 	0.49879	0.84878	0.76705	-0.088
Mof_H 	H 	0.4699	0.861	0.7519	0.053
Mof_C 	C 	0.52757	0.85501	0.74505	0.017
Mof_C 	C 	0.5565	0.80703	0.83376	-0.085
Mof_H 	H 	0.5663	0.791	0.8631	0.046
Mof_C 	C 	0.51106	0.88052	0.69764	0.046
Mof_C 	C 	0.36086	0.96923	0.0897	0.029
Mof_C 	C 	0.36794	0.96945	0.14439	-0.093
Mof_H 	H 	0.37	0.9489	0.1625	0.059
Mof_C 	C 	0.48184	0.81769	0.83336	0.085
Mof_C 	C 	0.48025	0.92711	0.60626	-0.13
Mof_C 	C 	0.46415	0.9528	0.5579	0.396
Mof_C 	C 	0.50118	0.80975	0.88976	-0.168
Mof_H 	H 	0.535	0.8089	0.9161	0.079
Mof_C 	C 	0.37743	0.87694	0.06286	0.084
Mof_H 	H 	0.3962	0.8582	0.0848	0.012
Mof_C 	C 	0.38165	0.90659	0.0891	-0.148
Mof_H 	H 	0.4034	0.9078	0.1294	0.082
Mof_C 	C 	0.35545	0.93575	0.05981	0.065
Mof_C 	C 	0.31703	0.90232	0.9717	0.078
Mof_H 	H 	0.2941	0.9006	0.9317	-0.004
Mof_O 	O 	0.4966	0.9669	0.5539	-0.354
Mof_O 	O 	0.4183	0.9575	0.524	-0.28
Mof_C 	C 	0.5455	0.9006	0.6952	-0.082
Mof_H 	H 	0.5786	0.8991	0.725	0.051
Mof_C 	C 	0.5306	0.9227	0.6485	0.014
Mof_H 	H 	0.5536	0.9344	0.6454	0.025
Mof_C 	C 	0.462	0.88475	0.6509	-0.117
Mof_H 	H 	0.4386	0.8707	0.6495	0.058
Mof_C 	C 	0.4466	0.90867	0.607	0.078
Mof_H 	H 	0.4134	0.9118	0.5786	0.001
Mof_C 	C 	0.37722	0.00635	0.22992	0.042
Mof_C 	C 	0.34708	0.02783	0.23658	-0.091
Mof_H 	H 	0.3246	0.0418	0.206	0.055
Mof_C 	C 	0.35057	0.02835	0.28899	0.016
Mof_H 	H 	0.3304	0.0427	0.2934	0.031
Mof_C 	C 	0.38419	0.0074	0.33475	-0.065
Mof_C 	C 	0.41433	0.98593	0.32809	0.033
Mof_H 	H 	0.4368	0.9719	0.3587	0.036
Mof_C 	C 	0.41085	0.9854	0.27568	-0.033
Mof_H 	H 	0.431	0.971	0.2712	0.043
Mof_C 	C 	0.34478	0.87387	0.00234	-0.167
Mof_C 	C 	0.4199	0.80402	0.8699	-0.204
Mof_C 	C 	0.33892	0.84122	0.97059	0.422
Mof_C 	C 	0.47123	0.80297	0.9084	0.089
Mof_H 	H 	0.4851	0.7975	0.9474	0.005
Mof_C 	C 	0.43059	0.81894	0.79372	-0.172
Mof_H 	H 	0.4164	0.8236	0.7545	0.079
Mof_C 	C 	0.3227	0.93303	0.99903	-0.145
Mof_H 	H 	0.3048	0.952	0.9773	0.072
Mof_C 	C 	0.40128	0.81279	0.8157	0.114
Mof_H 	H 	0.3675	0.8151	0.7906	-0.018
Mof_C 	C 	0.3921	0.79485	0.8982	0.494
Mof_C 	C 	0.5284	0.1189	0.6636	-0.037
Mof_C 	C 	0.5139	0.0956	0.6209	0.01
Mof_C 	C 	0.4796	0.0943	0.6913	-0.016
Mof_C 	C 	0.4612	0.0714	0.6431	-0.049
Mof_H 	H 	0.5513	0.1353	0.6698	0.033
Mof_H 	H 	0.529	0.0958	0.6009	0.024
Mof_H 	H 	0.4705	0.0922	0.7175	0.025
Mof_H 	H 	0.4371	0.0556	0.6351	0.042
Mof_O 	O 	0.4875	0.0442	0.5381	-0.042
Mof_O 	O 	0.5751	0.0309	0.4539	-0.21
Mof_Co	Co	0.86364	0.27057	0.96652	1.124
Mof_Co	Co	0.77814	0.30987	0.84403	1.076
Mof_O 	O 	0.85309	0.47941	0.39188	-0.343
Mof_O 	O 	0.90574	0.28514	0.9409	-0.587
Mof_O 	O 	0.86346	0.31543	0.00049	-0.476
Mof_O 	O 	0.80944	0.34176	0.91705	-0.504
Mof_O 	O 	0.84301	0.30044	0.8534	-0.496
Mof_C 	C 	0.01255	0.32465	0.81123	-0.018
Mof_O 	O 	0.30677	0.25292	0.97599	-0.428
Mof_O 	O 	0.28675	0.23619	0.88946	-0.596
Mof_C 	C 	0.27816	0.24673	0.9226	0.38
Mof_C 	C 	0.22384	0.26323	0.8884	-0.139
Mof_C 	C 	0.20871	0.27332	0.9223	0.047
Mof_H 	H 	0.2287	0.2702	0.9625	0.028
Mof_C 	C 	0.16253	0.28854	0.89661	-0.13
Mof_H 	H 	0.1518	0.2946	0.9202	0.076
Mof_C 	C 	0.1328	0.29485	0.83802	0.057
Mof_C 	C 	0.14865	0.28429	0.8025	-0.136
Mof_H 	H 	0.1291	0.2877	0.7624	0.062
Mof_C 	C 	0.19421	0.26859	0.8286	0.045
Mof_H 	H 	0.205	0.2616	0.8056	-0.019
Mof_C 	C 	0.08582	0.31291	0.81335	0.009
Mof_C 	C 	0.07093	0.33709	0.76922	-0.086
Mof_H 	H 	0.0907	0.3412	0.7557	0.053
Mof_C 	C 	0.99879	0.34878	0.76705	-0.067
Mof_H 	H 	0.9699	0.361	0.7519	0.046
Mof_C 	C 	0.02757	0.35501	0.74505	0.006
Mof_C 	C 	0.0565	0.30703	0.83376	-0.071
Mof_H 	H 	0.0663	0.291	0.8631	0.04
Mof_C 	C 	0.01106	0.38052	0.69764	0.042
Mof_C 	C 	0.86086	0.46923	0.0897	0.026
Mof_C 	C 	0.86794	0.46945	0.14439	-0.103
Mof_H 	H 	0.87	0.4489	0.1625	0.062
Mof_C 	C 	0.98184	0.31769	0.83336	0.113
Mof_C 	C 	0.98025	0.42711	0.60626	-0.118
Mof_C 	C 	0.96415	0.4528	0.5579	0.39
Mof_C 	C 	0.00118	0.30975	0.88976	-0.2
Mof_H 	H 	0.035	0.3089	0.9161	0.089
Mof_C 	C 	0.87743	0.37694	0.06286	0.083
Mof_H 	H 	0.8962	0.3582	0.0848	0.013
Mof_C 	C 	0.88165	0.40659	0.0891	-0.148
Mof_H 	H 	0.9034	0.4078	0.1294	0.082
Mof_C 	C 	0.85545	0.43575	0.05981	0.066
Mof_C 	C 	0.81703	0.40232	0.9717	0.076
Mof_H 	H 	0.7941	0.4006	0.9317	-0.004
Mof_O 	O 	0.9966	0.4669	0.5539	-0.372
Mof_O 	O 	0.9183	0.4575	0.524	-0.28
Mof_C 	C 	0.0455	0.4006	0.6952	-0.081
Mof_H 	H 	0.0786	0.3991	0.725	0.05
Mof_C 	C 	0.0306	0.4227	0.6485	0.01
Mof_H 	H 	0.0536	0.4344	0.6454	0.026
Mof_C 	C 	0.962	0.38475	0.6509	-0.1
Mof_H 	H 	0.9386	0.3707	0.6495	0.053
Mof_C 	C 	0.9466	0.40867	0.607	0.06
Mof_H 	H 	0.9134	0.4118	0.5786	0.007
Mof_C 	C 	0.87722	0.50635	0.22992	0.03
Mof_C 	C 	0.84708	0.52783	0.23658	-0.097
Mof_H 	H 	0.8246	0.5418	0.206	0.058
Mof_C 	C 	0.85057	0.52835	0.28899	0.029
Mof_H 	H 	0.8304	0.5427	0.2934	0.027
Mof_C 	C 	0.88419	0.5074	0.33475	-0.091
Mof_C 	C 	0.91433	0.48593	0.32809	0.034
Mof_H 	H 	0.9368	0.4719	0.3587	0.036
Mof_C 	C 	0.91085	0.4854	0.27568	-0.069
Mof_H 	H 	0.931	0.471	0.2712	0.055
Mof_C 	C 	0.84478	0.37387	0.00234	-0.165
Mof_C 	C 	0.9199	0.30402	0.8699	-0.219
Mof_C 	C 	0.83892	0.34122	0.97059	0.42
Mof_C 	C 	0.97123	0.30297	0.9084	0.113
Mof_H 	H 	0.9851	0.2975	0.9474	-0.003
Mof_C 	C 	0.93059	0.31894	0.79372	-0.191
Mof_H 	H 	0.9164	0.3236	0.7545	0.086
Mof_C 	C 	0.8227	0.43303	0.99903	-0.146
Mof_H 	H 	0.8048	0.452	0.9773	0.07
Mof_C 	C 	0.90128	0.31279	0.8157	0.131
Mof_H 	H 	0.8675	0.3151	0.7906	-0.024
Mof_C 	C 	0.8921	0.29485	0.8982	0.499
Mof_C 	C 	0.0284	0.6189	0.6636	-0.036
Mof_C 	C 	0.0139	0.5956	0.6209	0.002
Mof_C 	C 	0.9796	0.5943	0.6913	-0.024
Mof_C 	C 	0.9612	0.5714	0.6431	-0.038
Mof_H 	H 	0.0513	0.6353	0.6698	0.032
Mof_H 	H 	0.029	0.5958	0.6009	0.026
Mof_H 	H 	0.9705	0.5922	0.7175	0.03
Mof_H 	H 	0.9371	0.5556	0.6351	0.04
Mof_O 	O 	0.9875	0.5442	0.5381	-0.054
Mof_O 	O 	0.0751	0.5309	0.4539	-0.209
Mof_Co	Co	0.63636	0.77057	0.03348	1.124
Mof_Co	Co	0.72186	0.80987	0.15597	1.077
Mof_O 	O 	0.64691	0.97941	0.60812	-0.336
Mof_O 	O 	0.59426	0.78514	0.0591	-0.585
Mof_O 	O 	0.63654	0.81543	0.99951	-0.479
Mof_O 	O 	0.69056	0.84176	0.08295	-0.504
Mof_O 	O 	0.65699	0.80044	0.1466	-0.495
Mof_C 	C 	0.48745	0.82465	0.18877	0.006
Mof_O 	O 	0.19323	0.75292	0.02401	-0.428
Mof_O 	O 	0.21325	0.73619	0.11054	-0.596
Mof_C 	C 	0.22184	0.74673	0.0774	0.38
Mof_C 	C 	0.27616	0.76323	0.1116	-0.137
Mof_C 	C 	0.29129	0.77332	0.0777	0.045
Mof_H 	H 	0.2713	0.7702	0.0375	0.029
Mof_C 	C 	0.33747	0.78854	0.10339	-0.126
Mof_H 	H 	0.3482	0.7946	0.0798	0.075
Mof_C 	C 	0.3672	0.79485	0.16198	0.052
Mof_C 	C 	0.35135	0.78429	0.1975	-0.133
Mof_H 	H 	0.3709	0.7877	0.2376	0.062
Mof_C 	C 	0.30579	0.76859	0.1714	0.043
Mof_H 	H 	0.295	0.7616	0.1944	-0.018
Mof_C 	C 	0.41418	0.81291	0.18665	0.018
Mof_C 	C 	0.42907	0.83709	0.23078	-0.095
Mof_H 	H 	0.4093	0.8412	0.2443	0.056
Mof_C 	C 	0.50121	0.84878	0.23295	-0.088
Mof_H 	H 	0.5301	0.861	0.2481	0.053
Mof_C 	C 	0.47243	0.85501	0.25495	0.017
Mof_C 	C 	0.4435	0.80703	0.16624	-0.085
Mof_H 	H 	0.4337	0.791	0.1369	0.046
Mof_C 	C 	0.48894	0.88052	0.30236	0.046
Mof_C 	C 	0.63914	0.96923	0.9103	0.029
Mof_C 	C 	0.63206	0.96945	0.85561	-0.093
Mof_H 	H 	0.63	0.9489	0.8375	0.059
Mof_C 	C 	0.51816	0.81769	0.16664	0.085
Mof_C 	C 	0.51975	0.92711	0.39374	-0.13
Mof_C 	C 	0.53585	0.9528	0.4421	0.396
Mof_C 	C 	0.49882	0.80975	0.11024	-0.168
Mof_H 	H 	0.465	0.8089	0.0839	0.079
Mof_C 	C 	0.62257	0.87694	0.93714	0.085
Mof_H 	H 	0.6038	0.8582	0.9152	0.012
Mof_C 	C 	0.61835	0.90659	0.9109	-0.149
Mof_H 	H 	0.5966	0.9078	0.8706	0.082
Mof_C 	C 	0.64455	0.93575	0.94019	0.065
Mof_C 	C 	0.68297	0.90232	0.0283	0.08
Mof_H 	H 	0.7059	0.9006	0.0683	-0.004
Mof_O 	O 	0.5034	0.9669	0.4461	-0.354
Mof_O 	O 	0.5817	0.9575	0.476	-0.28
Mof_C 	C 	0.4545	0.9006	0.3048	-0.082
Mof_H 	H 	0.4214	0.8991	0.275	0.051
Mof_C 	C 	0.4694	0.9227	0.3515	0.014
Mof_H 	H 	0.4464	0.9344	0.3546	0.025
Mof_C 	C 	0.538	0.88475	0.3491	-0.116
Mof_H 	H 	0.5614	0.8707	0.3505	0.059
Mof_C 	C 	0.5534	0.90867	0.393	0.078
Mof_H 	H 	0.5866	0.9118	0.4214	0.001
Mof_C 	C 	0.62278	0.00635	0.77008	0.042
Mof_C 	C 	0.65292	0.02783	0.76342	-0.091
Mof_H 	H 	0.6754	0.0418	0.794	0.055
Mof_C 	C 	0.64943	0.02835	0.71101	0.016
Mof_H 	H 	0.6696	0.0427	0.7066	0.031
Mof_C 	C 	0.61581	0.0074	0.66525	-0.065
Mof_C 	C 	0.58567	0.98593	0.67191	0.033
Mof_H 	H 	0.5632	0.9719	0.6413	0.036
Mof_C 	C 	0.58915	0.9854	0.72432	-0.033
Mof_H 	H 	0.569	0.971	0.7288	0.043
Mof_C 	C 	0.65522	0.87387	0.99766	-0.169
Mof_C 	C 	0.5801	0.80402	0.1301	-0.203
Mof_C 	C 	0.66108	0.84122	0.02941	0.423
Mof_C 	C 	0.52877	0.80297	0.0916	0.089
Mof_H 	H 	0.5149	0.7975	0.0526	0.005
Mof_C 	C 	0.56941	0.81894	0.20628	-0.172
Mof_H 	H 	0.5836	0.8236	0.2455	0.079
Mof_C 	C 	0.6773	0.93303	0.00097	-0.145
Mof_H 	H 	0.6952	0.952	0.0227	0.072
Mof_C 	C 	0.59872	0.81279	0.1843	0.114
Mof_H 	H 	0.6325	0.8151	0.2094	-0.018
Mof_C 	C 	0.6079	0.79485	0.1018	0.494
Mof_C 	C 	0.4716	0.1189	0.3364	-0.037
Mof_C 	C 	0.4861	0.0956	0.3791	0.01
Mof_C 	C 	0.5204	0.0943	0.3087	-0.016
Mof_C 	C 	0.5388	0.0714	0.3569	-0.049
Mof_H 	H 	0.4487	0.1353	0.3302	0.033
Mof_H 	H 	0.471	0.0958	0.3991	0.024
Mof_H 	H 	0.5295	0.0922	0.2825	0.025
Mof_H 	H 	0.5629	0.0556	0.3649	0.042
Mof_O 	O 	0.5125	0.0442	0.4619	-0.042
Mof_O 	O 	0.4249	0.0309	0.5461	-0.21
Mof_Co	Co	0.13636	0.27057	0.03348	1.123
Mof_Co	Co	0.22186	0.30987	0.15597	1.076
Mof_O 	O 	0.14691	0.47941	0.60812	-0.343
Mof_O 	O 	0.09426	0.28514	0.0591	-0.584
Mof_O 	O 	0.13654	0.31543	0.99951	-0.478
Mof_O 	O 	0.19056	0.34176	0.08295	-0.505
Mof_O 	O 	0.15699	0.30044	0.1466	-0.495
Mof_C 	C 	0.98745	0.32465	0.18877	0.036
Mof_O 	O 	0.69323	0.25292	0.02401	-0.428
Mof_O 	O 	0.71325	0.23619	0.11054	-0.595
Mof_C 	C 	0.72184	0.24673	0.0774	0.379
Mof_C 	C 	0.77616	0.26323	0.1116	-0.134
Mof_C 	C 	0.79129	0.27332	0.0777	0.042
Mof_H 	H 	0.7713	0.2702	0.0375	0.03
Mof_C 	C 	0.83747	0.28854	0.10339	-0.121
Mof_H 	H 	0.8482	0.2946	0.0798	0.073
Mof_C 	C 	0.8672	0.29485	0.16198	0.046
Mof_C 	C 	0.85135	0.28429	0.1975	-0.128
Mof_H 	H 	0.8709	0.2877	0.2376	0.06
Mof_C 	C 	0.80579	0.26859	0.1714	0.04
Mof_H 	H 	0.795	0.2616	0.1944	-0.017
Mof_C 	C 	0.91418	0.31291	0.18665	0.03
Mof_C 	C 	0.92907	0.33709	0.23078	-0.106
Mof_H 	H 	0.9093	0.3412	0.2443	0.059
Mof_C 	C 	0.00121	0.34878	0.23295	-0.116
Mof_H 	H 	0.0301	0.361	0.2481	0.061
Mof_C 	C 	0.97243	0.35501	0.25495	0.031
Mof_C 	C 	0.9435	0.30703	0.16624	-0.103
Mof_H 	H 	0.9337	0.291	0.1369	0.053
Mof_C 	C 	0.98894	0.38052	0.30236	0.05
Mof_C 	C 	0.13914	0.46923	0.9103	0.025
Mof_C 	C 	0.13206	0.46945	0.85561	-0.103
Mof_H 	H 	0.13	0.4489	0.8375	0.062
Mof_C 	C 	0.01816	0.31769	0.16664	0.049
Mof_C 	C 	0.01975	0.42711	0.39374	-0.144
Mof_C 	C 	0.03585	0.4528	0.4421	0.398
Mof_C 	C 	0.99882	0.30975	0.11024	-0.127
Mof_H 	H 	0.965	0.3089	0.0839	0.065
Mof_C 	C 	0.12257	0.37694	0.93714	0.084
Mof_H 	H 	0.1038	0.3582	0.9152	0.012
Mof_C 	C 	0.11835	0.40659	0.9109	-0.149
Mof_H 	H 	0.0966	0.4078	0.8706	0.081
Mof_C 	C 	0.14455	0.43575	0.94019	0.065
Mof_C 	C 	0.18297	0.40232	0.0283	0.078
Mof_H 	H 	0.2059	0.4006	0.0683	-0.005
Mof_O 	O 	0.0034	0.4669	0.4461	-0.374
Mof_O 	O 	0.0817	0.4575	0.476	-0.282
Mof_C 	C 	0.9545	0.4006	0.3048	-0.085
Mof_H 	H 	0.9214	0.3991	0.275	0.051
Mof_C 	C 	0.9694	0.4227	0.3515	0.017
Mof_H 	H 	0.9464	0.4344	0.3546	0.025
Mof_C 	C 	0.038	0.38475	0.3491	-0.135
Mof_H 	H 	0.0614	0.3707	0.3505	0.064
Mof_C 	C 	0.0534	0.40867	0.393	0.099
Mof_H 	H 	0.0866	0.4118	0.4214	-0.007
Mof_C 	C 	0.12278	0.50635	0.77008	0.031
Mof_C 	C 	0.15292	0.52783	0.76342	-0.097
Mof_H 	H 	0.1754	0.5418	0.794	0.058
Mof_C 	C 	0.14943	0.52835	0.71101	0.03
Mof_H 	H 	0.1696	0.5427	0.7066	0.027
Mof_C 	C 	0.11581	0.5074	0.66525	-0.092
Mof_C 	C 	0.08567	0.48593	0.67191	0.034
Mof_H 	H 	0.0632	0.4719	0.6413	0.033
Mof_C 	C 	0.08915	0.4854	0.72432	-0.069
Mof_H 	H 	0.069	0.471	0.7288	0.053
Mof_C 	C 	0.15522	0.37387	0.99766	-0.168
Mof_C 	C 	0.0801	0.30402	0.1301	-0.185
Mof_C 	C 	0.16108	0.34122	0.02941	0.421
Mof_C 	C 	0.02877	0.30297	0.0916	0.058
Mof_H 	H 	0.0149	0.2975	0.0526	0.014
Mof_C 	C 	0.06941	0.31894	0.20628	-0.148
Mof_H 	H 	0.0836	0.3236	0.2455	0.069
Mof_C 	C 	0.1773	0.43303	0.00097	-0.146
Mof_H 	H 	0.1952	0.452	0.0227	0.07
Mof_C 	C 	0.09872	0.31279	0.1843	0.092
Mof_H 	H 	0.1325	0.3151	0.2094	-0.011
Mof_C 	C 	0.1079	0.29485	0.1018	0.487
Mof_C 	C 	0.9716	0.6189	0.3364	-0.04
Mof_C 	C 	0.9861	0.5956	0.3791	0.019
Mof_C 	C 	0.0204	0.5943	0.3087	-0.008
Mof_C 	C 	0.0388	0.5714	0.3569	-0.059
Mof_H 	H 	0.9487	0.6353	0.3302	0.034
Mof_H 	H 	0.971	0.5958	0.3991	0.023
Mof_H 	H 	0.0295	0.5922	0.2825	0.021
Mof_H 	H 	0.0629	0.5556	0.3649	0.046
Mof_O 	O 	0.0125	0.5442	0.4619	-0.059
Mof_O 	O 	0.9249	0.5309	0.5461	-0.208
Mof_Co	Co	0.5	-6.82888e-33	0.5	1.214
Mof_Co	Co	-3.07546e-17	0.5	0.5	1.215
Mof_Co	Co	0.61522	-6.82888e-33	0.52238	1.157
Mof_O 	O 	0.57753	0	0.56457	-0.593
Mof_C 	C 	0.6426	-1.36578e-32	0.93705	-0.107
Mof_H 	H 	0.6473	-1.36578e-32	0.9735	0.06
Mof_C 	C 	0.61165	-6.82888e-33	0.6095	0.545
Mof_C 	C 	0.62814	-6.82888e-33	0.82833	0.017
Mof_Co	Co	0.11522	0.5	0.52238	1.16
Mof_O 	O 	0.07753	0.5	0.56457	-0.594
Mof_C 	C 	0.1426	0.5	0.93705	-0.099
Mof_H 	H 	0.1473	0.5	0.9735	0.059
Mof_C 	C 	0.11165	0.5	0.6095	0.553
Mof_C 	C 	0.12814	0.5	0.82833	0.029
Mof_Co	Co	0.38478	-6.82888e-33	0.47762	1.157
Mof_O 	O 	0.42247	0	0.43543	-0.594
Mof_C 	C 	0.3574	0	0.06295	-0.107
Mof_H 	H 	0.3527	-4.26805e-34	0.0265	0.06
Mof_C 	C 	0.38835	0	0.3905	0.545
Mof_C 	C 	0.37186	0	0.17167	0.017
Mof_Co	Co	0.88478	0.5	0.47762	1.16
Mof_O 	O 	0.92247	0.5	0.43543	-0.592
Mof_C 	C 	0.8574	0.5	0.06295	-0.099
Mof_H 	H 	0.8527	0.5	0.0265	0.06
Mof_C 	C 	0.88835	0.5	0.3905	0.552
Mof_C 	C 	0.87186	0.5	0.17167	0.029
_end
