# CIF file generated by openbabel 3.1.0, see https://openbabel.org
data_I
_chemical_name_common 'CIFJAE_clean'
_cell_length_a 10.3177
_cell_length_b 10.3177
_cell_length_c 12.6527
_cell_angle_alpha 100.754
_cell_angle_beta 100.754
_cell_angle_gamma 104.73
_space_group_name_H-M_alt 'P 1'
_space_group_name_Hall 'P 1'
loop_
    _symmetry_equiv_pos_as_xyz
    x,y,z
loop_
    _atom_site_label
    _atom_site_type_symbol
    _atom_site_fract_x
    _atom_site_fract_y
    _atom_site_fract_z
    _atom_site_occupancy
    Mn1      Mn       0.77286    0.37852    0.90147    1.000
    Mn2      Mn       0.62148    0.22714    0.59853    1.000
    Mn3      Mn       0.22714    0.62148    0.09853    1.000
    Mn4      Mn       0.37852    0.77286    0.40147    1.000
    H1       H        0.61490    0.67290    0.59070    1.000
    H2       H        0.82770    0.03810    0.80240    1.000
    H3       H        0.92350    0.92550    0.92150    1.000
    H4       H        0.86980    0.68820    0.87550    1.000
    H5       H        0.32710    0.38510    0.90930    1.000
    H6       H        0.96190    0.17230    0.69760    1.000
    H7       H        0.07450    0.07650    0.57850    1.000
    H8       H        0.31180    0.13020    0.62450    1.000
    H9       H        0.38510    0.32710    0.40930    1.000
    H10      H        0.17230    0.96190    0.19760    1.000
    H11      H        0.07650    0.07450    0.07850    1.000
    H12      H        0.13020    0.31180    0.12450    1.000
    H13      H        0.67290    0.61490    0.09070    1.000
    H14      H        0.03810    0.82770    0.30240    1.000
    H15      H        0.92550    0.92350    0.42150    1.000
    H16      H        0.68820    0.86980    0.37550    1.000
    C1       C        0.73691    0.65689    0.72890    1.000
    C2       C        0.67825    0.72415    0.65700    1.000
    C3       C        0.71295    0.86685    0.68320    1.000
    C4       C        0.80480    0.94220    0.78330    1.000
    C5       C        0.86200    0.87460    0.85430    1.000
    C6       C        0.82930    0.73270    0.82730    1.000
    C7       C        0.70138    0.50242    0.69850    1.000
    C8       C        0.65092    0.93948    0.60480    1.000
    C9       C        0.34311    0.26309    0.77110    1.000
    C10      C        0.27585    0.32175    0.84300    1.000
    C11      C        0.13315    0.28705    0.81680    1.000
    C12      C        0.05780    0.19520    0.71670    1.000
    C13      C        0.12540    0.13800    0.64570    1.000
    C14      C        0.26730    0.17070    0.67270    1.000
    C15      C        0.49758    0.29862    0.80150    1.000
    C16      C        0.06052    0.34908    0.89520    1.000
    C17      C        0.26309    0.34311    0.27110    1.000
    C18      C        0.32175    0.27585    0.34300    1.000
    C19      C        0.28705    0.13315    0.31680    1.000
    C20      C        0.19520    0.05780    0.21670    1.000
    C21      C        0.13800    0.12540    0.14570    1.000
    C22      C        0.17070    0.26730    0.17270    1.000
    C23      C        0.29862    0.49758    0.30150    1.000
    C24      C        0.34908    0.06052    0.39520    1.000
    C25      C        0.65689    0.73691    0.22890    1.000
    C26      C        0.72415    0.67825    0.15700    1.000
    C27      C        0.86685    0.71295    0.18320    1.000
    C28      C        0.94220    0.80480    0.28330    1.000
    C29      C        0.87460    0.86200    0.35430    1.000
    C30      C        0.73270    0.82930    0.32730    1.000
    C31      C        0.50242    0.70138    0.19850    1.000
    C32      C        0.93948    0.65092    0.10480    1.000
    O1       O        0.78040    0.44728    0.75000    1.000
    O2       O        0.59832    0.43406    0.62225    1.000
    O3       O        0.55669    0.86819    0.52448    1.000
    O4       O        0.70059    0.06727    0.62600    1.000
    O5       O        0.55272    0.21960    0.75000    1.000
    O6       O        0.56594    0.40168    0.87775    1.000
    O7       O        0.13181    0.44331    0.97552    1.000
    O8       O        0.93273    0.29941    0.87400    1.000
    O9       O        0.21960    0.55272    0.25000    1.000
    O10      O        0.40168    0.56594    0.37775    1.000
    O11      O        0.44331    0.13181    0.47552    1.000
    O12      O        0.29941    0.93273    0.37400    1.000
    O13      O        0.44728    0.78040    0.25000    1.000
    O14      O        0.43406    0.59832    0.12225    1.000
    O15      O        0.86819    0.55669    0.02448    1.000
    O16      O        0.06727    0.70059    0.12600    1.000
