# CIF file generated by openbabel 3.1.0, see https://openbabel.org
data_I
_chemical_name_common 'image0'
_cell_length_a 15.176
_cell_length_b 25.732
_cell_length_c 8.464
_cell_angle_alpha 90
_cell_angle_beta 132.722
_cell_angle_gamma 90
_space_group_name_H-M_alt 'P 1'
_space_group_name_Hall 'P 1'
loop_
    _symmetry_equiv_pos_as_xyz
    x,y,z
loop_
    _atom_site_label
    _atom_site_type_symbol
    _atom_site_fract_x
    _atom_site_fract_y
    _atom_site_fract_z
    _atom_site_occupancy
    Cd1      Cd       0.34084    0.15140    0.56041    1.000
    C1       C        0.14240    0.06180    0.21600    1.000
    C2       C        0.20900    0.09120    0.33570    1.000
    C3       C        0.46720    0.15930    0.51190    1.000
    C4       C        0.26800    0.22980    0.51120    1.000
    C5       C        0.46620    0.13870    0.90920    1.000
    Cd2      Cd       0.84084    0.65140    0.56041    1.000
    C6       C        0.64240    0.56180    0.21600    1.000
    C7       C        0.70900    0.59120    0.33570    1.000
    C8       C        0.96720    0.65930    0.51190    1.000
    C9       C        0.76800    0.72980    0.51120    1.000
    C10      C        0.96620    0.63870    0.90920    1.000
    Cd3      Cd       0.65916    0.15140    0.43959    1.000
    C11      C        0.85760    0.06180    0.78400    1.000
    C12      C        0.79100    0.09120    0.66430    1.000
    C13      C        0.53280    0.15930    0.48810    1.000
    C14      C        0.73200    0.22980    0.48880    1.000
    C15      C        0.53380    0.13870    0.09080    1.000
    Cd4      Cd       0.15916    0.65140    0.43959    1.000
    C16      C        0.35760    0.56180    0.78400    1.000
    C17      C        0.29100    0.59120    0.66430    1.000
    C18      C        0.03280    0.65930    0.48810    1.000
    C19      C        0.23200    0.72980    0.48880    1.000
    C20      C        0.03380    0.63870    0.09080    1.000
    Cd5      Cd       0.65916    0.84860    0.43959    1.000
    C21      C        0.85760    0.93820    0.78400    1.000
    C22      C        0.79100    0.90880    0.66430    1.000
    C23      C        0.53280    0.84070    0.48810    1.000
    C24      C        0.73200    0.77020    0.48880    1.000
    C25      C        0.53380    0.86130    0.09080    1.000
    Cd6      Cd       0.15916    0.34860    0.43959    1.000
    C26      C        0.35760    0.43820    0.78400    1.000
    C27      C        0.29100    0.40880    0.66430    1.000
    C28      C        0.03280    0.34070    0.48810    1.000
    C29      C        0.23200    0.27020    0.48880    1.000
    C30      C        0.03380    0.36130    0.09080    1.000
    Cd7      Cd       0.34084    0.84860    0.56041    1.000
    C31      C        0.14240    0.93820    0.21600    1.000
    C32      C        0.20900    0.90880    0.33570    1.000
    C33      C        0.46720    0.84070    0.51190    1.000
    C34      C        0.26800    0.77020    0.51120    1.000
    C35      C        0.46620    0.86130    0.90920    1.000
    Cd8      Cd       0.84084    0.34860    0.56041    1.000
    C36      C        0.64240    0.43820    0.21600    1.000
    C37      C        0.70900    0.40880    0.33570    1.000
    C38      C        0.96720    0.34070    0.51190    1.000
    C39      C        0.76800    0.27020    0.51120    1.000
    C40      C        0.96620    0.36130    0.90920    1.000
    Cd9      Cd       0.00000    0.00000    0.00000    1.000
    Cd10     Cd       0.50000    0.50000    0.00000    1.000
