data_functionalizedCrystal
_audit_creation_method	'EQeq! by Chris Wilmer'
_symmetry_space_group_name_H-M	'P1'
_symmetry_Int_Tables_number	1
_symmetry_cell_setting	triclinic
loop_
_symmetry_equiv_pos_as_xyz
  x,y,z
_cell_length_a	7.648
_cell_length_b	9.676
_cell_length_c	10.562
_cell_angle_alpha	106.672
_cell_angle_beta	105.283
_cell_angle_gamma	100.706
loop_
_atom_site_label
_atom_site_type_symbol
_atom_site_fract_x
_atom_site_fract_y
_atom_site_fract_z
_atom_site_charge
Mof_Dy	Dy	0.75332	0.96792	0.54833	2.055
Mof_Dy	Dy	0.24668	0.03208	0.45167	2.055
Mof_H 	H 	0.1857	0.5074	0.0363	0.182
Mof_H 	H 	0.4633	0.1976	0.9531	0.176
Mof_H 	H 	0.4505	0.3769	0.3448	0.187
Mof_H 	H 	0.1518	0.6033	0.2596	0.192
Mof_H 	H 	0.2201	0.5303	0.3754	0.178
Mof_H 	H 	0.2385	0.4295	0.8113	0.186
Mof_H 	H 	0.3668	0.3182	0.7865	0.194
Mof_H 	H 	0.6336	0.1248	0.1234	0.194
Mof_H 	H 	0.7364	0.2646	0.2666	0.183
Mof_H 	H 	0.8143	0.4926	0.9637	0.181
Mof_H 	H 	0.5367	0.8024	0.0469	0.175
Mof_H 	H 	0.5495	0.6231	0.6552	0.187
Mof_H 	H 	0.8482	0.3967	0.7404	0.192
Mof_H 	H 	0.7799	0.4697	0.6246	0.178
Mof_H 	H 	0.7615	0.5705	0.1887	0.186
Mof_H 	H 	0.6332	0.6818	0.2135	0.194
Mof_H 	H 	0.3664	0.8752	0.8766	0.194
Mof_H 	H 	0.2636	0.7354	0.7334	0.183
Mof_C 	C 	0.3085	0.4586	0.2059	0.424
Mof_C 	C 	0.2593	0.4465	0.0666	-0.48
Mof_C 	C 	0.3131	0.3492	0.9697	0.437
Mof_C 	C 	0.4236	0.2643	0.0176	-0.476
Mof_C 	C 	0.4785	0.2731	0.1567	0.428
Mof_C 	C 	0.4171	0.3707	0.2497	-0.467
Mof_C 	C 	0.2596	0.5747	0.3102	-0.598
Mof_C 	C 	0.4265	0.715	0.3944	0.554
Mof_C 	C 	0.2601	0.3343	0.8197	-0.59
Mof_C 	C 	0.084	0.2056	0.7256	0.496
Mof_C 	C 	0.6134	0.1898	0.2064	-0.617
Mof_C 	C 	0.5571	0.0924	0.2875	0.585
Mof_C 	C 	0.6915	0.5414	0.7941	0.424
Mof_C 	C 	0.7407	0.5535	0.9334	-0.48
Mof_C 	C 	0.6869	0.6508	0.0303	0.437
Mof_C 	C 	0.5764	0.7357	0.9824	-0.476
Mof_C 	C 	0.5215	0.7269	0.8433	0.428
Mof_C 	C 	0.5829	0.6293	0.7503	-0.467
Mof_C 	C 	0.7404	0.4253	0.6898	-0.598
Mof_C 	C 	0.5735	0.285	0.6056	0.554
Mof_C 	C 	0.7399	0.6657	0.1803	-0.59
Mof_C 	C 	0.916	0.7944	0.2744	0.496
Mof_C 	C 	0.3866	0.8102	0.7936	-0.617
Mof_C 	C 	0.4429	0.9076	0.7125	0.585
Mof_O 	O 	0.4015	0.8444	0.4161	-0.654
Mof_O 	O 	0.588	0.7029	0.4417	-0.537
Mof_O 	O 	0.0656	0.1384	0.5964	-0.648
Mof_O 	O 	0.9574	0.1681	0.7723	-0.479
Mof_O 	O 	0.3923	0.0683	0.2906	-0.559
Mof_O 	O 	0.685	0.0399	0.3449	-0.545
Mof_O 	O 	0.5985	0.1556	0.5839	-0.654
Mof_O 	O 	0.412	0.2971	0.5583	-0.537
Mof_O 	O 	0.9344	0.8616	0.4036	-0.648
Mof_O 	O 	0.0426	0.8319	0.2277	-0.479
Mof_O 	O 	0.6077	0.9317	0.7094	-0.559
Mof_O 	O 	0.315	0.9601	0.6551	-0.545
_end
