data_functionalizedCrystal
_audit_creation_method	'EQeq! by Chris Wilmer'
_symmetry_space_group_name_H-M	'P1'
_symmetry_Int_Tables_number	1
_symmetry_cell_setting	triclinic
loop_
_symmetry_equiv_pos_as_xyz
  x,y,z
_cell_length_a	14.348
_cell_length_b	14.475
_cell_length_c	14.983
_cell_angle_alpha	90
_cell_angle_beta	90
_cell_angle_gamma	90
loop_
_atom_site_label
_atom_site_type_symbol
_atom_site_fract_x
_atom_site_fract_y
_atom_site_fract_z
_atom_site_charge
Mof_C 	C 	0.0364	0.1996	0.2475	0.005
Mof_H 	H 	0.9796	0.1751	0.2735	0.028
Mof_H 	H 	0.0399	0.1797	0.1858	0.035
Mof_C 	C 	0.1298	0.0731	0.3049	0.117
Mof_C 	C 	0.0711	0.0067	0.2694	-0.128
Mof_H 	H 	0.0193	0.0237	0.2359	0.069
Mof_C 	C 	0.0919	0.9123	0.2851	-0.007
Mof_H 	H 	0.0543	0.8658	0.262	0.024
Mof_C 	C 	0.1707	0.8911	0.3364	-0.034
Mof_H 	H 	0.1834	0.8294	0.3489	0.04
Mof_C 	C 	0.2285	0.9559	0.3682	-0.082
Mof_H 	H 	0.2822	0.9376	0.3981	0.054
Mof_C 	C 	0.2106	0.0492	0.3578	0.034
Mof_C 	C 	0.0338	0.2777	0.5364	0.022
Mof_C 	C 	0.9982	0.3673	0.5233	-0.076
Mof_H 	H 	0.0286	0.4174	0.5491	0.04
Mof_C 	C 	0.92	0.3821	0.4734	-0.057
Mof_H 	H 	0.8987	0.4421	0.4646	0.033
Mof_C 	C 	0.8725	0.3098	0.4362	0.005
Mof_H 	H 	0.8189	0.3203	0.4028	0.016
Mof_C 	C 	0.9048	0.2213	0.4486	-0.141
Mof_H 	H 	0.8723	0.1719	0.424	0.075
Mof_C 	C 	0.9844	0.2052	0.4968	0.122
Mof_C 	C 	0.9741	0.04	0.4829	0.005
Mof_H 	H 	0.9707	0.038	0.4183	0.038
Mof_H 	H 	0.9112	0.0404	0.5066	0.038
Mof_N 	N 	0.2698	0.1253	0.3877	-0.279
Mof_H 	H 	0.283	0.1563	0.3371	0.134
Mof_H 	H 	0.3234	0.0975	0.4035	0.108
Mof_N 	N 	0.1161	0.2587	0.5834	-0.287
Mof_H 	H 	0.1086	0.2047	0.6123	0.109
Mof_H 	H 	0.1236	0.3028	0.6251	0.092
Mof_O 	O 	0.0237	0.1199	0.5115	-0.224
Mof_O 	O 	0.1169	0.1664	0.2967	-0.215
Mof_Ag	Ag	0.2219	0.1977	0.5008	0.079
Mof_C 	C 	0.4636	0.3004	0.2475	0.002
Mof_H 	H 	0.5204	0.3249	0.2735	0.028
Mof_H 	H 	0.4601	0.3203	0.1858	0.035
Mof_C 	C 	0.3702	0.4269	0.3049	0.118
Mof_C 	C 	0.4289	0.4933	0.2694	-0.131
Mof_H 	H 	0.4807	0.4763	0.2359	0.069
Mof_C 	C 	0.4081	0.5877	0.2851	-0.004
Mof_H 	H 	0.4457	0.6342	0.262	0.023
Mof_C 	C 	0.3293	0.6089	0.3364	-0.037
Mof_H 	H 	0.3166	0.6706	0.3489	0.041
Mof_C 	C 	0.2715	0.5441	0.3682	-0.08
Mof_H 	H 	0.2178	0.5624	0.3981	0.054
Mof_C 	C 	0.2894	0.4508	0.3578	0.033
Mof_C 	C 	0.4662	0.2223	0.5364	0.02
Mof_C 	C 	0.5018	0.1327	0.5233	-0.074
Mof_H 	H 	0.4714	0.0826	0.5491	0.04
Mof_C 	C 	0.58	0.1179	0.4734	-0.058
Mof_H 	H 	0.6013	0.0579	0.4646	0.034
Mof_C 	C 	0.6275	0.1902	0.4362	0.007
Mof_H 	H 	0.6811	0.1797	0.4028	0.016
Mof_C 	C 	0.5952	0.2787	0.4486	-0.143
Mof_H 	H 	0.6277	0.3281	0.424	0.076
Mof_C 	C 	0.5156	0.2948	0.4968	0.124
Mof_C 	C 	0.5259	0.46	0.4829	0.006
Mof_H 	H 	0.5293	0.462	0.4183	0.039
Mof_H 	H 	0.5888	0.4596	0.5066	0.038
Mof_N 	N 	0.2302	0.3747	0.3877	-0.279
Mof_H 	H 	0.217	0.3437	0.3371	0.134
Mof_H 	H 	0.1766	0.4025	0.4035	0.108
Mof_N 	N 	0.3839	0.2413	0.5834	-0.287
Mof_H 	H 	0.3914	0.2953	0.6123	0.109
Mof_H 	H 	0.3764	0.1972	0.6251	0.093
Mof_O 	O 	0.4763	0.3801	0.5115	-0.225
Mof_O 	O 	0.3831	0.3336	0.2967	-0.215
Mof_Ag	Ag	0.2781	0.3023	0.5008	0.079
Mof_C 	C 	0.4636	0.1996	0.2525	0.002
Mof_H 	H 	0.5204	0.1751	0.2265	0.028
Mof_H 	H 	0.4601	0.1797	0.3142	0.035
Mof_C 	C 	0.3702	0.0731	0.1951	0.117
Mof_C 	C 	0.4289	0.0067	0.2306	-0.13
Mof_H 	H 	0.4807	0.0237	0.2641	0.069
Mof_C 	C 	0.4081	0.9123	0.2149	-0.005
Mof_H 	H 	0.4457	0.8658	0.238	0.024
Mof_C 	C 	0.3293	0.8911	0.1636	-0.035
Mof_H 	H 	0.3166	0.8294	0.1511	0.041
Mof_C 	C 	0.2715	0.9559	0.1318	-0.081
Mof_H 	H 	0.2178	0.9376	0.1019	0.054
Mof_C 	C 	0.2894	0.0492	0.1422	0.034
Mof_C 	C 	0.4662	0.2777	0.9636	0.02
Mof_C 	C 	0.5018	0.3673	0.9767	-0.073
Mof_H 	H 	0.4714	0.4174	0.9509	0.039
Mof_C 	C 	0.58	0.3821	0.0266	-0.059
Mof_H 	H 	0.6013	0.4421	0.0354	0.034
Mof_C 	C 	0.6275	0.3098	0.0638	0.008
Mof_H 	H 	0.6811	0.3203	0.0972	0.015
Mof_C 	C 	0.5952	0.2213	0.0514	-0.143
Mof_H 	H 	0.6277	0.1719	0.076	0.076
Mof_C 	C 	0.5156	0.2052	0.0032	0.124
Mof_C 	C 	0.5259	0.04	0.0171	0.005
Mof_H 	H 	0.5293	0.038	0.0817	0.039
Mof_H 	H 	0.5888	0.0404	0.9934	0.038
Mof_N 	N 	0.2302	0.1253	0.1123	-0.279
Mof_H 	H 	0.217	0.1563	0.1629	0.134
Mof_H 	H 	0.1766	0.0975	0.0965	0.108
Mof_N 	N 	0.3839	0.2587	0.9166	-0.287
Mof_H 	H 	0.3914	0.2047	0.8877	0.109
Mof_H 	H 	0.3764	0.3028	0.8749	0.092
Mof_O 	O 	0.4763	0.1199	0.9885	-0.225
Mof_O 	O 	0.3831	0.1664	0.2033	-0.215
Mof_Ag	Ag	0.2781	0.1977	0.9992	0.079
Mof_C 	C 	0.0364	0.3004	0.2525	0.004
Mof_H 	H 	0.9796	0.3249	0.2265	0.027
Mof_H 	H 	0.0399	0.3203	0.3142	0.034
Mof_C 	C 	0.1298	0.4269	0.1951	0.118
Mof_C 	C 	0.0711	0.4933	0.2306	-0.131
Mof_H 	H 	0.0193	0.4763	0.2641	0.069
Mof_C 	C 	0.0919	0.5877	0.2149	-0.004
Mof_H 	H 	0.0543	0.6342	0.238	0.023
Mof_C 	C 	0.1707	0.6089	0.1636	-0.037
Mof_H 	H 	0.1834	0.6706	0.1511	0.041
Mof_C 	C 	0.2285	0.5441	0.1318	-0.08
Mof_H 	H 	0.2822	0.5624	0.1019	0.054
Mof_C 	C 	0.2106	0.4508	0.1422	0.033
Mof_C 	C 	0.0338	0.2223	0.9636	0.017
Mof_C 	C 	0.9982	0.1327	0.9767	-0.066
Mof_H 	H 	0.0286	0.0826	0.9509	0.036
Mof_C 	C 	0.92	0.1179	0.0266	-0.066
Mof_H 	H 	0.8987	0.0579	0.0354	0.036
Mof_C 	C 	0.8725	0.1902	0.0638	0.012
Mof_H 	H 	0.8189	0.1797	0.0972	0.014
Mof_C 	C 	0.9048	0.2787	0.0514	-0.146
Mof_H 	H 	0.8723	0.3281	0.076	0.077
Mof_C 	C 	0.9844	0.2948	0.0032	0.125
Mof_C 	C 	0.9741	0.46	0.0171	0.003
Mof_H 	H 	0.9707	0.462	0.0817	0.039
Mof_H 	H 	0.9112	0.4596	0.9934	0.04
Mof_N 	N 	0.2698	0.3747	0.1123	-0.278
Mof_H 	H 	0.283	0.3437	0.1629	0.134
Mof_H 	H 	0.3234	0.4025	0.0965	0.108
Mof_N 	N 	0.1161	0.2413	0.9166	-0.286
Mof_H 	H 	0.1086	0.2953	0.8877	0.109
Mof_H 	H 	0.1236	0.1972	0.8749	0.092
Mof_O 	O 	0.0237	0.3801	0.9885	-0.225
Mof_O 	O 	0.1169	0.3336	0.2033	-0.215
Mof_Ag	Ag	0.2219	0.3023	0.9992	0.079
Mof_C 	C 	0.9636	0.8004	0.7525	0.004
Mof_H 	H 	0.0204	0.8249	0.7265	0.027
Mof_H 	H 	0.9601	0.8203	0.8142	0.035
Mof_C 	C 	0.8702	0.9269	0.6951	0.117
Mof_C 	C 	0.9289	0.9933	0.7306	-0.128
Mof_H 	H 	0.9807	0.9763	0.7641	0.069
Mof_C 	C 	0.9081	0.0877	0.7149	-0.007
Mof_H 	H 	0.9457	0.1342	0.738	0.024
Mof_C 	C 	0.8293	0.1089	0.6636	-0.034
Mof_H 	H 	0.8166	0.1706	0.6511	0.04
Mof_C 	C 	0.7715	0.0441	0.6318	-0.082
Mof_H 	H 	0.7178	0.0624	0.6019	0.054
Mof_C 	C 	0.7894	0.9508	0.6422	0.034
Mof_C 	C 	0.9662	0.7223	0.4636	0.022
Mof_C 	C 	0.0018	0.6327	0.4767	-0.076
Mof_H 	H 	0.9714	0.5826	0.4509	0.04
Mof_C 	C 	0.08	0.6179	0.5266	-0.057
Mof_H 	H 	0.1013	0.5579	0.5354	0.033
Mof_C 	C 	0.1275	0.6902	0.5638	0.005
Mof_H 	H 	0.1811	0.6797	0.5972	0.016
Mof_C 	C 	0.0952	0.7787	0.5514	-0.141
Mof_H 	H 	0.1277	0.8281	0.576	0.075
Mof_C 	C 	0.0156	0.7948	0.5032	0.122
Mof_C 	C 	0.0259	0.96	0.5171	0.005
Mof_H 	H 	0.0293	0.962	0.5817	0.038
Mof_H 	H 	0.0888	0.9596	0.4934	0.038
Mof_N 	N 	0.7302	0.8747	0.6123	-0.279
Mof_H 	H 	0.717	0.8437	0.6629	0.134
Mof_H 	H 	0.6766	0.9025	0.5965	0.108
Mof_N 	N 	0.8839	0.7413	0.4166	-0.287
Mof_H 	H 	0.8914	0.7953	0.3877	0.109
Mof_H 	H 	0.8764	0.6972	0.3749	0.092
Mof_O 	O 	0.9763	0.8801	0.4885	-0.224
Mof_O 	O 	0.8831	0.8336	0.7033	-0.215
Mof_Ag	Ag	0.7781	0.8023	0.4992	0.079
Mof_C 	C 	0.5364	0.6996	0.7525	0.002
Mof_H 	H 	0.4796	0.6751	0.7265	0.028
Mof_H 	H 	0.5399	0.6797	0.8142	0.035
Mof_C 	C 	0.6298	0.5731	0.6951	0.118
Mof_C 	C 	0.5711	0.5067	0.7306	-0.131
Mof_H 	H 	0.5193	0.5237	0.7641	0.069
Mof_C 	C 	0.5919	0.4123	0.7149	-0.004
Mof_H 	H 	0.5543	0.3658	0.738	0.023
Mof_C 	C 	0.6707	0.3911	0.6636	-0.037
Mof_H 	H 	0.6834	0.3294	0.6511	0.041
Mof_C 	C 	0.7285	0.4559	0.6318	-0.08
Mof_H 	H 	0.7822	0.4376	0.6019	0.054
Mof_C 	C 	0.7106	0.5492	0.6422	0.033
Mof_C 	C 	0.5338	0.7777	0.4636	0.02
Mof_C 	C 	0.4982	0.8673	0.4767	-0.074
Mof_H 	H 	0.5286	0.9174	0.4509	0.04
Mof_C 	C 	0.42	0.8821	0.5266	-0.058
Mof_H 	H 	0.3987	0.9421	0.5354	0.034
Mof_C 	C 	0.3725	0.8098	0.5638	0.007
Mof_H 	H 	0.3189	0.8203	0.5972	0.016
Mof_C 	C 	0.4048	0.7213	0.5514	-0.143
Mof_H 	H 	0.3723	0.6719	0.576	0.076
Mof_C 	C 	0.4844	0.7052	0.5032	0.124
Mof_C 	C 	0.4741	0.54	0.5171	0.006
Mof_H 	H 	0.4707	0.538	0.5817	0.039
Mof_H 	H 	0.4112	0.5404	0.4934	0.038
Mof_N 	N 	0.7698	0.6253	0.6123	-0.279
Mof_H 	H 	0.783	0.6563	0.6629	0.134
Mof_H 	H 	0.8234	0.5975	0.5965	0.108
Mof_N 	N 	0.6161	0.7587	0.4166	-0.287
Mof_H 	H 	0.6086	0.7047	0.3877	0.109
Mof_H 	H 	0.6236	0.8028	0.3749	0.093
Mof_O 	O 	0.5237	0.6199	0.4885	-0.225
Mof_O 	O 	0.6169	0.6664	0.7033	-0.215
Mof_Ag	Ag	0.7219	0.6977	0.4992	0.079
Mof_C 	C 	0.5364	0.8004	0.7475	0.002
Mof_H 	H 	0.4796	0.8249	0.7735	0.028
Mof_H 	H 	0.5399	0.8203	0.6858	0.035
Mof_C 	C 	0.6298	0.9269	0.8049	0.117
Mof_C 	C 	0.5711	0.9933	0.7694	-0.13
Mof_H 	H 	0.5193	0.9763	0.7359	0.069
Mof_C 	C 	0.5919	0.0877	0.7851	-0.005
Mof_H 	H 	0.5543	0.1342	0.762	0.024
Mof_C 	C 	0.6707	0.1089	0.8364	-0.035
Mof_H 	H 	0.6834	0.1706	0.8489	0.041
Mof_C 	C 	0.7285	0.0441	0.8682	-0.081
Mof_H 	H 	0.7822	0.0624	0.8981	0.054
Mof_C 	C 	0.7106	0.9508	0.8578	0.034
Mof_C 	C 	0.5338	0.7223	0.0364	0.02
Mof_C 	C 	0.4982	0.6327	0.0233	-0.073
Mof_H 	H 	0.5286	0.5826	0.0491	0.039
Mof_C 	C 	0.42	0.6179	0.9734	-0.059
Mof_H 	H 	0.3987	0.5579	0.9646	0.034
Mof_C 	C 	0.3725	0.6902	0.9362	0.008
Mof_H 	H 	0.3189	0.6797	0.9028	0.015
Mof_C 	C 	0.4048	0.7787	0.9486	-0.143
Mof_H 	H 	0.3723	0.8281	0.924	0.076
Mof_C 	C 	0.4844	0.7948	0.9968	0.124
Mof_C 	C 	0.4741	0.96	0.9829	0.005
Mof_H 	H 	0.4707	0.962	0.9183	0.039
Mof_H 	H 	0.4112	0.9596	0.0066	0.038
Mof_N 	N 	0.7698	0.8747	0.8877	-0.279
Mof_H 	H 	0.783	0.8437	0.8371	0.134
Mof_H 	H 	0.8234	0.9025	0.9035	0.108
Mof_N 	N 	0.6161	0.7413	0.0834	-0.287
Mof_H 	H 	0.6086	0.7953	0.1123	0.109
Mof_H 	H 	0.6236	0.6972	0.1251	0.092
Mof_O 	O 	0.5237	0.8801	0.0115	-0.225
Mof_O 	O 	0.6169	0.8336	0.7967	-0.215
Mof_Ag	Ag	0.7219	0.8023	0.0008	0.079
Mof_C 	C 	0.9636	0.6996	0.7475	0.004
Mof_H 	H 	0.0204	0.6751	0.7735	0.027
Mof_H 	H 	0.9601	0.6797	0.6858	0.034
Mof_C 	C 	0.8702	0.5731	0.8049	0.118
Mof_C 	C 	0.9289	0.5067	0.7694	-0.131
Mof_H 	H 	0.9807	0.5237	0.7359	0.069
Mof_C 	C 	0.9081	0.4123	0.7851	-0.004
Mof_H 	H 	0.9457	0.3658	0.762	0.023
Mof_C 	C 	0.8293	0.3911	0.8364	-0.037
Mof_H 	H 	0.8166	0.3294	0.8489	0.041
Mof_C 	C 	0.7715	0.4559	0.8682	-0.08
Mof_H 	H 	0.7178	0.4376	0.8981	0.054
Mof_C 	C 	0.7894	0.5492	0.8578	0.033
Mof_C 	C 	0.9662	0.7777	0.0364	0.017
Mof_C 	C 	0.0018	0.8673	0.0233	-0.066
Mof_H 	H 	0.9714	0.9174	0.0491	0.036
Mof_C 	C 	0.08	0.8821	0.9734	-0.066
Mof_H 	H 	0.1013	0.9421	0.9646	0.036
Mof_C 	C 	0.1275	0.8098	0.9362	0.012
Mof_H 	H 	0.1811	0.8203	0.9028	0.014
Mof_C 	C 	0.0952	0.7213	0.9486	-0.146
Mof_H 	H 	0.1277	0.6719	0.924	0.077
Mof_C 	C 	0.0156	0.7052	0.9968	0.125
Mof_C 	C 	0.0259	0.54	0.9829	0.003
Mof_H 	H 	0.0293	0.538	0.9183	0.039
Mof_H 	H 	0.0888	0.5404	0.0066	0.04
Mof_N 	N 	0.7302	0.6253	0.8877	-0.278
Mof_H 	H 	0.717	0.6563	0.8371	0.134
Mof_H 	H 	0.6766	0.5975	0.9035	0.108
Mof_N 	N 	0.8839	0.7587	0.0834	-0.286
Mof_H 	H 	0.8914	0.7047	0.1123	0.109
Mof_H 	H 	0.8764	0.8028	0.1251	0.092
Mof_O 	O 	0.9763	0.6199	0.0115	-0.225
Mof_O 	O 	0.8831	0.6664	0.7967	-0.215
Mof_Ag	Ag	0.7781	0.6977	0.0008	0.079
Mof_Ag	Ag	0.25	0.25	0.50177	0.417
Mof_Ag	Ag	0.25	0.25	0.99823	0.417
Mof_Ag	Ag	0.75	0.75	0.49823	0.417
Mof_Ag	Ag	0.75	0.75	0.00177	0.417
_end
