data_functionalizedCrystal
_audit_creation_method	'EQeq! by Chris Wilmer'
_symmetry_space_group_name_H-M	'P1'
_symmetry_Int_Tables_number	1
_symmetry_cell_setting	triclinic
loop_
_symmetry_equiv_pos_as_xyz
  x,y,z
_cell_length_a	20.883
_cell_length_b	20.883
_cell_length_c	32.658
_cell_angle_alpha	90
_cell_angle_beta	90
_cell_angle_gamma	120
loop_
_atom_site_label
_atom_site_type_symbol
_atom_site_fract_x
_atom_site_fract_y
_atom_site_fract_z
_atom_site_charge
Mof_C 	C 	0.0158	0.3063	0.81246	-0.137
Mof_C 	C 	0.9271	0.3116	0.75931	-0.102
Mof_C 	C 	0.9842	0.1788	0.78844	-0.097
Mof_C 	C 	0.1117	0.2895	0.75779	-0.116
Mof_N 	N 	0.0236	0.3281	0.8455	-0.23
Mof_N 	N 	0.8872	0.3326	0.76546	-0.096
Mof_N 	N 	0.9686	0.1281	0.80834	-0.101
Mof_N 	N 	0.17	0.2975	0.76018	-0.227
Mof_C 	C 	0.68247	0.63963	0.14579	-0.125
Mof_C 	C 	0.59377	0.64493	0.09264	-0.157
Mof_C 	C 	0.65087	0.51213	0.12177	-0.166
Mof_C 	C 	0.77837	0.62283	0.09112	-0.122
Mof_N 	N 	0.69027	0.66143	0.17883	-0.224
Mof_N 	N 	0.55387	0.66593	0.09879	-0.089
Mof_N 	N 	0.63527	0.46143	0.14167	-0.09
Mof_N 	N 	0.83667	0.63083	0.09351	-0.222
Mof_C 	C 	0.34913	0.97297	0.47913	-0.116
Mof_C 	C 	0.26043	0.97827	0.42598	-0.146
Mof_C 	C 	0.31753	0.84547	0.45511	-0.169
Mof_C 	C 	0.44503	0.95617	0.42446	-0.11
Mof_N 	N 	0.35693	0.99477	0.51217	-0.198
Mof_N 	N 	0.22053	0.99927	0.43213	-0.081
Mof_N 	N 	0.30193	0.79477	0.47501	-0.087
Mof_N 	N 	0.50333	0.96417	0.42685	-0.216
Mof_C 	C 	0.6937	0.7095	0.81246	-0.122
Mof_C 	C 	0.6884	0.6155	0.75931	-0.155
Mof_C 	C 	0.8212	0.8054	0.78844	-0.153
Mof_C 	C 	0.7105	0.8222	0.75779	-0.119
Mof_N 	N 	0.6719	0.6955	0.8455	-0.222
Mof_N 	N 	0.6674	0.5546	0.76546	-0.089
Mof_N 	N 	0.8719	0.8405	0.80834	-0.07
Mof_N 	N 	0.7025	0.8725	0.76018	-0.198
Mof_C 	C 	0.36037	0.04283	0.14579	-0.139
Mof_C 	C 	0.35507	0.94883	0.09264	-0.098
Mof_C 	C 	0.48787	0.13873	0.12177	-0.16
Mof_C 	C 	0.37717	0.15553	0.09112	-0.122
Mof_N 	N 	0.33857	0.02883	0.17883	-0.222
Mof_N 	N 	0.33407	0.88793	0.09879	-0.094
Mof_N 	N 	0.53857	0.17383	0.14167	-0.092
Mof_N 	N 	0.36917	0.20583	0.09351	-0.222
Mof_C 	C 	0.02703	0.37617	0.47913	-0.139
Mof_C 	C 	0.02173	0.28217	0.42598	-0.171
Mof_C 	C 	0.15453	0.47207	0.45511	-0.161
Mof_C 	C 	0.04383	0.48887	0.42446	-0.14
Mof_N 	N 	0.00523	0.36217	0.51217	-0.249
Mof_N 	N 	0.00073	0.22127	0.43213	-0.11
Mof_N 	N 	0.20523	0.50717	0.47501	-0.094
Mof_N 	N 	0.03583	0.53917	0.42685	-0.224
Mof_C 	C 	0.2905	0.9842	0.81246	-0.064
Mof_C 	C 	0.3845	0.0729	0.75931	-0.158
Mof_C 	C 	0.1946	0.0158	0.78844	-0.182
Mof_C 	C 	0.1778	0.8883	0.75779	-0.088
Mof_N 	N 	0.3045	0.9764	0.8455	-0.233
Mof_N 	N 	0.4454	0.1128	0.76546	-0.1
Mof_N 	N 	0.1595	0.0314	0.80834	-0.111
Mof_N 	N 	0.1275	0.83	0.76018	-0.224
Mof_C 	C 	0.95717	0.31753	0.14579	-0.115
Mof_C 	C 	0.05117	0.40623	0.09264	-0.214
Mof_C 	C 	0.86127	0.34913	0.12177	-0.167
Mof_C 	C 	0.84447	0.22163	0.09112	-0.132
Mof_N 	N 	0.97117	0.30973	0.17883	-0.197
Mof_N 	N 	0.11207	0.44613	0.09879	-0.087
Mof_N 	N 	0.82617	0.36473	0.14167	-0.086
Mof_N 	N 	0.79417	0.16333	0.09351	-0.215
Mof_C 	C 	0.62383	0.65087	0.47913	-0.123
Mof_C 	C 	0.71783	0.73957	0.42598	-0.152
Mof_C 	C 	0.52793	0.68247	0.45511	-0.164
Mof_C 	C 	0.51113	0.55497	0.42446	-0.126
Mof_N 	N 	0.63783	0.64307	0.51217	-0.222
Mof_N 	N 	0.77873	0.77947	0.43213	-0.079
Mof_N 	N 	0.49283	0.69807	0.47501	-0.089
Mof_N 	N 	0.46083	0.49667	0.42685	-0.219
Mof_C 	C 	0.3063	0.0158	0.68754	-0.136
Mof_C 	C 	0.3116	0.9271	0.74069	-0.102
Mof_C 	C 	0.1788	0.9842	0.71156	-0.097
Mof_C 	C 	0.2895	0.1117	0.74221	-0.115
Mof_N 	N 	0.3281	0.0236	0.6545	-0.229
Mof_N 	N 	0.3326	0.8872	0.73454	-0.095
Mof_N 	N 	0.1281	0.9686	0.69166	-0.1
Mof_N 	N 	0.2975	0.17	0.73982	-0.226
Mof_C 	C 	0.97297	0.34913	0.02087	-0.117
Mof_C 	C 	0.97827	0.26043	0.07402	-0.146
Mof_C 	C 	0.84547	0.31753	0.04489	-0.169
Mof_C 	C 	0.95617	0.44503	0.07554	-0.11
Mof_N 	N 	0.99477	0.35693	0.98783	-0.197
Mof_N 	N 	0.99927	0.22053	0.06787	-0.081
Mof_N 	N 	0.79477	0.30193	0.02499	-0.087
Mof_N 	N 	0.96417	0.50333	0.07315	-0.216
Mof_C 	C 	0.63963	0.68247	0.35421	-0.124
Mof_C 	C 	0.64493	0.59377	0.40736	-0.156
Mof_C 	C 	0.51213	0.65087	0.37823	-0.165
Mof_C 	C 	0.62283	0.77837	0.40888	-0.121
Mof_N 	N 	0.66143	0.69027	0.32117	-0.223
Mof_N 	N 	0.66593	0.55387	0.40121	-0.088
Mof_N 	N 	0.46143	0.63527	0.35833	-0.09
Mof_N 	N 	0.63083	0.83667	0.40649	-0.222
Mof_C 	C 	0.7095	0.6937	0.68754	-0.122
Mof_C 	C 	0.6155	0.6884	0.74069	-0.155
Mof_C 	C 	0.8054	0.8212	0.71156	-0.153
Mof_C 	C 	0.8222	0.7105	0.74221	-0.119
Mof_N 	N 	0.6955	0.6719	0.6545	-0.222
Mof_N 	N 	0.5546	0.6674	0.73454	-0.089
Mof_N 	N 	0.8405	0.8719	0.69166	-0.07
Mof_N 	N 	0.8725	0.7025	0.73982	-0.197
Mof_C 	C 	0.37617	0.02703	0.02087	-0.139
Mof_C 	C 	0.28217	0.02173	0.07402	-0.171
Mof_C 	C 	0.47207	0.15453	0.04489	-0.161
Mof_C 	C 	0.48887	0.04383	0.07554	-0.14
Mof_N 	N 	0.36217	0.00523	0.98783	-0.249
Mof_N 	N 	0.22127	0.00073	0.06787	-0.11
Mof_N 	N 	0.50717	0.20523	0.02499	-0.094
Mof_N 	N 	0.53917	0.03583	0.07315	-0.224
Mof_C 	C 	0.04283	0.36037	0.35421	-0.139
Mof_C 	C 	0.94883	0.35507	0.40736	-0.098
Mof_C 	C 	0.13873	0.48787	0.37823	-0.16
Mof_C 	C 	0.15553	0.37717	0.40888	-0.122
Mof_N 	N 	0.02883	0.33857	0.32117	-0.222
Mof_N 	N 	0.88793	0.33407	0.40121	-0.094
Mof_N 	N 	0.17383	0.53857	0.35833	-0.092
Mof_N 	N 	0.20583	0.36917	0.40649	-0.222
Mof_C 	C 	0.9842	0.2905	0.68754	-0.063
Mof_C 	C 	0.0729	0.3845	0.74069	-0.158
Mof_C 	C 	0.0158	0.1946	0.71156	-0.182
Mof_C 	C 	0.8883	0.1778	0.74221	-0.088
Mof_N 	N 	0.9764	0.3045	0.6545	-0.233
Mof_N 	N 	0.1128	0.4454	0.73454	-0.1
Mof_N 	N 	0.0314	0.1595	0.69166	-0.111
Mof_N 	N 	0.83	0.1275	0.73982	-0.224
Mof_C 	C 	0.65087	0.62383	0.02087	-0.123
Mof_C 	C 	0.73957	0.71783	0.07402	-0.152
Mof_C 	C 	0.68247	0.52793	0.04489	-0.164
Mof_C 	C 	0.55497	0.51113	0.07554	-0.126
Mof_N 	N 	0.64307	0.63783	0.98783	-0.222
Mof_N 	N 	0.77947	0.77873	0.06787	-0.079
Mof_N 	N 	0.69807	0.49283	0.02499	-0.089
Mof_N 	N 	0.49667	0.46083	0.07315	-0.219
Mof_C 	C 	0.31753	0.95717	0.35421	-0.115
Mof_C 	C 	0.40623	0.05117	0.40736	-0.215
Mof_C 	C 	0.34913	0.86127	0.37823	-0.167
Mof_C 	C 	0.22163	0.84447	0.40888	-0.132
Mof_N 	N 	0.30973	0.97117	0.32117	-0.197
Mof_N 	N 	0.44613	0.11207	0.40121	-0.087
Mof_N 	N 	0.36473	0.82617	0.35833	-0.086
Mof_N 	N 	0.16333	0.79417	0.40649	-0.215
Mof_C 	C 	0.9842	0.6937	0.18754	-0.061
Mof_C 	C 	0.0729	0.6884	0.24069	-0.155
Mof_C 	C 	0.0158	0.8212	0.21156	-0.173
Mof_C 	C 	0.8883	0.7105	0.24221	-0.083
Mof_N 	N 	0.9764	0.6719	0.1545	-0.232
Mof_N 	N 	0.1128	0.6674	0.23454	-0.098
Mof_N 	N 	0.0314	0.8719	0.19166	-0.092
Mof_N 	N 	0.83	0.7025	0.23982	-0.228
Mof_C 	C 	0.65087	0.02703	0.52087	-0.136
Mof_C 	C 	0.73957	0.02173	0.57402	-0.166
Mof_C 	C 	0.68247	0.15453	0.54489	-0.161
Mof_C 	C 	0.55497	0.04383	0.57554	-0.141
Mof_N 	N 	0.64307	0.00523	0.48783	-0.248
Mof_N 	N 	0.77947	0.00073	0.56787	-0.098
Mof_N 	N 	0.69807	0.20523	0.52499	-0.093
Mof_N 	N 	0.49667	0.03583	0.57315	-0.223
Mof_C 	C 	0.31753	0.36037	0.85421	-0.128
Mof_C 	C 	0.40623	0.35507	0.90736	-0.159
Mof_C 	C 	0.34913	0.48787	0.87823	-0.164
Mof_C 	C 	0.22163	0.37717	0.90888	-0.13
Mof_N 	N 	0.30973	0.33857	0.82117	-0.223
Mof_N 	N 	0.44613	0.33407	0.90121	-0.093
Mof_N 	N 	0.36473	0.53857	0.85833	-0.09
Mof_N 	N 	0.16333	0.36917	0.90649	-0.218
Mof_C 	C 	0.3063	0.2905	0.18754	-0.128
Mof_C 	C 	0.3116	0.3845	0.24069	-0.157
Mof_C 	C 	0.1788	0.1946	0.21156	-0.17
Mof_C 	C 	0.2895	0.1778	0.24221	-0.131
Mof_N 	N 	0.3281	0.3045	0.1545	-0.224
Mof_N 	N 	0.3326	0.4454	0.23454	-0.091
Mof_N 	N 	0.1281	0.1595	0.19166	-0.105
Mof_N 	N 	0.2975	0.1275	0.23982	-0.215
Mof_C 	C 	0.97297	0.62383	0.52087	-0.113
Mof_C 	C 	0.97827	0.71783	0.57402	-0.141
Mof_C 	C 	0.84547	0.52793	0.54489	-0.169
Mof_C 	C 	0.95617	0.51113	0.57554	-0.11
Mof_N 	N 	0.99477	0.63783	0.48783	-0.197
Mof_N 	N 	0.99927	0.77873	0.56787	-0.07
Mof_N 	N 	0.79477	0.49283	0.52499	-0.086
Mof_N 	N 	0.96417	0.46083	0.57315	-0.216
Mof_C 	C 	0.63963	0.95717	0.85421	-0.113
Mof_C 	C 	0.64493	0.05117	0.90736	-0.213
Mof_C 	C 	0.51213	0.86127	0.87823	-0.167
Mof_C 	C 	0.62283	0.84447	0.90888	-0.128
Mof_N 	N 	0.66143	0.97117	0.82117	-0.197
Mof_N 	N 	0.66593	0.11207	0.90121	-0.085
Mof_N 	N 	0.46143	0.82617	0.85833	-0.086
Mof_N 	N 	0.63083	0.79417	0.90649	-0.216
Mof_C 	C 	0.7095	0.0158	0.18754	-0.133
Mof_C 	C 	0.6155	0.9271	0.24069	-0.102
Mof_C 	C 	0.8054	0.9842	0.21156	-0.089
Mof_C 	C 	0.8222	0.1117	0.24221	-0.109
Mof_N 	N 	0.6955	0.0236	0.1545	-0.228
Mof_N 	N 	0.5546	0.8872	0.23454	-0.095
Mof_N 	N 	0.8405	0.9686	0.19166	-0.084
Mof_N 	N 	0.8725	0.17	0.23982	-0.204
Mof_C 	C 	0.37617	0.34913	0.52087	-0.129
Mof_C 	C 	0.28217	0.26043	0.57402	-0.162
Mof_C 	C 	0.47207	0.31753	0.54489	-0.166
Mof_C 	C 	0.48887	0.44503	0.57554	-0.125
Mof_N 	N 	0.36217	0.35693	0.48783	-0.224
Mof_N 	N 	0.22127	0.22053	0.56787	-0.102
Mof_N 	N 	0.50717	0.30193	0.52499	-0.091
Mof_N 	N 	0.53917	0.50333	0.57315	-0.221
Mof_C 	C 	0.04283	0.68247	0.85421	-0.137
Mof_C 	C 	0.94883	0.59377	0.90736	-0.097
Mof_C 	C 	0.13873	0.65087	0.87823	-0.16
Mof_C 	C 	0.15553	0.77837	0.90888	-0.117
Mof_N 	N 	0.02883	0.69027	0.82117	-0.222
Mof_N 	N 	0.88793	0.55387	0.90121	-0.092
Mof_N 	N 	0.17383	0.63527	0.85833	-0.092
Mof_N 	N 	0.20583	0.83667	0.90649	-0.224
Mof_C 	C 	0.6937	0.9842	0.31246	-0.061
Mof_C 	C 	0.6884	0.0729	0.25931	-0.155
Mof_C 	C 	0.8212	0.0158	0.28844	-0.174
Mof_C 	C 	0.7105	0.8883	0.25779	-0.082
Mof_N 	N 	0.6719	0.9764	0.3455	-0.232
Mof_N 	N 	0.6674	0.1128	0.26546	-0.098
Mof_N 	N 	0.8719	0.0314	0.30834	-0.092
Mof_N 	N 	0.7025	0.83	0.26018	-0.228
Mof_C 	C 	0.36037	0.31753	0.64579	-0.128
Mof_C 	C 	0.35507	0.40623	0.59264	-0.159
Mof_C 	C 	0.48787	0.34913	0.62177	-0.164
Mof_C 	C 	0.37717	0.22163	0.59112	-0.13
Mof_N 	N 	0.33857	0.30973	0.67883	-0.223
Mof_N 	N 	0.33407	0.44613	0.59879	-0.093
Mof_N 	N 	0.53857	0.36473	0.64167	-0.09
Mof_N 	N 	0.36917	0.16333	0.59351	-0.218
Mof_C 	C 	0.02703	0.65087	0.97913	-0.137
Mof_C 	C 	0.02173	0.73957	0.92598	-0.166
Mof_C 	C 	0.15453	0.68247	0.95511	-0.161
Mof_C 	C 	0.04383	0.55497	0.92446	-0.141
Mof_N 	N 	0.00523	0.64307	0.01217	-0.247
Mof_N 	N 	0.00073	0.77947	0.93213	-0.098
Mof_N 	N 	0.20523	0.69807	0.97501	-0.093
Mof_N 	N 	0.03583	0.49667	0.92685	-0.223
Mof_C 	C 	0.2905	0.3063	0.31246	-0.128
Mof_C 	C 	0.3845	0.3116	0.25931	-0.157
Mof_C 	C 	0.1946	0.1788	0.28844	-0.17
Mof_C 	C 	0.1778	0.2895	0.25779	-0.131
Mof_N 	N 	0.3045	0.3281	0.3455	-0.224
Mof_N 	N 	0.4454	0.3326	0.26546	-0.091
Mof_N 	N 	0.1595	0.1281	0.30834	-0.105
Mof_N 	N 	0.1275	0.2975	0.26018	-0.215
Mof_C 	C 	0.95717	0.63963	0.64579	-0.112
Mof_C 	C 	0.05117	0.64493	0.59264	-0.213
Mof_C 	C 	0.86127	0.51213	0.62177	-0.167
Mof_C 	C 	0.84447	0.62283	0.59112	-0.128
Mof_N 	N 	0.97117	0.66143	0.67883	-0.197
Mof_N 	N 	0.11207	0.66593	0.59879	-0.085
Mof_N 	N 	0.82617	0.46143	0.64167	-0.086
Mof_N 	N 	0.79417	0.63083	0.59351	-0.216
Mof_C 	C 	0.62383	0.97297	0.97913	-0.114
Mof_C 	C 	0.71783	0.97827	0.92598	-0.141
Mof_C 	C 	0.52793	0.84547	0.95511	-0.169
Mof_C 	C 	0.51113	0.95617	0.92446	-0.11
Mof_N 	N 	0.63783	0.99477	0.01217	-0.197
Mof_N 	N 	0.77873	0.99927	0.93213	-0.07
Mof_N 	N 	0.49283	0.79477	0.97501	-0.086
Mof_N 	N 	0.46083	0.96417	0.92685	-0.216
Mof_C 	C 	0.0158	0.7095	0.31246	-0.133
Mof_C 	C 	0.9271	0.6155	0.25931	-0.102
Mof_C 	C 	0.9842	0.8054	0.28844	-0.089
Mof_C 	C 	0.1117	0.8222	0.25779	-0.109
Mof_N 	N 	0.0236	0.6955	0.3455	-0.228
Mof_N 	N 	0.8872	0.5546	0.26546	-0.095
Mof_N 	N 	0.9686	0.8405	0.30834	-0.084
Mof_N 	N 	0.17	0.8725	0.26018	-0.204
Mof_C 	C 	0.68247	0.04283	0.64579	-0.137
Mof_C 	C 	0.59377	0.94883	0.59264	-0.097
Mof_C 	C 	0.65087	0.13873	0.62177	-0.16
Mof_C 	C 	0.77837	0.15553	0.59112	-0.117
Mof_N 	N 	0.69027	0.02883	0.67883	-0.222
Mof_N 	N 	0.55387	0.88793	0.59879	-0.092
Mof_N 	N 	0.63527	0.17383	0.64167	-0.092
Mof_N 	N 	0.83667	0.20583	0.59351	-0.224
Mof_C 	C 	0.34913	0.37617	0.97913	-0.129
Mof_C 	C 	0.26043	0.28217	0.92598	-0.162
Mof_C 	C 	0.31753	0.47207	0.95511	-0.166
Mof_C 	C 	0.44503	0.48887	0.92446	-0.125
Mof_N 	N 	0.35693	0.36217	0.01217	-0.224
Mof_N 	N 	0.22053	0.22127	0.93213	-0.102
Mof_N 	N 	0.30193	0.50717	0.97501	-0.091
Mof_N 	N 	0.50333	0.53917	0.92685	-0.221
Mof_Mo	Mo	3.83914e-18	0.26742	0.75	0.876
Mof_Mo	Mo	0.66667	0.60075	0.08333	1.033
Mof_Mo	Mo	0.33333	0.93409	0.41667	1.074
Mof_Mo	Mo	0.73258	0.73258	0.75	1.035
Mof_Mo	Mo	0.39925	0.06591	0.08333	0.993
Mof_Mo	Mo	0.06591	0.39925	0.41667	0.993
Mof_Mo	Mo	0.26742	3.27465e-32	0.75	0.877
Mof_Mo	Mo	0.93409	0.33333	0.08333	1.074
Mof_Mo	Mo	0.60075	0.66667	0.41667	1.033
Mof_Mo	Mo	2.58592e-17	0.73258	0.25	0.878
Mof_Mo	Mo	0.66667	0.06591	0.58333	0.993
Mof_Mo	Mo	0.33333	0.39925	0.91667	1.033
Mof_Mo	Mo	0.26742	0.26742	0.25	1.033
Mof_Mo	Mo	0.93409	0.60075	0.58333	1.074
Mof_Mo	Mo	0.60075	0.93409	0.91667	1.074
Mof_Mo	Mo	0.73258	8.18662e-33	0.25	0.876
Mof_Mo	Mo	0.39925	0.33333	0.58333	1.033
Mof_Mo	Mo	0.06591	0.66667	0.91667	0.993
Mof_Nd	Nd	0.05181	0.38514	0.91667	1.281
Mof_Nd	Nd	0.71847	0.71847	0.25	1.388
Mof_Nd	Nd	0.61486	0.66667	0.91667	1.379
Mof_Nd	Nd	0.28153	8.18662e-33	0.25	1.245
Mof_Nd	Nd	0.33333	0.94819	0.91667	1.436
Mof_Nd	Nd	7.42459e-18	0.28153	0.25	1.245
Mof_Nd	Nd	0.38514	0.05181	0.58333	1.281
Mof_Nd	Nd	0.66667	0.61486	0.58333	1.379
Mof_Nd	Nd	0.94819	0.33333	0.58333	1.437
Mof_Nd	Nd	0.94819	0.61486	0.08333	1.449
Mof_Nd	Nd	0.38514	0.33333	0.08333	1.351
Mof_Nd	Nd	0.66667	0.05181	0.08333	1.294
Mof_Nd	Nd	0.61486	0.94819	0.41667	1.45
Mof_Nd	Nd	0.28153	0.28153	0.75	1.342
Mof_Nd	Nd	0.33333	0.38514	0.41667	1.351
Mof_Nd	Nd	3.83914e-18	0.71847	0.75	1.266
Mof_Nd	Nd	0.05181	0.66667	0.41667	1.295
Mof_Nd	Nd	0.71847	3.27465e-32	0.75	1.267
_end
