data_functionalizedCrystal
_audit_creation_method	'EQeq! by Chris Wilmer'
_symmetry_space_group_name_H-M	'P1'
_symmetry_Int_Tables_number	1
_symmetry_cell_setting	triclinic
loop_
_symmetry_equiv_pos_as_xyz
  x,y,z
_cell_length_a	8.415
_cell_length_b	12.503
_cell_length_c	12.682
_cell_angle_alpha	62.908
_cell_angle_beta	87.261
_cell_angle_gamma	71.416
loop_
_atom_site_label
_atom_site_type_symbol
_atom_site_fract_x
_atom_site_fract_y
_atom_site_fract_z
_atom_site_charge
Mof_Ag	Ag	0.75664	0.48594	0.48561	0.564
Mof_Ag	Ag	0.24336	0.51406	0.51439	0.564
Mof_H 	H 	0.4945	0.813	0.4468	0.29
Mof_H 	H 	0.4729	0.7716	0.5819	0.282
Mof_H 	H 	0.5082	0.6717	0.5339	0.246
Mof_H 	H 	0.0213	0.8666	0.6894	0.092
Mof_H 	H 	0.2099	0.8611	0.6811	0.092
Mof_H 	H 	0.1528	0.951	0.4681	0.045
Mof_H 	H 	0.7831	0.7065	0.224	0.254
Mof_H 	H 	0.6937	0.7518	0.098	0.285
Mof_H 	H 	0.7647	0.6061	0.1881	0.255
Mof_H 	H 	0.8726	0.0206	0.1757	0.1
Mof_H 	H 	0.0614	0.0126	0.1609	0.094
Mof_H 	H 	0.8919	0.9315	0.0392	0.047
Mof_H 	H 	0.5055	0.187	0.5532	0.29
Mof_H 	H 	0.5271	0.2284	0.4181	0.282
Mof_H 	H 	0.4918	0.3283	0.4661	0.246
Mof_H 	H 	0.9787	0.1334	0.3106	0.092
Mof_H 	H 	0.7901	0.1389	0.3189	0.092
Mof_H 	H 	0.8472	0.049	0.5319	0.045
Mof_H 	H 	0.2169	0.2935	0.776	0.254
Mof_H 	H 	0.3063	0.2482	0.902	0.285
Mof_H 	H 	0.2353	0.3939	0.8119	0.255
Mof_H 	H 	0.1274	0.9794	0.8243	0.1
Mof_H 	H 	0.9386	0.9874	0.8391	0.094
Mof_H 	H 	0.1081	0.0685	0.9608	0.047
Mof_C 	C 	0.5316	0.7449	0.5266	-0.803
Mof_C 	C 	0.7152	0.7119	0.5531	0.261
Mof_C 	C 	0.9913	0.6927	0.6085	0.053
Mof_C 	C 	0.1172	0.8534	0.6457	-0.16
Mof_C 	C 	0.0727	0.9536	0.5208	-0.016
Mof_C 	C 	0.7117	0.6899	0.1806	-0.778
Mof_C 	C 	0.545	0.6981	0.2304	0.247
Mof_C 	C 	0.2617	0.753	0.2731	0.048
Mof_C 	C 	0.9802	0.9714	0.1633	-0.161
Mof_C 	C 	0.962	0.9725	0.0469	-0.012
Mof_C 	C 	0.4684	0.2551	0.4734	-0.803
Mof_C 	C 	0.2848	0.2881	0.4469	0.261
Mof_C 	C 	0.0087	0.3073	0.3915	0.053
Mof_C 	C 	0.8828	0.1466	0.3543	-0.16
Mof_C 	C 	0.9273	0.0464	0.4792	-0.016
Mof_C 	C 	0.2883	0.3101	0.8194	-0.778
Mof_C 	C 	0.455	0.3019	0.7696	0.247
Mof_C 	C 	0.7383	0.247	0.7269	0.048
Mof_C 	C 	0.0198	0.0286	0.8367	-0.161
Mof_C 	C 	0.038	0.0275	0.9531	-0.012
Mof_S 	S 	0.79372	0.78922	0.60834	-0.057
Mof_S 	S 	0.17802	0.69208	0.66164	-0.056
Mof_S 	S 	0.36339	0.82215	0.15326	-0.052
Mof_S 	S 	0.04853	0.81173	0.28823	-0.03
Mof_S 	S 	0.20628	0.21078	0.39166	-0.057
Mof_S 	S 	0.82198	0.30792	0.33836	-0.056
Mof_S 	S 	0.63661	0.17785	0.84674	-0.052
Mof_S 	S 	0.95147	0.18827	0.71177	-0.03
Mof_N 	N 	0.8309	0.6235	0.5376	-0.194
Mof_N 	N 	0.9919	0.6133	0.5692	-0.154
Mof_N 	N 	0.5243	0.615	0.3332	-0.196
Mof_N 	N 	0.3586	0.646	0.3583	-0.158
Mof_N 	N 	0.1691	0.3765	0.4624	-0.194
Mof_N 	N 	0.0081	0.3867	0.4308	-0.154
Mof_N 	N 	0.4757	0.385	0.6668	-0.196
Mof_N 	N 	0.6414	0.354	0.6417	-0.158
Mof_Cl	Cl	0.5223	0.9349	0.78321	-0.211
Mof_O 	O 	0.6735	0.9627	0.7477	-0.058
Mof_O 	O 	0.4656	0.8991	0.7096	-0.05
Mof_O 	O 	0.56	0.83	0.899	-0.052
Mof_O 	O 	0.3994	0.0438	0.7786	-0.057
Mof_Cl	Cl	0.4777	0.0651	0.21679	-0.211
Mof_O 	O 	0.3265	0.0373	0.2523	-0.058
Mof_O 	O 	0.5344	0.1009	0.2904	-0.05
Mof_O 	O 	0.44	0.17	0.101	-0.052
Mof_O 	O 	0.6006	0.9562	0.2214	-0.057
_end
