# CIF file generated by openbabel 3.1.0, see https://openbabel.org
data_I
_chemical_name_common 'image0'
_cell_length_a 13.3444
_cell_length_b 18.782
_cell_length_c 5.849
_cell_angle_alpha 90
_cell_angle_beta 97.711
_cell_angle_gamma 90
_space_group_name_H-M_alt 'P 1'
_space_group_name_Hall 'P 1'
loop_
    _symmetry_equiv_pos_as_xyz
    x,y,z
loop_
    _atom_site_label
    _atom_site_type_symbol
    _atom_site_fract_x
    _atom_site_fract_y
    _atom_site_fract_z
    _atom_site_occupancy
    La1      La       0.62890    0.25000    0.33510    1.000
    P1       P        0.43990    0.08530    0.14400    1.000
    P2       P        0.73310    0.13360    0.86300    1.000
    O1       O        0.42300    0.07430    0.88100    1.000
    O2       O        0.46300    0.16360    0.20600    1.000
    O3       O        0.52490    0.03660    0.25800    1.000
    O4       O        0.84260    0.13800    0.80700    1.000
    O5       O        0.66100    0.17580    0.68400    1.000
    O6       O        0.72900    0.16130    0.10900    1.000
    C1       C        0.32480    0.06240    0.26100    1.000
    C2       C        0.69400    0.04170    0.84500    1.000
    N1       N        0.26740    0.99270    0.24900    1.000
    C3       C        0.16430    0.00550    0.31800    1.000
    C4       C        0.15500    0.98130    0.55800    1.000
    C5       C        0.04700    0.97850    0.60400    1.000
    P3       P        0.54240    0.90450    0.78000    1.000
    P4       P        0.28030    0.86510    0.10630    1.000
    O7       O        0.56300    0.90910    0.04500    1.000
    O8       O        0.50330    0.83040    0.70000    1.000
    O9       O        0.46620    0.96240    0.68400    1.000
    O10      O        0.17310    0.83260    0.08000    1.000
    O11      O        0.33080    0.86280    0.35800    1.000
    O12      O        0.34740    0.82840    0.94800    1.000
    C6       C        0.65970    0.92070    0.66400    1.000
    C7       C        0.26600    0.95710    0.01800    1.000
    N2       N        0.71830    0.98970    0.66300    1.000
    C8       C        0.82960    0.98170    0.64900    1.000
    C9       C        0.86260    0.98080    0.41500    1.000
    C10      C        0.96970    0.95870    0.40400    1.000
    La2      La       0.37110    0.75000    0.66490    1.000
    P5       P        0.56010    0.58530    0.85600    1.000
    P6       P        0.26690    0.63360    0.13700    1.000
    O13      O        0.57700    0.57430    0.11900    1.000
    O14      O        0.53700    0.66360    0.79400    1.000
    O15      O        0.47510    0.53660    0.74200    1.000
    O16      O        0.15740    0.63800    0.19300    1.000
    O17      O        0.33900    0.67580    0.31600    1.000
    O18      O        0.27100    0.66130    0.89100    1.000
    C11      C        0.67520    0.56240    0.73900    1.000
    C12      C        0.30600    0.54170    0.15500    1.000
    N3       N        0.73260    0.49270    0.75100    1.000
    C13      C        0.83570    0.50550    0.68200    1.000
    C14      C        0.84500    0.48130    0.44200    1.000
    C15      C        0.95300    0.47850    0.39600    1.000
    P7       P        0.45760    0.40450    0.22000    1.000
    P8       P        0.71970    0.36510    0.89370    1.000
    O19      O        0.43700    0.40910    0.95500    1.000
    O20      O        0.49670    0.33040    0.30000    1.000
    O21      O        0.53380    0.46240    0.31600    1.000
    O22      O        0.82690    0.33260    0.92000    1.000
    O23      O        0.66920    0.36280    0.64200    1.000
    O24      O        0.65260    0.32840    0.05200    1.000
    C16      C        0.34030    0.42070    0.33600    1.000
    C17      C        0.73400    0.45710    0.98200    1.000
    N4       N        0.28170    0.48970    0.33700    1.000
    C18      C        0.17040    0.48170    0.35100    1.000
    C19      C        0.13740    0.48080    0.58500    1.000
    C20      C        0.03030    0.45870    0.59600    1.000
