data_functionalizedCrystal
_audit_creation_method	'EQeq! by Chris Wilmer'
_symmetry_space_group_name_H-M	'P1'
_symmetry_Int_Tables_number	1
_symmetry_cell_setting	triclinic
loop_
_symmetry_equiv_pos_as_xyz
  x,y,z
_cell_length_a	15.2348
_cell_length_b	15.4997
_cell_length_c	15.4997
_cell_angle_alpha	120
_cell_angle_beta	90
_cell_angle_gamma	90
loop_
_atom_site_label
_atom_site_type_symbol
_atom_site_fract_x
_atom_site_fract_y
_atom_site_fract_z
_atom_site_charge
Mof_Pr	Pr	0.25	0.33333	0.66666	2.51
Mof_Pr	Pr	0.25	0.66667	0.33334	2.51
Mof_Pr	Pr	0.75	0.66667	0.33334	2.541
Mof_Pr	Pr	0.75	0.33333	0.66666	2.541
Mof_Co	Co	0.5	3.58671e-17	0.5	1.123
Mof_Co	Co	0.5	0.5	-0	1.123
Mof_Co	Co	0.5	0.5	0.5	1.16
Mof_Co	Co	-1.99102e-33	0.5	0.5	1.094
Mof_Co	Co	-3.98205e-33	0.5	-0	1.058
Mof_Co	Co	-1.99102e-33	3.58671e-17	0.5	1.058
Mof_H 	H 	0.3443	0.0535	0.7665	0.025
Mof_H 	H 	0.3443	0.713	0.9465	0.065
Mof_H 	H 	0.3443	0.2335	0.287	0.032
Mof_H 	H 	0.3443	0.9465	0.2335	0.057
Mof_H 	H 	0.3443	0.287	0.0535	0.017
Mof_H 	H 	0.3443	0.7665	0.713	0.049
Mof_H 	H 	0.1557	0.287	0.2335	0.013
Mof_H 	H 	0.1557	0.7665	0.0535	0.007
Mof_H 	H 	0.1557	0.9465	0.713	0.046
Mof_H 	H 	0.1557	0.713	0.7665	0.03
Mof_H 	H 	0.1557	0.2335	0.9465	0.039
Mof_H 	H 	0.1557	0.0535	0.287	-0.002
Mof_H 	H 	0.6557	0.9465	0.2335	0.06
Mof_H 	H 	0.6557	0.287	0.0535	0.021
Mof_H 	H 	0.6557	0.7665	0.713	0.052
Mof_H 	H 	0.6557	0.0535	0.7665	0.028
Mof_H 	H 	0.6557	0.713	0.9465	0.068
Mof_H 	H 	0.6557	0.2335	0.287	0.036
Mof_H 	H 	0.8443	0.713	0.7665	0.072
Mof_H 	H 	0.8443	0.2335	0.9465	0.08
Mof_H 	H 	0.8443	0.0535	0.287	0.042
Mof_H 	H 	0.8443	0.287	0.2335	0.057
Mof_H 	H 	0.8443	0.7665	0.0535	0.049
Mof_H 	H 	0.8443	0.9465	0.713	0.087
Mof_H 	H 	0.25	0.1004	0.8996	0.04
Mof_H 	H 	0.25	0.7992	0.8996	0.066
Mof_H 	H 	0.25	0.1004	0.2008	0.014
Mof_H 	H 	0.25	0.8996	0.1004	0.04
Mof_H 	H 	0.25	0.2008	0.1004	0.014
Mof_H 	H 	0.25	0.8996	0.7992	0.066
Mof_H 	H 	0.75	0.8996	0.1004	0.046
Mof_H 	H 	0.75	0.2008	0.1004	0.021
Mof_H 	H 	0.75	0.8996	0.7992	0.071
Mof_H 	H 	0.75	0.1004	0.8996	0.046
Mof_H 	H 	0.75	0.7992	0.8996	0.071
Mof_H 	H 	0.75	0.1004	0.2008	0.021
Mof_C 	C 	0.3612	0.1345	0.6468	0.378
Mof_C 	C 	0.3037	0.1592	0.7356	-0.058
Mof_C 	C 	0.3059	0.1067	0.7857	-0.011
Mof_C 	C 	0.3612	0.5123	0.8655	0.372
Mof_C 	C 	0.3037	0.5764	0.8408	-0.038
Mof_C 	C 	0.3059	0.679	0.8933	-0.005
Mof_C 	C 	0.3612	0.3532	0.4877	0.375
Mof_C 	C 	0.3037	0.2644	0.4236	-0.058
Mof_C 	C 	0.3059	0.2143	0.321	-0.015
Mof_C 	C 	0.3612	0.8655	0.3532	0.371
Mof_C 	C 	0.3037	0.8408	0.2644	-0.043
Mof_C 	C 	0.3059	0.8933	0.2143	-0.01
Mof_C 	C 	0.3612	0.4877	0.1345	0.377
Mof_C 	C 	0.3037	0.4236	0.1592	-0.065
Mof_C 	C 	0.3059	0.321	0.1067	-0.015
Mof_C 	C 	0.3612	0.6468	0.5123	0.377
Mof_C 	C 	0.3037	0.7356	0.5764	-0.046
Mof_C 	C 	0.3059	0.7857	0.679	-0.005
Mof_C 	C 	0.1388	0.4877	0.3532	0.375
Mof_C 	C 	0.1963	0.4236	0.2644	-0.069
Mof_C 	C 	0.1941	0.321	0.2143	-0.014
Mof_C 	C 	0.1388	0.6468	0.1345	0.378
Mof_C 	C 	0.1963	0.7356	0.1592	-0.07
Mof_C 	C 	0.1941	0.7857	0.1067	-0.01
Mof_C 	C 	0.1388	0.8655	0.5123	0.372
Mof_C 	C 	0.1963	0.8408	0.5764	-0.05
Mof_C 	C 	0.1941	0.8933	0.679	-0.005
Mof_C 	C 	0.1388	0.5123	0.6468	0.377
Mof_C 	C 	0.1963	0.5764	0.7356	-0.058
Mof_C 	C 	0.1941	0.679	0.7857	-0.004
Mof_C 	C 	0.1388	0.3532	0.8655	0.371
Mof_C 	C 	0.1963	0.2644	0.8408	-0.055
Mof_C 	C 	0.1941	0.2143	0.8933	-0.01
Mof_C 	C 	0.1388	0.1345	0.4877	0.377
Mof_C 	C 	0.1963	0.1592	0.4236	-0.076
Mof_C 	C 	0.1941	0.1067	0.321	-0.015
Mof_C 	C 	0.6388	0.8655	0.3532	0.37
Mof_C 	C 	0.6963	0.8408	0.2644	-0.036
Mof_C 	C 	0.6941	0.8933	0.2143	-0.019
Mof_C 	C 	0.6388	0.4877	0.1345	0.376
Mof_C 	C 	0.6963	0.4236	0.1592	-0.057
Mof_C 	C 	0.6941	0.321	0.1067	-0.024
Mof_C 	C 	0.6388	0.6468	0.5123	0.376
Mof_C 	C 	0.6963	0.7356	0.5764	-0.039
Mof_C 	C 	0.6941	0.7857	0.679	-0.013
Mof_C 	C 	0.6388	0.1345	0.6468	0.377
Mof_C 	C 	0.6963	0.1592	0.7356	-0.051
Mof_C 	C 	0.6941	0.1067	0.7857	-0.019
Mof_C 	C 	0.6388	0.5123	0.8655	0.371
Mof_C 	C 	0.6963	0.5764	0.8408	-0.031
Mof_C 	C 	0.6941	0.679	0.8933	-0.013
Mof_C 	C 	0.6388	0.3532	0.4877	0.374
Mof_C 	C 	0.6963	0.2644	0.4236	-0.05
Mof_C 	C 	0.6941	0.2143	0.321	-0.023
Mof_C 	C 	0.8612	0.5123	0.6468	0.371
Mof_C 	C 	0.8037	0.5764	0.7356	-0.024
Mof_C 	C 	0.8059	0.679	0.7857	-0.015
Mof_C 	C 	0.8612	0.3532	0.8655	0.365
Mof_C 	C 	0.8037	0.2644	0.8408	-0.022
Mof_C 	C 	0.8059	0.2143	0.8933	-0.02
Mof_C 	C 	0.8612	0.1345	0.4877	0.37
Mof_C 	C 	0.8037	0.1592	0.4236	-0.042
Mof_C 	C 	0.8059	0.1067	0.321	-0.025
Mof_C 	C 	0.8612	0.4877	0.3532	0.369
Mof_C 	C 	0.8037	0.4236	0.2644	-0.035
Mof_C 	C 	0.8059	0.321	0.2143	-0.025
Mof_C 	C 	0.8612	0.6468	0.1345	0.371
Mof_C 	C 	0.8037	0.7356	0.1592	-0.036
Mof_C 	C 	0.8059	0.7857	0.1067	-0.021
Mof_C 	C 	0.8612	0.8655	0.5123	0.366
Mof_C 	C 	0.8037	0.8408	0.5764	-0.016
Mof_C 	C 	0.8059	0.8933	0.679	-0.015
Mof_C 	C 	0.25	0.13505	0.86495	-0.066
Mof_C 	C 	0.25	0.7299	0.86495	-0.056
Mof_C 	C 	0.25	0.13505	0.2701	-0.077
Mof_C 	C 	0.25	0.86495	0.13505	-0.066
Mof_C 	C 	0.25	0.2701	0.13505	-0.077
Mof_C 	C 	0.25	0.86495	0.7299	-0.056
Mof_C 	C 	0.75	0.86495	0.13505	-0.044
Mof_C 	C 	0.75	0.2701	0.13505	-0.054
Mof_C 	C 	0.75	0.86495	0.7299	-0.034
Mof_C 	C 	0.75	0.13505	0.86495	-0.044
Mof_C 	C 	0.75	0.7299	0.86495	-0.034
Mof_C 	C 	0.75	0.13505	0.2701	-0.054
Mof_N 	N 	0.25	0.2371	0.7629	-0.218
Mof_N 	N 	0.25	0.5258	0.7629	-0.218
Mof_N 	N 	0.25	0.2371	0.4742	-0.218
Mof_N 	N 	0.25	0.7629	0.2371	-0.218
Mof_N 	N 	0.25	0.4742	0.2371	-0.218
Mof_N 	N 	0.25	0.7629	0.5258	-0.218
Mof_N 	N 	0.75	0.7629	0.2371	-0.223
Mof_N 	N 	0.75	0.4742	0.2371	-0.223
Mof_N 	N 	0.75	0.7629	0.5258	-0.222
Mof_N 	N 	0.75	0.2371	0.7629	-0.223
Mof_N 	N 	0.75	0.5258	0.7629	-0.222
Mof_N 	N 	0.75	0.2371	0.4742	-0.223
Mof_O 	O 	0.35917	0.1953	0.61401	-0.525
Mof_O 	O 	0.4058	0.0576	0.6126	-0.456
Mof_O 	O 	0.35917	0.41871	0.8047	-0.503
Mof_O 	O 	0.4058	0.555	0.9424	-0.39
Mof_O 	O 	0.35917	0.38599	0.58129	-0.517
Mof_O 	O 	0.4058	0.3874	0.445	-0.434
Mof_O 	O 	0.35917	0.8047	0.38599	-0.504
Mof_O 	O 	0.4058	0.9424	0.3874	-0.392
Mof_O 	O 	0.35917	0.58129	0.1953	-0.526
Mof_O 	O 	0.4058	0.445	0.0576	-0.459
Mof_O 	O 	0.35917	0.61401	0.41871	-0.515
Mof_O 	O 	0.4058	0.6126	0.555	-0.428
Mof_O 	O 	0.14083	0.58129	0.38599	-0.542
Mof_O 	O 	0.0942	0.445	0.3874	-0.471
Mof_O 	O 	0.14083	0.61401	0.1953	-0.549
Mof_O 	O 	0.0942	0.6126	0.0576	-0.493
Mof_O 	O 	0.14083	0.8047	0.41871	-0.528
Mof_O 	O 	0.0942	0.9424	0.555	-0.426
Mof_O 	O 	0.14083	0.41871	0.61401	-0.54
Mof_O 	O 	0.0942	0.555	0.6126	-0.465
Mof_O 	O 	0.14083	0.38599	0.8047	-0.528
Mof_O 	O 	0.0942	0.3874	0.9424	-0.429
Mof_O 	O 	0.14083	0.1953	0.58129	-0.55
Mof_O 	O 	0.0942	0.0576	0.445	-0.496
Mof_O 	O 	0.64083	0.8047	0.38599	-0.507
Mof_O 	O 	0.5942	0.9424	0.3874	-0.393
Mof_O 	O 	0.64083	0.58129	0.1953	-0.529
Mof_O 	O 	0.5942	0.445	0.0576	-0.459
Mof_O 	O 	0.64083	0.61401	0.41871	-0.519
Mof_O 	O 	0.5942	0.6126	0.555	-0.428
Mof_O 	O 	0.64083	0.1953	0.61401	-0.528
Mof_O 	O 	0.5942	0.0576	0.6126	-0.456
Mof_O 	O 	0.64083	0.41871	0.8047	-0.507
Mof_O 	O 	0.5942	0.555	0.9424	-0.39
Mof_O 	O 	0.64083	0.38599	0.58129	-0.52
Mof_O 	O 	0.5942	0.3874	0.445	-0.434
Mof_O 	O 	0.85917	0.41871	0.61401	-0.486
Mof_O 	O 	0.9058	0.555	0.6126	-0.366
Mof_O 	O 	0.85917	0.38599	0.8047	-0.476
Mof_O 	O 	0.9058	0.3874	0.9424	-0.332
Mof_O 	O 	0.85917	0.1953	0.58129	-0.496
Mof_O 	O 	0.9058	0.0576	0.445	-0.395
Mof_O 	O 	0.85917	0.58129	0.38599	-0.488
Mof_O 	O 	0.9058	0.445	0.3874	-0.371
Mof_O 	O 	0.85917	0.61401	0.1953	-0.495
Mof_O 	O 	0.9058	0.6126	0.0576	-0.393
Mof_O 	O 	0.85917	0.8047	0.41871	-0.475
Mof_O 	O 	0.9058	0.9424	0.555	-0.329
_end
