data_functionalizedCrystal
_audit_creation_method	'EQeq! by Chris Wilmer'
_symmetry_space_group_name_H-M	'P1'
_symmetry_Int_Tables_number	1
_symmetry_cell_setting	triclinic
loop_
_symmetry_equiv_pos_as_xyz
  x,y,z
_cell_length_a	24.795
_cell_length_b	13.651
_cell_length_c	14.936
_cell_angle_alpha	90
_cell_angle_beta	97.077
_cell_angle_gamma	90
loop_
_atom_site_label
_atom_site_type_symbol
_atom_site_fract_x
_atom_site_fract_y
_atom_site_fract_z
_atom_site_charge
Mof_La	La	0.83091	0.21018	0.53028	2.051
Mof_C 	C 	0.07	0.7217	0.5416	0.33
Mof_C 	C 	0.0197	0.6888	0.5814	-0.12
Mof_C 	C 	0.9863	0.7547	0.6174	0.056
Mof_H 	H 	0.9962	0.8202	0.6233	0.025
Mof_C 	C 	0.9372	0.723	0.6451	-0.145
Mof_H 	H 	0.9141	0.7684	0.6669	0.088
Mof_C 	C 	0.9227	0.6252	0.6405	0.1
Mof_C 	C 	0.9576	0.5607	0.6071	-0.147
Mof_H 	H 	0.9483	0.4947	0.6032	0.081
Mof_C 	C 	0.0063	0.5906	0.5787	0.054
Mof_H 	H 	0.0297	0.5448	0.5581	0.02
Mof_C 	C 	0.8684	0.5946	0.6654	-0.074
Mof_C 	C 	0.8458	0.6405	0.7356	0.042
Mof_H 	H 	0.8665	0.6859	0.7714	0.029
Mof_C 	C 	0.7931	0.6204	0.7537	-0.161
Mof_C 	C 	0.7628	0.552	0.7013	0.087
Mof_H 	H 	0.7272	0.5394	0.7116	0.018
Mof_C 	C 	0.7848	0.5018	0.6334	-0.166
Mof_C 	C 	0.8377	0.5216	0.6164	0.037
Mof_H 	H 	0.8528	0.4864	0.5723	0.011
Mof_C 	C 	0.7499	0.4285	0.5766	0.435
Mof_C 	C 	0.7716	0.6718	0.8315	0.45
Mof_O 	O 	0.08265	0.8115	0.547	-0.42
Mof_O 	O 	0.09742	0.6613	0.5038	-0.437
Mof_O 	O 	0.77297	0.3579	0.5416	-0.585
Mof_O 	O 	0.70008	0.4395	0.566	-0.46
Mof_O 	O 	0.72369	0.65	0.8478	-0.49
Mof_O 	O 	0.80241	0.7315	0.8754	-0.497
Mof_O 	O 	0.8815	0.0625	0.6079	-0.603
Mof_H 	H 	0.8556	0.021	0.5638	0.17
Mof_H 	H 	0.9072	0.1014	0.6196	0.224
Mof_La	La	0.33091	0.71018	0.53028	2.049
Mof_C 	C 	0.57	0.2217	0.5416	0.329
Mof_C 	C 	0.5197	0.1888	0.5814	-0.119
Mof_C 	C 	0.4863	0.2547	0.6174	0.056
Mof_H 	H 	0.4962	0.3202	0.6233	0.026
Mof_C 	C 	0.4372	0.223	0.6451	-0.145
Mof_H 	H 	0.4141	0.2684	0.6669	0.088
Mof_C 	C 	0.4227	0.1252	0.6405	0.101
Mof_C 	C 	0.4576	0.0607	0.6071	-0.148
Mof_H 	H 	0.4483	0.9947	0.6032	0.081
Mof_C 	C 	0.5063	0.0906	0.5787	0.054
Mof_H 	H 	0.5297	0.0448	0.5581	0.02
Mof_C 	C 	0.3684	0.0946	0.6654	-0.075
Mof_C 	C 	0.3458	0.1405	0.7356	0.042
Mof_H 	H 	0.3665	0.1859	0.7714	0.028
Mof_C 	C 	0.2931	0.1204	0.7537	-0.162
Mof_C 	C 	0.2628	0.052	0.7013	0.088
Mof_H 	H 	0.2272	0.0394	0.7116	0.018
Mof_C 	C 	0.2848	0.0018	0.6334	-0.167
Mof_C 	C 	0.3377	0.0216	0.6164	0.037
Mof_H 	H 	0.3528	0.9864	0.5723	0.011
Mof_C 	C 	0.2499	0.9285	0.5766	0.435
Mof_C 	C 	0.2716	0.1718	0.8315	0.45
Mof_O 	O 	0.58265	0.3115	0.547	-0.42
Mof_O 	O 	0.59742	0.1613	0.5038	-0.437
Mof_O 	O 	0.27297	0.8579	0.5416	-0.585
Mof_O 	O 	0.20008	0.9395	0.566	-0.46
Mof_O 	O 	0.22369	0.15	0.8478	-0.49
Mof_O 	O 	0.30241	0.2315	0.8754	-0.498
Mof_O 	O 	0.3815	0.5625	0.6079	-0.603
Mof_H 	H 	0.3556	0.521	0.5638	0.17
Mof_H 	H 	0.4072	0.6014	0.6196	0.224
Mof_La	La	0.16909	0.21018	0.96972	2.047
Mof_C 	C 	0.93	0.7217	0.9584	0.329
Mof_C 	C 	0.9803	0.6888	0.9186	-0.118
Mof_C 	C 	0.0137	0.7547	0.8826	0.053
Mof_H 	H 	0.0038	0.8202	0.8767	0.026
Mof_C 	C 	0.0628	0.723	0.8549	-0.144
Mof_H 	H 	0.0859	0.7684	0.8331	0.088
Mof_C 	C 	0.0773	0.6252	0.8595	0.101
Mof_C 	C 	0.0424	0.5607	0.8929	-0.15
Mof_H 	H 	0.0517	0.4947	0.8968	0.081
Mof_C 	C 	0.9937	0.5906	0.9213	0.056
Mof_H 	H 	0.9703	0.5448	0.9419	0.02
Mof_C 	C 	0.1316	0.5946	0.8346	-0.075
Mof_C 	C 	0.1542	0.6405	0.7644	0.042
Mof_H 	H 	0.1335	0.6859	0.7286	0.028
Mof_C 	C 	0.2069	0.6204	0.7463	-0.161
Mof_C 	C 	0.2372	0.552	0.7987	0.087
Mof_H 	H 	0.2728	0.5394	0.7884	0.018
Mof_C 	C 	0.2152	0.5018	0.8666	-0.167
Mof_C 	C 	0.1623	0.5216	0.8836	0.037
Mof_H 	H 	0.1472	0.4864	0.9277	0.011
Mof_C 	C 	0.2501	0.4285	0.9234	0.435
Mof_C 	C 	0.2284	0.6718	0.6685	0.45
Mof_O 	O 	0.91735	0.8115	0.953	-0.419
Mof_O 	O 	0.90258	0.6613	0.9962	-0.435
Mof_O 	O 	0.22703	0.3579	0.9584	-0.585
Mof_O 	O 	0.29992	0.4395	0.934	-0.46
Mof_O 	O 	0.27631	0.65	0.6522	-0.49
Mof_O 	O 	0.19759	0.7315	0.6246	-0.498
Mof_O 	O 	0.1185	0.0625	0.8921	-0.603
Mof_H 	H 	0.1444	0.021	0.9362	0.169
Mof_H 	H 	0.0928	0.1014	0.8804	0.224
Mof_La	La	0.66909	0.71018	0.96972	2.052
Mof_C 	C 	0.43	0.2217	0.9584	0.329
Mof_C 	C 	0.4803	0.1888	0.9186	-0.119
Mof_C 	C 	0.5137	0.2547	0.8826	0.056
Mof_H 	H 	0.5038	0.3202	0.8767	0.026
Mof_C 	C 	0.5628	0.223	0.8549	-0.145
Mof_H 	H 	0.5859	0.2684	0.8331	0.088
Mof_C 	C 	0.5773	0.1252	0.8595	0.101
Mof_C 	C 	0.5424	0.0607	0.8929	-0.148
Mof_H 	H 	0.5517	0.9947	0.8968	0.081
Mof_C 	C 	0.4937	0.0906	0.9213	0.054
Mof_H 	H 	0.4703	0.0448	0.9419	0.02
Mof_C 	C 	0.6316	0.0946	0.8346	-0.075
Mof_C 	C 	0.6542	0.1405	0.7644	0.042
Mof_H 	H 	0.6335	0.1859	0.7286	0.028
Mof_C 	C 	0.7069	0.1204	0.7463	-0.161
Mof_C 	C 	0.7372	0.052	0.7987	0.087
Mof_H 	H 	0.7728	0.0394	0.7884	0.018
Mof_C 	C 	0.7152	0.0018	0.8666	-0.167
Mof_C 	C 	0.6623	0.0216	0.8836	0.037
Mof_H 	H 	0.6472	0.9864	0.9277	0.011
Mof_C 	C 	0.7501	0.9285	0.9234	0.435
Mof_C 	C 	0.7284	0.1718	0.6685	0.45
Mof_O 	O 	0.41735	0.3115	0.953	-0.42
Mof_O 	O 	0.40258	0.1613	0.9962	-0.437
Mof_O 	O 	0.72703	0.8579	0.9584	-0.584
Mof_O 	O 	0.79992	0.9395	0.934	-0.459
Mof_O 	O 	0.77631	0.15	0.6522	-0.49
Mof_O 	O 	0.69759	0.2315	0.6246	-0.498
Mof_O 	O 	0.6185	0.5625	0.8921	-0.603
Mof_H 	H 	0.6444	0.521	0.9362	0.17
Mof_H 	H 	0.5928	0.6014	0.8804	0.224
Mof_La	La	0.16909	0.78982	0.46972	2.05
Mof_C 	C 	0.93	0.2783	0.4584	0.329
Mof_C 	C 	0.9803	0.3112	0.4186	-0.12
Mof_C 	C 	0.0137	0.2453	0.3826	0.056
Mof_H 	H 	0.0038	0.1798	0.3767	0.025
Mof_C 	C 	0.0628	0.277	0.3549	-0.145
Mof_H 	H 	0.0859	0.2316	0.3331	0.088
Mof_C 	C 	0.0773	0.3748	0.3595	0.1
Mof_C 	C 	0.0424	0.4393	0.3929	-0.147
Mof_H 	H 	0.0517	0.5053	0.3968	0.081
Mof_C 	C 	0.9937	0.4094	0.4213	0.054
Mof_H 	H 	0.9703	0.4552	0.4419	0.02
Mof_C 	C 	0.1316	0.4054	0.3346	-0.074
Mof_C 	C 	0.1542	0.3595	0.2644	0.042
Mof_H 	H 	0.1335	0.3141	0.2286	0.029
Mof_C 	C 	0.2069	0.3796	0.2463	-0.161
Mof_C 	C 	0.2372	0.448	0.2987	0.087
Mof_H 	H 	0.2728	0.4606	0.2884	0.018
Mof_C 	C 	0.2152	0.4982	0.3666	-0.166
Mof_C 	C 	0.1623	0.4784	0.3836	0.037
Mof_H 	H 	0.1472	0.5136	0.4277	0.011
Mof_C 	C 	0.2501	0.5715	0.4234	0.435
Mof_C 	C 	0.2284	0.3282	0.1685	0.45
Mof_O 	O 	0.91735	0.1885	0.453	-0.42
Mof_O 	O 	0.90258	0.3387	0.4962	-0.437
Mof_O 	O 	0.22703	0.6421	0.4584	-0.585
Mof_O 	O 	0.29992	0.5605	0.434	-0.46
Mof_O 	O 	0.27631	0.35	0.1522	-0.49
Mof_O 	O 	0.19759	0.2685	0.1246	-0.497
Mof_O 	O 	0.1185	0.9375	0.3921	-0.603
Mof_H 	H 	0.1444	0.979	0.4362	0.17
Mof_H 	H 	0.0928	0.8986	0.3804	0.224
Mof_La	La	0.66909	0.28982	0.46972	2.049
Mof_C 	C 	0.43	0.7783	0.4584	0.329
Mof_C 	C 	0.4803	0.8112	0.4186	-0.119
Mof_C 	C 	0.5137	0.7453	0.3826	0.056
Mof_H 	H 	0.5038	0.6798	0.3767	0.026
Mof_C 	C 	0.5628	0.777	0.3549	-0.145
Mof_H 	H 	0.5859	0.7316	0.3331	0.088
Mof_C 	C 	0.5773	0.8748	0.3595	0.101
Mof_C 	C 	0.5424	0.9393	0.3929	-0.148
Mof_H 	H 	0.5517	0.0053	0.3968	0.081
Mof_C 	C 	0.4937	0.9094	0.4213	0.054
Mof_H 	H 	0.4703	0.9552	0.4419	0.02
Mof_C 	C 	0.6316	0.9054	0.3346	-0.075
Mof_C 	C 	0.6542	0.8595	0.2644	0.042
Mof_H 	H 	0.6335	0.8141	0.2286	0.028
Mof_C 	C 	0.7069	0.8796	0.2463	-0.162
Mof_C 	C 	0.7372	0.948	0.2987	0.088
Mof_H 	H 	0.7728	0.9606	0.2884	0.018
Mof_C 	C 	0.7152	0.9982	0.3666	-0.167
Mof_C 	C 	0.6623	0.9784	0.3836	0.037
Mof_H 	H 	0.6472	0.0136	0.4277	0.011
Mof_C 	C 	0.7501	0.0715	0.4234	0.435
Mof_C 	C 	0.7284	0.8282	0.1685	0.45
Mof_O 	O 	0.41735	0.6885	0.453	-0.42
Mof_O 	O 	0.40258	0.8387	0.4962	-0.437
Mof_O 	O 	0.72703	0.1421	0.4584	-0.585
Mof_O 	O 	0.79992	0.0605	0.434	-0.46
Mof_O 	O 	0.77631	0.85	0.1522	-0.49
Mof_O 	O 	0.69759	0.7685	0.1246	-0.498
Mof_O 	O 	0.6185	0.4375	0.3921	-0.603
Mof_H 	H 	0.6444	0.479	0.4362	0.17
Mof_H 	H 	0.5928	0.3986	0.3804	0.224
Mof_La	La	0.83091	0.78982	0.03028	2.047
Mof_C 	C 	0.07	0.2783	0.0416	0.329
Mof_C 	C 	0.0197	0.3112	0.0814	-0.118
Mof_C 	C 	0.9863	0.2453	0.1174	0.053
Mof_H 	H 	0.9962	0.1798	0.1233	0.026
Mof_C 	C 	0.9372	0.277	0.1451	-0.144
Mof_H 	H 	0.9141	0.2316	0.1669	0.088
Mof_C 	C 	0.9227	0.3748	0.1405	0.101
Mof_C 	C 	0.9576	0.4393	0.1071	-0.15
Mof_H 	H 	0.9483	0.5053	0.1032	0.081
Mof_C 	C 	0.0063	0.4094	0.0787	0.056
Mof_H 	H 	0.0297	0.4552	0.0581	0.02
Mof_C 	C 	0.8684	0.4054	0.1654	-0.075
Mof_C 	C 	0.8458	0.3595	0.2356	0.042
Mof_H 	H 	0.8665	0.3141	0.2714	0.028
Mof_C 	C 	0.7931	0.3796	0.2537	-0.161
Mof_C 	C 	0.7628	0.448	0.2013	0.087
Mof_H 	H 	0.7272	0.4606	0.2116	0.018
Mof_C 	C 	0.7848	0.4982	0.1334	-0.167
Mof_C 	C 	0.8377	0.4784	0.1164	0.037
Mof_H 	H 	0.8528	0.5136	0.0723	0.011
Mof_C 	C 	0.7499	0.5715	0.0766	0.435
Mof_C 	C 	0.7716	0.3282	0.3315	0.45
Mof_O 	O 	0.08265	0.1885	0.047	-0.419
Mof_O 	O 	0.09742	0.3387	0.0038	-0.435
Mof_O 	O 	0.77297	0.6421	0.0416	-0.585
Mof_O 	O 	0.70008	0.5605	0.066	-0.46
Mof_O 	O 	0.72369	0.35	0.3478	-0.49
Mof_O 	O 	0.80241	0.2685	0.3754	-0.498
Mof_O 	O 	0.8815	0.9375	0.1079	-0.603
Mof_H 	H 	0.8556	0.979	0.0638	0.169
Mof_H 	H 	0.9072	0.8986	0.1196	0.224
Mof_La	La	0.33091	0.28982	0.03028	2.052
Mof_C 	C 	0.57	0.7783	0.0416	0.329
Mof_C 	C 	0.5197	0.8112	0.0814	-0.119
Mof_C 	C 	0.4863	0.7453	0.1174	0.056
Mof_H 	H 	0.4962	0.6798	0.1233	0.026
Mof_C 	C 	0.4372	0.777	0.1451	-0.145
Mof_H 	H 	0.4141	0.7316	0.1669	0.088
Mof_C 	C 	0.4227	0.8748	0.1405	0.101
Mof_C 	C 	0.4576	0.9393	0.1071	-0.148
Mof_H 	H 	0.4483	0.0053	0.1032	0.081
Mof_C 	C 	0.5063	0.9094	0.0787	0.054
Mof_H 	H 	0.5297	0.9552	0.0581	0.02
Mof_C 	C 	0.3684	0.9054	0.1654	-0.075
Mof_C 	C 	0.3458	0.8595	0.2356	0.042
Mof_H 	H 	0.3665	0.8141	0.2714	0.028
Mof_C 	C 	0.2931	0.8796	0.2537	-0.161
Mof_C 	C 	0.2628	0.948	0.2013	0.087
Mof_H 	H 	0.2272	0.9606	0.2116	0.018
Mof_C 	C 	0.2848	0.9982	0.1334	-0.167
Mof_C 	C 	0.3377	0.9784	0.1164	0.037
Mof_H 	H 	0.3528	0.0136	0.0723	0.011
Mof_C 	C 	0.2499	0.0715	0.0766	0.435
Mof_C 	C 	0.2716	0.8282	0.3315	0.45
Mof_O 	O 	0.58265	0.6885	0.047	-0.42
Mof_O 	O 	0.59742	0.8387	0.0038	-0.437
Mof_O 	O 	0.27297	0.1421	0.0416	-0.584
Mof_O 	O 	0.20008	0.0605	0.066	-0.459
Mof_O 	O 	0.22369	0.85	0.3478	-0.49
Mof_O 	O 	0.30241	0.7685	0.3754	-0.498
Mof_O 	O 	0.3815	0.4375	0.1079	-0.603
Mof_H 	H 	0.3556	0.479	0.0638	0.17
Mof_H 	H 	0.4072	0.3986	0.1196	0.224
_end
