data_functionalizedCrystal
_audit_creation_method	'EQeq! by Chris Wilmer'
_symmetry_space_group_name_H-M	'P1'
_symmetry_Int_Tables_number	1
_symmetry_cell_setting	triclinic
loop_
_symmetry_equiv_pos_as_xyz
  x,y,z
_cell_length_a	12.13
_cell_length_b	12.13
_cell_length_c	30.555
_cell_angle_alpha	90
_cell_angle_beta	90
_cell_angle_gamma	90
loop_
_atom_site_label
_atom_site_type_symbol
_atom_site_fract_x
_atom_site_fract_y
_atom_site_fract_z
_atom_site_charge
Mof_V 	V 	0.5027	0.7694	0.3771	1.781
Mof_V 	V 	0.5656	0.635	0.2721	1.739
Mof_V 	V 	0.408	0.8581	0.488	1.651
Mof_V 	V 	0.7645	0.4859	0.3016	1.781
Mof_V 	V 	0.2389	0.0124	0.4395	1.788
Mof_V 	V 	0.0031	0.7711	0.3634	1.788
Mof_V 	V 	0.3652	0.0609	0.2178	1.74
Mof_V 	V 	0.9114	0.8576	0.2537	1.645
Mof_V 	V 	0.7422	0.0146	0.3	1.78
Mof_V 	V 	0.2596	0.485	0.4406	1.796
Mof_P 	P 	0.5024	0.6063	0.4571	0.607
Mof_P 	P 	0.7526	0.7512	0.3298	0.619
Mof_P 	P 	0.5002	0.8917	0.2834	0.599
Mof_P 	P 	0.2509	0.7512	0.4126	0.609
Mof_P 	P 	0.607	0.9925	0.5358	0.602
Mof_P 	P 	0.7523	0.251	0.2465	0.593
Mof_P 	P 	0.9957	0.8929	0.4568	0.605
Mof_O 	O 	0.5014	0.8617	0.4155	-0.969
Mof_O 	O 	0.503	0.6406	0.3197	-0.968
Mof_O 	O 	0.7443	0.4543	0.3521	-0.866
Mof_O 	O 	0.2558	0.0384	0.3894	-0.962
Mof_O 	O 	0.6197	0.4825	0.2742	-0.727
Mof_O 	O 	0.3724	0.0106	0.4755	-0.744
Mof_O 	O 	0.0038	0.86	0.325	-0.95
Mof_O 	O 	0.3654	0.9998	0.1709	-0.971
Mof_O 	O 	0.2396	0.4538	0.3921	-0.981
Mof_O 	O 	0.7674	0.0479	0.3502	-0.943
Mof_O 	O 	0.5103	0.1277	0.2253	-0.74
Mof_O 	O 	0.8831	0.0152	0.2713	-0.712
Mof_O 	O 	0.5492	0.6373	0.4118	-0.782
Mof_O 	O 	0.5991	0.5526	0.4818	-0.976
Mof_O 	O 	0.46	0.7057	0.4834	-0.871
Mof_O 	O 	0.4124	0.5202	0.4538	-0.608
Mof_O 	O 	0.6577	0.7857	0.3582	-0.829
Mof_O 	O 	0.7202	0.6518	0.2997	-0.758
Mof_O 	O 	0.8502	0.7174	0.3569	-0.797
Mof_O 	O 	0.7824	0.8463	0.2971	-0.768
Mof_O 	O 	0.4483	0.8552	0.3266	-0.831
Mof_O 	O 	0.5518	0.7937	0.26	-0.801
Mof_O 	O 	0.4058	0.9358	0.2547	-1.004
Mof_O 	O 	0.5881	0.9826	0.2912	-0.622
Mof_O 	O 	0.3474	0.7137	0.3845	-0.801
Mof_O 	O 	0.2838	0.8487	0.4432	-0.777
Mof_O 	O 	0.1567	0.7945	0.3852	-0.812
Mof_O 	O 	0.2152	0.6506	0.4407	-0.763
Mof_O 	O 	0.56	0.9003	0.5071	-0.914
Mof_O 	O 	0.5172	0.0814	0.5438	-0.623
Mof_O 	O 	0.6476	0.9414	0.5786	-0.778
Mof_O 	O 	0.7035	0.0408	0.5109	-0.85
Mof_O 	O 	0.8	0.3412	0.2774	-0.54
Mof_O 	O 	0.8445	0.203	0.2198	-0.556
Mof_O 	O 	0.6544	0.2999	0.2217	-0.544
Mof_O 	O 	0.7071	0.1607	0.278	-0.541
Mof_O 	O 	0.0865	0.9791	0.455	-0.619
Mof_O 	O 	0.948	0.8651	0.4118	-0.766
Mof_O 	O 	0.0376	0.7931	0.483	-0.867
Mof_O 	O 	0.8996	0.9443	0.4829	-0.932
Mof_K 	K 	0.4105	0.7751	0.1803	2.569
Mof_K 	K 	0.4392	0.2905	0.0672	2.478
Mof_K 	K 	0.0728	0.2298	0.0619	2.67
Mof_K 	K 	0.0463	0.7096	0.174	2.434
Mof_V 	V 	0.4973	0.2306	0.8771	1.78
Mof_V 	V 	0.4344	0.365	0.7721	1.738
Mof_V 	V 	0.592	0.1419	0.988	1.649
Mof_V 	V 	0.2355	0.5141	0.8016	1.781
Mof_V 	V 	0.7611	0.9876	0.9395	1.788
Mof_V 	V 	0.9969	0.2289	0.8634	1.788
Mof_V 	V 	0.6348	0.9391	0.7178	1.74
Mof_V 	V 	0.0886	0.1424	0.7537	1.645
Mof_V 	V 	0.2578	0.9854	0.8	1.78
Mof_V 	V 	0.7404	0.515	0.9406	1.796
Mof_P 	P 	0.4976	0.3937	0.9571	0.607
Mof_P 	P 	0.2474	0.2488	0.8298	0.619
Mof_P 	P 	0.4998	0.1083	0.7834	0.599
Mof_P 	P 	0.7491	0.2488	0.9126	0.609
Mof_P 	P 	0.393	0.0075	0.0358	0.602
Mof_P 	P 	0.2477	0.749	0.7465	0.593
Mof_P 	P 	0.0043	0.1071	0.9568	0.607
Mof_O 	O 	0.4986	0.1383	0.9155	-0.969
Mof_O 	O 	0.497	0.3594	0.8197	-0.968
Mof_O 	O 	0.2557	0.5457	0.8521	-0.865
Mof_O 	O 	0.7442	0.9616	0.8894	-0.962
Mof_O 	O 	0.3803	0.5175	0.7742	-0.727
Mof_O 	O 	0.6276	0.9894	0.9755	-0.747
Mof_O 	O 	0.9962	0.14	0.825	-0.95
Mof_O 	O 	0.6346	0.0002	0.6709	-0.97
Mof_O 	O 	0.7604	0.5462	0.8921	-0.981
Mof_O 	O 	0.2326	0.9521	0.8502	-0.943
Mof_O 	O 	0.4897	0.8723	0.7253	-0.74
Mof_O 	O 	0.1169	0.9848	0.7713	-0.712
Mof_O 	O 	0.4508	0.3627	0.9118	-0.781
Mof_O 	O 	0.4009	0.4474	0.9818	-0.978
Mof_O 	O 	0.54	0.2943	0.9834	-0.873
Mof_O 	O 	0.5876	0.4798	0.9538	-0.609
Mof_O 	O 	0.3423	0.2143	0.8582	-0.829
Mof_O 	O 	0.2798	0.3482	0.7997	-0.758
Mof_O 	O 	0.1498	0.2826	0.8569	-0.797
Mof_O 	O 	0.2176	0.1537	0.7971	-0.768
Mof_O 	O 	0.5517	0.1448	0.8266	-0.831
Mof_O 	O 	0.4482	0.2063	0.76	-0.801
Mof_O 	O 	0.5942	0.0642	0.7547	-1.004
Mof_O 	O 	0.4119	0.0174	0.7912	-0.622
Mof_O 	O 	0.6526	0.2863	0.8845	-0.801
Mof_O 	O 	0.7162	0.1513	0.9432	-0.777
Mof_O 	O 	0.8433	0.2055	0.8852	-0.812
Mof_O 	O 	0.7848	0.3494	0.9407	-0.764
Mof_O 	O 	0.44	0.0997	0.0071	-0.912
Mof_O 	O 	0.4828	0.9186	0.0438	-0.622
Mof_O 	O 	0.3524	0.0586	0.0786	-0.779
Mof_O 	O 	0.2965	0.9592	0.0109	-0.849
Mof_O 	O 	0.2	0.6588	0.7774	-0.54
Mof_O 	O 	0.1555	0.797	0.7198	-0.557
Mof_O 	O 	0.3456	0.7001	0.7217	-0.544
Mof_O 	O 	0.2929	0.8393	0.778	-0.542
Mof_O 	O 	0.9135	0.0209	0.955	-0.62
Mof_O 	O 	0.052	0.1349	0.9118	-0.766
Mof_O 	O 	0.9624	0.2069	0.983	-0.87
Mof_O 	O 	0.1004	0.0557	0.9829	-0.933
Mof_K 	K 	0.5895	0.2249	0.6803	2.568
Mof_K 	K 	0.5608	0.7095	0.5672	2.471
Mof_K 	K 	0.9272	0.7702	0.5619	2.667
Mof_K 	K 	0.9537	0.2904	0.674	2.436
Mof_V 	V 	0.2306	0.5027	0.1271	1.78
Mof_V 	V 	0.365	0.5656	0.0221	1.738
Mof_V 	V 	0.1419	0.408	0.238	1.65
Mof_V 	V 	0.5141	0.7645	0.0516	1.781
Mof_V 	V 	0.9876	0.2389	0.1895	1.789
Mof_V 	V 	0.2289	0.0031	0.1134	1.788
Mof_V 	V 	0.9391	0.3652	0.9678	1.739
Mof_V 	V 	0.1424	0.9114	0.0037	1.645
Mof_V 	V 	0.9854	0.7422	0.05	1.781
Mof_V 	V 	0.515	0.2596	0.1906	1.796
Mof_P 	P 	0.3937	0.5024	0.2071	0.607
Mof_P 	P 	0.2488	0.7526	0.0798	0.619
Mof_P 	P 	0.1083	0.5002	0.0334	0.599
Mof_P 	P 	0.2488	0.2509	0.1626	0.609
Mof_P 	P 	0.0075	0.607	0.2858	0.601
Mof_P 	P 	0.749	0.7523	0.9965	0.587
Mof_P 	P 	0.1071	0.9957	0.2068	0.605
Mof_O 	O 	0.1383	0.5014	0.1655	-0.969
Mof_O 	O 	0.3594	0.503	0.0697	-0.969
Mof_O 	O 	0.5457	0.7443	0.1021	-0.866
Mof_O 	O 	0.9616	0.2558	0.1394	-0.961
Mof_O 	O 	0.5175	0.6197	0.0242	-0.725
Mof_O 	O 	0.9894	0.3724	0.2255	-0.744
Mof_O 	O 	0.14	0.0038	0.075	-0.95
Mof_O 	O 	0.0002	0.3654	0.9209	-0.969
Mof_O 	O 	0.5462	0.2396	0.1421	-0.981
Mof_O 	O 	0.9521	0.7674	0.1002	-0.942
Mof_O 	O 	0.8723	0.5103	0.9753	-0.742
Mof_O 	O 	0.9848	0.8831	0.0213	-0.709
Mof_O 	O 	0.3627	0.5492	0.1618	-0.782
Mof_O 	O 	0.4474	0.5991	0.2318	-0.977
Mof_O 	O 	0.2943	0.46	0.2334	-0.871
Mof_O 	O 	0.4798	0.4124	0.2038	-0.608
Mof_O 	O 	0.2143	0.6577	0.1082	-0.829
Mof_O 	O 	0.3482	0.7202	0.0497	-0.758
Mof_O 	O 	0.2826	0.8502	0.1069	-0.797
Mof_O 	O 	0.1537	0.7824	0.0471	-0.768
Mof_O 	O 	0.1448	0.4483	0.0766	-0.832
Mof_O 	O 	0.2063	0.5518	0.01	-0.8
Mof_O 	O 	0.0642	0.4058	0.0047	-1.003
Mof_O 	O 	0.0174	0.5881	0.0412	-0.622
Mof_O 	O 	0.2863	0.3474	0.1345	-0.802
Mof_O 	O 	0.1513	0.2838	0.1932	-0.777
Mof_O 	O 	0.2055	0.1567	0.1352	-0.812
Mof_O 	O 	0.3494	0.2152	0.1907	-0.763
Mof_O 	O 	0.0997	0.56	0.2571	-0.914
Mof_O 	O 	0.9186	0.5172	0.2938	-0.623
Mof_O 	O 	0.0586	0.6476	0.3286	-0.778
Mof_O 	O 	0.9592	0.7035	0.2609	-0.849
Mof_O 	O 	0.6588	0.8	0.0274	-0.536
Mof_O 	O 	0.797	0.8445	0.9698	-0.557
Mof_O 	O 	0.7001	0.6544	0.9717	-0.545
Mof_O 	O 	0.8393	0.7071	0.028	-0.538
Mof_O 	O 	0.0209	0.0865	0.205	-0.619
Mof_O 	O 	0.1349	0.948	0.1618	-0.766
Mof_O 	O 	0.2069	0.0376	0.233	-0.867
Mof_O 	O 	0.0557	0.8996	0.2329	-0.932
Mof_K 	K 	0.2249	0.4105	0.9303	2.563
Mof_K 	K 	0.7095	0.4392	0.8172	2.47
Mof_K 	K 	0.7702	0.0728	0.8119	2.668
Mof_K 	K 	0.2904	0.0463	0.924	2.434
Mof_V 	V 	0.7694	0.4973	0.6271	1.78
Mof_V 	V 	0.635	0.4344	0.5221	1.738
Mof_V 	V 	0.8581	0.592	0.738	1.65
Mof_V 	V 	0.4859	0.2355	0.5516	1.781
Mof_V 	V 	0.0124	0.7611	0.6895	1.789
Mof_V 	V 	0.7711	0.9969	0.6134	1.788
Mof_V 	V 	0.0609	0.6348	0.4678	1.74
Mof_V 	V 	0.8576	0.0886	0.5037	1.645
Mof_V 	V 	0.0146	0.2578	0.55	1.78
Mof_V 	V 	0.485	0.7404	0.6906	1.796
Mof_P 	P 	0.6063	0.4976	0.7071	0.607
Mof_P 	P 	0.7512	0.2474	0.5798	0.619
Mof_P 	P 	0.8917	0.4998	0.5334	0.599
Mof_P 	P 	0.7512	0.7491	0.6626	0.609
Mof_P 	P 	0.9925	0.393	0.7858	0.601
Mof_P 	P 	0.251	0.2477	0.4965	0.593
Mof_P 	P 	0.8929	0.0043	0.7068	0.606
Mof_O 	O 	0.8617	0.4986	0.6655	-0.969
Mof_O 	O 	0.6406	0.497	0.5697	-0.968
Mof_O 	O 	0.4543	0.2557	0.6021	-0.866
Mof_O 	O 	0.0384	0.7442	0.6394	-0.962
Mof_O 	O 	0.4825	0.3803	0.5242	-0.727
Mof_O 	O 	0.0106	0.6276	0.7255	-0.744
Mof_O 	O 	0.86	0.9962	0.575	-0.949
Mof_O 	O 	0.9998	0.6346	0.4209	-0.97
Mof_O 	O 	0.4538	0.7604	0.6421	-0.981
Mof_O 	O 	0.0479	0.2326	0.6002	-0.943
Mof_O 	O 	0.1277	0.4897	0.4753	-0.74
Mof_O 	O 	0.0152	0.1169	0.5213	-0.712
Mof_O 	O 	0.6373	0.4508	0.6618	-0.782
Mof_O 	O 	0.5526	0.4009	0.7318	-0.976
Mof_O 	O 	0.7057	0.54	0.7334	-0.871
Mof_O 	O 	0.5202	0.5876	0.7038	-0.608
Mof_O 	O 	0.7857	0.3423	0.6082	-0.829
Mof_O 	O 	0.6518	0.2798	0.5497	-0.758
Mof_O 	O 	0.7174	0.1498	0.6069	-0.797
Mof_O 	O 	0.8463	0.2176	0.5471	-0.768
Mof_O 	O 	0.8552	0.5517	0.5766	-0.831
Mof_O 	O 	0.7937	0.4482	0.51	-0.801
Mof_O 	O 	0.9358	0.5942	0.5047	-1.004
Mof_O 	O 	0.9826	0.4119	0.5412	-0.622
Mof_O 	O 	0.7137	0.6526	0.6345	-0.801
Mof_O 	O 	0.8487	0.7162	0.6932	-0.777
Mof_O 	O 	0.7945	0.8433	0.6352	-0.812
Mof_O 	O 	0.6506	0.7848	0.6907	-0.763
Mof_O 	O 	0.9003	0.44	0.7571	-0.914
Mof_O 	O 	0.0814	0.4828	0.7938	-0.623
Mof_O 	O 	0.9414	0.3524	0.8286	-0.779
Mof_O 	O 	0.0408	0.2965	0.7609	-0.849
Mof_O 	O 	0.3412	0.2	0.5274	-0.54
Mof_O 	O 	0.203	0.1555	0.4698	-0.557
Mof_O 	O 	0.2999	0.3456	0.4717	-0.544
Mof_O 	O 	0.1607	0.2929	0.528	-0.541
Mof_O 	O 	0.9791	0.9135	0.705	-0.619
Mof_O 	O 	0.8651	0.052	0.6618	-0.766
Mof_O 	O 	0.7931	0.9624	0.733	-0.867
Mof_O 	O 	0.9443	0.1004	0.7329	-0.932
Mof_K 	K 	0.7751	0.5895	0.4303	2.568
Mof_K 	K 	0.2905	0.5608	0.3172	2.471
Mof_K 	K 	0.2298	0.9272	0.3119	2.667
Mof_K 	K 	0.7096	0.9537	0.424	2.437
_end
