data_functionalizedCrystal
_audit_creation_method	'EQeq! by Chris Wilmer'
_symmetry_space_group_name_H-M	'P1'
_symmetry_Int_Tables_number	1
_symmetry_cell_setting	triclinic
loop_
_symmetry_equiv_pos_as_xyz
  x,y,z
_cell_length_a	26.1577
_cell_length_b	26.1577
_cell_length_c	6.8671
_cell_angle_alpha	90
_cell_angle_beta	90
_cell_angle_gamma	120
loop_
_atom_site_label
_atom_site_type_symbol
_atom_site_fract_x
_atom_site_fract_y
_atom_site_fract_z
_atom_site_charge
Mof_Fe	Fe	0.38289	0.35225	0.1428	0.805
Mof_O 	O 	0.32676	0.2945	0.3667	-0.441
Mof_O 	O 	0.30187	0.22741	0.6	-0.383
Mof_O 	O 	0.35501	0.27326	0.0093	-0.408
Mof_C 	C 	0.31893	0.24522	0.4273	0.388
Mof_C 	C 	0.32803	0.20589	0.2857	-0.157
Mof_C 	C 	0.34464	0.22113	0.0933	0.202
Mof_C 	C 	0.35214	0.18326	0.9738	-0.083
Mof_H 	H 	0.36023	0.19266	0.8296	0.076
Mof_Fe	Fe	0.04956	0.68558	0.47613	0.805
Mof_O 	O 	0.99343	0.62783	0.70003	-0.441
Mof_O 	O 	0.96854	0.56074	0.93333	-0.383
Mof_O 	O 	0.02168	0.60659	0.34263	-0.408
Mof_C 	C 	0.9856	0.57855	0.76063	0.389
Mof_C 	C 	0.9947	0.53922	0.61903	-0.157
Mof_C 	C 	0.01131	0.55446	0.42663	0.202
Mof_C 	C 	0.01881	0.51659	0.30713	-0.083
Mof_H 	H 	0.0269	0.52599	0.16293	0.076
Mof_Fe	Fe	0.71622	0.01892	0.80947	0.806
Mof_O 	O 	0.66009	0.96117	0.03337	-0.441
Mof_O 	O 	0.6352	0.89408	0.26667	-0.383
Mof_O 	O 	0.68834	0.93993	0.67597	-0.408
Mof_C 	C 	0.65226	0.91189	0.09397	0.389
Mof_C 	C 	0.66136	0.87256	0.95237	-0.158
Mof_C 	C 	0.67797	0.8878	0.75997	0.202
Mof_C 	C 	0.68547	0.84993	0.64047	-0.083
Mof_H 	H 	0.69356	0.85933	0.49627	0.076
Mof_Fe	Fe	0.64775	0.03064	0.1428	0.805
Mof_O 	O 	0.7055	0.03226	0.3667	-0.441
Mof_O 	O 	0.77259	0.07446	0.6	-0.383
Mof_O 	O 	0.72674	0.08175	0.0093	-0.408
Mof_C 	C 	0.75478	0.07371	0.4273	0.388
Mof_C 	C 	0.79411	0.12214	0.2857	-0.157
Mof_C 	C 	0.77887	0.12351	0.0933	0.202
Mof_C 	C 	0.81674	0.16888	0.9738	-0.082
Mof_H 	H 	0.80734	0.16757	0.8296	0.076
Mof_Fe	Fe	0.31442	0.36397	0.47613	0.805
Mof_O 	O 	0.37217	0.36559	0.70003	-0.441
Mof_O 	O 	0.43926	0.40779	0.93333	-0.383
Mof_O 	O 	0.39341	0.41508	0.34263	-0.408
Mof_C 	C 	0.42145	0.40704	0.76063	0.389
Mof_C 	C 	0.46078	0.45547	0.61903	-0.157
Mof_C 	C 	0.44554	0.45684	0.42663	0.202
Mof_C 	C 	0.48341	0.50221	0.30713	-0.083
Mof_H 	H 	0.47401	0.5009	0.16293	0.076
Mof_Fe	Fe	0.98108	0.69731	0.80947	0.806
Mof_O 	O 	0.03883	0.69893	0.03337	-0.441
Mof_O 	O 	0.10592	0.74113	0.26667	-0.383
Mof_O 	O 	0.06007	0.74842	0.67597	-0.408
Mof_C 	C 	0.08811	0.74038	0.09397	0.389
Mof_C 	C 	0.12744	0.78881	0.95237	-0.158
Mof_C 	C 	0.1122	0.79018	0.75997	0.203
Mof_C 	C 	0.15007	0.83555	0.64047	-0.083
Mof_H 	H 	0.14067	0.83424	0.49627	0.076
Mof_Fe	Fe	0.96936	0.61711	0.1428	0.805
Mof_O 	O 	0.96774	0.67324	0.3667	-0.441
Mof_O 	O 	0.92554	0.69813	0.6	-0.383
Mof_O 	O 	0.91825	0.64499	0.0093	-0.408
Mof_C 	C 	0.92629	0.68107	0.4273	0.389
Mof_C 	C 	0.87786	0.67197	0.2857	-0.157
Mof_C 	C 	0.87649	0.65536	0.0933	0.202
Mof_C 	C 	0.83112	0.64786	0.9738	-0.083
Mof_H 	H 	0.83243	0.63977	0.8296	0.076
Mof_Fe	Fe	0.63603	0.95044	0.47613	0.805
Mof_O 	O 	0.63441	0.00657	0.70003	-0.441
Mof_O 	O 	0.59221	0.03146	0.93333	-0.383
Mof_O 	O 	0.58492	0.97832	0.34263	-0.408
Mof_C 	C 	0.59296	0.0144	0.76063	0.389
Mof_C 	C 	0.54453	0.0053	0.61903	-0.157
Mof_C 	C 	0.54316	0.98869	0.42663	0.202
Mof_C 	C 	0.49779	0.98119	0.30713	-0.083
Mof_H 	H 	0.4991	0.9731	0.16293	0.076
Mof_Fe	Fe	0.30269	0.28378	0.80947	0.805
Mof_O 	O 	0.30107	0.33991	0.03337	-0.441
Mof_O 	O 	0.25887	0.3648	0.26667	-0.383
Mof_O 	O 	0.25158	0.31166	0.67597	-0.408
Mof_C 	C 	0.25962	0.34774	0.09397	0.389
Mof_C 	C 	0.21119	0.33864	0.95237	-0.157
Mof_C 	C 	0.20982	0.32203	0.75997	0.202
Mof_C 	C 	0.16445	0.31453	0.64047	-0.083
Mof_H 	H 	0.16576	0.30644	0.49627	0.076
Mof_Fe	Fe	0.61711	0.64775	0.8572	0.805
Mof_O 	O 	0.67324	0.7055	0.6333	-0.441
Mof_O 	O 	0.69813	0.77259	0.4	-0.383
Mof_O 	O 	0.64499	0.72674	0.9907	-0.408
Mof_C 	C 	0.68107	0.75478	0.5727	0.388
Mof_C 	C 	0.67197	0.79411	0.7143	-0.157
Mof_C 	C 	0.65536	0.77887	0.9067	0.202
Mof_C 	C 	0.64786	0.81674	0.0262	-0.083
Mof_H 	H 	0.63977	0.80734	0.1704	0.076
Mof_Fe	Fe	0.28378	0.98108	0.19053	0.806
Mof_O 	O 	0.33991	0.03883	0.96663	-0.441
Mof_O 	O 	0.3648	0.10592	0.73333	-0.383
Mof_O 	O 	0.31166	0.06007	0.32403	-0.408
Mof_C 	C 	0.34774	0.08811	0.90603	0.389
Mof_C 	C 	0.33864	0.12744	0.04763	-0.158
Mof_C 	C 	0.32203	0.1122	0.24003	0.202
Mof_C 	C 	0.31453	0.15007	0.35953	-0.083
Mof_H 	H 	0.30644	0.14067	0.50373	0.076
Mof_Fe	Fe	0.95044	0.31442	0.52387	0.805
Mof_O 	O 	0.00657	0.37217	0.29997	-0.441
Mof_O 	O 	0.03146	0.43926	0.06667	-0.383
Mof_O 	O 	0.97832	0.39341	0.65737	-0.408
Mof_C 	C 	0.0144	0.42145	0.23937	0.389
Mof_C 	C 	0.0053	0.46078	0.38097	-0.157
Mof_C 	C 	0.98869	0.44554	0.57337	0.202
Mof_C 	C 	0.98119	0.48341	0.69287	-0.083
Mof_H 	H 	0.9731	0.47401	0.83707	0.076
Mof_Fe	Fe	0.35225	0.96936	0.8572	0.805
Mof_O 	O 	0.2945	0.96774	0.6333	-0.441
Mof_O 	O 	0.22741	0.92554	0.4	-0.383
Mof_O 	O 	0.27326	0.91825	0.9907	-0.408
Mof_C 	C 	0.24522	0.92629	0.5727	0.388
Mof_C 	C 	0.20589	0.87786	0.7143	-0.157
Mof_C 	C 	0.22113	0.87649	0.9067	0.202
Mof_C 	C 	0.18326	0.83112	0.0262	-0.082
Mof_H 	H 	0.19266	0.83243	0.1704	0.076
Mof_Fe	Fe	0.01892	0.30269	0.19053	0.806
Mof_O 	O 	0.96117	0.30107	0.96663	-0.441
Mof_O 	O 	0.89408	0.25887	0.73333	-0.383
Mof_O 	O 	0.93993	0.25158	0.32403	-0.408
Mof_C 	C 	0.91189	0.25962	0.90603	0.389
Mof_C 	C 	0.87256	0.21119	0.04763	-0.158
Mof_C 	C 	0.8878	0.20982	0.24003	0.203
Mof_C 	C 	0.84993	0.16445	0.35953	-0.083
Mof_H 	H 	0.85933	0.16576	0.50373	0.076
Mof_Fe	Fe	0.68558	0.63603	0.52387	0.805
Mof_O 	O 	0.62783	0.63441	0.29997	-0.441
Mof_O 	O 	0.56074	0.59221	0.06667	-0.383
Mof_O 	O 	0.60659	0.58492	0.65737	-0.408
Mof_C 	C 	0.57855	0.59296	0.23937	0.389
Mof_C 	C 	0.53922	0.54453	0.38097	-0.157
Mof_C 	C 	0.55446	0.54316	0.57337	0.202
Mof_C 	C 	0.51659	0.49779	0.69287	-0.083
Mof_H 	H 	0.52599	0.4991	0.83707	0.076
Mof_Fe	Fe	0.03064	0.38289	0.8572	0.805
Mof_O 	O 	0.03226	0.32676	0.6333	-0.441
Mof_O 	O 	0.07446	0.30187	0.4	-0.383
Mof_O 	O 	0.08175	0.35501	0.9907	-0.408
Mof_C 	C 	0.07371	0.31893	0.5727	0.389
Mof_C 	C 	0.12214	0.32803	0.7143	-0.157
Mof_C 	C 	0.12351	0.34464	0.9067	0.202
Mof_C 	C 	0.16888	0.35214	0.0262	-0.083
Mof_H 	H 	0.16757	0.36023	0.1704	0.076
Mof_Fe	Fe	0.69731	0.71622	0.19053	0.805
Mof_O 	O 	0.69893	0.66009	0.96663	-0.441
Mof_O 	O 	0.74113	0.6352	0.73333	-0.383
Mof_O 	O 	0.74842	0.68834	0.32403	-0.408
Mof_C 	C 	0.74038	0.65226	0.90603	0.389
Mof_C 	C 	0.78881	0.66136	0.04763	-0.157
Mof_C 	C 	0.79018	0.67797	0.24003	0.202
Mof_C 	C 	0.83555	0.68547	0.35953	-0.083
Mof_H 	H 	0.83424	0.69356	0.50373	0.076
Mof_Fe	Fe	0.36397	0.04956	0.52387	0.805
Mof_O 	O 	0.36559	0.99343	0.29997	-0.441
Mof_O 	O 	0.40779	0.96854	0.06667	-0.383
Mof_O 	O 	0.41508	0.02168	0.65737	-0.408
Mof_C 	C 	0.40704	0.9856	0.23937	0.389
Mof_C 	C 	0.45547	0.9947	0.38097	-0.157
Mof_C 	C 	0.45684	0.01131	0.57337	0.202
Mof_C 	C 	0.50221	0.01881	0.69287	-0.083
Mof_H 	H 	0.5009	0.0269	0.83707	0.076
_end
