# CIF file generated by openbabel 3.1.0, see https://openbabel.org
data_I
_chemical_name_common 'image0'
_cell_length_a 26.211
_cell_length_b 13.5295
_cell_length_c 6.7481
_cell_angle_alpha 90
_cell_angle_beta 92.294
_cell_angle_gamma 90
_space_group_name_H-M_alt 'P 1'
_space_group_name_Hall 'P 1'
loop_
    _symmetry_equiv_pos_as_xyz
    x,y,z
loop_
    _atom_site_label
    _atom_site_type_symbol
    _atom_site_fract_x
    _atom_site_fract_y
    _atom_site_fract_z
    _atom_site_occupancy
    Ce1      Ce       0.10348    0.19284    0.50963    1.000
    N1       N        0.29573    0.86900    0.40880    1.000
    O1       O        0.31348    0.22089    0.42510    1.000
    O2       O        0.37924    0.12650    0.50870    1.000
    O3       O        0.13721    0.04084    0.40180    1.000
    O4       O        0.14023    0.88475    0.30450    1.000
    O5       O        0.01627    0.26100    0.42280    1.000
    O6       O        0.04463    0.13920    0.20700    1.000
    C1       C        0.16117    0.96420    0.36240    1.000
    C2       C        0.21857    0.96490    0.38710    1.000
    C3       C        0.24475    0.87540    0.38460    1.000
    H1       H        0.22610    0.81740    0.36540    1.000
    C4       C        0.32221    0.95320    0.43320    1.000
    H2       H        0.35750    0.94930    0.45060    1.000
    C5       C        0.29941    0.04640    0.43380    1.000
    C6       C        0.24661    0.05240    0.41090    1.000
    H3       H        0.23020    0.11330    0.41140    1.000
    C7       C        0.33233    0.13720    0.45720    1.000
    Ce2      Ce       0.60348    0.69284    0.50963    1.000
    N2       N        0.79573    0.36900    0.40880    1.000
    O7       O        0.81348    0.72089    0.42510    1.000
    O8       O        0.87924    0.62650    0.50870    1.000
    O9       O        0.63721    0.54084    0.40180    1.000
    O10      O        0.64023    0.38475    0.30450    1.000
    O11      O        0.51627    0.76100    0.42280    1.000
    O12      O        0.54463    0.63920    0.20700    1.000
    C8       C        0.66117    0.46420    0.36240    1.000
    C9       C        0.71857    0.46490    0.38710    1.000
    C10      C        0.74475    0.37540    0.38460    1.000
    H4       H        0.72610    0.31740    0.36540    1.000
    C11      C        0.82221    0.45320    0.43320    1.000
    H5       H        0.85750    0.44930    0.45060    1.000
    C12      C        0.79941    0.54640    0.43380    1.000
    C13      C        0.74661    0.55240    0.41090    1.000
    H6       H        0.73020    0.61330    0.41140    1.000
    C14      C        0.83233    0.63720    0.45720    1.000
    Ce3      Ce       0.89652    0.19284    0.99037    1.000
    N3       N        0.70427    0.86900    0.09120    1.000
    O13      O        0.68652    0.22089    0.07490    1.000
    O14      O        0.62076    0.12650    0.99130    1.000
    O15      O        0.86279    0.04084    0.09820    1.000
    O16      O        0.85977    0.88475    0.19550    1.000
    O17      O        0.98373    0.26100    0.07720    1.000
    O18      O        0.95537    0.13920    0.29300    1.000
    C15      C        0.83883    0.96420    0.13760    1.000
    C16      C        0.78143    0.96490    0.11290    1.000
    C17      C        0.75525    0.87540    0.11540    1.000
    H7       H        0.77390    0.81740    0.13460    1.000
    C18      C        0.67779    0.95320    0.06680    1.000
    H8       H        0.64250    0.94930    0.04940    1.000
    C19      C        0.70059    0.04640    0.06620    1.000
    C20      C        0.75339    0.05240    0.08910    1.000
    H9       H        0.76980    0.11330    0.08860    1.000
    C21      C        0.66767    0.13720    0.04280    1.000
    Ce4      Ce       0.39652    0.69284    0.99037    1.000
    N4       N        0.20427    0.36900    0.09120    1.000
    O19      O        0.18652    0.72089    0.07490    1.000
    O20      O        0.12076    0.62650    0.99130    1.000
    O21      O        0.36279    0.54084    0.09820    1.000
    O22      O        0.35977    0.38475    0.19550    1.000
    O23      O        0.48373    0.76100    0.07720    1.000
    O24      O        0.45537    0.63920    0.29300    1.000
    C22      C        0.33883    0.46420    0.13760    1.000
    C23      C        0.28143    0.46490    0.11290    1.000
    C24      C        0.25525    0.37540    0.11540    1.000
    H10      H        0.27390    0.31740    0.13460    1.000
    C25      C        0.17779    0.45320    0.06680    1.000
    H11      H        0.14250    0.44930    0.04940    1.000
    C26      C        0.20059    0.54640    0.06620    1.000
    C27      C        0.25339    0.55240    0.08910    1.000
    H12      H        0.26980    0.61330    0.08860    1.000
    C28      C        0.16767    0.63720    0.04280    1.000
    Ce5      Ce       0.89652    0.80716    0.49037    1.000
    N5       N        0.70427    0.13100    0.59120    1.000
    O25      O        0.68652    0.77911    0.57490    1.000
    O26      O        0.62076    0.87350    0.49130    1.000
    O27      O        0.86279    0.95916    0.59820    1.000
    O28      O        0.85977    0.11525    0.69550    1.000
    O29      O        0.98373    0.73900    0.57720    1.000
    O30      O        0.95537    0.86080    0.79300    1.000
    C29      C        0.83883    0.03580    0.63760    1.000
    C30      C        0.78143    0.03510    0.61290    1.000
    C31      C        0.75525    0.12460    0.61540    1.000
    H13      H        0.77390    0.18260    0.63460    1.000
    C32      C        0.67779    0.04680    0.56680    1.000
    H14      H        0.64250    0.05070    0.54940    1.000
    C33      C        0.70059    0.95360    0.56620    1.000
    C34      C        0.75339    0.94760    0.58910    1.000
    H15      H        0.76980    0.88670    0.58860    1.000
    C35      C        0.66767    0.86280    0.54280    1.000
    Ce6      Ce       0.39652    0.30716    0.49037    1.000
    N6       N        0.20427    0.63100    0.59120    1.000
    O31      O        0.18652    0.27911    0.57490    1.000
    O32      O        0.12076    0.37350    0.49130    1.000
    O33      O        0.36279    0.45916    0.59820    1.000
    O34      O        0.35977    0.61525    0.69550    1.000
    O35      O        0.48373    0.23900    0.57720    1.000
    O36      O        0.45537    0.36080    0.79300    1.000
    C36      C        0.33883    0.53580    0.63760    1.000
    C37      C        0.28143    0.53510    0.61290    1.000
    C38      C        0.25525    0.62460    0.61540    1.000
    H16      H        0.27390    0.68260    0.63460    1.000
    C39      C        0.17779    0.54680    0.56680    1.000
    H17      H        0.14250    0.55070    0.54940    1.000
    C40      C        0.20059    0.45360    0.56620    1.000
    C41      C        0.25339    0.44760    0.58910    1.000
    H18      H        0.26980    0.38670    0.58860    1.000
    C42      C        0.16767    0.36280    0.54280    1.000
    Ce7      Ce       0.10348    0.80716    0.00963    1.000
    N7       N        0.29573    0.13100    0.90880    1.000
    O37      O        0.31348    0.77911    0.92510    1.000
    O38      O        0.37924    0.87350    0.00870    1.000
    O39      O        0.13721    0.95916    0.90180    1.000
    O40      O        0.14023    0.11525    0.80450    1.000
    O41      O        0.01627    0.73900    0.92280    1.000
    O42      O        0.04463    0.86080    0.70700    1.000
    C43      C        0.16117    0.03580    0.86240    1.000
    C44      C        0.21857    0.03510    0.88710    1.000
    C45      C        0.24475    0.12460    0.88460    1.000
    H19      H        0.22610    0.18260    0.86540    1.000
    C46      C        0.32221    0.04680    0.93320    1.000
    H20      H        0.35750    0.05070    0.95060    1.000
    C47      C        0.29941    0.95360    0.93380    1.000
    C48      C        0.24661    0.94760    0.91090    1.000
    H21      H        0.23020    0.88670    0.91140    1.000
    C49      C        0.33233    0.86280    0.95720    1.000
    Ce8      Ce       0.60348    0.30716    0.00963    1.000
    N8       N        0.79573    0.63100    0.90880    1.000
    O43      O        0.81348    0.27911    0.92510    1.000
    O44      O        0.87924    0.37350    0.00870    1.000
    O45      O        0.63721    0.45916    0.90180    1.000
    O46      O        0.64023    0.61525    0.80450    1.000
    O47      O        0.51627    0.23900    0.92280    1.000
    O48      O        0.54463    0.36080    0.70700    1.000
    C50      C        0.66117    0.53580    0.86240    1.000
    C51      C        0.71857    0.53510    0.88710    1.000
    C52      C        0.74475    0.62460    0.88460    1.000
    H22      H        0.72610    0.68260    0.86540    1.000
    C53      C        0.82221    0.54680    0.93320    1.000
    H23      H        0.85750    0.55070    0.95060    1.000
    C54      C        0.79941    0.45360    0.93380    1.000
    C55      C        0.74661    0.44760    0.91090    1.000
    H24      H        0.73020    0.38670    0.91140    1.000
    C56      C        0.83233    0.36280    0.95720    1.000
    S1       S        0.00000    0.20065    0.25000    1.000
    S2       S        0.50000    0.70065    0.25000    1.000
    S3       S        0.00000    0.79935    0.75000    1.000
    S4       S        0.50000    0.29935    0.75000    1.000
