data_functionalizedCrystal
_audit_creation_method	'EQeq! by Chris Wilmer'
_symmetry_space_group_name_H-M	'P1'
_symmetry_Int_Tables_number	1
_symmetry_cell_setting	triclinic
loop_
_symmetry_equiv_pos_as_xyz
  x,y,z
_cell_length_a	15.4625
_cell_length_b	15.4625
_cell_length_c	20.0474
_cell_angle_alpha	90
_cell_angle_beta	90
_cell_angle_gamma	90
loop_
_atom_site_label
_atom_site_type_symbol
_atom_site_fract_x
_atom_site_fract_y
_atom_site_fract_z
_atom_site_charge
Mof_Co	Co	0.25	0.75	-0	0.966
Mof_Co	Co	0.75	0.25	0.5	1.043
Mof_Co	Co	0.75	0.25	-0	0.966
Mof_Co	Co	0.25	0.75	0.5	1.043
Mof_Co	Co	0.08575	0.91425	-0	0.983
Mof_Co	Co	0.41425	0.58575	-0	0.983
Mof_Co	Co	0.58575	0.08575	0.5	1.062
Mof_Co	Co	0.91425	0.41425	0.5	1.062
Mof_Co	Co	0.91425	0.08575	-0	0.983
Mof_Co	Co	0.58575	0.41425	-0	0.983
Mof_Co	Co	0.41425	0.91425	0.5	1.062
Mof_Co	Co	0.08575	0.58575	0.5	1.061
Mof_H 	H 	0.15307	0.96777	0.74102	0.081
Mof_H 	H 	0.13712	0.95399	0.84833	0.008
Mof_H 	H 	0.2206	0.05342	0.07682	-0.028
Mof_H 	H 	0.35509	0.84075	0.12474	-0.024
Mof_H 	H 	0.34693	0.53223	0.74102	0.09
Mof_H 	H 	0.36288	0.54601	0.84833	0.001
Mof_H 	H 	0.2794	0.44658	0.07682	-0.03
Mof_H 	H 	0.14491	0.65925	0.12474	-0.024
Mof_H 	H 	0.53223	0.15307	0.24102	0.081
Mof_H 	H 	0.54601	0.13712	0.34833	-0.013
Mof_H 	H 	0.44658	0.2206	0.57682	-0.01
Mof_H 	H 	0.65925	0.35509	0.62474	-0.011
Mof_H 	H 	0.96777	0.34693	0.24102	0.08
Mof_H 	H 	0.95399	0.36288	0.34833	-0.012
Mof_H 	H 	0.05342	0.2794	0.57682	-0.007
Mof_H 	H 	0.84075	0.14491	0.62474	-0.012
Mof_H 	H 	0.84693	0.46777	0.75898	0.089
Mof_H 	H 	0.86288	0.45399	0.65167	-0.013
Mof_H 	H 	0.7794	0.55342	0.42318	-0.013
Mof_H 	H 	0.64491	0.34075	0.37526	-0.012
Mof_H 	H 	0.65307	0.03223	0.75898	0.088
Mof_H 	H 	0.63712	0.04601	0.65167	-0.013
Mof_H 	H 	0.7206	0.94658	0.42318	-0.011
Mof_H 	H 	0.85509	0.15925	0.37526	-0.012
Mof_H 	H 	0.46777	0.65307	0.25898	0.082
Mof_H 	H 	0.45399	0.63712	0.15167	-0.021
Mof_H 	H 	0.55342	0.7206	0.92318	0.014
Mof_H 	H 	0.34075	0.85509	0.87526	0.006
Mof_H 	H 	0.03223	0.84693	0.25898	0.074
Mof_H 	H 	0.04601	0.86288	0.15167	-0.015
Mof_H 	H 	0.94658	0.7794	0.92318	0.016
Mof_H 	H 	0.15925	0.64491	0.87526	0.007
Mof_H 	H 	0.84693	0.03223	0.25898	0.074
Mof_H 	H 	0.86288	0.04601	0.15167	-0.015
Mof_H 	H 	0.7794	0.94658	0.92318	0.016
Mof_H 	H 	0.64491	0.15925	0.87526	0.007
Mof_H 	H 	0.65307	0.46777	0.25898	0.082
Mof_H 	H 	0.63712	0.45399	0.15167	-0.021
Mof_H 	H 	0.7206	0.55342	0.92318	0.014
Mof_H 	H 	0.85509	0.34075	0.87526	0.006
Mof_H 	H 	0.46777	0.84693	0.75898	0.089
Mof_H 	H 	0.45399	0.86288	0.65167	-0.013
Mof_H 	H 	0.55342	0.7794	0.42318	-0.013
Mof_H 	H 	0.34075	0.64491	0.37526	-0.012
Mof_H 	H 	0.03223	0.65307	0.75898	0.088
Mof_H 	H 	0.04601	0.63712	0.65167	-0.013
Mof_H 	H 	0.94658	0.7206	0.42318	-0.011
Mof_H 	H 	0.15925	0.85509	0.37526	-0.012
Mof_H 	H 	0.15307	0.53223	0.24102	0.081
Mof_H 	H 	0.13712	0.54601	0.34833	-0.013
Mof_H 	H 	0.2206	0.44658	0.57682	-0.01
Mof_H 	H 	0.35509	0.65925	0.62474	-0.011
Mof_H 	H 	0.34693	0.96777	0.24102	0.08
Mof_H 	H 	0.36288	0.95399	0.34833	-0.012
Mof_H 	H 	0.2794	0.05342	0.57682	-0.007
Mof_H 	H 	0.14491	0.84075	0.62474	-0.012
Mof_H 	H 	0.53223	0.34693	0.74102	0.09
Mof_H 	H 	0.54601	0.36288	0.84833	0.001
Mof_H 	H 	0.44658	0.2794	0.07682	-0.03
Mof_H 	H 	0.65925	0.14491	0.12474	-0.024
Mof_H 	H 	0.96777	0.15307	0.74102	0.081
Mof_H 	H 	0.95399	0.13712	0.84833	0.008
Mof_H 	H 	0.05342	0.2206	0.07682	-0.028
Mof_H 	H 	0.84075	0.35509	0.12474	-0.024
Mof_H 	H 	0.08492	0.08492	0.56794	0.08
Mof_H 	H 	0.41508	0.41508	0.56794	0.081
Mof_H 	H 	0.41508	0.08492	0.06794	0.043
Mof_H 	H 	0.08492	0.41508	0.06794	0.043
Mof_H 	H 	0.91508	0.58492	0.93206	0.121
Mof_H 	H 	0.58492	0.91508	0.93206	0.121
Mof_H 	H 	0.58492	0.58492	0.43206	0.08
Mof_H 	H 	0.91508	0.91508	0.43206	0.079
Mof_C 	C 	0.11891	0.00884	0.71761	-0.162
Mof_C 	C 	0.12843	0.01831	0.64905	0.112
Mof_C 	C 	0.09402	0.99354	0.86283	0.015
Mof_C 	C 	0.1905	0.9655	0.61326	-0.078
Mof_C 	C 	0.23835	0.99478	0.08038	0.011
Mof_C 	C 	0.3122	0.87801	0.10669	0.002
Mof_C 	C 	0.38109	0.49116	0.71761	-0.179
Mof_C 	C 	0.37157	0.48169	0.64905	0.117
Mof_C 	C 	0.40598	0.50646	0.86283	0.038
Mof_C 	C 	0.3095	0.5345	0.61326	-0.078
Mof_C 	C 	0.26165	0.50522	0.08038	0.014
Mof_C 	C 	0.1878	0.62199	0.10669	0.002
Mof_C 	C 	0.49116	0.11891	0.21761	-0.171
Mof_C 	C 	0.48169	0.12843	0.14905	0.095
Mof_C 	C 	0.50646	0.09402	0.36283	0.022
Mof_C 	C 	0.5345	0.1905	0.11326	-0.083
Mof_C 	C 	0.50522	0.23835	0.58038	0.032
Mof_C 	C 	0.62199	0.3122	0.60669	0.02
Mof_C 	C 	0.00884	0.38109	0.21761	-0.168
Mof_C 	C 	0.01831	0.37157	0.14905	0.095
Mof_C 	C 	0.99354	0.40598	0.36283	0.02
Mof_C 	C 	0.9655	0.3095	0.11326	-0.082
Mof_C 	C 	0.99478	0.26165	0.58038	0.027
Mof_C 	C 	0.87801	0.1878	0.60669	0.02
Mof_C 	C 	0.88109	0.50884	0.78239	-0.185
Mof_C 	C 	0.87157	0.51831	0.85095	0.133
Mof_C 	C 	0.90598	0.49354	0.63717	0.027
Mof_C 	C 	0.8095	0.4655	0.88674	-0.071
Mof_C 	C 	0.76165	0.49478	0.41962	0.03
Mof_C 	C 	0.6878	0.37801	0.39331	0.019
Mof_C 	C 	0.61891	0.99116	0.78239	-0.184
Mof_C 	C 	0.62843	0.98169	0.85095	0.132
Mof_C 	C 	0.59402	0.00646	0.63717	0.027
Mof_C 	C 	0.6905	0.0345	0.88674	-0.07
Mof_C 	C 	0.73835	0.00522	0.41962	0.026
Mof_C 	C 	0.8122	0.12199	0.39331	0.019
Mof_C 	C 	0.50884	0.61891	0.28239	-0.179
Mof_C 	C 	0.51831	0.62843	0.35095	0.112
Mof_C 	C 	0.49354	0.59402	0.13717	0.015
Mof_C 	C 	0.4655	0.6905	0.38674	-0.079
Mof_C 	C 	0.49478	0.73835	0.91962	0.05
Mof_C 	C 	0.37801	0.8122	0.89331	0.04
Mof_C 	C 	0.99116	0.88109	0.28239	-0.163
Mof_C 	C 	0.98169	0.87157	0.35095	0.107
Mof_C 	C 	0.00646	0.90598	0.13717	-0.003
Mof_C 	C 	0.0345	0.8095	0.38674	-0.079
Mof_C 	C 	0.00522	0.76165	0.91962	0.045
Mof_C 	C 	0.12199	0.6878	0.89331	0.04
Mof_C 	C 	0.88109	0.99116	0.28239	-0.163
Mof_C 	C 	0.87157	0.98169	0.35095	0.107
Mof_C 	C 	0.90598	0.00646	0.13717	-0.003
Mof_C 	C 	0.8095	0.0345	0.38674	-0.079
Mof_C 	C 	0.76165	0.00522	0.91962	0.045
Mof_C 	C 	0.6878	0.12199	0.89331	0.04
Mof_C 	C 	0.61891	0.50884	0.28239	-0.179
Mof_C 	C 	0.62843	0.51831	0.35095	0.112
Mof_C 	C 	0.59402	0.49354	0.13717	0.015
Mof_C 	C 	0.6905	0.4655	0.38674	-0.079
Mof_C 	C 	0.73835	0.49478	0.91962	0.05
Mof_C 	C 	0.8122	0.37801	0.89331	0.04
Mof_C 	C 	0.50884	0.88109	0.78239	-0.185
Mof_C 	C 	0.51831	0.87157	0.85095	0.133
Mof_C 	C 	0.49354	0.90598	0.63717	0.027
Mof_C 	C 	0.4655	0.8095	0.88674	-0.071
Mof_C 	C 	0.49478	0.76165	0.41962	0.03
Mof_C 	C 	0.37801	0.6878	0.39331	0.019
Mof_C 	C 	0.99116	0.61891	0.78239	-0.184
Mof_C 	C 	0.98169	0.62843	0.85095	0.132
Mof_C 	C 	0.00646	0.59402	0.63717	0.027
Mof_C 	C 	0.0345	0.6905	0.88674	-0.07
Mof_C 	C 	0.00522	0.73835	0.41962	0.026
Mof_C 	C 	0.12199	0.8122	0.39331	0.019
Mof_C 	C 	0.11891	0.49116	0.21761	-0.171
Mof_C 	C 	0.12843	0.48169	0.14905	0.095
Mof_C 	C 	0.09402	0.50646	0.36283	0.022
Mof_C 	C 	0.1905	0.5345	0.11326	-0.083
Mof_C 	C 	0.23835	0.50522	0.58038	0.032
Mof_C 	C 	0.3122	0.62199	0.60669	0.02
Mof_C 	C 	0.38109	0.00884	0.21761	-0.168
Mof_C 	C 	0.37157	0.01831	0.14905	0.095
Mof_C 	C 	0.40598	0.99354	0.36283	0.02
Mof_C 	C 	0.3095	0.9655	0.11326	-0.082
Mof_C 	C 	0.26165	0.99478	0.58038	0.027
Mof_C 	C 	0.1878	0.87801	0.60669	0.02
Mof_C 	C 	0.49116	0.38109	0.71761	-0.179
Mof_C 	C 	0.48169	0.37157	0.64905	0.117
Mof_C 	C 	0.50646	0.40598	0.86283	0.038
Mof_C 	C 	0.5345	0.3095	0.61326	-0.078
Mof_C 	C 	0.50522	0.26165	0.08038	0.014
Mof_C 	C 	0.62199	0.1878	0.10669	0.002
Mof_C 	C 	0.00884	0.11891	0.71761	-0.162
Mof_C 	C 	0.01831	0.12843	0.64905	0.112
Mof_C 	C 	0.99354	0.09402	0.86283	0.015
Mof_C 	C 	0.9655	0.1905	0.61326	-0.078
Mof_C 	C 	0.99478	0.23835	0.08038	0.011
Mof_C 	C 	0.87801	0.3122	0.10669	0.002
Mof_C 	C 	0.05943	0.05943	0.75191	0.104
Mof_C 	C 	0.07843	0.07843	0.6148	-0.176
Mof_C 	C 	0.04953	0.04953	0.82343	-0.043
Mof_C 	C 	0.44057	0.44057	0.75191	0.121
Mof_C 	C 	0.42157	0.42157	0.6148	-0.181
Mof_C 	C 	0.45048	0.45047	0.82343	-0.069
Mof_C 	C 	0.44057	0.05943	0.25191	0.103
Mof_C 	C 	0.42157	0.07843	0.1148	-0.174
Mof_C 	C 	0.45047	0.04953	0.32343	-0.069
Mof_C 	C 	0.05943	0.44057	0.25191	0.103
Mof_C 	C 	0.07843	0.42157	0.1148	-0.174
Mof_C 	C 	0.04953	0.45048	0.32343	-0.069
Mof_C 	C 	0.94057	0.55943	0.74809	0.124
Mof_C 	C 	0.92157	0.57843	0.8852	-0.186
Mof_C 	C 	0.95047	0.54952	0.67657	-0.075
Mof_C 	C 	0.55943	0.94057	0.74809	0.124
Mof_C 	C 	0.57843	0.92157	0.8852	-0.186
Mof_C 	C 	0.54953	0.95048	0.67657	-0.075
Mof_C 	C 	0.55943	0.55943	0.24809	0.109
Mof_C 	C 	0.57843	0.57843	0.3852	-0.18
Mof_C 	C 	0.54952	0.54953	0.17657	-0.077
Mof_C 	C 	0.94057	0.94057	0.24809	0.094
Mof_C 	C 	0.92157	0.92157	0.3852	-0.176
Mof_C 	C 	0.95048	0.95047	0.17657	-0.053
Mof_N 	N 	0.06605	0.00405	0.92663	-0.186
Mof_N 	N 	0.19709	0.92537	0.05348	-0.28
Mof_N 	N 	0.24273	0.8532	0.06975	-0.261
Mof_N 	N 	0.43395	0.49595	0.92663	-0.191
Mof_N 	N 	0.30291	0.57463	0.05348	-0.28
Mof_N 	N 	0.25727	0.6468	0.06975	-0.261
Mof_N 	N 	0.49595	0.06605	0.42663	-0.246
Mof_N 	N 	0.57463	0.19709	0.55348	-0.255
Mof_N 	N 	0.6468	0.24273	0.56975	-0.242
Mof_N 	N 	0.00405	0.43395	0.42663	-0.246
Mof_N 	N 	0.92537	0.30291	0.55348	-0.254
Mof_N 	N 	0.8532	0.25727	0.56975	-0.242
Mof_N 	N 	0.93395	0.50405	0.57337	-0.247
Mof_N 	N 	0.80291	0.42537	0.44652	-0.255
Mof_N 	N 	0.75727	0.3532	0.43025	-0.242
Mof_N 	N 	0.56605	0.99595	0.57337	-0.247
Mof_N 	N 	0.69709	0.07463	0.44652	-0.255
Mof_N 	N 	0.74273	0.1468	0.43025	-0.242
Mof_N 	N 	0.50405	0.56605	0.07337	-0.275
Mof_N 	N 	0.42537	0.69709	0.94652	-0.2
Mof_N 	N 	0.3532	0.74273	0.93025	-0.196
Mof_N 	N 	0.99595	0.93395	0.07337	-0.268
Mof_N 	N 	0.07463	0.80291	0.94652	-0.201
Mof_N 	N 	0.1468	0.75727	0.93025	-0.196
Mof_N 	N 	0.93395	0.99595	0.07337	-0.268
Mof_N 	N 	0.80291	0.07463	0.94652	-0.201
Mof_N 	N 	0.75727	0.1468	0.93025	-0.196
Mof_N 	N 	0.56605	0.50405	0.07337	-0.275
Mof_N 	N 	0.69709	0.42537	0.94652	-0.2
Mof_N 	N 	0.74273	0.3532	0.93025	-0.196
Mof_N 	N 	0.50405	0.93395	0.57337	-0.247
Mof_N 	N 	0.42537	0.80291	0.44652	-0.255
Mof_N 	N 	0.3532	0.75727	0.43025	-0.242
Mof_N 	N 	0.99595	0.56605	0.57337	-0.247
Mof_N 	N 	0.07463	0.69709	0.44652	-0.255
Mof_N 	N 	0.1468	0.74273	0.43025	-0.242
Mof_N 	N 	0.06605	0.49595	0.42663	-0.246
Mof_N 	N 	0.19709	0.57463	0.55348	-0.255
Mof_N 	N 	0.24273	0.6468	0.56975	-0.242
Mof_N 	N 	0.43395	0.00405	0.42663	-0.246
Mof_N 	N 	0.30291	0.92537	0.55348	-0.254
Mof_N 	N 	0.25727	0.8532	0.56975	-0.242
Mof_N 	N 	0.49595	0.43395	0.92663	-0.191
Mof_N 	N 	0.57463	0.30291	0.05348	-0.28
Mof_N 	N 	0.6468	0.25727	0.06975	-0.261
Mof_N 	N 	0.00405	0.06605	0.92663	-0.186
Mof_N 	N 	0.92537	0.19709	0.05348	-0.28
Mof_N 	N 	0.8532	0.24273	0.06975	-0.261
_end
