# CIF file generated by openbabel 3.1.0, see https://openbabel.org
data_I
_chemical_name_common 'AHINIP_clean'
_cell_length_a 10.592
_cell_length_b 13.12
_cell_length_c 22.306
_cell_angle_alpha 90
_cell_angle_beta 90
_cell_angle_gamma 100.813
_space_group_name_H-M_alt 'P 1'
_space_group_name_Hall 'P 1'
loop_
    _symmetry_equiv_pos_as_xyz
    x,y,z
loop_
    _atom_site_label
    _atom_site_type_symbol
    _atom_site_fract_x
    _atom_site_fract_y
    _atom_site_fract_z
    _atom_site_occupancy
    Zn1      Zn       0.77725    0.48448    0.13841    1.000
    Zn2      Zn       0.30466    0.98770    0.07078    1.000
    Zn3      Zn       0.22275    0.51552    0.63841    1.000
    Zn4      Zn       0.69534    0.01230    0.57078    1.000
    H1       H        0.47600    0.70580    0.24080    1.000
    H2       H        0.35830    0.49150    0.36300    1.000
    H3       H        0.20810    0.52060    0.43050    1.000
    H4       H        0.08010    0.61850    0.47370    1.000
    H5       H        0.97720    0.77220    0.47230    1.000
    H6       H        0.10110    0.99240    0.34930    1.000
    H7       H        0.61560    0.62320    0.20800    1.000
    H8       H        0.46580    0.37810    0.31180    1.000
    H9       H        0.63250    0.33200    0.25050    1.000
    H10      H        0.88040    0.89400    0.51430    1.000
    H11      H        0.92140    0.05980    0.37110    1.000
    H12      H        0.76750    0.12340    0.43800    1.000
    H13      H        0.47870    0.16070    0.93780    1.000
    H14      H        0.39720    0.43490    0.97640    1.000
    H15      H        0.24000    0.50960    0.91200    1.000
    H16      H        0.09460    0.48430    0.83610    1.000
    H17      H        0.99160    0.38170    0.74970    1.000
    H18      H        0.06980    0.10330    0.72030    1.000
    H19      H        0.59670    0.46840    0.02460    1.000
    H20      H        0.54250    0.15960    0.04000    1.000
    H21      H        0.68800    0.23870    0.12010    1.000
    H22      H        0.86610    0.06580    0.68470    1.000
    H23      H        0.93770    0.36010    0.63830    1.000
    H24      H        0.78430    0.27130    0.56840    1.000
    H25      H        0.29370    0.25970    0.20520    1.000
    H26      H        0.29630    0.32940    0.09120    1.000
    H27      H        0.38040    0.37600    0.14660    1.000
    H28      H        0.24230    0.48130    0.16430    1.000
    H29      H        0.15560    0.43160    0.11070    1.000
    H30      H        0.05640    0.37330    0.27830    1.000
    H31      H        0.17250    0.45960    0.25890    1.000
    H32      H        0.19230    0.34520    0.26810    1.000
    H33      H        0.99950    0.11220    0.20930    1.000
    H34      H        0.00280    0.20350    0.25490    1.000
    H35      H        0.12220    0.14950    0.24860    1.000
    H36      H        0.94330    0.20960    0.13160    1.000
    H37      H        0.04160    0.13670    0.11880    1.000
    H38      H        0.06330    0.24830    0.09090    1.000
    H39      H        0.85470    0.81660    0.09000    1.000
    H40      H        0.83230    0.76300    0.97220    1.000
    H41      H        0.91310    0.86520    0.00030    1.000
    H42      H        0.75760    0.94340    0.95800    1.000
    H43      H        0.65650    0.83870    0.95610    1.000
    H44      H        0.71180    0.06310    0.05850    1.000
    H45      H        0.82350    0.01480    0.03100    1.000
    H46      H        0.78260    0.99240    0.09800    1.000
    H47      H        0.68260    0.90870    0.15550    1.000
    H48      H        0.68640    0.79240    0.16990    1.000
    H49      H        0.55480    0.82610    0.15660    1.000
    H50      H        0.57420    0.66430    0.06530    1.000
    H51      H        0.50990    0.74030    0.02660    1.000
    H52      H        0.48440    0.73140    0.09580    1.000
    H53      H        0.52400    0.29420    0.74080    1.000
    H54      H        0.64170    0.50850    0.86300    1.000
    H55      H        0.79190    0.47940    0.93050    1.000
    H56      H        0.91990    0.38150    0.97370    1.000
    H57      H        0.02280    0.22780    0.97230    1.000
    H58      H        0.89890    0.00760    0.84930    1.000
    H59      H        0.38440    0.37680    0.70800    1.000
    H60      H        0.53420    0.62190    0.81180    1.000
    H61      H        0.36750    0.66800    0.75050    1.000
    H62      H        0.11960    0.10600    0.01430    1.000
    H63      H        0.07860    0.94020    0.87110    1.000
    H64      H        0.23250    0.87660    0.93800    1.000
    H65      H        0.52130    0.83930    0.43780    1.000
    H66      H        0.60280    0.56510    0.47640    1.000
    H67      H        0.76000    0.49040    0.41200    1.000
    H68      H        0.90540    0.51570    0.33610    1.000
    H69      H        0.00840    0.61830    0.24970    1.000
    H70      H        0.93020    0.89670    0.22030    1.000
    H71      H        0.40330    0.53160    0.52460    1.000
    H72      H        0.45750    0.84040    0.54000    1.000
    H73      H        0.31200    0.76130    0.62010    1.000
    H74      H        0.13390    0.93420    0.18470    1.000
    H75      H        0.06230    0.63990    0.13830    1.000
    H76      H        0.21570    0.72870    0.06840    1.000
    H77      H        0.70630    0.74030    0.70520    1.000
    H78      H        0.70370    0.67060    0.59120    1.000
    H79      H        0.61960    0.62400    0.64660    1.000
    H80      H        0.75770    0.51870    0.66430    1.000
    H81      H        0.84440    0.56840    0.61070    1.000
    H82      H        0.94360    0.62670    0.77830    1.000
    H83      H        0.82750    0.54040    0.75890    1.000
    H84      H        0.80770    0.65480    0.76810    1.000
    H85      H        0.00050    0.88780    0.70930    1.000
    H86      H        0.99720    0.79650    0.75490    1.000
    H87      H        0.87780    0.85050    0.74860    1.000
    H88      H        0.05670    0.79040    0.63160    1.000
    H89      H        0.95840    0.86330    0.61880    1.000
    H90      H        0.93670    0.75170    0.59090    1.000
    H91      H        0.14530    0.18340    0.59000    1.000
    H92      H        0.16770    0.23700    0.47220    1.000
    H93      H        0.08690    0.13480    0.50030    1.000
    H94      H        0.24240    0.05660    0.45800    1.000
    H95      H        0.34350    0.16130    0.45610    1.000
    H96      H        0.28820    0.93690    0.55850    1.000
    H97      H        0.17650    0.98520    0.53100    1.000
    H98      H        0.21740    0.00760    0.59800    1.000
    H99      H        0.31740    0.09130    0.65550    1.000
    H100     H        0.31360    0.20760    0.66990    1.000
    H101     H        0.44520    0.17390    0.65660    1.000
    H102     H        0.42580    0.33570    0.56530    1.000
    H103     H        0.49010    0.25970    0.52660    1.000
    H104     H        0.51560    0.26860    0.59580    1.000
    C1       C        0.42530    0.68450    0.27420    1.000
    C2       C        0.43290    0.58920    0.29880    1.000
    C3       C        0.35660    0.55620    0.34630    1.000
    C4       C        0.27910    0.61520    0.36960    1.000
    C5       C        0.20640    0.58550    0.41420    1.000
    C6       C        0.12600    0.64360    0.43960    1.000
    C7       C        0.11000    0.74150    0.41550    1.000
    C8       C        0.02810    0.79630    0.43940    1.000
    C9       C        0.02270    0.89120    0.41270    1.000
    C10      C        0.10530    0.92820    0.36610    1.000
    C11      C        0.18960    0.77330    0.37030    1.000
    C12      C        0.27420    0.70790    0.34470    1.000
    C13      C        0.60130    0.55800    0.22590    1.000
    C14      C        0.51710    0.42100    0.28470    1.000
    C15      C        0.60760    0.39630    0.24970    1.000
    C16      C        0.87080    0.94460    0.48640    1.000
    C17      C        0.89590    0.03280    0.40870    1.000
    C18      C        0.80860    0.06810    0.44560    1.000
    C19      C        0.43190    0.21210    0.92900    1.000
    C20      C        0.44520    0.30140    0.96440    1.000
    C21      C        0.38380    0.37610    0.95220    1.000
    C22      C        0.29950    0.37060    0.90470    1.000
    C23      C        0.22820    0.44820    0.89010    1.000
    C24      C        0.14250    0.43330    0.84410    1.000
    C25      C        0.12370    0.34400    0.80850    1.000
    C26      C        0.03600    0.32950    0.76010    1.000
    C27      C        0.01690    0.23960    0.72910    1.000
    C28      C        0.08440    0.16380    0.74300    1.000
    C29      C        0.18680    0.26710    0.82070    1.000
    C30      C        0.28090    0.27830    0.87090    1.000
    C31      C        0.60420    0.40210    0.03700    1.000
    C32      C        0.57220    0.23020    0.04590    1.000
    C33      C        0.65350    0.27390    0.08980    1.000
    C34      C        0.86530    0.12710    0.66400    1.000
    C35      C        0.90450    0.28930    0.63890    1.000
    C36      C        0.82060    0.24080    0.60010    1.000
    C37      C        0.96430    0.39030    0.18060    1.000
    C38      C        0.10100    0.36470    0.19010    1.000
    C39      C        0.10760    0.24890    0.17880    1.000
    C40      C        0.24910    0.25330    0.16650    1.000
    C41      C        0.29450    0.34420    0.13370    1.000
    C42      C        0.19730    0.41630    0.14740    1.000
    C43      C        0.13350    0.38800    0.25460    1.000
    C44      C        0.05300    0.17140    0.22740    1.000
    C45      C        0.03230    0.20720    0.12530    1.000
    C46      C        0.53210    0.93920    0.03440    1.000
    C47      C        0.65960    0.91240    0.03970    1.000
    C48      C        0.66160    0.81560    0.07580    1.000
    C49      C        0.79050    0.77950    0.06220    1.000
    C50      C        0.82950    0.81990    0.99970    1.000
    C51      C        0.72080    0.88190    0.98070    1.000
    C52      C        0.75230    0.00350    0.05840    1.000
    C53      C        0.64460    0.83800    0.14670    1.000
    C54      C        0.54710    0.73010    0.06490    1.000
    C55      C        0.78600    0.66790    0.07190    1.000
    C56      C        0.27850    0.15270    0.13450    1.000
    C57      C        0.57470    0.31550    0.77420    1.000
    C58      C        0.56710    0.41080    0.79880    1.000
    C59      C        0.64340    0.44380    0.84630    1.000
    C60      C        0.72090    0.38480    0.86960    1.000
    C61      C        0.79360    0.41450    0.91420    1.000
    C62      C        0.87400    0.35640    0.93960    1.000
    C63      C        0.89000    0.25850    0.91550    1.000
    C64      C        0.97190    0.20370    0.93940    1.000
    C65      C        0.97730    0.10880    0.91270    1.000
    C66      C        0.89470    0.07180    0.86610    1.000
    C67      C        0.81040    0.22670    0.87030    1.000
    C68      C        0.72580    0.29210    0.84470    1.000
    C69      C        0.39870    0.44200    0.72590    1.000
    C70      C        0.48290    0.57900    0.78470    1.000
    C71      C        0.39240    0.60370    0.74970    1.000
    C72      C        0.12920    0.05540    0.98640    1.000
    C73      C        0.10410    0.96720    0.90870    1.000
    C74      C        0.19140    0.93190    0.94560    1.000
    C75      C        0.56810    0.78790    0.42900    1.000
    C76      C        0.55480    0.69860    0.46440    1.000
    C77      C        0.61620    0.62390    0.45220    1.000
    C78      C        0.70050    0.62940    0.40470    1.000
    C79      C        0.77180    0.55180    0.39010    1.000
    C80      C        0.85750    0.56670    0.34410    1.000
    C81      C        0.87630    0.65600    0.30850    1.000
    C82      C        0.96400    0.67050    0.26010    1.000
    C83      C        0.98310    0.76040    0.22910    1.000
    C84      C        0.91560    0.83620    0.24300    1.000
    C85      C        0.81320    0.73290    0.32070    1.000
    C86      C        0.71910    0.72170    0.37090    1.000
    C87      C        0.39580    0.59790    0.53700    1.000
    C88      C        0.42780    0.76980    0.54590    1.000
    C89      C        0.34650    0.72610    0.58980    1.000
    C90      C        0.13470    0.87290    0.16400    1.000
    C91      C        0.09550    0.71070    0.13890    1.000
    C92      C        0.17940    0.75920    0.10010    1.000
    C93      C        0.03570    0.60970    0.68060    1.000
    C94      C        0.89900    0.63530    0.69010    1.000
    C95      C        0.89240    0.75110    0.67880    1.000
    C96      C        0.75090    0.74670    0.66650    1.000
    C97      C        0.70550    0.65580    0.63370    1.000
    C98      C        0.80270    0.58370    0.64740    1.000
    C99      C        0.86650    0.61200    0.75460    1.000
    C100     C        0.94700    0.82860    0.72740    1.000
    C101     C        0.96770    0.79280    0.62530    1.000
    C102     C        0.46790    0.06080    0.53440    1.000
    C103     C        0.34040    0.08760    0.53970    1.000
    C104     C        0.33840    0.18440    0.57580    1.000
    C105     C        0.20950    0.22050    0.56220    1.000
    C106     C        0.17050    0.18010    0.49970    1.000
    C107     C        0.27920    0.11810    0.48070    1.000
    C108     C        0.24770    0.99650    0.55840    1.000
    C109     C        0.35540    0.16200    0.64670    1.000
    C110     C        0.45290    0.26990    0.56490    1.000
    C111     C        0.21400    0.33210    0.57190    1.000
    C112     C        0.72150    0.84730    0.63450    1.000
    N1       N        0.35050    0.74840    0.29480    1.000
    N2       N        0.19380    0.87260    0.34380    1.000
    N3       N        0.51440    0.52390    0.27240    1.000
    N4       N        0.66150    0.47650    0.21180    1.000
    N5       N        0.93820    0.95430    0.43500    1.000
    N6       N        0.79410    0.00580    0.49570    1.000
    N7       N        0.34700    0.20110    0.88010    1.000
    N8       N        0.17300    0.17200    0.78880    1.000
    N9       N        0.54220    0.30910    0.01180    1.000
    N10      N        0.67530    0.37930    0.08140    1.000
    N11      N        0.93610    0.22070    0.68040    1.000
    N12      N        0.79510    0.13270    0.61540    1.000
    N13      N        0.64950    0.25160    0.79480    1.000
    N14      N        0.80620    0.12740    0.84380    1.000
    N15      N        0.48560    0.47610    0.77240    1.000
    N16      N        0.33850    0.52350    0.71180    1.000
    N17      N        0.06180    0.04570    0.93500    1.000
    N18      N        0.20590    0.99420    0.99570    1.000
    N19      N        0.65300    0.79890    0.38010    1.000
    N20      N        0.82700    0.82800    0.28880    1.000
    N21      N        0.45780    0.69090    0.51180    1.000
    N22      N        0.32470    0.62070    0.58140    1.000
    N23      N        0.06390    0.77930    0.18040    1.000
    N24      N        0.20490    0.86730    0.11540    1.000
    O1       O        0.95230    0.46670    0.15220    1.000
    O2       O        0.86880    0.33130    0.20690    1.000
    O3       O        0.27950    0.13320    0.09010    1.000
    O4       O        0.29240    0.09060    0.18410    1.000
    O5       O        0.48350    0.97830    0.07170    1.000
    O6       O        0.46270    0.90520    0.99260    1.000
    O7       O        0.78430    0.60910    0.02980    1.000
    O8       O        0.78090    0.63070    0.12270    1.000
    O9       O        0.04770    0.53330    0.65220    1.000
    O10      O        0.13120    0.66870    0.70690    1.000
    O11      O        0.72050    0.86680    0.59010    1.000
    O12      O        0.70760    0.90940    0.68410    1.000
    O13      O        0.51650    0.02170    0.57170    1.000
    O14      O        0.53730    0.09480    0.49260    1.000
    O15      O        0.21570    0.39090    0.52980    1.000
    O16      O        0.21910    0.36930    0.62270    1.000
