data_functionalizedCrystal
_audit_creation_method	'EQeq! by Chris Wilmer'
_symmetry_space_group_name_H-M	'P1'
_symmetry_Int_Tables_number	1
_symmetry_cell_setting	triclinic
loop_
_symmetry_equiv_pos_as_xyz
  x,y,z
_cell_length_a	14.2166
_cell_length_b	14.2166
_cell_length_c	15.8302
_cell_angle_alpha	82.483
_cell_angle_beta	65.0575
_cell_angle_gamma	112.629
loop_
_atom_site_label
_atom_site_type_symbol
_atom_site_fract_x
_atom_site_fract_y
_atom_site_fract_z
_atom_site_charge
Mof_Ce	Ce	0.85928	0.3591	0.1215	2.384
Mof_Ce	Ce	0.9806	0.98078	0.3785	2.363
Mof_Ce	Ce	0.14072	0.6409	0.8785	2.384
Mof_Ce	Ce	0.0194	0.01922	0.6215	2.363
Mof_H 	H 	0.8784	0.1651	0.3957	-0.003
Mof_H 	H 	0.7186	0.3493	0.4723	0.105
Mof_H 	H 	0.8038	0.2223	0.6549	0.085
Mof_H 	H 	0.6937	0.2677	0.924	0.03
Mof_H 	H 	0.9732	0.5448	0.7012	-0.003
Mof_H 	H 	0.8946	0.5079	0.6003	0.112
Mof_H 	H 	0.0608	0.2741	0.1043	-0.007
Mof_H 	H 	0.3216	0.1909	0.0277	0.102
Mof_H 	H 	0.3772	0.4587	0.8451	0.082
Mof_H 	H 	0.6917	0.6177	0.576	0.03
Mof_H 	H 	0.746	0.6744	0.7988	-0.003
Mof_H 	H 	0.6082	0.4949	0.8997	0.112
Mof_H 	H 	0.1216	0.8349	0.6043	-0.003
Mof_H 	H 	0.2814	0.6507	0.5277	0.105
Mof_H 	H 	0.1962	0.7777	0.3451	0.085
Mof_H 	H 	0.3063	0.7323	0.076	0.03
Mof_H 	H 	0.0268	0.4552	0.2988	-0.003
Mof_H 	H 	0.1054	0.4921	0.3997	0.112
Mof_H 	H 	0.9392	0.7259	0.8957	-0.007
Mof_H 	H 	0.6784	0.8091	0.9723	0.102
Mof_H 	H 	0.6228	0.5413	0.1549	0.082
Mof_H 	H 	0.3083	0.3823	0.424	0.03
Mof_H 	H 	0.254	0.3256	0.2012	-0.003
Mof_H 	H 	0.3918	0.5051	0.1003	0.112
Mof_C 	C 	0.8463	0.1815	0.5302	-0.111
Mof_C 	C 	0.8464	0.1972	0.4412	0.021
Mof_C 	C 	0.7987	0.2605	0.4194	-0.048
Mof_C 	C 	0.7525	0.3077	0.486	-0.113
Mof_C 	C 	0.7564	0.2934	0.572	0.171
Mof_C 	C 	0.8023	0.2311	0.595	-0.088
Mof_C 	C 	0.7503	0.3622	0.6995	0.193
Mof_C 	C 	0.6903	0.2919	0.7964	-0.028
Mof_C 	C 	0.7359	0.3158	0.8573	0.058
Mof_C 	C 	0.8422	0.4088	0.822	-0.202
Mof_C 	C 	0.9005	0.4799	0.7258	0.129
Mof_C 	C 	0.8546	0.4575	0.6657	-0.211
Mof_C 	C 	0.89	0.1115	0.5605	0.443
Mof_C 	C 	0.7998	0.2791	0.3235	0.306
Mof_C 	C 	0.8966	0.4307	0.8863	0.535
Mof_C 	C 	0.2117	0.3765	0.9698	-0.123
Mof_C 	C 	0.1384	0.2876	0.0588	0.031
Mof_C 	C 	0.1799	0.2181	0.0806	-0.054
Mof_C 	C 	0.2937	0.2385	0.014	-0.107
Mof_C 	C 	0.3654	0.3284	0.928	0.164
Mof_C 	C 	0.3261	0.3973	0.905	-0.082
Mof_C 	C 	0.5617	0.4498	0.8005	0.192
Mof_C 	C 	0.5883	0.4867	0.7036	-0.028
Mof_C 	C 	0.6731	0.5932	0.6427	0.056
Mof_C 	C 	0.7308	0.6642	0.678	-0.2
Mof_C 	C 	0.7057	0.6263	0.7742	0.127
Mof_C 	C 	0.6232	0.5203	0.8343	-0.21
Mof_C 	C 	0.172	0.4505	0.9395	0.447
Mof_C 	C 	0.1026	0.1233	0.1765	0.308
Mof_C 	C 	0.817	0.7829	0.6137	0.526
Mof_C 	C 	0.1537	0.8185	0.4698	-0.111
Mof_C 	C 	0.1536	0.8028	0.5588	0.021
Mof_C 	C 	0.2013	0.7395	0.5806	-0.048
Mof_C 	C 	0.2475	0.6923	0.514	-0.113
Mof_C 	C 	0.2436	0.7066	0.428	0.171
Mof_C 	C 	0.1977	0.7689	0.405	-0.088
Mof_C 	C 	0.2497	0.6378	0.3005	0.193
Mof_C 	C 	0.3097	0.7081	0.2036	-0.028
Mof_C 	C 	0.2641	0.6842	0.1427	0.058
Mof_C 	C 	0.1578	0.5912	0.178	-0.202
Mof_C 	C 	0.0995	0.5201	0.2742	0.129
Mof_C 	C 	0.1454	0.5425	0.3343	-0.211
Mof_C 	C 	0.11	0.8885	0.4395	0.443
Mof_C 	C 	0.2002	0.7209	0.6765	0.306
Mof_C 	C 	0.1034	0.5693	0.1137	0.535
Mof_C 	C 	0.7883	0.6235	0.0302	-0.123
Mof_C 	C 	0.8616	0.7124	0.9412	0.031
Mof_C 	C 	0.8201	0.7819	0.9194	-0.054
Mof_C 	C 	0.7063	0.7615	0.986	-0.107
Mof_C 	C 	0.6346	0.6716	0.072	0.164
Mof_C 	C 	0.6739	0.6027	0.095	-0.082
Mof_C 	C 	0.4383	0.5502	0.1995	0.192
Mof_C 	C 	0.4117	0.5133	0.2964	-0.028
Mof_C 	C 	0.3269	0.4068	0.3573	0.056
Mof_C 	C 	0.2692	0.3358	0.322	-0.2
Mof_C 	C 	0.2943	0.3737	0.2258	0.127
Mof_C 	C 	0.3768	0.4797	0.1657	-0.21
Mof_C 	C 	0.828	0.5495	0.0605	0.447
Mof_C 	C 	0.8974	0.8767	0.8235	0.308
Mof_C 	C 	0.183	0.2171	0.3863	0.526
Mof_N 	N 	0.5786	0.1901	0.8385	0.016
Mof_N 	N 	0.5286	0.4171	0.6615	0.015
Mof_N 	N 	0.4214	0.8099	0.1615	0.016
Mof_N 	N 	0.4714	0.5829	0.3385	0.015
Mof_O 	O 	0.8979	0.1109	0.6366	-0.514
Mof_O 	O 	0.91797	0.05443	0.5106	-0.663
Mof_O 	O 	0.8476	0.2404	0.2614	-0.5
Mof_O 	O 	0.75445	0.33385	0.3071	-0.447
Mof_O 	O 	0.5499	0.1536	0.7827	-0.116
Mof_O 	O 	0.5184	0.1463	0.9289	-0.123
Mof_O 	O 	0.8349	0.3693	0.9748	-0.598
Mof_O 	O 	0.0001	0.509	0.8443	-0.566
Mof_O 	O 	0.7094	0.3438	0.6344	-0.224
Mof_O 	O 	0.2475	0.5345	0.8634	-0.524
Mof_O 	O 	0.06503	0.42857	0.9894	-0.677
Mof_O 	O 	0.0018	0.109	0.2386	-0.5
Mof_O 	O 	0.14095	0.06155	0.1929	-0.447
Mof_O 	O 	0.4363	0.3326	0.7173	-0.117
Mof_O 	O 	0.5752	0.4473	0.5711	-0.123
Mof_O 	O 	0.8441	0.8097	0.5252	-0.599
Mof_O 	O 	0.8533	0.8444	0.6557	-0.561
Mof_O 	O 	0.4782	0.3438	0.8656	-0.223
Mof_O 	O 	0.1021	0.8891	0.3634	-0.514
Mof_O 	O 	0.08203	0.94557	0.4894	-0.663
Mof_O 	O 	0.1524	0.7596	0.7386	-0.5
Mof_O 	O 	0.24555	0.66615	0.6929	-0.447
Mof_O 	O 	0.4501	0.8464	0.2173	-0.116
Mof_O 	O 	0.4816	0.8537	0.0711	-0.123
Mof_O 	O 	0.1651	0.6307	0.0252	-0.598
Mof_O 	O 	0.9999	0.491	0.1557	-0.566
Mof_O 	O 	0.2906	0.6562	0.3656	-0.224
Mof_O 	O 	0.7525	0.4655	0.1366	-0.524
Mof_O 	O 	0.93497	0.57143	0.0106	-0.677
Mof_O 	O 	0.9982	0.891	0.7614	-0.5
Mof_O 	O 	0.85905	0.93845	0.8071	-0.447
Mof_O 	O 	0.5637	0.6674	0.2827	-0.117
Mof_O 	O 	0.4248	0.5527	0.4289	-0.123
Mof_O 	O 	0.1559	0.1903	0.4748	-0.599
Mof_O 	O 	0.1467	0.1556	0.3443	-0.561
Mof_O 	O 	0.5218	0.6562	0.1344	-0.223
_end
