# CIF file generated by openbabel 3.1.0, see https://openbabel.org
data_I
_chemical_name_common 'image0'
_cell_length_a 15.089
_cell_length_b 15.275
_cell_length_c 23.654
_cell_angle_alpha 85.902
_cell_angle_beta 81.506
_cell_angle_gamma 86.813
_space_group_name_H-M_alt 'P 1'
_space_group_name_Hall 'P 1'
loop_
    _symmetry_equiv_pos_as_xyz
    x,y,z
loop_
    _atom_site_label
    _atom_site_type_symbol
    _atom_site_fract_x
    _atom_site_fract_y
    _atom_site_fract_z
    _atom_site_occupancy
    O1       O        0.32860    0.88160    0.74740    1.000
    O2       O        0.85160    0.21990    0.22040    1.000
    O3       O        0.03440    0.91660    0.70470    1.000
    O4       O        0.06900    0.03990    0.73400    1.000
    C1       C        0.01170    0.98720    0.72730    1.000
    C2       C        0.91310    0.00500    0.75200    1.000
    C3       C        0.84780    0.96510    0.73180    1.000
    H1       H        0.86060    0.93100    0.70030    1.000
    C4       C        0.89600    0.05650    0.79890    1.000
    H2       H        0.94260    0.08350    0.81160    1.000
    O5       O        0.68610    0.29490    0.31710    1.000
    C5       C        0.73900    0.25900    0.34950    1.000
    C6       C        0.74470    0.30180    0.40580    1.000
    C7       C        0.78720    0.26180    0.44850    1.000
    H3       H        0.81630    0.20700    0.44330    1.000
    C8       C        0.70320    0.38560    0.41540    1.000
    H4       H        0.67340    0.41490    0.38740    1.000
    C9       C        0.70620    0.42420    0.46570    1.000
    H5       H        0.68100    0.48060    0.47060    1.000
    C10      C        0.78790    0.30120    0.49950    1.000
    H6       H        0.81750    0.27270    0.52790    1.000
    C11      C        0.74580    0.38090    0.50830    1.000
    O6       O        0.60540    0.70820    0.27820    1.000
    C12      C        0.53160    0.83010    0.32210    1.000
    C13      C        0.44960    0.79540    0.32420    1.000
    H7       H        0.44550    0.73940    0.31210    1.000
    C14      C        0.37220    0.84430    0.34450    1.000
    H8       H        0.31590    0.82390    0.34230    1.000
    C15      C        0.97310    0.31690    0.31900    1.000
    H9       H        0.94780    0.28310    0.29490    1.000
    O7       O        0.83030    0.39130    0.26500    1.000
    O8       O        0.83930    0.52080    0.30110    1.000
    C16      C        0.86400    0.44180    0.29510    1.000
    C17      C        0.93890    0.40330    0.32650    1.000
    C18      C        0.97520    0.44880    0.36340    1.000
    H10      H        0.95190    0.50520    0.37030    1.000
    C19      C        0.04080    0.28100    0.34500    1.000
    H11      H        0.06380    0.22430    0.33840    1.000
    O9       O        0.81180    0.31410    0.15240    1.000
    C20      C        0.86690    0.25700    0.17150    1.000
    C21      C        0.95400    0.23990    0.13450    1.000
    C22      C        0.10450    0.17900    0.12160    1.000
    H12      H        0.15190    0.14920    0.13690    1.000
    C23      C        0.96450    0.26730    0.07640    1.000
    H13      H        0.91820    0.29840    0.06080    1.000
    C24      C        0.04520    0.24740    0.04220    1.000
    H14      H        0.05170    0.26460    0.00340    1.000
    O10      O        0.84110    0.69830    0.21650    1.000
    O11      O        0.93390    0.80380    0.18840    1.000
    C25      C        0.91380    0.72510    0.18830    1.000
    C26      C        0.97940    0.66100    0.15610    1.000
    Tb1      Tb       0.29822    0.63673    0.77349    1.000
    Tb2      Tb       0.27207    0.38906    0.73259    1.000
    Tb3      Tb       0.15819    0.16721    0.71893    1.000
    Tb4      Tb       0.18799    0.90959    0.72785    1.000
    C27      C        0.51610    0.44570    0.62690    1.000
    H15      H        0.45960    0.42670    0.62400    1.000
    C28      C        0.44540    0.53890    0.70700    1.000
    C29      C        0.67240    0.44510    0.59400    1.000
    C30      C        0.52510    0.50250    0.66780    1.000
    C31      C        0.58830    0.41670    0.59040    1.000
    H16      H        0.58100    0.37780    0.56310    1.000
    C32      C        0.61080    0.52970    0.67200    1.000
    H17      H        0.61750    0.56720    0.70010    1.000
    C33      C        0.68550    0.50240    0.63560    1.000
    H18      H        0.74220    0.52120    0.63850    1.000
    O12      O        0.45610    0.60230    0.73540    1.000
    O13      O        0.36880    0.50460    0.70960    1.000
    O14      O        0.75060    0.41820    0.56010    1.000
    O15      O        0.22030    0.05730    0.77820    1.000
    O16      O        0.24250    0.49210    0.81180    1.000
    O17      O        0.31670    0.36770    0.83200    1.000
    O18      O        0.30290    0.38130    0.62840    1.000
    O19      O        0.18990    0.30530    0.66850    1.000
    O20      O        0.17060    0.13050    0.62330    1.000
    O21      O        0.23820    0.00860    0.65390    1.000
    O22      O        0.16860    0.47800    0.08430    1.000
    O23      O        0.16080    0.94200    0.82700    1.000
    C34      C        0.27090    0.43430    0.84710    1.000
    C35      C        0.23720    0.33920    0.62370    1.000
    C36      C        0.24410    0.44760    0.91050    1.000
    C37      C        0.21180    0.32960    0.56540    1.000
    C38      C        0.12360    0.31870    0.56050    1.000
    H19      H        0.08040    0.31660    0.59290    1.000
    C39      C        0.29050    0.40330    0.95150    1.000
    H20      H        0.33920    0.36550    0.94000    1.000
    C40      C        0.14550    0.51240    0.98630    1.000
    H21      H        0.09660    0.54980    0.99820    1.000
    C41      C        0.10180    0.53860    0.10590    1.000
    C42      C        0.21490    0.05930    0.61450    1.000
    C43      C        0.27770    0.33210    0.51810    1.000
    H22      H        0.33700    0.34040    0.52210    1.000
    C44      C        0.21240    0.08830    0.50900    1.000
    H23      H        0.17780    0.13920    0.51780    1.000
    C45      C        0.17040    0.50170    0.92820    1.000
    H24      H        0.13780    0.53070    0.90150    1.000
    C46      C        0.09890    0.31070    0.50450    1.000
    H25      H        0.03930    0.30520    0.50000    1.000
    C47      C        0.19040    0.47000    0.02550    1.000
    C48      C        0.24200    0.03460    0.55340    1.000
    C49      C        0.25360    0.32200    0.46380    1.000
    H26      H        0.29760    0.32270    0.43190    1.000
    C50      C        0.16630    0.31120    0.45720    1.000
    C51      C        0.11720    0.62790    0.09660    1.000
    H27      H        0.16910    0.64640    0.07370    1.000
    C52      C        0.29030    0.96030    0.54050    1.000
    H28      H        0.30950    0.92370    0.56990    1.000
    C53      C        0.23290    0.06790    0.45220    1.000
    H29      H        0.21380    0.10490    0.42300    1.000
    C54      C        0.26450    0.41500    0.00970    1.000
    H30      H        0.29620    0.38670    0.03710    1.000
    C55      C        0.03010    0.51000    0.14080    1.000
    H31      H        0.02240    0.45010    0.14810    1.000
    O24      O        0.78140    0.18820    0.34350    1.000
    O25      O        0.37290    0.76090    0.79400    1.000
    O26      O        0.14920    0.29250    0.40400    1.000
    C56      C        0.96640    0.57110    0.16660    1.000
    H32      H        0.91580    0.55170    0.19060    1.000
    C57      C        0.38490    0.84230    0.78120    1.000
    C58      C        0.44950    0.89400    0.79750    1.000
    C59      C        0.07450    0.33080    0.38160    1.000
    C60      C        0.02450    0.19810    0.15720    1.000
    H33      H        0.01910    0.18250    0.19630    1.000
    C61      C        0.19000    0.06200    0.87940    1.000
    C62      C        0.24170    0.13230    0.88120    1.000
    H34      H        0.27710    0.15250    0.84780    1.000
    C63      C        0.24350    0.17460    0.93080    1.000
    H35      H        0.27920    0.22230    0.93080    1.000
    C64      C        0.18860    0.01660    0.82580    1.000
    C65      C        0.19070    0.14370    0.98020    1.000
    C66      C        0.05500    0.68960    0.12160    1.000
    H36      H        0.06440    0.74940    0.11510    1.000
    C67      C        0.13760    0.03010    0.93040    1.000
    H37      H        0.10280    0.98180    0.93060    1.000
    O27      O        0.19460    0.18550    0.03050    1.000
    C68      C        0.11410    0.20410    0.06350    1.000
    C69      C        0.04560    0.41600    0.39170    1.000
    H38      H        0.07140    0.44940    0.41580    1.000
    C70      C        0.28280    0.99100    0.44040    1.000
    C71      C        0.31190    0.93700    0.48430    1.000
    H39      H        0.34580    0.88550    0.47620    1.000
    C72      C        0.37930    0.91830    0.36620    1.000
    C73      C        0.45640    0.95720    0.36720    1.000
    H40      H        0.45770    0.01210    0.38170    1.000
    C74      C        0.80850    0.06730    0.82670    1.000
    H41      H        0.79510    0.10210    0.85790    1.000
    C75      C        0.76080    0.97690    0.75960    1.000
    H42      H        0.71440    0.95160    0.74560    1.000
    C76      C        0.74160    0.02430    0.80640    1.000
    C77      C        0.53810    0.90850    0.34440    1.000
    H43      H        0.59400    0.93090    0.34510    1.000
    C78      C        0.13920    0.07280    0.98080    1.000
    H44      H        0.10510    0.05270    0.01480    1.000
    O28      O        0.65640    0.03550    0.83920    1.000
    O29      O        0.68880    0.81590    0.29620    1.000
    C79      C        0.61390    0.78160    0.29610    1.000
    O30      O        0.29950    0.96950    0.38460    1.000
    C80      C        0.45090    0.98150    0.78690    1.000
    H45      H        0.40460    0.01070    0.77010    1.000
    C81      C        0.52020    0.02990    0.80030    1.000
    H46      H        0.52140    0.09020    0.79130    1.000
    C82      C        0.58780    0.98540    0.82750    1.000
    C83      C        0.52000    0.84990    0.82540    1.000
    H47      H        0.52060    0.78910    0.83190    1.000
    C84      C        0.58610    0.89560    0.84240    1.000
    H48      H        0.62830    0.86760    0.86330    1.000
    O31      O        0.67140    0.11840    0.25260    1.000
    O32      O        0.14840    0.78010    0.77960    1.000
    O33      O        0.96560    0.08340    0.29530    1.000
    O34      O        0.93100    0.96010    0.26600    1.000
    C85      C        0.98830    0.01280    0.27270    1.000
    C86      C        0.08690    0.99500    0.24800    1.000
    C87      C        0.15220    0.03490    0.26820    1.000
    H49      H        0.13940    0.06900    0.29970    1.000
    C88      C        0.10400    0.94350    0.20110    1.000
    H50      H        0.05740    0.91650    0.18840    1.000
    O35      O        0.31390    0.70510    0.68290    1.000
    C89      C        0.26100    0.74100    0.65050    1.000
    C90      C        0.25530    0.69820    0.59420    1.000
    C91      C        0.21280    0.73820    0.55150    1.000
    H51      H        0.18370    0.79300    0.55670    1.000
    C92      C        0.29680    0.61440    0.58460    1.000
    H52      H        0.32660    0.58510    0.61260    1.000
    C93      C        0.29380    0.57580    0.53430    1.000
    H53      H        0.31900    0.51940    0.52940    1.000
    C94      C        0.21210    0.69880    0.50050    1.000
    H54      H        0.18250    0.72730    0.47210    1.000
    C95      C        0.25420    0.61910    0.49170    1.000
    O36      O        0.39460    0.29180    0.72180    1.000
    C96      C        0.46840    0.16990    0.67790    1.000
    C97      C        0.55040    0.20460    0.67580    1.000
    H55      H        0.55450    0.26060    0.68790    1.000
    C98      C        0.62780    0.15570    0.65550    1.000
    H56      H        0.68410    0.17610    0.65770    1.000
    C99      C        0.02690    0.68310    0.68100    1.000
    H57      H        0.05220    0.71690    0.70510    1.000
    O37      O        0.16970    0.60870    0.73500    1.000
    O38      O        0.16070    0.47920    0.69890    1.000
    C100     C        0.13600    0.55820    0.70490    1.000
    C101     C        0.06110    0.59670    0.67350    1.000
    C102     C        0.02480    0.55120    0.63660    1.000
    H58      H        0.04810    0.49480    0.62970    1.000
    C103     C        0.95920    0.71900    0.65500    1.000
    H59      H        0.93620    0.77570    0.66160    1.000
    O39      O        0.18820    0.68590    0.84760    1.000
    C104     C        0.13310    0.74300    0.82850    1.000
    C105     C        0.04600    0.76010    0.86550    1.000
    C106     C        0.89550    0.82100    0.87840    1.000
    H60      H        0.84810    0.85080    0.86310    1.000
    C107     C        0.03550    0.73270    0.92360    1.000
    H61      H        0.08180    0.70160    0.93920    1.000
    C108     C        0.95480    0.75260    0.95780    1.000
    H62      H        0.94830    0.73540    0.99660    1.000
    O40      O        0.15890    0.30170    0.78350    1.000
    O41      O        0.06610    0.19620    0.81160    1.000
    C109     C        0.08620    0.27490    0.81170    1.000
    C110     C        0.02060    0.33900    0.84390    1.000
    Tb5      Tb       0.70178    0.36327    0.22651    1.000
    Tb6      Tb       0.72793    0.61094    0.26741    1.000
    Tb7      Tb       0.84181    0.83279    0.28107    1.000
    Tb8      Tb       0.81201    0.09041    0.27215    1.000
    C111     C        0.48390    0.55430    0.37310    1.000
    H63      H        0.54040    0.57330    0.37600    1.000
    C112     C        0.55460    0.46110    0.29300    1.000
    C113     C        0.32760    0.55490    0.40600    1.000
    C114     C        0.47490    0.49750    0.33220    1.000
    C115     C        0.41170    0.58330    0.40960    1.000
    H64      H        0.41900    0.62220    0.43690    1.000
    C116     C        0.38920    0.47030    0.32800    1.000
    H65      H        0.38250    0.43280    0.29990    1.000
    C117     C        0.31450    0.49760    0.36440    1.000
    H66      H        0.25780    0.47880    0.36150    1.000
    O42      O        0.54390    0.39770    0.26460    1.000
    O43      O        0.63120    0.49540    0.29040    1.000
    O44      O        0.24940    0.58180    0.43990    1.000
    O45      O        0.77970    0.94270    0.22180    1.000
    O46      O        0.75750    0.50790    0.18820    1.000
    O47      O        0.68330    0.63230    0.16800    1.000
    O48      O        0.69710    0.61870    0.37160    1.000
    O49      O        0.81010    0.69470    0.33150    1.000
    O50      O        0.82940    0.86950    0.37670    1.000
    O51      O        0.76180    0.99140    0.34610    1.000
    O52      O        0.83140    0.52200    0.91570    1.000
    O53      O        0.83920    0.05800    0.17300    1.000
    C118     C        0.72910    0.56570    0.15290    1.000
    C119     C        0.76280    0.66080    0.37630    1.000
    C120     C        0.75590    0.55240    0.08950    1.000
    C121     C        0.78820    0.67040    0.43460    1.000
    C122     C        0.87640    0.68130    0.43950    1.000
    H67      H        0.91960    0.68340    0.40710    1.000
    C123     C        0.70950    0.59670    0.04850    1.000
    H68      H        0.66080    0.63450    0.06000    1.000
    C124     C        0.85450    0.48760    0.01370    1.000
    H69      H        0.90340    0.45020    0.00180    1.000
    C125     C        0.89820    0.46140    0.89410    1.000
    C126     C        0.78510    0.94070    0.38550    1.000
    C127     C        0.72230    0.66790    0.48190    1.000
    H70      H        0.66300    0.65960    0.47790    1.000
    C128     C        0.78760    0.91170    0.49100    1.000
    H71      H        0.82220    0.86080    0.48220    1.000
    C129     C        0.82960    0.49830    0.07180    1.000
    H72      H        0.86220    0.46930    0.09850    1.000
    C130     C        0.90110    0.68930    0.49550    1.000
    H73      H        0.96070    0.69480    0.50000    1.000
    C131     C        0.80960    0.53000    0.97450    1.000
    C132     C        0.75800    0.96540    0.44660    1.000
    C133     C        0.74640    0.67800    0.53620    1.000
    H74      H        0.70240    0.67730    0.56810    1.000
    C134     C        0.83370    0.68880    0.54280    1.000
    C135     C        0.88280    0.37210    0.90340    1.000
    H75      H        0.83090    0.35360    0.92630    1.000
    C136     C        0.70970    0.03970    0.45950    1.000
    H76      H        0.69050    0.07630    0.43010    1.000
    C137     C        0.76710    0.93210    0.54780    1.000
    H77      H        0.78620    0.89510    0.57700    1.000
    C138     C        0.73550    0.58500    0.99030    1.000
    H78      H        0.70380    0.61330    0.96290    1.000
    C139     C        0.96990    0.49000    0.85920    1.000
    H79      H        0.97760    0.54990    0.85190    1.000
    O54      O        0.21860    0.81180    0.65650    1.000
    O55      O        0.62710    0.23910    0.20600    1.000
    O56      O        0.85080    0.70750    0.59600    1.000
    C140     C        0.03360    0.42890    0.83340    1.000
    H80      H        0.08420    0.44830    0.80940    1.000
    C141     C        0.61510    0.15770    0.21880    1.000
    C142     C        0.55050    0.10600    0.20250    1.000
    C143     C        0.92550    0.66920    0.61840    1.000
    C144     C        0.97550    0.80190    0.84280    1.000
    H81      H        0.98090    0.81750    0.80370    1.000
    C145     C        0.81000    0.93800    0.12060    1.000
    C146     C        0.75830    0.86770    0.11880    1.000
    H82      H        0.72290    0.84750    0.15220    1.000
    C147     C        0.75650    0.82540    0.06920    1.000
    H83      H        0.72080    0.77770    0.06920    1.000
    C148     C        0.81140    0.98340    0.17420    1.000
    C149     C        0.80930    0.85630    0.01980    1.000
    C150     C        0.94500    0.31040    0.87840    1.000
    H84      H        0.93560    0.25060    0.88490    1.000
    C151     C        0.86240    0.96990    0.06960    1.000
    H85      H        0.89720    0.01820    0.06940    1.000
    O57      O        0.80540    0.81450    0.96950    1.000
    C152     C        0.88590    0.79590    0.93650    1.000
    C153     C        0.95440    0.58400    0.60830    1.000
    H86      H        0.92860    0.55060    0.58420    1.000
    C154     C        0.71720    0.00900    0.55960    1.000
    C155     C        0.68810    0.06300    0.51570    1.000
    H87      H        0.65420    0.11450    0.52380    1.000
    C156     C        0.62070    0.08170    0.63380    1.000
    C157     C        0.54360    0.04280    0.63280    1.000
    H88      H        0.54230    0.98790    0.61830    1.000
    C158     C        0.19150    0.93270    0.17330    1.000
    H89      H        0.20490    0.89790    0.14210    1.000
    C159     C        0.23920    0.02310    0.24040    1.000
    H90      H        0.28560    0.04840    0.25440    1.000
    C160     C        0.25840    0.97570    0.19360    1.000
    C161     C        0.46190    0.09150    0.65560    1.000
    H91      H        0.40600    0.06910    0.65490    1.000
    C162     C        0.86080    0.92720    0.01920    1.000
    H92      H        0.89490    0.94730    0.98520    1.000
    O58      O        0.34360    0.96450    0.16080    1.000
    O59      O        0.31120    0.18410    0.70380    1.000
    C163     C        0.38610    0.21840    0.70390    1.000
    O60      O        0.70050    0.03050    0.61540    1.000
    C164     C        0.54910    0.01850    0.21310    1.000
    H93      H        0.59540    0.98930    0.22990    1.000
    C165     C        0.47980    0.97010    0.19970    1.000
    H94      H        0.47860    0.90980    0.20870    1.000
    C166     C        0.41220    0.01460    0.17250    1.000
    C167     C        0.48000    0.15010    0.17460    1.000
    H95      H        0.47940    0.21090    0.16810    1.000
    C168     C        0.41390    0.10440    0.15760    1.000
    H96      H        0.37170    0.13240    0.13670    1.000
