# CIF file generated by openbabel 3.1.0, see https://openbabel.org
data_I
_chemical_name_common 'image0'
_cell_length_a 35.0502
_cell_length_b 15.0503
_cell_length_c 31.3752
_cell_angle_alpha 90
_cell_angle_beta 102.531
_cell_angle_gamma 90
_space_group_name_H-M_alt 'P 1'
_space_group_name_Hall 'P 1'
loop_
    _symmetry_equiv_pos_as_xyz
    x,y,z
loop_
    _atom_site_label
    _atom_site_type_symbol
    _atom_site_fract_x
    _atom_site_fract_y
    _atom_site_fract_z
    _atom_site_occupancy
    I1       I        0.23856    0.73420    0.30440    1.000
    I2       I        0.13202    0.67660    0.20148    1.000
    I3       I        0.35273    0.92664    0.50997    1.000
    I4       I        0.61501    0.73452    0.56319    1.000
    I5       I        0.52031    0.63713    0.62901    1.000
    I6       I        0.38912    0.76605    0.40531    1.000
    Zn1      Zn       0.17717    0.64842    0.27826    1.000
    Zn2      Zn       0.37387    0.91323    0.43790    1.000
    Zn3      Zn       0.58092    0.61441    0.59415    1.000
    N1       N        0.18793    0.51290    0.28026    1.000
    N2       N        0.56837    0.51310    0.54874    1.000
    N3       N        0.33186    0.97720    0.39202    1.000
    N4       N        0.21984    0.06040    0.27161    1.000
    N5       N        0.18089    0.18790    0.24916    1.000
    N6       N        0.11961    0.95550    0.14173    1.000
    N7       N        0.23640    0.19810    0.30793    1.000
    N8       N        0.42139    0.99540    0.44085    1.000
    N9       N        0.64339    0.16300    0.32423    1.000
    N10      N        0.57743    0.27400    0.43997    1.000
    N11      N        0.52485    0.22820    0.47112    1.000
    C1       C        0.24127    0.11120    0.30271    1.000
    C2       C        0.27307    0.06520    0.33390    1.000
    N12      N        0.53984    0.14820    0.41134    1.000
    C3       C        0.19970    0.33010    0.28091    1.000
    C4       C        0.16220    0.45900    0.25460    1.000
    H1       H        0.14030    0.48410    0.23650    1.000
    C5       C        0.20624    0.23260    0.27961    1.000
    C6       C        0.16513    0.05040    0.21008    1.000
    C7       C        0.11150    0.03980    0.14960    1.000
    H2       H        0.08980    0.06620    0.13180    1.000
    C8       C        0.55869    0.36360    0.49571    1.000
    C9       C        0.65572    0.21040    0.36070    1.000
    H3       H        0.68090    0.23370    0.36630    1.000
    C10      C        0.17376    0.96240    0.20228    1.000
    H4       H        0.19510    0.93420    0.21990    1.000
    C11      C        0.55360    0.28380    0.46756    1.000
    C12      C        0.56965    0.20450    0.41328    1.000
    C13      C        0.51890    0.16320    0.44174    1.000
    C14      C        0.31192    0.93610    0.35637    1.000
    H5       H        0.31830    0.87760    0.35120    1.000
    C15      C        0.53079    0.38590    0.51950    1.000
    H6       H        0.50850    0.35130    0.51780    1.000
    C16      C        0.21900    0.47620    0.30630    1.000
    H7       H        0.23670    0.51300    0.32450    1.000
    C17      C        0.13353    0.08980    0.18280    1.000
    H8       H        0.12720    0.14880    0.18680    1.000
    C18      C        0.48559    0.10360    0.44170    1.000
    C19      C        0.29440    0.10800    0.37054    1.000
    H9       H        0.28930    0.16710    0.37610    1.000
    C20      C        0.59556    0.18950    0.38226    1.000
    C21      C        0.28204    0.97750    0.32667    1.000
    H10      H        0.26830    0.94700    0.30240    1.000
    C22      C        0.43740    0.04200    0.47520    1.000
    H11      H        0.42710    0.03720    0.50000    1.000
    C23      C        0.15042    0.91790    0.16823    1.000
    H12      H        0.15630    0.85910    0.16330    1.000
    C24      C        0.58350    0.13800    0.34540    1.000
    H13      H        0.55900    0.11100    0.33980    1.000
    C25      C        0.16683    0.36770    0.25390    1.000
    H14      H        0.14840    0.33220    0.23590    1.000
    C26      C        0.53691    0.46070    0.54577    1.000
    H15      H        0.51850    0.47530    0.56200    1.000
    C27      C        0.32323    0.06180    0.39860    1.000
    H16      H        0.33730    0.09070    0.42330    1.000
    C28      C        0.59048    0.41920    0.49810    1.000
    H17      H        0.60920    0.40690    0.48200    1.000
    C29      C        0.63240    0.22590    0.39000    1.000
    H18      H        0.64140    0.26040    0.41470    1.000
    C30      C        0.22598    0.38550    0.30750    1.000
    H19      H        0.24810    0.36230    0.32600    1.000
    C31      C        0.59410    0.49260    0.52460    1.000
    H20      H        0.61550    0.52980    0.52570    1.000
    C32      C        0.60820    0.12720    0.31700    1.000
    H21      H        0.59980    0.09350    0.29190    1.000
    C33      C        0.46880    0.09760    0.47664    1.000
    H22      H        0.47850    0.13110    0.50150    1.000
    C34      C        0.43500    0.00990    0.40480    1.000
    H23      H        0.42290    0.98050    0.37940    1.000
    C35      C        0.46600    0.06560    0.40280    1.000
    H24      H        0.47330    0.07710    0.37660    1.000
    C36      C        0.18975    0.10240    0.24602    1.000
    I7       I        0.52944    0.66560    0.62076    1.000
    I8       I        0.63116    0.72197    0.56101    1.000
    I9       I        0.14555    0.69240    0.21061    1.000
    I10      I        0.37470    0.75970    0.42100    1.000
    I11      I        0.24940    0.72960    0.31680    1.000
    I12      I        0.73856    0.23420    0.30440    1.000
    I13      I        0.63202    0.17660    0.20148    1.000
    I14      I        0.85273    0.42664    0.50997    1.000
    I15      I        0.11501    0.23452    0.56319    1.000
    I16      I        0.02031    0.13713    0.62901    1.000
    I17      I        0.88912    0.26605    0.40531    1.000
    Zn4      Zn       0.67717    0.14842    0.27826    1.000
    Zn5      Zn       0.87387    0.41323    0.43790    1.000
    Zn6      Zn       0.08092    0.11441    0.59415    1.000
    N13      N        0.68793    0.01290    0.28026    1.000
    N14      N        0.06837    0.01310    0.54874    1.000
    N15      N        0.83186    0.47720    0.39202    1.000
    N16      N        0.71984    0.56040    0.27161    1.000
    N17      N        0.68089    0.68790    0.24916    1.000
    N18      N        0.61961    0.45550    0.14173    1.000
    N19      N        0.73640    0.69810    0.30793    1.000
    N20      N        0.92139    0.49540    0.44085    1.000
    N21      N        0.14339    0.66300    0.32423    1.000
    N22      N        0.07743    0.77400    0.43997    1.000
    N23      N        0.02485    0.72820    0.47112    1.000
    C37      C        0.74127    0.61120    0.30271    1.000
    C38      C        0.77307    0.56520    0.33390    1.000
    N24      N        0.03984    0.64820    0.41134    1.000
    C39      C        0.69970    0.83010    0.28091    1.000
    C40      C        0.66220    0.95900    0.25460    1.000
    H25      H        0.64030    0.98410    0.23650    1.000
    C41      C        0.70624    0.73260    0.27961    1.000
    C42      C        0.66513    0.55040    0.21008    1.000
    C43      C        0.61150    0.53980    0.14960    1.000
    H26      H        0.58980    0.56620    0.13180    1.000
    C44      C        0.05869    0.86360    0.49571    1.000
    C45      C        0.15572    0.71040    0.36070    1.000
    H27      H        0.18090    0.73370    0.36630    1.000
    C46      C        0.67376    0.46240    0.20228    1.000
    H28      H        0.69510    0.43420    0.21990    1.000
    C47      C        0.05360    0.78380    0.46756    1.000
    C48      C        0.06965    0.70450    0.41328    1.000
    C49      C        0.01890    0.66320    0.44174    1.000
    C50      C        0.81192    0.43610    0.35637    1.000
    H29      H        0.81830    0.37760    0.35120    1.000
    C51      C        0.03079    0.88590    0.51950    1.000
    H30      H        0.00850    0.85130    0.51780    1.000
    C52      C        0.71900    0.97620    0.30630    1.000
    H31      H        0.73670    0.01300    0.32450    1.000
    C53      C        0.63353    0.58980    0.18280    1.000
    H32      H        0.62720    0.64880    0.18680    1.000
    C54      C        0.98559    0.60360    0.44170    1.000
    C55      C        0.79440    0.60800    0.37054    1.000
    H33      H        0.78930    0.66710    0.37610    1.000
    C56      C        0.09556    0.68950    0.38226    1.000
    C57      C        0.78204    0.47750    0.32667    1.000
    H34      H        0.76830    0.44700    0.30240    1.000
    C58      C        0.93740    0.54200    0.47520    1.000
    H35      H        0.92710    0.53720    0.50000    1.000
    C59      C        0.65042    0.41790    0.16823    1.000
    H36      H        0.65630    0.35910    0.16330    1.000
    C60      C        0.08350    0.63800    0.34540    1.000
    H37      H        0.05900    0.61100    0.33980    1.000
    C61      C        0.66683    0.86770    0.25390    1.000
    H38      H        0.64840    0.83220    0.23590    1.000
    C62      C        0.03691    0.96070    0.54577    1.000
    H39      H        0.01850    0.97530    0.56200    1.000
    C63      C        0.82323    0.56180    0.39860    1.000
    H40      H        0.83730    0.59070    0.42330    1.000
    C64      C        0.09048    0.91920    0.49810    1.000
    H41      H        0.10920    0.90690    0.48200    1.000
    C65      C        0.13240    0.72590    0.39000    1.000
    H42      H        0.14140    0.76040    0.41470    1.000
    C66      C        0.72598    0.88550    0.30750    1.000
    H43      H        0.74810    0.86230    0.32600    1.000
    C67      C        0.09410    0.99260    0.52460    1.000
    H44      H        0.11550    0.02980    0.52570    1.000
    C68      C        0.10820    0.62720    0.31700    1.000
    H45      H        0.09980    0.59350    0.29190    1.000
    C69      C        0.96880    0.59760    0.47664    1.000
    H46      H        0.97850    0.63110    0.50150    1.000
    C70      C        0.93500    0.50990    0.40480    1.000
    H47      H        0.92290    0.48050    0.37940    1.000
    C71      C        0.96600    0.56560    0.40280    1.000
    H48      H        0.97330    0.57710    0.37660    1.000
    C72      C        0.68975    0.60240    0.24602    1.000
    I18      I        0.02944    0.16560    0.62076    1.000
    I19      I        0.13116    0.22197    0.56101    1.000
    I20      I        0.64555    0.19240    0.21061    1.000
    I21      I        0.87470    0.25970    0.42100    1.000
    I22      I        0.74940    0.22960    0.31680    1.000
    I23      I        0.23856    0.26580    0.80440    1.000
    I24      I        0.13202    0.32340    0.70148    1.000
    I25      I        0.35273    0.07336    0.00997    1.000
    I26      I        0.61501    0.26548    0.06319    1.000
    I27      I        0.52031    0.36287    0.12901    1.000
    I28      I        0.38912    0.23395    0.90531    1.000
    Zn7      Zn       0.17717    0.35158    0.77826    1.000
    Zn8      Zn       0.37387    0.08677    0.93790    1.000
    Zn9      Zn       0.58092    0.38559    0.09415    1.000
    N25      N        0.18793    0.48710    0.78026    1.000
    N26      N        0.56837    0.48690    0.04874    1.000
    N27      N        0.33186    0.02280    0.89202    1.000
    N28      N        0.21984    0.93960    0.77161    1.000
    N29      N        0.18089    0.81210    0.74916    1.000
    N30      N        0.11961    0.04450    0.64173    1.000
    N31      N        0.23640    0.80190    0.80793    1.000
    N32      N        0.42139    0.00460    0.94085    1.000
    N33      N        0.64339    0.83700    0.82423    1.000
    N34      N        0.57743    0.72600    0.93997    1.000
    N35      N        0.52485    0.77180    0.97112    1.000
    C73      C        0.24127    0.88880    0.80271    1.000
    C74      C        0.27307    0.93480    0.83390    1.000
    N36      N        0.53984    0.85180    0.91134    1.000
    C75      C        0.19970    0.66990    0.78091    1.000
    C76      C        0.16220    0.54100    0.75460    1.000
    H49      H        0.14030    0.51590    0.73650    1.000
    C77      C        0.20624    0.76740    0.77961    1.000
    C78      C        0.16513    0.94960    0.71008    1.000
    C79      C        0.11150    0.96020    0.64960    1.000
    H50      H        0.08980    0.93380    0.63180    1.000
    C80      C        0.55869    0.63640    0.99571    1.000
    C81      C        0.65572    0.78960    0.86070    1.000
    H51      H        0.68090    0.76630    0.86630    1.000
    C82      C        0.17376    0.03760    0.70228    1.000
    H52      H        0.19510    0.06580    0.71990    1.000
    C83      C        0.55360    0.71620    0.96756    1.000
    C84      C        0.56965    0.79550    0.91328    1.000
    C85      C        0.51890    0.83680    0.94174    1.000
    C86      C        0.31192    0.06390    0.85637    1.000
    H53      H        0.31830    0.12240    0.85120    1.000
    C87      C        0.53079    0.61410    0.01950    1.000
    H54      H        0.50850    0.64870    0.01780    1.000
    C88      C        0.21900    0.52380    0.80630    1.000
    H55      H        0.23670    0.48700    0.82450    1.000
    C89      C        0.13353    0.91020    0.68280    1.000
    H56      H        0.12720    0.85120    0.68680    1.000
    C90      C        0.48559    0.89640    0.94170    1.000
    C91      C        0.29440    0.89200    0.87054    1.000
    H57      H        0.28930    0.83290    0.87610    1.000
    C92      C        0.59556    0.81050    0.88226    1.000
    C93      C        0.28204    0.02250    0.82667    1.000
    H58      H        0.26830    0.05300    0.80240    1.000
    C94      C        0.43740    0.95800    0.97520    1.000
    H59      H        0.42710    0.96280    0.00000    1.000
    C95      C        0.15042    0.08210    0.66823    1.000
    H60      H        0.15630    0.14090    0.66330    1.000
    C96      C        0.58350    0.86200    0.84540    1.000
    H61      H        0.55900    0.88900    0.83980    1.000
    C97      C        0.16683    0.63230    0.75390    1.000
    H62      H        0.14840    0.66780    0.73590    1.000
    C98      C        0.53691    0.53930    0.04577    1.000
    H63      H        0.51850    0.52470    0.06200    1.000
    C99      C        0.32323    0.93820    0.89860    1.000
    H64      H        0.33730    0.90930    0.92330    1.000
    C100     C        0.59048    0.58080    0.99810    1.000
    H65      H        0.60920    0.59310    0.98200    1.000
    C101     C        0.63240    0.77410    0.89000    1.000
    H66      H        0.64140    0.73960    0.91470    1.000
    C102     C        0.22598    0.61450    0.80750    1.000
    H67      H        0.24810    0.63770    0.82600    1.000
    C103     C        0.59410    0.50740    0.02460    1.000
    H68      H        0.61550    0.47020    0.02570    1.000
    C104     C        0.60820    0.87280    0.81700    1.000
    H69      H        0.59980    0.90650    0.79190    1.000
    C105     C        0.46880    0.90240    0.97664    1.000
    H70      H        0.47850    0.86890    0.00150    1.000
    C106     C        0.43500    0.99010    0.90480    1.000
    H71      H        0.42290    0.01950    0.87940    1.000
    C107     C        0.46600    0.93440    0.90280    1.000
    H72      H        0.47330    0.92290    0.87660    1.000
    C108     C        0.18975    0.89760    0.74602    1.000
    I29      I        0.52944    0.33440    0.12076    1.000
    I30      I        0.63116    0.27803    0.06101    1.000
    I31      I        0.14555    0.30760    0.71061    1.000
    I32      I        0.37470    0.24030    0.92100    1.000
    I33      I        0.24940    0.27040    0.81680    1.000
    I34      I        0.73856    0.76580    0.80440    1.000
    I35      I        0.63202    0.82340    0.70148    1.000
    I36      I        0.85273    0.57336    0.00997    1.000
    I37      I        0.11501    0.76548    0.06319    1.000
    I38      I        0.02031    0.86287    0.12901    1.000
    I39      I        0.88912    0.73395    0.90531    1.000
    Zn10     Zn       0.67717    0.85158    0.77826    1.000
    Zn11     Zn       0.87387    0.58677    0.93790    1.000
    Zn12     Zn       0.08092    0.88559    0.09415    1.000
    N37      N        0.68793    0.98710    0.78026    1.000
    N38      N        0.06837    0.98690    0.04874    1.000
    N39      N        0.83186    0.52280    0.89202    1.000
    N40      N        0.71984    0.43960    0.77161    1.000
    N41      N        0.68089    0.31210    0.74916    1.000
    N42      N        0.61961    0.54450    0.64173    1.000
    N43      N        0.73640    0.30190    0.80793    1.000
    N44      N        0.92139    0.50460    0.94085    1.000
    N45      N        0.14339    0.33700    0.82423    1.000
    N46      N        0.07743    0.22600    0.93997    1.000
    N47      N        0.02485    0.27180    0.97112    1.000
    C109     C        0.74127    0.38880    0.80271    1.000
    C110     C        0.77307    0.43480    0.83390    1.000
    N48      N        0.03984    0.35180    0.91134    1.000
    C111     C        0.69970    0.16990    0.78091    1.000
    C112     C        0.66220    0.04100    0.75460    1.000
    H73      H        0.64030    0.01590    0.73650    1.000
    C113     C        0.70624    0.26740    0.77961    1.000
    C114     C        0.66513    0.44960    0.71008    1.000
    C115     C        0.61150    0.46020    0.64960    1.000
    H74      H        0.58980    0.43380    0.63180    1.000
    C116     C        0.05869    0.13640    0.99571    1.000
    C117     C        0.15572    0.28960    0.86070    1.000
    H75      H        0.18090    0.26630    0.86630    1.000
    C118     C        0.67376    0.53760    0.70228    1.000
    H76      H        0.69510    0.56580    0.71990    1.000
    C119     C        0.05360    0.21620    0.96756    1.000
    C120     C        0.06965    0.29550    0.91328    1.000
    C121     C        0.01890    0.33680    0.94174    1.000
    C122     C        0.81192    0.56390    0.85637    1.000
    H77      H        0.81830    0.62240    0.85120    1.000
    C123     C        0.03079    0.11410    0.01950    1.000
    H78      H        0.00850    0.14870    0.01780    1.000
    C124     C        0.71900    0.02380    0.80630    1.000
    H79      H        0.73670    0.98700    0.82450    1.000
    C125     C        0.63353    0.41020    0.68280    1.000
    H80      H        0.62720    0.35120    0.68680    1.000
    C126     C        0.98559    0.39640    0.94170    1.000
    C127     C        0.79440    0.39200    0.87054    1.000
    H81      H        0.78930    0.33290    0.87610    1.000
    C128     C        0.09556    0.31050    0.88226    1.000
    C129     C        0.78204    0.52250    0.82667    1.000
    H82      H        0.76830    0.55300    0.80240    1.000
    C130     C        0.93740    0.45800    0.97520    1.000
    H83      H        0.92710    0.46280    0.00000    1.000
    C131     C        0.65042    0.58210    0.66823    1.000
    H84      H        0.65630    0.64090    0.66330    1.000
    C132     C        0.08350    0.36200    0.84540    1.000
    H85      H        0.05900    0.38900    0.83980    1.000
    C133     C        0.66683    0.13230    0.75390    1.000
    H86      H        0.64840    0.16780    0.73590    1.000
    C134     C        0.03691    0.03930    0.04577    1.000
    H87      H        0.01850    0.02470    0.06200    1.000
    C135     C        0.82323    0.43820    0.89860    1.000
    H88      H        0.83730    0.40930    0.92330    1.000
    C136     C        0.09048    0.08080    0.99810    1.000
    H89      H        0.10920    0.09310    0.98200    1.000
    C137     C        0.13240    0.27410    0.89000    1.000
    H90      H        0.14140    0.23960    0.91470    1.000
    C138     C        0.72598    0.11450    0.80750    1.000
    H91      H        0.74810    0.13770    0.82600    1.000
    C139     C        0.09410    0.00740    0.02460    1.000
    H92      H        0.11550    0.97020    0.02570    1.000
    C140     C        0.10820    0.37280    0.81700    1.000
    H93      H        0.09980    0.40650    0.79190    1.000
    C141     C        0.96880    0.40240    0.97664    1.000
    H94      H        0.97850    0.36890    0.00150    1.000
    C142     C        0.93500    0.49010    0.90480    1.000
    H95      H        0.92290    0.51950    0.87940    1.000
    C143     C        0.96600    0.43440    0.90280    1.000
    H96      H        0.97330    0.42290    0.87660    1.000
    C144     C        0.68975    0.39760    0.74602    1.000
    I40      I        0.02944    0.83440    0.12076    1.000
    I41      I        0.13116    0.77803    0.06101    1.000
    I42      I        0.64555    0.80760    0.71061    1.000
    I43      I        0.87470    0.74030    0.92100    1.000
    I44      I        0.74940    0.77040    0.81680    1.000
    I45      I        0.76144    0.73420    0.19560    1.000
    I46      I        0.86798    0.67660    0.29852    1.000
    I47      I        0.64727    0.92664    0.99003    1.000
    I48      I        0.38499    0.73452    0.93681    1.000
    I49      I        0.47969    0.63713    0.87099    1.000
    I50      I        0.61088    0.76605    0.09469    1.000
    Zn13     Zn       0.82283    0.64842    0.22174    1.000
    Zn14     Zn       0.62613    0.91323    0.06210    1.000
    Zn15     Zn       0.41908    0.61441    0.90585    1.000
    N49      N        0.81207    0.51290    0.21974    1.000
    N50      N        0.43163    0.51310    0.95126    1.000
    N51      N        0.66814    0.97720    0.10798    1.000
    N52      N        0.78016    0.06040    0.22839    1.000
    N53      N        0.81911    0.18790    0.25084    1.000
    N54      N        0.88039    0.95550    0.35827    1.000
    N55      N        0.76360    0.19810    0.19207    1.000
    N56      N        0.57861    0.99540    0.05915    1.000
    N57      N        0.35661    0.16300    0.17577    1.000
    N58      N        0.42257    0.27400    0.06003    1.000
    N59      N        0.47515    0.22820    0.02888    1.000
    C145     C        0.75873    0.11120    0.19729    1.000
    C146     C        0.72693    0.06520    0.16610    1.000
    N60      N        0.46016    0.14820    0.08866    1.000
    C147     C        0.80030    0.33010    0.21909    1.000
    C148     C        0.83780    0.45900    0.24540    1.000
    H97      H        0.85970    0.48410    0.26350    1.000
    C149     C        0.79376    0.23260    0.22039    1.000
    C150     C        0.83487    0.05040    0.28992    1.000
    C151     C        0.88850    0.03980    0.35040    1.000
    H98      H        0.91020    0.06620    0.36820    1.000
    C152     C        0.44131    0.36360    0.00429    1.000
    C153     C        0.34428    0.21040    0.13930    1.000
    H99      H        0.31910    0.23370    0.13370    1.000
    C154     C        0.82624    0.96240    0.29772    1.000
    H100     H        0.80490    0.93420    0.28010    1.000
    C155     C        0.44640    0.28380    0.03244    1.000
    C156     C        0.43035    0.20450    0.08672    1.000
    C157     C        0.48110    0.16320    0.05826    1.000
    C158     C        0.68808    0.93610    0.14363    1.000
    H101     H        0.68170    0.87760    0.14880    1.000
    C159     C        0.46921    0.38590    0.98050    1.000
    H102     H        0.49150    0.35130    0.98220    1.000
    C160     C        0.78100    0.47620    0.19370    1.000
    H103     H        0.76330    0.51300    0.17550    1.000
    C161     C        0.86647    0.08980    0.31720    1.000
    H104     H        0.87280    0.14880    0.31320    1.000
    C162     C        0.51441    0.10360    0.05830    1.000
    C163     C        0.70560    0.10800    0.12946    1.000
    H105     H        0.71070    0.16710    0.12390    1.000
    C164     C        0.40444    0.18950    0.11774    1.000
    C165     C        0.71796    0.97750    0.17333    1.000
    H106     H        0.73170    0.94700    0.19760    1.000
    C166     C        0.56260    0.04200    0.02480    1.000
    H107     H        0.57290    0.03720    0.00000    1.000
    C167     C        0.84958    0.91790    0.33177    1.000
    H108     H        0.84370    0.85910    0.33670    1.000
    C168     C        0.41650    0.13800    0.15460    1.000
    H109     H        0.44100    0.11100    0.16020    1.000
    C169     C        0.83317    0.36770    0.24610    1.000
    H110     H        0.85160    0.33220    0.26410    1.000
    C170     C        0.46309    0.46070    0.95423    1.000
    H111     H        0.48150    0.47530    0.93800    1.000
    C171     C        0.67677    0.06180    0.10140    1.000
    H112     H        0.66270    0.09070    0.07670    1.000
    C172     C        0.40952    0.41920    0.00190    1.000
    H113     H        0.39080    0.40690    0.01800    1.000
    C173     C        0.36760    0.22590    0.11000    1.000
    H114     H        0.35860    0.26040    0.08530    1.000
    C174     C        0.77402    0.38550    0.19250    1.000
    H115     H        0.75190    0.36230    0.17400    1.000
    C175     C        0.40590    0.49260    0.97540    1.000
    H116     H        0.38450    0.52980    0.97430    1.000
    C176     C        0.39180    0.12720    0.18300    1.000
    H117     H        0.40020    0.09350    0.20810    1.000
    C177     C        0.53120    0.09760    0.02336    1.000
    H118     H        0.52150    0.13110    0.99850    1.000
    C178     C        0.56500    0.00990    0.09520    1.000
    H119     H        0.57710    0.98050    0.12060    1.000
    C179     C        0.53400    0.06560    0.09720    1.000
    H120     H        0.52670    0.07710    0.12340    1.000
    C180     C        0.81025    0.10240    0.25398    1.000
    I51      I        0.47056    0.66560    0.87924    1.000
    I52      I        0.36884    0.72197    0.93899    1.000
    I53      I        0.85445    0.69240    0.28939    1.000
    I54      I        0.62530    0.75970    0.07900    1.000
    I55      I        0.75060    0.72960    0.18320    1.000
    I56      I        0.26144    0.23420    0.19560    1.000
    I57      I        0.36798    0.17660    0.29852    1.000
    I58      I        0.14727    0.42664    0.99003    1.000
    I59      I        0.88499    0.23452    0.93681    1.000
    I60      I        0.97969    0.13713    0.87099    1.000
    I61      I        0.11088    0.26605    0.09469    1.000
    Zn16     Zn       0.32283    0.14842    0.22174    1.000
    Zn17     Zn       0.12613    0.41323    0.06210    1.000
    Zn18     Zn       0.91908    0.11441    0.90585    1.000
    N61      N        0.31207    0.01290    0.21974    1.000
    N62      N        0.93163    0.01310    0.95126    1.000
    N63      N        0.16814    0.47720    0.10798    1.000
    N64      N        0.28016    0.56040    0.22839    1.000
    N65      N        0.31911    0.68790    0.25084    1.000
    N66      N        0.38039    0.45550    0.35827    1.000
    N67      N        0.26360    0.69810    0.19207    1.000
    N68      N        0.07861    0.49540    0.05915    1.000
    N69      N        0.85661    0.66300    0.17577    1.000
    N70      N        0.92257    0.77400    0.06003    1.000
    N71      N        0.97515    0.72820    0.02888    1.000
    C181     C        0.25873    0.61120    0.19729    1.000
    C182     C        0.22693    0.56520    0.16610    1.000
    N72      N        0.96016    0.64820    0.08866    1.000
    C183     C        0.30030    0.83010    0.21909    1.000
    C184     C        0.33780    0.95900    0.24540    1.000
    H121     H        0.35970    0.98410    0.26350    1.000
    C185     C        0.29376    0.73260    0.22039    1.000
    C186     C        0.33487    0.55040    0.28992    1.000
    C187     C        0.38850    0.53980    0.35040    1.000
    H122     H        0.41020    0.56620    0.36820    1.000
    C188     C        0.94131    0.86360    0.00429    1.000
    C189     C        0.84428    0.71040    0.13930    1.000
    H123     H        0.81910    0.73370    0.13370    1.000
    C190     C        0.32624    0.46240    0.29772    1.000
    H124     H        0.30490    0.43420    0.28010    1.000
    C191     C        0.94640    0.78380    0.03244    1.000
    C192     C        0.93035    0.70450    0.08672    1.000
    C193     C        0.98110    0.66320    0.05826    1.000
    C194     C        0.18808    0.43610    0.14363    1.000
    H125     H        0.18170    0.37760    0.14880    1.000
    C195     C        0.96921    0.88590    0.98050    1.000
    H126     H        0.99150    0.85130    0.98220    1.000
    C196     C        0.28100    0.97620    0.19370    1.000
    H127     H        0.26330    0.01300    0.17550    1.000
    C197     C        0.36647    0.58980    0.31720    1.000
    H128     H        0.37280    0.64880    0.31320    1.000
    C198     C        0.01441    0.60360    0.05830    1.000
    C199     C        0.20560    0.60800    0.12946    1.000
    H129     H        0.21070    0.66710    0.12390    1.000
    C200     C        0.90444    0.68950    0.11774    1.000
    C201     C        0.21796    0.47750    0.17333    1.000
    H130     H        0.23170    0.44700    0.19760    1.000
    C202     C        0.06260    0.54200    0.02480    1.000
    H131     H        0.07290    0.53720    0.00000    1.000
    C203     C        0.34958    0.41790    0.33177    1.000
    H132     H        0.34370    0.35910    0.33670    1.000
    C204     C        0.91650    0.63800    0.15460    1.000
    H133     H        0.94100    0.61100    0.16020    1.000
    C205     C        0.33317    0.86770    0.24610    1.000
    H134     H        0.35160    0.83220    0.26410    1.000
    C206     C        0.96309    0.96070    0.95423    1.000
    H135     H        0.98150    0.97530    0.93800    1.000
    C207     C        0.17677    0.56180    0.10140    1.000
    H136     H        0.16270    0.59070    0.07670    1.000
    C208     C        0.90952    0.91920    0.00190    1.000
    H137     H        0.89080    0.90690    0.01800    1.000
    C209     C        0.86760    0.72590    0.11000    1.000
    H138     H        0.85860    0.76040    0.08530    1.000
    C210     C        0.27402    0.88550    0.19250    1.000
    H139     H        0.25190    0.86230    0.17400    1.000
    C211     C        0.90590    0.99260    0.97540    1.000
    H140     H        0.88450    0.02980    0.97430    1.000
    C212     C        0.89180    0.62720    0.18300    1.000
    H141     H        0.90020    0.59350    0.20810    1.000
    C213     C        0.03120    0.59760    0.02336    1.000
    H142     H        0.02150    0.63110    0.99850    1.000
    C214     C        0.06500    0.50990    0.09520    1.000
    H143     H        0.07710    0.48050    0.12060    1.000
    C215     C        0.03400    0.56560    0.09720    1.000
    H144     H        0.02670    0.57710    0.12340    1.000
    C216     C        0.31025    0.60240    0.25398    1.000
    I62      I        0.97056    0.16560    0.87924    1.000
    I63      I        0.86884    0.22197    0.93899    1.000
    I64      I        0.35445    0.19240    0.28939    1.000
    I65      I        0.12530    0.25970    0.07900    1.000
    I66      I        0.25060    0.22960    0.18320    1.000
    I67      I        0.76144    0.26580    0.69560    1.000
    I68      I        0.86798    0.32340    0.79852    1.000
    I69      I        0.64727    0.07336    0.49003    1.000
    I70      I        0.38499    0.26548    0.43681    1.000
    I71      I        0.47969    0.36287    0.37099    1.000
    I72      I        0.61088    0.23395    0.59469    1.000
    Zn19     Zn       0.82283    0.35158    0.72174    1.000
    Zn20     Zn       0.62613    0.08677    0.56210    1.000
    Zn21     Zn       0.41908    0.38559    0.40585    1.000
    N73      N        0.81207    0.48710    0.71974    1.000
    N74      N        0.43163    0.48690    0.45126    1.000
    N75      N        0.66814    0.02280    0.60798    1.000
    N76      N        0.78016    0.93960    0.72839    1.000
    N77      N        0.81911    0.81210    0.75084    1.000
    N78      N        0.88039    0.04450    0.85827    1.000
    N79      N        0.76360    0.80190    0.69207    1.000
    N80      N        0.57861    0.00460    0.55915    1.000
    N81      N        0.35661    0.83700    0.67577    1.000
    N82      N        0.42257    0.72600    0.56003    1.000
    N83      N        0.47515    0.77180    0.52888    1.000
    C217     C        0.75873    0.88880    0.69729    1.000
    C218     C        0.72693    0.93480    0.66610    1.000
    N84      N        0.46016    0.85180    0.58866    1.000
    C219     C        0.80030    0.66990    0.71909    1.000
    C220     C        0.83780    0.54100    0.74540    1.000
    H145     H        0.85970    0.51590    0.76350    1.000
    C221     C        0.79376    0.76740    0.72039    1.000
    C222     C        0.83487    0.94960    0.78992    1.000
    C223     C        0.88850    0.96020    0.85040    1.000
    H146     H        0.91020    0.93380    0.86820    1.000
    C224     C        0.44131    0.63640    0.50429    1.000
    C225     C        0.34428    0.78960    0.63930    1.000
    H147     H        0.31910    0.76630    0.63370    1.000
    C226     C        0.82624    0.03760    0.79772    1.000
    H148     H        0.80490    0.06580    0.78010    1.000
    C227     C        0.44640    0.71620    0.53244    1.000
    C228     C        0.43035    0.79550    0.58672    1.000
    C229     C        0.48110    0.83680    0.55826    1.000
    C230     C        0.68808    0.06390    0.64363    1.000
    H149     H        0.68170    0.12240    0.64880    1.000
    C231     C        0.46921    0.61410    0.48050    1.000
    H150     H        0.49150    0.64870    0.48220    1.000
    C232     C        0.78100    0.52380    0.69370    1.000
    H151     H        0.76330    0.48700    0.67550    1.000
    C233     C        0.86647    0.91020    0.81720    1.000
    H152     H        0.87280    0.85120    0.81320    1.000
    C234     C        0.51441    0.89640    0.55830    1.000
    C235     C        0.70560    0.89200    0.62946    1.000
    H153     H        0.71070    0.83290    0.62390    1.000
    C236     C        0.40444    0.81050    0.61774    1.000
    C237     C        0.71796    0.02250    0.67333    1.000
    H154     H        0.73170    0.05300    0.69760    1.000
    C238     C        0.56260    0.95800    0.52480    1.000
    H155     H        0.57290    0.96280    0.50000    1.000
    C239     C        0.84958    0.08210    0.83177    1.000
    H156     H        0.84370    0.14090    0.83670    1.000
    C240     C        0.41650    0.86200    0.65460    1.000
    H157     H        0.44100    0.88900    0.66020    1.000
    C241     C        0.83317    0.63230    0.74610    1.000
    H158     H        0.85160    0.66780    0.76410    1.000
    C242     C        0.46309    0.53930    0.45423    1.000
    H159     H        0.48150    0.52470    0.43800    1.000
    C243     C        0.67677    0.93820    0.60140    1.000
    H160     H        0.66270    0.90930    0.57670    1.000
    C244     C        0.40952    0.58080    0.50190    1.000
    H161     H        0.39080    0.59310    0.51800    1.000
    C245     C        0.36760    0.77410    0.61000    1.000
    H162     H        0.35860    0.73960    0.58530    1.000
    C246     C        0.77402    0.61450    0.69250    1.000
    H163     H        0.75190    0.63770    0.67400    1.000
    C247     C        0.40590    0.50740    0.47540    1.000
    H164     H        0.38450    0.47020    0.47430    1.000
    C248     C        0.39180    0.87280    0.68300    1.000
    H165     H        0.40020    0.90650    0.70810    1.000
    C249     C        0.53120    0.90240    0.52336    1.000
    H166     H        0.52150    0.86890    0.49850    1.000
    C250     C        0.56500    0.99010    0.59520    1.000
    H167     H        0.57710    0.01950    0.62060    1.000
    C251     C        0.53400    0.93440    0.59720    1.000
    H168     H        0.52670    0.92290    0.62340    1.000
    C252     C        0.81025    0.89760    0.75398    1.000
    I73      I        0.47056    0.33440    0.37924    1.000
    I74      I        0.36884    0.27803    0.43899    1.000
    I75      I        0.85445    0.30760    0.78939    1.000
    I76      I        0.62530    0.24030    0.57900    1.000
    I77      I        0.75060    0.27040    0.68320    1.000
    I78      I        0.26144    0.76580    0.69560    1.000
    I79      I        0.36798    0.82340    0.79852    1.000
    I80      I        0.14727    0.57336    0.49003    1.000
    I81      I        0.88499    0.76548    0.43681    1.000
    I82      I        0.97969    0.86287    0.37099    1.000
    I83      I        0.11088    0.73395    0.59469    1.000
    Zn22     Zn       0.32283    0.85158    0.72174    1.000
    Zn23     Zn       0.12613    0.58677    0.56210    1.000
    Zn24     Zn       0.91908    0.88559    0.40585    1.000
    N85      N        0.31207    0.98710    0.71974    1.000
    N86      N        0.93163    0.98690    0.45126    1.000
    N87      N        0.16814    0.52280    0.60798    1.000
    N88      N        0.28016    0.43960    0.72839    1.000
    N89      N        0.31911    0.31210    0.75084    1.000
    N90      N        0.38039    0.54450    0.85827    1.000
    N91      N        0.26360    0.30190    0.69207    1.000
    N92      N        0.07861    0.50460    0.55915    1.000
    N93      N        0.85661    0.33700    0.67577    1.000
    N94      N        0.92257    0.22600    0.56003    1.000
    N95      N        0.97515    0.27180    0.52888    1.000
    C253     C        0.25873    0.38880    0.69729    1.000
    C254     C        0.22693    0.43480    0.66610    1.000
    N96      N        0.96016    0.35180    0.58866    1.000
    C255     C        0.30030    0.16990    0.71909    1.000
    C256     C        0.33780    0.04100    0.74540    1.000
    H169     H        0.35970    0.01590    0.76350    1.000
    C257     C        0.29376    0.26740    0.72039    1.000
    C258     C        0.33487    0.44960    0.78992    1.000
    C259     C        0.38850    0.46020    0.85040    1.000
    H170     H        0.41020    0.43380    0.86820    1.000
    C260     C        0.94131    0.13640    0.50429    1.000
    C261     C        0.84428    0.28960    0.63930    1.000
    H171     H        0.81910    0.26630    0.63370    1.000
    C262     C        0.32624    0.53760    0.79772    1.000
    H172     H        0.30490    0.56580    0.78010    1.000
    C263     C        0.94640    0.21620    0.53244    1.000
    C264     C        0.93035    0.29550    0.58672    1.000
    C265     C        0.98110    0.33680    0.55826    1.000
    C266     C        0.18808    0.56390    0.64363    1.000
    H173     H        0.18170    0.62240    0.64880    1.000
    C267     C        0.96921    0.11410    0.48050    1.000
    H174     H        0.99150    0.14870    0.48220    1.000
    C268     C        0.28100    0.02380    0.69370    1.000
    H175     H        0.26330    0.98700    0.67550    1.000
    C269     C        0.36647    0.41020    0.81720    1.000
    H176     H        0.37280    0.35120    0.81320    1.000
    C270     C        0.01441    0.39640    0.55830    1.000
    C271     C        0.20560    0.39200    0.62946    1.000
    H177     H        0.21070    0.33290    0.62390    1.000
    C272     C        0.90444    0.31050    0.61774    1.000
    C273     C        0.21796    0.52250    0.67333    1.000
    H178     H        0.23170    0.55300    0.69760    1.000
    C274     C        0.06260    0.45800    0.52480    1.000
    H179     H        0.07290    0.46280    0.50000    1.000
    C275     C        0.34958    0.58210    0.83177    1.000
    H180     H        0.34370    0.64090    0.83670    1.000
    C276     C        0.91650    0.36200    0.65460    1.000
    H181     H        0.94100    0.38900    0.66020    1.000
    C277     C        0.33317    0.13230    0.74610    1.000
    H182     H        0.35160    0.16780    0.76410    1.000
    C278     C        0.96309    0.03930    0.45423    1.000
    H183     H        0.98150    0.02470    0.43800    1.000
    C279     C        0.17677    0.43820    0.60140    1.000
    H184     H        0.16270    0.40930    0.57670    1.000
    C280     C        0.90952    0.08080    0.50190    1.000
    H185     H        0.89080    0.09310    0.51800    1.000
    C281     C        0.86760    0.27410    0.61000    1.000
    H186     H        0.85860    0.23960    0.58530    1.000
    C282     C        0.27402    0.11450    0.69250    1.000
    H187     H        0.25190    0.13770    0.67400    1.000
    C283     C        0.90590    0.00740    0.47540    1.000
    H188     H        0.88450    0.97020    0.47430    1.000
    C284     C        0.89180    0.37280    0.68300    1.000
    H189     H        0.90020    0.40650    0.70810    1.000
    C285     C        0.03120    0.40240    0.52336    1.000
    H190     H        0.02150    0.36890    0.49850    1.000
    C286     C        0.06500    0.49010    0.59520    1.000
    H191     H        0.07710    0.51950    0.62060    1.000
    C287     C        0.03400    0.43440    0.59720    1.000
    H192     H        0.02670    0.42290    0.62340    1.000
    C288     C        0.31025    0.39760    0.75398    1.000
    I84      I        0.97056    0.83440    0.37924    1.000
    I85      I        0.86884    0.77803    0.43899    1.000
    I86      I        0.35445    0.80760    0.78939    1.000
    I87      I        0.12530    0.74030    0.57900    1.000
    I88      I        0.25060    0.77040    0.68320    1.000
