data_functionalizedCrystal
_audit_creation_method	'EQeq! by Chris Wilmer'
_symmetry_space_group_name_H-M	'P1'
_symmetry_Int_Tables_number	1
_symmetry_cell_setting	triclinic
loop_
_symmetry_equiv_pos_as_xyz
  x,y,z
_cell_length_a	14.061
_cell_length_b	27.192
_cell_length_c	7.59
_cell_angle_alpha	90
_cell_angle_beta	90
_cell_angle_gamma	90
loop_
_atom_site_label
_atom_site_type_symbol
_atom_site_fract_x
_atom_site_fract_y
_atom_site_fract_z
_atom_site_charge
Mof_Cd	Cd	0.21473	0.11592	0.1214	0.341
Mof_N 	N 	0.24	0.172	0.893	-0.059
Mof_N 	N 	0.247	0.1725	0.328	-0.085
Mof_N 	N 	0.16	0.0567	0.338	-0.067
Mof_N 	N 	0.361	0.077	0.117	-0.074
Mof_N 	N 	0.172	0.057	0.899	-0.104
Mof_N 	N 	0.051	0.1272	0.075	-0.156
Mof_C 	C 	0.243	0.2018	0.786	-0.194
Mof_C 	C 	0.252	0.2013	0.435	-0.187
Mof_C 	C 	0.101	0.0356	0.403	-0.263
Mof_C 	C 	0.414	0.0486	0.072	-0.255
Mof_C 	C 	0.073	0.058	0.878	-0.026
Mof_C 	C 	0.016	0.092	0.939	0.001
Mof_C 	C 	0.91	0.0926	0.909	0.056
Mof_Cd	Cd	0.28527	0.88408	0.6214	0.389
Mof_N 	N 	0.26	0.828	0.393	-0.077
Mof_N 	N 	0.253	0.8275	0.828	-0.085
Mof_N 	N 	0.34	0.9433	0.838	-0.065
Mof_N 	N 	0.139	0.923	0.617	-0.072
Mof_N 	N 	0.328	0.943	0.399	-0.11
Mof_N 	N 	0.449	0.8728	0.575	-0.114
Mof_C 	C 	0.257	0.7982	0.286	-0.219
Mof_C 	C 	0.248	0.7987	0.935	-0.144
Mof_C 	C 	0.399	0.9644	0.903	-0.147
Mof_C 	C 	0.086	0.9514	0.572	-0.208
Mof_C 	C 	0.427	0.942	0.378	-0.007
Mof_C 	C 	0.484	0.908	0.439	0.031
Mof_C 	C 	0.59	0.9074	0.409	-0.02
Mof_Cd	Cd	0.78527	0.61592	0.8786	0.424
Mof_N 	N 	0.76	0.672	0.107	-0.092
Mof_N 	N 	0.753	0.6725	0.672	-0.075
Mof_N 	N 	0.84	0.5567	0.662	-0.068
Mof_N 	N 	0.639	0.577	0.883	-0.07
Mof_N 	N 	0.828	0.557	0.101	-0.13
Mof_N 	N 	0.949	0.6272	0.925	-0.078
Mof_C 	C 	0.757	0.7018	0.214	-0.203
Mof_C 	C 	0.748	0.7013	0.565	-0.174
Mof_C 	C 	0.899	0.5356	0.597	-0.17
Mof_C 	C 	0.586	0.5486	0.928	-0.174
Mof_C 	C 	0.927	0.558	0.122	-0.017
Mof_C 	C 	0.984	0.592	0.061	0.073
Mof_C 	C 	0.09	0.5926	0.091	-0.115
Mof_Cd	Cd	0.71473	0.38408	0.3786	0.383
Mof_N 	N 	0.74	0.328	0.607	-0.073
Mof_N 	N 	0.747	0.3275	0.172	-0.076
Mof_N 	N 	0.66	0.4433	0.162	-0.067
Mof_N 	N 	0.861	0.423	0.383	-0.076
Mof_N 	N 	0.672	0.443	0.601	-0.11
Mof_N 	N 	0.551	0.3728	0.425	-0.119
Mof_C 	C 	0.743	0.2982	0.714	-0.179
Mof_C 	C 	0.752	0.2987	0.065	-0.21
Mof_C 	C 	0.601	0.4644	0.097	-0.239
Mof_C 	C 	0.914	0.4514	0.428	-0.168
Mof_C 	C 	0.573	0.442	0.622	-0.005
Mof_C 	C 	0.516	0.408	0.561	0.035
Mof_C 	C 	0.41	0.4074	0.591	-0.014
Mof_Cd	Cd	0.78527	0.88408	0.8786	0.428
Mof_N 	N 	0.76	0.828	0.107	-0.092
Mof_N 	N 	0.753	0.8275	0.672	-0.075
Mof_N 	N 	0.84	0.9433	0.662	-0.069
Mof_N 	N 	0.639	0.923	0.883	-0.073
Mof_N 	N 	0.828	0.943	0.101	-0.123
Mof_N 	N 	0.949	0.8728	0.925	-0.077
Mof_C 	C 	0.757	0.7982	0.214	-0.203
Mof_C 	C 	0.748	0.7987	0.565	-0.174
Mof_C 	C 	0.899	0.9644	0.597	-0.139
Mof_C 	C 	0.586	0.9514	0.928	-0.146
Mof_C 	C 	0.927	0.942	0.122	0
Mof_C 	C 	0.984	0.908	0.061	0.069
Mof_C 	C 	0.09	0.9074	0.091	-0.103
Mof_Cd	Cd	0.71473	0.11592	0.3786	0.379
Mof_N 	N 	0.74	0.172	0.607	-0.073
Mof_N 	N 	0.747	0.1725	0.172	-0.077
Mof_N 	N 	0.66	0.0567	0.162	-0.069
Mof_N 	N 	0.861	0.077	0.383	-0.076
Mof_N 	N 	0.672	0.057	0.601	-0.117
Mof_N 	N 	0.551	0.1272	0.425	-0.12
Mof_C 	C 	0.743	0.2018	0.714	-0.179
Mof_C 	C 	0.752	0.2013	0.065	-0.21
Mof_C 	C 	0.601	0.0356	0.097	-0.258
Mof_C 	C 	0.914	0.0486	0.428	-0.186
Mof_C 	C 	0.573	0.058	0.622	-0.021
Mof_C 	C 	0.516	0.092	0.561	0.038
Mof_C 	C 	0.41	0.0926	0.591	-0.025
Mof_Cd	Cd	0.21473	0.38408	0.1214	0.344
Mof_N 	N 	0.24	0.328	0.893	-0.059
Mof_N 	N 	0.247	0.3275	0.328	-0.085
Mof_N 	N 	0.16	0.4433	0.338	-0.065
Mof_N 	N 	0.361	0.423	0.117	-0.074
Mof_N 	N 	0.172	0.443	0.899	-0.097
Mof_N 	N 	0.051	0.3728	0.075	-0.156
Mof_C 	C 	0.243	0.2982	0.786	-0.194
Mof_C 	C 	0.252	0.2987	0.435	-0.187
Mof_C 	C 	0.101	0.4644	0.403	-0.243
Mof_C 	C 	0.414	0.4514	0.072	-0.238
Mof_C 	C 	0.073	0.442	0.878	-0.011
Mof_C 	C 	0.016	0.408	0.939	-0.003
Mof_C 	C 	0.91	0.4074	0.909	0.066
Mof_Cd	Cd	0.28527	0.61592	0.6214	0.384
Mof_N 	N 	0.26	0.672	0.393	-0.077
Mof_N 	N 	0.253	0.6725	0.828	-0.085
Mof_N 	N 	0.34	0.5567	0.838	-0.064
Mof_N 	N 	0.139	0.577	0.617	-0.069
Mof_N 	N 	0.328	0.557	0.399	-0.117
Mof_N 	N 	0.449	0.6272	0.575	-0.115
Mof_C 	C 	0.257	0.7018	0.286	-0.22
Mof_C 	C 	0.248	0.7013	0.935	-0.144
Mof_C 	C 	0.399	0.5356	0.903	-0.178
Mof_C 	C 	0.086	0.5486	0.572	-0.238
Mof_C 	C 	0.427	0.558	0.378	-0.025
Mof_C 	C 	0.484	0.592	0.439	0.035
Mof_C 	C 	0.59	0.5926	0.409	-0.031
Mof_Ni	Ni	0.2501	0.25	0.6104	1.095
Mof_C 	C 	0.13	0.25	0.56	-0.281
Mof_Ni	Ni	0.2499	0.75	0.1104	1.072
Mof_C 	C 	0.37	0.75	0.06	-0.303
Mof_Ni	Ni	0.7499	0.75	0.3896	1.091
Mof_C 	C 	0.87	0.75	0.44	-0.242
Mof_Ni	Ni	0.7501	0.25	0.8896	1.111
Mof_C 	C 	0.63	0.25	0.94	-0.226
Mof_Ni	Ni	1.01195e-33	0	0.5	1.012
Mof_Ni	Ni	0.5	0	-0	1.021
Mof_Ni	Ni	1.01195e-33	0.5	0.5	1.033
Mof_Ni	Ni	0.5	0.5	-0	1.041
_end
