# CIF file generated by openbabel 3.1.0, see https://openbabel.org
data_I
_chemical_name_common 'image0'
_cell_length_a 6.0627
_cell_length_b 10.7122
_cell_length_c 10.3872
_cell_angle_alpha 90
_cell_angle_beta 97.956
_cell_angle_gamma 90
_space_group_name_H-M_alt 'P 1'
_space_group_name_Hall 'P 1'
loop_
    _symmetry_equiv_pos_as_xyz
    x,y,z
loop_
    _atom_site_label
    _atom_site_type_symbol
    _atom_site_fract_x
    _atom_site_fract_y
    _atom_site_fract_z
    _atom_site_occupancy
    Mn1      Mn       0.88642    0.61295    0.40845    1.000
    P1       P        0.03461    0.84356    0.22871    1.000
    H1       H        0.17810    0.80110    0.23000    1.000
    O1       O        0.93280    0.79350    0.34478    1.000
    O2       O        0.89850    0.81073    0.10090    1.000
    O3       O        0.08740    0.98304    0.24742    1.000
    O4       O        0.76920    0.05855    0.01646    1.000
    O5       O        0.51780    0.88335    0.88402    1.000
    C1       C        0.57200    0.05091    0.03926    1.000
    Mn2      Mn       0.11358    0.11295    0.09155    1.000
    P2       P        0.96539    0.34356    0.27129    1.000
    H2       H        0.82190    0.30110    0.27000    1.000
    O6       O        0.06720    0.29350    0.15522    1.000
    O7       O        0.10150    0.31073    0.39910    1.000
    O8       O        0.91260    0.48304    0.25258    1.000
    O9       O        0.23080    0.55855    0.48354    1.000
    O10      O        0.48220    0.38335    0.61598    1.000
    C2       C        0.42800    0.55091    0.46074    1.000
    Mn3      Mn       0.11358    0.38705    0.59155    1.000
    P3       P        0.96539    0.15644    0.77129    1.000
    H3       H        0.82190    0.19890    0.77000    1.000
    O11      O        0.06720    0.20650    0.65522    1.000
    O12      O        0.10150    0.18927    0.89910    1.000
    O13      O        0.91260    0.01696    0.75258    1.000
    O14      O        0.23080    0.94145    0.98354    1.000
    O15      O        0.48220    0.11665    0.11598    1.000
    C3       C        0.42800    0.94909    0.96074    1.000
    Mn4      Mn       0.88642    0.88705    0.90845    1.000
    P4       P        0.03461    0.65644    0.72871    1.000
    H4       H        0.17810    0.69890    0.73000    1.000
    O16      O        0.93280    0.70650    0.84478    1.000
    O17      O        0.89850    0.68927    0.60090    1.000
    O18      O        0.08740    0.51696    0.74742    1.000
    O19      O        0.76920    0.44145    0.51646    1.000
    O20      O        0.51780    0.61665    0.38402    1.000
    C4       C        0.57200    0.44909    0.53926    1.000
