# CIF file generated by openbabel 3.1.0, see https://openbabel.org
data_I
_chemical_name_common 'image0'
_cell_length_a 8.9024
_cell_length_b 14.2796
_cell_length_c 15.0637
_cell_angle_alpha 90
_cell_angle_beta 95.068
_cell_angle_gamma 90
_space_group_name_H-M_alt 'P 1'
_space_group_name_Hall 'P 1'
loop_
    _symmetry_equiv_pos_as_xyz
    x,y,z
loop_
    _atom_site_label
    _atom_site_type_symbol
    _atom_site_fract_x
    _atom_site_fract_y
    _atom_site_fract_z
    _atom_site_occupancy
    Al1      Al       0.82257    0.05886    0.24323    1.000
    Al2      Al       0.61917    0.93980    0.90932    1.000
    Co1      Co       0.63958    0.07044    0.61468    1.000
    Co2      Co       0.42598    0.21385    0.33584    1.000
    P1       P        0.60091    0.21834    0.16217    1.000
    P2       P        0.64094    0.05539    0.41293    1.000
    P3       P        0.64951    0.91949    0.11125    1.000
    P4       P        0.18794    0.06628    0.25415    1.000
    O1       O        0.70060    0.94530    0.02001    1.000
    O2       O        0.69970    0.03870    0.50959    1.000
    O3       O        0.49690    0.96280    0.12160    1.000
    O4       O        0.23060    0.06380    0.15948    1.000
    O5       O        0.76570    0.95230    0.18360    1.000
    O6       O        0.23520    0.97540    0.30116    1.000
    O7       O        0.77530    0.06480    0.35930    1.000
    O8       O        0.54640    0.14490    0.40880    1.000
    O9       O        0.63580    0.81352    0.11490    1.000
    O10      O        0.54490    0.97350    0.37730    1.000
    O11      O        0.64510    0.30774    0.11750    1.000
    O12      O        0.53040    0.24430    0.24660    1.000
    O13      O        0.74200    0.16170    0.18220    1.000
    O14      O        0.48930    0.16520    0.10040    1.000
    O15      O        0.02160    0.07980    0.25200    1.000
    O16      O        0.26640    0.14770    0.30290    1.000
    Al3      Al       0.17743    0.55886    0.25677    1.000
    Al4      Al       0.38083    0.43980    0.59068    1.000
    Co3      Co       0.36042    0.57044    0.88532    1.000
    Co4      Co       0.57402    0.71385    0.16416    1.000
    P5       P        0.39909    0.71834    0.33783    1.000
    P6       P        0.35906    0.55539    0.08707    1.000
    P7       P        0.35049    0.41949    0.38875    1.000
    P8       P        0.81206    0.56628    0.24585    1.000
    O17      O        0.29940    0.44530    0.47999    1.000
    O18      O        0.30030    0.53870    0.99041    1.000
    O19      O        0.50310    0.46280    0.37840    1.000
    O20      O        0.76940    0.56380    0.34052    1.000
    O21      O        0.23430    0.45230    0.31640    1.000
    O22      O        0.76480    0.47540    0.19884    1.000
    O23      O        0.22470    0.56480    0.14070    1.000
    O24      O        0.45360    0.64490    0.09120    1.000
    O25      O        0.36420    0.31352    0.38510    1.000
    O26      O        0.45510    0.47350    0.12270    1.000
    O27      O        0.35490    0.80774    0.38250    1.000
    O28      O        0.46960    0.74430    0.25340    1.000
    O29      O        0.25800    0.66170    0.31780    1.000
    O30      O        0.51070    0.66520    0.39960    1.000
    O31      O        0.97840    0.57980    0.24800    1.000
    O32      O        0.73360    0.64770    0.19710    1.000
    Al5      Al       0.17743    0.94114    0.75677    1.000
    Al6      Al       0.38083    0.06020    0.09068    1.000
    Co5      Co       0.36042    0.92956    0.38532    1.000
    Co6      Co       0.57402    0.78615    0.66416    1.000
    P9       P        0.39909    0.78166    0.83783    1.000
    P10      P        0.35906    0.94461    0.58707    1.000
    P11      P        0.35049    0.08051    0.88875    1.000
    P12      P        0.81206    0.93372    0.74585    1.000
    O33      O        0.29940    0.05470    0.97999    1.000
    O34      O        0.30030    0.96130    0.49041    1.000
    O35      O        0.50310    0.03720    0.87840    1.000
    O36      O        0.76940    0.93620    0.84052    1.000
    O37      O        0.23430    0.04770    0.81640    1.000
    O38      O        0.76480    0.02460    0.69884    1.000
    O39      O        0.22470    0.93520    0.64070    1.000
    O40      O        0.45360    0.85510    0.59120    1.000
    O41      O        0.36420    0.18648    0.88510    1.000
    O42      O        0.45510    0.02650    0.62270    1.000
    O43      O        0.35490    0.69226    0.88250    1.000
    O44      O        0.46960    0.75570    0.75340    1.000
    O45      O        0.25800    0.83830    0.81780    1.000
    O46      O        0.51070    0.83480    0.89960    1.000
    O47      O        0.97840    0.92020    0.74800    1.000
    O48      O        0.73360    0.85230    0.69710    1.000
    Al7      Al       0.82257    0.44114    0.74323    1.000
    Al8      Al       0.61917    0.56020    0.40932    1.000
    Co7      Co       0.63958    0.42956    0.11468    1.000
    Co8      Co       0.42598    0.28615    0.83584    1.000
    P13      P        0.60091    0.28166    0.66217    1.000
    P14      P        0.64094    0.44461    0.91293    1.000
    P15      P        0.64951    0.58051    0.61125    1.000
    P16      P        0.18794    0.43372    0.75415    1.000
    O49      O        0.70060    0.55470    0.52001    1.000
    O50      O        0.69970    0.46130    0.00959    1.000
    O51      O        0.49690    0.53720    0.62160    1.000
    O52      O        0.23060    0.43620    0.65948    1.000
    O53      O        0.76570    0.54770    0.68360    1.000
    O54      O        0.23520    0.52460    0.80116    1.000
    O55      O        0.77530    0.43520    0.85930    1.000
    O56      O        0.54640    0.35510    0.90880    1.000
    O57      O        0.63580    0.68648    0.61490    1.000
    O58      O        0.54490    0.52650    0.87730    1.000
    O59      O        0.64510    0.19226    0.61750    1.000
    O60      O        0.53040    0.25570    0.74660    1.000
    O61      O        0.74200    0.33830    0.68220    1.000
    O62      O        0.48930    0.33480    0.60040    1.000
    O63      O        0.02160    0.42020    0.75200    1.000
    O64      O        0.26640    0.35230    0.80290    1.000
