data_functionalizedCrystal
_audit_creation_method	'EQeq! by Chris Wilmer'
_symmetry_space_group_name_H-M	'P1'
_symmetry_Int_Tables_number	1
_symmetry_cell_setting	triclinic
loop_
_symmetry_equiv_pos_as_xyz
  x,y,z
_cell_length_a	8.968
_cell_length_b	15.964
_cell_length_c	19.737
_cell_angle_alpha	77.56
_cell_angle_beta	85.31
_cell_angle_gamma	81.57
loop_
_atom_site_label
_atom_site_type_symbol
_atom_site_fract_x
_atom_site_fract_y
_atom_site_fract_z
_atom_site_charge
Mof_Cu	Cu	0.16269	0.91718	0.01937	0.842
Mof_Cu	Cu	0.30519	0.44284	0.67416	0.858
Mof_Cl	Cl	0.32715	0.96608	0.41715	-0.389
Mof_N 	N 	0.0766	0.96831	0.92425	-0.217
Mof_N 	N 	0.9273	0.00676	0.9135	-0.216
Mof_N 	N 	0.0395	0.99189	0.81315	-0.106
Mof_N 	N 	0.0539	0.00121	0.74026	-0.083
Mof_N 	N 	0.3832	0.87546	0.00409	-0.228
Mof_N 	N 	0.7418	0.69357	0.88807	-0.081
Mof_N 	N 	0.745	0.6302	0.84733	-0.082
Mof_N 	N 	0.0869	0.48051	0.69952	-0.223
Mof_N 	N 	0.0532	0.80614	0.05888	-0.213
Mof_N 	N 	0.9832	0.52642	0.02456	-0.078
Mof_N 	N 	0.4548	0.52455	0.62931	-0.225
Mof_N 	N 	0.9494	0.52318	0.5213	-0.095
Mof_N 	N 	0.4012	0.39394	0.77065	-0.213
Mof_N 	N 	0.5163	0.46598	0.98179	-0.082
Mof_N 	N 	0.3211	0.3419	0.62876	-0.317
Mof_C 	C 	0.178	0.96424	0.71758	0.025
Mof_H 	H 	0.2505	0.9334	0.7496	0.031
Mof_C 	C 	0.2106	0.96864	0.64308	-0.038
Mof_C 	C 	0.3367	0.9162	0.62298	0.042
Mof_H 	H 	0.3985	0.88	0.6575	0.025
Mof_C 	C 	0.3738	0.9155	0.55383	-0.182
Mof_H 	H 	0.4596	0.879	0.5406	0.106
Mof_C 	C 	0.2846	0.96862	0.50457	0.248
Mof_C 	C 	0.1623	0.02416	0.52236	-0.19
Mof_H 	H 	0.1046	0.0627	0.4875	0.115
Mof_C 	C 	0.125	0.02278	0.59235	0.032
Mof_H 	H 	0.0393	0.0596	0.6053	0.039
Mof_C 	C 	0.9089	0.01912	0.84683	0.088
Mof_H 	H 	0.8173	0.0436	0.8251	-0.002
Mof_C 	C 	0.14	0.96099	0.86341	0.085
Mof_H 	H 	0.2418	0.9374	0.8555	-0.009
Mof_C 	C 	0.4931	0.90222	0.03333	0.03
Mof_H 	H 	0.4653	0.9405	0.0644	-0.006
Mof_C 	C 	0.6446	0.87631	0.02014	-0.074
Mof_H 	H 	0.719	0.8982	0.0406	0.029
Mof_C 	C 	0.6868	0.81871	0.97723	-0.029
Mof_H 	H 	0.7905	0.8009	0.9672	0.049
Mof_C 	C 	0.5754	0.78674	0.94851	-0.004
Mof_C 	C 	0.4263	0.81863	0.96235	0.009
Mof_H 	H 	0.35	0.7993	0.9412	0.005
Mof_C 	C 	0.607	0.72087	0.9059	0.018
Mof_H 	H 	0.5256	0.6982	0.8914	0.039
Mof_C 	C 	0.8749	0.61496	0.81778	0.017
Mof_H 	H 	0.9538	0.6455	0.8246	0.038
Mof_C 	C 	0.9045	0.55133	0.77358	-0.006
Mof_C 	C 	0.7991	0.49922	0.76472	-0.025
Mof_H 	H 	0.7015	0.5045	0.7873	0.05
Mof_C 	C 	0.8379	0.43984	0.72278	-0.071
Mof_H 	H 	0.7665	0.4045	0.7156	0.052
Mof_C 	C 	0.9819	0.43191	0.69113	0.037
Mof_H 	H 	0.0073	0.3906	0.6625	0.002
Mof_C 	C 	0.0452	0.53998	0.73946	0.009
Mof_H 	H 	0.1169	0.5763	0.7445	0.007
Mof_C 	C 	0.9754	0.79312	0.12058	0.031
Mof_H 	H 	0.9627	0.8377	0.1464	0.007
Mof_C 	C 	0.913	0.71803	0.14846	-0.068
Mof_H 	H 	0.8584	0.7118	0.1922	0.043
Mof_C 	C 	0.9311	0.65233	0.112	-0.026
Mof_H 	H 	0.8904	0.5999	0.1305	0.049
Mof_C 	C 	0.0105	0.66408	0.04697	-0.002
Mof_C 	C 	0.067	0.74235	0.0234	0.005
Mof_H 	H 	0.119	0.7513	0.9791	0.011
Mof_C 	C 	0.0336	0.59917	0.0037	0.017
Mof_H 	H 	0.0866	0.611	0.9597	0.041
Mof_C 	C 	0.467	0.596	0.65266	0.047
Mof_H 	H 	0.3883	0.6154	0.6832	-0.008
Mof_C 	C 	0.5864	0.64295	0.6351	-0.088
Mof_H 	H 	0.5888	0.6937	0.6526	0.061
Mof_C 	C 	0.703	0.61502	0.59152	-0.02
Mof_H 	H 	0.7875	0.6457	0.5791	0.039
Mof_C 	C 	0.6942	0.54092	0.56611	-0.016
Mof_C 	C 	0.5666	0.49854	0.58566	0.007
Mof_H 	H 	0.5586	0.4491	0.5673	0.006
Mof_C 	C 	0.8166	0.50261	0.52361	0.006
Mof_H 	H 	0.7968	0.4622	0.4976	0.022
Mof_C 	C 	0.4824	0.31561	0.78687	0.037
Mof_H 	H 	0.4825	0.2765	0.7568	0.001
Mof_C 	C 	0.566	0.28901	0.84539	-0.072
Mof_H 	H 	0.6253	0.2337	0.8539	0.042
Mof_C 	C 	0.5627	0.34347	0.8914	-0.024
Mof_H 	H 	0.6199	0.3266	0.9317	0.046
Mof_C 	C 	0.4732	0.42393	0.8773	-0.007
Mof_C 	C 	0.3982	0.44586	0.81584	0.012
Mof_H 	H 	0.3408	0.5016	0.8051	0.006
Mof_C 	C 	0.4557	0.4853	0.92389	0.023
Mof_H 	H 	0.398	0.5405	0.9103	0.037
Mof_C 	C 	0.3301	0.28263	0.60501	0.287
Mof_C 	C 	0.3442	0.2062	0.57445	-0.725
Mof_H 	H 	0.4471	0.1952	0.5545	0.251
Mof_H 	H 	0.2723	0.2159	0.5378	0.235
Mof_H 	H 	0.3227	0.1561	0.6105	0.247
Mof_Cu	Cu	0.83731	0.08282	0.98063	0.841
Mof_Cu	Cu	0.69481	0.55716	0.32584	0.857
Mof_Cl	Cl	0.67285	0.03392	0.58285	-0.39
Mof_N 	N 	0.9234	0.03169	0.07575	-0.218
Mof_N 	N 	0.0727	0.99324	0.0865	-0.217
Mof_N 	N 	0.9605	0.00811	0.18685	-0.107
Mof_N 	N 	0.9461	0.99879	0.25974	-0.083
Mof_N 	N 	0.6168	0.12454	0.99591	-0.228
Mof_N 	N 	0.2582	0.30643	0.11193	-0.081
Mof_N 	N 	0.255	0.3698	0.15267	-0.082
Mof_N 	N 	0.9131	0.51949	0.30048	-0.223
Mof_N 	N 	0.9468	0.19386	0.94112	-0.213
Mof_N 	N 	0.0168	0.47358	0.97544	-0.078
Mof_N 	N 	0.5452	0.47545	0.37069	-0.225
Mof_N 	N 	0.0506	0.47682	0.4787	-0.095
Mof_N 	N 	0.5988	0.60606	0.22935	-0.213
Mof_N 	N 	0.4837	0.53402	0.01821	-0.082
Mof_N 	N 	0.6789	0.6581	0.37124	-0.317
Mof_C 	C 	0.822	0.03576	0.28242	0.025
Mof_H 	H 	0.7495	0.0666	0.2504	0.031
Mof_C 	C 	0.7894	0.03136	0.35692	-0.038
Mof_C 	C 	0.6633	0.0838	0.37702	0.042
Mof_H 	H 	0.6015	0.12	0.3425	0.025
Mof_C 	C 	0.6262	0.0845	0.44617	-0.182
Mof_H 	H 	0.5404	0.121	0.4594	0.106
Mof_C 	C 	0.7154	0.03138	0.49543	0.248
Mof_C 	C 	0.8377	0.97584	0.47764	-0.19
Mof_H 	H 	0.8954	0.9373	0.5125	0.115
Mof_C 	C 	0.875	0.97722	0.40765	0.032
Mof_H 	H 	0.9607	0.9404	0.3947	0.039
Mof_C 	C 	0.0911	0.98088	0.15317	0.088
Mof_H 	H 	0.1827	0.9564	0.1749	-0.002
Mof_C 	C 	0.86	0.03901	0.13659	0.085
Mof_H 	H 	0.7582	0.0626	0.1445	-0.009
Mof_C 	C 	0.5069	0.09778	0.96667	0.03
Mof_H 	H 	0.5347	0.0595	0.9356	-0.006
Mof_C 	C 	0.3554	0.12369	0.97986	-0.074
Mof_H 	H 	0.281	0.1018	0.9594	0.029
Mof_C 	C 	0.3132	0.18129	0.02277	-0.029
Mof_H 	H 	0.2095	0.1991	0.0328	0.049
Mof_C 	C 	0.4246	0.21326	0.05149	-0.004
Mof_C 	C 	0.5737	0.18137	0.03765	0.009
Mof_H 	H 	0.65	0.2007	0.0588	0.005
Mof_C 	C 	0.393	0.27913	0.0941	0.018
Mof_H 	H 	0.4744	0.3018	0.1086	0.039
Mof_C 	C 	0.1251	0.38504	0.18222	0.017
Mof_H 	H 	0.0462	0.3545	0.1754	0.038
Mof_C 	C 	0.0955	0.44867	0.22642	-0.006
Mof_C 	C 	0.2009	0.50078	0.23528	-0.025
Mof_H 	H 	0.2985	0.4955	0.2127	0.05
Mof_C 	C 	0.1621	0.56016	0.27722	-0.071
Mof_H 	H 	0.2335	0.5955	0.2844	0.052
Mof_C 	C 	0.0181	0.56809	0.30887	0.037
Mof_H 	H 	0.9927	0.6094	0.3375	0.002
Mof_C 	C 	0.9548	0.46002	0.26054	0.009
Mof_H 	H 	0.8831	0.4237	0.2555	0.007
Mof_C 	C 	0.0246	0.20688	0.87942	0.031
Mof_H 	H 	0.0373	0.1623	0.8536	0.007
Mof_C 	C 	0.087	0.28197	0.85154	-0.068
Mof_H 	H 	0.1416	0.2882	0.8078	0.043
Mof_C 	C 	0.0689	0.34767	0.888	-0.026
Mof_H 	H 	0.1096	0.4001	0.8695	0.049
Mof_C 	C 	0.9895	0.33592	0.95303	-0.002
Mof_C 	C 	0.933	0.25765	0.9766	0.005
Mof_H 	H 	0.881	0.2487	0.0209	0.011
Mof_C 	C 	0.9664	0.40083	0.9963	0.017
Mof_H 	H 	0.9134	0.389	0.0403	0.041
Mof_C 	C 	0.533	0.404	0.34734	0.047
Mof_H 	H 	0.6117	0.3846	0.3168	-0.008
Mof_C 	C 	0.4136	0.35705	0.3649	-0.088
Mof_H 	H 	0.4112	0.3063	0.3474	0.061
Mof_C 	C 	0.297	0.38498	0.40848	-0.02
Mof_H 	H 	0.2125	0.3543	0.4209	0.039
Mof_C 	C 	0.3058	0.45908	0.43389	-0.016
Mof_C 	C 	0.4334	0.50146	0.41434	0.007
Mof_H 	H 	0.4414	0.5509	0.4327	0.006
Mof_C 	C 	0.1834	0.49739	0.47639	0.006
Mof_H 	H 	0.2032	0.5378	0.5024	0.022
Mof_C 	C 	0.5176	0.68439	0.21313	0.037
Mof_H 	H 	0.5175	0.7235	0.2432	0.001
Mof_C 	C 	0.434	0.71099	0.15461	-0.072
Mof_H 	H 	0.3747	0.7663	0.1461	0.042
Mof_C 	C 	0.4373	0.65653	0.1086	-0.024
Mof_H 	H 	0.3801	0.6734	0.0683	0.046
Mof_C 	C 	0.5268	0.57607	0.1227	-0.007
Mof_C 	C 	0.6018	0.55414	0.18416	0.012
Mof_H 	H 	0.6592	0.4984	0.1949	0.006
Mof_C 	C 	0.5443	0.5147	0.07611	0.023
Mof_H 	H 	0.602	0.4595	0.0897	0.037
Mof_C 	C 	0.6699	0.71737	0.39499	0.287
Mof_C 	C 	0.6558	0.7938	0.42555	-0.725
Mof_H 	H 	0.5529	0.8048	0.4455	0.251
Mof_H 	H 	0.7277	0.7841	0.4622	0.235
Mof_H 	H 	0.6773	0.8439	0.3895	0.247
_end
