data_functionalizedCrystal
_audit_creation_method	'EQeq! by Chris Wilmer'
_symmetry_space_group_name_H-M	'P1'
_symmetry_Int_Tables_number	1
_symmetry_cell_setting	triclinic
loop_
_symmetry_equiv_pos_as_xyz
  x,y,z
_cell_length_a	23.482
_cell_length_b	23.482
_cell_length_c	16.318
_cell_angle_alpha	90
_cell_angle_beta	90
_cell_angle_gamma	120
loop_
_atom_site_label
_atom_site_type_symbol
_atom_site_fract_x
_atom_site_fract_y
_atom_site_fract_z
_atom_site_charge
Mof_Na	Na	0.51045	0.37255	0.00301	2.245
Mof_O 	O 	0.76382	0.45435	0.07162	-0.827
Mof_O 	O 	0.64635	0.4003	0.94429	-0.72
Mof_O 	O 	0.67177	0.41461	0.14203	-0.568
Mof_O 	O 	0.88844	0.57012	0.89887	-0.667
Mof_O 	O 	0.57534	0.42793	0.89489	-0.704
Mof_O 	O 	0.9622	0.6864	0.3106	-0.133
Mof_O 	O 	0.96978	0.63934	0.1988	-0.353
Mof_O 	O 	0.9092	0.6119	0.7678	0.063
Mof_H 	H 	0.9692	0.6618	0.7871	0.207
Mof_N 	N 	0.69653	0.59674	0.51126	-0.279
Mof_N 	N 	0.64872	0.6394	0.37512	-0.281
Mof_C 	C 	0.76552	0.51118	0.19261	-0.239
Mof_C 	C 	0.6834	0.61737	0.331	0.079
Mof_C 	C 	0.7315	0.45665	0.13084	0.489
Mof_C 	C 	0.6793	0.628	0.2459	-0.088
Mof_H 	H 	0.6989	0.6168	0.2025	0.037
Mof_C 	C 	0.72769	0.52269	0.2499	0.029
Mof_H 	H 	0.6812	0.4958	0.25	0.005
Mof_C 	C 	0.71236	0.57666	0.5832	0.072
Mof_C 	C 	0.68474	0.48675	0.848	-0.252
Mof_C 	C 	0.71881	0.58942	0.36596	-0.105
Mof_C 	C 	0.7509	0.50864	0.86405	0.196
Mof_H 	H 	0.7627	0.49	0.908	-0.14
Mof_C 	C 	0.71601	0.56071	0.73235	-0.036
Mof_C 	C 	0.66794	0.51331	0.78269	0.053
Mof_H 	H 	0.6229	0.4989	0.7722	0.005
Mof_C 	C 	0.7232	0.57864	0.449	0.082
Mof_C 	C 	0.75854	0.57354	0.3066	-0.008
Mof_C 	C 	0.78197	0.58311	0.75029	0.053
Mof_H 	H 	0.8154	0.6163	0.7172	0.035
Mof_C 	C 	0.75416	0.54417	0.4821	-0.076
Mof_H 	H 	0.7758	0.5259	0.4518	0.057
Mof_C 	C 	0.69562	0.58737	0.6617	-0.091
Mof_C 	C 	0.83277	0.5486	0.1955	0.153
Mof_H 	H 	0.8585	0.5409	0.157	-0.159
Mof_C 	C 	0.64194	0.6574	0.2382	-0.077
Mof_H 	H 	0.6308	0.6707	0.1886	0.036
Mof_C 	C 	0.74684	0.54248	0.5644	-0.068
Mof_H 	H 	0.7618	0.5223	0.6026	0.054
Mof_C 	C 	0.82475	0.60884	0.3104	-0.001
Mof_H 	H 	0.8453	0.6416	0.3515	0.051
Mof_C 	C 	0.63189	0.43456	0.9	0.531
Mof_C 	C 	0.9371	0.6403	0.2584	0.336
Mof_C 	C 	0.79917	0.5573	0.8162	-0.251
Mof_C 	C 	0.86386	0.59781	0.2542	-0.158
Mof_C 	C 	0.62289	0.66429	0.319	0.069
Mof_C 	C 	0.87009	0.5838	0.8373	0.508
Mof_O 	O 	0.9605	0.6607	0.3312	-0.123
Mof_O 	O 	0.9096	0.6333	0.7904	-0.414
Mof_Na	Na	0.62745	0.1379	0.00301	2.208
Mof_O 	O 	0.54565	0.30947	0.07162	-0.827
Mof_O 	O 	0.5997	0.24605	0.94429	-0.719
Mof_O 	O 	0.58539	0.25716	0.14203	-0.568
Mof_O 	O 	0.42988	0.31832	0.89887	-0.675
Mof_O 	O 	0.57207	0.14741	0.89489	-0.7
Mof_O 	O 	0.3136	0.2758	0.3106	-0.147
Mof_O 	O 	0.36066	0.33044	0.1988	-0.368
Mof_O 	O 	0.3881	0.2973	0.7678	0.057
Mof_H 	H 	0.3382	0.3074	0.7871	0.191
Mof_N 	N 	0.40326	0.09979	0.51126	-0.283
Mof_N 	N 	0.3606	0.00932	0.37512	-0.298
Mof_C 	C 	0.48882	0.25434	0.19261	-0.241
Mof_C 	C 	0.38263	0.06603	0.331	0.088
Mof_C 	C 	0.54335	0.27485	0.13084	0.488
Mof_C 	C 	0.372	0.0513	0.2459	-0.14
Mof_H 	H 	0.3832	0.0821	0.2025	0.047
Mof_C 	C 	0.47731	0.205	0.2499	0.028
Mof_H 	H 	0.5042	0.1854	0.25	0.004
Mof_C 	C 	0.42334	0.1357	0.5832	0.067
Mof_C 	C 	0.51325	0.19799	0.848	-0.254
Mof_C 	C 	0.41058	0.12939	0.36596	-0.113
Mof_C 	C 	0.49136	0.24226	0.86405	0.197
Mof_H 	H 	0.51	0.2727	0.908	-0.141
Mof_C 	C 	0.43929	0.1553	0.73235	-0.039
Mof_C 	C 	0.48669	0.15463	0.78269	0.054
Mof_H 	H 	0.5011	0.124	0.7722	0.004
Mof_C 	C 	0.42136	0.14456	0.449	0.082
Mof_C 	C 	0.42646	0.185	0.3066	-0.009
Mof_C 	C 	0.41689	0.19886	0.75029	0.054
Mof_H 	H 	0.3837	0.1991	0.7172	0.03
Mof_C 	C 	0.45583	0.20999	0.4821	-0.079
Mof_H 	H 	0.4741	0.2499	0.4518	0.056
Mof_C 	C 	0.41263	0.10825	0.6617	-0.091
Mof_C 	C 	0.4514	0.28417	0.1955	0.154
Mof_H 	H 	0.4591	0.3176	0.157	-0.161
Mof_C 	C 	0.3426	0.98454	0.2382	-0.032
Mof_H 	H 	0.3293	0.9601	0.1886	0.025
Mof_C 	C 	0.45752	0.20436	0.5644	-0.068
Mof_H 	H 	0.4777	0.2395	0.6026	0.053
Mof_C 	C 	0.39116	0.21591	0.3104	-0.001
Mof_H 	H 	0.3584	0.2037	0.3515	0.046
Mof_C 	C 	0.56544	0.19733	0.9	0.53
Mof_C 	C 	0.3597	0.2968	0.2584	0.339
Mof_C 	C 	0.4427	0.24187	0.8162	-0.254
Mof_C 	C 	0.40219	0.26605	0.2542	-0.164
Mof_C 	C 	0.33571	0.9586	0.319	0.076
Mof_C 	C 	0.4162	0.28629	0.8373	0.507
Mof_O 	O 	0.3393	0.2998	0.3312	-0.124
Mof_O 	O 	0.3667	0.2763	0.7904	-0.415
Mof_Na	Na	0.8621	0.48955	0.00301	2.254
Mof_O 	O 	0.69053	0.23618	0.07162	-0.822
Mof_O 	O 	0.75395	0.35365	0.94429	-0.719
Mof_O 	O 	0.74284	0.32823	0.14203	-0.567
Mof_O 	O 	0.68168	0.11156	0.89887	-0.668
Mof_O 	O 	0.85259	0.42466	0.89489	-0.7
Mof_O 	O 	0.7242	0.0378	0.3106	-0.148
Mof_O 	O 	0.66956	0.03022	0.1988	-0.385
Mof_O 	O 	0.7027	0.0908	0.7678	0.039
Mof_H 	H 	0.6926	0.0308	0.7871	0.181
Mof_N 	N 	0.90021	0.30347	0.51126	-0.275
Mof_N 	N 	0.99068	0.35128	0.37512	-0.267
Mof_C 	C 	0.74566	0.23448	0.19261	-0.24
Mof_C 	C 	0.93397	0.3166	0.331	0.07
Mof_C 	C 	0.72515	0.2685	0.13084	0.486
Mof_C 	C 	0.9487	0.3207	0.2459	-0.054
Mof_H 	H 	0.9179	0.3011	0.2025	0.026
Mof_C 	C 	0.795	0.27231	0.2499	0.031
Mof_H 	H 	0.8146	0.3188	0.25	0.005
Mof_C 	C 	0.8643	0.28764	0.5832	0.075
Mof_C 	C 	0.80201	0.31526	0.848	-0.248
Mof_C 	C 	0.87061	0.28119	0.36596	-0.099
Mof_C 	C 	0.75774	0.2491	0.86405	0.193
Mof_H 	H 	0.7273	0.2373	0.908	-0.137
Mof_C 	C 	0.8447	0.28399	0.73235	-0.035
Mof_C 	C 	0.84537	0.33206	0.78269	0.051
Mof_H 	H 	0.876	0.3771	0.7722	0.009
Mof_C 	C 	0.85544	0.2768	0.449	0.08
Mof_C 	C 	0.815	0.24146	0.3066	-0.013
Mof_C 	C 	0.80114	0.21803	0.75029	0.051
Mof_H 	H 	0.8009	0.1846	0.7172	0.032
Mof_C 	C 	0.79001	0.24584	0.4821	-0.074
Mof_H 	H 	0.7501	0.2242	0.4518	0.054
Mof_C 	C 	0.89175	0.30438	0.6617	-0.092
Mof_C 	C 	0.71583	0.16723	0.1955	0.155
Mof_H 	H 	0.6824	0.1415	0.157	-0.161
Mof_C 	C 	0.01546	0.35806	0.2382	-0.111
Mof_H 	H 	0.0399	0.3692	0.1886	0.041
Mof_C 	C 	0.79564	0.25316	0.5644	-0.071
Mof_H 	H 	0.7605	0.2382	0.6026	0.054
Mof_C 	C 	0.78409	0.17525	0.3104	0.003
Mof_H 	H 	0.7963	0.1547	0.3515	0.046
Mof_C 	C 	0.80267	0.36811	0.9	0.53
Mof_C 	C 	0.7032	0.0629	0.2584	0.343
Mof_C 	C 	0.75813	0.20083	0.8162	-0.248
Mof_C 	C 	0.73395	0.13614	0.2542	-0.167
Mof_C 	C 	0.0414	0.37711	0.319	0.058
Mof_C 	C 	0.71371	0.12991	0.8373	0.502
Mof_O 	O 	0.7002	0.0395	0.3312	-0.132
Mof_O 	O 	0.7237	0.0904	0.7904	-0.396
Mof_Na	Na	0.37255	0.51045	0.99699	2.246
Mof_O 	O 	0.45435	0.76382	0.92838	-0.827
Mof_O 	O 	0.4003	0.64635	0.05571	-0.72
Mof_O 	O 	0.41461	0.67177	0.85797	-0.568
Mof_O 	O 	0.57012	0.88844	0.10113	-0.667
Mof_O 	O 	0.42793	0.57534	0.10511	-0.704
Mof_O 	O 	0.6864	0.9622	0.6894	-0.133
Mof_O 	O 	0.63934	0.96978	0.8012	-0.353
Mof_O 	O 	0.6119	0.9092	0.2322	0.063
Mof_H 	H 	0.6618	0.9692	0.2129	0.207
Mof_N 	N 	0.59674	0.69653	0.48874	-0.279
Mof_N 	N 	0.6394	0.64872	0.62488	-0.281
Mof_C 	C 	0.51118	0.76552	0.80739	-0.239
Mof_C 	C 	0.61737	0.6834	0.669	0.079
Mof_C 	C 	0.45665	0.7315	0.86916	0.489
Mof_C 	C 	0.628	0.6793	0.7541	-0.088
Mof_H 	H 	0.6168	0.6989	0.7975	0.037
Mof_C 	C 	0.52269	0.72769	0.7501	0.029
Mof_H 	H 	0.4958	0.6812	0.75	0.005
Mof_C 	C 	0.57666	0.71236	0.4168	0.072
Mof_C 	C 	0.48675	0.68474	0.152	-0.252
Mof_C 	C 	0.58942	0.71881	0.63404	-0.105
Mof_C 	C 	0.50864	0.7509	0.13595	0.196
Mof_H 	H 	0.49	0.7627	0.092	-0.14
Mof_C 	C 	0.56071	0.71601	0.26765	-0.036
Mof_C 	C 	0.51331	0.66794	0.21731	0.053
Mof_H 	H 	0.4989	0.6229	0.2278	0.005
Mof_C 	C 	0.57864	0.7232	0.551	0.082
Mof_C 	C 	0.57354	0.75854	0.6934	-0.008
Mof_C 	C 	0.58311	0.78197	0.24971	0.053
Mof_H 	H 	0.6163	0.8154	0.2828	0.035
Mof_C 	C 	0.54417	0.75416	0.5179	-0.076
Mof_H 	H 	0.5259	0.7758	0.5482	0.057
Mof_C 	C 	0.58737	0.69562	0.3383	-0.091
Mof_C 	C 	0.5486	0.83277	0.8045	0.153
Mof_H 	H 	0.5409	0.8585	0.843	-0.159
Mof_C 	C 	0.6574	0.64194	0.7618	-0.077
Mof_H 	H 	0.6707	0.6308	0.8114	0.036
Mof_C 	C 	0.54248	0.74684	0.4356	-0.068
Mof_H 	H 	0.5223	0.7618	0.3974	0.054
Mof_C 	C 	0.60884	0.82475	0.6896	-0.001
Mof_H 	H 	0.6416	0.8453	0.6485	0.051
Mof_C 	C 	0.43456	0.63189	0.1	0.531
Mof_C 	C 	0.6403	0.9371	0.7416	0.336
Mof_C 	C 	0.5573	0.79917	0.1838	-0.251
Mof_C 	C 	0.59781	0.86386	0.7458	-0.158
Mof_C 	C 	0.66429	0.62289	0.681	0.069
Mof_C 	C 	0.5838	0.87009	0.1627	0.508
Mof_O 	O 	0.6607	0.9605	0.6688	-0.123
Mof_O 	O 	0.6333	0.9096	0.2096	-0.414
Mof_Na	Na	0.1379	0.62745	0.99699	2.208
Mof_O 	O 	0.30947	0.54565	0.92838	-0.827
Mof_O 	O 	0.24605	0.5997	0.05571	-0.719
Mof_O 	O 	0.25716	0.58539	0.85797	-0.568
Mof_O 	O 	0.31832	0.42988	0.10113	-0.675
Mof_O 	O 	0.14741	0.57207	0.10511	-0.7
Mof_O 	O 	0.2758	0.3136	0.6894	-0.147
Mof_O 	O 	0.33044	0.36066	0.8012	-0.368
Mof_O 	O 	0.2973	0.3881	0.2322	0.057
Mof_H 	H 	0.3074	0.3382	0.2129	0.191
Mof_N 	N 	0.09979	0.40326	0.48874	-0.283
Mof_N 	N 	0.00932	0.3606	0.62488	-0.298
Mof_C 	C 	0.25434	0.48882	0.80739	-0.241
Mof_C 	C 	0.06603	0.38263	0.669	0.088
Mof_C 	C 	0.27485	0.54335	0.86916	0.488
Mof_C 	C 	0.0513	0.372	0.7541	-0.14
Mof_H 	H 	0.0821	0.3832	0.7975	0.047
Mof_C 	C 	0.205	0.47731	0.7501	0.028
Mof_H 	H 	0.1854	0.5042	0.75	0.004
Mof_C 	C 	0.1357	0.42334	0.4168	0.067
Mof_C 	C 	0.19799	0.51325	0.152	-0.254
Mof_C 	C 	0.12939	0.41058	0.63404	-0.113
Mof_C 	C 	0.24226	0.49136	0.13595	0.197
Mof_H 	H 	0.2727	0.51	0.092	-0.141
Mof_C 	C 	0.1553	0.43929	0.26765	-0.039
Mof_C 	C 	0.15463	0.48669	0.21731	0.054
Mof_H 	H 	0.124	0.5011	0.2278	0.004
Mof_C 	C 	0.14456	0.42136	0.551	0.082
Mof_C 	C 	0.185	0.42646	0.6934	-0.009
Mof_C 	C 	0.19886	0.41689	0.24971	0.054
Mof_H 	H 	0.1991	0.3837	0.2828	0.03
Mof_C 	C 	0.20999	0.45583	0.5179	-0.079
Mof_H 	H 	0.2499	0.4741	0.5482	0.056
Mof_C 	C 	0.10825	0.41263	0.3383	-0.091
Mof_C 	C 	0.28417	0.4514	0.8045	0.154
Mof_H 	H 	0.3176	0.4591	0.843	-0.161
Mof_C 	C 	0.98454	0.3426	0.7618	-0.032
Mof_H 	H 	0.9601	0.3293	0.8114	0.025
Mof_C 	C 	0.20436	0.45752	0.4356	-0.068
Mof_H 	H 	0.2395	0.4777	0.3974	0.053
Mof_C 	C 	0.21591	0.39116	0.6896	-0.001
Mof_H 	H 	0.2037	0.3584	0.6485	0.046
Mof_C 	C 	0.19733	0.56544	0.1	0.53
Mof_C 	C 	0.2968	0.3597	0.7416	0.339
Mof_C 	C 	0.24187	0.4427	0.1838	-0.254
Mof_C 	C 	0.26605	0.40219	0.7458	-0.164
Mof_C 	C 	0.9586	0.33571	0.681	0.076
Mof_C 	C 	0.28629	0.4162	0.1627	0.507
Mof_O 	O 	0.2998	0.3393	0.6688	-0.124
Mof_O 	O 	0.2763	0.3667	0.2096	-0.415
Mof_Na	Na	0.48955	0.8621	0.99699	2.254
Mof_O 	O 	0.23618	0.69053	0.92838	-0.822
Mof_O 	O 	0.35365	0.75395	0.05571	-0.719
Mof_O 	O 	0.32823	0.74284	0.85797	-0.567
Mof_O 	O 	0.11156	0.68168	0.10113	-0.668
Mof_O 	O 	0.42466	0.85259	0.10511	-0.7
Mof_O 	O 	0.0378	0.7242	0.6894	-0.148
Mof_O 	O 	0.03022	0.66956	0.8012	-0.385
Mof_O 	O 	0.0908	0.7027	0.2322	0.039
Mof_H 	H 	0.0308	0.6926	0.2129	0.181
Mof_N 	N 	0.30347	0.90021	0.48874	-0.275
Mof_N 	N 	0.35128	0.99068	0.62488	-0.267
Mof_C 	C 	0.23448	0.74566	0.80739	-0.24
Mof_C 	C 	0.3166	0.93397	0.669	0.07
Mof_C 	C 	0.2685	0.72515	0.86916	0.486
Mof_C 	C 	0.3207	0.9487	0.7541	-0.054
Mof_H 	H 	0.3011	0.9179	0.7975	0.026
Mof_C 	C 	0.27231	0.795	0.7501	0.031
Mof_H 	H 	0.3188	0.8146	0.75	0.005
Mof_C 	C 	0.28764	0.8643	0.4168	0.075
Mof_C 	C 	0.31526	0.80201	0.152	-0.248
Mof_C 	C 	0.28119	0.87061	0.63404	-0.099
Mof_C 	C 	0.2491	0.75774	0.13595	0.193
Mof_H 	H 	0.2373	0.7273	0.092	-0.137
Mof_C 	C 	0.28399	0.8447	0.26765	-0.035
Mof_C 	C 	0.33206	0.84537	0.21731	0.051
Mof_H 	H 	0.3771	0.876	0.2278	0.009
Mof_C 	C 	0.2768	0.85544	0.551	0.08
Mof_C 	C 	0.24146	0.815	0.6934	-0.013
Mof_C 	C 	0.21803	0.80114	0.24971	0.051
Mof_H 	H 	0.1846	0.8009	0.2828	0.032
Mof_C 	C 	0.24584	0.79001	0.5179	-0.074
Mof_H 	H 	0.2242	0.7501	0.5482	0.054
Mof_C 	C 	0.30438	0.89175	0.3383	-0.092
Mof_C 	C 	0.16723	0.71583	0.8045	0.155
Mof_H 	H 	0.1415	0.6824	0.843	-0.161
Mof_C 	C 	0.35806	0.01546	0.7618	-0.111
Mof_H 	H 	0.3692	0.0399	0.8114	0.041
Mof_C 	C 	0.25316	0.79564	0.4356	-0.071
Mof_H 	H 	0.2382	0.7605	0.3974	0.054
Mof_C 	C 	0.17525	0.78409	0.6896	0.003
Mof_H 	H 	0.1547	0.7963	0.6485	0.046
Mof_C 	C 	0.36811	0.80267	0.1	0.53
Mof_C 	C 	0.0629	0.7032	0.7416	0.343
Mof_C 	C 	0.20083	0.75813	0.1838	-0.248
Mof_C 	C 	0.13614	0.73395	0.7458	-0.167
Mof_C 	C 	0.37711	0.0414	0.681	0.058
Mof_C 	C 	0.12991	0.71371	0.1627	0.502
Mof_O 	O 	0.0395	0.7002	0.6688	-0.132
Mof_O 	O 	0.0904	0.7237	0.2096	-0.396
Mof_Pr	Pr	0.66667	0.33333	0.0345	2.63
Mof_Pr	Pr	0.33333	0.66667	0.9655	2.63
Mof_Zn	Zn	0.63129	0.63129	0.5	1.157
Mof_Zn	Zn	0.36871	6.47907e-33	0.5	1.15
Mof_Zn	Zn	-1.33721e-17	0.36871	0.5	1.15
_end
