# CIF file generated by openbabel 3.1.0, see https://openbabel.org
data_I
_chemical_name_common 'image0'
_cell_length_a 19.1212
_cell_length_b 19.1211
_cell_length_c 12.7594
_cell_angle_alpha 92.4027
_cell_angle_beta 87.5339
_cell_angle_gamma 95.0025
_space_group_name_H-M_alt 'P 1'
_space_group_name_Hall 'P 1'
loop_
    _symmetry_equiv_pos_as_xyz
    x,y,z
loop_
    _atom_site_label
    _atom_site_type_symbol
    _atom_site_fract_x
    _atom_site_fract_y
    _atom_site_fract_z
    _atom_site_occupancy
    Zn1      Zn       0.06376    0.76571    0.32296    1.000
    Zn2      Zn       0.05864    0.64802    0.49148    1.000
    Zn3      Zn       0.94609    0.76066    0.50584    1.000
    Zn4      Zn       0.94104    0.64307    0.32306    1.000
    O1       O        0.00238    0.70437    0.41083    1.000
    O2       O        0.16155    0.75428    0.33926    1.000
    O3       O        0.04369    0.66293    0.64040    1.000
    O4       O        0.96595    0.85980    0.48755    1.000
    O5       O        0.15779    0.66782    0.46308    1.000
    O6       O        0.05241    0.86351    0.35319    1.000
    O7       O        0.96099    0.74568    0.65095    1.000
    O8       O        0.84695    0.74088    0.48764    1.000
    O9       O        0.95734    0.65938    0.17602    1.000
    O10      O        0.84324    0.65449    0.35335    1.000
    O11      O        0.04751    0.74948    0.17595    1.000
    O12      O        0.03879    0.54890    0.46317    1.000
    O13      O        0.95238    0.54526    0.33943    1.000
    C1       C        0.81956    0.69660    0.42207    1.000
    C2       C        0.74135    0.69326    0.42685    1.000
    C3       C        0.29891    0.67211    0.45708    1.000
    C4       C        0.37240    0.67525    0.45260    1.000
    C5       C        0.41110    0.72177    0.38578    1.000
    C6       C        0.37631    0.76515    0.32345    1.000
    C7       C        0.30282    0.76201    0.32794    1.000
    C8       C        0.63308    0.73350    0.36900    1.000
    C9       C        0.70657    0.73663    0.36452    1.000
    C10      C        0.70265    0.64674    0.49367    1.000
    C11      C        0.62917    0.64360    0.49814    1.000
    C12      C        0.59438    0.68698    0.43582    1.000
    C13      C        0.48621    0.72498    0.38120    1.000
    C14      C        0.51927    0.68378    0.44041    1.000
    C15      C        0.99450    0.52155    0.39973    1.000
    C16      C        0.99119    0.44334    0.39494    1.000
    C17      C        0.03466    0.40852    0.45705    1.000
    C18      C        0.03155    0.33504    0.45254    1.000
    C19      C        0.98498    0.29638    0.38592    1.000
    C20      C        0.94151    0.33121    0.32380    1.000
    C21      C        0.94462    0.40469    0.32830    1.000
    C22      C        0.97333    0.07442    0.36908    1.000
    C23      C        0.97023    0.00093    0.36458    1.000
    C24      C        0.06028    0.00477    0.49333    1.000
    C25      C        0.06338    0.07825    0.49784    1.000
    C26      C        0.01991    0.11307    0.43571    1.000
    C27      C        0.98180    0.22127    0.38131    1.000
    C28      C        0.02309    0.18818    0.44031    1.000
    C29      C        0.18591    0.71217    0.39956    1.000
    C30      C        0.26412    0.71549    0.39475    1.000
    C31      C        0.00243    0.70444    0.13680    1.000
    C32      C        0.00245    0.70447    0.02003    1.000
    C33      C        0.01031    0.88790    0.42196    1.000
    C34      C        0.01369    0.96611    0.42670    1.000
    C35      C        0.95941    0.74757    0.97065    1.000
    C36      C        0.95943    0.74759    0.86093    1.000
    C37      C        0.04554    0.66141    0.84996    1.000
    C38      C        0.04551    0.66139    0.95968    1.000
    C39      C        0.90970    0.79733    0.97698    1.000
    C40      C        0.90972    0.79735    0.86726    1.000
    C41      C        0.00238    0.70435    0.68380    1.000
    C42      C        0.00250    0.70452    0.80058    1.000
    H1       H        0.40782    0.80303    0.26905    1.000
    H2       H        0.93230    0.96945    0.31031    1.000
    H3       H        0.10131    0.10972    0.55208    1.000
    H4       H        0.51773    0.76285    0.32679    1.000
    C43      C        0.59482    0.78122    0.30043    1.000
    N1       N        0.56601    0.81716    0.24878    1.000
    H5       H        0.85712    0.77564    0.83522    1.000
    C44      C        0.89027    0.28868    0.25051    1.000
    N2       N        0.85167    0.25665    0.19532    1.000
    C45      C        0.89680    0.44299    0.25997    1.000
    N3       N        0.86078    0.47184    0.20850    1.000
    H6       H        0.08060    0.62634    0.80082    1.000
    H7       H        0.92667    0.85248    0.83988    1.000
    C46      C        0.26456    0.80973    0.25937    1.000
    N4       N        0.23573    0.84567    0.20772    1.000
    H8       H        0.59766    0.60572    0.55255    1.000
    H9       H        0.73098    0.61142    0.54441    1.000
    H10      H        0.85456    0.78042    0.00921    1.000
    H11      H        0.93794    0.10276    0.31850    1.000
    H12      H        0.08055    0.62628    0.99988    1.000
    C47      C        0.74914    0.78781    0.29101    1.000
    N5       N        0.78120    0.82635    0.23565    1.000
    C48      C        0.93908    0.86838    0.02558    1.000
    N6       N        0.96121    0.92188    0.06218    1.000
    H13      H        0.94387    0.18978    0.32707    1.000
    H14      H        0.09567    0.97641    0.54391    1.000
    H15      H        0.26741    0.63423    0.51148    1.000
    C49      C        0.47670    0.63261    0.51391    1.000
    N7       N        0.44462    0.59407    0.56926    1.000
    H16      H        0.06102    0.21966    0.49456    1.000
    H17      H        0.07259    0.43999    0.51131    1.000
    H18      H        0.40072    0.63993    0.50335    1.000
    C50      C        0.07937    0.29674    0.52088    1.000
    N8       N        0.11539    0.26789    0.57236    1.000
