data_functionalizedCrystal
_audit_creation_method	'EQeq! by Chris Wilmer'
_symmetry_space_group_name_H-M	'P1'
_symmetry_Int_Tables_number	1
_symmetry_cell_setting	triclinic
loop_
_symmetry_equiv_pos_as_xyz
  x,y,z
_cell_length_a	12.611
_cell_length_b	46.104
_cell_length_c	22.386
_cell_angle_alpha	90
_cell_angle_beta	90.333
_cell_angle_gamma	90
loop_
_atom_site_label
_atom_site_type_symbol
_atom_site_fract_x
_atom_site_fract_y
_atom_site_fract_z
_atom_site_charge
Mof_Fe	Fe	0.50777	0.99942	0.24948	0.756
Mof_Fe	Fe	0.85124	0.24497	0.51041	0.708
Mof_S 	S 	0.1429	0.17615	0.5208	0.004
Mof_N 	N 	0.977	0.21816	0.5088	-0.178
Mof_C 	C 	0.0475	0.2	0.5133	0.072
Mof_N 	N 	0.7192	0.27085	0.5159	-0.174
Mof_S 	S 	0.5601	0.31209	0.5299	0.396
Mof_C 	C 	0.6473	0.2861	0.518	0.091
Mof_C 	C 	0.6544	0.1732	0.2983	0.103
Mof_N 	N 	0.6048	0.19197	0.2555	-0.116
Mof_C 	C 	0.5668	0.1785	0.208	0.105
Mof_N 	N 	0.5486	0.14802	0.2079	-0.059
Mof_C 	C 	0.5841	0.1342	0.2504	0.139
Mof_N 	N 	0.6295	0.14741	0.301	-0.121
Mof_N 	N 	0.779	0.21727	0.4403	-0.226
Mof_C 	C 	0.7116	0.231	0.4049	0.178
Mof_H 	H 	0.6931	0.2506	0.4121	-0.011
Mof_C 	C 	0.6733	0.2176	0.3622	-0.218
Mof_H 	H 	0.6301	0.2286	0.3358	0.133
Mof_C 	C 	0.6851	0.18897	0.3482	0.146
Mof_C 	C 	0.7476	0.17617	0.3893	-0.212
Mof_H 	H 	0.7572	0.1557	0.3879	0.132
Mof_C 	C 	0.7959	0.19122	0.4313	0.191
Mof_H 	H 	0.8462	0.1816	0.456	-0.021
Mof_N 	N 	0.4251	0.22763	0.0739	-0.195
Mof_C 	C 	0.5127	0.2391	0.1125	0.107
Mof_H 	H 	0.5424	0.2576	0.1042	0.012
Mof_C 	C 	0.548	0.2243	0.1563	-0.158
Mof_H 	H 	0.5965	0.2329	0.1836	0.114
Mof_C 	C 	0.5151	0.19448	0.165	0.16
Mof_C 	C 	0.4505	0.18381	0.1237	-0.219
Mof_H 	H 	0.4389	0.1635	0.1233	0.323
Mof_C 	C 	0.4013	0.19963	0.083	0.178
Mof_H 	H 	0.3473	0.1909	0.0593	0.087
Mof_N 	N 	0.5416	0.04623	0.2498	-0.213
Mof_C 	C 	0.5308	0.0597	0.2045	0.296
Mof_H 	H 	0.508	0.0502	0.169	0.23
Mof_C 	C 	0.5511	0.08885	0.204	-0.135
Mof_H 	H 	0.5419	0.0986	0.167	0.398
Mof_C 	C 	0.5814	0.10427	0.2485	0.17
Mof_C 	C 	0.5937	0.08653	0.3019	-0.142
Mof_H 	H 	0.613	0.0955	0.3386	0.112
Mof_C 	C 	0.5787	0.0583	0.3003	0.162
Mof_H 	H 	0.5939	0.0467	0.3343	-0.01
Mof_N 	N 	0.6272	0.1462	0.7128	-0.116
Mof_C 	C 	0.6314	0.17709	0.7169	0.094
Mof_N 	N 	0.5986	0.19165	0.7664	-0.131
Mof_C 	C 	0.5462	0.17814	0.8041	0.132
Mof_N 	N 	0.5205	0.15104	0.8032	-0.098
Mof_C 	C 	0.5703	0.13486	0.7585	0.114
Mof_N 	N 	0.798	0.22004	0.5841	-0.213
Mof_C 	C 	0.7565	0.2329	0.6252	0.114
Mof_H 	H 	0.7638	0.2534	0.6253	0.019
Mof_C 	C 	0.6939	0.2198	0.6768	-0.13
Mof_H 	H 	0.6564	0.2309	0.7054	0.11
Mof_C 	C 	0.6979	0.18992	0.6771	0.101
Mof_C 	C 	0.7495	0.17682	0.6345	-0.159
Mof_H 	H 	0.7532	0.1562	0.6342	0.113
Mof_C 	C 	0.7993	0.1926	0.5895	0.131
Mof_H 	H 	0.8375	0.1819	0.5604	-0.002
Mof_N 	N 	0.4048	0.22778	0.9397	-0.207
Mof_C 	C 	0.4832	0.23791	0.8992	0.138
Mof_H 	H 	0.5112	0.2568	0.905	0
Mof_C 	C 	0.5161	0.22357	0.8576	-0.183
Mof_H 	H 	0.5565	0.2335	0.8283	0.121
Mof_C 	C 	0.5004	0.1949	0.8493	0.117
Mof_C 	C 	0.4204	0.1837	0.8892	-0.172
Mof_H 	H 	0.396	0.1643	0.8857	0.225
Mof_C 	C 	0.3814	0.20133	0.9312	0.151
Mof_H 	H 	0.3307	0.1932	0.9574	0.062
Mof_N 	N 	0.5127	0.0451	0.752	-0.182
Mof_C 	C 	0.5608	0.06099	0.7076	0.136
Mof_H 	H 	0.5833	0.0509	0.6729	-0.002
Mof_C 	C 	0.5778	0.08916	0.7099	-0.157
Mof_H 	H 	0.6101	0.0982	0.6765	0.111
Mof_C 	C 	0.5528	0.10515	0.7551	0.125
Mof_C 	C 	0.4996	0.0928	0.8051	-0.068
Mof_H 	H 	0.4759	0.1039	0.8382	0.337
Mof_C 	C 	0.4859	0.0629	0.8006	0.135
Mof_H 	H 	0.4551	0.0535	0.834	0.232
Mof_Cl	Cl	0.4533	0.11604	0.9905	2.65
Mof_S 	S 	0.1328	0.18164	0.475	0.04
Mof_S 	S 	0.3804	0.02074	0.4395	-0.07
Mof_C 	C 	0.3747	0.0097	0.3684	0.067
Mof_N 	N 	0.4177	0.0039	0.3307	-0.179
Mof_N 	N 	0.6267	0.9919	0.3198	-0.188
Mof_C 	C 	0.632	0.9801	0.3605	0.048
Mof_S 	S 	0.6549	0.96445	0.4283	-0.011
Mof_C 	C 	0.9289	0.0016	0.0967	-0.397
Mof_N 	N 	0.0039	0.0053	0.1236	0.13
Mof_C 	C 	0.0827	0.023	0.107	1.412
Mof_N 	N 	0.0985	0.0071	0.0284	0.152
Mof_C 	C 	0.0101	0.0084	0.995	-0.135
Mof_N 	N 	0.9185	0.0002	0.0268	-0.136
Mof_N 	N 	0.6385	0.9935	0.1916	0.143
Mof_C 	C 	0.7349	0.0015	0.217	-0.139
Mof_H 	H 	0.739	0.0061	0.2583	0.065
Mof_C 	C 	0.8254	0.0028	0.182	0.323
Mof_H 	H 	0.8913	0.0083	0.1994	-0.048
Mof_C 	C 	0.8196	0.9961	0.1215	-0.02
Mof_C 	C 	0.7231	0.9881	0.0961	0.093
Mof_H 	H 	0.7191	0.9835	0.0548	0.291
Mof_C 	C 	0.6326	0.9867	0.1311	-0.501
Mof_H 	H 	0.5667	0.9813	0.1137	0.241
Mof_N 	N 	0.3659	0.0035	0.1942	-0.041
Mof_C 	C 	0.2696	0.0119	0.2184	0.235
Mof_H 	H 	0.264	0.0152	0.2602	0.039
Mof_C 	C 	0.1815	0.0156	0.1816	0.064
Mof_H 	H 	0.1157	0.0214	0.1982	0.228
Mof_C 	C 	0.1897	0.0109	0.1205	0.739
Mof_C 	C 	0.2861	0.0024	0.0962	-0.857
Mof_H 	H 	0.2917	0.9991	0.0545	-0.235
Mof_C 	C 	0.3742	0.9987	0.1331	-0.284
Mof_H 	H 	0.44	0.9929	0.1165	0.025
Mof_N 	N 	0.0196	0.99478	0.8195	-0.09
Mof_C 	C 	0.1077	0.00543	0.85	0.365
Mof_H 	H 	0.1727	0.0081	0.8295	-0.209
Mof_C 	C 	0.1007	0.01212	0.9104	-0.03
Mof_H 	H 	0.1609	0.0194	0.9312	0.338
Mof_C 	C 	0.0056	0.00816	0.9403	1.06
Mof_C 	C 	0.9174	0.9975	0.9099	-1.646
Mof_H 	H 	0.8524	0.9948	0.9304	0.608
Mof_C 	C 	0.9244	0.99081	0.8495	-0.171
Mof_H 	H 	0.8642	0.9835	0.8287	-0.117
Mof_N 	N 	0.4064	0.00509	0.1775	-0.049
Mof_C 	C 	0.3749	0.00815	0.1287	0.404
Mof_S 	S 	0.3452	0.02063	0.0604	3.292
Mof_N 	N 	0.6016	0.00098	0.17529	-0.316
Mof_C 	C 	0.6321	0.00282	0.1278	0.603
Mof_S 	S 	0.6325	0.01512	0.05697	-0.051
Mof_C 	C 	0.1013	0.0007	0.41	-0.036
Mof_N 	N 	0.1	0.9989	0.4719	-0.115
Mof_C 	C 	0.0041	0.9966	0.5018	0.056
Mof_N 	N 	0.9094	0.9961	0.4697	-0.125
Mof_C 	C 	0.9107	0.9979	0.4077	-0.056
Mof_N 	N 	0.0066	0.0001	0.3779	-0.095
Mof_N 	N 	0.3755	0.0054	0.3094	-0.032
Mof_C 	C 	0.382	0.0119	0.3699	0.093
Mof_H 	H 	0.4476	0.0179	0.3869	0.023
Mof_C 	C 	0.2925	0.0097	0.4056	-0.102
Mof_H 	H 	0.2969	0.0142	0.4469	0.105
Mof_C 	C 	0.1965	0.0009	0.3807	-0.016
Mof_C 	C 	0.19	0.9943	0.3202	0.075
Mof_H 	H 	0.1243	0.9883	0.3032	0.052
Mof_C 	C 	0.2794	0.9966	0.2845	-0.054
Mof_H 	H 	0.275	0.9921	0.2432	0.013
Mof_N 	N 	0.998	0.0085	0.6824	-0.083
Mof_C 	C 	0.0907	0.0114	0.6497	0.019
Mof_H 	H 	0.1568	0.0137	0.6698	0.097
Mof_C 	C 	0.0868	0.0109	0.5877	0.042
Mof_H 	H 	0.1502	0.0129	0.5653	0.077
Mof_C 	C 	0.9902	0.0075	0.5583	0.124
Mof_C 	C 	0.8975	0.0046	0.591	0.007
Mof_H 	H 	0.8314	0.0023	0.571	0.092
Mof_C 	C 	0.9013	0.0051	0.6531	0.106
Mof_H 	H 	0.838	0.0031	0.6754	-0.057
Mof_N 	N 	0.6524	0.9977	0.3028	-0
Mof_C 	C 	0.621	0.9875	0.3661	0.084
Mof_H 	H 	0.5536	0.9822	0.3808	0.003
Mof_C 	C 	0.7341	0.9885	0.4006	-0.115
Mof_H 	H 	0.7385	0.9822	0.441	0.083
Mof_C 	C 	0.8271	0.9986	0.3714	0.069
Mof_C 	C 	0.8251	0.0076	0.3174	-0.187
Mof_H 	H 	0.889	0.015	0.3011	0.144
Mof_C 	C 	0.7437	0.0074	0.2844	0.018
Mof_H 	H 	0.7491	0.0145	0.2447	0.044
Mof_Cl	Cl	0.3541	0.0753	0.9344	-5.098
Mof_C 	C 	0.4189	0.07651	0.0027	-16.156
Mof_H 	H 	0.372	0.0729	0.0378	21.944
Mof_Cl	Cl	0.3295	0.0706	0.0517	-23.826
Mof_H 	H 	0.3837	0.0707	0.9644	8.489
Mof_Cl	Cl	0.5751	0.06707	0.07802	-0.807
Mof_Cl	Cl	0.6093	0.06863	0.9507	-1.115
Mof_C 	C 	0.5144	0.05995	0.003	6.275
Mof_H 	H 	0.4965	0.0389	0.9996	-1.877
Mof_Fe	Fe	0.99223	0.49942	0.25052	0.753
Mof_Fe	Fe	0.64876	0.74497	0.98959	0.708
Mof_S 	S 	0.3571	0.67615	0.9792	0.01
Mof_N 	N 	0.523	0.71816	0.9912	-0.189
Mof_C 	C 	0.4525	0.7	0.9867	0.085
Mof_N 	N 	0.7808	0.77085	0.9841	-0.175
Mof_S 	S 	0.9399	0.81209	0.9701	0.396
Mof_C 	C 	0.8527	0.7861	0.982	0.092
Mof_C 	C 	0.8456	0.6732	0.2017	0.102
Mof_N 	N 	0.8952	0.69197	0.2445	-0.119
Mof_C 	C 	0.9332	0.6785	0.292	0.116
Mof_N 	N 	0.9514	0.64802	0.2921	-0.063
Mof_C 	C 	0.9159	0.6342	0.2496	0.138
Mof_N 	N 	0.8705	0.64741	0.199	-0.123
Mof_N 	N 	0.721	0.71727	0.0597	-0.228
Mof_C 	C 	0.7884	0.731	0.0951	0.176
Mof_H 	H 	0.8069	0.7506	0.0879	-0.013
Mof_C 	C 	0.8267	0.7176	0.1378	-0.218
Mof_H 	H 	0.8699	0.7286	0.1642	0.131
Mof_C 	C 	0.8149	0.68897	0.1518	0.144
Mof_C 	C 	0.7524	0.67617	0.1107	-0.213
Mof_H 	H 	0.7428	0.6557	0.1121	0.13
Mof_C 	C 	0.7041	0.69122	0.0687	0.19
Mof_H 	H 	0.6538	0.6816	0.044	-0.024
Mof_N 	N 	0.0749	0.72763	0.4261	-0.183
Mof_C 	C 	0.9873	0.7391	0.3875	0.077
Mof_H 	H 	0.9576	0.7576	0.3958	0.018
Mof_C 	C 	0.952	0.7243	0.3437	-0.131
Mof_H 	H 	0.9035	0.7329	0.3164	0.103
Mof_C 	C 	0.9849	0.69448	0.335	0.12
Mof_C 	C 	0.0495	0.68381	0.3763	-0.172
Mof_H 	H 	0.0611	0.6635	0.3767	0.311
Mof_C 	C 	0.0987	0.69963	0.417	0.157
Mof_H 	H 	0.1527	0.6909	0.4407	0.094
Mof_N 	N 	0.9584	0.54623	0.2502	-0.213
Mof_C 	C 	0.9692	0.5597	0.2955	0.294
Mof_H 	H 	0.992	0.5502	0.331	0.229
Mof_C 	C 	0.9489	0.58885	0.296	-0.135
Mof_H 	H 	0.9581	0.5986	0.333	0.395
Mof_C 	C 	0.9186	0.60427	0.2515	0.168
Mof_C 	C 	0.9063	0.58653	0.1981	-0.142
Mof_H 	H 	0.887	0.5955	0.1614	0.11
Mof_C 	C 	0.9213	0.5583	0.1997	0.161
Mof_H 	H 	0.9061	0.5467	0.1657	-0.011
Mof_N 	N 	0.8728	0.6462	0.7872	-0.116
Mof_C 	C 	0.8686	0.67709	0.7831	0.093
Mof_N 	N 	0.9014	0.69165	0.7336	-0.13
Mof_C 	C 	0.9538	0.67814	0.6959	0.123
Mof_N 	N 	0.9795	0.65104	0.6968	-0.099
Mof_C 	C 	0.9297	0.63486	0.7415	0.116
Mof_N 	N 	0.702	0.72004	0.9159	-0.214
Mof_C 	C 	0.7435	0.7329	0.8748	0.113
Mof_H 	H 	0.7362	0.7534	0.8747	0.018
Mof_C 	C 	0.8061	0.7198	0.8232	-0.131
Mof_H 	H 	0.8436	0.7309	0.7946	0.108
Mof_C 	C 	0.8021	0.68992	0.8229	0.1
Mof_C 	C 	0.7505	0.67682	0.8655	-0.16
Mof_H 	H 	0.7468	0.6562	0.8658	0.112
Mof_C 	C 	0.7007	0.6926	0.9105	0.13
Mof_H 	H 	0.6625	0.6819	0.9396	-0.003
Mof_N 	N 	0.0952	0.72778	0.5603	-0.215
Mof_C 	C 	0.0168	0.73791	0.6008	0.208
Mof_H 	H 	0.9888	0.7568	0.595	-0.031
Mof_C 	C 	0.9839	0.72357	0.6424	-0.247
Mof_H 	H 	0.9435	0.7335	0.6717	0.14
Mof_C 	C 	0.9996	0.6949	0.6507	0.133
Mof_C 	C 	0.0796	0.6837	0.6108	-0.172
Mof_H 	H 	0.104	0.6643	0.6143	0.227
Mof_C 	C 	0.1186	0.70133	0.5688	0.157
Mof_H 	H 	0.1693	0.6932	0.5426	0.063
Mof_N 	N 	0.9873	0.5451	0.748	-0.181
Mof_C 	C 	0.9392	0.56099	0.7924	0.132
Mof_H 	H 	0.9167	0.5509	0.8271	-0
Mof_C 	C 	0.9222	0.58916	0.7901	-0.15
Mof_H 	H 	0.8899	0.5982	0.8235	0.108
Mof_C 	C 	0.9472	0.60515	0.7449	0.115
Mof_C 	C 	0.0004	0.5928	0.6949	-0.057
Mof_H 	H 	0.0241	0.6039	0.6618	0.335
Mof_C 	C 	0.0141	0.5629	0.6994	0.132
Mof_H 	H 	0.0449	0.5535	0.666	0.233
Mof_Cl	Cl	0.0467	0.61604	0.5095	2.652
Mof_S 	S 	0.3672	0.68164	0.025	0.037
Mof_S 	S 	0.1196	0.52074	0.0605	-0.064
Mof_C 	C 	0.1253	0.5097	0.1316	0.066
Mof_N 	N 	0.0823	0.5039	0.1693	-0.177
Mof_N 	N 	0.8733	0.4919	0.1802	-0.188
Mof_C 	C 	0.868	0.4801	0.1395	0.047
Mof_S 	S 	0.8451	0.46445	0.0717	-0.011
Mof_C 	C 	0.5711	0.5016	0.4033	-0.399
Mof_N 	N 	0.4961	0.5053	0.3764	0.127
Mof_C 	C 	0.4173	0.523	0.393	1.415
Mof_N 	N 	0.4015	0.5071	0.4716	0.147
Mof_C 	C 	0.4899	0.5084	0.505	-0.134
Mof_N 	N 	0.5815	0.5002	0.4732	-0.137
Mof_N 	N 	0.8615	0.4935	0.3084	0.146
Mof_C 	C 	0.7651	0.5015	0.283	-0.14
Mof_H 	H 	0.761	0.5061	0.2417	0.065
Mof_C 	C 	0.6746	0.5028	0.318	0.324
Mof_H 	H 	0.6087	0.5083	0.3006	-0.049
Mof_C 	C 	0.6804	0.4961	0.3785	-0.022
Mof_C 	C 	0.7769	0.4881	0.4039	0.096
Mof_H 	H 	0.7809	0.4835	0.4452	0.291
Mof_C 	C 	0.8674	0.4867	0.3689	-0.508
Mof_H 	H 	0.9333	0.4813	0.3863	0.243
Mof_N 	N 	0.1341	0.5035	0.3058	-0.042
Mof_C 	C 	0.2304	0.5119	0.2816	0.235
Mof_H 	H 	0.236	0.5152	0.2398	0.04
Mof_C 	C 	0.3185	0.5156	0.3184	0.063
Mof_H 	H 	0.3843	0.5214	0.3018	0.227
Mof_C 	C 	0.3103	0.5109	0.3795	0.737
Mof_C 	C 	0.2139	0.5024	0.4038	-0.857
Mof_H 	H 	0.2083	0.4991	0.4455	-0.234
Mof_C 	C 	0.1258	0.4987	0.3669	-0.282
Mof_H 	H 	0.06	0.4929	0.3835	0.025
Mof_N 	N 	0.4804	0.49478	0.6805	-0.089
Mof_C 	C 	0.3923	0.50543	0.65	0.37
Mof_H 	H 	0.3273	0.5081	0.6705	-0.21
Mof_C 	C 	0.3993	0.51212	0.5896	-0.031
Mof_H 	H 	0.3391	0.5194	0.5688	0.339
Mof_C 	C 	0.4944	0.50816	0.5597	1.071
Mof_C 	C 	0.5826	0.4975	0.5901	-1.657
Mof_H 	H 	0.6476	0.4948	0.5696	0.611
Mof_C 	C 	0.5756	0.49081	0.6505	-0.17
Mof_H 	H 	0.6358	0.4835	0.6713	-0.117
Mof_N 	N 	0.0936	0.50509	0.3225	-0.047
Mof_C 	C 	0.1251	0.50815	0.3713	0.404
Mof_S 	S 	0.1548	0.52063	0.4396	3.284
Mof_N 	N 	0.8984	0.50098	0.32471	-0.319
Mof_C 	C 	0.8679	0.50282	0.3722	0.609
Mof_S 	S 	0.8675	0.51512	0.44303	-0.053
Mof_C 	C 	0.3987	0.5007	0.09	-0.036
Mof_N 	N 	0.4	0.4989	0.0281	-0.114
Mof_C 	C 	0.4959	0.4966	0.9982	0.056
Mof_N 	N 	0.5906	0.4961	0.0303	-0.126
Mof_C 	C 	0.5893	0.4979	0.0923	-0.054
Mof_N 	N 	0.4934	0.5001	0.1221	-0.096
Mof_N 	N 	0.1245	0.5054	0.1906	-0.032
Mof_C 	C 	0.118	0.5119	0.1301	0.092
Mof_H 	H 	0.0524	0.5179	0.1131	0.026
Mof_C 	C 	0.2075	0.5097	0.0944	-0.101
Mof_H 	H 	0.2031	0.5142	0.0531	0.104
Mof_C 	C 	0.3035	0.5009	0.1193	-0.016
Mof_C 	C 	0.31	0.4943	0.1798	0.076
Mof_H 	H 	0.3757	0.4883	0.1968	0.051
Mof_C 	C 	0.2206	0.4966	0.2155	-0.054
Mof_H 	H 	0.225	0.4921	0.2568	0.013
Mof_N 	N 	0.502	0.5085	0.8176	-0.086
Mof_C 	C 	0.4093	0.5114	0.8503	0.023
Mof_H 	H 	0.3432	0.5137	0.8302	0.097
Mof_C 	C 	0.4132	0.5109	0.9123	0.041
Mof_H 	H 	0.3498	0.5129	0.9347	0.077
Mof_C 	C 	0.5098	0.5075	0.9417	0.122
Mof_C 	C 	0.6025	0.5046	0.909	0.008
Mof_H 	H 	0.6686	0.5023	0.929	0.092
Mof_C 	C 	0.5987	0.5051	0.8469	0.106
Mof_H 	H 	0.662	0.5031	0.8246	-0.057
Mof_N 	N 	0.8476	0.4977	0.1972	0
Mof_C 	C 	0.879	0.4875	0.1339	0.085
Mof_H 	H 	0.9464	0.4822	0.1192	0.002
Mof_C 	C 	0.7659	0.4885	0.0994	-0.114
Mof_H 	H 	0.7615	0.4822	0.059	0.082
Mof_C 	C 	0.6729	0.4986	0.1286	0.067
Mof_C 	C 	0.6749	0.5076	0.1826	-0.187
Mof_H 	H 	0.611	0.515	0.1989	0.144
Mof_C 	C 	0.7563	0.5074	0.2156	0.018
Mof_H 	H 	0.7509	0.5145	0.2553	0.045
Mof_Cl	Cl	0.1459	0.5753	0.5656	-5.083
Mof_C 	C 	0.0811	0.57651	0.4973	-16.111
Mof_H 	H 	0.128	0.5729	0.4622	21.889
Mof_Cl	Cl	0.1705	0.5706	0.4483	-23.766
Mof_H 	H 	0.1163	0.5707	0.5356	8.468
Mof_Cl	Cl	0.9249	0.56707	0.42198	-0.807
Mof_Cl	Cl	0.8907	0.56863	0.5493	-1.114
Mof_C 	C 	0.9856	0.55995	0.497	6.247
Mof_H 	H 	0.0035	0.5389	0.5004	-1.864
Mof_Fe	Fe	0.49223	0.00058	0.75052	0.755
Mof_Fe	Fe	0.14876	0.75503	0.48959	0.707
Mof_S 	S 	0.8571	0.82385	0.4792	0.003
Mof_N 	N 	0.023	0.78184	0.4912	-0.179
Mof_C 	C 	0.9525	0.8	0.4867	0.071
Mof_N 	N 	0.2808	0.72915	0.4841	-0.175
Mof_S 	S 	0.4399	0.68791	0.4701	0.396
Mof_C 	C 	0.3527	0.7139	0.482	0.091
Mof_C 	C 	0.3456	0.8268	0.7017	0.103
Mof_N 	N 	0.3952	0.80803	0.7445	-0.116
Mof_C 	C 	0.4332	0.8215	0.792	0.105
Mof_N 	N 	0.4514	0.85198	0.7921	-0.059
Mof_C 	C 	0.4159	0.8658	0.7496	0.139
Mof_N 	N 	0.3705	0.85259	0.699	-0.121
Mof_N 	N 	0.221	0.78273	0.5597	-0.226
Mof_C 	C 	0.2884	0.769	0.5951	0.178
Mof_H 	H 	0.3069	0.7494	0.5879	-0.011
Mof_C 	C 	0.3267	0.7824	0.6378	-0.218
Mof_H 	H 	0.3699	0.7714	0.6642	0.133
Mof_C 	C 	0.3149	0.81103	0.6518	0.146
Mof_C 	C 	0.2524	0.82383	0.6107	-0.212
Mof_H 	H 	0.2428	0.8443	0.6121	0.132
Mof_C 	C 	0.2041	0.80878	0.5687	0.191
Mof_H 	H 	0.1538	0.8184	0.544	-0.021
Mof_N 	N 	0.5749	0.77237	0.9261	-0.195
Mof_C 	C 	0.4873	0.7609	0.8875	0.107
Mof_H 	H 	0.4576	0.7424	0.8958	0.012
Mof_C 	C 	0.452	0.7757	0.8437	-0.158
Mof_H 	H 	0.4035	0.7671	0.8164	0.114
Mof_C 	C 	0.4849	0.80552	0.835	0.16
Mof_C 	C 	0.5495	0.81619	0.8763	-0.219
Mof_H 	H 	0.5611	0.8365	0.8767	0.323
Mof_C 	C 	0.5987	0.80037	0.917	0.178
Mof_H 	H 	0.6527	0.8091	0.9407	0.087
Mof_N 	N 	0.4584	0.95377	0.7502	-0.213
Mof_C 	C 	0.4692	0.9403	0.7955	0.296
Mof_H 	H 	0.492	0.9498	0.831	0.23
Mof_C 	C 	0.4489	0.91115	0.796	-0.135
Mof_H 	H 	0.4581	0.9014	0.833	0.398
Mof_C 	C 	0.4186	0.89573	0.7515	0.17
Mof_C 	C 	0.4063	0.91347	0.6981	-0.142
Mof_H 	H 	0.387	0.9045	0.6614	0.112
Mof_C 	C 	0.4213	0.9417	0.6997	0.162
Mof_H 	H 	0.4061	0.9533	0.6657	-0.01
Mof_N 	N 	0.3728	0.8538	0.2872	-0.116
Mof_C 	C 	0.3686	0.82291	0.2831	0.094
Mof_N 	N 	0.4014	0.80835	0.2336	-0.131
Mof_C 	C 	0.4538	0.82186	0.1959	0.132
Mof_N 	N 	0.4795	0.84896	0.1968	-0.098
Mof_C 	C 	0.4297	0.86514	0.2415	0.114
Mof_N 	N 	0.202	0.77996	0.4159	-0.213
Mof_C 	C 	0.2435	0.7671	0.3748	0.114
Mof_H 	H 	0.2362	0.7466	0.3747	0.019
Mof_C 	C 	0.3061	0.7802	0.3232	-0.13
Mof_H 	H 	0.3436	0.7691	0.2946	0.11
Mof_C 	C 	0.3021	0.81008	0.3229	0.101
Mof_C 	C 	0.2505	0.82318	0.3655	-0.159
Mof_H 	H 	0.2468	0.8438	0.3658	0.113
Mof_C 	C 	0.2007	0.8074	0.4105	0.131
Mof_H 	H 	0.1625	0.8181	0.4396	-0.002
Mof_N 	N 	0.5952	0.77222	0.0603	-0.207
Mof_C 	C 	0.5168	0.76209	0.1008	0.138
Mof_H 	H 	0.4888	0.7432	0.095	0
Mof_C 	C 	0.4839	0.77643	0.1424	-0.183
Mof_H 	H 	0.4435	0.7665	0.1717	0.121
Mof_C 	C 	0.4996	0.8051	0.1507	0.117
Mof_C 	C 	0.5796	0.8163	0.1108	-0.172
Mof_H 	H 	0.604	0.8357	0.1143	0.225
Mof_C 	C 	0.6186	0.79867	0.0688	0.151
Mof_H 	H 	0.6693	0.8068	0.0426	0.062
Mof_N 	N 	0.4873	0.9549	0.248	-0.182
Mof_C 	C 	0.4392	0.93901	0.2924	0.136
Mof_H 	H 	0.4167	0.9491	0.3271	-0.002
Mof_C 	C 	0.4222	0.91084	0.2901	-0.157
Mof_H 	H 	0.3899	0.9018	0.3235	0.111
Mof_C 	C 	0.4472	0.89485	0.2449	0.125
Mof_C 	C 	0.5004	0.9072	0.1949	-0.068
Mof_H 	H 	0.5241	0.8961	0.1618	0.337
Mof_C 	C 	0.5141	0.9371	0.1994	0.135
Mof_H 	H 	0.5449	0.9465	0.166	0.232
Mof_Cl	Cl	0.5467	0.88396	0.0095	2.65
Mof_S 	S 	0.8672	0.81836	0.525	0.04
Mof_S 	S 	0.6196	0.97926	0.5605	-0.07
Mof_C 	C 	0.6253	0.9903	0.6316	0.067
Mof_N 	N 	0.5823	0.9961	0.6693	-0.179
Mof_N 	N 	0.3733	0.0081	0.6802	-0.188
Mof_C 	C 	0.368	0.0199	0.6395	0.048
Mof_S 	S 	0.3451	0.03555	0.5717	-0.011
Mof_C 	C 	0.0711	0.9984	0.9033	-0.397
Mof_N 	N 	0.9961	0.9947	0.8764	0.13
Mof_C 	C 	0.9173	0.977	0.893	1.412
Mof_N 	N 	0.9015	0.9929	0.9716	0.152
Mof_C 	C 	0.9899	0.9916	0.005	-0.135
Mof_N 	N 	0.0815	0.9998	0.9732	-0.136
Mof_N 	N 	0.3615	0.0065	0.8084	0.143
Mof_C 	C 	0.2651	0.9985	0.783	-0.139
Mof_H 	H 	0.261	0.9939	0.7417	0.065
Mof_C 	C 	0.1746	0.9972	0.818	0.323
Mof_H 	H 	0.1087	0.9917	0.8006	-0.048
Mof_C 	C 	0.1804	0.0039	0.8785	-0.02
Mof_C 	C 	0.2769	0.0119	0.9039	0.093
Mof_H 	H 	0.2809	0.0165	0.9452	0.291
Mof_C 	C 	0.3674	0.0133	0.8689	-0.501
Mof_H 	H 	0.4333	0.0187	0.8863	0.241
Mof_N 	N 	0.6341	0.9965	0.8058	-0.041
Mof_C 	C 	0.7304	0.9881	0.7816	0.235
Mof_H 	H 	0.736	0.9848	0.7398	0.039
Mof_C 	C 	0.8185	0.9844	0.8184	0.064
Mof_H 	H 	0.8843	0.9786	0.8018	0.228
Mof_C 	C 	0.8103	0.9891	0.8795	0.739
Mof_C 	C 	0.7139	0.9976	0.9038	-0.857
Mof_H 	H 	0.7083	0.0009	0.9455	-0.235
Mof_C 	C 	0.6258	0.0013	0.8669	-0.284
Mof_H 	H 	0.56	0.0071	0.8835	0.025
Mof_N 	N 	0.9804	0.00522	0.1805	-0.09
Mof_C 	C 	0.8923	0.99457	0.15	0.365
Mof_H 	H 	0.8273	0.9919	0.1705	-0.209
Mof_C 	C 	0.8993	0.98788	0.0896	-0.03
Mof_H 	H 	0.8391	0.9806	0.0688	0.338
Mof_C 	C 	0.9944	0.99184	0.0597	1.06
Mof_C 	C 	0.0826	0.0025	0.0901	-1.646
Mof_H 	H 	0.1476	0.0052	0.0696	0.608
Mof_C 	C 	0.0756	0.00919	0.1505	-0.171
Mof_H 	H 	0.1358	0.0165	0.1713	-0.117
Mof_N 	N 	0.5936	0.99491	0.8225	-0.049
Mof_C 	C 	0.6251	0.99185	0.8713	0.404
Mof_S 	S 	0.6548	0.97937	0.9396	3.292
Mof_N 	N 	0.3984	0.99902	0.82471	-0.316
Mof_C 	C 	0.3679	0.99718	0.8722	0.603
Mof_S 	S 	0.3675	0.98488	0.94303	-0.051
Mof_C 	C 	0.8987	0.9993	0.59	-0.036
Mof_N 	N 	0.9	0.0011	0.5281	-0.115
Mof_C 	C 	0.9959	0.0034	0.4982	0.056
Mof_N 	N 	0.0906	0.0039	0.5303	-0.125
Mof_C 	C 	0.0893	0.0021	0.5923	-0.056
Mof_N 	N 	0.9934	0.9999	0.6221	-0.095
Mof_N 	N 	0.6245	0.9946	0.6906	-0.032
Mof_C 	C 	0.618	0.9881	0.6301	0.093
Mof_H 	H 	0.5524	0.9821	0.6131	0.023
Mof_C 	C 	0.7075	0.9903	0.5944	-0.102
Mof_H 	H 	0.7031	0.9858	0.5531	0.105
Mof_C 	C 	0.8035	0.9991	0.6193	-0.016
Mof_C 	C 	0.81	0.0057	0.6798	0.075
Mof_H 	H 	0.8757	0.0117	0.6968	0.052
Mof_C 	C 	0.7206	0.0034	0.7155	-0.054
Mof_H 	H 	0.725	0.0079	0.7568	0.013
Mof_N 	N 	0.002	0.9915	0.3176	-0.083
Mof_C 	C 	0.9093	0.9886	0.3503	0.019
Mof_H 	H 	0.8432	0.9863	0.3302	0.097
Mof_C 	C 	0.9132	0.9891	0.4123	0.042
Mof_H 	H 	0.8498	0.9871	0.4347	0.077
Mof_C 	C 	0.0098	0.9925	0.4417	0.124
Mof_C 	C 	0.1025	0.9954	0.409	0.007
Mof_H 	H 	0.1686	0.9977	0.429	0.092
Mof_C 	C 	0.0987	0.9949	0.3469	0.106
Mof_H 	H 	0.162	0.9969	0.3246	-0.057
Mof_N 	N 	0.3476	0.0023	0.6972	-0
Mof_C 	C 	0.379	0.0125	0.6339	0.084
Mof_H 	H 	0.4464	0.0178	0.6192	0.003
Mof_C 	C 	0.2659	0.0115	0.5994	-0.115
Mof_H 	H 	0.2615	0.0178	0.559	0.083
Mof_C 	C 	0.1729	0.0014	0.6286	0.069
Mof_C 	C 	0.1749	0.9924	0.6826	-0.187
Mof_H 	H 	0.111	0.985	0.6989	0.144
Mof_C 	C 	0.2563	0.9926	0.7156	0.018
Mof_H 	H 	0.2509	0.9855	0.7553	0.044
Mof_Cl	Cl	0.6459	0.9247	0.0656	-5.098
Mof_C 	C 	0.5811	0.92349	0.9973	-16.156
Mof_H 	H 	0.628	0.9271	0.9622	21.944
Mof_Cl	Cl	0.6705	0.9294	0.9483	-23.826
Mof_H 	H 	0.6163	0.9293	0.0356	8.489
Mof_Cl	Cl	0.4249	0.93293	0.92198	-0.807
Mof_Cl	Cl	0.3907	0.93137	0.0493	-1.115
Mof_C 	C 	0.4856	0.94005	0.997	6.275
Mof_H 	H 	0.5035	0.9611	0.0004	-1.877
Mof_Fe	Fe	0.00777	0.50058	0.74948	0.753
Mof_Fe	Fe	0.35124	0.25503	0.01041	0.708
Mof_S 	S 	0.6429	0.32385	0.0208	0.01
Mof_N 	N 	0.477	0.28184	0.0088	-0.189
Mof_C 	C 	0.5475	0.3	0.0133	0.085
Mof_N 	N 	0.2192	0.22915	0.0159	-0.175
Mof_S 	S 	0.0601	0.18791	0.0299	0.396
Mof_C 	C 	0.1473	0.2139	0.018	0.092
Mof_C 	C 	0.1544	0.3268	0.7983	0.102
Mof_N 	N 	0.1048	0.30803	0.7555	-0.119
Mof_C 	C 	0.0668	0.3215	0.708	0.116
Mof_N 	N 	0.0486	0.35198	0.7079	-0.063
Mof_C 	C 	0.0841	0.3658	0.7504	0.138
Mof_N 	N 	0.1295	0.35259	0.801	-0.123
Mof_N 	N 	0.279	0.28273	0.9403	-0.228
Mof_C 	C 	0.2116	0.269	0.9049	0.176
Mof_H 	H 	0.1931	0.2494	0.9121	-0.013
Mof_C 	C 	0.1733	0.2824	0.8622	-0.218
Mof_H 	H 	0.1301	0.2714	0.8358	0.131
Mof_C 	C 	0.1851	0.31103	0.8482	0.144
Mof_C 	C 	0.2476	0.32383	0.8893	-0.213
Mof_H 	H 	0.2572	0.3443	0.8879	0.13
Mof_C 	C 	0.2959	0.30878	0.9313	0.19
Mof_H 	H 	0.3462	0.3184	0.956	-0.024
Mof_N 	N 	0.9251	0.27237	0.5739	-0.183
Mof_C 	C 	0.0127	0.2609	0.6125	0.077
Mof_H 	H 	0.0424	0.2424	0.6042	0.018
Mof_C 	C 	0.048	0.2757	0.6563	-0.131
Mof_H 	H 	0.0965	0.2671	0.6836	0.103
Mof_C 	C 	0.0151	0.30552	0.665	0.12
Mof_C 	C 	0.9505	0.31619	0.6237	-0.172
Mof_H 	H 	0.9389	0.3365	0.6233	0.311
Mof_C 	C 	0.9013	0.30037	0.583	0.157
Mof_H 	H 	0.8473	0.3091	0.5593	0.094
Mof_N 	N 	0.0416	0.45377	0.7498	-0.213
Mof_C 	C 	0.0308	0.4403	0.7045	0.294
Mof_H 	H 	0.008	0.4498	0.669	0.229
Mof_C 	C 	0.0511	0.41115	0.704	-0.135
Mof_H 	H 	0.0419	0.4014	0.667	0.395
Mof_C 	C 	0.0814	0.39573	0.7485	0.168
Mof_C 	C 	0.0937	0.41347	0.8019	-0.142
Mof_H 	H 	0.113	0.4045	0.8386	0.11
Mof_C 	C 	0.0787	0.4417	0.8003	0.161
Mof_H 	H 	0.0939	0.4533	0.8343	-0.011
Mof_N 	N 	0.1272	0.3538	0.2128	-0.116
Mof_C 	C 	0.1314	0.32291	0.2169	0.093
Mof_N 	N 	0.0986	0.30835	0.2664	-0.13
Mof_C 	C 	0.0462	0.32186	0.3041	0.123
Mof_N 	N 	0.0205	0.34896	0.3032	-0.099
Mof_C 	C 	0.0703	0.36514	0.2585	0.116
Mof_N 	N 	0.298	0.27996	0.0841	-0.214
Mof_C 	C 	0.2565	0.2671	0.1252	0.113
Mof_H 	H 	0.2638	0.2466	0.1253	0.018
Mof_C 	C 	0.1939	0.2802	0.1768	-0.131
Mof_H 	H 	0.1564	0.2691	0.2054	0.108
Mof_C 	C 	0.1979	0.31008	0.1771	0.1
Mof_C 	C 	0.2495	0.32318	0.1345	-0.16
Mof_H 	H 	0.2532	0.3438	0.1342	0.112
Mof_C 	C 	0.2993	0.3074	0.0895	0.13
Mof_H 	H 	0.3375	0.3181	0.0604	-0.003
Mof_N 	N 	0.9048	0.27222	0.4397	-0.215
Mof_C 	C 	0.9832	0.26209	0.3992	0.208
Mof_H 	H 	0.0112	0.2432	0.405	-0.031
Mof_C 	C 	0.0161	0.27643	0.3576	-0.247
Mof_H 	H 	0.0565	0.2665	0.3283	0.14
Mof_C 	C 	0.0004	0.3051	0.3493	0.133
Mof_C 	C 	0.9204	0.3163	0.3892	-0.172
Mof_H 	H 	0.896	0.3357	0.3857	0.227
Mof_C 	C 	0.8814	0.29867	0.4312	0.157
Mof_H 	H 	0.8307	0.3068	0.4574	0.063
Mof_N 	N 	0.0127	0.4549	0.252	-0.181
Mof_C 	C 	0.0608	0.43901	0.2076	0.132
Mof_H 	H 	0.0833	0.4491	0.1729	-0
Mof_C 	C 	0.0778	0.41084	0.2099	-0.15
Mof_H 	H 	0.1101	0.4018	0.1765	0.108
Mof_C 	C 	0.0528	0.39485	0.2551	0.115
Mof_C 	C 	0.9996	0.4072	0.3051	-0.057
Mof_H 	H 	0.9759	0.3961	0.3382	0.335
Mof_C 	C 	0.9859	0.4371	0.3006	0.132
Mof_H 	H 	0.9551	0.4465	0.334	0.233
Mof_Cl	Cl	0.9533	0.38396	0.4905	2.652
Mof_S 	S 	0.6328	0.31836	0.975	0.037
Mof_S 	S 	0.8804	0.47926	0.9395	-0.064
Mof_C 	C 	0.8747	0.4903	0.8684	0.066
Mof_N 	N 	0.9177	0.4961	0.8307	-0.177
Mof_N 	N 	0.1267	0.5081	0.8198	-0.188
Mof_C 	C 	0.132	0.5199	0.8605	0.047
Mof_S 	S 	0.1549	0.53555	0.9283	-0.011
Mof_C 	C 	0.4289	0.4984	0.5967	-0.399
Mof_N 	N 	0.5039	0.4947	0.6236	0.127
Mof_C 	C 	0.5827	0.477	0.607	1.415
Mof_N 	N 	0.5985	0.4929	0.5284	0.147
Mof_C 	C 	0.5101	0.4916	0.495	-0.134
Mof_N 	N 	0.4185	0.4998	0.5268	-0.137
Mof_N 	N 	0.1385	0.5065	0.6916	0.146
Mof_C 	C 	0.2349	0.4985	0.717	-0.14
Mof_H 	H 	0.239	0.4939	0.7583	0.065
Mof_C 	C 	0.3254	0.4972	0.682	0.324
Mof_H 	H 	0.3913	0.4917	0.6994	-0.049
Mof_C 	C 	0.3196	0.5039	0.6215	-0.022
Mof_C 	C 	0.2231	0.5119	0.5961	0.096
Mof_H 	H 	0.2191	0.5165	0.5548	0.291
Mof_C 	C 	0.1326	0.5133	0.6311	-0.508
Mof_H 	H 	0.0667	0.5187	0.6137	0.243
Mof_N 	N 	0.8659	0.4965	0.6942	-0.042
Mof_C 	C 	0.7696	0.4881	0.7184	0.235
Mof_H 	H 	0.764	0.4848	0.7602	0.04
Mof_C 	C 	0.6815	0.4844	0.6816	0.063
Mof_H 	H 	0.6157	0.4786	0.6982	0.227
Mof_C 	C 	0.6897	0.4891	0.6205	0.737
Mof_C 	C 	0.7861	0.4976	0.5962	-0.857
Mof_H 	H 	0.7917	0.5009	0.5545	-0.234
Mof_C 	C 	0.8742	0.5013	0.6331	-0.282
Mof_H 	H 	0.94	0.5071	0.6165	0.025
Mof_N 	N 	0.5196	0.50522	0.3195	-0.089
Mof_C 	C 	0.6077	0.49457	0.35	0.37
Mof_H 	H 	0.6727	0.4919	0.3295	-0.21
Mof_C 	C 	0.6007	0.48788	0.4104	-0.031
Mof_H 	H 	0.6609	0.4806	0.4312	0.339
Mof_C 	C 	0.5056	0.49184	0.4403	1.071
Mof_C 	C 	0.4174	0.5025	0.4099	-1.657
Mof_H 	H 	0.3524	0.5052	0.4304	0.611
Mof_C 	C 	0.4244	0.50919	0.3495	-0.17
Mof_H 	H 	0.3642	0.5165	0.3287	-0.117
Mof_N 	N 	0.9064	0.49491	0.6775	-0.047
Mof_C 	C 	0.8749	0.49185	0.6287	0.404
Mof_S 	S 	0.8452	0.47937	0.5604	3.284
Mof_N 	N 	0.1016	0.49902	0.67529	-0.319
Mof_C 	C 	0.1321	0.49718	0.6278	0.609
Mof_S 	S 	0.1325	0.48488	0.55697	-0.053
Mof_C 	C 	0.6013	0.4993	0.91	-0.036
Mof_N 	N 	0.6	0.5011	0.9719	-0.114
Mof_C 	C 	0.5041	0.5034	0.0018	0.056
Mof_N 	N 	0.4094	0.5039	0.9697	-0.126
Mof_C 	C 	0.4107	0.5021	0.9077	-0.054
Mof_N 	N 	0.5066	0.4999	0.8779	-0.096
Mof_N 	N 	0.8755	0.4946	0.8094	-0.032
Mof_C 	C 	0.882	0.4881	0.8699	0.092
Mof_H 	H 	0.9476	0.4821	0.8869	0.026
Mof_C 	C 	0.7925	0.4903	0.9056	-0.101
Mof_H 	H 	0.7969	0.4858	0.9469	0.104
Mof_C 	C 	0.6965	0.4991	0.8807	-0.016
Mof_C 	C 	0.69	0.5057	0.8202	0.076
Mof_H 	H 	0.6243	0.5117	0.8032	0.051
Mof_C 	C 	0.7794	0.5034	0.7845	-0.054
Mof_H 	H 	0.775	0.5079	0.7432	0.013
Mof_N 	N 	0.498	0.4915	0.1824	-0.086
Mof_C 	C 	0.5907	0.4886	0.1497	0.023
Mof_H 	H 	0.6568	0.4863	0.1698	0.097
Mof_C 	C 	0.5868	0.4891	0.0877	0.041
Mof_H 	H 	0.6502	0.4871	0.0653	0.077
Mof_C 	C 	0.4902	0.4925	0.0583	0.122
Mof_C 	C 	0.3975	0.4954	0.091	0.008
Mof_H 	H 	0.3314	0.4977	0.071	0.092
Mof_C 	C 	0.4013	0.4949	0.1531	0.106
Mof_H 	H 	0.338	0.4969	0.1754	-0.057
Mof_N 	N 	0.1524	0.5023	0.8028	0
Mof_C 	C 	0.121	0.5125	0.8661	0.085
Mof_H 	H 	0.0536	0.5178	0.8808	0.002
Mof_C 	C 	0.2341	0.5115	0.9006	-0.114
Mof_H 	H 	0.2385	0.5178	0.941	0.082
Mof_C 	C 	0.3271	0.5014	0.8714	0.067
Mof_C 	C 	0.3251	0.4924	0.8174	-0.187
Mof_H 	H 	0.389	0.485	0.8011	0.144
Mof_C 	C 	0.2437	0.4926	0.7844	0.018
Mof_H 	H 	0.2491	0.4855	0.7447	0.045
Mof_Cl	Cl	0.8541	0.4247	0.4344	-5.083
Mof_C 	C 	0.9189	0.42349	0.5027	-16.111
Mof_H 	H 	0.872	0.4271	0.5378	21.889
Mof_Cl	Cl	0.8295	0.4294	0.5517	-23.766
Mof_H 	H 	0.8837	0.4293	0.4644	8.468
Mof_Cl	Cl	0.0751	0.43293	0.57802	-0.807
Mof_Cl	Cl	0.1093	0.43137	0.4507	-1.114
Mof_C 	C 	0.0144	0.44005	0.503	6.247
Mof_H 	H 	0.9965	0.4611	0.4996	-1.864
_end
