# CIF file generated by openbabel 3.1.0, see https://openbabel.org
data_I
_chemical_name_common 'MIHHUG_clean'
_cell_length_a 13.8756
_cell_length_b 15.1162
_cell_length_c 19.2999
_cell_angle_alpha 90
_cell_angle_beta 90
_cell_angle_gamma 90
_space_group_name_H-M_alt 'P 1'
_space_group_name_Hall 'P 1'
loop_
    _symmetry_equiv_pos_as_xyz
    x,y,z
loop_
    _atom_site_label
    _atom_site_type_symbol
    _atom_site_fract_x
    _atom_site_fract_y
    _atom_site_fract_z
    _atom_site_occupancy
    Cd1      Cd       0.19736    0.86048    0.03281    1.000
    Cd2      Cd       0.30264    0.13952    0.53281    1.000
    Cd3      Cd       0.80264    0.36048    0.46719    1.000
    Cd4      Cd       0.69736    0.63952    0.96719    1.000
    H1       H        0.25960    0.96780    0.89260    1.000
    H2       H        0.27030    0.83020    0.89160    1.000
    H3       H        0.41560    0.78910    0.94270    1.000
    H4       H        0.40860    0.85480    0.10670    1.000
    H5       H        0.41130    0.77120    0.05880    1.000
    H6       H        0.15820    0.90480    0.29580    1.000
    H7       H        0.38970    0.94240    0.76740    1.000
    H8       H        0.19750    0.70040    0.38000    1.000
    H9       H        0.54150    0.85460    0.90290    1.000
    H10      H        0.49050    0.94700    0.89630    1.000
    H11      H        0.16410    0.93200    0.17740    1.000
    H12      H        0.34660    0.00930    0.98230    1.000
    H13      H        0.34690    0.99540    0.06290    1.000
    H14      H        0.33250    0.68380    0.89460    1.000
    H15      H        0.26300    0.87780    0.39660    1.000
    H16      H        0.30040    0.54500    0.11140    1.000
    H17      H        0.26250    0.61250    0.31010    1.000
    H18      H        0.46050    0.88710    0.66730    1.000
    H19      H        0.46200    0.59550    0.68450    1.000
    H20      H        0.25350    0.68040    0.07630    1.000
    H21      H        0.49920    0.83740    0.41470    1.000
    H22      H        0.42580    0.91000    0.39020    1.000
    H23      H        0.42490    0.49340    0.76730    1.000
    H24      H        0.32940    0.48280    0.98100    1.000
    H25      H        0.39160    0.56880    0.97330    1.000
    H26      H        0.28140    0.57070    0.95520    1.000
    H27      H        0.09790    0.78920    0.43480    1.000
    H28      H        0.21500    0.75410    0.49940    1.000
    H29      H        0.21170    0.85790    0.50490    1.000
    H30      H        0.34120    0.81580    0.57580    1.000
    H31      H        0.46140    0.71990    0.52570    1.000
    H32      H        0.36080    0.67280    0.53340    1.000
    H33      H        0.47420    0.87990    0.51850    1.000
    H34      H        0.34370    0.66040    0.41990    1.000
    H35      H        0.45350    0.68430    0.41450    1.000
    H36      H        0.61040    0.94070    0.98850    1.000
    H37      H        0.56320    0.86800    0.09230    1.000
    H38      H        0.50540    0.01550    0.06950    1.000
    H39      H        0.49810    0.05430    0.99400    1.000
    H40      H        0.36810    0.40360    0.28420    1.000
    H41      H        0.40150    0.50070    0.29930    1.000
    H42      H        0.29670    0.47090    0.31860    1.000
    H43      H        0.24040    0.03220    0.39260    1.000
    H44      H        0.22970    0.16980    0.39160    1.000
    H45      H        0.08440    0.21090    0.44270    1.000
    H46      H        0.09140    0.14520    0.60670    1.000
    H47      H        0.08870    0.22880    0.55880    1.000
    H48      H        0.34180    0.09520    0.79580    1.000
    H49      H        0.11030    0.05760    0.26740    1.000
    H50      H        0.30250    0.29960    0.88000    1.000
    H51      H        0.95850    0.14540    0.40290    1.000
    H52      H        0.00950    0.05300    0.39630    1.000
    H53      H        0.33590    0.06800    0.67740    1.000
    H54      H        0.15340    0.99070    0.48230    1.000
    H55      H        0.15310    0.00460    0.56290    1.000
    H56      H        0.16750    0.31620    0.39460    1.000
    H57      H        0.23700    0.12220    0.89660    1.000
    H58      H        0.19960    0.45500    0.61140    1.000
    H59      H        0.23750    0.38750    0.81010    1.000
    H60      H        0.03950    0.11290    0.16730    1.000
    H61      H        0.03800    0.40450    0.18450    1.000
    H62      H        0.24650    0.31960    0.57630    1.000
    H63      H        0.00080    0.16260    0.91470    1.000
    H64      H        0.07420    0.09000    0.89020    1.000
    H65      H        0.07510    0.50660    0.26730    1.000
    H66      H        0.17060    0.51720    0.48100    1.000
    H67      H        0.10840    0.43120    0.47330    1.000
    H68      H        0.21860    0.42930    0.45520    1.000
    H69      H        0.40210    0.21080    0.93480    1.000
    H70      H        0.28500    0.24590    0.99940    1.000
    H71      H        0.28830    0.14210    0.00490    1.000
    H72      H        0.15880    0.18420    0.07580    1.000
    H73      H        0.03860    0.28010    0.02570    1.000
    H74      H        0.13920    0.32720    0.03340    1.000
    H75      H        0.02580    0.12010    0.01850    1.000
    H76      H        0.15630    0.33960    0.91990    1.000
    H77      H        0.04650    0.31570    0.91450    1.000
    H78      H        0.88960    0.05930    0.48850    1.000
    H79      H        0.93680    0.13200    0.59230    1.000
    H80      H        0.99460    0.98450    0.56950    1.000
    H81      H        0.00190    0.94570    0.49400    1.000
    H82      H        0.13190    0.59640    0.78420    1.000
    H83      H        0.09850    0.49930    0.79930    1.000
    H84      H        0.20330    0.52910    0.81860    1.000
    H85      H        0.74040    0.46780    0.60740    1.000
    H86      H        0.72970    0.33020    0.60840    1.000
    H87      H        0.58440    0.28910    0.55730    1.000
    H88      H        0.59140    0.35480    0.39330    1.000
    H89      H        0.58870    0.27120    0.44120    1.000
    H90      H        0.84180    0.40480    0.20420    1.000
    H91      H        0.61030    0.44240    0.73260    1.000
    H92      H        0.80250    0.20040    0.12000    1.000
    H93      H        0.45850    0.35460    0.59710    1.000
    H94      H        0.50950    0.44700    0.60370    1.000
    H95      H        0.83590    0.43200    0.32260    1.000
    H96      H        0.65340    0.50930    0.51770    1.000
    H97      H        0.65310    0.49540    0.43710    1.000
    H98      H        0.66750    0.18380    0.60540    1.000
    H99      H        0.73700    0.37780    0.10340    1.000
    H100     H        0.69960    0.04500    0.38860    1.000
    H101     H        0.73750    0.11250    0.18990    1.000
    H102     H        0.53950    0.38710    0.83270    1.000
    H103     H        0.53800    0.09550    0.81550    1.000
    H104     H        0.74650    0.18040    0.42370    1.000
    H105     H        0.50080    0.33740    0.08530    1.000
    H106     H        0.57420    0.41000    0.10980    1.000
    H107     H        0.57510    0.99340    0.73270    1.000
    H108     H        0.67060    0.98280    0.51900    1.000
    H109     H        0.60840    0.06880    0.52670    1.000
    H110     H        0.71860    0.07070    0.54480    1.000
    H111     H        0.90210    0.28920    0.06520    1.000
    H112     H        0.78500    0.25410    0.00060    1.000
    H113     H        0.78830    0.35790    0.99510    1.000
    H114     H        0.65880    0.31580    0.92420    1.000
    H115     H        0.53860    0.21990    0.97430    1.000
    H116     H        0.63920    0.17280    0.96660    1.000
    H117     H        0.52580    0.37990    0.98150    1.000
    H118     H        0.65630    0.16040    0.08010    1.000
    H119     H        0.54650    0.18430    0.08550    1.000
    H120     H        0.38960    0.44070    0.51150    1.000
    H121     H        0.43680    0.36800    0.40770    1.000
    H122     H        0.49460    0.51550    0.43050    1.000
    H123     H        0.50190    0.55430    0.50600    1.000
    H124     H        0.63190    0.90360    0.21580    1.000
    H125     H        0.59850    0.00070    0.20070    1.000
    H126     H        0.70330    0.97090    0.18140    1.000
    H127     H        0.75960    0.53220    0.10740    1.000
    H128     H        0.77030    0.66980    0.10840    1.000
    H129     H        0.91560    0.71090    0.05730    1.000
    H130     H        0.90860    0.64520    0.89330    1.000
    H131     H        0.91130    0.72880    0.94120    1.000
    H132     H        0.65820    0.59520    0.70420    1.000
    H133     H        0.88970    0.55760    0.23260    1.000
    H134     H        0.69750    0.79960    0.62000    1.000
    H135     H        0.04150    0.64540    0.09710    1.000
    H136     H        0.99050    0.55300    0.10370    1.000
    H137     H        0.66410    0.56800    0.82260    1.000
    H138     H        0.84660    0.49070    0.01770    1.000
    H139     H        0.84690    0.50460    0.93710    1.000
    H140     H        0.83250    0.81620    0.10540    1.000
    H141     H        0.76300    0.62220    0.60340    1.000
    H142     H        0.80040    0.95500    0.88860    1.000
    H143     H        0.76250    0.88750    0.68990    1.000
    H144     H        0.96050    0.61290    0.33270    1.000
    H145     H        0.96200    0.90450    0.31550    1.000
    H146     H        0.75350    0.81960    0.92370    1.000
    H147     H        0.99920    0.66260    0.58530    1.000
    H148     H        0.92580    0.59000    0.60980    1.000
    H149     H        0.92490    0.00660    0.23270    1.000
    H150     H        0.82940    0.01720    0.01900    1.000
    H151     H        0.89160    0.93120    0.02670    1.000
    H152     H        0.78140    0.92930    0.04480    1.000
    H153     H        0.59790    0.71080    0.56520    1.000
    H154     H        0.71500    0.74590    0.50060    1.000
    H155     H        0.71170    0.64210    0.49510    1.000
    H156     H        0.84120    0.68420    0.42420    1.000
    H157     H        0.96140    0.78010    0.47430    1.000
    H158     H        0.86080    0.82720    0.46660    1.000
    H159     H        0.97420    0.62010    0.48150    1.000
    H160     H        0.84370    0.83960    0.58010    1.000
    H161     H        0.95350    0.81570    0.58550    1.000
    H162     H        0.11040    0.55930    0.01150    1.000
    H163     H        0.06320    0.63200    0.90770    1.000
    H164     H        0.00540    0.48450    0.93050    1.000
    H165     H        0.99810    0.44570    0.00600    1.000
    H166     H        0.86810    0.09640    0.71580    1.000
    H167     H        0.90150    0.99930    0.70070    1.000
    H168     H        0.79670    0.02910    0.68140    1.000
    C1       C        0.32900    0.86320    0.88010    1.000
    C2       C        0.20060    0.77820    0.29080    1.000
    C3       C        0.40260    0.85270    0.93930    1.000
    C4       C        0.42510    0.83410    0.06070    1.000
    C5       C        0.42780    0.70440    0.74030    1.000
    C6       C        0.17670    0.85990    0.26560    1.000
    C7       C        0.38470    0.73280    0.80460    1.000
    C8       C        0.37190    0.82630    0.81350    1.000
    C9       C        0.39890    0.88180    0.76260    1.000
    C10      C        0.19250    0.76360    0.36930    1.000
    C11      C        0.49880    0.89590    0.92610    1.000
    C12      C        0.18030    0.87590    0.19330    1.000
    C13      C        0.22850    0.73230    0.17070    1.000
    C14      C        0.37750    0.97760    0.01990    1.000
    C15      C        0.36090    0.66740    0.85280    1.000
    C16      C        0.23000    0.71080    0.24280    1.000
    C17      C        0.26890    0.81530    0.40960    1.000
    C18      C        0.28330    0.58720    0.14430    1.000
    C19      C        0.26040    0.62700    0.26330    1.000
    C20      C        0.28740    0.56580    0.21440    1.000
    C21      C        0.44160    0.84730    0.70140    1.000
    C22      C        0.43870    0.61410    0.72730    1.000
    C23      C        0.25520    0.66760    0.12350    1.000
    C24      C        0.43310    0.85770    0.41880    1.000
    C25      C        0.37790    0.58210    0.84030    1.000
    C26      C        0.41590    0.55340    0.77590    1.000
    C27      C        0.33900    0.53550    0.95410    1.000
    C28      C        0.24990    0.80810    0.48910    1.000
    C29      C        0.34870    0.80750    0.52570    1.000
    C30      C        0.39500    0.72000    0.50980    1.000
    C31      C        0.41240    0.88150    0.49400    1.000
    C32      C        0.36880    0.97310    0.50660    1.000
    C33      C        0.39130    0.70550    0.43040    1.000
    C34      C        0.54260    0.92430    0.99490    1.000
    C35      C        0.53410    0.84820    0.04870    1.000
    C36      C        0.48610    0.00240    0.02230    1.000
    C37      C        0.58880    0.76670    0.02330    1.000
    C38      C        0.34810    0.46430    0.28570    1.000
    C39      C        0.17100    0.13680    0.38010    1.000
    C40      C        0.29940    0.22180    0.79080    1.000
    C41      C        0.09740    0.14730    0.43930    1.000
    C42      C        0.07490    0.16590    0.56070    1.000
    C43      C        0.07220    0.29560    0.24030    1.000
    C44      C        0.32330    0.14010    0.76560    1.000
    C45      C        0.11530    0.26720    0.30460    1.000
    C46      C        0.12810    0.17370    0.31350    1.000
    C47      C        0.10110    0.11820    0.26260    1.000
    C48      C        0.30750    0.23640    0.86930    1.000
    C49      C        0.00120    0.10410    0.42610    1.000
    C50      C        0.31970    0.12410    0.69330    1.000
    C51      C        0.27150    0.26770    0.67070    1.000
    C52      C        0.12250    0.02240    0.51990    1.000
    C53      C        0.13910    0.33260    0.35280    1.000
    C54      C        0.27000    0.28920    0.74280    1.000
    C55      C        0.23110    0.18470    0.90960    1.000
    C56      C        0.21670    0.41280    0.64430    1.000
    C57      C        0.23960    0.37300    0.76330    1.000
    C58      C        0.21260    0.43420    0.71440    1.000
    C59      C        0.05840    0.15270    0.20140    1.000
    C60      C        0.06130    0.38590    0.22730    1.000
    C61      C        0.24480    0.33240    0.62350    1.000
    C62      C        0.06690    0.14230    0.91880    1.000
    C63      C        0.12210    0.41790    0.34030    1.000
    C64      C        0.08410    0.44660    0.27590    1.000
    C65      C        0.16100    0.46450    0.45410    1.000
    C66      C        0.25010    0.19190    0.98910    1.000
    C67      C        0.15130    0.19250    0.02570    1.000
    C68      C        0.10500    0.28000    0.00980    1.000
    C69      C        0.08760    0.11850    0.99400    1.000
    C70      C        0.13120    0.02690    0.00660    1.000
    C71      C        0.10870    0.29450    0.93040    1.000
    C72      C        0.95740    0.07570    0.49490    1.000
    C73      C        0.96590    0.15180    0.54870    1.000
    C74      C        0.01390    0.99760    0.52230    1.000
    C75      C        0.91120    0.23330    0.52330    1.000
    C76      C        0.15190    0.53570    0.78570    1.000
    C77      C        0.67100    0.36320    0.61990    1.000
    C78      C        0.79940    0.27820    0.20920    1.000
    C79      C        0.59740    0.35270    0.56070    1.000
    C80      C        0.57490    0.33410    0.43930    1.000
    C81      C        0.57220    0.20440    0.75970    1.000
    C82      C        0.82330    0.35990    0.23440    1.000
    C83      C        0.61530    0.23280    0.69540    1.000
    C84      C        0.62810    0.32630    0.68650    1.000
    C85      C        0.60110    0.38180    0.73740    1.000
    C86      C        0.80750    0.26360    0.13070    1.000
    C87      C        0.50120    0.39590    0.57390    1.000
    C88      C        0.81970    0.37590    0.30670    1.000
    C89      C        0.77150    0.23230    0.32930    1.000
    C90      C        0.62250    0.47760    0.48010    1.000
    C91      C        0.63910    0.16740    0.64720    1.000
    C92      C        0.77000    0.21080    0.25720    1.000
    C93      C        0.73110    0.31530    0.09040    1.000
    C94      C        0.71670    0.08720    0.35570    1.000
    C95      C        0.73960    0.12700    0.23670    1.000
    C96      C        0.71260    0.06580    0.28560    1.000
    C97      C        0.55840    0.34730    0.79860    1.000
    C98      C        0.56130    0.11410    0.77270    1.000
    C99      C        0.74480    0.16760    0.37650    1.000
    C100     C        0.56690    0.35770    0.08120    1.000
    C101     C        0.62210    0.08210    0.65970    1.000
    C102     C        0.58410    0.05340    0.72410    1.000
    C103     C        0.66100    0.03550    0.54590    1.000
    C104     C        0.75010    0.30810    0.01090    1.000
    C105     C        0.65130    0.30750    0.97430    1.000
    C106     C        0.60500    0.22000    0.99020    1.000
    C107     C        0.58760    0.38150    0.00600    1.000
    C108     C        0.63120    0.47310    0.99340    1.000
    C109     C        0.60870    0.20550    0.06960    1.000
    C110     C        0.45740    0.42430    0.50510    1.000
    C111     C        0.46590    0.34820    0.45130    1.000
    C112     C        0.51390    0.50240    0.47770    1.000
    C113     C        0.41120    0.26670    0.47670    1.000
    C114     C        0.65190    0.96430    0.21430    1.000
    C115     C        0.82900    0.63680    0.11990    1.000
    C116     C        0.70060    0.72180    0.70920    1.000
    C117     C        0.90260    0.64730    0.06070    1.000
    C118     C        0.92510    0.66590    0.93930    1.000
    C119     C        0.92780    0.79560    0.25970    1.000
    C120     C        0.67670    0.64010    0.73440    1.000
    C121     C        0.88470    0.76720    0.19540    1.000
    C122     C        0.87190    0.67370    0.18650    1.000
    C123     C        0.89890    0.61820    0.23740    1.000
    C124     C        0.69250    0.73640    0.63070    1.000
    C125     C        0.99880    0.60410    0.07390    1.000
    C126     C        0.68030    0.62410    0.80670    1.000
    C127     C        0.72850    0.76770    0.82930    1.000
    C128     C        0.87750    0.52240    0.98010    1.000
    C129     C        0.86090    0.83260    0.14720    1.000
    C130     C        0.73000    0.78920    0.75720    1.000
    C131     C        0.76890    0.68470    0.59040    1.000
    C132     C        0.78330    0.91280    0.85570    1.000
    C133     C        0.76040    0.87300    0.73670    1.000
    C134     C        0.78740    0.93420    0.78560    1.000
    C135     C        0.94160    0.65270    0.29860    1.000
    C136     C        0.93870    0.88590    0.27270    1.000
    C137     C        0.75520    0.83240    0.87650    1.000
    C138     C        0.93310    0.64230    0.58120    1.000
    C139     C        0.87790    0.91790    0.15970    1.000
    C140     C        0.91590    0.94660    0.22410    1.000
    C141     C        0.83900    0.96450    0.04590    1.000
    C142     C        0.74990    0.69190    0.51090    1.000
    C143     C        0.84870    0.69250    0.47430    1.000
    C144     C        0.89500    0.78000    0.49020    1.000
    C145     C        0.91240    0.61850    0.50600    1.000
    C146     C        0.86880    0.52690    0.49340    1.000
    C147     C        0.89130    0.79450    0.56960    1.000
    C148     C        0.04260    0.57570    0.00510    1.000
    C149     C        0.03410    0.65180    0.95130    1.000
    C150     C        0.98610    0.49760    0.97770    1.000
    C151     C        0.08880    0.73330    0.97670    1.000
    C152     C        0.84810    0.03570    0.71430    1.000
    N1       N        0.20520    0.81650    0.14810    1.000
    N2       N        0.45580    0.76420    0.69010    1.000
    N3       N        0.36670    0.78720    0.39350    1.000
    N4       N        0.36370    0.88010    0.00960    1.000
    N5       N        0.29480    0.18350    0.64810    1.000
    N6       N        0.04420    0.23580    0.19010    1.000
    N7       N        0.13330    0.21280    0.89350    1.000
    N8       N        0.13630    0.11990    0.50960    1.000
    N9       N        0.79480    0.31650    0.35190    1.000
    N10      N        0.54420    0.26420    0.80990    1.000
    N11      N        0.63330    0.28720    0.10650    1.000
    N12      N        0.63630    0.38010    0.49040    1.000
    N13      N        0.70520    0.68350    0.85190    1.000
    N14      N        0.95580    0.73580    0.30990    1.000
    N15      N        0.86670    0.71280    0.60650    1.000
    N16      N        0.86370    0.61990    0.99040    1.000
    O1       O        0.30490    0.95350    0.86770    1.000
    O2       O        0.36040    0.51250    0.88530    1.000
    O3       O        0.32120    0.48600    0.23090    1.000
    O4       O        0.10260    0.79730    0.39300    1.000
    O5       O        0.34490    0.02140    0.45660    1.000
    O6       O        0.36000    0.00090    0.56750    1.000
    O7       O        0.67970    0.77040    0.02930    1.000
    O8       O        0.54740    0.70540    0.99400    1.000
    O9       O        0.19510    0.04650    0.36770    1.000
    O10      O        0.13960    0.48750    0.38530    1.000
    O11      O        0.17880    0.51400    0.73090    1.000
    O12      O        0.39740    0.20270    0.89300    1.000
    O13      O        0.15510    0.97860    0.95660    1.000
    O14      O        0.14000    0.99910    0.06750    1.000
    O15      O        0.82030    0.22960    0.52930    1.000
    O16      O        0.95260    0.29460    0.49400    1.000
    O17      O        0.69510    0.45350    0.63230    1.000
    O18      O        0.63960    0.01250    0.61470    1.000
    O19      O        0.67880    0.98600    0.26910    1.000
    O20      O        0.89740    0.29730    0.10700    1.000
    O21      O        0.65510    0.52140    0.04340    1.000
    O22      O        0.64000    0.50090    0.93250    1.000
    O23      O        0.32030    0.27040    0.47070    1.000
    O24      O        0.45260    0.20540    0.50600    1.000
    O25      O        0.80490    0.54650    0.13230    1.000
    O26      O        0.86040    0.98750    0.11470    1.000
    O27      O        0.82120    0.01400    0.76910    1.000
    O28      O        0.60260    0.70270    0.60700    1.000
    O29      O        0.84490    0.47860    0.54340    1.000
    O30      O        0.86000    0.49910    0.43250    1.000
    O31      O        0.17970    0.72960    0.97070    1.000
    O32      O        0.04740    0.79460    0.00600    1.000
