# CIF file generated by openbabel 3.1.0, see https://openbabel.org
data_I
_chemical_name_common 'image0'
_cell_length_a 13.0533
_cell_length_b 13.1471
_cell_length_c 14.0537
_cell_angle_alpha 90
_cell_angle_beta 104.088
_cell_angle_gamma 90
_space_group_name_H-M_alt 'P 1'
_space_group_name_Hall 'P 1'
loop_
    _symmetry_equiv_pos_as_xyz
    x,y,z
loop_
    _atom_site_label
    _atom_site_type_symbol
    _atom_site_fract_x
    _atom_site_fract_y
    _atom_site_fract_z
    _atom_site_occupancy
    Eu1      Eu       0.59068    0.05284    0.91193    1.000
    Cl1      Cl       0.80191    0.13799    0.92281    1.000
    O1       O        0.46320    0.93010    0.83320    1.000
    O2       O        0.34990    0.88760    0.92450    1.000
    O3       O        0.20330    0.59280    0.47280    1.000
    O4       O        0.06880    0.58600    0.54180    1.000
    C1       C        0.32140    0.82050    0.76430    1.000
    C2       C        0.34430    0.82150    0.67280    1.000
    H1       H        0.39470    0.86610    0.66030    1.000
    C3       C        0.29220    0.75640    0.60080    1.000
    H2       H        0.31020    0.75510    0.54070    1.000
    C4       C        0.21310    0.69240    0.61620    1.000
    C5       C        0.18770    0.69390    0.70630    1.000
    H3       H        0.13380    0.65250    0.71710    1.000
    C6       C        0.24250    0.75720    0.78060    1.000
    H4       H        0.22620    0.75710    0.84140    1.000
    C7       C        0.38430    0.88490    0.84750    1.000
    C8       C        0.15980    0.62030    0.53940    1.000
    O5       O        0.55730    0.24750    0.91370    1.000
    O6       O        0.70980    0.32930    0.97560    1.000
    C9       C        0.55220    0.41590    0.97670    1.000
    C10      C        0.60910    0.49180    0.03790    1.000
    H5       H        0.68160    0.48570    0.06330    1.000
    C11      C        0.44420    0.42490    0.94070    1.000
    H6       H        0.40720    0.37370    0.90120    1.000
    C12      C        0.60680    0.32140    0.95180    1.000
    O7       O        0.64150    0.98660    0.76070    1.000
    O8       O        0.52720    0.11130    0.74440    1.000
    C13      C        0.53510    0.02030    0.59960    1.000
    C14      C        0.57950    0.94430    0.55830    1.000
    H7       H        0.63340    0.90560    0.59710    1.000
    C15      C        0.45490    0.07660    0.54210    1.000
    H8       H        0.42350    0.12860    0.56980    1.000
    C16      C        0.57040    0.04170    0.70810    1.000
    Eu2      Eu       0.90932    0.55284    0.58807    1.000
    Cl2      Cl       0.69809    0.63799    0.57719    1.000
    O9       O        0.03680    0.43010    0.66680    1.000
    O10      O        0.15010    0.38760    0.57550    1.000
    O11      O        0.29670    0.09280    0.02720    1.000
    O12      O        0.43120    0.08600    0.95820    1.000
    C17      C        0.17860    0.32050    0.73570    1.000
    C18      C        0.15570    0.32150    0.82720    1.000
    H9       H        0.10530    0.36610    0.83970    1.000
    C19      C        0.20780    0.25640    0.89920    1.000
    H10      H        0.18980    0.25510    0.95930    1.000
    C20      C        0.28690    0.19240    0.88380    1.000
    C21      C        0.31230    0.19390    0.79370    1.000
    H11      H        0.36620    0.15250    0.78290    1.000
    C22      C        0.25750    0.25720    0.71940    1.000
    H12      H        0.27380    0.25710    0.65860    1.000
    C23      C        0.11570    0.38490    0.65250    1.000
    C24      C        0.34020    0.12030    0.96060    1.000
    O13      O        0.94270    0.74750    0.58630    1.000
    O14      O        0.79020    0.82930    0.52440    1.000
    C25      C        0.94780    0.91590    0.52330    1.000
    C26      C        0.89090    0.99180    0.46210    1.000
    H13      H        0.81840    0.98570    0.43670    1.000
    C27      C        0.05580    0.92490    0.55930    1.000
    H14      H        0.09280    0.87370    0.59880    1.000
    C28      C        0.89320    0.82140    0.54820    1.000
    O15      O        0.85850    0.48660    0.73930    1.000
    O16      O        0.97280    0.61130    0.75560    1.000
    C29      C        0.96490    0.52030    0.90040    1.000
    C30      C        0.92050    0.44430    0.94170    1.000
    H15      H        0.86660    0.40560    0.90290    1.000
    C31      C        0.04510    0.57660    0.95790    1.000
    H16      H        0.07650    0.62860    0.93020    1.000
    C32      C        0.92960    0.54170    0.79190    1.000
    Eu3      Eu       0.40932    0.94716    0.08807    1.000
    Cl3      Cl       0.19809    0.86201    0.07719    1.000
    O17      O        0.53680    0.06990    0.16680    1.000
    O18      O        0.65010    0.11240    0.07550    1.000
    O19      O        0.79670    0.40720    0.52720    1.000
    O20      O        0.93120    0.41400    0.45820    1.000
    C33      C        0.67860    0.17950    0.23570    1.000
    C34      C        0.65570    0.17850    0.32720    1.000
    H17      H        0.60530    0.13390    0.33970    1.000
    C35      C        0.70780    0.24360    0.39920    1.000
    H18      H        0.68980    0.24490    0.45930    1.000
    C36      C        0.78690    0.30760    0.38380    1.000
    C37      C        0.81230    0.30610    0.29370    1.000
    H19      H        0.86620    0.34750    0.28290    1.000
    C38      C        0.75750    0.24280    0.21940    1.000
    H20      H        0.77380    0.24290    0.15860    1.000
    C39      C        0.61570    0.11510    0.15250    1.000
    C40      C        0.84020    0.37970    0.46060    1.000
    O21      O        0.44270    0.75250    0.08630    1.000
    O22      O        0.29020    0.67070    0.02440    1.000
    C41      C        0.44780    0.58410    0.02330    1.000
    C42      C        0.39090    0.50820    0.96210    1.000
    H21      H        0.31840    0.51430    0.93670    1.000
    C43      C        0.55580    0.57510    0.05930    1.000
    H22      H        0.59280    0.62630    0.09880    1.000
    C44      C        0.39320    0.67860    0.04820    1.000
    O23      O        0.35850    0.01340    0.23930    1.000
    O24      O        0.47280    0.88870    0.25560    1.000
    C45      C        0.46490    0.97970    0.40040    1.000
    C46      C        0.42050    0.05570    0.44170    1.000
    H23      H        0.36660    0.09440    0.40290    1.000
    C47      C        0.54510    0.92340    0.45790    1.000
    H24      H        0.57650    0.87140    0.43020    1.000
    C48      C        0.42960    0.95830    0.29190    1.000
    Eu4      Eu       0.09068    0.44716    0.41193    1.000
    Cl4      Cl       0.30191    0.36201    0.42281    1.000
    O25      O        0.96320    0.56990    0.33320    1.000
    O26      O        0.84990    0.61240    0.42450    1.000
    O27      O        0.70330    0.90720    0.97280    1.000
    O28      O        0.56880    0.91400    0.04180    1.000
    C49      C        0.82140    0.67950    0.26430    1.000
    C50      C        0.84430    0.67850    0.17280    1.000
    H25      H        0.89470    0.63390    0.16030    1.000
    C51      C        0.79220    0.74360    0.10080    1.000
    H26      H        0.81020    0.74490    0.04070    1.000
    C52      C        0.71310    0.80760    0.11620    1.000
    C53      C        0.68770    0.80610    0.20630    1.000
    H27      H        0.63380    0.84750    0.21710    1.000
    C54      C        0.74250    0.74280    0.28060    1.000
    H28      H        0.72620    0.74290    0.34140    1.000
    C55      C        0.88430    0.61510    0.34750    1.000
    C56      C        0.65980    0.87970    0.03940    1.000
    O29      O        0.05730    0.25250    0.41370    1.000
    O30      O        0.20980    0.17070    0.47560    1.000
    C57      C        0.05220    0.08410    0.47670    1.000
    C58      C        0.10910    0.00820    0.53790    1.000
    H29      H        0.18160    0.01430    0.56330    1.000
    C59      C        0.94420    0.07510    0.44070    1.000
    H30      H        0.90720    0.12630    0.40120    1.000
    C60      C        0.10680    0.17860    0.45180    1.000
    O31      O        0.14150    0.51340    0.26070    1.000
    O32      O        0.02720    0.38870    0.24440    1.000
    C61      C        0.03510    0.47970    0.09960    1.000
    C62      C        0.07950    0.55570    0.05830    1.000
    H31      H        0.13340    0.59440    0.09710    1.000
    C63      C        0.95490    0.42340    0.04210    1.000
    H32      H        0.92350    0.37140    0.06980    1.000
    C64      C        0.07040    0.45830    0.20810    1.000
