# CIF file generated by openbabel 3.1.0, see https://openbabel.org
data_I
_chemical_name_common 'PANYOU_charged'
_cell_length_a 4.8855
_cell_length_b 24.0866
_cell_length_c 22.2025
_cell_angle_alpha 90
_cell_angle_beta 90
_cell_angle_gamma 90
_space_group_name_H-M_alt 'P 1'
_space_group_name_Hall 'P 1'
loop_
    _symmetry_equiv_pos_as_xyz
    x,y,z
loop_
    _atom_site_label
    _atom_site_type_symbol
    _atom_site_fract_x
    _atom_site_fract_y
    _atom_site_fract_z
    _atom_site_occupancy
    Zn1      Zn       0.50690    0.37172    0.62704    1.000
    Zn2      Zn       0.49310    0.62828    0.12704    1.000
    Zn3      Zn       0.49310    0.87172    0.62704    1.000
    Zn4      Zn       0.50690    0.12828    0.12704    1.000
    H1       H        0.41080    0.35000    0.82330    1.000
    H2       H        0.15720    0.39080    0.81150    1.000
    H3       H        0.69800    0.42970    0.84150    1.000
    H4       H        0.43710    0.46920    0.83260    1.000
    H5       H        0.63760    0.34250    0.07870    1.000
    H6       H        0.79870    0.32380    0.01920    1.000
    H7       H        0.45710    0.26440    0.99190    1.000
    H8       H        0.25360    0.28940    0.04140    1.000
    H9       H        0.86250    0.46610    0.05590    1.000
    H10      H        0.85210    0.50420    0.99670    1.000
    H11      H        0.26510    0.51220    0.08780    1.000
    H12      H        0.26070    0.54950    0.02840    1.000
    H13      H        0.58920    0.65000    0.32330    1.000
    H14      H        0.84280    0.60920    0.31150    1.000
    H15      H        0.30200    0.57030    0.34150    1.000
    H16      H        0.56290    0.53080    0.33260    1.000
    H17      H        0.36240    0.65750    0.57870    1.000
    H18      H        0.20130    0.67620    0.51920    1.000
    H19      H        0.54290    0.73560    0.49190    1.000
    H20      H        0.74640    0.71060    0.54140    1.000
    H21      H        0.13750    0.53390    0.55590    1.000
    H22      H        0.14790    0.49580    0.49670    1.000
    H23      H        0.73490    0.48780    0.58780    1.000
    H24      H        0.73930    0.45050    0.52840    1.000
    H25      H        0.58920    0.85000    0.82330    1.000
    H26      H        0.84280    0.89080    0.81150    1.000
    H27      H        0.30200    0.92970    0.84150    1.000
    H28      H        0.56290    0.96920    0.83260    1.000
    H29      H        0.36240    0.84250    0.07870    1.000
    H30      H        0.20130    0.82380    0.01920    1.000
    H31      H        0.54290    0.76440    0.99190    1.000
    H32      H        0.74640    0.78940    0.04140    1.000
    H33      H        0.13750    0.96610    0.05590    1.000
    H34      H        0.14790    0.00420    0.99670    1.000
    H35      H        0.73490    0.01220    0.08780    1.000
    H36      H        0.73930    0.04950    0.02840    1.000
    H37      H        0.41080    0.15000    0.32330    1.000
    H38      H        0.15720    0.10920    0.31150    1.000
    H39      H        0.69800    0.07030    0.34150    1.000
    H40      H        0.43710    0.03080    0.33260    1.000
    H41      H        0.63760    0.15750    0.57870    1.000
    H42      H        0.79870    0.17620    0.51920    1.000
    H43      H        0.45710    0.23560    0.49190    1.000
    H44      H        0.25360    0.21060    0.54140    1.000
    H45      H        0.86250    0.03390    0.55590    1.000
    H46      H        0.85210    0.99580    0.49670    1.000
    H47      H        0.26510    0.98780    0.58780    1.000
    H48      H        0.26070    0.95050    0.52840    1.000
    C1       C        0.44310    0.39273    0.74285    1.000
    C2       C        0.35850    0.38720    0.80817    1.000
    C3       C        0.49690    0.43205    0.84642    1.000
    C4       C        0.61480    0.33123    0.03610    1.000
    C5       C        0.44710    0.27975    0.03330    1.000
    C6       C        0.53680    0.23496    0.07770    1.000
    C7       C        0.97570    0.48661    0.02642    1.000
    C8       C        0.14320    0.53065    0.05840    1.000
    C9       C        0.97540    0.57402    0.09107    1.000
    C10      C        0.29000    0.40688    0.02964    1.000
    C11      C        0.22020    0.45686    0.93459    1.000
    C12      C        0.57220    0.38482    0.94210    1.000
    C13      C        0.55690    0.60727    0.24285    1.000
    C14      C        0.64150    0.61280    0.30817    1.000
    C15      C        0.50310    0.56795    0.34642    1.000
    C16      C        0.38520    0.66877    0.53610    1.000
    C17      C        0.55290    0.72025    0.53330    1.000
    C18      C        0.46320    0.76504    0.57770    1.000
    C19      C        0.02430    0.51339    0.52642    1.000
    C20      C        0.85680    0.46935    0.55840    1.000
    C21      C        0.02460    0.42598    0.59107    1.000
    C22      C        0.71000    0.59312    0.52964    1.000
    C23      C        0.77980    0.54314    0.43459    1.000
    C24      C        0.42780    0.61518    0.44210    1.000
    C25      C        0.55690    0.89273    0.74285    1.000
    C26      C        0.64150    0.88720    0.80817    1.000
    C27      C        0.50310    0.93205    0.84642    1.000
    C28      C        0.38520    0.83123    0.03610    1.000
    C29      C        0.55290    0.77975    0.03330    1.000
    C30      C        0.46320    0.73496    0.07770    1.000
    C31      C        0.02430    0.98661    0.02642    1.000
    C32      C        0.85680    0.03065    0.05840    1.000
    C33      C        0.02460    0.07402    0.09107    1.000
    C34      C        0.71000    0.90688    0.02964    1.000
    C35      C        0.77980    0.95686    0.93459    1.000
    C36      C        0.42780    0.88482    0.94210    1.000
    C37      C        0.44310    0.10727    0.24285    1.000
    C38      C        0.35850    0.11280    0.30817    1.000
    C39      C        0.49690    0.06795    0.34642    1.000
    C40      C        0.61480    0.16877    0.53610    1.000
    C41      C        0.44710    0.22025    0.53330    1.000
    C42      C        0.53680    0.26504    0.57770    1.000
    C43      C        0.97570    0.01339    0.52642    1.000
    C44      C        0.14320    0.96935    0.55840    1.000
    C45      C        0.97540    0.92598    0.59107    1.000
    C46      C        0.29000    0.09312    0.52964    1.000
    C47      C        0.22020    0.04314    0.43459    1.000
    C48      C        0.57220    0.11518    0.44210    1.000
    N1       N        0.42510    0.42472    0.91047    1.000
    N2       N        0.48600    0.37638    0.00241    1.000
    N3       N        0.16630    0.44756    0.99518    1.000
    N4       N        0.57490    0.57528    0.41047    1.000
    N5       N        0.51400    0.62362    0.50241    1.000
    N6       N        0.83370    0.55244    0.49518    1.000
    N7       N        0.57490    0.92472    0.91047    1.000
    N8       N        0.51400    0.87638    0.00241    1.000
    N9       N        0.83370    0.94756    0.99518    1.000
    N10      N        0.42510    0.07528    0.41047    1.000
    N11      N        0.48600    0.12362    0.50241    1.000
    N12      N        0.16630    0.05244    0.49518    1.000
    O1       O        0.40830    0.34911    0.70948    1.000
    O2       O        0.53030    0.43621    0.72264    1.000
    O3       O        0.43540    0.18836    0.07046    1.000
    O4       O        0.69810    0.24776    0.11823    1.000
    O5       O        0.71890    0.56879    0.08980    1.000
    O6       O        0.09590    0.61244    0.11794    1.000
    O7       O        0.75770    0.35904    0.91976    1.000
    O8       O        0.22560    0.39899    0.08170    1.000
    O9       O        0.10110    0.49187    0.90612    1.000
    O10      O        0.59170    0.65089    0.20948    1.000
    O11      O        0.46970    0.56379    0.22264    1.000
    O12      O        0.56460    0.81164    0.57046    1.000
    O13      O        0.30190    0.75224    0.61823    1.000
    O14      O        0.28110    0.43121    0.58980    1.000
    O15      O        0.90410    0.38756    0.61794    1.000
    O16      O        0.24230    0.64096    0.41976    1.000
    O17      O        0.77440    0.60101    0.58170    1.000
    O18      O        0.89890    0.50813    0.40612    1.000
    O19      O        0.59170    0.84911    0.70948    1.000
    O20      O        0.46970    0.93621    0.72264    1.000
    O21      O        0.56460    0.68836    0.07046    1.000
    O22      O        0.30190    0.74776    0.11823    1.000
    O23      O        0.28110    0.06879    0.08980    1.000
    O24      O        0.90410    0.11244    0.11794    1.000
    O25      O        0.24230    0.85904    0.91976    1.000
    O26      O        0.77440    0.89899    0.08170    1.000
    O27      O        0.89890    0.99187    0.90612    1.000
    O28      O        0.40830    0.15089    0.20948    1.000
    O29      O        0.53030    0.06379    0.22264    1.000
    O30      O        0.43540    0.31164    0.57046    1.000
    O31      O        0.69810    0.25224    0.61823    1.000
    O32      O        0.71890    0.93121    0.58980    1.000
    O33      O        0.09590    0.88756    0.61794    1.000
    O34      O        0.75770    0.14096    0.41976    1.000
    O35      O        0.22560    0.10101    0.58170    1.000
    O36      O        0.10110    0.00813    0.40612    1.000
    H49      H        0.74630    0.70630    0.67000    1.000
    H50      H        0.72010    0.70020    0.74160    1.000
    H51      H        0.99090    0.67930    0.70800    1.000
    H52      H        0.19550    0.80390    0.77460    1.000
    H53      H        0.26300    0.73890    0.77330    1.000
    H54      H        0.99130    0.76070    0.80590    1.000
    H55      H        0.83020    0.78760    0.71450    1.000
    H56      H        0.08330    0.76790    0.68410    1.000
    C49      C        0.84650    0.70760    0.70820    1.000
    C50      C        0.11620    0.76660    0.77200    1.000
    N13      N        0.96620    0.76119    0.71570    1.000
    H57      H        0.25370    0.29370    0.17000    1.000
    H58      H        0.27990    0.29980    0.24160    1.000
    H59      H        0.00910    0.32070    0.20800    1.000
    H60      H        0.80450    0.19610    0.27460    1.000
    H61      H        0.73700    0.26110    0.27330    1.000
    H62      H        0.00870    0.23930    0.30590    1.000
    H63      H        0.16980    0.21240    0.21450    1.000
    H64      H        0.91670    0.23210    0.18410    1.000
    C51      C        0.15350    0.29240    0.20820    1.000
    C52      C        0.88380    0.23340    0.27200    1.000
    N14      N        0.03380    0.23881    0.21570    1.000
    H65      H        0.25370    0.20630    0.67000    1.000
    H66      H        0.27990    0.20020    0.74160    1.000
    H67      H        0.00910    0.17930    0.70800    1.000
    H68      H        0.80450    0.30390    0.77460    1.000
    H69      H        0.73700    0.23890    0.77330    1.000
    H70      H        0.00870    0.26070    0.80590    1.000
    H71      H        0.16980    0.28760    0.71450    1.000
    H72      H        0.91670    0.26790    0.68410    1.000
    C53      C        0.15350    0.20760    0.70820    1.000
    C54      C        0.88380    0.26660    0.77200    1.000
    N15      N        0.03380    0.26119    0.71570    1.000
    H73      H        0.74630    0.79370    0.17000    1.000
    H74      H        0.72010    0.79980    0.24160    1.000
    H75      H        0.99090    0.82070    0.20800    1.000
    H76      H        0.19550    0.69610    0.27460    1.000
    H77      H        0.26300    0.76110    0.27330    1.000
    H78      H        0.99130    0.73930    0.30590    1.000
    H79      H        0.83020    0.71240    0.21450    1.000
    H80      H        0.08330    0.73210    0.18410    1.000
    C55      C        0.84650    0.79240    0.20820    1.000
    C56      C        0.11620    0.73340    0.27200    1.000
    N16      N        0.96620    0.73881    0.21570    1.000
