# CIF file generated by openbabel 3.1.0, see https://openbabel.org
data_I
_chemical_name_common 'XADGAM_clean'
_cell_length_a 10.9838
_cell_length_b 14.4336
_cell_length_c 16.1229
_cell_angle_alpha 90
_cell_angle_beta 92.8671
_cell_angle_gamma 90
_space_group_name_H-M_alt 'P 1'
_space_group_name_Hall 'P 1'
loop_
    _symmetry_equiv_pos_as_xyz
    x,y,z
loop_
    _atom_site_label
    _atom_site_type_symbol
    _atom_site_fract_x
    _atom_site_fract_y
    _atom_site_fract_z
    _atom_site_occupancy
    Zn1      Zn       0.96689    0.62474    0.96584    1.000
    Zn2      Zn       0.47637    0.14760    0.58883    1.000
    H1       H        0.69550    0.89920    0.91940    1.000
    H2       H        0.58740    0.00030    0.83260    1.000
    H3       H        0.72270    0.93500    0.57250    1.000
    H4       H        0.85190    0.82780    0.51630    1.000
    H5       H        0.95290    0.71820    0.60580    1.000
    H6       H        0.93360    0.72520    0.74340    1.000
    H7       H        0.37640    0.26400    0.83660    1.000
    H8       H        0.27380    0.35620    0.92920    1.000
    H9       H        0.11020    0.59680    0.76410    1.000
    H10      H        0.12240    0.63240    0.62550    1.000
    H11      H        0.21660    0.53580    0.53650    1.000
    H12      H        0.30490    0.40180    0.58260    1.000
    H13      H        0.50940    0.98450    0.47730    1.000
    H14      H        0.41740    0.90720    0.36730    1.000
    H15      H        0.10970    0.03620    0.41320    1.000
    H16      H        0.21230    0.11730    0.51780    1.000
    H17      H        0.28110    0.67900    0.20440    1.000
    H18      H        0.18910    0.60320    0.09420    1.000
    H19      H        0.97110    0.80920    0.04570    1.000
    H20      H        0.05710    0.89740    0.15160    1.000
    H21      H        0.41600    0.24810    0.42360    1.000
    H22      H        0.51330    0.32360    0.31990    1.000
    H23      H        0.82800    0.29390    0.45330    1.000
    H24      H        0.73040    0.21780    0.55160    1.000
    H25      H        0.62530    0.53370    0.14020    1.000
    H26      H        0.72560    0.61850    0.04340    1.000
    H27      H        0.01410    0.45680    0.07650    1.000
    H28      H        0.92620    0.38600    0.18800    1.000
    C1       C        0.84150    0.76140    0.89050    1.000
    C2       C        0.78210    0.83170    0.83370    1.000
    C3       C        0.70610    0.89640    0.86260    1.000
    C4       C        0.64250    0.95930    0.81060    1.000
    C5       C        0.66150    0.96040    0.72640    1.000
    C6       C        0.76350    0.89220    0.60690    1.000
    C7       C        0.84040    0.82840    0.57310    1.000
    C8       C        0.90250    0.76280    0.62770    1.000
    C9       C        0.88850    0.76550    0.70900    1.000
    C10      C        0.80540    0.82890    0.74530    1.000
    C11      C        0.74610    0.89330    0.69220    1.000
    C12      C        0.58850    0.03060    0.67320    1.000
    C13      C        0.38840    0.26870    0.67630    1.000
    C14      C        0.32720    0.33420    0.73450    1.000
    C15      C        0.33220    0.31510    0.81680    1.000
    C16      C        0.27090    0.37170    0.87310    1.000
    C17      C        0.20700    0.44960    0.84650    1.000
    C18      C        0.15050    0.55700    0.72930    1.000
    C19      C        0.15740    0.57780    0.64590    1.000
    C20      C        0.21450    0.52000    0.59240    1.000
    C21      C        0.26770    0.44040    0.62000    1.000
    C22      C        0.26730    0.41490    0.70450    1.000
    C23      C        0.20520    0.47510    0.76150    1.000
    C24      C        0.14290    0.50100    0.91270    1.000
    C25      C        0.42860    0.99850    0.46240    1.000
    C26      C        0.37270    0.94920    0.39730    1.000
    C27      C        0.25650    0.96190    0.37800    1.000
    C28      C        0.19260    0.02640    0.42430    1.000
    C29      C        0.25540    0.07510    0.48700    1.000
    C30      C        0.18430    0.91610    0.30860    1.000
    C31      C        0.23420    0.84270    0.26900    1.000
    C32      C        0.17510    0.79670    0.19580    1.000
    C33      C        0.21700    0.70670    0.17390    1.000
    C34      C        0.16170    0.66210    0.10770    1.000
    C35      C        0.03410    0.78320    0.07860    1.000
    C36      C        0.08350    0.83710    0.14330    1.000
    C37      C        0.49970    0.25750    0.42930    1.000
    C38      C        0.55830    0.30220    0.36640    1.000
    C39      C        0.68670    0.31540    0.37270    1.000
    C40      C        0.74450    0.28410    0.44530    1.000
    C41      C        0.68570    0.23990    0.50520    1.000
    C42      C        0.75550    0.35360    0.30640    1.000
    C43      C        0.69820    0.40380    0.24500    1.000
    C44      C        0.76850    0.45110    0.17850    1.000
    C45      C        0.70640    0.52070    0.13090    1.000
    C46      C        0.76540    0.56960    0.07080    1.000
    C47      C        0.93780    0.47580    0.09230    1.000
    C48      C        0.88260    0.43100    0.15790    1.000
    N1       N        0.37460    0.06470    0.50530    1.000
    N2       N        0.06770    0.70030    0.06010    1.000
    N3       N        0.56200    0.22670    0.49970    1.000
    N4       N        0.87970    0.54730    0.05150    1.000
    O1       O        0.95170    0.73950    0.88340    1.000
    O2       O        0.78200    0.73650    0.95150    1.000
    O3       O        0.63600    0.06910    0.61370    1.000
    O4       O        0.48330    0.04890    0.69340    1.000
    O5       O        0.50330    0.25590    0.68860    1.000
    O6       O        0.32860    0.23140    0.61960    1.000
    O7       O        0.17320    0.49100    0.98460    1.000
    O8       O        0.05420    0.55220    0.88700    1.000
    Zn3      Zn       0.03311    0.12474    0.03416    1.000
    Zn4      Zn       0.52363    0.64760    0.41117    1.000
    H29      H        0.30450    0.39920    0.08060    1.000
    H30      H        0.41260    0.50030    0.16740    1.000
    H31      H        0.27730    0.43500    0.42750    1.000
    H32      H        0.14810    0.32780    0.48370    1.000
    H33      H        0.04710    0.21820    0.39420    1.000
    H34      H        0.06640    0.22520    0.25660    1.000
    H35      H        0.62360    0.76400    0.16340    1.000
    H36      H        0.72620    0.85620    0.07080    1.000
    H37      H        0.88980    0.09680    0.23590    1.000
    H38      H        0.87760    0.13240    0.37450    1.000
    H39      H        0.78340    0.03580    0.46350    1.000
    H40      H        0.69510    0.90180    0.41740    1.000
    H41      H        0.49060    0.48450    0.52270    1.000
    H42      H        0.58260    0.40720    0.63270    1.000
    H43      H        0.89030    0.53620    0.58680    1.000
    H44      H        0.78770    0.61730    0.48220    1.000
    H45      H        0.71890    0.17900    0.79560    1.000
    H46      H        0.81090    0.10320    0.90580    1.000
    H47      H        0.02890    0.30920    0.95430    1.000
    H48      H        0.94290    0.39740    0.84840    1.000
    H49      H        0.58400    0.74810    0.57640    1.000
    H50      H        0.48670    0.82360    0.68010    1.000
    H51      H        0.17200    0.79390    0.54670    1.000
    H52      H        0.26960    0.71780    0.44840    1.000
    H53      H        0.37470    0.03370    0.85980    1.000
    H54      H        0.27440    0.11850    0.95660    1.000
    H55      H        0.98590    0.95680    0.92350    1.000
    H56      H        0.07380    0.88600    0.81200    1.000
    C49      C        0.15850    0.26140    0.10950    1.000
    C50      C        0.21790    0.33170    0.16630    1.000
    C51      C        0.29390    0.39640    0.13740    1.000
    C52      C        0.35750    0.45930    0.18940    1.000
    C53      C        0.33850    0.46040    0.27360    1.000
    C54      C        0.23650    0.39220    0.39310    1.000
    C55      C        0.15960    0.32840    0.42690    1.000
    C56      C        0.09750    0.26280    0.37230    1.000
    C57      C        0.11150    0.26550    0.29100    1.000
    C58      C        0.19460    0.32890    0.25470    1.000
    C59      C        0.25390    0.39330    0.30780    1.000
    C60      C        0.41150    0.53060    0.32680    1.000
    C61      C        0.61160    0.76870    0.32370    1.000
    C62      C        0.67280    0.83420    0.26550    1.000
    C63      C        0.66780    0.81510    0.18320    1.000
    C64      C        0.72910    0.87170    0.12690    1.000
    C65      C        0.79300    0.94960    0.15350    1.000
    C66      C        0.84950    0.05700    0.27070    1.000
    C67      C        0.84260    0.07780    0.35410    1.000
    C68      C        0.78550    0.02000    0.40760    1.000
    C69      C        0.73230    0.94040    0.38000    1.000
    C70      C        0.73270    0.91490    0.29550    1.000
    C71      C        0.79480    0.97510    0.23850    1.000
    C72      C        0.85710    0.00100    0.08730    1.000
    C73      C        0.57140    0.49850    0.53760    1.000
    C74      C        0.62730    0.44920    0.60270    1.000
    C75      C        0.74350    0.46190    0.62200    1.000
    C76      C        0.80740    0.52640    0.57570    1.000
    C77      C        0.74460    0.57510    0.51300    1.000
    C78      C        0.81570    0.41610    0.69140    1.000
    C79      C        0.76580    0.34270    0.73100    1.000
    C80      C        0.82490    0.29670    0.80420    1.000
    C81      C        0.78300    0.20670    0.82610    1.000
    C82      C        0.83830    0.16210    0.89230    1.000
    C83      C        0.96590    0.28320    0.92140    1.000
    C84      C        0.91650    0.33710    0.85670    1.000
    C85      C        0.50030    0.75750    0.57070    1.000
    C86      C        0.44170    0.80220    0.63360    1.000
    C87      C        0.31330    0.81540    0.62730    1.000
    C88      C        0.25550    0.78410    0.55470    1.000
    C89      C        0.31430    0.73990    0.49480    1.000
    C90      C        0.24450    0.85360    0.69360    1.000
    C91      C        0.30180    0.90380    0.75500    1.000
    C92      C        0.23150    0.95110    0.82150    1.000
    C93      C        0.29360    0.02070    0.86910    1.000
    C94      C        0.23460    0.06960    0.92920    1.000
    C95      C        0.06220    0.97580    0.90770    1.000
    C96      C        0.11740    0.93100    0.84210    1.000
    N5       N        0.62540    0.56470    0.49470    1.000
    N6       N        0.93230    0.20030    0.93990    1.000
    N7       N        0.43800    0.72670    0.50030    1.000
    N8       N        0.12030    0.04730    0.94850    1.000
    O9       O        0.04830    0.23950    0.11660    1.000
    O10      O        0.21800    0.23650    0.04850    1.000
    O11      O        0.36400    0.56910    0.38630    1.000
    O12      O        0.51670    0.54890    0.30660    1.000
    O13      O        0.49670    0.75590    0.31140    1.000
    O14      O        0.67140    0.73140    0.38040    1.000
    O15      O        0.82680    0.99100    0.01540    1.000
    O16      O        0.94580    0.05220    0.11300    1.000
