# CIF file generated by openbabel 3.1.0, see https://openbabel.org
data_I
_chemical_name_common 'image0'
_cell_length_a 30.753
_cell_length_b 15.7285
_cell_length_c 22.119
_cell_angle_alpha 90
_cell_angle_beta 133.118
_cell_angle_gamma 90
_space_group_name_H-M_alt 'P 1'
_space_group_name_Hall 'P 1'
loop_
    _symmetry_equiv_pos_as_xyz
    x,y,z
loop_
    _atom_site_label
    _atom_site_type_symbol
    _atom_site_fract_x
    _atom_site_fract_y
    _atom_site_fract_z
    _atom_site_occupancy
    Ce1      Ce       0.89005    0.63692    0.32743    1.000
    Ce2      Ce       0.83061    0.62847    0.98577    1.000
    N1       N        0.83860    0.49640    0.24270    1.000
    N2       N        0.63340    0.73140    0.03540    1.000
    O1       O        0.86550    0.52720    0.38150    1.000
    O2       O        0.82610    0.40260    0.37390    1.000
    O3       O        0.87580    0.61540    0.20330    1.000
    O4       O        0.84050    0.54680    0.09040    1.000
    O5       O        0.74760    0.76620    0.12740    1.000
    O6       O        0.77700    0.65080    0.20580    1.000
    O7       O        0.55940    0.85370    0.93110    1.000
    O8       O        0.48100    0.78200    0.88780    1.000
    C1       C        0.83860    0.46000    0.34630    1.000
    C2       C        0.81500    0.44280    0.26180    1.000
    C3       C        0.77560    0.38200    0.20830    1.000
    H1       H        0.76030    0.34580    0.22330    1.000
    C4       C        0.75730    0.37270    0.13120    1.000
    H2       H        0.72750    0.33470    0.09180    1.000
    C5       C        0.78620    0.42350    0.11650    1.000
    H3       H        0.77890    0.41530    0.06860    1.000
    C6       C        0.82590    0.48650    0.17220    1.000
    C7       C        0.84890    0.55190    0.15360    1.000
    C8       C        0.73750    0.69850    0.14670    1.000
    C9       C        0.67450    0.67630    0.09590    1.000
    C10      C        0.65580    0.60000    0.10580    1.000
    H4       H        0.68340    0.56030    0.14560    1.000
    C11      C        0.59580    0.58610    0.05520    1.000
    H5       H        0.58280    0.53600    0.06080    1.000
    C12      C        0.55330    0.64610    0.99480    1.000
    H6       H        0.51250    0.63760    0.96070    1.000
    C13      C        0.57660    0.71910    0.98970    1.000
    C14      C        0.53520    0.78980    0.93070    1.000
    Ce3      Ce       0.39005    0.13692    0.32743    1.000
    Ce4      Ce       0.33061    0.12847    0.98577    1.000
    N3       N        0.33860    0.99640    0.24270    1.000
    N4       N        0.13340    0.23140    0.03540    1.000
    O9       O        0.36550    0.02720    0.38150    1.000
    O10      O        0.32610    0.90260    0.37390    1.000
    O11      O        0.37580    0.11540    0.20330    1.000
    O12      O        0.34050    0.04680    0.09040    1.000
    O13      O        0.24760    0.26620    0.12740    1.000
    O14      O        0.27700    0.15080    0.20580    1.000
    O15      O        0.05940    0.35370    0.93110    1.000
    O16      O        0.98100    0.28200    0.88780    1.000
    C15      C        0.33860    0.96000    0.34630    1.000
    C16      C        0.31500    0.94280    0.26180    1.000
    C17      C        0.27560    0.88200    0.20830    1.000
    H7       H        0.26030    0.84580    0.22330    1.000
    C18      C        0.25730    0.87270    0.13120    1.000
    H8       H        0.22750    0.83470    0.09180    1.000
    C19      C        0.28620    0.92350    0.11650    1.000
    H9       H        0.27890    0.91530    0.06860    1.000
    C20      C        0.32590    0.98650    0.17220    1.000
    C21      C        0.34890    0.05190    0.15360    1.000
    C22      C        0.23750    0.19850    0.14670    1.000
    C23      C        0.17450    0.17630    0.09590    1.000
    C24      C        0.15580    0.10000    0.10580    1.000
    H10      H        0.18340    0.06030    0.14560    1.000
    C25      C        0.09580    0.08610    0.05520    1.000
    H11      H        0.08280    0.03600    0.06080    1.000
    C26      C        0.05330    0.14610    0.99480    1.000
    H12      H        0.01250    0.13760    0.96070    1.000
    C27      C        0.07660    0.21910    0.98970    1.000
    C28      C        0.03520    0.28980    0.93070    1.000
    Ce5      Ce       0.10995    0.63692    0.17257    1.000
    Ce6      Ce       0.16939    0.62847    0.51423    1.000
    N5       N        0.16140    0.49640    0.25730    1.000
    N6       N        0.36660    0.73140    0.46460    1.000
    O17      O        0.13450    0.52720    0.11850    1.000
    O18      O        0.17390    0.40260    0.12610    1.000
    O19      O        0.12420    0.61540    0.29670    1.000
    O20      O        0.15950    0.54680    0.40960    1.000
    O21      O        0.25240    0.76620    0.37260    1.000
    O22      O        0.22300    0.65080    0.29420    1.000
    O23      O        0.44060    0.85370    0.56890    1.000
    O24      O        0.51900    0.78200    0.61220    1.000
    C29      C        0.16140    0.46000    0.15370    1.000
    C30      C        0.18500    0.44280    0.23820    1.000
    C31      C        0.22440    0.38200    0.29170    1.000
    H13      H        0.23970    0.34580    0.27670    1.000
    C32      C        0.24270    0.37270    0.36880    1.000
    H14      H        0.27250    0.33470    0.40820    1.000
    C33      C        0.21380    0.42350    0.38350    1.000
    H15      H        0.22110    0.41530    0.43140    1.000
    C34      C        0.17410    0.48650    0.32780    1.000
    C35      C        0.15110    0.55190    0.34640    1.000
    C36      C        0.26250    0.69850    0.35330    1.000
    C37      C        0.32550    0.67630    0.40410    1.000
    C38      C        0.34420    0.60000    0.39420    1.000
    H16      H        0.31660    0.56030    0.35440    1.000
    C39      C        0.40420    0.58610    0.44480    1.000
    H17      H        0.41720    0.53600    0.43920    1.000
    C40      C        0.44670    0.64610    0.50520    1.000
    H18      H        0.48750    0.63760    0.53930    1.000
    C41      C        0.42340    0.71910    0.51030    1.000
    C42      C        0.46480    0.78980    0.56930    1.000
    Ce7      Ce       0.60995    0.13692    0.17257    1.000
    Ce8      Ce       0.66939    0.12847    0.51423    1.000
    N7       N        0.66140    0.99640    0.25730    1.000
    N8       N        0.86660    0.23140    0.46460    1.000
    O25      O        0.63450    0.02720    0.11850    1.000
    O26      O        0.67390    0.90260    0.12610    1.000
    O27      O        0.62420    0.11540    0.29670    1.000
    O28      O        0.65950    0.04680    0.40960    1.000
    O29      O        0.75240    0.26620    0.37260    1.000
    O30      O        0.72300    0.15080    0.29420    1.000
    O31      O        0.94060    0.35370    0.56890    1.000
    O32      O        0.01900    0.28200    0.61220    1.000
    C43      C        0.66140    0.96000    0.15370    1.000
    C44      C        0.68500    0.94280    0.23820    1.000
    C45      C        0.72440    0.88200    0.29170    1.000
    H19      H        0.73970    0.84580    0.27670    1.000
    C46      C        0.74270    0.87270    0.36880    1.000
    H20      H        0.77250    0.83470    0.40820    1.000
    C47      C        0.71380    0.92350    0.38350    1.000
    H21      H        0.72110    0.91530    0.43140    1.000
    C48      C        0.67410    0.98650    0.32780    1.000
    C49      C        0.65110    0.05190    0.34640    1.000
    C50      C        0.76250    0.19850    0.35330    1.000
    C51      C        0.82550    0.17630    0.40410    1.000
    C52      C        0.84420    0.10000    0.39420    1.000
    H22      H        0.81660    0.06030    0.35440    1.000
    C53      C        0.90420    0.08610    0.44480    1.000
    H23      H        0.91720    0.03600    0.43920    1.000
    C54      C        0.94670    0.14610    0.50520    1.000
    H24      H        0.98750    0.13760    0.53930    1.000
    C55      C        0.92340    0.21910    0.51030    1.000
    C56      C        0.96480    0.28980    0.56930    1.000
    Ce9      Ce       0.10995    0.36308    0.67257    1.000
    Ce10     Ce       0.16939    0.37153    0.01423    1.000
    N9       N        0.16140    0.50360    0.75730    1.000
    N10      N        0.36660    0.26860    0.96460    1.000
    O33      O        0.13450    0.47280    0.61850    1.000
    O34      O        0.17390    0.59740    0.62610    1.000
    O35      O        0.12420    0.38460    0.79670    1.000
    O36      O        0.15950    0.45320    0.90960    1.000
    O37      O        0.25240    0.23380    0.87260    1.000
    O38      O        0.22300    0.34920    0.79420    1.000
    O39      O        0.44060    0.14630    0.06890    1.000
    O40      O        0.51900    0.21800    0.11220    1.000
    C57      C        0.16140    0.54000    0.65370    1.000
    C58      C        0.18500    0.55720    0.73820    1.000
    C59      C        0.22440    0.61800    0.79170    1.000
    H25      H        0.23970    0.65420    0.77670    1.000
    C60      C        0.24270    0.62730    0.86880    1.000
    H26      H        0.27250    0.66530    0.90820    1.000
    C61      C        0.21380    0.57650    0.88350    1.000
    H27      H        0.22110    0.58470    0.93140    1.000
    C62      C        0.17410    0.51350    0.82780    1.000
    C63      C        0.15110    0.44810    0.84640    1.000
    C64      C        0.26250    0.30150    0.85330    1.000
    C65      C        0.32550    0.32370    0.90410    1.000
    C66      C        0.34420    0.40000    0.89420    1.000
    H28      H        0.31660    0.43970    0.85440    1.000
    C67      C        0.40420    0.41390    0.94480    1.000
    H29      H        0.41720    0.46400    0.93920    1.000
    C68      C        0.44670    0.35390    0.00520    1.000
    H30      H        0.48750    0.36240    0.03930    1.000
    C69      C        0.42340    0.28090    0.01030    1.000
    C70      C        0.46480    0.21020    0.06930    1.000
    Ce11     Ce       0.60995    0.86308    0.67257    1.000
    Ce12     Ce       0.66939    0.87153    0.01423    1.000
    N11      N        0.66140    0.00360    0.75730    1.000
    N12      N        0.86660    0.76860    0.96460    1.000
    O41      O        0.63450    0.97280    0.61850    1.000
    O42      O        0.67390    0.09740    0.62610    1.000
    O43      O        0.62420    0.88460    0.79670    1.000
    O44      O        0.65950    0.95320    0.90960    1.000
    O45      O        0.75240    0.73380    0.87260    1.000
    O46      O        0.72300    0.84920    0.79420    1.000
    O47      O        0.94060    0.64630    0.06890    1.000
    O48      O        0.01900    0.71800    0.11220    1.000
    C71      C        0.66140    0.04000    0.65370    1.000
    C72      C        0.68500    0.05720    0.73820    1.000
    C73      C        0.72440    0.11800    0.79170    1.000
    H31      H        0.73970    0.15420    0.77670    1.000
    C74      C        0.74270    0.12730    0.86880    1.000
    H32      H        0.77250    0.16530    0.90820    1.000
    C75      C        0.71380    0.07650    0.88350    1.000
    H33      H        0.72110    0.08470    0.93140    1.000
    C76      C        0.67410    0.01350    0.82780    1.000
    C77      C        0.65110    0.94810    0.84640    1.000
    C78      C        0.76250    0.80150    0.85330    1.000
    C79      C        0.82550    0.82370    0.90410    1.000
    C80      C        0.84420    0.90000    0.89420    1.000
    H34      H        0.81660    0.93970    0.85440    1.000
    C81      C        0.90420    0.91390    0.94480    1.000
    H35      H        0.91720    0.96400    0.93920    1.000
    C82      C        0.94670    0.85390    0.00520    1.000
    H36      H        0.98750    0.86240    0.03930    1.000
    C83      C        0.92340    0.78090    0.01030    1.000
    C84      C        0.96480    0.71020    0.06930    1.000
    Ce13     Ce       0.89005    0.36308    0.82743    1.000
    Ce14     Ce       0.83061    0.37153    0.48577    1.000
    N13      N        0.83860    0.50360    0.74270    1.000
    N14      N        0.63340    0.26860    0.53540    1.000
    O49      O        0.86550    0.47280    0.88150    1.000
    O50      O        0.82610    0.59740    0.87390    1.000
    O51      O        0.87580    0.38460    0.70330    1.000
    O52      O        0.84050    0.45320    0.59040    1.000
    O53      O        0.74760    0.23380    0.62740    1.000
    O54      O        0.77700    0.34920    0.70580    1.000
    O55      O        0.55940    0.14630    0.43110    1.000
    O56      O        0.48100    0.21800    0.38780    1.000
    C85      C        0.83860    0.54000    0.84630    1.000
    C86      C        0.81500    0.55720    0.76180    1.000
    C87      C        0.77560    0.61800    0.70830    1.000
    H37      H        0.76030    0.65420    0.72330    1.000
    C88      C        0.75730    0.62730    0.63120    1.000
    H38      H        0.72750    0.66530    0.59180    1.000
    C89      C        0.78620    0.57650    0.61650    1.000
    H39      H        0.77890    0.58470    0.56860    1.000
    C90      C        0.82590    0.51350    0.67220    1.000
    C91      C        0.84890    0.44810    0.65360    1.000
    C92      C        0.73750    0.30150    0.64670    1.000
    C93      C        0.67450    0.32370    0.59590    1.000
    C94      C        0.65580    0.40000    0.60580    1.000
    H40      H        0.68340    0.43970    0.64560    1.000
    C95      C        0.59580    0.41390    0.55520    1.000
    H41      H        0.58280    0.46400    0.56080    1.000
    C96      C        0.55330    0.35390    0.49480    1.000
    H42      H        0.51250    0.36240    0.46070    1.000
    C97      C        0.57660    0.28090    0.48970    1.000
    C98      C        0.53520    0.21020    0.43070    1.000
    Ce15     Ce       0.39005    0.86308    0.82743    1.000
    Ce16     Ce       0.33061    0.87153    0.48577    1.000
    N15      N        0.33860    0.00360    0.74270    1.000
    N16      N        0.13340    0.76860    0.53540    1.000
    O57      O        0.36550    0.97280    0.88150    1.000
    O58      O        0.32610    0.09740    0.87390    1.000
    O59      O        0.37580    0.88460    0.70330    1.000
    O60      O        0.34050    0.95320    0.59040    1.000
    O61      O        0.24760    0.73380    0.62740    1.000
    O62      O        0.27700    0.84920    0.70580    1.000
    O63      O        0.05940    0.64630    0.43110    1.000
    O64      O        0.98100    0.71800    0.38780    1.000
    C99      C        0.33860    0.04000    0.84630    1.000
    C100     C        0.31500    0.05720    0.76180    1.000
    C101     C        0.27560    0.11800    0.70830    1.000
    H43      H        0.26030    0.15420    0.72330    1.000
    C102     C        0.25730    0.12730    0.63120    1.000
    H44      H        0.22750    0.16530    0.59180    1.000
    C103     C        0.28620    0.07650    0.61650    1.000
    H45      H        0.27890    0.08470    0.56860    1.000
    C104     C        0.32590    0.01350    0.67220    1.000
    C105     C        0.34890    0.94810    0.65360    1.000
    C106     C        0.23750    0.80150    0.64670    1.000
    C107     C        0.17450    0.82370    0.59590    1.000
    C108     C        0.15580    0.90000    0.60580    1.000
    H46      H        0.18340    0.93970    0.64560    1.000
    C109     C        0.09580    0.91390    0.55520    1.000
    H47      H        0.08280    0.96400    0.56080    1.000
    C110     C        0.05330    0.85390    0.49480    1.000
    H48      H        0.01250    0.86240    0.46070    1.000
    C111     C        0.07660    0.78090    0.48970    1.000
    C112     C        0.03520    0.71020    0.43070    1.000
