data_functionalizedCrystal
_audit_creation_method	'EQeq! by Chris Wilmer'
_symmetry_space_group_name_H-M	'P1'
_symmetry_Int_Tables_number	1
_symmetry_cell_setting	triclinic
loop_
_symmetry_equiv_pos_as_xyz
  x,y,z
_cell_length_a	19.1998
_cell_length_b	19.1998
_cell_length_c	37.747
_cell_angle_alpha	90
_cell_angle_beta	90
_cell_angle_gamma	120
loop_
_atom_site_label
_atom_site_type_symbol
_atom_site_fract_x
_atom_site_fract_y
_atom_site_fract_z
_atom_site_charge
Mof_O 	O 	0.2199	0.1825	0.15965	-0.471
Mof_O 	O 	0.2955	0.2213	0.20854	-0.497
Mof_C 	C 	0.2362	0.2087	0.1915	0.409
Mof_C 	C 	0.1771	0.2288	0.2078	-0.116
Mof_C 	C 	0.1327	0.359	0.3083	-0.009
Mof_C 	C 	0.1904	0.2592	0.2421	-0.003
Mof_H 	H 	0.2376	0.2694	0.2535	0.045
Mof_C 	C 	0.0905	0.275	0.3222	-0.01
Mof_O 	O 	0.88657	0.51583	0.49298	-0.471
Mof_O 	O 	0.96217	0.55463	0.54187	-0.497
Mof_C 	C 	0.90287	0.54203	0.52483	0.409
Mof_C 	C 	0.84377	0.56213	0.54113	-0.116
Mof_C 	C 	0.79937	0.69233	0.64163	-0.009
Mof_C 	C 	0.85707	0.59253	0.57543	-0.002
Mof_H 	H 	0.90427	0.60273	0.58683	0.045
Mof_C 	C 	0.75717	0.60833	0.65553	-0.01
Mof_O 	O 	0.55323	0.84917	0.82632	-0.471
Mof_O 	O 	0.62883	0.88797	0.87521	-0.497
Mof_C 	C 	0.56953	0.87537	0.85817	0.409
Mof_C 	C 	0.51043	0.89547	0.87447	-0.116
Mof_C 	C 	0.46603	0.02567	0.97497	-0.008
Mof_C 	C 	0.52373	0.92587	0.90877	-0.001
Mof_H 	H 	0.57093	0.93607	0.92017	0.046
Mof_C 	C 	0.42383	0.94167	0.98887	-0.009
Mof_O 	O 	0.8175	0.0374	0.15965	-0.47
Mof_O 	O 	0.7787	0.0742	0.20854	-0.496
Mof_C 	C 	0.7913	0.0275	0.1915	0.41
Mof_C 	C 	0.7712	0.9483	0.2078	-0.115
Mof_C 	C 	0.641	0.7737	0.3083	-0.008
Mof_C 	C 	0.7408	0.9312	0.2421	-0.002
Mof_H 	H 	0.7306	0.9682	0.2535	0.046
Mof_C 	C 	0.725	0.8155	0.3222	-0.009
Mof_O 	O 	0.48417	0.37073	0.49298	-0.47
Mof_O 	O 	0.44537	0.40753	0.54187	-0.496
Mof_C 	C 	0.45797	0.36083	0.52483	0.41
Mof_C 	C 	0.43787	0.28163	0.54113	-0.115
Mof_C 	C 	0.30767	0.10703	0.64163	-0.008
Mof_C 	C 	0.40747	0.26453	0.57543	-0.001
Mof_H 	H 	0.39727	0.30153	0.58683	0.046
Mof_C 	C 	0.39167	0.14883	0.65553	-0.009
Mof_O 	O 	0.15083	0.70407	0.82632	-0.47
Mof_O 	O 	0.11203	0.74087	0.87521	-0.496
Mof_C 	C 	0.12463	0.69417	0.85817	0.41
Mof_C 	C 	0.10453	0.61497	0.87447	-0.115
Mof_C 	C 	0.97433	0.44037	0.97497	-0.008
Mof_C 	C 	0.07413	0.59787	0.90877	-0.001
Mof_H 	H 	0.06393	0.63487	0.92017	0.046
Mof_C 	C 	0.05833	0.48217	0.98887	-0.009
Mof_O 	O 	0.9626	0.7801	0.15965	-0.47
Mof_O 	O 	0.9258	0.7045	0.20854	-0.496
Mof_C 	C 	0.9725	0.7638	0.1915	0.41
Mof_C 	C 	0.0517	0.8229	0.2078	-0.115
Mof_C 	C 	0.2263	0.8673	0.3083	-0.008
Mof_C 	C 	0.0688	0.8096	0.2421	-0.002
Mof_H 	H 	0.0318	0.7624	0.2535	0.046
Mof_C 	C 	0.1845	0.9095	0.3222	-0.009
Mof_O 	O 	0.62927	0.11343	0.49298	-0.47
Mof_O 	O 	0.59247	0.03783	0.54187	-0.496
Mof_C 	C 	0.63917	0.09713	0.52483	0.41
Mof_C 	C 	0.71837	0.15623	0.54113	-0.115
Mof_C 	C 	0.89297	0.20063	0.64163	-0.008
Mof_C 	C 	0.73547	0.14293	0.57543	-0.001
Mof_H 	H 	0.69847	0.09573	0.58683	0.046
Mof_C 	C 	0.85117	0.24283	0.65553	-0.009
Mof_O 	O 	0.29593	0.44677	0.82632	-0.47
Mof_O 	O 	0.25913	0.37117	0.87521	-0.496
Mof_C 	C 	0.30583	0.43047	0.85817	0.41
Mof_C 	C 	0.38503	0.48957	0.87447	-0.115
Mof_C 	C 	0.55963	0.53397	0.97497	-0.008
Mof_C 	C 	0.40213	0.47627	0.90877	-0.001
Mof_H 	H 	0.36513	0.42907	0.92017	0.046
Mof_C 	C 	0.51783	0.57617	0.98887	-0.009
Mof_O 	O 	0.1825	0.2199	0.84035	-0.47
Mof_O 	O 	0.2213	0.2955	0.79146	-0.496
Mof_C 	C 	0.2087	0.2362	0.8085	0.41
Mof_C 	C 	0.2288	0.1771	0.7922	-0.115
Mof_C 	C 	0.359	0.1327	0.6917	-0.008
Mof_C 	C 	0.2592	0.1904	0.7579	-0.002
Mof_H 	H 	0.2694	0.2376	0.7465	0.046
Mof_C 	C 	0.275	0.0905	0.6778	-0.009
Mof_O 	O 	0.84917	0.55323	0.17368	-0.47
Mof_O 	O 	0.88797	0.62883	0.12479	-0.496
Mof_C 	C 	0.87537	0.56953	0.14183	0.41
Mof_C 	C 	0.89547	0.51043	0.12553	-0.115
Mof_C 	C 	0.02567	0.46603	0.02503	-0.008
Mof_C 	C 	0.92587	0.52373	0.09123	-0.001
Mof_H 	H 	0.93607	0.57093	0.07983	0.046
Mof_C 	C 	0.94167	0.42383	0.01113	-0.009
Mof_O 	O 	0.51583	0.88657	0.50702	-0.47
Mof_O 	O 	0.55463	0.96217	0.45813	-0.496
Mof_C 	C 	0.54203	0.90287	0.47517	0.41
Mof_C 	C 	0.56213	0.84377	0.45887	-0.115
Mof_C 	C 	0.69233	0.79937	0.35837	-0.008
Mof_C 	C 	0.59253	0.85707	0.42457	-0.001
Mof_H 	H 	0.60273	0.90427	0.41317	0.046
Mof_C 	C 	0.60833	0.75717	0.34447	-0.009
Mof_O 	O 	0.0374	0.8175	0.84035	-0.47
Mof_O 	O 	0.0742	0.7787	0.79146	-0.496
Mof_C 	C 	0.0275	0.7913	0.8085	0.41
Mof_C 	C 	0.9483	0.7712	0.7922	-0.115
Mof_C 	C 	0.7737	0.641	0.6917	-0.008
Mof_C 	C 	0.9312	0.7408	0.7579	-0.002
Mof_H 	H 	0.9682	0.7306	0.7465	0.046
Mof_C 	C 	0.8155	0.725	0.6778	-0.009
Mof_O 	O 	0.70407	0.15083	0.17368	-0.47
Mof_O 	O 	0.74087	0.11203	0.12479	-0.496
Mof_C 	C 	0.69417	0.12463	0.14183	0.41
Mof_C 	C 	0.61497	0.10453	0.12553	-0.115
Mof_C 	C 	0.44037	0.97433	0.02503	-0.008
Mof_C 	C 	0.59787	0.07413	0.09123	-0.001
Mof_H 	H 	0.63487	0.06393	0.07983	0.046
Mof_C 	C 	0.48217	0.05833	0.01113	-0.009
Mof_O 	O 	0.37073	0.48417	0.50702	-0.47
Mof_O 	O 	0.40753	0.44537	0.45813	-0.496
Mof_C 	C 	0.36083	0.45797	0.47517	0.41
Mof_C 	C 	0.28163	0.43787	0.45887	-0.115
Mof_C 	C 	0.10703	0.30767	0.35837	-0.008
Mof_C 	C 	0.26453	0.40747	0.42457	-0.001
Mof_H 	H 	0.30153	0.39727	0.41317	0.046
Mof_C 	C 	0.14883	0.39167	0.34447	-0.009
Mof_O 	O 	0.7801	0.9626	0.84035	-0.47
Mof_O 	O 	0.7045	0.9258	0.79146	-0.496
Mof_C 	C 	0.7638	0.9725	0.8085	0.41
Mof_C 	C 	0.8229	0.0517	0.7922	-0.115
Mof_C 	C 	0.8673	0.2263	0.6917	-0.008
Mof_C 	C 	0.8096	0.0688	0.7579	-0.002
Mof_H 	H 	0.7624	0.0318	0.7465	0.046
Mof_C 	C 	0.9095	0.1845	0.6778	-0.009
Mof_O 	O 	0.44677	0.29593	0.17368	-0.47
Mof_O 	O 	0.37117	0.25913	0.12479	-0.496
Mof_C 	C 	0.43047	0.30583	0.14183	0.41
Mof_C 	C 	0.48957	0.38503	0.12553	-0.115
Mof_C 	C 	0.53397	0.55963	0.02503	-0.008
Mof_C 	C 	0.47627	0.40213	0.09123	-0.001
Mof_H 	H 	0.42907	0.36513	0.07983	0.046
Mof_C 	C 	0.57617	0.51783	0.01113	-0.009
Mof_O 	O 	0.11343	0.62927	0.50702	-0.47
Mof_O 	O 	0.03783	0.59247	0.45813	-0.496
Mof_C 	C 	0.09713	0.63917	0.47517	0.41
Mof_C 	C 	0.15623	0.71837	0.45887	-0.115
Mof_C 	C 	0.20063	0.89297	0.35837	-0.008
Mof_C 	C 	0.14293	0.73547	0.42457	-0.001
Mof_H 	H 	0.09573	0.69847	0.41317	0.046
Mof_C 	C 	0.24283	0.85117	0.34447	-0.009
Mof_O 	O 	0.7801	0.8175	0.84035	-0.47
Mof_O 	O 	0.7045	0.7787	0.79146	-0.496
Mof_C 	C 	0.7638	0.7913	0.8085	0.41
Mof_C 	C 	0.8229	0.7712	0.7922	-0.115
Mof_C 	C 	0.8673	0.641	0.6917	-0.008
Mof_C 	C 	0.8096	0.7408	0.7579	-0.002
Mof_H 	H 	0.7624	0.7306	0.7465	0.046
Mof_C 	C 	0.9095	0.725	0.6778	-0.009
Mof_O 	O 	0.44677	0.15083	0.17368	-0.47
Mof_O 	O 	0.37117	0.11203	0.12479	-0.496
Mof_C 	C 	0.43047	0.12463	0.14183	0.41
Mof_C 	C 	0.48957	0.10453	0.12553	-0.115
Mof_C 	C 	0.53397	0.97433	0.02503	-0.008
Mof_C 	C 	0.47627	0.07413	0.09123	-0.001
Mof_H 	H 	0.42907	0.06393	0.07983	0.046
Mof_C 	C 	0.57617	0.05833	0.01113	-0.009
Mof_O 	O 	0.11343	0.48417	0.50702	-0.47
Mof_O 	O 	0.03783	0.44537	0.45813	-0.496
Mof_C 	C 	0.09713	0.45797	0.47517	0.41
Mof_C 	C 	0.15623	0.43787	0.45887	-0.115
Mof_C 	C 	0.20063	0.30767	0.35837	-0.008
Mof_C 	C 	0.14293	0.40747	0.42457	-0.001
Mof_H 	H 	0.09573	0.39727	0.41317	0.046
Mof_C 	C 	0.24283	0.39167	0.34447	-0.009
Mof_O 	O 	0.1825	0.9626	0.84035	-0.47
Mof_O 	O 	0.2213	0.9258	0.79146	-0.496
Mof_C 	C 	0.2087	0.9725	0.8085	0.41
Mof_C 	C 	0.2288	0.0517	0.7922	-0.115
Mof_C 	C 	0.359	0.2263	0.6917	-0.008
Mof_C 	C 	0.2592	0.0688	0.7579	-0.002
Mof_H 	H 	0.2694	0.0318	0.7465	0.046
Mof_C 	C 	0.275	0.1845	0.6778	-0.009
Mof_O 	O 	0.84917	0.29593	0.17368	-0.47
Mof_O 	O 	0.88797	0.25913	0.12479	-0.496
Mof_C 	C 	0.87537	0.30583	0.14183	0.41
Mof_C 	C 	0.89547	0.38503	0.12553	-0.115
Mof_C 	C 	0.02567	0.55963	0.02503	-0.008
Mof_C 	C 	0.92587	0.40213	0.09123	-0.001
Mof_H 	H 	0.93607	0.36513	0.07983	0.046
Mof_C 	C 	0.94167	0.51783	0.01113	-0.009
Mof_O 	O 	0.51583	0.62927	0.50702	-0.47
Mof_O 	O 	0.55463	0.59247	0.45813	-0.496
Mof_C 	C 	0.54203	0.63917	0.47517	0.41
Mof_C 	C 	0.56213	0.71837	0.45887	-0.115
Mof_C 	C 	0.69233	0.89297	0.35837	-0.008
Mof_C 	C 	0.59253	0.73547	0.42457	-0.001
Mof_H 	H 	0.60273	0.69847	0.41317	0.046
Mof_C 	C 	0.60833	0.85117	0.34447	-0.009
Mof_O 	O 	0.0374	0.2199	0.84035	-0.47
Mof_O 	O 	0.0742	0.2955	0.79146	-0.496
Mof_C 	C 	0.0275	0.2362	0.8085	0.41
Mof_C 	C 	0.9483	0.1771	0.7922	-0.115
Mof_C 	C 	0.7737	0.1327	0.6917	-0.008
Mof_C 	C 	0.9312	0.1904	0.7579	-0.002
Mof_H 	H 	0.9682	0.2376	0.7465	0.046
Mof_C 	C 	0.8155	0.0905	0.6778	-0.009
Mof_O 	O 	0.70407	0.55323	0.17368	-0.47
Mof_O 	O 	0.74087	0.62883	0.12479	-0.496
Mof_C 	C 	0.69417	0.56953	0.14183	0.41
Mof_C 	C 	0.61497	0.51043	0.12553	-0.115
Mof_C 	C 	0.44037	0.46603	0.02503	-0.008
Mof_C 	C 	0.59787	0.52373	0.09123	-0.001
Mof_H 	H 	0.63487	0.57093	0.07983	0.046
Mof_C 	C 	0.48217	0.42383	0.01113	-0.009
Mof_O 	O 	0.37073	0.88657	0.50702	-0.47
Mof_O 	O 	0.40753	0.96217	0.45813	-0.496
Mof_C 	C 	0.36083	0.90287	0.47517	0.41
Mof_C 	C 	0.28163	0.84377	0.45887	-0.115
Mof_C 	C 	0.10703	0.79937	0.35837	-0.008
Mof_C 	C 	0.26453	0.85707	0.42457	-0.001
Mof_H 	H 	0.30153	0.90427	0.41317	0.046
Mof_C 	C 	0.14883	0.75717	0.34447	-0.009
Mof_O 	O 	0.8175	0.7801	0.15965	-0.47
Mof_O 	O 	0.7787	0.7045	0.20854	-0.496
Mof_C 	C 	0.7913	0.7638	0.1915	0.41
Mof_C 	C 	0.7712	0.8229	0.2078	-0.115
Mof_C 	C 	0.641	0.8673	0.3083	-0.008
Mof_C 	C 	0.7408	0.8096	0.2421	-0.002
Mof_H 	H 	0.7306	0.7624	0.2535	0.046
Mof_C 	C 	0.725	0.9095	0.3222	-0.009
Mof_O 	O 	0.48417	0.11343	0.49298	-0.47
Mof_O 	O 	0.44537	0.03783	0.54187	-0.496
Mof_C 	C 	0.45797	0.09713	0.52483	0.41
Mof_C 	C 	0.43787	0.15623	0.54113	-0.115
Mof_C 	C 	0.30767	0.20063	0.64163	-0.008
Mof_C 	C 	0.40747	0.14293	0.57543	-0.001
Mof_H 	H 	0.39727	0.09573	0.58683	0.046
Mof_C 	C 	0.39167	0.24283	0.65553	-0.009
Mof_O 	O 	0.15083	0.44677	0.82632	-0.47
Mof_O 	O 	0.11203	0.37117	0.87521	-0.496
Mof_C 	C 	0.12463	0.43047	0.85817	0.41
Mof_C 	C 	0.10453	0.48957	0.87447	-0.115
Mof_C 	C 	0.97433	0.53397	0.97497	-0.008
Mof_C 	C 	0.07413	0.47627	0.90877	-0.001
Mof_H 	H 	0.06393	0.42907	0.92017	0.046
Mof_C 	C 	0.05833	0.57617	0.98887	-0.009
Mof_O 	O 	0.9626	0.1825	0.15965	-0.47
Mof_O 	O 	0.9258	0.2213	0.20854	-0.496
Mof_C 	C 	0.9725	0.2087	0.1915	0.41
Mof_C 	C 	0.0517	0.2288	0.2078	-0.115
Mof_C 	C 	0.2263	0.359	0.3083	-0.008
Mof_C 	C 	0.0688	0.2592	0.2421	-0.002
Mof_H 	H 	0.0318	0.2694	0.2535	0.046
Mof_C 	C 	0.1845	0.275	0.3222	-0.009
Mof_O 	O 	0.62927	0.51583	0.49298	-0.47
Mof_O 	O 	0.59247	0.55463	0.54187	-0.496
Mof_C 	C 	0.63917	0.54203	0.52483	0.41
Mof_C 	C 	0.71837	0.56213	0.54113	-0.115
Mof_C 	C 	0.89297	0.69233	0.64163	-0.008
Mof_C 	C 	0.73547	0.59253	0.57543	-0.001
Mof_H 	H 	0.69847	0.60273	0.58683	0.046
Mof_C 	C 	0.85117	0.60833	0.65553	-0.009
Mof_O 	O 	0.29593	0.84917	0.82632	-0.47
Mof_O 	O 	0.25913	0.88797	0.87521	-0.496
Mof_C 	C 	0.30583	0.87537	0.85817	0.41
Mof_C 	C 	0.38503	0.89547	0.87447	-0.115
Mof_C 	C 	0.55963	0.02567	0.97497	-0.008
Mof_C 	C 	0.40213	0.92587	0.90877	-0.001
Mof_H 	H 	0.36513	0.93607	0.92017	0.046
Mof_C 	C 	0.51783	0.94167	0.98887	-0.009
Mof_O 	O 	0.2199	0.0374	0.15965	-0.47
Mof_O 	O 	0.2955	0.0742	0.20854	-0.496
Mof_C 	C 	0.2362	0.0275	0.1915	0.41
Mof_C 	C 	0.1771	0.9483	0.2078	-0.115
Mof_C 	C 	0.1327	0.7737	0.3083	-0.008
Mof_C 	C 	0.1904	0.9312	0.2421	-0.002
Mof_H 	H 	0.2376	0.9682	0.2535	0.046
Mof_C 	C 	0.0905	0.8155	0.3222	-0.009
Mof_O 	O 	0.88657	0.37073	0.49298	-0.47
Mof_O 	O 	0.96217	0.40753	0.54187	-0.496
Mof_C 	C 	0.90287	0.36083	0.52483	0.41
Mof_C 	C 	0.84377	0.28163	0.54113	-0.115
Mof_C 	C 	0.79937	0.10703	0.64163	-0.008
Mof_C 	C 	0.85707	0.26453	0.57543	-0.001
Mof_H 	H 	0.90427	0.30153	0.58683	0.046
Mof_C 	C 	0.75717	0.14883	0.65553	-0.009
Mof_O 	O 	0.55323	0.70407	0.82632	-0.47
Mof_O 	O 	0.62883	0.74087	0.87521	-0.496
Mof_C 	C 	0.56953	0.69417	0.85817	0.41
Mof_C 	C 	0.51043	0.61497	0.87447	-0.115
Mof_C 	C 	0.46603	0.44037	0.97497	-0.008
Mof_C 	C 	0.52373	0.59787	0.90877	-0.001
Mof_H 	H 	0.57093	0.63487	0.92017	0.046
Mof_C 	C 	0.42383	0.48217	0.98887	-0.009
Mof_Zn	Zn	0.28519	0.1426	0.13328	1.198
Mof_Zn	Zn	0.95186	0.47593	0.46661	1.198
Mof_Zn	Zn	0.61852	0.80926	0.79995	1.198
Mof_Zn	Zn	0.8574	0.1426	0.13328	1.198
Mof_Zn	Zn	0.52407	0.47593	0.46661	1.198
Mof_Zn	Zn	0.19074	0.80926	0.79995	1.198
Mof_Zn	Zn	0.8574	0.71481	0.13328	1.198
Mof_Zn	Zn	0.52407	0.04814	0.46661	1.198
Mof_Zn	Zn	0.19074	0.38148	0.79995	1.198
Mof_Zn	Zn	0.1426	0.28519	0.86672	1.198
Mof_Zn	Zn	0.80926	0.61852	0.20005	1.198
Mof_Zn	Zn	0.47593	0.95186	0.53339	1.198
Mof_Zn	Zn	0.1426	0.8574	0.86672	1.198
Mof_Zn	Zn	0.80926	0.19074	0.20005	1.198
Mof_Zn	Zn	0.47593	0.52407	0.53339	1.198
Mof_Zn	Zn	0.71481	0.8574	0.86672	1.198
Mof_Zn	Zn	0.38148	0.19074	0.20005	1.198
Mof_Zn	Zn	0.04814	0.52407	0.53339	1.198
Mof_C 	C 	0.1081	0.2162	0.1906	0.058
Mof_H 	H 	0.09955	0.1991	0.1671	0.035
Mof_C 	C 	0.1516	0.3032	0.2971	0.004
Mof_C 	C 	0.1375	0.275	0.2601	-0.007
Mof_C 	C 	0.77477	0.54953	0.52393	0.059
Mof_H 	H 	0.76622	0.53243	0.50043	0.035
Mof_C 	C 	0.81827	0.63653	0.63043	0.004
Mof_C 	C 	0.80417	0.60833	0.59343	-0.008
Mof_C 	C 	0.44143	0.88287	0.85727	0.059
Mof_H 	H 	0.43288	0.86577	0.83377	0.035
Mof_C 	C 	0.48493	0.96987	0.96377	0.003
Mof_C 	C 	0.47083	0.94167	0.92677	-0.008
Mof_C 	C 	0.7838	0.8919	0.1906	0.058
Mof_H 	H 	0.8009	0.90045	0.1671	0.035
Mof_C 	C 	0.6968	0.8484	0.2971	0.004
Mof_C 	C 	0.725	0.8625	0.2601	-0.007
Mof_C 	C 	0.45047	0.22523	0.52393	0.059
Mof_H 	H 	0.46757	0.23378	0.50043	0.035
Mof_C 	C 	0.36347	0.18173	0.63043	0.004
Mof_C 	C 	0.39167	0.19583	0.59343	-0.008
Mof_C 	C 	0.11713	0.55857	0.85727	0.059
Mof_H 	H 	0.13423	0.56712	0.83377	0.035
Mof_C 	C 	0.03013	0.51507	0.96377	0.003
Mof_C 	C 	0.05833	0.52917	0.92677	-0.008
Mof_C 	C 	0.1081	0.8919	0.1906	0.058
Mof_H 	H 	0.09955	0.90045	0.1671	0.035
Mof_C 	C 	0.1516	0.8484	0.2971	0.004
Mof_C 	C 	0.1375	0.8625	0.2601	-0.007
Mof_C 	C 	0.77477	0.22523	0.52393	0.059
Mof_H 	H 	0.76622	0.23378	0.50043	0.035
Mof_C 	C 	0.81827	0.18173	0.63043	0.004
Mof_C 	C 	0.80417	0.19583	0.59343	-0.008
Mof_C 	C 	0.44143	0.55857	0.85727	0.059
Mof_H 	H 	0.43288	0.56712	0.83377	0.035
Mof_C 	C 	0.48493	0.51507	0.96377	0.004
Mof_C 	C 	0.47083	0.52917	0.92677	-0.008
Mof_C 	C 	0.2162	0.1081	0.8094	0.058
Mof_H 	H 	0.1991	0.09955	0.8329	0.035
Mof_C 	C 	0.3032	0.1516	0.7029	0.004
Mof_C 	C 	0.275	0.1375	0.7399	-0.007
Mof_C 	C 	0.88287	0.44143	0.14273	0.059
Mof_H 	H 	0.86577	0.43288	0.16623	0.035
Mof_C 	C 	0.96987	0.48493	0.03623	0.003
Mof_C 	C 	0.94167	0.47083	0.07323	-0.008
Mof_C 	C 	0.54953	0.77477	0.47607	0.059
Mof_H 	H 	0.53243	0.76622	0.49957	0.035
Mof_C 	C 	0.63653	0.81827	0.36957	0.004
Mof_C 	C 	0.60833	0.80417	0.40657	-0.008
Mof_C 	C 	0.8919	0.7838	0.8094	0.058
Mof_H 	H 	0.90045	0.8009	0.8329	0.035
Mof_C 	C 	0.8484	0.6968	0.7029	0.004
Mof_C 	C 	0.8625	0.725	0.7399	-0.007
Mof_C 	C 	0.55857	0.11713	0.14273	0.059
Mof_H 	H 	0.56712	0.13423	0.16623	0.035
Mof_C 	C 	0.51507	0.03013	0.03623	0.003
Mof_C 	C 	0.52917	0.05833	0.07323	-0.008
Mof_C 	C 	0.22523	0.45047	0.47607	0.059
Mof_H 	H 	0.23378	0.46757	0.49957	0.035
Mof_C 	C 	0.18173	0.36347	0.36957	0.004
Mof_C 	C 	0.19583	0.39167	0.40657	-0.008
Mof_C 	C 	0.8919	0.1081	0.8094	0.058
Mof_H 	H 	0.90045	0.09955	0.8329	0.035
Mof_C 	C 	0.8484	0.1516	0.7029	0.004
Mof_C 	C 	0.8625	0.1375	0.7399	-0.007
Mof_C 	C 	0.55857	0.44143	0.14273	0.059
Mof_H 	H 	0.56712	0.43288	0.16623	0.035
Mof_C 	C 	0.51507	0.48493	0.03623	0.004
Mof_C 	C 	0.52917	0.47083	0.07323	-0.008
Mof_C 	C 	0.22523	0.77477	0.47607	0.059
Mof_H 	H 	0.23378	0.76622	0.49957	0.035
Mof_C 	C 	0.18173	0.81827	0.36957	0.004
Mof_C 	C 	0.19583	0.80417	0.40657	-0.008
_end
