# CIF file generated by openbabel 3.1.0, see https://openbabel.org
data_I
_chemical_name_common 'image0'
_cell_length_a 14.2269
_cell_length_b 14.7692
_cell_length_c 21.6912
_cell_angle_alpha 90.391
_cell_angle_beta 94.357
_cell_angle_gamma 118.233
_space_group_name_H-M_alt 'P 1'
_space_group_name_Hall 'P 1'
loop_
    _symmetry_equiv_pos_as_xyz
    x,y,z
loop_
    _atom_site_label
    _atom_site_type_symbol
    _atom_site_fract_x
    _atom_site_fract_y
    _atom_site_fract_z
    _atom_site_occupancy
    C1       C        0.93270    0.09200    0.99524    1.000
    H1       H        0.95620    0.04670    0.01040    1.000
    C2       C        0.87380    0.07090    0.93793    1.000
    H2       H        0.85600    0.00990    0.91580    1.000
    C3       C        0.84040    0.14020    0.91250    1.000
    C4       C        0.86670    0.22880    0.94837    1.000
    H3       H        0.84570    0.27600    0.93350    1.000
    C5       C        0.92370    0.24800    0.00600    1.000
    H4       H        0.94030    0.30780    0.02910    1.000
    C6       C        0.77950    0.11860    0.84988    1.000
    C7       C        0.71870    0.01900    0.82642    1.000
    H5       H        0.71880    0.96540    0.84870    1.000
    C8       C        0.65710    0.99690    0.77007    1.000
    C9       C        0.65990    0.07580    0.73537    1.000
    H6       H        0.62140    0.06110    0.69670    1.000
    C10      C        0.72040    0.17790    0.75804    1.000
    C11      C        0.78060    0.19830    0.81577    1.000
    H7       H        0.82160    0.26590    0.83130    1.000
    C12      C        0.80590    0.44140    0.69421    1.000
    H8       H        0.86400    0.50730    0.69960    1.000
    C13      C        0.80640    0.36310    0.72852    1.000
    H9       H        0.86510    0.37700    0.75640    1.000
    C14      C        0.71960    0.26250    0.72208    1.000
    C15      C        0.63370    0.24590    0.67929    1.000
    H10      H        0.57510    0.18050    0.67370    1.000
    C16      C        0.63430    0.32540    0.64480    1.000
    H11      H        0.57630    0.31280    0.61660    1.000
    C17      C        0.50353    0.84679    0.72749    1.000
    C18      C        0.42175    0.84453    0.75976    1.000
    H12      H        0.43810    0.88830    0.79450    1.000
    C19      C        0.31553    0.77689    0.74005    1.000
    C20      C        0.29109    0.71151    0.68808    1.000
    H13      H        0.22000    0.66630    0.67490    1.000
    C21      C        0.37287    0.71377    0.65581    1.000
    C22      C        0.47909    0.78140    0.67552    1.000
    H14      H        0.53380    0.78290    0.65390    1.000
    C23      C        0.05140    0.68470    0.80946    1.000
    H15      H        0.98800    0.62370    0.81170    1.000
    C24      C        0.13240    0.68440    0.77783    1.000
    H16      H        0.12290    0.62370    0.75870    1.000
    C25      C        0.22830    0.77530    0.77470    1.000
    C26      C        0.23900    0.86260    0.80358    1.000
    H17      H        0.30300    0.92340    0.80300    1.000
    C27      C        0.15610    0.86250    0.83383    1.000
    H18      H        0.16430    0.92360    0.85160    1.000
    C28      C        0.40870    0.58230    0.51460    1.000
    H19      H        0.46430    0.58060    0.49560    1.000
    C29      C        0.43050    0.63750    0.56430    1.000
    H20      H        0.50160    0.67390    0.58050    1.000
    C30      C        0.34680    0.64630    0.59781    1.000
    C31      C        0.24190    0.58460    0.56940    1.000
    H21      H        0.18460    0.58440    0.58750    1.000
    C32      C        0.22120    0.52460    0.51570    1.000
    H22      H        0.15130    0.48420    0.49840    1.000
    C33      C        0.05380    0.06710    0.19653    1.000
    C34      C        0.01560    0.95570    0.21216    1.000
    C35      C        0.04350    0.93210    0.27050    1.000
    H23      H        0.08670    0.98480    0.29970    1.000
    C36      C        0.00720    0.83100    0.28500    1.000
    H24      H        0.02620    0.81600    0.32410    1.000
    C37      C        0.94280    0.75140    0.24220    1.000
    C38      C        0.91600    0.77560    0.18340    1.000
    H25      H        0.87430    0.72310    0.15390    1.000
    C39      C        0.95110    0.87700    0.16900    1.000
    H26      H        0.93120    0.89240    0.13030    1.000
    C40      C        0.76160    0.58520    0.27890    1.000
    C41      C        0.74970    0.62990    0.33230    1.000
    H27      H        0.80950    0.68060    0.35550    1.000
    C42      C        0.64610    0.59770    0.35100    1.000
    H28      H        0.63690    0.62940    0.38550    1.000
    C43      C        0.55860    0.51860    0.31774    1.000
    C44      C        0.57170    0.47340    0.26469    1.000
    H29      H        0.51250    0.42080    0.24220    1.000
    C45      C        0.67520    0.50780    0.24530    1.000
    H30      H        0.68460    0.47810    0.20990    1.000
    C46      C        0.44930    0.48360    0.33953    1.000
    C47      C        0.93220    0.69060    0.64195    1.000
    C48      C        0.04310    0.75860    0.62717    1.000
    C49      C        0.08110    0.73160    0.57607    1.000
    H31      H        0.03700    0.67100    0.55270    1.000
    C50      C        0.18470    0.79540    0.56010    1.000
    H32      H        0.21050    0.77770    0.52650    1.000
    C51      C        0.24850    0.88580    0.59540    1.000
    C52      C        0.21230    0.91170    0.64694    1.000
    H33      H        0.25650    0.97160    0.67090    1.000
    C53      C        0.11020    0.84750    0.66204    1.000
    H34      H        0.08580    0.86450    0.69660    1.000
    C54      C        0.35400    0.04940    0.52124    1.000
    C55      C        0.32640    0.02350    0.45940    1.000
    H35      H        0.32580    0.96490    0.44280    1.000
    C56      C        0.29980    0.08320    0.42165    1.000
    H36      H        0.28110    0.06510    0.37960    1.000
    C57      C        0.30040    0.17100    0.44580    1.000
    C58      C        0.32930    0.19840    0.50947    1.000
    H37      H        0.33050    0.25720    0.52610    1.000
    C59      C        0.35580    0.13620    0.54713    1.000
    H38      H        0.37460    0.15290    0.58930    1.000
    C60      C        0.27620    0.24120    0.40548    1.000
    C61      C        0.19980    0.40950    0.14775    1.000
    C62      C        0.28920    0.52010    0.15386    1.000
    C63      C        0.27920    0.59360    0.11950    1.000
    H39      H        0.21820    0.57550    0.09260    1.000
    C64      C        0.36060    0.69530    0.12500    1.000
    H40      H        0.35410    0.74570    0.10250    1.000
    C65      C        0.45290    0.72060    0.16527    1.000
    C66      C        0.46060    0.64570    0.19953    1.000
    H41      H        0.52040    0.66360    0.22730    1.000
    C67      C        0.38130    0.54500    0.19321    1.000
    H42      H        0.38890    0.49430    0.21480    1.000
    C68      C        0.62690    0.84240    0.10380    1.000
    C69      C        0.60570    0.87840    0.04840    1.000
    H43      H        0.56310    0.91060    0.04650    1.000
    C70      C        0.64910    0.86560    0.99560    1.000
    H44      H        0.63550    0.88980    0.95830    1.000
    C71      C        0.71180    0.81760    0.99803    1.000
    C72      C        0.73480    0.78430    0.05340    1.000
    H45      H        0.77940    0.75430    0.05530    1.000
    C73      C        0.69150    0.79540    0.10663    1.000
    H46      H        0.70580    0.77150    0.14380    1.000
    C74      C        0.75690    0.80220    0.94029    1.000
    Co1      Co       0.06255    0.22425    0.11240    1.000
    Co2      Co       0.28625    0.45382    0.39971    1.000
    Co3      Co       0.22151    0.28000    0.27108    1.000
    N1       N        0.95610    0.18020    0.02961    1.000
    N2       N        0.72100    0.42320    0.65244    1.000
    N3       N        0.06290    0.77340    0.83756    1.000
    N4       N        0.30650    0.52570    0.48827    1.000
    O1       O        0.61370    0.89790    0.74494    1.000
    O2       O        0.02810    0.08350    0.14277    1.000
    O3       O        0.10160    0.13286    0.23867    1.000
    O4       O        0.88540    0.56330    0.20684    1.000
    O5       O        0.95450    0.61850    0.31543    1.000
    O6       O        0.36534    0.42349    0.30793    1.000
    O7       O        0.44860    0.52000    0.39190    1.000
    O8       O        0.13180    0.38367    0.10043    1.000
    O9       O        0.19646    0.34344    0.18369    1.000
    O10      O        0.51660    0.91740    0.15612    1.000
    O11      O        0.62830    0.85940    0.22448    1.000
    O12      O        0.71260    0.81180    0.89057    1.000
    O13      O        0.82770    0.77460    0.94639    1.000
    O14      O        0.25270    0.21448    0.34912    1.000
    O15      O        0.28640    0.32289    0.43019    1.000
    O16      O        0.40750    0.90220    0.53409    1.000
    O17      O        0.44420    0.02580    0.62564    1.000
    O18      O        0.87440    0.61700    0.60224    1.000
    O19      O        0.90033    0.70732    0.69094    1.000
    S1       S        0.89369    0.62301    0.25979    1.000
    S2       S        0.37839    0.96516    0.57102    1.000
    S3       S        0.56020    0.84534    0.16842    1.000
    C75      C        0.06730    0.90800    0.00476    1.000
    H47      H        0.04380    0.95330    0.98960    1.000
    C76      C        0.12620    0.92910    0.06207    1.000
    H48      H        0.14400    0.99010    0.08420    1.000
    C77      C        0.15960    0.85980    0.08750    1.000
    C78      C        0.13330    0.77120    0.05163    1.000
    H49      H        0.15430    0.72400    0.06650    1.000
    C79      C        0.07630    0.75200    0.99400    1.000
    H50      H        0.05970    0.69220    0.97090    1.000
    C80      C        0.22050    0.88140    0.15012    1.000
    C81      C        0.28130    0.98100    0.17358    1.000
    H51      H        0.28120    0.03460    0.15130    1.000
    C82      C        0.34290    0.00310    0.22993    1.000
    C83      C        0.34010    0.92420    0.26463    1.000
    H52      H        0.37860    0.93890    0.30330    1.000
    C84      C        0.27960    0.82210    0.24196    1.000
    C85      C        0.21940    0.80170    0.18423    1.000
    H53      H        0.17840    0.73410    0.16870    1.000
    C86      C        0.19410    0.55860    0.30579    1.000
    H54      H        0.13600    0.49270    0.30040    1.000
    C87      C        0.19360    0.63690    0.27148    1.000
    H55      H        0.13490    0.62300    0.24360    1.000
    C88      C        0.28040    0.73750    0.27792    1.000
    C89      C        0.36630    0.75410    0.32071    1.000
    H56      H        0.42490    0.81950    0.32630    1.000
    C90      C        0.36570    0.67460    0.35520    1.000
    H57      H        0.42370    0.68720    0.38340    1.000
    C91      C        0.49647    0.15321    0.27251    1.000
    C92      C        0.57825    0.15547    0.24024    1.000
    H58      H        0.56190    0.11170    0.20550    1.000
    C93      C        0.68447    0.22311    0.25995    1.000
    C94      C        0.70891    0.28849    0.31192    1.000
    H59      H        0.78000    0.33370    0.32510    1.000
    C95      C        0.62713    0.28623    0.34419    1.000
    C96      C        0.52091    0.21860    0.32448    1.000
    H60      H        0.46620    0.21710    0.34610    1.000
    C97      C        0.94860    0.31530    0.19054    1.000
    H61      H        0.01200    0.37630    0.18830    1.000
    C98      C        0.86760    0.31560    0.22217    1.000
    H62      H        0.87710    0.37630    0.24130    1.000
    C99      C        0.77170    0.22470    0.22530    1.000
    C100     C        0.76100    0.13740    0.19642    1.000
    H63      H        0.69700    0.07660    0.19700    1.000
    C101     C        0.84390    0.13750    0.16617    1.000
    H64      H        0.83570    0.07640    0.14840    1.000
    C102     C        0.59130    0.41770    0.48540    1.000
    H65      H        0.53570    0.41940    0.50440    1.000
    C103     C        0.56950    0.36250    0.43570    1.000
    H66      H        0.49840    0.32610    0.41950    1.000
    C104     C        0.65320    0.35370    0.40219    1.000
    C105     C        0.75810    0.41540    0.43060    1.000
    H67      H        0.81540    0.41560    0.41250    1.000
    C106     C        0.77880    0.47540    0.48430    1.000
    H68      H        0.84870    0.51580    0.50160    1.000
    C107     C        0.94620    0.93290    0.80347    1.000
    C108     C        0.98440    0.04430    0.78784    1.000
    C109     C        0.95650    0.06790    0.72950    1.000
    H69      H        0.91330    0.01520    0.70030    1.000
    C110     C        0.99280    0.16900    0.71500    1.000
    H70      H        0.97380    0.18400    0.67590    1.000
    C111     C        0.05720    0.24860    0.75780    1.000
    C112     C        0.08400    0.22440    0.81660    1.000
    H71      H        0.12570    0.27690    0.84610    1.000
    C113     C        0.04890    0.12300    0.83100    1.000
    H72      H        0.06880    0.10760    0.86970    1.000
    C114     C        0.23840    0.41480    0.72110    1.000
    C115     C        0.25030    0.37010    0.66770    1.000
    H73      H        0.19050    0.31940    0.64450    1.000
    C116     C        0.35390    0.40230    0.64900    1.000
    H74      H        0.36310    0.37060    0.61450    1.000
    C117     C        0.44140    0.48140    0.68226    1.000
    C118     C        0.42830    0.52660    0.73531    1.000
    H75      H        0.48750    0.57920    0.75780    1.000
    C119     C        0.32480    0.49220    0.75470    1.000
    H76      H        0.31540    0.52190    0.79010    1.000
    C120     C        0.55070    0.51640    0.66047    1.000
    C121     C        0.06780    0.30940    0.35805    1.000
    C122     C        0.95690    0.24140    0.37283    1.000
    C123     C        0.91890    0.26840    0.42393    1.000
    H77      H        0.96300    0.32900    0.44730    1.000
    C124     C        0.81530    0.20460    0.43990    1.000
    H78      H        0.78950    0.22230    0.47350    1.000
    C125     C        0.75150    0.11420    0.40460    1.000
    C126     C        0.78770    0.08830    0.35306    1.000
    H79      H        0.74350    0.02840    0.32910    1.000
    C127     C        0.88980    0.15250    0.33796    1.000
    H80      H        0.91420    0.13550    0.30340    1.000
    C128     C        0.64600    0.95060    0.47876    1.000
    C129     C        0.67360    0.97650    0.54060    1.000
    H81      H        0.67420    0.03510    0.55720    1.000
    C130     C        0.70020    0.91680    0.57835    1.000
    H82      H        0.71890    0.93490    0.62040    1.000
    C131     C        0.69960    0.82900    0.55420    1.000
    C132     C        0.67070    0.80160    0.49053    1.000
    H83      H        0.66950    0.74280    0.47390    1.000
    C133     C        0.64420    0.86380    0.45287    1.000
    H84      H        0.62540    0.84710    0.41070    1.000
    C134     C        0.72380    0.75880    0.59452    1.000
    C135     C        0.80020    0.59050    0.85225    1.000
    C136     C        0.71080    0.47990    0.84614    1.000
    C137     C        0.72080    0.40640    0.88050    1.000
    H85      H        0.78180    0.42450    0.90740    1.000
    C138     C        0.63940    0.30470    0.87500    1.000
    H86      H        0.64590    0.25430    0.89750    1.000
    C139     C        0.54710    0.27940    0.83473    1.000
    C140     C        0.53940    0.35430    0.80047    1.000
    H87      H        0.47960    0.33640    0.77270    1.000
    C141     C        0.61870    0.45500    0.80679    1.000
    H88      H        0.61110    0.50570    0.78520    1.000
    C142     C        0.37310    0.15760    0.89620    1.000
    C143     C        0.39430    0.12160    0.95160    1.000
    H89      H        0.43690    0.08940    0.95350    1.000
    C144     C        0.35090    0.13440    0.00440    1.000
    H90      H        0.36450    0.11020    0.04170    1.000
    C145     C        0.28820    0.18240    0.00197    1.000
    C146     C        0.26520    0.21570    0.94660    1.000
    H91      H        0.22060    0.24570    0.94470    1.000
    C147     C        0.30850    0.20460    0.89337    1.000
    H92      H        0.29420    0.22850    0.85620    1.000
    C148     C        0.24310    0.19780    0.05971    1.000
    Co4      Co       0.93745    0.77575    0.88760    1.000
    Co5      Co       0.71375    0.54618    0.60029    1.000
    Co6      Co       0.77849    0.72000    0.72892    1.000
    N5       N        0.04390    0.81980    0.97039    1.000
    N6       N        0.27900    0.57680    0.34756    1.000
    N7       N        0.93710    0.22660    0.16244    1.000
    N8       N        0.69350    0.47430    0.51173    1.000
    O20      O        0.38630    0.10210    0.25506    1.000
    O21      O        0.97190    0.91650    0.85723    1.000
    O22      O        0.89840    0.86714    0.76133    1.000
    O23      O        0.11460    0.43670    0.79316    1.000
    O24      O        0.04550    0.38150    0.68457    1.000
    O25      O        0.63466    0.57651    0.69207    1.000
    O26      O        0.55140    0.48000    0.60810    1.000
    O27      O        0.86820    0.61633    0.89957    1.000
    O28      O        0.80354    0.65656    0.81631    1.000
    O29      O        0.48340    0.08260    0.84388    1.000
    O30      O        0.37170    0.14060    0.77552    1.000
    O31      O        0.28740    0.18820    0.10943    1.000
    O32      O        0.17230    0.22540    0.05361    1.000
    O33      O        0.74730    0.78552    0.65088    1.000
    O34      O        0.71360    0.67711    0.56981    1.000
    O35      O        0.59250    0.09780    0.46591    1.000
    O36      O        0.55580    0.97420    0.37436    1.000
    O37      O        0.12560    0.38300    0.39776    1.000
    O38      O        0.09967    0.29268    0.30906    1.000
    S4       S        0.10631    0.37699    0.74021    1.000
    S5       S        0.62161    0.03484    0.42898    1.000
    S6       S        0.43980    0.15466    0.83158    1.000
