# CIF file generated by openbabel 3.1.0, see https://openbabel.org
data_I
_chemical_name_common 'image0'
_cell_length_a 12.999
_cell_length_b 6.7152
_cell_length_c 16.547
_cell_angle_alpha 90
_cell_angle_beta 95.999
_cell_angle_gamma 90
_space_group_name_H-M_alt 'P 1'
_space_group_name_Hall 'P 1'
loop_
    _symmetry_equiv_pos_as_xyz
    x,y,z
loop_
    _atom_site_label
    _atom_site_type_symbol
    _atom_site_fract_x
    _atom_site_fract_y
    _atom_site_fract_z
    _atom_site_occupancy
    N1       N        0.92840    0.39690    0.82540    1.000
    N2       N        0.89590    0.63180    0.91300    1.000
    O1       O        0.86160    0.18400    0.66120    1.000
    C1       C        0.75940    0.89650    0.64100    1.000
    O2       O        0.88690    0.96670    0.74880    1.000
    C2       C        0.74670    0.70040    0.66100    1.000
    H1       H        0.78730    0.64700    0.70540    1.000
    C3       C        0.00090    0.90750    0.97490    1.000
    H2       H        0.02420    0.94080    0.92270    1.000
    H3       H        0.05020    0.81440    0.00190    1.000
    C4       C        0.69730    0.97080    0.57560    1.000
    H4       H        0.70530    0.10310    0.56070    1.000
    C5       C        0.61160    0.65670    0.55290    1.000
    C6       C        0.84130    0.02620    0.68770    1.000
    C7       C        0.96000    0.56520    0.85970    1.000
    H5       H        0.01980    0.63130    0.84870    1.000
    C8       C        0.67630    0.58230    0.61760    1.000
    H6       H        0.67160    0.44880    0.63170    1.000
    C9       C        0.62340    0.85570    0.53120    1.000
    H7       H        0.58210    0.91010    0.48740    1.000
    C10      C        0.81850    0.50390    0.91150    1.000
    H8       H        0.76190    0.51060    0.94150    1.000
    C11      C        0.89950    0.81200    0.96170    1.000
    H9       H        0.87680    0.78000    0.01420    1.000
    H10      H        0.85070    0.90690    0.93540    1.000
    C12      C        0.83800    0.36350    0.85840    1.000
    H11      H        0.79490    0.25510    0.84530    1.000
    C13      C        0.52010    0.59700    0.48990    1.000
    C14      C        0.53680    0.48300    0.52530    1.000
    N3       N        0.07160    0.39690    0.67460    1.000
    N4       N        0.10410    0.63180    0.58700    1.000
    O3       O        0.13840    0.18400    0.83880    1.000
    C15      C        0.24060    0.89650    0.85900    1.000
    O4       O        0.11310    0.96670    0.75120    1.000
    C16      C        0.25330    0.70040    0.83900    1.000
    H12      H        0.21270    0.64700    0.79460    1.000
    C17      C        0.99910    0.90750    0.52510    1.000
    H13      H        0.97580    0.94080    0.57730    1.000
    H14      H        0.94980    0.81440    0.49810    1.000
    C18      C        0.30270    0.97080    0.92440    1.000
    H15      H        0.29470    0.10310    0.93930    1.000
    C19      C        0.38840    0.65670    0.94710    1.000
    C20      C        0.15870    0.02620    0.81230    1.000
    C21      C        0.04000    0.56520    0.64030    1.000
    H16      H        0.98020    0.63130    0.65130    1.000
    C22      C        0.32370    0.58230    0.88240    1.000
    H17      H        0.32840    0.44880    0.86830    1.000
    C23      C        0.37660    0.85570    0.96880    1.000
    H18      H        0.41790    0.91010    0.01260    1.000
    C24      C        0.18150    0.50390    0.58850    1.000
    H19      H        0.23810    0.51060    0.55850    1.000
    C25      C        0.10050    0.81200    0.53830    1.000
    H20      H        0.12320    0.78000    0.48580    1.000
    H21      H        0.14930    0.90690    0.56460    1.000
    C26      C        0.16200    0.36350    0.64160    1.000
    H22      H        0.20510    0.25510    0.65470    1.000
    C27      C        0.47990    0.59700    0.01010    1.000
    C28      C        0.46320    0.48300    0.97470    1.000
    N5       N        0.07160    0.60310    0.17460    1.000
    N6       N        0.10410    0.36820    0.08700    1.000
    O5       O        0.13840    0.81600    0.33880    1.000
    C29      C        0.24060    0.10350    0.35900    1.000
    O6       O        0.11310    0.03330    0.25120    1.000
    C30      C        0.25330    0.29960    0.33900    1.000
    H23      H        0.21270    0.35300    0.29460    1.000
    C31      C        0.99910    0.09250    0.02510    1.000
    H24      H        0.97580    0.05920    0.07730    1.000
    H25      H        0.94980    0.18560    0.99810    1.000
    C32      C        0.30270    0.02920    0.42440    1.000
    H26      H        0.29470    0.89690    0.43930    1.000
    C33      C        0.38840    0.34330    0.44710    1.000
    C34      C        0.15870    0.97380    0.31230    1.000
    C35      C        0.04000    0.43480    0.14030    1.000
    H27      H        0.98020    0.36870    0.15130    1.000
    C36      C        0.32370    0.41770    0.38240    1.000
    H28      H        0.32840    0.55120    0.36830    1.000
    C37      C        0.37660    0.14430    0.46880    1.000
    H29      H        0.41790    0.08990    0.51260    1.000
    C38      C        0.18150    0.49610    0.08850    1.000
    H30      H        0.23810    0.48940    0.05850    1.000
    C39      C        0.10050    0.18800    0.03830    1.000
    H31      H        0.12320    0.22000    0.98580    1.000
    H32      H        0.14930    0.09310    0.06460    1.000
    C40      C        0.16200    0.63650    0.14160    1.000
    H33      H        0.20510    0.74490    0.15470    1.000
    C41      C        0.47990    0.40300    0.51010    1.000
    C42      C        0.46320    0.51700    0.47470    1.000
    N7       N        0.92840    0.60310    0.32540    1.000
    N8       N        0.89590    0.36820    0.41300    1.000
    O7       O        0.86160    0.81600    0.16120    1.000
    C43      C        0.75940    0.10350    0.14100    1.000
    O8       O        0.88690    0.03330    0.24880    1.000
    C44      C        0.74670    0.29960    0.16100    1.000
    H34      H        0.78730    0.35300    0.20540    1.000
    C45      C        0.00090    0.09250    0.47490    1.000
    H35      H        0.02420    0.05920    0.42270    1.000
    H36      H        0.05020    0.18560    0.50190    1.000
    C46      C        0.69730    0.02920    0.07560    1.000
    H37      H        0.70530    0.89690    0.06070    1.000
    C47      C        0.61160    0.34330    0.05290    1.000
    C48      C        0.84130    0.97380    0.18770    1.000
    C49      C        0.96000    0.43480    0.35970    1.000
    H38      H        0.01980    0.36870    0.34870    1.000
    C50      C        0.67630    0.41770    0.11760    1.000
    H39      H        0.67160    0.55120    0.13170    1.000
    C51      C        0.62340    0.14430    0.03120    1.000
    H40      H        0.58210    0.08990    0.98740    1.000
    C52      C        0.81850    0.49610    0.41150    1.000
    H41      H        0.76190    0.48940    0.44150    1.000
    C53      C        0.89950    0.18800    0.46170    1.000
    H42      H        0.87680    0.22000    0.51420    1.000
    H43      H        0.85070    0.09310    0.43540    1.000
    C54      C        0.83800    0.63650    0.35840    1.000
    H44      H        0.79490    0.74490    0.34530    1.000
    C55      C        0.52010    0.40300    0.98990    1.000
    C56      C        0.53680    0.51700    0.02530    1.000
    Co1      Co       0.00000    0.21765    0.75000    1.000
    Co2      Co       0.00000    0.78235    0.25000    1.000
