# CIF file generated by openbabel 3.1.0, see https://openbabel.org
data_I
_chemical_name_common 'image0'
_cell_length_a 8.4974
_cell_length_b 8.4974
_cell_length_c 19.8054
_cell_angle_alpha 89.9989
_cell_angle_beta 90.0049
_cell_angle_gamma 90.0044
_space_group_name_H-M_alt 'P 1'
_space_group_name_Hall 'P 1'
loop_
    _symmetry_equiv_pos_as_xyz
    x,y,z
loop_
    _atom_site_label
    _atom_site_type_symbol
    _atom_site_fract_x
    _atom_site_fract_y
    _atom_site_fract_z
    _atom_site_occupancy
    Zn1      Zn       0.89222    0.62832    0.03476    1.000
    Zn2      Zn       0.62849    0.89207    0.03475    1.000
    Zn3      Zn       0.62844    0.62829    0.92160    1.000
    Zn4      Zn       0.89221    0.89205    0.92158    1.000
    O1       O        0.76034    0.76018    0.97817    1.000
    O2       O        0.85727    0.66332    0.12947    1.000
    O3       O        0.40772    0.85707    0.01974    1.000
    O4       O        0.66342    0.40753    0.93662    1.000
    O5       O        0.66350    0.85710    0.12947    1.000
    O6       O        0.85722    0.40755    0.01975    1.000
    O7       O        0.40768    0.66328    0.93661    1.000
    O8       O        0.66340    0.66326    0.82688    1.000
    O9       O        0.11297    0.85707    0.93659    1.000
    O10      O        0.85719    0.85704    0.82687    1.000
    O11      O        0.11298    0.66330    0.01974    1.000
    O12      O        0.66349    0.11283    0.01973    1.000
    O13      O        0.85724    0.11281    0.93659    1.000
    C1       C        0.76029    0.76015    0.80232    1.000
    C2       C        0.76030    0.76018    0.72709    1.000
    C3       C        0.86105    0.86123    0.69175    1.000
    C4       C        0.86107    0.86123    0.62106    1.000
    C5       C        0.76034    0.76019    0.58571    1.000
    C6       C        0.65959    0.65912    0.62105    1.000
    C7       C        0.65958    0.65912    0.69173    1.000
    C8       C        0.65964    0.65916    0.33597    1.000
    C9       C        0.65966    0.65918    0.26528    1.000
    C10      C        0.86114    0.86128    0.26530    1.000
    C11      C        0.86112    0.86127    0.33599    1.000
    C12      C        0.76038    0.76020    0.37132    1.000
    C13      C        0.76036    0.76019    0.44797    1.000
    C14      C        0.76035    0.76020    0.50906    1.000
    C15      C        0.35046    0.76021    0.97818    1.000
    C16      C        0.17182    0.76020    0.97817    1.000
    C17      C        0.76036    0.17006    0.97817    1.000
    C18      C        0.76034    0.34871    0.97818    1.000
    C19      C        0.76039    0.76021    0.15472    1.000
    C20      C        0.76041    0.76023    0.22995    1.000
    H1       H        0.57755    0.57682    0.72050    1.000
    F1       F        0.96825    0.96878    0.72937    1.000
    F2       F        0.96836    0.96884    0.22770    1.000
    F3       F        0.55243    0.55159    0.37357    1.000
    F4       F        0.55240    0.55158    0.58342    1.000
    F5       F        0.96830    0.96879    0.58346    1.000
    H2       H        0.57763    0.57689    0.23650    1.000
    F6       F        0.96833    0.96882    0.37362    1.000
