data_functionalizedCrystal
_audit_creation_method	'EQeq! by Chris Wilmer'
_symmetry_space_group_name_H-M	'P1'
_symmetry_Int_Tables_number	1
_symmetry_cell_setting	triclinic
loop_
_symmetry_equiv_pos_as_xyz
  x,y,z
_cell_length_a	20.3837
_cell_length_b	20.3837
_cell_length_c	14.0079
_cell_angle_alpha	90
_cell_angle_beta	90
_cell_angle_gamma	90
loop_
_atom_site_label
_atom_site_type_symbol
_atom_site_fract_x
_atom_site_fract_y
_atom_site_fract_z
_atom_site_charge
Mof_N 	N 	0.4758	0.3445	0.0752	-0.322
Mof_N 	N 	0.5974	0.4816	0.1942	-0.136
Mof_C 	C 	0.4835	0.3976	0.0488	-0.173
Mof_C 	C 	0.5651	0.4879	0.1291	-0.176
Mof_N 	N 	0.9758	0.8445	0.5752	-0.321
Mof_N 	N 	0.0974	0.9816	0.6942	-0.137
Mof_C 	C 	0.9835	0.8976	0.5488	-0.071
Mof_C 	C 	0.0651	0.9879	0.6291	-0.117
Mof_N 	N 	0.0242	0.1555	0.5752	-0.333
Mof_N 	N 	0.9026	0.0184	0.6942	-0.143
Mof_C 	C 	0.0165	0.1024	0.5488	-0.165
Mof_C 	C 	0.9349	0.0121	0.6291	-0.14
Mof_N 	N 	0.5242	0.6555	0.0752	-0.319
Mof_N 	N 	0.4026	0.5184	0.1942	-0.139
Mof_C 	C 	0.5165	0.6024	0.0488	-0.17
Mof_C 	C 	0.4349	0.5121	0.1291	-0.178
Mof_N 	N 	0.6555	0.9758	0.3252	-0.315
Mof_N 	N 	0.5184	0.0974	0.4442	-0.14
Mof_C 	C 	0.6024	0.9835	0.2988	-0.112
Mof_C 	C 	0.5121	0.0651	0.3791	-0.183
Mof_N 	N 	0.1555	0.4758	0.8252	-0.319
Mof_N 	N 	0.0184	0.5974	0.9442	-0.135
Mof_C 	C 	0.1024	0.4835	0.7988	-0.157
Mof_C 	C 	0.0121	0.5651	0.8791	-0.19
Mof_N 	N 	0.8445	0.5242	0.8252	-0.315
Mof_N 	N 	0.9816	0.4026	0.9442	-0.125
Mof_C 	C 	0.8976	0.5165	0.7988	-0.124
Mof_C 	C 	0.9879	0.4349	0.8791	-0.117
Mof_N 	N 	0.3445	0.0242	0.3252	-0.328
Mof_N 	N 	0.4816	0.9026	0.4442	-0.132
Mof_C 	C 	0.3976	0.0165	0.2988	-0.178
Mof_C 	C 	0.4879	0.9349	0.3791	-0.132
Mof_N 	N 	0.0242	0.3445	0.6748	-0.326
Mof_N 	N 	0.9026	0.4816	0.5558	-0.135
Mof_C 	C 	0.0165	0.3976	0.7012	-0.175
Mof_C 	C 	0.9349	0.4879	0.6209	-0.133
Mof_N 	N 	0.5242	0.8445	0.1748	-0.322
Mof_N 	N 	0.4026	0.9816	0.0558	-0.139
Mof_C 	C 	0.5165	0.8976	0.2012	-0.13
Mof_C 	C 	0.4349	0.9879	0.1209	-0.125
Mof_N 	N 	0.4758	0.1555	0.1748	-0.325
Mof_N 	N 	0.5974	0.0184	0.0558	-0.15
Mof_C 	C 	0.4835	0.1024	0.2012	-0.163
Mof_C 	C 	0.5651	0.0121	0.1209	-0.198
Mof_N 	N 	0.9758	0.6555	0.6748	-0.313
Mof_N 	N 	0.0974	0.5184	0.5558	-0.143
Mof_C 	C 	0.9835	0.6024	0.7012	-0.11
Mof_C 	C 	0.0651	0.5121	0.6209	-0.184
Mof_N 	N 	0.8445	0.9758	0.4248	-0.323
Mof_N 	N 	0.9816	0.0974	0.3058	-0.146
Mof_C 	C 	0.8976	0.9835	0.4512	-0.073
Mof_C 	C 	0.9879	0.0651	0.3709	-0.121
Mof_N 	N 	0.3445	0.4758	0.9248	-0.318
Mof_N 	N 	0.4816	0.5974	0.8058	-0.133
Mof_C 	C 	0.3976	0.4835	0.9512	-0.13
Mof_C 	C 	0.4879	0.5651	0.8709	-0.15
Mof_N 	N 	0.6555	0.5242	0.9248	-0.314
Mof_N 	N 	0.5184	0.4026	0.8058	-0.136
Mof_C 	C 	0.6024	0.5165	0.9512	-0.127
Mof_C 	C 	0.5121	0.4349	0.8709	-0.152
Mof_N 	N 	0.1555	0.0242	0.4248	-0.334
Mof_N 	N 	0.0184	0.9026	0.3058	-0.152
Mof_C 	C 	0.1024	0.0165	0.4512	-0.166
Mof_C 	C 	0.0121	0.9349	0.3709	-0.144
Mof_Nb	Nb	0.5	0.5	-0	0.94
Mof_Nb	Nb	1.28831e-33	0	0.5	0.747
Mof_Nb	Nb	0.5	0	0.25	0.902
Mof_Nb	Nb	1.93247e-33	0.5	0.75	0.903
Mof_Zn	Zn	0.47759	0.25	0.125	1.061
Mof_Zn	Zn	0.97759	0.75	0.625	1.079
Mof_Zn	Zn	0.02241	0.25	0.625	1.057
Mof_Zn	Zn	0.52241	0.75	0.125	1.066
Mof_Zn	Zn	0.75	0.97759	0.375	1.078
Mof_Zn	Zn	0.25	0.47759	0.875	1.069
Mof_Zn	Zn	0.75	0.52241	0.875	1.074
Mof_Zn	Zn	0.25	0.02241	0.375	1.056
_end
