data_functionalizedCrystal
_audit_creation_method	'EQeq! by Chris Wilmer'
_symmetry_space_group_name_H-M	'P1'
_symmetry_Int_Tables_number	1
_symmetry_cell_setting	triclinic
loop_
_symmetry_equiv_pos_as_xyz
  x,y,z
_cell_length_a	14.86
_cell_length_b	14.86
_cell_length_c	25.483
_cell_angle_alpha	80.8519
_cell_angle_beta	80.8519
_cell_angle_gamma	77.5623
loop_
_atom_site_label
_atom_site_type_symbol
_atom_site_fract_x
_atom_site_fract_y
_atom_site_fract_z
_atom_site_charge
Mof_Zn	Zn	0.26593	0.91067	0.07913	1.245
Mof_Zn	Zn	0.12691	0.47841	0.00712	1.229
Mof_Zn	Zn	0.08933	0.73407	0.42087	1.245
Mof_Zn	Zn	0.52159	0.87309	0.49288	1.229
Mof_Zn	Zn	0.73407	0.08933	0.92087	1.244
Mof_Zn	Zn	0.87309	0.52159	0.99288	1.228
Mof_Zn	Zn	0.91067	0.26593	0.57913	1.244
Mof_Zn	Zn	0.47841	0.12691	0.50712	1.228
Mof_Zn	Zn	0.36275	0.63725	0.75	1.237
Mof_Zn	Zn	0.63725	0.36275	0.25	1.237
Mof_Si	Si	0.24772	0.16608	0.81216	0.871
Mof_Si	Si	0.83392	0.75228	0.68784	0.87
Mof_Si	Si	0.75228	0.83392	0.18784	0.871
Mof_Si	Si	0.16608	0.24772	0.31216	0.87
Mof_H 	H 	0.2682	0.055	0.915	-0.024
Mof_H 	H 	0.2876	0.9862	0.7665	-0.023
Mof_H 	H 	0.3377	0.7877	0.8905	0.016
Mof_H 	H 	0.1737	0.3141	0.8833	-0.034
Mof_H 	H 	0.0697	0.1165	0.8369	-0.028
Mof_H 	H 	0.9118	0.2822	0.9389	0.019
Mof_H 	H 	0.5272	0.3314	0.8563	0.023
Mof_H 	H 	0.2943	0.3533	0.792	-0.028
Mof_H 	H 	0.4168	0.1074	0.8616	-0.027
Mof_H 	H 	0.2067	0.1855	0.5956	0.018
Mof_H 	H 	0.0921	0.2139	0.7473	-0.012
Mof_H 	H 	0.3683	0.1525	0.711	-0.024
Mof_H 	H 	0.945	0.7318	0.585	-0.024
Mof_H 	H 	0.0138	0.7124	0.7335	-0.023
Mof_H 	H 	0.2123	0.6623	0.6095	0.016
Mof_H 	H 	0.6859	0.8263	0.6167	-0.034
Mof_H 	H 	0.8835	0.9303	0.6631	-0.028
Mof_H 	H 	0.7178	0.0882	0.5611	0.019
Mof_H 	H 	0.6686	0.4728	0.6437	0.023
Mof_H 	H 	0.6467	0.7057	0.708	-0.029
Mof_H 	H 	0.8926	0.5832	0.6384	-0.027
Mof_H 	H 	0.8145	0.7933	0.9044	0.018
Mof_H 	H 	0.7861	0.9079	0.7527	-0.012
Mof_H 	H 	0.8475	0.6317	0.789	-0.024
Mof_H 	H 	0.7318	0.945	0.085	-0.024
Mof_H 	H 	0.7124	0.0138	0.2335	-0.023
Mof_H 	H 	0.6623	0.2123	0.1095	0.016
Mof_H 	H 	0.8263	0.6859	0.1167	-0.034
Mof_H 	H 	0.9303	0.8835	0.1631	-0.028
Mof_H 	H 	0.0882	0.7178	0.0611	0.019
Mof_H 	H 	0.4728	0.6686	0.1437	0.023
Mof_H 	H 	0.7057	0.6467	0.208	-0.028
Mof_H 	H 	0.5832	0.8926	0.1384	-0.027
Mof_H 	H 	0.7933	0.8145	0.4044	0.018
Mof_H 	H 	0.9079	0.7861	0.2527	-0.012
Mof_H 	H 	0.6317	0.8475	0.289	-0.024
Mof_H 	H 	0.055	0.2682	0.415	-0.024
Mof_H 	H 	0.9862	0.2876	0.2665	-0.023
Mof_H 	H 	0.7877	0.3377	0.3905	0.016
Mof_H 	H 	0.3141	0.1737	0.3833	-0.034
Mof_H 	H 	0.1165	0.0697	0.3369	-0.028
Mof_H 	H 	0.2822	0.9118	0.4389	0.019
Mof_H 	H 	0.3314	0.5272	0.3563	0.023
Mof_H 	H 	0.3533	0.2943	0.292	-0.029
Mof_H 	H 	0.1074	0.4168	0.3616	-0.027
Mof_H 	H 	0.1855	0.2067	0.0956	0.018
Mof_H 	H 	0.2139	0.0921	0.2473	-0.012
Mof_H 	H 	0.1525	0.3683	0.211	-0.024
Mof_C 	C 	0.3118	0.8888	0.9703	0.359
Mof_C 	C 	0.3057	0.9169	0.91199	-0.176
Mof_C 	C 	0.28135	0.01035	0.8917	0.155
Mof_C 	C 	0.27622	0.03882	0.83621	-0.331
Mof_C 	C 	0.29182	0.96962	0.80292	0.154
Mof_C 	C 	0.31355	0.87595	0.82346	-0.168
Mof_C 	C 	0.32149	0.85029	0.8773	0.101
Mof_C 	C 	0.32685	0.80405	0.7854	0.338
Mof_C 	C 	0.0315	0.3861	0.9501	0.414
Mof_C 	C 	0.0418	0.311	0.91659	-0.208
Mof_C 	C 	0.12497	0.28337	0.88454	0.194
Mof_C 	C 	0.13678	0.21118	0.85449	-0.351
Mof_C 	C 	0.0625	0.1655	0.85682	0.178
Mof_C 	C 	0.9791	0.1919	0.8881	-0.191
Mof_C 	C 	0.968	0.2642	0.9179	0.135
Mof_C 	C 	0.9013	0.1367	0.8898	0.444
Mof_C 	C 	0.5591	0.1515	0.8939	0.351
Mof_C 	C 	0.48453	0.20993	0.8632	-0.175
Mof_C 	C 	0.4811	0.3041	0.8484	0.115
Mof_C 	C 	0.40982	0.35762	0.82202	-0.187
Mof_C 	C 	0.34196	0.31676	0.81003	0.173
Mof_C 	C 	0.34288	0.22208	0.82424	-0.348
Mof_C 	C 	0.41503	0.17063	0.85124	0.167
Mof_C 	C 	0.4078	0.4608	0.8076	0.381
Mof_C 	C 	0.3866	0.1474	0.6071	0.334
Mof_C 	C 	0.3008	0.166	0.64713	-0.176
Mof_C 	C 	0.2133	0.1857	0.6313	0.093
Mof_C 	C 	0.1342	0.206	0.66871	-0.165
Mof_C 	C 	0.14478	0.20258	0.72234	0.148
Mof_C 	C 	0.23344	0.18224	0.7398	-0.34
Mof_C 	C 	0.309	0.1652	0.70082	0.156
Mof_C 	C 	0.0389	0.2311	0.6515	0.353
Mof_C 	C 	0.1112	0.6882	0.5297	0.36
Mof_C 	C 	0.0831	0.6943	0.58801	-0.176
Mof_C 	C 	0.98965	0.71865	0.6083	0.154
Mof_C 	C 	0.96118	0.72378	0.66379	-0.332
Mof_C 	C 	0.03038	0.70818	0.69708	0.155
Mof_C 	C 	0.12405	0.68645	0.67654	-0.168
Mof_C 	C 	0.14971	0.67851	0.6227	0.101
Mof_C 	C 	0.19595	0.67315	0.7146	0.338
Mof_C 	C 	0.6139	0.9685	0.5499	0.413
Mof_C 	C 	0.689	0.9582	0.58341	-0.208
Mof_C 	C 	0.71663	0.87503	0.61546	0.194
Mof_C 	C 	0.78882	0.86322	0.64551	-0.351
Mof_C 	C 	0.8345	0.9375	0.64318	0.178
Mof_C 	C 	0.8081	0.0209	0.6119	-0.191
Mof_C 	C 	0.7358	0.032	0.5821	0.136
Mof_C 	C 	0.8633	0.0987	0.6102	0.443
Mof_C 	C 	0.8485	0.4409	0.6061	0.351
Mof_C 	C 	0.79007	0.51547	0.6368	-0.175
Mof_C 	C 	0.6959	0.5189	0.6516	0.115
Mof_C 	C 	0.64238	0.59018	0.67798	-0.187
Mof_C 	C 	0.68324	0.65804	0.68997	0.173
Mof_C 	C 	0.77792	0.65712	0.67576	-0.348
Mof_C 	C 	0.82937	0.58497	0.64876	0.167
Mof_C 	C 	0.5392	0.5922	0.6924	0.381
Mof_C 	C 	0.8526	0.6134	0.8929	0.334
Mof_C 	C 	0.834	0.6992	0.85287	-0.176
Mof_C 	C 	0.8143	0.7867	0.8687	0.092
Mof_C 	C 	0.794	0.8658	0.83129	-0.164
Mof_C 	C 	0.79742	0.85522	0.77766	0.148
Mof_C 	C 	0.81776	0.76656	0.7602	-0.34
Mof_C 	C 	0.8348	0.691	0.79918	0.156
Mof_C 	C 	0.7689	0.9611	0.8485	0.352
Mof_C 	C 	0.6882	0.1112	0.0297	0.359
Mof_C 	C 	0.6943	0.0831	0.08801	-0.176
Mof_C 	C 	0.71865	0.98965	0.1083	0.155
Mof_C 	C 	0.72378	0.96118	0.16379	-0.331
Mof_C 	C 	0.70818	0.03038	0.19708	0.154
Mof_C 	C 	0.68645	0.12405	0.17654	-0.168
Mof_C 	C 	0.67851	0.14971	0.1227	0.101
Mof_C 	C 	0.67315	0.19595	0.2146	0.338
Mof_C 	C 	0.9685	0.6139	0.0499	0.414
Mof_C 	C 	0.9582	0.689	0.08341	-0.208
Mof_C 	C 	0.87503	0.71663	0.11546	0.194
Mof_C 	C 	0.86322	0.78882	0.14551	-0.351
Mof_C 	C 	0.9375	0.8345	0.14318	0.178
Mof_C 	C 	0.0209	0.8081	0.1119	-0.191
Mof_C 	C 	0.032	0.7358	0.0821	0.135
Mof_C 	C 	0.0987	0.8633	0.1102	0.444
Mof_C 	C 	0.4409	0.8485	0.1061	0.351
Mof_C 	C 	0.51547	0.79007	0.1368	-0.175
Mof_C 	C 	0.5189	0.6959	0.1516	0.115
Mof_C 	C 	0.59018	0.64238	0.17798	-0.187
Mof_C 	C 	0.65804	0.68324	0.18997	0.173
Mof_C 	C 	0.65712	0.77792	0.17576	-0.348
Mof_C 	C 	0.58497	0.82937	0.14876	0.167
Mof_C 	C 	0.5922	0.5392	0.1924	0.381
Mof_C 	C 	0.6134	0.8526	0.3929	0.334
Mof_C 	C 	0.6992	0.834	0.35287	-0.176
Mof_C 	C 	0.7867	0.8143	0.3687	0.093
Mof_C 	C 	0.8658	0.794	0.33129	-0.165
Mof_C 	C 	0.85522	0.79742	0.27766	0.148
Mof_C 	C 	0.76656	0.81776	0.2602	-0.34
Mof_C 	C 	0.691	0.8348	0.29918	0.156
Mof_C 	C 	0.9611	0.7689	0.3485	0.353
Mof_C 	C 	0.8888	0.3118	0.4703	0.36
Mof_C 	C 	0.9169	0.3057	0.41199	-0.176
Mof_C 	C 	0.01035	0.28135	0.3917	0.154
Mof_C 	C 	0.03882	0.27622	0.33621	-0.332
Mof_C 	C 	0.96962	0.29182	0.30292	0.155
Mof_C 	C 	0.87595	0.31355	0.32346	-0.168
Mof_C 	C 	0.85029	0.32149	0.3773	0.101
Mof_C 	C 	0.80405	0.32685	0.2854	0.338
Mof_C 	C 	0.3861	0.0315	0.4501	0.413
Mof_C 	C 	0.311	0.0418	0.41659	-0.208
Mof_C 	C 	0.28337	0.12497	0.38454	0.194
Mof_C 	C 	0.21118	0.13678	0.35449	-0.351
Mof_C 	C 	0.1655	0.0625	0.35682	0.178
Mof_C 	C 	0.1919	0.9791	0.3881	-0.191
Mof_C 	C 	0.2642	0.968	0.4179	0.136
Mof_C 	C 	0.1367	0.9013	0.3898	0.443
Mof_C 	C 	0.1515	0.5591	0.3939	0.351
Mof_C 	C 	0.20993	0.48453	0.3632	-0.175
Mof_C 	C 	0.3041	0.4811	0.3484	0.115
Mof_C 	C 	0.35762	0.40982	0.32202	-0.187
Mof_C 	C 	0.31676	0.34196	0.31003	0.173
Mof_C 	C 	0.22208	0.34288	0.32424	-0.348
Mof_C 	C 	0.17063	0.41503	0.35124	0.167
Mof_C 	C 	0.4608	0.4078	0.3076	0.381
Mof_C 	C 	0.1474	0.3866	0.1071	0.334
Mof_C 	C 	0.166	0.3008	0.14713	-0.176
Mof_C 	C 	0.1857	0.2133	0.1313	0.092
Mof_C 	C 	0.206	0.1342	0.16871	-0.164
Mof_C 	C 	0.20258	0.14478	0.22234	0.148
Mof_C 	C 	0.18224	0.23344	0.2398	-0.34
Mof_C 	C 	0.1652	0.309	0.20082	0.156
Mof_C 	C 	0.2311	0.0389	0.1515	0.352
Mof_O 	O 	0.28833	0.95261	0.00053	-0.431
Mof_O 	O 	0.33706	0.80606	0.98717	-0.3
Mof_O 	O 	0.34178	0.71832	0.80755	-0.429
Mof_O 	O 	0.32264	0.82792	0.73732	-0.323
Mof_O 	O 	0.09822	0.42822	0.94552	-0.487
Mof_O 	O 	0.95543	0.40353	0.9813	-0.498
Mof_O 	O 	0.82928	0.16508	0.91374	-0.477
Mof_O 	O 	0.9205	0.0673	0.8672	-0.33
Mof_O 	O 	0.97103	0.23823	0.68579	-0.282
Mof_O 	O 	0.03542	0.2435	0.6005	-0.434
Mof_O 	O 	0.37113	0.13333	0.56072	-0.465
Mof_O 	O 	0.4646	0.1458	0.61873	-0.308
Mof_O 	O 	0.35284	0.50548	0.77522	-0.443
Mof_O 	O 	0.45879	0.49619	0.8278	-0.319
Mof_O 	O 	0.63659	0.17743	0.88625	-0.423
Mof_O 	O 	0.53976	0.08236	0.92595	-0.313
Mof_O 	O 	0.2476	0.521	0.9826	-0.326
Mof_O 	O 	0.04739	0.71167	0.49947	-0.432
Mof_O 	O 	0.19394	0.66294	0.51283	-0.3
Mof_O 	O 	0.28168	0.65822	0.69245	-0.429
Mof_O 	O 	0.17208	0.67736	0.76268	-0.323
Mof_O 	O 	0.57178	0.90178	0.55448	-0.488
Mof_O 	O 	0.59647	0.04457	0.5187	-0.498
Mof_O 	O 	0.83492	0.17072	0.58626	-0.478
Mof_O 	O 	0.9327	0.0795	0.6328	-0.33
Mof_O 	O 	0.76177	0.02897	0.81421	-0.281
Mof_O 	O 	0.7565	0.96458	0.8995	-0.434
Mof_O 	O 	0.86667	0.62887	0.93928	-0.465
Mof_O 	O 	0.8542	0.5354	0.88127	-0.308
Mof_O 	O 	0.49452	0.64716	0.72478	-0.443
Mof_O 	O 	0.50381	0.54121	0.6722	-0.319
Mof_O 	O 	0.82257	0.36341	0.61375	-0.423
Mof_O 	O 	0.91764	0.46024	0.57405	-0.314
Mof_O 	O 	0.479	0.7524	0.5174	-0.326
Mof_O 	O 	0.71167	0.04739	0.99947	-0.431
Mof_O 	O 	0.66294	0.19394	0.01283	-0.3
Mof_O 	O 	0.65822	0.28168	0.19245	-0.429
Mof_O 	O 	0.67736	0.17208	0.26268	-0.323
Mof_O 	O 	0.90178	0.57178	0.05448	-0.487
Mof_O 	O 	0.04457	0.59647	0.0187	-0.498
Mof_O 	O 	0.17072	0.83492	0.08626	-0.477
Mof_O 	O 	0.0795	0.9327	0.1328	-0.33
Mof_O 	O 	0.02897	0.76177	0.31421	-0.282
Mof_O 	O 	0.96458	0.7565	0.3995	-0.434
Mof_O 	O 	0.62887	0.86667	0.43928	-0.465
Mof_O 	O 	0.5354	0.8542	0.38127	-0.308
Mof_O 	O 	0.64716	0.49452	0.22478	-0.443
Mof_O 	O 	0.54121	0.50381	0.1722	-0.319
Mof_O 	O 	0.36341	0.82257	0.11375	-0.423
Mof_O 	O 	0.46024	0.91764	0.07405	-0.313
Mof_O 	O 	0.7524	0.479	0.0174	-0.326
Mof_O 	O 	0.95261	0.28833	0.50053	-0.432
Mof_O 	O 	0.80606	0.33706	0.48717	-0.3
Mof_O 	O 	0.71832	0.34178	0.30755	-0.429
Mof_O 	O 	0.82792	0.32264	0.23732	-0.323
Mof_O 	O 	0.42822	0.09822	0.44552	-0.488
Mof_O 	O 	0.40353	0.95543	0.4813	-0.498
Mof_O 	O 	0.16508	0.82928	0.41374	-0.478
Mof_O 	O 	0.0673	0.9205	0.3672	-0.33
Mof_O 	O 	0.23823	0.97103	0.18579	-0.281
Mof_O 	O 	0.2435	0.03542	0.1005	-0.434
Mof_O 	O 	0.13333	0.37113	0.06072	-0.465
Mof_O 	O 	0.1458	0.4646	0.11873	-0.308
Mof_O 	O 	0.50548	0.35284	0.27522	-0.443
Mof_O 	O 	0.49619	0.45879	0.3278	-0.319
Mof_O 	O 	0.17743	0.63659	0.38625	-0.423
Mof_O 	O 	0.08236	0.53976	0.42595	-0.314
Mof_O 	O 	0.521	0.2476	0.4826	-0.326
Mof_H 	H 	0.3911	0.8859	0.6065	0.135
Mof_H 	H 	0.341	0.9548	0.6475	0.157
Mof_H 	H 	0.3123	0.9695	0.5897	0.15
Mof_H 	H 	0.1126	0.892	0.6791	0.168
Mof_H 	H 	0.1329	0.9817	0.6417	0.178
Mof_H 	H 	0.1687	0.9565	0.6978	0.174
Mof_H 	H 	0.2862	0.8188	0.6619	0.132
Mof_H 	H 	0.2523	0.8411	0.6099	0.117
Mof_C 	C 	0.333	0.924	0.6187	-0.349
Mof_C 	C 	0.1571	0.9317	0.6676	-0.423
Mof_N 	N 	0.2637	0.8657	0.6376	-0.162
Mof_H 	H 	0.4832	0.0938	0.0654	0.155
Mof_H 	H 	0.3942	0.1682	0.08	0.145
Mof_H 	H 	0.4695	0.1933	0.0326	0.148
Mof_H 	H 	0.2895	0.1679	0.9643	0.141
Mof_H 	H 	0.3478	0.2404	0.9714	0.14
Mof_H 	H 	0.2713	0.2133	0.0174	0.146
Mof_H 	H 	0.3611	0.0667	0.0309	0.118
Mof_H 	H 	0.4313	0.0895	0.9869	0.132
Mof_C 	C 	0.4384	0.1448	0.0512	-0.36
Mof_C 	C 	0.3179	0.1907	0.9894	-0.352
Mof_N 	N 	0.3895	0.1127	0.0134	-0.15
Mof_H 	H 	0.6468	0.5878	0.7982	0.156
Mof_H 	H 	0.6344	0.5166	0.85	0.168
Mof_H 	H 	0.6724	0.6062	0.8524	0.154
Mof_H 	H 	0.4394	0.6576	0.9133	0.166
Mof_H 	H 	0.541	0.6496	0.9257	0.149
Mof_H 	H 	0.5044	0.5598	0.922	0.166
Mof_H 	H 	0.4976	0.6092	0.833	0.124
Mof_H 	H 	0.533	0.6916	0.8366	0.101
Mof_C 	C 	0.6304	0.5812	0.8364	-0.38
Mof_C 	C 	0.5022	0.624	0.9078	-0.387
Mof_N 	N 	0.536	0.6312	0.8496	-0.13
Mof_H 	H 	0.1141	0.6089	0.8935	0.135
Mof_H 	H 	0.0452	0.659	0.8525	0.157
Mof_H 	H 	0.0305	0.6877	0.9103	0.15
Mof_H 	H 	0.108	0.8874	0.8209	0.168
Mof_H 	H 	0.0183	0.8671	0.8583	0.178
Mof_H 	H 	0.0435	0.8313	0.8022	0.174
Mof_H 	H 	0.1812	0.7138	0.8381	0.132
Mof_H 	H 	0.1589	0.7477	0.8901	0.117
Mof_C 	C 	0.076	0.667	0.8813	-0.35
Mof_C 	C 	0.0683	0.8429	0.8324	-0.423
Mof_N 	N 	0.1343	0.7363	0.8624	-0.162
Mof_H 	H 	0.9062	0.5168	0.4346	0.155
Mof_H 	H 	0.8318	0.6058	0.42	0.146
Mof_H 	H 	0.8067	0.5305	0.4674	0.148
Mof_H 	H 	0.8321	0.7105	0.5357	0.142
Mof_H 	H 	0.7596	0.6522	0.5286	0.141
Mof_H 	H 	0.7867	0.7287	0.4826	0.148
Mof_H 	H 	0.9333	0.6389	0.4691	0.118
Mof_H 	H 	0.9105	0.5687	0.5131	0.131
Mof_C 	C 	0.8552	0.5616	0.4488	-0.361
Mof_C 	C 	0.8093	0.6821	0.5106	-0.356
Mof_N 	N 	0.8873	0.6105	0.4866	-0.149
Mof_H 	H 	0.4122	0.3532	0.7018	0.156
Mof_H 	H 	0.4834	0.3656	0.65	0.168
Mof_H 	H 	0.3938	0.3276	0.6476	0.154
Mof_H 	H 	0.3424	0.5606	0.5867	0.165
Mof_H 	H 	0.3504	0.459	0.5743	0.149
Mof_H 	H 	0.4402	0.4956	0.578	0.166
Mof_H 	H 	0.3908	0.5024	0.667	0.124
Mof_H 	H 	0.3084	0.467	0.6634	0.101
Mof_C 	C 	0.4188	0.3696	0.6636	-0.38
Mof_C 	C 	0.376	0.4978	0.5922	-0.387
Mof_N 	N 	0.3688	0.464	0.6504	-0.13
Mof_H 	H 	0.6089	0.1141	0.3935	0.135
Mof_H 	H 	0.659	0.0452	0.3525	0.157
Mof_H 	H 	0.6877	0.0305	0.4103	0.15
Mof_H 	H 	0.8874	0.108	0.3209	0.168
Mof_H 	H 	0.8671	0.0183	0.3583	0.178
Mof_H 	H 	0.8313	0.0435	0.3022	0.174
Mof_H 	H 	0.7138	0.1812	0.3381	0.132
Mof_H 	H 	0.7477	0.1589	0.3901	0.117
Mof_C 	C 	0.667	0.076	0.3813	-0.349
Mof_C 	C 	0.8429	0.0683	0.3324	-0.423
Mof_N 	N 	0.7363	0.1343	0.3624	-0.162
Mof_H 	H 	0.5168	0.9062	0.9346	0.155
Mof_H 	H 	0.6058	0.8318	0.92	0.145
Mof_H 	H 	0.5305	0.8067	0.9674	0.148
Mof_H 	H 	0.7105	0.8321	0.0357	0.141
Mof_H 	H 	0.6522	0.7596	0.0286	0.14
Mof_H 	H 	0.7287	0.7867	0.9826	0.146
Mof_H 	H 	0.6389	0.9333	0.9691	0.118
Mof_H 	H 	0.5687	0.9105	0.0131	0.132
Mof_C 	C 	0.5616	0.8552	0.9488	-0.36
Mof_C 	C 	0.6821	0.8093	0.0106	-0.352
Mof_N 	N 	0.6105	0.8873	0.9866	-0.15
Mof_H 	H 	0.3532	0.4122	0.2018	0.156
Mof_H 	H 	0.3656	0.4834	0.15	0.168
Mof_H 	H 	0.3276	0.3938	0.1476	0.154
Mof_H 	H 	0.5606	0.3424	0.0867	0.166
Mof_H 	H 	0.459	0.3504	0.0743	0.149
Mof_H 	H 	0.4956	0.4402	0.078	0.166
Mof_H 	H 	0.5024	0.3908	0.167	0.124
Mof_H 	H 	0.467	0.3084	0.1634	0.101
Mof_C 	C 	0.3696	0.4188	0.1636	-0.38
Mof_C 	C 	0.4978	0.376	0.0922	-0.387
Mof_N 	N 	0.464	0.3688	0.1504	-0.13
Mof_H 	H 	0.8859	0.3911	0.1065	0.135
Mof_H 	H 	0.9548	0.341	0.1475	0.157
Mof_H 	H 	0.9695	0.3123	0.0897	0.15
Mof_H 	H 	0.892	0.1126	0.1791	0.168
Mof_H 	H 	0.9817	0.1329	0.1417	0.178
Mof_H 	H 	0.9565	0.1687	0.1978	0.174
Mof_H 	H 	0.8188	0.2862	0.1619	0.132
Mof_H 	H 	0.8411	0.2523	0.1099	0.117
Mof_C 	C 	0.924	0.333	0.1187	-0.35
Mof_C 	C 	0.9317	0.1571	0.1676	-0.423
Mof_N 	N 	0.8657	0.2637	0.1376	-0.162
Mof_H 	H 	0.0938	0.4832	0.5654	0.155
Mof_H 	H 	0.1682	0.3942	0.58	0.146
Mof_H 	H 	0.1933	0.4695	0.5326	0.148
Mof_H 	H 	0.1679	0.2895	0.4643	0.142
Mof_H 	H 	0.2404	0.3478	0.4714	0.141
Mof_H 	H 	0.2133	0.2713	0.5174	0.148
Mof_H 	H 	0.0667	0.3611	0.5309	0.118
Mof_H 	H 	0.0895	0.4313	0.4869	0.131
Mof_C 	C 	0.1448	0.4384	0.5512	-0.361
Mof_C 	C 	0.1907	0.3179	0.4894	-0.356
Mof_N 	N 	0.1127	0.3895	0.5134	-0.149
Mof_H 	H 	0.5878	0.6468	0.2982	0.156
Mof_H 	H 	0.5166	0.6344	0.35	0.168
Mof_H 	H 	0.6062	0.6724	0.3524	0.154
Mof_H 	H 	0.6576	0.4394	0.4133	0.165
Mof_H 	H 	0.6496	0.541	0.4257	0.149
Mof_H 	H 	0.5598	0.5044	0.422	0.166
Mof_H 	H 	0.6092	0.4976	0.333	0.124
Mof_H 	H 	0.6916	0.533	0.3366	0.101
Mof_C 	C 	0.5812	0.6304	0.3364	-0.38
Mof_C 	C 	0.624	0.5022	0.4078	-0.387
Mof_N 	N 	0.6312	0.536	0.3496	-0.13
_end
