data_functionalizedCrystal
_audit_creation_method	'EQeq! by Chris Wilmer'
_symmetry_space_group_name_H-M	'P1'
_symmetry_Int_Tables_number	1
_symmetry_cell_setting	triclinic
loop_
_symmetry_equiv_pos_as_xyz
  x,y,z
_cell_length_a	18.2519
_cell_length_b	18.2519
_cell_length_c	18.252
_cell_angle_alpha	60.0037
_cell_angle_beta	60.0037
_cell_angle_gamma	60.0005
loop_
_atom_site_label
_atom_site_type_symbol
_atom_site_fract_x
_atom_site_fract_y
_atom_site_fract_z
_atom_site_charge
Mof_Zn	Zn	0.88088	0.70652	0.20631	1.21
Mof_Zn	Zn	0.29348	0.11912	0.79369	1.21
Mof_Zn	Zn	0.11912	0.29348	0.79369	1.21
Mof_Zn	Zn	0.70652	0.88088	0.20631	1.21
Mof_Zn	Zn	0.70633	0.70633	0.3808	1.209
Mof_Zn	Zn	0.70645	0.70645	0.2061	1.208
Mof_Zn	Zn	0.29367	0.29367	0.6192	1.209
Mof_Zn	Zn	0.29355	0.29355	0.7939	1.208
Mof_H 	H 	0.5438	0.0638	0.3477	0.053
Mof_H 	H 	0.5407	0.8477	0.5616	0.053
Mof_H 	H 	0.5474	0.0618	0.0452	0.053
Mof_H 	H 	0.5469	0.8465	0.0399	0.05
Mof_H 	H 	0.0629	0.8471	0.047	0.053
Mof_H 	H 	0.9362	0.4562	0.6523	0.052
Mof_H 	H 	0.1523	0.4593	0.4384	0.052
Mof_H 	H 	0.9382	0.4526	0.9548	0.052
Mof_H 	H 	0.1535	0.4531	0.9601	0.049
Mof_H 	H 	0.1529	0.9371	0.953	0.053
Mof_H 	H 	0.4562	0.9362	0.6523	0.052
Mof_H 	H 	0.4593	0.1523	0.4384	0.052
Mof_H 	H 	0.4526	0.9382	0.9548	0.052
Mof_H 	H 	0.4531	0.1535	0.9601	0.049
Mof_H 	H 	0.9371	0.1529	0.953	0.053
Mof_H 	H 	0.0638	0.5438	0.3477	0.052
Mof_H 	H 	0.8477	0.5407	0.5616	0.052
Mof_H 	H 	0.0618	0.5474	0.0452	0.052
Mof_H 	H 	0.8465	0.5469	0.0399	0.049
Mof_H 	H 	0.8471	0.0629	0.047	0.053
Mof_H 	H 	0.5451	0.5451	0.347	0.047
Mof_H 	H 	0.5424	0.5424	0.5655	0.046
Mof_H 	H 	0.4549	0.4549	0.653	0.047
Mof_H 	H 	0.4576	0.4576	0.4345	0.046
Mof_C 	C 	0.6118	0.8906	0.3864	0.348
Mof_C 	C 	0.553	0.9476	0.4468	-0.069
Mof_C 	C 	0.5269	0.0373	0.41	-0.021
Mof_C 	C 	0.5251	0.9099	0.536	-0.02
Mof_C 	C 	0.6122	0.8894	0.1098	0.357
Mof_C 	C 	0.5563	0.9451	0.0529	-0.084
Mof_C 	C 	0.5285	0.0361	0.0277	-0.019
Mof_C 	C 	0.5281	0.9085	0.0243	-0.015
Mof_C 	C 	0.0366	0.9092	0.0275	-0.024
Mof_C 	C 	0.1094	0.3882	0.6136	0.348
Mof_C 	C 	0.0524	0.447	0.5532	-0.069
Mof_C 	C 	0.9627	0.4731	0.59	-0.021
Mof_C 	C 	0.0901	0.4749	0.464	-0.02
Mof_C 	C 	0.1106	0.3878	0.8902	0.357
Mof_C 	C 	0.0549	0.4437	0.9471	-0.084
Mof_C 	C 	0.9639	0.4715	0.9723	-0.019
Mof_C 	C 	0.0915	0.4719	0.9757	-0.015
Mof_C 	C 	0.0908	0.9634	0.9725	-0.024
Mof_C 	C 	0.3882	0.1094	0.6136	0.348
Mof_C 	C 	0.447	0.0524	0.5532	-0.069
Mof_C 	C 	0.4731	0.9627	0.59	-0.021
Mof_C 	C 	0.4749	0.0901	0.464	-0.02
Mof_C 	C 	0.3878	0.1106	0.8902	0.357
Mof_C 	C 	0.4437	0.0549	0.9471	-0.084
Mof_C 	C 	0.4715	0.9639	0.9723	-0.019
Mof_C 	C 	0.4719	0.0915	0.9757	-0.015
Mof_C 	C 	0.9634	0.0908	0.9725	-0.024
Mof_C 	C 	0.8906	0.6118	0.3864	0.348
Mof_C 	C 	0.9476	0.553	0.4468	-0.069
Mof_C 	C 	0.0373	0.5269	0.41	-0.021
Mof_C 	C 	0.9099	0.5251	0.536	-0.02
Mof_C 	C 	0.8894	0.6122	0.1098	0.357
Mof_C 	C 	0.9451	0.5563	0.0529	-0.084
Mof_C 	C 	0.0361	0.5285	0.0277	-0.019
Mof_C 	C 	0.9085	0.5281	0.0243	-0.015
Mof_C 	C 	0.9092	0.0366	0.0275	-0.024
Mof_C 	C 	0.6101	0.6101	0.393	0.403
Mof_C 	C 	0.554	0.554	0.446	-0.107
Mof_C 	C 	0.5274	0.5274	0.409	-0.006
Mof_C 	C 	0.525	0.525	0.538	-0.009
Mof_C 	C 	0.8865	0.8865	0.115	0.364
Mof_C 	C 	0.9467	0.9467	0.053	-0.063
Mof_C 	C 	0.3899	0.3899	0.607	0.403
Mof_C 	C 	0.446	0.446	0.554	-0.107
Mof_C 	C 	0.4726	0.4726	0.591	-0.006
Mof_C 	C 	0.475	0.475	0.462	-0.009
Mof_C 	C 	0.1135	0.1135	0.885	0.364
Mof_C 	C 	0.0533	0.0533	0.947	-0.063
Mof_O 	O 	0.6319	0.8049	0.4299	-0.486
Mof_O 	O 	0.6343	0.9311	0.3037	-0.496
Mof_O 	O 	0.6316	0.8038	0.1351	-0.495
Mof_O 	O 	0.6338	0.9296	0.1323	-0.496
Mof_O 	O 	0.9289	0.8035	0.1346	-0.506
Mof_O 	O 	0.1951	0.3681	0.5701	-0.486
Mof_O 	O 	0.0689	0.3657	0.6963	-0.496
Mof_O 	O 	0.1962	0.3684	0.8649	-0.495
Mof_O 	O 	0.0704	0.3662	0.8677	-0.496
Mof_O 	O 	0.1965	0.0711	0.8654	-0.506
Mof_O 	O 	0.3681	0.1951	0.5701	-0.486
Mof_O 	O 	0.3657	0.0689	0.6963	-0.496
Mof_O 	O 	0.3684	0.1962	0.8649	-0.495
Mof_O 	O 	0.3662	0.0704	0.8677	-0.496
Mof_O 	O 	0.0711	0.1965	0.8654	-0.506
Mof_O 	O 	0.8049	0.6319	0.4299	-0.486
Mof_O 	O 	0.9311	0.6343	0.3037	-0.496
Mof_O 	O 	0.8038	0.6316	0.1351	-0.495
Mof_O 	O 	0.9296	0.6338	0.1323	-0.496
Mof_O 	O 	0.8035	0.9289	0.1346	-0.506
Mof_O 	O 	0.7499	0.7499	0.2502	-0.963
Mof_O 	O 	0.6333	0.6333	0.4289	-0.52
Mof_O 	O 	0.6317	0.6317	0.3084	-0.495
Mof_O 	O 	0.2501	0.2501	0.7498	-0.963
Mof_O 	O 	0.3667	0.3667	0.5711	-0.52
Mof_O 	O 	0.3683	0.3683	0.6916	-0.495
_end
