data_functionalizedCrystal
_audit_creation_method	'EQeq! by Chris Wilmer'
_symmetry_space_group_name_H-M	'P1'
_symmetry_Int_Tables_number	1
_symmetry_cell_setting	triclinic
loop_
_symmetry_equiv_pos_as_xyz
  x,y,z
_cell_length_a	10.1298
_cell_length_b	17.0934
_cell_length_c	11.0846
_cell_angle_alpha	90
_cell_angle_beta	108.696
_cell_angle_gamma	90
loop_
_atom_site_label
_atom_site_type_symbol
_atom_site_fract_x
_atom_site_fract_y
_atom_site_fract_z
_atom_site_charge
Mof_Dy	Dy	0.00893	0.00405	0.68318	2.186
Mof_O 	O 	0.2262	0.98444	0.654	-0.49
Mof_O 	O 	0.8495	0.91264	0.7183	-0.326
Mof_O 	O 	0.2042	0.02421	0.8909	-0.264
Mof_O 	O 	0.3225	0.92667	0.9993	-0.104
Mof_N 	N 	0.2248	0.95184	0.9115	0.072
Mof_O 	O 	0.1365	0.90592	0.8365	-0.287
Mof_O 	O 	0.0658	0.13986	0.671	-0.454
Mof_O 	O 	0.2093	0.95172	0.4525	-0.495
Mof_O 	O 	0.0248	0.08484	0.4825	-0.606
Mof_N 	N 	0.712	0.92134	0.6853	-0.042
Mof_C 	C 	0.4279	0.94164	0.6132	-0.092
Mof_C 	C 	0.4894	0.90292	0.5348	-0.015
Mof_H 	H 	0.4341	0.8837	0.4564	0.056
Mof_C 	C 	0.6311	0.89272	0.572	0.014
Mof_H 	H 	0.6715	0.8662	0.5194	0.042
Mof_N 	N 	0.9449	0.36849	0.3794	-0.04
Mof_C 	C 	0.2746	0.95989	0.5697	0.459
Mof_O 	O 	0.9129	0.43929	0.3272	-0.323
Mof_C 	C 	0.6557	0.95746	0.7647	0.01
Mof_H 	H 	0.7129	0.9759	0.8429	0.072
Mof_C 	C 	0.8881	0.30413	0.3124	0.02
Mof_H 	H 	0.8273	0.3092	0.2298	0.049
Mof_C 	C 	0.5142	0.96714	0.7308	-0.011
Mof_H 	H 	0.4757	0.991	0.7871	0.074
Mof_C 	C 	0.9196	0.23151	0.3653	0.003
Mof_H 	H 	0.8819	0.1873	0.3179	0.045
Mof_C 	C 	0.0363	0.14507	0.552	0.416
Mof_C 	C 	0.0609	0.29111	0.5575	-0.018
Mof_H 	H 	0.1176	0.2876	0.6419	0.07
Mof_C 	C 	0.0301	0.36298	0.5006	0.037
Mof_H 	H 	0.068	0.408	0.5457	0.051
Mof_C 	C 	0.0078	0.22359	0.4899	-0.095
Mof_Dy	Dy	0.99107	0.50405	0.81682	2.178
Mof_O 	O 	0.7738	0.48444	0.846	-0.496
Mof_O 	O 	0.1505	0.41264	0.7817	-0.321
Mof_O 	O 	0.7958	0.52421	0.6091	-0.258
Mof_O 	O 	0.6775	0.42667	0.5007	-0.106
Mof_N 	N 	0.7752	0.45184	0.5885	0.068
Mof_O 	O 	0.8635	0.40592	0.6635	-0.294
Mof_O 	O 	0.9342	0.63986	0.829	-0.447
Mof_O 	O 	0.7907	0.45172	0.0475	-0.491
Mof_O 	O 	0.9752	0.58484	0.0175	-0.586
Mof_N 	N 	0.288	0.42134	0.8147	-0.043
Mof_C 	C 	0.5721	0.44164	0.8868	-0.088
Mof_C 	C 	0.5106	0.40292	0.9652	-0.025
Mof_H 	H 	0.5659	0.3837	0.0436	0.06
Mof_C 	C 	0.3689	0.39272	0.928	0.019
Mof_H 	H 	0.3285	0.3662	0.9806	0.041
Mof_N 	N 	0.0551	0.86849	0.1206	-0.047
Mof_C 	C 	0.7254	0.45989	0.9303	0.449
Mof_O 	O 	0.0871	0.93929	0.1728	-0.323
Mof_C 	C 	0.3443	0.45746	0.7353	0.012
Mof_H 	H 	0.2871	0.4759	0.6571	0.072
Mof_C 	C 	0.1119	0.80413	0.1876	0.038
Mof_H 	H 	0.1727	0.8092	0.2702	0.041
Mof_C 	C 	0.4858	0.46714	0.7692	-0.014
Mof_H 	H 	0.5243	0.491	0.7129	0.075
Mof_C 	C 	0.0804	0.73151	0.1347	-0.037
Mof_H 	H 	0.1181	0.6873	0.1821	0.055
Mof_C 	C 	0.9637	0.64507	0.948	0.385
Mof_C 	C 	0.9391	0.79111	0.9425	-0.053
Mof_H 	H 	0.8824	0.7876	0.8581	0.08
Mof_C 	C 	0.9699	0.86298	0.9994	0.049
Mof_H 	H 	0.932	0.908	0.9543	0.044
Mof_C 	C 	0.9922	0.72359	0.0101	-0.05
Mof_Dy	Dy	0.99107	0.99595	0.31682	2.185
Mof_O 	O 	0.7738	0.01556	0.346	-0.491
Mof_O 	O 	0.1505	0.08736	0.2817	-0.326
Mof_O 	O 	0.7958	0.97579	0.1091	-0.264
Mof_O 	O 	0.6775	0.07333	0.0007	-0.104
Mof_N 	N 	0.7752	0.04816	0.0885	0.072
Mof_O 	O 	0.8635	0.09408	0.1635	-0.287
Mof_O 	O 	0.9342	0.86014	0.329	-0.454
Mof_O 	O 	0.7907	0.04828	0.5475	-0.495
Mof_O 	O 	0.9752	0.91516	0.5175	-0.606
Mof_N 	N 	0.288	0.07866	0.3147	-0.042
Mof_C 	C 	0.5721	0.05836	0.3868	-0.092
Mof_C 	C 	0.5106	0.09708	0.4652	-0.015
Mof_H 	H 	0.5659	0.1163	0.5436	0.056
Mof_C 	C 	0.3689	0.10728	0.428	0.014
Mof_H 	H 	0.3285	0.1338	0.4806	0.042
Mof_N 	N 	0.0551	0.63151	0.6206	-0.04
Mof_C 	C 	0.7254	0.04011	0.4303	0.459
Mof_O 	O 	0.0871	0.56071	0.6728	-0.323
Mof_C 	C 	0.3443	0.04254	0.2353	0.01
Mof_H 	H 	0.2871	0.0241	0.1571	0.072
Mof_C 	C 	0.1119	0.69587	0.6876	0.02
Mof_H 	H 	0.1727	0.6908	0.7702	0.049
Mof_C 	C 	0.4858	0.03286	0.2692	-0.011
Mof_H 	H 	0.5243	0.009	0.2129	0.074
Mof_C 	C 	0.0804	0.76849	0.6347	0.003
Mof_H 	H 	0.1181	0.8127	0.6821	0.045
Mof_C 	C 	0.9637	0.85493	0.448	0.416
Mof_C 	C 	0.9391	0.70889	0.4425	-0.018
Mof_H 	H 	0.8824	0.7124	0.3581	0.07
Mof_C 	C 	0.9699	0.63702	0.4994	0.037
Mof_H 	H 	0.932	0.592	0.4543	0.051
Mof_C 	C 	0.9922	0.77641	0.5101	-0.095
Mof_Dy	Dy	0.00893	0.49595	0.18318	2.178
Mof_O 	O 	0.2262	0.51556	0.154	-0.496
Mof_O 	O 	0.8495	0.58736	0.2183	-0.321
Mof_O 	O 	0.2042	0.47579	0.3909	-0.258
Mof_O 	O 	0.3225	0.57333	0.4993	-0.106
Mof_N 	N 	0.2248	0.54816	0.4115	0.068
Mof_O 	O 	0.1365	0.59408	0.3365	-0.294
Mof_O 	O 	0.0658	0.36014	0.171	-0.447
Mof_O 	O 	0.2093	0.54828	0.9525	-0.491
Mof_O 	O 	0.0248	0.41516	0.9825	-0.586
Mof_N 	N 	0.712	0.57866	0.1853	-0.043
Mof_C 	C 	0.4279	0.55836	0.1132	-0.088
Mof_C 	C 	0.4894	0.59708	0.0348	-0.025
Mof_H 	H 	0.4341	0.6163	0.9564	0.06
Mof_C 	C 	0.6311	0.60728	0.072	0.019
Mof_H 	H 	0.6715	0.6338	0.0194	0.041
Mof_N 	N 	0.9449	0.13151	0.8794	-0.047
Mof_C 	C 	0.2746	0.54011	0.0697	0.449
Mof_O 	O 	0.9129	0.06071	0.8272	-0.323
Mof_C 	C 	0.6557	0.54254	0.2647	0.012
Mof_H 	H 	0.7129	0.5241	0.3429	0.072
Mof_C 	C 	0.8881	0.19587	0.8124	0.038
Mof_H 	H 	0.8273	0.1908	0.7298	0.041
Mof_C 	C 	0.5142	0.53286	0.2308	-0.014
Mof_H 	H 	0.4757	0.509	0.2871	0.075
Mof_C 	C 	0.9196	0.26849	0.8653	-0.037
Mof_H 	H 	0.8819	0.3127	0.8179	0.055
Mof_C 	C 	0.0363	0.35493	0.052	0.385
Mof_C 	C 	0.0609	0.20889	0.0575	-0.053
Mof_H 	H 	0.1176	0.2124	0.1419	0.08
Mof_C 	C 	0.0301	0.13702	0.0006	0.049
Mof_H 	H 	0.068	0.092	0.0457	0.044
Mof_C 	C 	0.0078	0.27641	0.9899	-0.05
_end
