# CIF file generated by openbabel 3.1.0, see https://openbabel.org
data_I
_chemical_name_common 'image0'
_cell_length_a 11.0031
_cell_length_b 11.2217
_cell_length_c 11.6959
_cell_angle_alpha 69.193
_cell_angle_beta 79.676
_cell_angle_gamma 81.008
_space_group_name_H-M_alt 'P 1'
_space_group_name_Hall 'P 1'
loop_
    _symmetry_equiv_pos_as_xyz
    x,y,z
loop_
    _atom_site_label
    _atom_site_type_symbol
    _atom_site_fract_x
    _atom_site_fract_y
    _atom_site_fract_z
    _atom_site_occupancy
    Ni1      Ni       0.98467    0.24530    0.23813    1.000
    Ni2      Ni       0.86347    0.01760    0.50069    1.000
    Ni3      Ni       0.02843    0.57350    0.07488    1.000
    O1       O        0.01310    0.07090    0.37100    1.000
    H1       H        0.01950    0.01910    0.33160    1.000
    O2       O        0.94240    0.41650    0.10330    1.000
    H2       H        0.86530    0.43710    0.11950    1.000
    O3       O        0.82390    0.18830    0.20390    1.000
    O4       O        0.72680    0.09880    0.39790    1.000
    O5       O        0.20090    0.46880    0.09390    1.000
    O6       O        0.15190    0.29720    0.25850    1.000
    O7       O        0.13960    0.82180    0.45560    1.000
    O8       O        0.11580    0.66730    0.64050    1.000
    O9       O        0.90840    0.84450    0.87890    1.000
    O10      O        0.86440    0.68990    0.05710    1.000
    C1       C        0.72730    0.16150    0.28480    1.000
    C2       C        0.60020    0.21820    0.24740    1.000
    C3       C        0.54710    0.18730    0.15960    1.000
    C4       C        0.42970    0.24430    0.13500    1.000
    H3       H        0.39370    0.22450    0.07870    1.000
    C5       C        0.36220    0.33030    0.19050    1.000
    C6       C        0.22660    0.36600    0.18290    1.000
    C7       C        0.41730    0.35970    0.27830    1.000
    C8       C        0.53560    0.30480    0.29920    1.000
    H4       H        0.57390    0.32800    0.35170    1.000
    C9       C        0.34940    0.44600    0.34170    1.000
    C10      C        0.33680    0.41210    0.47080    1.000
    H5       H        0.37220    0.33240    0.51660    1.000
    C11      C        0.27500    0.49160    0.53050    1.000
    H6       H        0.26600    0.46460    0.61620    1.000
    C12      C        0.22300    0.61750    0.46270    1.000
    C13      C        0.15780    0.70350    0.52960    1.000
    C14      C        0.23870    0.65320    0.33290    1.000
    H7       H        0.20740    0.73440    0.28590    1.000
    C15      C        0.29960    0.56930    0.27550    1.000
    H8       H        0.30820    0.59490    0.18990    1.000
    C16      C        0.60850    0.08430    0.11200    1.000
    C17      C        0.64050    0.10040    0.98730    1.000
    H9       H        0.61360    0.17730    0.92970    1.000
    C18      C        0.70730    0.01120    0.94670    1.000
    H10      H        0.72300    0.02690    0.86210    1.000
    C19      C        0.75600    0.89280    0.02720    1.000
    C20      C        0.85080    0.80210    0.98390    1.000
    C21      C        0.72270    0.87090    0.15190    1.000
    H11      H        0.74560    0.79140    0.20820    1.000
    C22      C        0.65520    0.96610    0.19470    1.000
    H12      H        0.64050    0.95180    0.27910    1.000
    Ni4      Ni       0.01533    0.75470    0.76187    1.000
    Ni5      Ni       0.13653    0.98240    0.49931    1.000
    Ni6      Ni       0.97157    0.42650    0.92512    1.000
    O11      O        0.98690    0.92910    0.62900    1.000
    H13      H        0.98050    0.98090    0.66840    1.000
    O12      O        0.05760    0.58350    0.89670    1.000
    H14      H        0.13470    0.56290    0.88050    1.000
    O13      O        0.17610    0.81170    0.79610    1.000
    O14      O        0.27320    0.90120    0.60210    1.000
    O15      O        0.79910    0.53120    0.90610    1.000
    O16      O        0.84810    0.70280    0.74150    1.000
    O17      O        0.86040    0.17820    0.54440    1.000
    O18      O        0.88420    0.33270    0.35950    1.000
    O19      O        0.09160    0.15550    0.12110    1.000
    O20      O        0.13560    0.31010    0.94290    1.000
    C23      C        0.27270    0.83850    0.71520    1.000
    C24      C        0.39980    0.78180    0.75260    1.000
    C25      C        0.45290    0.81270    0.84040    1.000
    C26      C        0.57030    0.75570    0.86500    1.000
    H15      H        0.60630    0.77550    0.92130    1.000
    C27      C        0.63780    0.66970    0.80950    1.000
    C28      C        0.77340    0.63400    0.81710    1.000
    C29      C        0.58270    0.64030    0.72170    1.000
    C30      C        0.46440    0.69520    0.70080    1.000
    H16      H        0.42610    0.67200    0.64830    1.000
    C31      C        0.65060    0.55400    0.65830    1.000
    C32      C        0.66320    0.58790    0.52920    1.000
    H17      H        0.62780    0.66760    0.48340    1.000
    C33      C        0.72500    0.50840    0.46950    1.000
    H18      H        0.73400    0.53540    0.38380    1.000
    C34      C        0.77700    0.38250    0.53730    1.000
    C35      C        0.84220    0.29650    0.47040    1.000
    C36      C        0.76130    0.34680    0.66710    1.000
    H19      H        0.79260    0.26560    0.71410    1.000
    C37      C        0.70040    0.43070    0.72450    1.000
    H20      H        0.69180    0.40510    0.81010    1.000
    C38      C        0.39150    0.91570    0.88800    1.000
    C39      C        0.35950    0.89960    0.01270    1.000
    H21      H        0.38640    0.82270    0.07030    1.000
    C40      C        0.29270    0.98880    0.05330    1.000
    H22      H        0.27700    0.97310    0.13790    1.000
    C41      C        0.24400    0.10720    0.97280    1.000
    C42      C        0.14920    0.19790    0.01610    1.000
    C43      C        0.27730    0.12910    0.84810    1.000
    H23      H        0.25440    0.20860    0.79180    1.000
    C44      C        0.34480    0.03390    0.80530    1.000
    H24      H        0.35950    0.04820    0.72090    1.000
