data_functionalizedCrystal
_audit_creation_method	'EQeq! by Chris Wilmer'
_symmetry_space_group_name_H-M	'P1'
_symmetry_Int_Tables_number	1
_symmetry_cell_setting	triclinic
loop_
_symmetry_equiv_pos_as_xyz
  x,y,z
_cell_length_a	11.3407
_cell_length_b	9.7856
_cell_length_c	14.4334
_cell_angle_alpha	90
_cell_angle_beta	91.449
_cell_angle_gamma	90
loop_
_atom_site_label
_atom_site_type_symbol
_atom_site_fract_x
_atom_site_fract_y
_atom_site_fract_z
_atom_site_charge
Mof_Zn	Zn	0.24321	0.08135	0.3688	1.203
Mof_Zn	Zn	0.24008	0.39482	0.31394	1.249
Mof_O 	O 	0.3154	0.9735	0.47709	-0.521
Mof_C 	C 	0.2568	0.8945	0.5296	0.572
Mof_H 	H 	0.299	0.846	0.57	-0.118
Mof_O 	O 	0.1497	0.8873	0.53343	-0.435
Mof_O 	O 	0.1017	0.1573	0.44056	-0.633
Mof_C 	C 	0.0694	0.2807	0.4489	0.504
Mof_H 	H 	2.38268e-33	0.289	0.487	-0.117
Mof_O 	O 	0.1112	0.3806	0.40887	-0.477
Mof_O 	O 	0.1899	0.2027	0.2545	-0.607
Mof_C 	C 	0.169	0.1755	0.1697	0.472
Mof_H 	H 	0.136	0.25	0.129	-0.119
Mof_O 	O 	0.1852	0.0648	0.13054	-0.558
Mof_O 	O 	0.3461	0.2593	0.39118	-0.612
Mof_C 	C 	0.4241	0.2896	0.4521	0.535
Mof_H 	H 	0.431	0.385	0.455	-0.116
Mof_O 	O 	0.4816	0.21	0.50073	-0.479
Mof_O 	O 	0.1491	0.9189	0.30478	-0.506
Mof_C 	C 	0.0451	0.8741	0.3113	0.401
Mof_H 	H 	0.024	0.809	0.267	-0.098
Mof_O 	O 	0.9763	0.8991	0.3743	-0.305
Mof_O 	O 	0.37	0.9973	0.28065	-0.527
Mof_C 	C 	0.4803	0.9873	0.2878	0.504
Mof_H 	H 	0.517	0.966	0.231	-0.081
Mof_O 	O 	0.5406	0.9997	0.35956	-0.368
Mof_Zn	Zn	0.25679	0.58135	0.1312	1.24
Mof_Zn	Zn	0.25992	0.89482	0.18606	1.264
Mof_O 	O 	0.1846	0.4735	0.02291	-0.747
Mof_C 	C 	0.2432	0.3945	0.9704	0.833
Mof_H 	H 	0.201	0.346	0.93	-0.226
Mof_O 	O 	0.3503	0.3873	0.96657	-0.503
Mof_O 	O 	0.3983	0.6573	0.05944	-0.602
Mof_C 	C 	0.4306	0.7807	0.0511	0.485
Mof_H 	H 	0.5	0.789	0.013	-0.102
Mof_O 	O 	0.3888	0.8806	0.09113	-0.436
Mof_O 	O 	0.3101	0.7027	0.2455	-0.568
Mof_C 	C 	0.331	0.6755	0.3303	0.463
Mof_H 	H 	0.364	0.75	0.371	-0.08
Mof_O 	O 	0.3148	0.5648	0.36946	-0.444
Mof_O 	O 	0.1539	0.7593	0.10882	-0.533
Mof_C 	C 	0.0759	0.7896	0.0479	0.299
Mof_H 	H 	0.069	0.885	0.045	-0.045
Mof_O 	O 	0.0184	0.71	0.99927	-0.295
Mof_O 	O 	0.3509	0.4189	0.19522	-0.598
Mof_C 	C 	0.4549	0.3741	0.1887	0.542
Mof_H 	H 	0.476	0.309	0.233	-0.156
Mof_O 	O 	0.5237	0.3991	0.1257	-0.494
Mof_O 	O 	0.13	0.4973	0.21935	-0.528
Mof_C 	C 	0.0197	0.4873	0.2122	0.25
Mof_H 	H 	0.983	0.466	0.269	0.028
Mof_O 	O 	0.9594	0.4997	0.14044	-0.331
Mof_Zn	Zn	0.75679	0.91865	0.6312	1.289
Mof_Zn	Zn	0.75992	0.60518	0.68606	1.255
Mof_O 	O 	0.6846	0.0265	0.52291	-0.66
Mof_C 	C 	0.7432	0.1055	0.4704	0.6
Mof_H 	H 	0.701	0.154	0.43	-0.174
Mof_O 	O 	0.8503	0.1127	0.46657	-0.492
Mof_O 	O 	0.8983	0.8427	0.55944	-0.533
Mof_C 	C 	0.9306	0.7193	0.5511	0.591
Mof_H 	H 	-2.21872e-18	0.711	0.513	-0.156
Mof_O 	O 	0.8888	0.6194	0.59113	-0.453
Mof_O 	O 	0.8101	0.7973	0.7455	-0.523
Mof_C 	C 	0.831	0.8245	0.8303	0.455
Mof_H 	H 	0.864	0.75	0.871	-0.047
Mof_O 	O 	0.8148	0.9352	0.86946	-0.33
Mof_O 	O 	0.6539	0.7407	0.60882	-0.561
Mof_C 	C 	0.5759	0.7104	0.5479	0.538
Mof_H 	H 	0.569	0.615	0.545	-0.115
Mof_O 	O 	0.5184	0.79	0.49927	-0.423
Mof_O 	O 	0.8509	0.0811	0.69522	-0.644
Mof_C 	C 	0.9549	0.1259	0.6887	0.653
Mof_H 	H 	0.976	0.191	0.733	-0.157
Mof_O 	O 	0.0237	0.1009	0.6257	-0.568
Mof_O 	O 	0.63	0.0027	0.71935	-0.642
Mof_C 	C 	0.5197	0.0127	0.7122	0.541
Mof_H 	H 	0.483	0.034	0.769	-0.133
Mof_O 	O 	0.4594	0.0003	0.64044	-0.509
Mof_Zn	Zn	0.74321	0.41865	0.8688	1.25
Mof_Zn	Zn	0.74008	0.10518	0.81394	1.239
Mof_O 	O 	0.8154	0.5265	0.97709	-0.453
Mof_C 	C 	0.7568	0.6055	0.0296	0.372
Mof_H 	H 	0.799	0.654	0.07	-0.079
Mof_O 	O 	0.6497	0.6127	0.03343	-0.452
Mof_O 	O 	0.6017	0.3427	0.94056	-0.543
Mof_C 	C 	0.5694	0.2193	0.9489	0.488
Mof_H 	H 	0.5	0.211	0.987	-0.068
Mof_O 	O 	0.6112	0.1194	0.90887	-0.464
Mof_O 	O 	0.6899	0.2973	0.7545	-0.56
Mof_C 	C 	0.669	0.3245	0.6697	0.464
Mof_H 	H 	0.636	0.25	0.629	-0.08
Mof_O 	O 	0.6852	0.4352	0.63054	-0.437
Mof_O 	O 	0.8461	0.2407	0.89118	-0.63
Mof_C 	C 	0.9241	0.2104	0.9521	0.73
Mof_H 	H 	0.931	0.115	0.955	-0.176
Mof_O 	O 	0.9816	0.29	0.00073	-0.567
Mof_O 	O 	0.6491	0.5811	0.80478	-0.557
Mof_C 	C 	0.5451	0.6259	0.8113	0.513
Mof_H 	H 	0.524	0.691	0.767	-0.098
Mof_O 	O 	0.4763	0.6009	0.8743	-0.392
Mof_O 	O 	0.87	0.5027	0.78065	-0.629
Mof_C 	C 	0.9803	0.5127	0.7878	0.743
Mof_H 	H 	0.017	0.534	0.731	-0.215
Mof_O 	O 	0.0406	0.5003	0.85956	-0.515
Mof_Zn	Zn	0.5	0	0.5	1.218
Mof_Zn	Zn	3.94124e-33	0.5	-0	1.198
Mof_Zn	Zn	2.44628e-33	0	0.5	1.197
Mof_Zn	Zn	0.5	0.5	-0	1.222
_end
