data_functionalizedCrystal
_audit_creation_method	'EQeq! by Chris Wilmer'
_symmetry_space_group_name_H-M	'P1'
_symmetry_Int_Tables_number	1
_symmetry_cell_setting	triclinic
loop_
_symmetry_equiv_pos_as_xyz
  x,y,z
_cell_length_a	14.3816
_cell_length_b	14.3816
_cell_length_c	14.3816
_cell_angle_alpha	60
_cell_angle_beta	60
_cell_angle_gamma	60
loop_
_atom_site_label
_atom_site_type_symbol
_atom_site_fract_x
_atom_site_fract_y
_atom_site_fract_z
_atom_site_charge
Mof_Cd	Cd	0.068	0.644	0.644	0.472
Mof_Cd	Cd	0.644	0.644	0.644	0.607
Mof_Cd	Cd	0.32663	0.32663	0.02011	0.346
Mof_Cd	Cd	0.32663	0.02011	0.32663	0.346
Mof_Cd	Cd	0.644	0.644	0.068	0.472
Mof_Cd	Cd	0.32663	0.32663	0.32663	0.45
Mof_Cd	Cd	0.02011	0.32663	0.32663	0.346
Mof_Cd	Cd	0.75	0.75	0.75	0.718
Mof_Cd	Cd	0.644	0.068	0.644	0.472
Mof_H 	H 	0.2934	0.4818	0.4818	0
Mof_H 	H 	0.4818	0.743	0.2934	0
Mof_H 	H 	0.2934	0.743	0.4818	0
Mof_H 	H 	0.4818	0.4818	0.743	0.003
Mof_H 	H 	0.2934	0.4818	0.743	0
Mof_H 	H 	0.4818	0.4818	0.2934	0.001
Mof_H 	H 	0.4818	0.2934	0.743	0.001
Mof_H 	H 	0.743	0.2934	0.4818	0.001
Mof_H 	H 	0.743	0.4818	0.2934	0.001
Mof_H 	H 	0.4818	0.2934	0.4818	0.001
Mof_H 	H 	0.743	0.4818	0.4818	0.004
Mof_H 	H 	0.4818	0.743	0.4818	0.004
Mof_C 	C 	0.1063	0.4205	0.0527	-0.062
Mof_C 	C 	0.5337	0.9025	0.5337	0.514
Mof_C 	C 	0.0847	0.9811	0.4671	-0.003
Mof_C 	C 	0.9025	0.5337	0.0301	0.092
Mof_C 	C 	0.4205	0.4205	0.1063	-0.067
Mof_C 	C 	0.9025	0.5337	0.5337	0.514
Mof_C 	C 	0.9811	0.4671	0.4671	-0.246
Mof_C 	C 	0.0301	0.9025	0.5337	0.092
Mof_C 	C 	0.5337	0.0301	0.9025	0.092
Mof_C 	C 	0.4671	0.0847	0.4671	-0.088
Mof_C 	C 	0.4671	0.4671	0.9811	-0.246
Mof_C 	C 	0.4879	0.8009	0.4879	0.091
Mof_C 	C 	0.9811	0.4671	0.0847	-0.003
Mof_C 	C 	0.5891	0.9109	0.9109	1.05
Mof_C 	C 	0.9109	0.5891	0.9109	1.05
Mof_C 	C 	0.5891	0.5891	0.9109	1.121
Mof_C 	C 	0.2233	0.4879	0.8009	0.095
Mof_C 	C 	0.5337	0.5337	0.9025	0.514
Mof_C 	C 	0.0301	0.5337	0.5337	0.029
Mof_C 	C 	0.0847	0.4671	0.9811	-0.003
Mof_C 	C 	0.4205	0.0527	0.1063	-0.062
Mof_C 	C 	0.5337	0.5337	0.0301	0.029
Mof_C 	C 	0.9025	0.0301	0.5337	0.092
Mof_C 	C 	0.4879	0.2233	0.8009	0.095
Mof_C 	C 	0.8009	0.4879	0.2233	0.095
Mof_C 	C 	0.4671	0.0847	0.9811	-0.003
Mof_C 	C 	0.9109	0.9109	0.5891	1.05
Mof_C 	C 	0.5891	0.9109	0.5891	1.121
Mof_C 	C 	0.1063	0.0527	0.4205	-0.062
Mof_C 	C 	0.0847	0.4671	0.4671	-0.088
Mof_C 	C 	0.0301	0.5337	0.9025	0.092
Mof_C 	C 	0.8009	0.2233	0.4879	0.095
Mof_C 	C 	0.4205	0.1063	0.4205	-0.067
Mof_C 	C 	0.0527	0.4205	0.1063	-0.062
Mof_C 	C 	0.4879	0.4879	0.2233	0.079
Mof_C 	C 	0.0527	0.1063	0.4205	-0.062
Mof_C 	C 	0.4879	0.4879	0.8009	0.091
Mof_C 	C 	0.0527	0.4205	0.4205	0.204
Mof_C 	C 	0.2233	0.4879	0.4879	0.079
Mof_C 	C 	0.4879	0.2233	0.4879	0.079
Mof_C 	C 	0.8009	0.4879	0.4879	0.091
Mof_C 	C 	0.4879	0.8009	0.2233	0.095
Mof_C 	C 	0.5337	0.0301	0.5337	0.029
Mof_C 	C 	0.4671	0.4671	0.0847	-0.088
Mof_C 	C 	0.4205	0.0527	0.4205	0.204
Mof_C 	C 	0.4671	0.9811	0.4671	-0.246
Mof_C 	C 	0.9811	0.0847	0.4671	-0.003
Mof_C 	C 	0.2233	0.8009	0.4879	0.095
Mof_C 	C 	0.1063	0.4205	0.4205	-0.067
Mof_C 	C 	0.4671	0.9811	0.0847	-0.003
Mof_C 	C 	0.5337	0.9025	0.0301	0.092
Mof_C 	C 	0.4205	0.4205	0.0527	0.204
Mof_C 	C 	0.4205	0.1063	0.0527	-0.062
Mof_C 	C 	0.9109	0.5891	0.5891	1.121
Mof_N 	N 	0.1971	0.4371	0.9287	-0.3
Mof_N 	N 	0.5443	0.7939	0.1175	-0.097
Mof_N 	N 	0.5443	0.7939	0.5443	-0.103
Mof_N 	N 	0.5443	0.1175	0.7939	-0.097
Mof_N 	N 	0.5443	0.5443	0.7939	-0.103
Mof_N 	N 	0.4371	0.9287	0.1971	-0.3
Mof_N 	N 	0.4371	0.4371	0.1971	-0.307
Mof_N 	N 	0.7939	0.1175	0.5443	-0.097
Mof_N 	N 	0.4371	0.4371	0.9287	-0.25
Mof_N 	N 	0.1175	0.7939	0.5443	-0.097
Mof_N 	N 	0.9287	0.1971	0.4371	-0.3
Mof_N 	N 	0.7939	0.5443	0.5443	-0.103
Mof_N 	N 	0.1971	0.4371	0.4371	-0.307
Mof_N 	N 	0.5443	0.5443	0.1175	-0.087
Mof_N 	N 	0.7939	0.5443	0.1175	-0.097
Mof_N 	N 	0.4371	0.1971	0.9287	-0.3
Mof_N 	N 	0.1971	0.9287	0.4371	-0.3
Mof_N 	N 	0.4371	0.1971	0.4371	-0.307
Mof_N 	N 	0.9287	0.4371	0.4371	-0.25
Mof_N 	N 	0.1175	0.5443	0.7939	-0.097
Mof_N 	N 	0.5443	0.1175	0.5443	-0.087
Mof_N 	N 	0.4371	0.9287	0.4371	-0.25
Mof_N 	N 	0.9287	0.4371	0.1971	-0.3
Mof_N 	N 	0.1175	0.5443	0.5443	-0.087
Mof_O 	O 	0.8951	0.6453	0.8143	-0.193
Mof_O 	O 	0.5818	0.8472	0.9892	-0.534
Mof_O 	O 	0.3609	0.1391	0.3609	-0.267
Mof_O 	O 	0.9892	0.5818	0.5818	-0.55
Mof_O 	O 	0.5818	0.5818	0.9892	-0.55
Mof_O 	O 	0.8143	0.8951	0.6453	-0.193
Mof_O 	O 	0.8472	0.5818	0.5818	-0.871
Mof_O 	O 	0.9626	0.437	0.437	0.207
Mof_O 	O 	0.6453	0.6453	0.8143	-0.158
Mof_O 	O 	0.9626	0.437	0.1634	0.245
Mof_O 	O 	0.6453	0.6453	0.8951	-0.226
Mof_O 	O 	0.3609	0.3609	0.1391	-0.267
Mof_O 	O 	0.1634	0.437	0.9626	0.245
Mof_O 	O 	0.8143	0.6453	0.6453	-0.158
Mof_O 	O 	0.5818	0.9892	0.5818	-0.55
Mof_O 	O 	0.437	0.1634	0.437	0.23
Mof_O 	O 	0.8472	0.9892	0.5818	-0.534
Mof_O 	O 	0.437	0.1634	0.9626	0.245
Mof_O 	O 	0.1391	0.3609	0.1391	-0.206
Mof_O 	O 	0.8951	0.8143	0.6453	-0.193
Mof_O 	O 	0.9626	0.1634	0.437	0.245
Mof_O 	O 	0.9892	0.5818	0.8472	-0.534
Mof_O 	O 	0.9892	0.8472	0.5818	-0.534
Mof_O 	O 	0.6453	0.8143	0.8951	-0.193
Mof_O 	O 	0.6453	0.8951	0.8143	-0.193
Mof_O 	O 	0.8472	0.5818	0.9892	-0.534
Mof_O 	O 	0.1391	0.3609	0.3609	-0.267
Mof_O 	O 	0.1634	0.437	0.437	0.23
Mof_O 	O 	0.437	0.9626	0.437	0.207
Mof_O 	O 	0.437	0.9626	0.1634	0.245
Mof_O 	O 	0.8143	0.6453	0.8951	-0.193
Mof_O 	O 	0.437	0.437	0.9626	0.207
Mof_O 	O 	0.5818	0.8472	0.5818	-0.871
Mof_O 	O 	0.1391	0.1391	0.3609	-0.206
Mof_O 	O 	0.8951	0.6453	0.6453	-0.226
Mof_O 	O 	0.5818	0.5818	0.8472	-0.871
Mof_O 	O 	0.3609	0.1391	0.1391	-0.206
Mof_O 	O 	0.6453	0.8143	0.6453	-0.158
Mof_O 	O 	0.6453	0.8951	0.6453	-0.226
Mof_O 	O 	0.1634	0.9626	0.437	0.245
Mof_O 	O 	0.5818	0.9892	0.8472	-0.534
Mof_O 	O 	0.437	0.437	0.1634	0.23
_end
