# CIF file generated by openbabel 3.1.0, see https://openbabel.org
data_I
_chemical_name_common 'image0'
_cell_length_a 13.5674
_cell_length_b 10.7942
_cell_length_c 14.6837
_cell_angle_alpha 90
_cell_angle_beta 110.638
_cell_angle_gamma 90
_space_group_name_H-M_alt 'P 1'
_space_group_name_Hall 'P 1'
loop_
    _symmetry_equiv_pos_as_xyz
    x,y,z
loop_
    _atom_site_label
    _atom_site_type_symbol
    _atom_site_fract_x
    _atom_site_fract_y
    _atom_site_fract_z
    _atom_site_occupancy
    Co1      Co       0.40987    0.90280    0.46142    1.000
    Co2      Co       0.50402    0.01028    0.29222    1.000
    O1       O        0.30272    0.03092    0.37225    1.000
    O2       O        0.38901    0.13589    0.29179    1.000
    O3       O        0.38502    0.40408    0.23917    1.000
    O4       O        0.31160    0.28409    0.10882    1.000
    O5       O        0.62115    0.14649    0.34146    1.000
    O6       O        0.71514    0.15291    0.50127    1.000
    O7       O        0.63351    0.27700    0.15425    1.000
    O8       O        0.62934    0.39555    0.27859    1.000
    O9       O        0.53869    0.95877    0.43211    1.000
    C1       C        0.31196    0.11703    0.31935    1.000
    C2       C        0.22361    0.20968    0.28526    1.000
    C3       C        0.13904    0.19568    0.31758    1.000
    H1       H        0.13930    0.12970    0.35840    1.000
    C4       C        0.05451    0.27732    0.29057    1.000
    C5       C        0.05677    0.37567    0.22936    1.000
    H2       H        0.00130    0.43200    0.21020    1.000
    C6       C        0.14036    0.39052    0.19682    1.000
    H3       H        0.14010    0.45670    0.15620    1.000
    C7       C        0.22479    0.30800    0.22402    1.000
    C8       C        0.31508    0.33177    0.18769    1.000
    C9       C        0.96568    0.25856    0.32627    1.000
    C10      C        0.98246    0.20296    0.41656    1.000
    H4       H        0.05060    0.18220    0.45630    1.000
    C11      C        0.89899    0.17834    0.44764    1.000
    H5       H        0.91150    0.14110    0.50780    1.000
    C12      C        0.79664    0.20915    0.38914    1.000
    C13      C        0.77944    0.27047    0.30119    1.000
    C14      C        0.86273    0.29338    0.26935    1.000
    H6       H        0.85010    0.33220    0.20970    1.000
    C15      C        0.67124    0.31638    0.24022    1.000
    C16      C        0.70332    0.16615    0.41328    1.000
    Co3      Co       0.59012    0.40280    0.03858    1.000
    Co4      Co       0.49598    0.51028    0.20778    1.000
    O10      O        0.69728    0.53092    0.12775    1.000
    O11      O        0.61099    0.63589    0.20821    1.000
    O12      O        0.61498    0.90408    0.26083    1.000
    O13      O        0.68840    0.78409    0.39118    1.000
    O14      O        0.37885    0.64649    0.15854    1.000
    O15      O        0.28486    0.65291    0.99873    1.000
    O16      O        0.36649    0.77700    0.34575    1.000
    O17      O        0.37066    0.89555    0.22141    1.000
    O18      O        0.46131    0.45877    0.06789    1.000
    C17      C        0.68804    0.61703    0.18065    1.000
    C18      C        0.77639    0.70968    0.21474    1.000
    C19      C        0.86096    0.69568    0.18242    1.000
    H7       H        0.86070    0.62970    0.14160    1.000
    C20      C        0.94549    0.77732    0.20943    1.000
    C21      C        0.94323    0.87567    0.27064    1.000
    H8       H        0.99870    0.93200    0.28980    1.000
    C22      C        0.85964    0.89052    0.30318    1.000
    H9       H        0.85990    0.95670    0.34380    1.000
    C23      C        0.77521    0.80800    0.27598    1.000
    C24      C        0.68492    0.83177    0.31231    1.000
    C25      C        0.03432    0.75856    0.17373    1.000
    C26      C        0.01754    0.70296    0.08344    1.000
    H10      H        0.94940    0.68220    0.04370    1.000
    C27      C        0.10101    0.67834    0.05236    1.000
    H11      H        0.08850    0.64110    0.99220    1.000
    C28      C        0.20336    0.70915    0.11086    1.000
    C29      C        0.22056    0.77047    0.19881    1.000
    C30      C        0.13727    0.79338    0.23065    1.000
    H12      H        0.14990    0.83220    0.29030    1.000
    C31      C        0.32876    0.81638    0.25978    1.000
    C32      C        0.29668    0.66615    0.08672    1.000
    Co5      Co       0.59012    0.09720    0.53858    1.000
    Co6      Co       0.49598    0.98972    0.70778    1.000
    O19      O        0.69728    0.96908    0.62775    1.000
    O20      O        0.61099    0.86411    0.70821    1.000
    O21      O        0.61498    0.59592    0.76083    1.000
    O22      O        0.68840    0.71591    0.89118    1.000
    O23      O        0.37885    0.85351    0.65854    1.000
    O24      O        0.28486    0.84709    0.49873    1.000
    O25      O        0.36649    0.72300    0.84575    1.000
    O26      O        0.37066    0.60445    0.72141    1.000
    O27      O        0.46131    0.04123    0.56789    1.000
    C33      C        0.68804    0.88297    0.68065    1.000
    C34      C        0.77639    0.79032    0.71474    1.000
    C35      C        0.86096    0.80432    0.68242    1.000
    H13      H        0.86070    0.87030    0.64160    1.000
    C36      C        0.94549    0.72268    0.70943    1.000
    C37      C        0.94323    0.62433    0.77064    1.000
    H14      H        0.99870    0.56800    0.78980    1.000
    C38      C        0.85964    0.60948    0.80318    1.000
    H15      H        0.85990    0.54330    0.84380    1.000
    C39      C        0.77521    0.69200    0.77598    1.000
    C40      C        0.68492    0.66823    0.81231    1.000
    C41      C        0.03432    0.74144    0.67373    1.000
    C42      C        0.01754    0.79704    0.58344    1.000
    H16      H        0.94940    0.81780    0.54370    1.000
    C43      C        0.10101    0.82166    0.55236    1.000
    H17      H        0.08850    0.85890    0.49220    1.000
    C44      C        0.20336    0.79085    0.61086    1.000
    C45      C        0.22056    0.72953    0.69881    1.000
    C46      C        0.13727    0.70662    0.73065    1.000
    H18      H        0.14990    0.66780    0.79030    1.000
    C47      C        0.32876    0.68362    0.75978    1.000
    C48      C        0.29668    0.83385    0.58672    1.000
    Co7      Co       0.40987    0.59720    0.96142    1.000
    Co8      Co       0.50402    0.48972    0.79222    1.000
    O28      O        0.30272    0.46908    0.87225    1.000
    O29      O        0.38901    0.36411    0.79179    1.000
    O30      O        0.38502    0.09592    0.73917    1.000
    O31      O        0.31160    0.21591    0.60882    1.000
    O32      O        0.62115    0.35351    0.84146    1.000
    O33      O        0.71514    0.34709    0.00127    1.000
    O34      O        0.63351    0.22300    0.65425    1.000
    O35      O        0.62934    0.10445    0.77859    1.000
    O36      O        0.53869    0.54123    0.93211    1.000
    C49      C        0.31196    0.38297    0.81935    1.000
    C50      C        0.22361    0.29032    0.78526    1.000
    C51      C        0.13904    0.30432    0.81758    1.000
    H19      H        0.13930    0.37030    0.85840    1.000
    C52      C        0.05451    0.22268    0.79057    1.000
    C53      C        0.05677    0.12433    0.72936    1.000
    H20      H        0.00130    0.06800    0.71020    1.000
    C54      C        0.14036    0.10948    0.69682    1.000
    H21      H        0.14010    0.04330    0.65620    1.000
    C55      C        0.22479    0.19200    0.72402    1.000
    C56      C        0.31508    0.16823    0.68769    1.000
    C57      C        0.96568    0.24144    0.82627    1.000
    C58      C        0.98246    0.29704    0.91656    1.000
    H22      H        0.05060    0.31780    0.95630    1.000
    C59      C        0.89899    0.32166    0.94764    1.000
    H23      H        0.91150    0.35890    0.00780    1.000
    C60      C        0.79664    0.29085    0.88914    1.000
    C61      C        0.77944    0.22953    0.80119    1.000
    C62      C        0.86273    0.20662    0.76935    1.000
    H24      H        0.85010    0.16780    0.70970    1.000
    C63      C        0.67124    0.18362    0.74022    1.000
    C64      C        0.70332    0.33385    0.91328    1.000
