data_functionalizedCrystal
_audit_creation_method	'EQeq! by Chris Wilmer'
_symmetry_space_group_name_H-M	'P1'
_symmetry_Int_Tables_number	1
_symmetry_cell_setting	triclinic
loop_
_symmetry_equiv_pos_as_xyz
  x,y,z
_cell_length_a	28.368
_cell_length_b	28.368
_cell_length_c	33.958
_cell_angle_alpha	90
_cell_angle_beta	90
_cell_angle_gamma	90
loop_
_atom_site_label
_atom_site_type_symbol
_atom_site_fract_x
_atom_site_fract_y
_atom_site_fract_z
_atom_site_charge
Mof_Zn	Zn	0.83482	0.25312	0.16479	1.225
Mof_Zn	Zn	0.75271	0.17235	0.31354	1.191
Mof_N 	N 	0.8124	0.2043	0.301	-0.22
Mof_N 	N 	0.8558	0.1977	0.316	-0.089
Mof_N 	N 	0.8129	0.239	0.2738	-0.228
Mof_C 	C 	0.9575	0.203	0.3336	-0.116
Mof_H 	H 	0.9398	0.1819	0.3496	0.078
Mof_C 	C 	0.8843	0.228	0.2983	0.038
Mof_C 	C 	0.0055	0.2049	0.3374	0.057
Mof_H 	H 	0.0214	0.1851	0.3557	0.028
Mof_C 	C 	0.8586	0.2556	0.2701	-0.021
Mof_H 	H 	0.8702	0.2795	0.2531	0.023
Mof_C 	C 	0.9341	0.2317	0.3066	0.059
Mof_O 	O 	0.7883	0.9009	0.132	-0.331
Mof_O 	O 	0.1027	0.2101	0.3389	-0.387
Mof_C 	C 	0.0301	0.2358	0.3143	-0.134
Mof_C 	C 	0.7619	0.9235	0.1573	0.384
Mof_C 	C 	0.7999	0.0008	0.1474	0.059
Mof_H 	H 	0.825	0.9849	0.1345	0.022
Mof_C 	C 	0.9591	0.2616	0.2822	-0.12
Mof_H 	H 	0.9436	0.2807	0.2632	0.074
Mof_O 	O 	0.7373	0.899	0.1761	-0.507
Mof_C 	C 	0.8006	0.0489	0.1521	-0.123
Mof_H 	H 	0.8269	0.0661	0.1424	0.073
Mof_C 	C 	0.7621	0.9763	0.1617	-0.138
Mof_C 	C 	0.0076	0.2627	0.2864	0.057
Mof_H 	H 	0.0257	0.2826	0.2697	0.028
Mof_C 	C 	0.083	0.2395	0.3175	0.402
Mof_C 	C 	0.8065	0.1524	0.1588	0.02
Mof_H 	H 	0.8261	0.145	0.137	0.024
Mof_C 	C 	0.7645	0.0729	0.1704	0.068
Mof_N 	N 	0.8039	0.194	0.1767	-0.239
Mof_C 	C 	0.7747	0.121	0.1781	0.018
Mof_C 	C 	0.7246	0.9981	0.18	0.058
Mof_H 	H 	0.6984	0.9805	0.1893	0.022
Mof_O 	O 	0.1029	0.2683	0.3001	-0.465
Mof_C 	C 	0.7265	0.0467	0.1842	-0.118
Mof_H 	H 	0.7011	0.0625	0.1969	0.079
Mof_N 	N 	0.7702	0.1926	0.2027	-0.187
Mof_N 	N 	0.7538	0.1492	0.2049	-0.088
Mof_O 	O 	0.8178	0.267	0.1109	-0.559
Mof_N 	N 	0.7743	0.3083	0.8646	-0.213
Mof_C 	C 	0.822	0.2621	0.0292	0.115
Mof_H 	H 	0.8427	0.2418	0.0432	0.01
Mof_C 	C 	0.8197	0.2648	0.9007	0.028
Mof_H 	H 	0.7425	0.3425	0.9092	0.081
Mof_N 	N 	0.7648	0.3197	0.9007	-0.124
Mof_C 	C 	0.8211	0.262	0.9887	-0.151
Mof_H 	H 	0.8416	0.2414	0.9748	0.084
Mof_Zn	Zn	0.33482	0.75312	0.66479	1.226
Mof_Zn	Zn	0.25271	0.67235	0.81354	1.192
Mof_N 	N 	0.3124	0.7043	0.801	-0.219
Mof_N 	N 	0.3558	0.6977	0.816	-0.088
Mof_N 	N 	0.3129	0.739	0.7738	-0.227
Mof_C 	C 	0.4575	0.703	0.8336	-0.115
Mof_H 	H 	0.4398	0.6819	0.8496	0.079
Mof_C 	C 	0.3843	0.728	0.7983	0.039
Mof_C 	C 	0.5055	0.7049	0.8374	0.058
Mof_H 	H 	0.5214	0.6851	0.8557	0.029
Mof_C 	C 	0.3586	0.7556	0.7701	-0.02
Mof_H 	H 	0.3702	0.7795	0.7531	0.024
Mof_C 	C 	0.4341	0.7317	0.8066	0.06
Mof_O 	O 	0.2883	0.4009	0.632	-0.329
Mof_O 	O 	0.6027	0.7101	0.8389	-0.386
Mof_C 	C 	0.5301	0.7358	0.8143	-0.133
Mof_C 	C 	0.2619	0.4235	0.6573	0.385
Mof_C 	C 	0.2999	0.5008	0.6474	0.06
Mof_H 	H 	0.325	0.4849	0.6345	0.024
Mof_C 	C 	0.4591	0.7616	0.7822	-0.119
Mof_H 	H 	0.4436	0.7807	0.7632	0.075
Mof_O 	O 	0.2373	0.399	0.6761	-0.506
Mof_C 	C 	0.3006	0.5489	0.6521	-0.122
Mof_H 	H 	0.3269	0.5661	0.6424	0.074
Mof_C 	C 	0.2621	0.4763	0.6617	-0.136
Mof_C 	C 	0.5076	0.7627	0.7864	0.058
Mof_H 	H 	0.5257	0.7826	0.7697	0.029
Mof_C 	C 	0.583	0.7395	0.8175	0.403
Mof_C 	C 	0.3065	0.6524	0.6588	0.02
Mof_H 	H 	0.3261	0.645	0.637	0.024
Mof_C 	C 	0.2645	0.5729	0.6704	0.068
Mof_N 	N 	0.3039	0.694	0.6767	-0.239
Mof_C 	C 	0.2747	0.621	0.6781	0.018
Mof_C 	C 	0.2246	0.4981	0.68	0.058
Mof_H 	H 	0.1984	0.4805	0.6893	0.022
Mof_O 	O 	0.6029	0.7683	0.8001	-0.465
Mof_C 	C 	0.2265	0.5467	0.6842	-0.118
Mof_H 	H 	0.2011	0.5625	0.6969	0.079
Mof_N 	N 	0.2702	0.6926	0.7027	-0.187
Mof_N 	N 	0.2538	0.6492	0.7049	-0.088
Mof_O 	O 	0.3178	0.767	0.6109	-0.56
Mof_N 	N 	0.2743	0.8083	0.3646	-0.213
Mof_C 	C 	0.322	0.7621	0.5292	0.123
Mof_H 	H 	0.3427	0.7418	0.5432	0.008
Mof_C 	C 	0.3197	0.7648	0.4007	0.029
Mof_H 	H 	0.2425	0.8425	0.4092	0.081
Mof_N 	N 	0.2648	0.8197	0.4007	-0.123
Mof_C 	C 	0.3211	0.762	0.4887	-0.159
Mof_H 	H 	0.3416	0.7414	0.4748	0.086
Mof_Zn	Zn	0.16518	0.74688	0.16479	1.226
Mof_Zn	Zn	0.24729	0.82765	0.31354	1.192
Mof_N 	N 	0.1876	0.7957	0.301	-0.219
Mof_N 	N 	0.1442	0.8023	0.316	-0.088
Mof_N 	N 	0.1871	0.761	0.2738	-0.227
Mof_C 	C 	0.0425	0.797	0.3336	-0.115
Mof_H 	H 	0.0602	0.8181	0.3496	0.079
Mof_C 	C 	0.1157	0.772	0.2983	0.039
Mof_C 	C 	0.9945	0.7951	0.3374	0.058
Mof_H 	H 	0.9786	0.8149	0.3557	0.029
Mof_C 	C 	0.1414	0.7444	0.2701	-0.02
Mof_H 	H 	0.1298	0.7205	0.2531	0.024
Mof_C 	C 	0.0659	0.7683	0.3066	0.06
Mof_O 	O 	0.2117	0.0991	0.132	-0.33
Mof_O 	O 	0.8973	0.7899	0.3389	-0.386
Mof_C 	C 	0.9699	0.7642	0.3143	-0.133
Mof_C 	C 	0.2381	0.0765	0.1573	0.385
Mof_C 	C 	0.2001	0.9992	0.1474	0.06
Mof_H 	H 	0.175	0.0151	0.1345	0.023
Mof_C 	C 	0.0409	0.7384	0.2822	-0.119
Mof_H 	H 	0.0564	0.7193	0.2632	0.075
Mof_O 	O 	0.2627	0.101	0.1761	-0.506
Mof_C 	C 	0.1994	0.9511	0.1521	-0.122
Mof_H 	H 	0.1731	0.9339	0.1424	0.074
Mof_C 	C 	0.2379	0.0237	0.1617	-0.137
Mof_C 	C 	0.9924	0.7373	0.2864	0.058
Mof_H 	H 	0.9743	0.7174	0.2697	0.029
Mof_C 	C 	0.917	0.7605	0.3175	0.403
Mof_C 	C 	0.1935	0.8476	0.1588	0.02
Mof_H 	H 	0.1739	0.855	0.137	0.024
Mof_C 	C 	0.2355	0.9271	0.1704	0.068
Mof_N 	N 	0.1961	0.806	0.1767	-0.239
Mof_C 	C 	0.2253	0.879	0.1781	0.018
Mof_C 	C 	0.2754	0.0019	0.18	0.058
Mof_H 	H 	0.3016	0.0195	0.1893	0.022
Mof_O 	O 	0.8971	0.7317	0.3001	-0.465
Mof_C 	C 	0.2735	0.9533	0.1842	-0.118
Mof_H 	H 	0.2989	0.9375	0.1969	0.079
Mof_N 	N 	0.2298	0.8074	0.2027	-0.187
Mof_N 	N 	0.2462	0.8508	0.2049	-0.088
Mof_O 	O 	0.1822	0.733	0.1109	-0.559
Mof_N 	N 	0.2257	0.6917	0.8646	-0.213
Mof_C 	C 	0.178	0.7379	0.0292	0.115
Mof_H 	H 	0.1573	0.7582	0.0432	0.01
Mof_C 	C 	0.1803	0.7352	0.9007	0.028
Mof_H 	H 	0.2575	0.6575	0.9092	0.081
Mof_N 	N 	0.2352	0.6803	0.9007	-0.124
Mof_C 	C 	0.1789	0.738	0.9887	-0.151
Mof_H 	H 	0.1584	0.7586	0.9748	0.084
Mof_Zn	Zn	0.66518	0.24688	0.66479	1.226
Mof_Zn	Zn	0.74729	0.32765	0.81354	1.192
Mof_N 	N 	0.6876	0.2957	0.801	-0.219
Mof_N 	N 	0.6442	0.3023	0.816	-0.088
Mof_N 	N 	0.6871	0.261	0.7738	-0.227
Mof_C 	C 	0.5425	0.297	0.8336	-0.115
Mof_H 	H 	0.5602	0.3181	0.8496	0.079
Mof_C 	C 	0.6157	0.272	0.7983	0.039
Mof_C 	C 	0.4945	0.2951	0.8374	0.058
Mof_H 	H 	0.4786	0.3149	0.8557	0.029
Mof_C 	C 	0.6414	0.2444	0.7701	-0.02
Mof_H 	H 	0.6298	0.2205	0.7531	0.024
Mof_C 	C 	0.5659	0.2683	0.8066	0.06
Mof_O 	O 	0.7117	0.5991	0.632	-0.329
Mof_O 	O 	0.3973	0.2899	0.8389	-0.386
Mof_C 	C 	0.4699	0.2642	0.8143	-0.133
Mof_C 	C 	0.7381	0.5765	0.6573	0.385
Mof_C 	C 	0.7001	0.4992	0.6474	0.06
Mof_H 	H 	0.675	0.5151	0.6345	0.024
Mof_C 	C 	0.5409	0.2384	0.7822	-0.119
Mof_H 	H 	0.5564	0.2193	0.7632	0.075
Mof_O 	O 	0.7627	0.601	0.6761	-0.506
Mof_C 	C 	0.6994	0.4511	0.6521	-0.122
Mof_H 	H 	0.6731	0.4339	0.6424	0.074
Mof_C 	C 	0.7379	0.5237	0.6617	-0.136
Mof_C 	C 	0.4924	0.2373	0.7864	0.058
Mof_H 	H 	0.4743	0.2174	0.7697	0.029
Mof_C 	C 	0.417	0.2605	0.8175	0.403
Mof_C 	C 	0.6935	0.3476	0.6588	0.02
Mof_H 	H 	0.6739	0.355	0.637	0.024
Mof_C 	C 	0.7355	0.4271	0.6704	0.068
Mof_N 	N 	0.6961	0.306	0.6767	-0.239
Mof_C 	C 	0.7253	0.379	0.6781	0.018
Mof_C 	C 	0.7754	0.5019	0.68	0.058
Mof_H 	H 	0.8016	0.5195	0.6893	0.022
Mof_O 	O 	0.3971	0.2317	0.8001	-0.465
Mof_C 	C 	0.7735	0.4533	0.6842	-0.118
Mof_H 	H 	0.7989	0.4375	0.6969	0.079
Mof_N 	N 	0.7298	0.3074	0.7027	-0.187
Mof_N 	N 	0.7462	0.3508	0.7049	-0.088
Mof_O 	O 	0.6822	0.233	0.6109	-0.56
Mof_N 	N 	0.7257	0.1917	0.3646	-0.213
Mof_C 	C 	0.678	0.2379	0.5292	0.123
Mof_H 	H 	0.6573	0.2582	0.5432	0.008
Mof_C 	C 	0.6803	0.2352	0.4007	0.029
Mof_H 	H 	0.7575	0.1575	0.4092	0.081
Mof_N 	N 	0.7352	0.1803	0.4007	-0.123
Mof_C 	C 	0.6789	0.238	0.4887	-0.159
Mof_H 	H 	0.6584	0.2586	0.4748	0.086
Mof_Zn	Zn	0.74688	0.83482	0.16479	1.226
Mof_Zn	Zn	0.82765	0.75271	0.31354	1.192
Mof_N 	N 	0.7957	0.8124	0.301	-0.219
Mof_N 	N 	0.8023	0.8558	0.316	-0.088
Mof_N 	N 	0.761	0.8129	0.2738	-0.227
Mof_C 	C 	0.797	0.9575	0.3336	-0.115
Mof_H 	H 	0.8181	0.9398	0.3496	0.079
Mof_C 	C 	0.772	0.8843	0.2983	0.039
Mof_C 	C 	0.7951	0.0055	0.3374	0.058
Mof_H 	H 	0.8149	0.0214	0.3557	0.029
Mof_C 	C 	0.7444	0.8586	0.2701	-0.02
Mof_H 	H 	0.7205	0.8702	0.2531	0.024
Mof_C 	C 	0.7683	0.9341	0.3066	0.06
Mof_O 	O 	0.0991	0.7883	0.132	-0.33
Mof_O 	O 	0.7899	0.1027	0.3389	-0.386
Mof_C 	C 	0.7642	0.0301	0.3143	-0.133
Mof_C 	C 	0.0765	0.7619	0.1573	0.385
Mof_C 	C 	0.9992	0.7999	0.1474	0.06
Mof_H 	H 	0.0151	0.825	0.1345	0.023
Mof_C 	C 	0.7384	0.9591	0.2822	-0.119
Mof_H 	H 	0.7193	0.9436	0.2632	0.075
Mof_O 	O 	0.101	0.7373	0.1761	-0.506
Mof_C 	C 	0.9511	0.8006	0.1521	-0.122
Mof_H 	H 	0.9339	0.8269	0.1424	0.074
Mof_C 	C 	0.0237	0.7621	0.1617	-0.137
Mof_C 	C 	0.7373	0.0076	0.2864	0.058
Mof_H 	H 	0.7174	0.0257	0.2697	0.029
Mof_C 	C 	0.7605	0.083	0.3175	0.403
Mof_C 	C 	0.8476	0.8065	0.1588	0.02
Mof_H 	H 	0.855	0.8261	0.137	0.024
Mof_C 	C 	0.9271	0.7645	0.1704	0.068
Mof_N 	N 	0.806	0.8039	0.1767	-0.239
Mof_C 	C 	0.879	0.7747	0.1781	0.018
Mof_C 	C 	0.0019	0.7246	0.18	0.058
Mof_H 	H 	0.0195	0.6984	0.1893	0.022
Mof_O 	O 	0.7317	0.1029	0.3001	-0.465
Mof_C 	C 	0.9533	0.7265	0.1842	-0.118
Mof_H 	H 	0.9375	0.7011	0.1969	0.079
Mof_N 	N 	0.8074	0.7702	0.2027	-0.187
Mof_N 	N 	0.8508	0.7538	0.2049	-0.088
Mof_O 	O 	0.733	0.8178	0.1109	-0.559
Mof_N 	N 	0.6917	0.7743	0.8646	-0.213
Mof_C 	C 	0.7379	0.822	0.0292	0.115
Mof_H 	H 	0.7582	0.8427	0.0432	0.01
Mof_C 	C 	0.7352	0.8197	0.9007	0.028
Mof_H 	H 	0.6575	0.7425	0.9092	0.081
Mof_N 	N 	0.6803	0.7648	0.9007	-0.124
Mof_C 	C 	0.738	0.8211	0.9887	-0.151
Mof_H 	H 	0.7586	0.8416	0.9748	0.084
Mof_Zn	Zn	0.24688	0.33482	0.66479	1.226
Mof_Zn	Zn	0.32765	0.25271	0.81354	1.192
Mof_N 	N 	0.2957	0.3124	0.801	-0.219
Mof_N 	N 	0.3023	0.3558	0.816	-0.088
Mof_N 	N 	0.261	0.3129	0.7738	-0.227
Mof_C 	C 	0.297	0.4575	0.8336	-0.115
Mof_H 	H 	0.3181	0.4398	0.8496	0.079
Mof_C 	C 	0.272	0.3843	0.7983	0.039
Mof_C 	C 	0.2951	0.5055	0.8374	0.058
Mof_H 	H 	0.3149	0.5214	0.8557	0.029
Mof_C 	C 	0.2444	0.3586	0.7701	-0.02
Mof_H 	H 	0.2205	0.3702	0.7531	0.024
Mof_C 	C 	0.2683	0.4341	0.8066	0.06
Mof_O 	O 	0.5991	0.2883	0.632	-0.329
Mof_O 	O 	0.2899	0.6027	0.8389	-0.386
Mof_C 	C 	0.2642	0.5301	0.8143	-0.133
Mof_C 	C 	0.5765	0.2619	0.6573	0.385
Mof_C 	C 	0.4992	0.2999	0.6474	0.06
Mof_H 	H 	0.5151	0.325	0.6345	0.024
Mof_C 	C 	0.2384	0.4591	0.7822	-0.119
Mof_H 	H 	0.2193	0.4436	0.7632	0.075
Mof_O 	O 	0.601	0.2373	0.6761	-0.506
Mof_C 	C 	0.4511	0.3006	0.6521	-0.122
Mof_H 	H 	0.4339	0.3269	0.6424	0.074
Mof_C 	C 	0.5237	0.2621	0.6617	-0.136
Mof_C 	C 	0.2373	0.5076	0.7864	0.058
Mof_H 	H 	0.2174	0.5257	0.7697	0.029
Mof_C 	C 	0.2605	0.583	0.8175	0.403
Mof_C 	C 	0.3476	0.3065	0.6588	0.02
Mof_H 	H 	0.355	0.3261	0.637	0.024
Mof_C 	C 	0.4271	0.2645	0.6704	0.068
Mof_N 	N 	0.306	0.3039	0.6767	-0.239
Mof_C 	C 	0.379	0.2747	0.6781	0.018
Mof_C 	C 	0.5019	0.2246	0.68	0.058
Mof_H 	H 	0.5195	0.1984	0.6893	0.022
Mof_O 	O 	0.2317	0.6029	0.8001	-0.465
Mof_C 	C 	0.4533	0.2265	0.6842	-0.118
Mof_H 	H 	0.4375	0.2011	0.6969	0.079
Mof_N 	N 	0.3074	0.2702	0.7027	-0.187
Mof_N 	N 	0.3508	0.2538	0.7049	-0.088
Mof_O 	O 	0.233	0.3178	0.6109	-0.56
Mof_N 	N 	0.1917	0.2743	0.3646	-0.213
Mof_C 	C 	0.2379	0.322	0.5292	0.123
Mof_H 	H 	0.2582	0.3427	0.5432	0.008
Mof_C 	C 	0.2352	0.3197	0.4007	0.029
Mof_H 	H 	0.1575	0.2425	0.4092	0.081
Mof_N 	N 	0.1803	0.2648	0.4007	-0.123
Mof_C 	C 	0.238	0.3211	0.4887	-0.159
Mof_H 	H 	0.2586	0.3416	0.4748	0.086
Mof_Zn	Zn	0.25312	0.16518	0.16479	1.226
Mof_Zn	Zn	0.17235	0.24729	0.31354	1.192
Mof_N 	N 	0.2043	0.1876	0.301	-0.219
Mof_N 	N 	0.1977	0.1442	0.316	-0.088
Mof_N 	N 	0.239	0.1871	0.2738	-0.227
Mof_C 	C 	0.203	0.0425	0.3336	-0.115
Mof_H 	H 	0.1819	0.0602	0.3496	0.079
Mof_C 	C 	0.228	0.1157	0.2983	0.039
Mof_C 	C 	0.2049	0.9945	0.3374	0.058
Mof_H 	H 	0.1851	0.9786	0.3557	0.029
Mof_C 	C 	0.2556	0.1414	0.2701	-0.02
Mof_H 	H 	0.2795	0.1298	0.2531	0.024
Mof_C 	C 	0.2317	0.0659	0.3066	0.06
Mof_O 	O 	0.9009	0.2117	0.132	-0.33
Mof_O 	O 	0.2101	0.8973	0.3389	-0.386
Mof_C 	C 	0.2358	0.9699	0.3143	-0.133
Mof_C 	C 	0.9235	0.2381	0.1573	0.385
Mof_C 	C 	0.0008	0.2001	0.1474	0.06
Mof_H 	H 	0.9849	0.175	0.1345	0.023
Mof_C 	C 	0.2616	0.0409	0.2822	-0.119
Mof_H 	H 	0.2807	0.0564	0.2632	0.075
Mof_O 	O 	0.899	0.2627	0.1761	-0.506
Mof_C 	C 	0.0489	0.1994	0.1521	-0.122
Mof_H 	H 	0.0661	0.1731	0.1424	0.074
Mof_C 	C 	0.9763	0.2379	0.1617	-0.137
Mof_C 	C 	0.2627	0.9924	0.2864	0.058
Mof_H 	H 	0.2826	0.9743	0.2697	0.029
Mof_C 	C 	0.2395	0.917	0.3175	0.403
Mof_C 	C 	0.1524	0.1935	0.1588	0.02
Mof_H 	H 	0.145	0.1739	0.137	0.024
Mof_C 	C 	0.0729	0.2355	0.1704	0.068
Mof_N 	N 	0.194	0.1961	0.1767	-0.239
Mof_C 	C 	0.121	0.2253	0.1781	0.018
Mof_C 	C 	0.9981	0.2754	0.18	0.058
Mof_H 	H 	0.9805	0.3016	0.1893	0.022
Mof_O 	O 	0.2683	0.8971	0.3001	-0.465
Mof_C 	C 	0.0467	0.2735	0.1842	-0.118
Mof_H 	H 	0.0625	0.2989	0.1969	0.079
Mof_N 	N 	0.1926	0.2298	0.2027	-0.187
Mof_N 	N 	0.1492	0.2462	0.2049	-0.088
Mof_O 	O 	0.267	0.1822	0.1109	-0.559
Mof_N 	N 	0.3083	0.2257	0.8646	-0.213
Mof_C 	C 	0.2621	0.178	0.0292	0.115
Mof_H 	H 	0.2418	0.1573	0.0432	0.01
Mof_C 	C 	0.2648	0.1803	0.9007	0.028
Mof_H 	H 	0.3425	0.2575	0.9092	0.081
Mof_N 	N 	0.3197	0.2352	0.9007	-0.124
Mof_C 	C 	0.262	0.1789	0.9887	-0.151
Mof_H 	H 	0.2414	0.1584	0.9748	0.084
Mof_Zn	Zn	0.75312	0.66518	0.66479	1.226
Mof_Zn	Zn	0.67235	0.74729	0.81354	1.192
Mof_N 	N 	0.7043	0.6876	0.801	-0.219
Mof_N 	N 	0.6977	0.6442	0.816	-0.088
Mof_N 	N 	0.739	0.6871	0.7738	-0.227
Mof_C 	C 	0.703	0.5425	0.8336	-0.115
Mof_H 	H 	0.6819	0.5602	0.8496	0.079
Mof_C 	C 	0.728	0.6157	0.7983	0.039
Mof_C 	C 	0.7049	0.4945	0.8374	0.058
Mof_H 	H 	0.6851	0.4786	0.8557	0.029
Mof_C 	C 	0.7556	0.6414	0.7701	-0.02
Mof_H 	H 	0.7795	0.6298	0.7531	0.024
Mof_C 	C 	0.7317	0.5659	0.8066	0.06
Mof_O 	O 	0.4009	0.7117	0.632	-0.329
Mof_O 	O 	0.7101	0.3973	0.8389	-0.386
Mof_C 	C 	0.7358	0.4699	0.8143	-0.133
Mof_C 	C 	0.4235	0.7381	0.6573	0.385
Mof_C 	C 	0.5008	0.7001	0.6474	0.06
Mof_H 	H 	0.4849	0.675	0.6345	0.024
Mof_C 	C 	0.7616	0.5409	0.7822	-0.119
Mof_H 	H 	0.7807	0.5564	0.7632	0.075
Mof_O 	O 	0.399	0.7627	0.6761	-0.506
Mof_C 	C 	0.5489	0.6994	0.6521	-0.122
Mof_H 	H 	0.5661	0.6731	0.6424	0.074
Mof_C 	C 	0.4763	0.7379	0.6617	-0.136
Mof_C 	C 	0.7627	0.4924	0.7864	0.058
Mof_H 	H 	0.7826	0.4743	0.7697	0.029
Mof_C 	C 	0.7395	0.417	0.8175	0.403
Mof_C 	C 	0.6524	0.6935	0.6588	0.02
Mof_H 	H 	0.645	0.6739	0.637	0.024
Mof_C 	C 	0.5729	0.7355	0.6704	0.068
Mof_N 	N 	0.694	0.6961	0.6767	-0.239
Mof_C 	C 	0.621	0.7253	0.6781	0.018
Mof_C 	C 	0.4981	0.7754	0.68	0.058
Mof_H 	H 	0.4805	0.8016	0.6893	0.022
Mof_O 	O 	0.7683	0.3971	0.8001	-0.465
Mof_C 	C 	0.5467	0.7735	0.6842	-0.118
Mof_H 	H 	0.5625	0.7989	0.6969	0.079
Mof_N 	N 	0.6926	0.7298	0.7027	-0.187
Mof_N 	N 	0.6492	0.7462	0.7049	-0.088
Mof_O 	O 	0.767	0.6822	0.6109	-0.56
Mof_N 	N 	0.8083	0.7257	0.3646	-0.213
Mof_C 	C 	0.7621	0.678	0.5292	0.123
Mof_H 	H 	0.7418	0.6573	0.5432	0.008
Mof_C 	C 	0.7648	0.6803	0.4007	0.029
Mof_H 	H 	0.8425	0.7575	0.4092	0.081
Mof_N 	N 	0.8197	0.7352	0.4007	-0.123
Mof_C 	C 	0.762	0.6789	0.4887	-0.159
Mof_H 	H 	0.7414	0.6584	0.4748	0.086
Mof_Zn	Zn	0.83482	0.74688	0.66479	1.226
Mof_Zn	Zn	0.75271	0.82765	0.81354	1.192
Mof_N 	N 	0.8124	0.7957	0.801	-0.219
Mof_N 	N 	0.8558	0.8023	0.816	-0.088
Mof_N 	N 	0.8129	0.761	0.7738	-0.227
Mof_C 	C 	0.9575	0.797	0.8336	-0.115
Mof_H 	H 	0.9398	0.8181	0.8496	0.079
Mof_C 	C 	0.8843	0.772	0.7983	0.039
Mof_C 	C 	0.0055	0.7951	0.8374	0.058
Mof_H 	H 	0.0214	0.8149	0.8557	0.029
Mof_C 	C 	0.8586	0.7444	0.7701	-0.02
Mof_H 	H 	0.8702	0.7205	0.7531	0.024
Mof_C 	C 	0.9341	0.7683	0.8066	0.06
Mof_O 	O 	0.7883	0.0991	0.632	-0.329
Mof_O 	O 	0.1027	0.7899	0.8389	-0.386
Mof_C 	C 	0.0301	0.7642	0.8143	-0.133
Mof_C 	C 	0.7619	0.0765	0.6573	0.385
Mof_C 	C 	0.7999	0.9992	0.6474	0.06
Mof_H 	H 	0.825	0.0151	0.6345	0.024
Mof_C 	C 	0.9591	0.7384	0.7822	-0.119
Mof_H 	H 	0.9436	0.7193	0.7632	0.075
Mof_O 	O 	0.7373	0.101	0.6761	-0.506
Mof_C 	C 	0.8006	0.9511	0.6521	-0.122
Mof_H 	H 	0.8269	0.9339	0.6424	0.074
Mof_C 	C 	0.7621	0.0237	0.6617	-0.136
Mof_C 	C 	0.0076	0.7373	0.7864	0.058
Mof_H 	H 	0.0257	0.7174	0.7697	0.029
Mof_C 	C 	0.083	0.7605	0.8175	0.403
Mof_C 	C 	0.8065	0.8476	0.6588	0.02
Mof_H 	H 	0.8261	0.855	0.637	0.024
Mof_C 	C 	0.7645	0.9271	0.6704	0.068
Mof_N 	N 	0.8039	0.806	0.6767	-0.239
Mof_C 	C 	0.7747	0.879	0.6781	0.018
Mof_C 	C 	0.7246	0.0019	0.68	0.058
Mof_H 	H 	0.6984	0.0195	0.6893	0.022
Mof_O 	O 	0.1029	0.7317	0.8001	-0.466
Mof_C 	C 	0.7265	0.9533	0.6842	-0.118
Mof_H 	H 	0.7011	0.9375	0.6969	0.079
Mof_N 	N 	0.7702	0.8074	0.7027	-0.187
Mof_N 	N 	0.7538	0.8508	0.7049	-0.088
Mof_O 	O 	0.8178	0.733	0.6109	-0.56
Mof_N 	N 	0.7743	0.6917	0.3646	-0.249
Mof_C 	C 	0.822	0.7379	0.5292	0.121
Mof_H 	H 	0.8427	0.7582	0.5432	0.008
Mof_H 	H 	0.7425	0.6575	0.4092	0.014
Mof_C 	C 	0.8211	0.738	0.4887	-0.156
Mof_H 	H 	0.8416	0.7586	0.4748	0.086
Mof_Zn	Zn	0.33482	0.24688	0.16479	1.226
Mof_Zn	Zn	0.25271	0.32765	0.31354	1.192
Mof_N 	N 	0.3124	0.2957	0.301	-0.219
Mof_N 	N 	0.3558	0.3023	0.316	-0.088
Mof_N 	N 	0.3129	0.261	0.2738	-0.227
Mof_C 	C 	0.4575	0.297	0.3336	-0.115
Mof_H 	H 	0.4398	0.3181	0.3496	0.079
Mof_C 	C 	0.3843	0.272	0.2983	0.039
Mof_C 	C 	0.5055	0.2951	0.3374	0.058
Mof_H 	H 	0.5214	0.3149	0.3557	0.029
Mof_C 	C 	0.3586	0.2444	0.2701	-0.02
Mof_H 	H 	0.3702	0.2205	0.2531	0.024
Mof_C 	C 	0.4341	0.2683	0.3066	0.06
Mof_O 	O 	0.2883	0.5991	0.132	-0.33
Mof_O 	O 	0.6027	0.2899	0.3389	-0.387
Mof_C 	C 	0.5301	0.2642	0.3143	-0.133
Mof_C 	C 	0.2619	0.5765	0.1573	0.385
Mof_C 	C 	0.2999	0.4992	0.1474	0.06
Mof_H 	H 	0.325	0.5151	0.1345	0.023
Mof_C 	C 	0.4591	0.2384	0.2822	-0.119
Mof_H 	H 	0.4436	0.2193	0.2632	0.075
Mof_O 	O 	0.2373	0.601	0.1761	-0.506
Mof_C 	C 	0.3006	0.4511	0.1521	-0.122
Mof_H 	H 	0.3269	0.4339	0.1424	0.074
Mof_C 	C 	0.2621	0.5237	0.1617	-0.137
Mof_C 	C 	0.5076	0.2373	0.2864	0.058
Mof_H 	H 	0.5257	0.2174	0.2697	0.029
Mof_C 	C 	0.583	0.2605	0.3175	0.403
Mof_C 	C 	0.3065	0.3476	0.1588	0.02
Mof_H 	H 	0.3261	0.355	0.137	0.024
Mof_C 	C 	0.2645	0.4271	0.1704	0.068
Mof_N 	N 	0.3039	0.306	0.1767	-0.239
Mof_C 	C 	0.2747	0.379	0.1781	0.018
Mof_C 	C 	0.2246	0.5019	0.18	0.058
Mof_H 	H 	0.1984	0.5195	0.1893	0.022
Mof_O 	O 	0.6029	0.2317	0.3001	-0.466
Mof_C 	C 	0.2265	0.4533	0.1842	-0.118
Mof_H 	H 	0.2011	0.4375	0.1969	0.079
Mof_N 	N 	0.2702	0.3074	0.2027	-0.187
Mof_N 	N 	0.2538	0.3508	0.2049	-0.088
Mof_O 	O 	0.3178	0.233	0.1109	-0.559
Mof_N 	N 	0.2743	0.1917	0.8646	-0.249
Mof_C 	C 	0.322	0.2379	0.0292	0.114
Mof_H 	H 	0.3427	0.2582	0.0432	0.01
Mof_H 	H 	0.2425	0.1575	0.9092	0.014
Mof_C 	C 	0.3211	0.238	0.9887	-0.148
Mof_H 	H 	0.3416	0.2586	0.9748	0.084
Mof_Zn	Zn	0.16518	0.25312	0.66479	1.226
Mof_Zn	Zn	0.24729	0.17235	0.81354	1.192
Mof_N 	N 	0.1876	0.2043	0.801	-0.219
Mof_N 	N 	0.1442	0.1977	0.816	-0.088
Mof_N 	N 	0.1871	0.239	0.7738	-0.227
Mof_C 	C 	0.0425	0.203	0.8336	-0.115
Mof_H 	H 	0.0602	0.1819	0.8496	0.079
Mof_C 	C 	0.1157	0.228	0.7983	0.039
Mof_C 	C 	0.9945	0.2049	0.8374	0.058
Mof_H 	H 	0.9786	0.1851	0.8557	0.029
Mof_C 	C 	0.1414	0.2556	0.7701	-0.02
Mof_H 	H 	0.1298	0.2795	0.7531	0.024
Mof_C 	C 	0.0659	0.2317	0.8066	0.06
Mof_O 	O 	0.2117	0.9009	0.632	-0.329
Mof_O 	O 	0.8973	0.2101	0.8389	-0.386
Mof_C 	C 	0.9699	0.2358	0.8143	-0.133
Mof_C 	C 	0.2381	0.9235	0.6573	0.385
Mof_C 	C 	0.2001	0.0008	0.6474	0.06
Mof_H 	H 	0.175	0.9849	0.6345	0.024
Mof_C 	C 	0.0409	0.2616	0.7822	-0.119
Mof_H 	H 	0.0564	0.2807	0.7632	0.075
Mof_O 	O 	0.2627	0.899	0.6761	-0.506
Mof_C 	C 	0.1994	0.0489	0.6521	-0.122
Mof_H 	H 	0.1731	0.0661	0.6424	0.074
Mof_C 	C 	0.2379	0.9763	0.6617	-0.136
Mof_C 	C 	0.9924	0.2627	0.7864	0.058
Mof_H 	H 	0.9743	0.2826	0.7697	0.029
Mof_C 	C 	0.917	0.2395	0.8175	0.403
Mof_C 	C 	0.1935	0.1524	0.6588	0.02
Mof_H 	H 	0.1739	0.145	0.637	0.024
Mof_C 	C 	0.2355	0.0729	0.6704	0.068
Mof_N 	N 	0.1961	0.194	0.6767	-0.239
Mof_C 	C 	0.2253	0.121	0.6781	0.018
Mof_C 	C 	0.2754	0.9981	0.68	0.058
Mof_H 	H 	0.3016	0.9805	0.6893	0.022
Mof_O 	O 	0.8971	0.2683	0.8001	-0.466
Mof_C 	C 	0.2735	0.0467	0.6842	-0.118
Mof_H 	H 	0.2989	0.0625	0.6969	0.079
Mof_N 	N 	0.2298	0.1926	0.7027	-0.187
Mof_N 	N 	0.2462	0.1492	0.7049	-0.088
Mof_O 	O 	0.1822	0.267	0.6109	-0.56
Mof_N 	N 	0.2257	0.3083	0.3646	-0.249
Mof_C 	C 	0.178	0.2621	0.5292	0.121
Mof_H 	H 	0.1573	0.2418	0.5432	0.008
Mof_H 	H 	0.2575	0.3425	0.4092	0.014
Mof_C 	C 	0.1789	0.262	0.4887	-0.156
Mof_H 	H 	0.1584	0.2414	0.4748	0.086
Mof_Zn	Zn	0.66518	0.75312	0.16479	1.226
Mof_Zn	Zn	0.74729	0.67235	0.31354	1.192
Mof_N 	N 	0.6876	0.7043	0.301	-0.219
Mof_N 	N 	0.6442	0.6977	0.316	-0.088
Mof_N 	N 	0.6871	0.739	0.2738	-0.227
Mof_C 	C 	0.5425	0.703	0.3336	-0.115
Mof_H 	H 	0.5602	0.6819	0.3496	0.079
Mof_C 	C 	0.6157	0.728	0.2983	0.039
Mof_C 	C 	0.4945	0.7049	0.3374	0.058
Mof_H 	H 	0.4786	0.6851	0.3557	0.029
Mof_C 	C 	0.6414	0.7556	0.2701	-0.02
Mof_H 	H 	0.6298	0.7795	0.2531	0.024
Mof_C 	C 	0.5659	0.7317	0.3066	0.06
Mof_O 	O 	0.7117	0.4009	0.132	-0.33
Mof_O 	O 	0.3973	0.7101	0.3389	-0.387
Mof_C 	C 	0.4699	0.7358	0.3143	-0.133
Mof_C 	C 	0.7381	0.4235	0.1573	0.385
Mof_C 	C 	0.7001	0.5008	0.1474	0.06
Mof_H 	H 	0.675	0.4849	0.1345	0.023
Mof_C 	C 	0.5409	0.7616	0.2822	-0.119
Mof_H 	H 	0.5564	0.7807	0.2632	0.075
Mof_O 	O 	0.7627	0.399	0.1761	-0.506
Mof_C 	C 	0.6994	0.5489	0.1521	-0.122
Mof_H 	H 	0.6731	0.5661	0.1424	0.074
Mof_C 	C 	0.7379	0.4763	0.1617	-0.137
Mof_C 	C 	0.4924	0.7627	0.2864	0.058
Mof_H 	H 	0.4743	0.7826	0.2697	0.029
Mof_C 	C 	0.417	0.7395	0.3175	0.403
Mof_C 	C 	0.6935	0.6524	0.1588	0.02
Mof_H 	H 	0.6739	0.645	0.137	0.024
Mof_C 	C 	0.7355	0.5729	0.1704	0.068
Mof_N 	N 	0.6961	0.694	0.1767	-0.239
Mof_C 	C 	0.7253	0.621	0.1781	0.018
Mof_C 	C 	0.7754	0.4981	0.18	0.058
Mof_H 	H 	0.8016	0.4805	0.1893	0.022
Mof_O 	O 	0.3971	0.7683	0.3001	-0.466
Mof_C 	C 	0.7735	0.5467	0.1842	-0.118
Mof_H 	H 	0.7989	0.5625	0.1969	0.079
Mof_N 	N 	0.7298	0.6926	0.2027	-0.187
Mof_N 	N 	0.7462	0.6492	0.2049	-0.088
Mof_O 	O 	0.6822	0.767	0.1109	-0.559
Mof_N 	N 	0.7257	0.8083	0.8646	-0.249
Mof_C 	C 	0.678	0.7621	0.0292	0.114
Mof_H 	H 	0.6573	0.7418	0.0432	0.01
Mof_H 	H 	0.7575	0.8425	0.9092	0.014
Mof_C 	C 	0.6789	0.762	0.9887	-0.148
Mof_H 	H 	0.6584	0.7414	0.9748	0.084
Mof_Zn	Zn	0.74688	0.16518	0.66479	1.226
Mof_Zn	Zn	0.82765	0.24729	0.81354	1.192
Mof_N 	N 	0.7957	0.1876	0.801	-0.219
Mof_N 	N 	0.8023	0.1442	0.816	-0.088
Mof_N 	N 	0.761	0.1871	0.7738	-0.227
Mof_C 	C 	0.797	0.0425	0.8336	-0.115
Mof_H 	H 	0.8181	0.0602	0.8496	0.079
Mof_C 	C 	0.772	0.1157	0.7983	0.039
Mof_C 	C 	0.7951	0.9945	0.8374	0.058
Mof_H 	H 	0.8149	0.9786	0.8557	0.029
Mof_C 	C 	0.7444	0.1414	0.7701	-0.02
Mof_H 	H 	0.7205	0.1298	0.7531	0.024
Mof_C 	C 	0.7683	0.0659	0.8066	0.06
Mof_O 	O 	0.0991	0.2117	0.632	-0.329
Mof_O 	O 	0.7899	0.8973	0.8389	-0.386
Mof_C 	C 	0.7642	0.9699	0.8143	-0.133
Mof_C 	C 	0.0765	0.2381	0.6573	0.385
Mof_C 	C 	0.9992	0.2001	0.6474	0.06
Mof_H 	H 	0.0151	0.175	0.6345	0.024
Mof_C 	C 	0.7384	0.0409	0.7822	-0.119
Mof_H 	H 	0.7193	0.0564	0.7632	0.075
Mof_O 	O 	0.101	0.2627	0.6761	-0.506
Mof_C 	C 	0.9511	0.1994	0.6521	-0.122
Mof_H 	H 	0.9339	0.1731	0.6424	0.074
Mof_C 	C 	0.0237	0.2379	0.6617	-0.136
Mof_C 	C 	0.7373	0.9924	0.7864	0.058
Mof_H 	H 	0.7174	0.9743	0.7697	0.029
Mof_C 	C 	0.7605	0.917	0.8175	0.403
Mof_C 	C 	0.8476	0.1935	0.6588	0.02
Mof_H 	H 	0.855	0.1739	0.637	0.024
Mof_C 	C 	0.9271	0.2355	0.6704	0.068
Mof_N 	N 	0.806	0.1961	0.6767	-0.239
Mof_C 	C 	0.879	0.2253	0.6781	0.018
Mof_C 	C 	0.0019	0.2754	0.68	0.058
Mof_H 	H 	0.0195	0.3016	0.6893	0.022
Mof_O 	O 	0.7317	0.8971	0.8001	-0.466
Mof_C 	C 	0.9533	0.2735	0.6842	-0.118
Mof_H 	H 	0.9375	0.2989	0.6969	0.079
Mof_N 	N 	0.8074	0.2298	0.7027	-0.187
Mof_N 	N 	0.8508	0.2462	0.7049	-0.088
Mof_O 	O 	0.733	0.1822	0.6109	-0.56
Mof_N 	N 	0.6917	0.2257	0.3646	-0.249
Mof_C 	C 	0.7379	0.178	0.5292	0.121
Mof_H 	H 	0.7582	0.1573	0.5432	0.008
Mof_H 	H 	0.6575	0.2575	0.4092	0.014
Mof_C 	C 	0.738	0.1789	0.4887	-0.156
Mof_H 	H 	0.7586	0.1584	0.4748	0.086
Mof_Zn	Zn	0.24688	0.66518	0.16479	1.226
Mof_Zn	Zn	0.32765	0.74729	0.31354	1.192
Mof_N 	N 	0.2957	0.6876	0.301	-0.219
Mof_N 	N 	0.3023	0.6442	0.316	-0.088
Mof_N 	N 	0.261	0.6871	0.2738	-0.227
Mof_C 	C 	0.297	0.5425	0.3336	-0.115
Mof_H 	H 	0.3181	0.5602	0.3496	0.079
Mof_C 	C 	0.272	0.6157	0.2983	0.039
Mof_C 	C 	0.2951	0.4945	0.3374	0.058
Mof_H 	H 	0.3149	0.4786	0.3557	0.029
Mof_C 	C 	0.2444	0.6414	0.2701	-0.02
Mof_H 	H 	0.2205	0.6298	0.2531	0.024
Mof_C 	C 	0.2683	0.5659	0.3066	0.06
Mof_O 	O 	0.5991	0.7117	0.132	-0.33
Mof_O 	O 	0.2899	0.3973	0.3389	-0.387
Mof_C 	C 	0.2642	0.4699	0.3143	-0.133
Mof_C 	C 	0.5765	0.7381	0.1573	0.385
Mof_C 	C 	0.4992	0.7001	0.1474	0.06
Mof_H 	H 	0.5151	0.675	0.1345	0.023
Mof_C 	C 	0.2384	0.5409	0.2822	-0.119
Mof_H 	H 	0.2193	0.5564	0.2632	0.075
Mof_O 	O 	0.601	0.7627	0.1761	-0.506
Mof_C 	C 	0.4511	0.6994	0.1521	-0.122
Mof_H 	H 	0.4339	0.6731	0.1424	0.074
Mof_C 	C 	0.5237	0.7379	0.1617	-0.137
Mof_C 	C 	0.2373	0.4924	0.2864	0.058
Mof_H 	H 	0.2174	0.4743	0.2697	0.029
Mof_C 	C 	0.2605	0.417	0.3175	0.403
Mof_C 	C 	0.3476	0.6935	0.1588	0.02
Mof_H 	H 	0.355	0.6739	0.137	0.024
Mof_C 	C 	0.4271	0.7355	0.1704	0.068
Mof_N 	N 	0.306	0.6961	0.1767	-0.239
Mof_C 	C 	0.379	0.7253	0.1781	0.018
Mof_C 	C 	0.5019	0.7754	0.18	0.058
Mof_H 	H 	0.5195	0.8016	0.1893	0.022
Mof_O 	O 	0.2317	0.3971	0.3001	-0.466
Mof_C 	C 	0.4533	0.7735	0.1842	-0.118
Mof_H 	H 	0.4375	0.7989	0.1969	0.079
Mof_N 	N 	0.3074	0.7298	0.2027	-0.187
Mof_N 	N 	0.3508	0.7462	0.2049	-0.088
Mof_O 	O 	0.233	0.6822	0.1109	-0.559
Mof_N 	N 	0.1917	0.7257	0.8646	-0.249
Mof_C 	C 	0.2379	0.678	0.0292	0.114
Mof_H 	H 	0.2582	0.6573	0.0432	0.01
Mof_H 	H 	0.1575	0.7575	0.9092	0.014
Mof_C 	C 	0.238	0.6789	0.9887	-0.148
Mof_H 	H 	0.2586	0.6584	0.9748	0.084
Mof_Zn	Zn	0.25312	0.83482	0.66479	1.226
Mof_Zn	Zn	0.17235	0.75271	0.81354	1.192
Mof_N 	N 	0.2043	0.8124	0.801	-0.219
Mof_N 	N 	0.1977	0.8558	0.816	-0.088
Mof_N 	N 	0.239	0.8129	0.7738	-0.227
Mof_C 	C 	0.203	0.9575	0.8336	-0.115
Mof_H 	H 	0.1819	0.9398	0.8496	0.079
Mof_C 	C 	0.228	0.8843	0.7983	0.039
Mof_C 	C 	0.2049	0.0055	0.8374	0.058
Mof_H 	H 	0.1851	0.0214	0.8557	0.029
Mof_C 	C 	0.2556	0.8586	0.7701	-0.02
Mof_H 	H 	0.2795	0.8702	0.7531	0.024
Mof_C 	C 	0.2317	0.9341	0.8066	0.06
Mof_O 	O 	0.9009	0.7883	0.632	-0.329
Mof_O 	O 	0.2101	0.1027	0.8389	-0.386
Mof_C 	C 	0.2358	0.0301	0.8143	-0.133
Mof_C 	C 	0.9235	0.7619	0.6573	0.385
Mof_C 	C 	0.0008	0.7999	0.6474	0.06
Mof_H 	H 	0.9849	0.825	0.6345	0.024
Mof_C 	C 	0.2616	0.9591	0.7822	-0.119
Mof_H 	H 	0.2807	0.9436	0.7632	0.075
Mof_O 	O 	0.899	0.7373	0.6761	-0.506
Mof_C 	C 	0.0489	0.8006	0.6521	-0.122
Mof_H 	H 	0.0661	0.8269	0.6424	0.074
Mof_C 	C 	0.9763	0.7621	0.6617	-0.136
Mof_C 	C 	0.2627	0.0076	0.7864	0.058
Mof_H 	H 	0.2826	0.0257	0.7697	0.029
Mof_C 	C 	0.2395	0.083	0.8175	0.403
Mof_C 	C 	0.1524	0.8065	0.6588	0.02
Mof_H 	H 	0.145	0.8261	0.637	0.024
Mof_C 	C 	0.0729	0.7645	0.6704	0.068
Mof_N 	N 	0.194	0.8039	0.6767	-0.239
Mof_C 	C 	0.121	0.7747	0.6781	0.018
Mof_C 	C 	0.9981	0.7246	0.68	0.058
Mof_H 	H 	0.9805	0.6984	0.6893	0.022
Mof_O 	O 	0.2683	0.1029	0.8001	-0.466
Mof_C 	C 	0.0467	0.7265	0.6842	-0.118
Mof_H 	H 	0.0625	0.7011	0.6969	0.079
Mof_N 	N 	0.1926	0.7702	0.7027	-0.187
Mof_N 	N 	0.1492	0.7538	0.7049	-0.088
Mof_O 	O 	0.267	0.8178	0.6109	-0.56
Mof_N 	N 	0.3083	0.7743	0.3646	-0.249
Mof_C 	C 	0.2621	0.822	0.5292	0.121
Mof_H 	H 	0.2418	0.8427	0.5432	0.008
Mof_H 	H 	0.3425	0.7425	0.4092	0.014
Mof_C 	C 	0.262	0.8211	0.4887	-0.156
Mof_H 	H 	0.2414	0.8416	0.4748	0.086
Mof_Zn	Zn	0.75312	0.33482	0.16479	1.226
Mof_Zn	Zn	0.67235	0.25271	0.31354	1.192
Mof_N 	N 	0.7043	0.3124	0.301	-0.219
Mof_N 	N 	0.6977	0.3558	0.316	-0.088
Mof_N 	N 	0.739	0.3129	0.2738	-0.227
Mof_C 	C 	0.703	0.4575	0.3336	-0.115
Mof_H 	H 	0.6819	0.4398	0.3496	0.079
Mof_C 	C 	0.728	0.3843	0.2983	0.039
Mof_C 	C 	0.7049	0.5055	0.3374	0.058
Mof_H 	H 	0.6851	0.5214	0.3557	0.029
Mof_C 	C 	0.7556	0.3586	0.2701	-0.02
Mof_H 	H 	0.7795	0.3702	0.2531	0.024
Mof_C 	C 	0.7317	0.4341	0.3066	0.06
Mof_O 	O 	0.4009	0.2883	0.132	-0.33
Mof_O 	O 	0.7101	0.6027	0.3389	-0.387
Mof_C 	C 	0.7358	0.5301	0.3143	-0.133
Mof_C 	C 	0.4235	0.2619	0.1573	0.385
Mof_C 	C 	0.5008	0.2999	0.1474	0.06
Mof_H 	H 	0.4849	0.325	0.1345	0.023
Mof_C 	C 	0.7616	0.4591	0.2822	-0.119
Mof_H 	H 	0.7807	0.4436	0.2632	0.075
Mof_O 	O 	0.399	0.2373	0.1761	-0.506
Mof_C 	C 	0.5489	0.3006	0.1521	-0.122
Mof_H 	H 	0.5661	0.3269	0.1424	0.074
Mof_C 	C 	0.4763	0.2621	0.1617	-0.137
Mof_C 	C 	0.7627	0.5076	0.2864	0.058
Mof_H 	H 	0.7826	0.5257	0.2697	0.029
Mof_C 	C 	0.7395	0.583	0.3175	0.403
Mof_C 	C 	0.6524	0.3065	0.1588	0.02
Mof_H 	H 	0.645	0.3261	0.137	0.024
Mof_C 	C 	0.5729	0.2645	0.1704	0.068
Mof_N 	N 	0.694	0.3039	0.1767	-0.239
Mof_C 	C 	0.621	0.2747	0.1781	0.018
Mof_C 	C 	0.4981	0.2246	0.18	0.058
Mof_H 	H 	0.4805	0.1984	0.1893	0.022
Mof_O 	O 	0.7683	0.6029	0.3001	-0.466
Mof_C 	C 	0.5467	0.2265	0.1842	-0.118
Mof_H 	H 	0.5625	0.2011	0.1969	0.079
Mof_N 	N 	0.6926	0.2702	0.2027	-0.187
Mof_N 	N 	0.6492	0.2538	0.2049	-0.088
Mof_O 	O 	0.767	0.3178	0.1109	-0.559
Mof_N 	N 	0.8083	0.2743	0.8646	-0.249
Mof_C 	C 	0.7621	0.322	0.0292	0.114
Mof_H 	H 	0.7418	0.3427	0.0432	0.01
Mof_H 	H 	0.8425	0.2425	0.9092	0.014
Mof_C 	C 	0.762	0.3211	0.9887	-0.148
Mof_H 	H 	0.7414	0.3416	0.9748	0.084
Mof_Zn	Zn	0.75315	0.25315	0.23964	1.168
Mof_O 	O 	0.797	0.297	0.1966	-0.67
Mof_C 	C 	0.7925	0.2925	0.0924	0.57
Mof_C 	C 	0.7923	0.2923	0.049	-0.231
Mof_C 	C 	0.7928	0.2928	0.924	0.018
Mof_C 	C 	0.7911	0.2911	0.9674	0.083
Mof_O 	O 	0.7104	0.2104	0.2792	-0.681
Mof_Zn	Zn	0.24685	0.74685	0.23964	1.168
Mof_O 	O 	0.203	0.703	0.1966	-0.67
Mof_C 	C 	0.2075	0.7075	0.0924	0.57
Mof_C 	C 	0.2077	0.7077	0.049	-0.231
Mof_C 	C 	0.2072	0.7072	0.924	0.018
Mof_C 	C 	0.2089	0.7089	0.9674	0.083
Mof_O 	O 	0.2896	0.7896	0.2792	-0.681
Mof_Zn	Zn	0.74685	0.75315	0.23964	1.168
Mof_O 	O 	0.703	0.797	0.1966	-0.67
Mof_C 	C 	0.7075	0.7925	0.0924	0.57
Mof_C 	C 	0.7077	0.7923	0.049	-0.231
Mof_C 	C 	0.7072	0.7928	0.924	0.018
Mof_C 	C 	0.7089	0.7911	0.9674	0.083
Mof_O 	O 	0.7896	0.7104	0.2792	-0.681
Mof_Zn	Zn	0.25315	0.24685	0.23964	1.168
Mof_O 	O 	0.297	0.203	0.1966	-0.67
Mof_C 	C 	0.2925	0.2075	0.0924	0.57
Mof_C 	C 	0.2923	0.2077	0.049	-0.231
Mof_C 	C 	0.2928	0.2072	0.924	0.018
Mof_C 	C 	0.2911	0.2089	0.9674	0.083
Mof_O 	O 	0.2104	0.2896	0.2792	-0.681
Mof_Zn	Zn	0.75315	0.74685	0.73964	1.168
Mof_O 	O 	0.797	0.703	0.6966	-0.67
Mof_C 	C 	0.7925	0.7075	0.5924	0.573
Mof_C 	C 	0.7923	0.7077	0.549	-0.236
Mof_C 	C 	0.7928	0.7072	0.424	0.016
Mof_C 	C 	0.7911	0.7089	0.4674	0.088
Mof_O 	O 	0.7104	0.7896	0.7792	-0.681
Mof_Zn	Zn	0.24685	0.25315	0.73964	1.168
Mof_O 	O 	0.203	0.297	0.6966	-0.67
Mof_C 	C 	0.2075	0.2925	0.5924	0.573
Mof_C 	C 	0.2077	0.2923	0.549	-0.236
Mof_C 	C 	0.2072	0.2928	0.424	0.016
Mof_C 	C 	0.2089	0.2911	0.4674	0.088
Mof_O 	O 	0.2896	0.2104	0.7792	-0.681
Mof_Zn	Zn	0.74685	0.24685	0.73964	1.168
Mof_O 	O 	0.703	0.203	0.6966	-0.67
Mof_C 	C 	0.7075	0.2075	0.5924	0.573
Mof_C 	C 	0.7077	0.2077	0.549	-0.236
Mof_C 	C 	0.7072	0.2072	0.424	0.016
Mof_C 	C 	0.7089	0.2089	0.4674	0.088
Mof_O 	O 	0.7896	0.2896	0.7792	-0.681
Mof_Zn	Zn	0.25315	0.75315	0.73964	1.168
Mof_O 	O 	0.297	0.797	0.6966	-0.67
Mof_C 	C 	0.2925	0.7925	0.5924	0.573
Mof_C 	C 	0.2923	0.7923	0.549	-0.236
Mof_C 	C 	0.2928	0.7928	0.424	0.016
Mof_C 	C 	0.2911	0.7911	0.4674	0.088
Mof_O 	O 	0.2104	0.7104	0.7792	-0.681
_end
