data_functionalizedCrystal
_audit_creation_method	'EQeq! by Chris Wilmer'
_symmetry_space_group_name_H-M	'P1'
_symmetry_Int_Tables_number	1
_symmetry_cell_setting	triclinic
loop_
_symmetry_equiv_pos_as_xyz
  x,y,z
_cell_length_a	13.103
_cell_length_b	23.434
_cell_length_c	30.424
_cell_angle_alpha	90
_cell_angle_beta	90
_cell_angle_gamma	101.392
loop_
_atom_site_label
_atom_site_type_symbol
_atom_site_fract_x
_atom_site_fract_y
_atom_site_fract_z
_atom_site_charge
Mof_Gd	Gd	0.85047	0.72851	0.76933	1.636
Mof_Gd	Gd	0.15218	0.79659	0.74169	1.617
Mof_Gd	Gd	0.64953	0.77149	0.26933	1.636
Mof_Gd	Gd	0.34782	0.70341	0.24169	1.617
Mof_Gd	Gd	0.14953	0.27149	0.23067	1.637
Mof_Gd	Gd	0.84782	0.20341	0.25831	1.618
Mof_Gd	Gd	0.35047	0.22851	0.73067	1.637
Mof_Gd	Gd	0.65218	0.29659	0.75831	1.618
Mof_H 	H 	0.1898	0.6559	0.7289	0.077
Mof_H 	H 	0.9684	0.5462	0.7949	0.099
Mof_H 	H 	0.4858	0.4614	0.808	0.101
Mof_H 	H 	0.3194	0.3672	0.7131	0.074
Mof_H 	H 	0.072	0.7847	0.5987	0.093
Mof_H 	H 	0.7881	0.6918	0.6246	0.087
Mof_H 	H 	0.8254	0.6781	0.3857	0.126
Mof_H 	H 	0.7966	0.8411	0.4136	0.123
Mof_H 	H 	0.9308	0.728	0.9125	0.092
Mof_H 	H 	0.2232	0.8084	0.8887	0.087
Mof_H 	H 	0.1876	0.6478	0.0965	0.125
Mof_H 	H 	0.1953	0.8151	0.1263	0.124
Mof_H 	H 	0.3102	0.8441	0.2289	0.077
Mof_H 	H 	0.5316	0.9538	0.2949	0.099
Mof_H 	H 	0.0142	0.0386	0.308	0.101
Mof_H 	H 	0.1806	0.1328	0.2131	0.074
Mof_H 	H 	0.428	0.7153	0.0987	0.094
Mof_H 	H 	0.7119	0.8082	0.1246	0.087
Mof_H 	H 	0.6746	0.8219	0.8857	0.126
Mof_H 	H 	0.7034	0.6589	0.9136	0.123
Mof_H 	H 	0.5692	0.772	0.4125	0.092
Mof_H 	H 	0.2768	0.6916	0.3887	0.087
Mof_H 	H 	0.3124	0.8522	0.5965	0.125
Mof_H 	H 	0.3047	0.6849	0.6263	0.124
Mof_H 	H 	0.8102	0.3441	0.2711	0.077
Mof_H 	H 	0.0316	0.4538	0.2051	0.099
Mof_H 	H 	0.5142	0.5386	0.192	0.101
Mof_H 	H 	0.6806	0.6328	0.2869	0.074
Mof_H 	H 	0.928	0.2153	0.4013	0.093
Mof_H 	H 	0.2119	0.3082	0.3754	0.087
Mof_H 	H 	0.1746	0.3219	0.6143	0.126
Mof_H 	H 	0.2034	0.1589	0.5864	0.123
Mof_H 	H 	0.0692	0.272	0.0875	0.092
Mof_H 	H 	0.7768	0.1916	0.1113	0.087
Mof_H 	H 	0.8124	0.3522	0.9035	0.125
Mof_H 	H 	0.8047	0.1849	0.8737	0.124
Mof_H 	H 	0.6898	0.1559	0.7711	0.077
Mof_H 	H 	0.4684	0.0462	0.7051	0.099
Mof_H 	H 	0.9858	0.9614	0.692	0.101
Mof_H 	H 	0.8194	0.8672	0.7869	0.074
Mof_H 	H 	0.572	0.2847	0.9013	0.094
Mof_H 	H 	0.2881	0.1918	0.8754	0.087
Mof_H 	H 	0.3254	0.1781	0.1143	0.126
Mof_H 	H 	0.2966	0.3411	0.0864	0.123
Mof_H 	H 	0.4308	0.228	0.5875	0.092
Mof_H 	H 	0.7232	0.3084	0.6113	0.087
Mof_H 	H 	0.6876	0.1478	0.4035	0.125
Mof_H 	H 	0.6953	0.3151	0.3737	0.124
Mof_C 	C 	0.0027	0.6534	0.76417	0.386
Mof_C 	C 	0.07	0.6088	0.76286	-0.046
Mof_C 	C 	0.166	0.6202	0.74243	-0.056
Mof_C 	C 	0.2266	0.578	0.74226	0.089
Mof_C 	C 	0.1963	0.5241	0.76357	0.003
Mof_C 	C 	0.0991	0.5144	0.78337	0.098
Mof_C 	C 	0.0345	0.555	0.7825	-0.061
Mof_C 	C 	0.2672	0.4809	0.76452	-0
Mof_C 	C 	0.3546	0.4892	0.79116	0.1
Mof_C 	C 	0.4277	0.454	0.78982	-0.068
Mof_C 	C 	0.4127	0.4071	0.76069	-0.041
Mof_C 	C 	0.3285	0.3977	0.73317	-0.066
Mof_C 	C 	0.2567	0.434	0.73536	0.093
Mof_C 	C 	0.4928	0.3683	0.75868	0.371
Mof_C 	C 	0.9561	0.7436	0.66808	0.407
Mof_C 	C 	0.9325	0.7388	0.61916	-0.042
Mof_C 	C 	0.0067	0.7657	0.58918	-0.054
Mof_C 	C 	0.9822	0.7638	0.54502	0.097
Mof_C 	C 	0.8862	0.7372	0.52833	0.012
Mof_C 	C 	0.814	0.7107	0.56002	0.096
Mof_C 	C 	0.8373	0.7108	0.60477	-0.055
Mof_C 	C 	0.8581	0.7446	0.48099	-0.016
Mof_C 	C 	0.8557	0.7009	0.44872	0.129
Mof_C 	C 	0.8277	0.7082	0.40587	-0.111
Mof_C 	C 	0.803	0.7603	0.39265	0.033
Mof_C 	C 	0.8097	0.8053	0.42244	-0.106
Mof_C 	C 	0.836	0.7965	0.46587	0.126
Mof_C 	C 	0.7658	0.7681	0.34683	0.28
Mof_C 	C 	0.0473	0.7704	0.84444	0.424
Mof_C 	C 	0.0733	0.7695	0.89335	-0.045
Mof_C 	C 	0.9978	0.7432	0.92236	-0.053
Mof_C 	C 	0.0225	0.7396	0.96644	0.096
Mof_C 	C 	0.1217	0.761	0.98358	0.012
Mof_C 	C 	0.195	0.7863	0.95247	0.095
Mof_C 	C 	0.1718	0.7909	0.90815	-0.052
Mof_C 	C 	0.1461	0.7509	0.03066	-0.016
Mof_C 	C 	0.1584	0.6967	0.04528	0.127
Mof_C 	C 	0.1833	0.6854	0.08811	-0.108
Mof_C 	C 	0.2017	0.7301	0.11838	0.036
Mof_C 	C 	0.1857	0.7848	0.10609	-0.11
Mof_C 	C 	0.1554	0.7937	0.06369	0.127
Mof_C 	C 	0.2418	0.7206	0.16374	0.274
Mof_C 	C 	0.4973	0.8466	0.26417	0.386
Mof_C 	C 	0.43	0.8912	0.26286	-0.046
Mof_C 	C 	0.334	0.8798	0.24243	-0.056
Mof_C 	C 	0.2734	0.922	0.24226	0.089
Mof_C 	C 	0.3037	0.9759	0.26357	0.003
Mof_C 	C 	0.4009	0.9856	0.28337	0.098
Mof_C 	C 	0.4655	0.945	0.2825	-0.06
Mof_C 	C 	0.2328	0.0191	0.26452	-0.001
Mof_C 	C 	0.1454	0.0108	0.29116	0.1
Mof_C 	C 	0.0723	0.046	0.28982	-0.068
Mof_C 	C 	0.0873	0.0929	0.26069	-0.041
Mof_C 	C 	0.1715	0.1023	0.23317	-0.066
Mof_C 	C 	0.2433	0.066	0.23536	0.093
Mof_C 	C 	0.0072	0.1317	0.25868	0.37
Mof_C 	C 	0.5439	0.7564	0.16808	0.407
Mof_C 	C 	0.5675	0.7612	0.11916	-0.041
Mof_C 	C 	0.4933	0.7343	0.08918	-0.055
Mof_C 	C 	0.5178	0.7362	0.04502	0.098
Mof_C 	C 	0.6138	0.7628	0.02833	0.011
Mof_C 	C 	0.686	0.7893	0.06002	0.096
Mof_C 	C 	0.6627	0.7892	0.10477	-0.055
Mof_C 	C 	0.6419	0.7554	0.98099	-0.016
Mof_C 	C 	0.6443	0.7991	0.94872	0.129
Mof_C 	C 	0.6723	0.7918	0.90587	-0.111
Mof_C 	C 	0.697	0.7397	0.89265	0.033
Mof_C 	C 	0.6903	0.6947	0.92244	-0.106
Mof_C 	C 	0.664	0.7035	0.96587	0.126
Mof_C 	C 	0.7342	0.7319	0.84683	0.28
Mof_C 	C 	0.4527	0.7296	0.34444	0.424
Mof_C 	C 	0.4267	0.7305	0.39335	-0.045
Mof_C 	C 	0.5022	0.7568	0.42236	-0.052
Mof_C 	C 	0.4775	0.7604	0.46644	0.096
Mof_C 	C 	0.3783	0.739	0.48358	0.012
Mof_C 	C 	0.305	0.7137	0.45247	0.095
Mof_C 	C 	0.3282	0.7091	0.40815	-0.052
Mof_C 	C 	0.3539	0.7491	0.53066	-0.016
Mof_C 	C 	0.3416	0.8033	0.54528	0.127
Mof_C 	C 	0.3167	0.8146	0.58811	-0.108
Mof_C 	C 	0.2983	0.7699	0.61838	0.036
Mof_C 	C 	0.3143	0.7152	0.60609	-0.11
Mof_C 	C 	0.3446	0.7063	0.56369	0.127
Mof_C 	C 	0.2582	0.7794	0.66374	0.274
Mof_C 	C 	0.9973	0.3466	0.23583	0.386
Mof_C 	C 	0.93	0.3912	0.23714	-0.046
Mof_C 	C 	0.834	0.3798	0.25757	-0.056
Mof_C 	C 	0.7734	0.422	0.25774	0.089
Mof_C 	C 	0.8037	0.4759	0.23643	0.003
Mof_C 	C 	0.9009	0.4856	0.21663	0.098
Mof_C 	C 	0.9655	0.445	0.2175	-0.061
Mof_C 	C 	0.7328	0.5191	0.23548	-0
Mof_C 	C 	0.6454	0.5108	0.20884	0.1
Mof_C 	C 	0.5723	0.546	0.21018	-0.068
Mof_C 	C 	0.5873	0.5929	0.23931	-0.041
Mof_C 	C 	0.6715	0.6023	0.26683	-0.066
Mof_C 	C 	0.7433	0.566	0.26464	0.093
Mof_C 	C 	0.5072	0.6317	0.24132	0.371
Mof_C 	C 	0.0439	0.2564	0.33192	0.407
Mof_C 	C 	0.0675	0.2612	0.38084	-0.042
Mof_C 	C 	0.9933	0.2343	0.41082	-0.054
Mof_C 	C 	0.0178	0.2362	0.45498	0.097
Mof_C 	C 	0.1138	0.2628	0.47167	0.012
Mof_C 	C 	0.186	0.2893	0.43998	0.096
Mof_C 	C 	0.1627	0.2892	0.39523	-0.055
Mof_C 	C 	0.1419	0.2554	0.51901	-0.016
Mof_C 	C 	0.1443	0.2991	0.55128	0.129
Mof_C 	C 	0.1723	0.2918	0.59413	-0.111
Mof_C 	C 	0.197	0.2397	0.60735	0.033
Mof_C 	C 	0.1903	0.1947	0.57756	-0.106
Mof_C 	C 	0.164	0.2035	0.53413	0.126
Mof_C 	C 	0.2342	0.2319	0.65317	0.28
Mof_C 	C 	0.9527	0.2296	0.15556	0.424
Mof_C 	C 	0.9267	0.2305	0.10665	-0.045
Mof_C 	C 	0.0022	0.2568	0.07764	-0.053
Mof_C 	C 	0.9775	0.2604	0.03356	0.096
Mof_C 	C 	0.8783	0.239	0.01642	0.012
Mof_C 	C 	0.805	0.2137	0.04753	0.095
Mof_C 	C 	0.8282	0.2091	0.09185	-0.052
Mof_C 	C 	0.8539	0.2491	0.96934	-0.016
Mof_C 	C 	0.8416	0.3033	0.95472	0.127
Mof_C 	C 	0.8167	0.3146	0.91189	-0.108
Mof_C 	C 	0.7983	0.2699	0.88162	0.036
Mof_C 	C 	0.8143	0.2152	0.89391	-0.11
Mof_C 	C 	0.8446	0.2063	0.93631	0.127
Mof_C 	C 	0.7582	0.2794	0.83626	0.274
Mof_C 	C 	0.5027	0.1534	0.73583	0.386
Mof_C 	C 	0.57	0.1088	0.73714	-0.046
Mof_C 	C 	0.666	0.1202	0.75757	-0.056
Mof_C 	C 	0.7266	0.078	0.75774	0.089
Mof_C 	C 	0.6963	0.0241	0.73643	0.003
Mof_C 	C 	0.5991	0.0144	0.71663	0.098
Mof_C 	C 	0.5345	0.055	0.7175	-0.06
Mof_C 	C 	0.7672	0.9809	0.73548	-0.001
Mof_C 	C 	0.8546	0.9892	0.70884	0.1
Mof_C 	C 	0.9277	0.954	0.71018	-0.068
Mof_C 	C 	0.9127	0.9071	0.73931	-0.041
Mof_C 	C 	0.8285	0.8977	0.76683	-0.066
Mof_C 	C 	0.7567	0.934	0.76464	0.093
Mof_C 	C 	0.9928	0.8683	0.74132	0.37
Mof_C 	C 	0.4561	0.2436	0.83192	0.407
Mof_C 	C 	0.4325	0.2388	0.88084	-0.041
Mof_C 	C 	0.5067	0.2657	0.91082	-0.055
Mof_C 	C 	0.4822	0.2638	0.95498	0.098
Mof_C 	C 	0.3862	0.2372	0.97167	0.011
Mof_C 	C 	0.314	0.2107	0.93998	0.096
Mof_C 	C 	0.3373	0.2108	0.89523	-0.055
Mof_C 	C 	0.3581	0.2446	0.01901	-0.016
Mof_C 	C 	0.3557	0.2009	0.05128	0.129
Mof_C 	C 	0.3277	0.2082	0.09413	-0.111
Mof_C 	C 	0.303	0.2603	0.10735	0.033
Mof_C 	C 	0.3097	0.3053	0.07756	-0.106
Mof_C 	C 	0.336	0.2965	0.03413	0.126
Mof_C 	C 	0.2658	0.2681	0.15317	0.28
Mof_C 	C 	0.5473	0.2704	0.65556	0.424
Mof_C 	C 	0.5733	0.2695	0.60665	-0.045
Mof_C 	C 	0.4978	0.2432	0.57764	-0.052
Mof_C 	C 	0.5225	0.2396	0.53356	0.096
Mof_C 	C 	0.6217	0.261	0.51642	0.012
Mof_C 	C 	0.695	0.2863	0.54753	0.095
Mof_C 	C 	0.6718	0.2909	0.59185	-0.052
Mof_C 	C 	0.6461	0.2509	0.46934	-0.016
Mof_C 	C 	0.6584	0.1967	0.45472	0.127
Mof_C 	C 	0.6833	0.1854	0.41189	-0.108
Mof_C 	C 	0.7017	0.2301	0.38162	0.036
Mof_C 	C 	0.6857	0.2848	0.39391	-0.11
Mof_C 	C 	0.6554	0.2937	0.43631	0.127
Mof_C 	C 	0.7418	0.2206	0.33626	0.274
Mof_N 	N 	0.3256	0.592	0.71792	-0.003
Mof_N 	N 	0.0604	0.4613	0.80838	-0.005
Mof_N 	N 	0.3751	0.5396	0.82078	-0.008
Mof_N 	N 	0.1686	0.4223	0.7045	-0.006
Mof_N 	N 	0.0636	0.7952	0.5154	-0.006
Mof_N 	N 	0.7067	0.6844	0.54736	-0.005
Mof_N 	N 	0.8835	0.645	0.46047	-0.01
Mof_N 	N 	0.8393	0.8459	0.49593	-0.009
Mof_N 	N 	0.9393	0.7092	0.99534	-0.009
Mof_N 	N 	0.304	0.8104	0.96531	-0.003
Mof_N 	N 	0.1445	0.6461	0.01454	-0.009
Mof_N 	N 	0.1348	0.8518	0.05281	-0.006
Mof_N 	N 	0.1744	0.908	0.21792	-0.003
Mof_N 	N 	0.4396	0.0387	0.30838	-0.005
Mof_N 	N 	0.1249	0.9604	0.32078	-0.008
Mof_N 	N 	0.3314	0.0777	0.2045	-0.006
Mof_N 	N 	0.4364	0.7048	0.0154	-0.006
Mof_N 	N 	0.7933	0.8156	0.04736	-0.005
Mof_N 	N 	0.6165	0.855	0.96047	-0.01
Mof_N 	N 	0.6607	0.6541	0.99593	-0.01
Mof_N 	N 	0.5607	0.7908	0.49534	-0.009
Mof_N 	N 	0.196	0.6896	0.46531	-0.003
Mof_N 	N 	0.3555	0.8539	0.51454	-0.009
Mof_N 	N 	0.3652	0.6482	0.55281	-0.006
Mof_N 	N 	0.6744	0.408	0.28208	-0.003
Mof_N 	N 	0.9396	0.5387	0.19162	-0.005
Mof_N 	N 	0.6249	0.4604	0.17922	-0.008
Mof_N 	N 	0.8314	0.5777	0.2955	-0.006
Mof_N 	N 	0.9364	0.2048	0.4846	-0.006
Mof_N 	N 	0.2933	0.3156	0.45264	-0.005
Mof_N 	N 	0.1165	0.355	0.53953	-0.01
Mof_N 	N 	0.1607	0.1541	0.50407	-0.009
Mof_N 	N 	0.0607	0.2908	0.00466	-0.009
Mof_N 	N 	0.696	0.1896	0.03469	-0.003
Mof_N 	N 	0.8555	0.3539	0.98546	-0.009
Mof_N 	N 	0.8652	0.1482	0.94719	-0.006
Mof_N 	N 	0.8256	0.092	0.78208	-0.003
Mof_N 	N 	0.5604	0.9613	0.69162	-0.005
Mof_N 	N 	0.8751	0.0396	0.67922	-0.008
Mof_N 	N 	0.6686	0.9223	0.7955	-0.006
Mof_N 	N 	0.5636	0.2952	0.9846	-0.006
Mof_N 	N 	0.2067	0.1844	0.95264	-0.005
Mof_N 	N 	0.3835	0.145	0.03953	-0.01
Mof_N 	N 	0.3393	0.3459	0.00407	-0.01
Mof_N 	N 	0.4393	0.2092	0.50466	-0.009
Mof_N 	N 	0.804	0.3104	0.53469	-0.003
Mof_N 	N 	0.6445	0.1461	0.48546	-0.009
Mof_N 	N 	0.6348	0.3518	0.44719	-0.006
Mof_O 	O 	0.9077	0.63734	0.77227	-0.404
Mof_O 	O 	0.0434	0.70594	0.75622	-0.498
Mof_O 	O 	0.466	0.31853	0.74132	-0.513
Mof_O 	O 	0.5812	0.3865	0.77359	-0.38
Mof_O 	O 	0.3639	0.6418	0.7128	-0.107
Mof_O 	O 	0.3633	0.5522	0.704	-0.086
Mof_O 	O 	0.1231	0.4351	0.8244	-0.083
Mof_O 	O 	0.968	0.4458	0.8141	-0.094
Mof_O 	O 	0.3022	0.5548	0.83875	-0.079
Mof_O 	O 	0.4664	0.5647	0.82462	-0.09
Mof_O 	O 	0.0822	0.4259	0.7193	-0.096
Mof_O 	O 	0.1818	0.4041	0.66916	-0.088
Mof_O 	O 	0.8887	0.71537	0.69307	-0.447
Mof_O 	O 	0.0394	0.77699	0.67863	-0.412
Mof_O 	O 	0.7476	0.81704	0.33602	-0.337
Mof_O 	O 	0.7493	0.72503	0.32133	-0.376
Mof_O 	O 	0.1295	0.83384	0.53159	-0.078
Mof_O 	O 	0.0619	0.7815	0.47684	-0.07
Mof_O 	O 	0.6406	0.6745	0.57656	-0.077
Mof_O 	O 	0.6876	0.6721	0.50932	-0.072
Mof_O 	O 	0.921	0.6396	0.49645	-0.065
Mof_O 	O 	0.8692	0.6065	0.43315	-0.065
Mof_O 	O 	0.819	0.837	0.53451	-0.072
Mof_O 	O 	0.8646	0.8946	0.48021	-0.065
Mof_O 	O 	0.9571	0.74741	0.83385	-0.422
Mof_O 	O 	0.1198	0.79495	0.81995	-0.447
Mof_O 	O 	0.2414	0.66889	0.17612	-0.347
Mof_O 	O 	0.2764	0.76451	0.18666	-0.355
Mof_O 	O 	0.8774	0.6671	0.9798	-0.074
Mof_O 	O 	0.9365	0.7247	0.03295	-0.069
Mof_O 	O 	0.3673	0.8256	0.93616	-0.078
Mof_O 	O 	0.326	0.8116	0.00414	-0.073
Mof_O 	O 	0.1709	0.6548	0.9765	-0.069
Mof_O 	O 	0.1068	0.5982	0.02998	-0.063
Mof_O 	O 	0.1039	0.861	0.01754	-0.068
Mof_O 	O 	0.142	0.8862	0.0812	-0.069
Mof_O 	O 	0.5923	0.86266	0.27227	-0.404
Mof_O 	O 	0.4566	0.79406	0.25622	-0.498
Mof_O 	O 	0.034	0.18147	0.24132	-0.513
Mof_O 	O 	0.9188	0.1135	0.27359	-0.38
Mof_O 	O 	0.1361	0.8582	0.2128	-0.107
Mof_O 	O 	0.1367	0.9478	0.204	-0.086
Mof_O 	O 	0.3769	0.0649	0.3244	-0.083
Mof_O 	O 	0.532	0.0542	0.3141	-0.094
Mof_O 	O 	0.1978	0.9452	0.33875	-0.079
Mof_O 	O 	0.0336	0.9353	0.32462	-0.089
Mof_O 	O 	0.4178	0.0741	0.2193	-0.096
Mof_O 	O 	0.3182	0.0959	0.16916	-0.088
Mof_O 	O 	0.6113	0.78463	0.19307	-0.447
Mof_O 	O 	0.4606	0.72301	0.17863	-0.412
Mof_O 	O 	0.7524	0.68296	0.83602	-0.337
Mof_O 	O 	0.7507	0.77497	0.82133	-0.376
Mof_O 	O 	0.3705	0.66616	0.03159	-0.078
Mof_O 	O 	0.4381	0.7185	0.97684	-0.07
Mof_O 	O 	0.8594	0.8255	0.07656	-0.078
Mof_O 	O 	0.8124	0.8279	0.00932	-0.072
Mof_O 	O 	0.579	0.8604	0.99645	-0.066
Mof_O 	O 	0.6308	0.8935	0.93315	-0.065
Mof_O 	O 	0.681	0.663	0.03451	-0.072
Mof_O 	O 	0.6354	0.6054	0.98021	-0.064
Mof_O 	O 	0.5429	0.75259	0.33385	-0.422
Mof_O 	O 	0.3802	0.70505	0.31995	-0.447
Mof_O 	O 	0.2586	0.83111	0.67612	-0.347
Mof_O 	O 	0.2236	0.73549	0.68666	-0.355
Mof_O 	O 	0.6226	0.8329	0.4798	-0.074
Mof_O 	O 	0.5635	0.7753	0.53295	-0.069
Mof_O 	O 	0.1327	0.6744	0.43616	-0.078
Mof_O 	O 	0.174	0.6884	0.50414	-0.073
Mof_O 	O 	0.3291	0.8452	0.4765	-0.069
Mof_O 	O 	0.3932	0.9018	0.52998	-0.063
Mof_O 	O 	0.3961	0.639	0.51754	-0.068
Mof_O 	O 	0.358	0.6138	0.5812	-0.069
Mof_O 	O 	0.0923	0.36266	0.22773	-0.404
Mof_O 	O 	0.9566	0.29406	0.24378	-0.498
Mof_O 	O 	0.534	0.68147	0.25868	-0.513
Mof_O 	O 	0.4188	0.6135	0.22641	-0.38
Mof_O 	O 	0.6361	0.3582	0.2872	-0.107
Mof_O 	O 	0.6367	0.4478	0.296	-0.086
Mof_O 	O 	0.8769	0.5649	0.1756	-0.083
Mof_O 	O 	0.032	0.5542	0.1859	-0.094
Mof_O 	O 	0.6978	0.4452	0.16125	-0.079
Mof_O 	O 	0.5336	0.4353	0.17538	-0.09
Mof_O 	O 	0.9178	0.5741	0.2807	-0.096
Mof_O 	O 	0.8182	0.5959	0.33084	-0.088
Mof_O 	O 	0.1113	0.28463	0.30693	-0.447
Mof_O 	O 	0.9606	0.22301	0.32137	-0.412
Mof_O 	O 	0.2524	0.18296	0.66398	-0.337
Mof_O 	O 	0.2507	0.27497	0.67867	-0.376
Mof_O 	O 	0.8705	0.16616	0.46841	-0.078
Mof_O 	O 	0.9381	0.2185	0.52316	-0.07
Mof_O 	O 	0.3594	0.3255	0.42344	-0.077
Mof_O 	O 	0.3124	0.3279	0.49068	-0.072
Mof_O 	O 	0.079	0.3604	0.50355	-0.065
Mof_O 	O 	0.1308	0.3935	0.56685	-0.065
Mof_O 	O 	0.181	0.163	0.46549	-0.072
Mof_O 	O 	0.1354	0.1054	0.51979	-0.065
Mof_O 	O 	0.0429	0.25259	0.16615	-0.422
Mof_O 	O 	0.8802	0.20505	0.18005	-0.447
Mof_O 	O 	0.7586	0.33111	0.82388	-0.347
Mof_O 	O 	0.7236	0.23549	0.81334	-0.355
Mof_O 	O 	0.1226	0.3329	0.0202	-0.074
Mof_O 	O 	0.0635	0.2753	0.96705	-0.069
Mof_O 	O 	0.6327	0.1744	0.06384	-0.078
Mof_O 	O 	0.674	0.1884	0.99586	-0.073
Mof_O 	O 	0.8291	0.3452	0.0235	-0.069
Mof_O 	O 	0.8932	0.4018	0.97002	-0.063
Mof_O 	O 	0.8961	0.139	0.98246	-0.068
Mof_O 	O 	0.858	0.1138	0.9188	-0.069
Mof_O 	O 	0.4077	0.13734	0.72773	-0.404
Mof_O 	O 	0.5434	0.20594	0.74378	-0.498
Mof_O 	O 	0.966	0.81853	0.75868	-0.513
Mof_O 	O 	0.0812	0.8865	0.72641	-0.38
Mof_O 	O 	0.8639	0.1418	0.7872	-0.107
Mof_O 	O 	0.8633	0.0522	0.796	-0.086
Mof_O 	O 	0.6231	0.9351	0.6756	-0.083
Mof_O 	O 	0.468	0.9458	0.6859	-0.094
Mof_O 	O 	0.8022	0.0548	0.66125	-0.079
Mof_O 	O 	0.9664	0.0647	0.67538	-0.089
Mof_O 	O 	0.5822	0.9259	0.7807	-0.096
Mof_O 	O 	0.6818	0.9041	0.83084	-0.088
Mof_O 	O 	0.3887	0.21537	0.80693	-0.447
Mof_O 	O 	0.5394	0.27699	0.82137	-0.412
Mof_O 	O 	0.2476	0.31704	0.16398	-0.337
Mof_O 	O 	0.2493	0.22503	0.17867	-0.376
Mof_O 	O 	0.6295	0.33384	0.96841	-0.078
Mof_O 	O 	0.5619	0.2815	0.02316	-0.07
Mof_O 	O 	0.1406	0.1745	0.92344	-0.078
Mof_O 	O 	0.1876	0.1721	0.99068	-0.072
Mof_O 	O 	0.421	0.1396	0.00355	-0.066
Mof_O 	O 	0.3692	0.1065	0.06685	-0.065
Mof_O 	O 	0.319	0.337	0.96549	-0.072
Mof_O 	O 	0.3646	0.3946	0.01979	-0.064
Mof_O 	O 	0.4571	0.24741	0.66615	-0.422
Mof_O 	O 	0.6198	0.29495	0.68005	-0.447
Mof_O 	O 	0.7414	0.16889	0.32388	-0.347
Mof_O 	O 	0.7764	0.26451	0.31334	-0.355
Mof_O 	O 	0.3774	0.1671	0.5202	-0.074
Mof_O 	O 	0.4365	0.2247	0.46705	-0.069
Mof_O 	O 	0.8673	0.3256	0.56384	-0.078
Mof_O 	O 	0.826	0.3116	0.49586	-0.073
Mof_O 	O 	0.6709	0.1548	0.5235	-0.069
Mof_O 	O 	0.6068	0.0982	0.47002	-0.063
Mof_O 	O 	0.6039	0.361	0.48246	-0.068
Mof_O 	O 	0.642	0.3862	0.4188	-0.069
_end
