data_functionalizedCrystal
_audit_creation_method	'EQeq! by Chris Wilmer'
_symmetry_space_group_name_H-M	'P1'
_symmetry_Int_Tables_number	1
_symmetry_cell_setting	triclinic
loop_
_symmetry_equiv_pos_as_xyz
  x,y,z
_cell_length_a	15.825
_cell_length_b	23.261
_cell_length_c	23.883
_cell_angle_alpha	90
_cell_angle_beta	91.142
_cell_angle_gamma	90
loop_
_atom_site_label
_atom_site_type_symbol
_atom_site_fract_x
_atom_site_fract_y
_atom_site_fract_z
_atom_site_charge
Mof_Yb	Yb	0.24839	0.78724	0.98956	1.893
Mof_O 	O 	0.1313	0.8157	0.0363	-0.763
Mof_O 	O 	0.157	0.7075	0.0057	-0.771
Mof_O 	O 	0.261	0.7561	0.0811	-0.755
Mof_O 	O 	0.2325	0.7662	0.896	-0.734
Mof_O 	O 	0.3626	0.8224	0.943	-0.792
Mof_O 	O 	0.3403	0.7127	0.9632	-0.772
Mof_O 	O 	0.1833	0.8739	0.953	-0.468
Mof_O 	O 	0.3153	0.8667	0.0364	-0.487
Mof_Yb	Yb	0.15837	0.81523	0.13308	1.644
Mof_Yb	Yb	0.02627	0.7491	0.02218	1.52
Mof_H 	H 	0.1127	0.8538	0.0238	0.227
Mof_Yb	Yb	0.19897	0.66708	0.09086	1.788
Mof_H 	H 	0.1555	0.6797	0.9748	0.21
Mof_H 	H 	0.3188	0.7581	0.0964	0.21
Mof_Yb	Yb	0.33102	0.83276	0.84953	1.621
Mof_Yb	Yb	0.30024	0.67874	0.87509	1.724
Mof_H 	H 	0.1741	0.7687	0.8818	0.211
Mof_Yb	Yb	0.46979	0.75718	0.94809	1.731
Mof_H 	H 	0.3808	0.8592	0.9592	0.228
Mof_H 	H 	0.3443	0.682	0.9912	0.224
Mof_C 	C 	0.1978	0.9114	0.9154	0.418
Mof_C 	C 	0.2972	0.8996	0.0747	0.429
Mof_O 	O 	0.091	0.7312	0.1085	-0.785
Mof_O 	O 	0.0422	0.8704	0.1221	-0.524
Mof_O 	O 	0.2347	0.7694	0.1978	-0.562
Mof_O 	O 	0.2443	0.8879	0.1135	-0.508
Mof_O 	O 	0.9624	0.8305	0.0559	-0.49
Mof_O 	O 	0.0387	0.7758	0.9265	-0.442
Mof_O 	O 	0.9123	0.7621	0.9589	-0.427
Mof_O 	O 	0.2668	0.6793	0.1761	-0.498
Mof_O 	O 	0.0996	0.5978	0.0597	-0.451
Mof_O 	O 	0.1019	0.6162	0.1485	-0.427
Mof_O 	O 	0.3134	0.6252	0.0437	-0.492
Mof_O 	O 	0.2671	0.5778	0.1131	-0.387
Mof_O 	O 	0.4026	0.7483	0.8619	-0.804
Mof_O 	O 	0.2477	0.7941	0.7814	-0.521
Mof_O 	O 	0.447	0.8904	0.8684	-0.5
Mof_O 	O 	0.2436	0.9023	0.8739	-0.511
Mof_O 	O 	0.2189	0.7022	0.7981	-0.528
Mof_O 	O 	0.1823	0.6338	0.9136	-0.47
Mof_O 	O 	0.2393	0.5886	0.8451	-0.416
Mof_O 	O 	0.4021	0.6169	0.9039	-0.529
Mof_O 	O 	0.5324	0.8447	0.9298	-0.508
Mof_O 	O 	0.4996	0.6627	0.9517	-0.539
Mof_O 	O 	0.5811	0.7556	0.0155	-0.424
Mof_O 	O 	0.4549	0.7686	0.0465	-0.448
Mof_C 	C 	0.1571	0.9693	0.918	-0.043
Mof_C 	C 	0.3393	0.958	0.0802	-0.046
Mof_H 	H 	0.0518	0.7176	0.1368	0.169
Mof_C 	C 	0.2727	0.7233	0.2061	0.474
Mof_C 	C 	0.0758	0.586	0.1083	0.328
Mof_C 	C 	0.3188	0.583	0.0717	0.361
Mof_H 	H 	0.4411	0.7394	0.8314	0.147
Mof_C 	C 	0.2094	0.7452	0.771	0.453
Mof_C 	C 	0.0713	0.9721	0.9044	-0.016
Mof_C 	C 	0.2016	0.0193	0.9306	0.007
Mof_C 	C 	0.4258	0.9572	0.0709	-0.01
Mof_C 	C 	0.2998	0.009	0.0947	0.007
Mof_C 	C 	0.3295	0.7228	0.2578	-0.154
Mof_C 	C 	0.012	0.5376	0.1157	-0.099
Mof_C 	C 	0.3744	0.5328	0.0644	-0.091
Mof_C 	C 	0.1531	0.7454	0.7174	-0.146
Mof_C 	C 	0.0301	0.0248	0.9035	-0.021
Mof_H 	H 	0.0415	0.9386	0.896	0.021
Mof_C 	C 	0.1604	0.0721	0.9297	0.019
Mof_C 	C 	0.2873	0.0166	0.9442	-0.043
Mof_C 	C 	0.4726	0.0075	0.0762	-0.013
Mof_H 	H 	0.4523	0.923	0.0612	0.02
Mof_C 	C 	0.2133	0.0098	0.104	-0.055
Mof_C 	C 	0.3466	0.0594	0.0999	0.013
Mof_C 	C 	0.3032	0.7563	0.3022	0.022
Mof_C 	C 	0.4052	0.689	0.2642	0.07
Mof_C 	C 	0.9723	0.5164	0.0686	-0.026
Mof_C 	C 	0.9938	0.5137	0.1675	0.039
Mof_C 	C 	0.3673	0.4961	0.0177	0.019
Mof_C 	C 	0.4324	0.523	0.1055	-0.033
Mof_C 	C 	0.1865	0.772	0.6719	0.017
Mof_C 	C 	0.0771	0.7156	0.7129	0.069
Mof_H 	H 	0.9728	0.0267	0.8944	0.028
Mof_C 	C 	0.0747	0.0749	0.9161	-0.057
Mof_C 	C 	0.2049	0.1221	0.9423	-0.036
Mof_C 	C 	0.3319	0.0666	0.9568	-0.042
Mof_H 	H 	0.3149	0.9812	0.9448	0.025
Mof_H 	H 	0.5305	0.007	0.07	0.009
Mof_C 	C 	0.433	0.0586	0.0907	-0.051
Mof_C 	C 	0.1737	0.0609	0.1185	-0.01
Mof_H 	H 	0.182	0.9761	0.1004	0.044
Mof_C 	C 	0.307	0.1104	0.1144	-0.039
Mof_C 	C 	0.3476	0.756	0.3536	-0.052
Mof_H 	H 	0.2555	0.7792	0.2978	0.009
Mof_C 	C 	0.4513	0.6917	0.3158	0.015
Mof_C 	C 	0.4377	0.6562	0.2184	-0.092
Mof_C 	C 	0.9143	0.4727	0.0716	-0.017
Mof_H 	H 	0.9849	0.5319	0.0339	0.04
Mof_C 	C 	0.9265	0.4725	0.1717	0.036
Mof_C 	C 	0.0341	0.53	0.2194	-0.091
Mof_C 	C 	0.4199	0.4454	0.0175	0.081
Mof_C 	C 	0.309	0.505	0.9732	-0.043
Mof_C 	C 	0.4876	0.4742	0.1036	0.027
Mof_H 	H 	0.4366	0.5483	0.1356	0.043
Mof_H 	H 	0.2372	0.7921	0.6751	0.008
Mof_C 	C 	0.1425	0.7683	0.6202	-0.045
Mof_C 	C 	0.0346	0.7121	0.6603	0.016
Mof_C 	C 	0.0385	0.6903	0.7614	-0.093
Mof_C 	C 	0.0188	0.1281	0.9131	0.426
Mof_H 	H 	0.1773	0.1574	0.9417	0.051
Mof_C 	C 	0.2906	0.1193	0.9559	0.001
Mof_H 	H 	0.3892	0.0647	0.9659	0.042
Mof_C 	C 	0.4888	0.1126	0.098	0.412
Mof_C 	C 	0.2206	0.1112	0.1237	-0.041
Mof_H 	H 	0.1159	0.0614	0.1247	0.027
Mof_H 	H 	0.3384	0.1441	0.118	0.021
Mof_C 	C 	0.4194	0.7248	0.3615	-0.08
Mof_H 	H 	0.3273	0.7778	0.3831	0.047
Mof_C 	C 	0.5275	0.6573	0.3213	-0.065
Mof_H 	H 	0.4088	0.6546	0.1841	0.072
Mof_C 	C 	0.5128	0.6272	0.2267	-0.016
Mof_C 	C 	0.8886	0.4514	0.1197	-0.102
Mof_H 	H 	0.8923	0.4574	0.0384	0.041
Mof_C 	C 	0.9048	0.4496	0.225	-0.084
Mof_H 	H 	0.0781	0.5565	0.2186	0.079
Mof_C 	C 	0.0103	0.5081	0.2705	-0.032
Mof_C 	C 	0.4794	0.437	0.0612	-0.166
Mof_C 	C 	0.4126	0.4085	0.9687	-0.105
Mof_C 	C 	0.303	0.4687	0.9285	-0.059
Mof_H 	H 	0.2734	0.5368	0.9743	0.047
Mof_H 	H 	0.5286	0.4686	0.1316	0.023
Mof_H 	H 	0.1651	0.7865	0.5892	0.049
Mof_C 	C 	0.0712	0.7403	0.6141	-0.082
Mof_C 	C 	0.9565	0.6806	0.658	-0.066
Mof_C 	C 	0.9644	0.6629	0.7568	-0.009
Mof_H 	H 	0.0655	0.6932	0.7963	0.07
Mof_H 	H 	0.3204	0.1528	0.9643	0.035
Mof_H 	H 	0.1941	0.1453	0.1334	0.046
Mof_C 	C 	0.4609	0.7276	0.4185	0.318
Mof_C 	C 	0.554	0.6279	0.2777	-0.035
Mof_H 	H 	0.5574	0.6558	0.3552	0.055
Mof_H 	H 	0.5359	0.6068	0.1972	0.032
Mof_C 	C 	0.8173	0.408	0.1206	0.349
Mof_C 	C 	0.9472	0.468	0.2731	-0.027
Mof_H 	H 	0.8622	0.4222	0.2275	0.076
Mof_H 	H 	0.0373	0.5206	0.3033	0.044
Mof_C 	C 	0.5308	0.3826	0.0671	0.488
Mof_C 	C 	0.3556	0.421	0.9264	-0.002
Mof_H 	H 	0.4468	0.3761	0.966	0.08
Mof_H 	H 	0.2641	0.4757	0.8997	0.053
Mof_C 	C 	0.0326	0.7385	0.5557	0.332
Mof_H 	H 	0.9283	0.6769	0.6236	0.054
Mof_C 	C 	0.922	0.656	0.7039	-0.038
Mof_H 	H 	0.9399	0.6479	0.7887	0.035
Mof_H 	H 	0.6033	0.6065	0.2819	0.039
Mof_H 	H 	0.9325	0.4529	0.3076	0.039
Mof_H 	H 	0.3521	0.3968	0.8955	0.024
Mof_H 	H 	0.872	0.6351	0.7008	0.038
Mof_C 	C 	0.0688	0.074	0.9219	-0.05
Mof_C 	C 	0.0259	0.0221	0.9265	-0.001
Mof_H 	H 	0.9674	0.0219	0.9295	0.012
Mof_C 	C 	0.0704	0.9706	0.9267	-0.012
Mof_H 	H 	0.0417	0.9359	0.9298	0.02
Mof_C 	C 	0.1579	0.971	0.9222	-0.057
Mof_C 	C 	0.2008	0.0228	0.9176	0.023
Mof_C 	C 	0.1562	0.0744	0.9174	0.015
Mof_C 	C 	0.1991	0.1262	0.9128	-0.027
Mof_H 	H 	0.1693	0.1607	0.9127	0.009
Mof_C 	C 	0.2865	0.1266	0.9083	-0.059
Mof_H 	H 	0.3152	0.1613	0.9052	0.049
Mof_C 	C 	0.3311	0.0751	0.9084	-0.015
Mof_H 	H 	0.3896	0.0753	0.9055	0.027
Mof_C 	C 	0.2882	0.0232	0.9131	-0.014
Mof_H 	H 	0.318	0.9888	0.9132	0.027
Mof_C 	C 	0.4316	0.0607	0.0869	-0.046
Mof_C 	C 	0.4743	0.0084	0.0888	-0.011
Mof_H 	H 	0.5327	0.0078	0.0938	0.024
Mof_C 	C 	0.4297	0.9572	0.083	-0.007
Mof_H 	H 	0.4582	0.9223	0.0842	0.014
Mof_C 	C 	0.3424	0.9582	0.0754	-0.056
Mof_C 	C 	0.2997	0.0105	0.0736	0.028
Mof_C 	C 	0.3443	0.0617	0.0794	0.017
Mof_C 	C 	0.3016	0.1139	0.0775	-0.021
Mof_H 	H 	0.3315	0.1481	0.0814	0.038
Mof_C 	C 	0.2143	0.1149	0.0699	-0.028
Mof_H 	H 	0.1857	0.1498	0.0687	0.047
Mof_C 	C 	0.1697	0.0637	0.0642	-0.035
Mof_H 	H 	0.1113	0.0644	0.0591	0.037
Mof_C 	C 	0.2124	0.0115	0.066	-0.019
Mof_H 	H 	0.1825	0.9772	0.0622	0.022
Mof_Yb	Yb	0.25161	0.28724	0.51044	1.896
Mof_O 	O 	0.3687	0.3157	0.4637	-0.763
Mof_O 	O 	0.343	0.2075	0.4943	-0.773
Mof_O 	O 	0.239	0.2561	0.4189	-0.756
Mof_O 	O 	0.2675	0.2662	0.604	-0.735
Mof_O 	O 	0.1374	0.3224	0.557	-0.792
Mof_O 	O 	0.1597	0.2127	0.5368	-0.772
Mof_O 	O 	0.3167	0.3739	0.547	-0.468
Mof_O 	O 	0.1847	0.3667	0.4636	-0.488
Mof_Yb	Yb	0.34163	0.31523	0.36692	1.644
Mof_Yb	Yb	0.47373	0.2491	0.47782	1.517
Mof_H 	H 	0.3873	0.3538	0.4762	0.226
Mof_Yb	Yb	0.30103	0.16708	0.40914	1.788
Mof_H 	H 	0.3445	0.1797	0.5252	0.211
Mof_H 	H 	0.1812	0.2581	0.4036	0.21
Mof_Yb	Yb	0.16898	0.33276	0.65047	1.621
Mof_Yb	Yb	0.19976	0.17874	0.62491	1.724
Mof_H 	H 	0.3259	0.2687	0.6182	0.211
Mof_Yb	Yb	0.03021	0.25718	0.55191	1.732
Mof_H 	H 	0.1192	0.3592	0.5408	0.229
Mof_H 	H 	0.1557	0.182	0.5088	0.224
Mof_C 	C 	0.3022	0.4114	0.5846	0.418
Mof_C 	C 	0.2028	0.3996	0.4253	0.43
Mof_O 	O 	0.409	0.2312	0.3915	-0.785
Mof_O 	O 	0.4578	0.3704	0.3779	-0.525
Mof_O 	O 	0.2653	0.2694	0.3022	-0.562
Mof_O 	O 	0.2557	0.3879	0.3865	-0.508
Mof_O 	O 	0.5376	0.3305	0.4441	-0.49
Mof_O 	O 	0.4613	0.2758	0.5735	-0.441
Mof_O 	O 	0.5877	0.2621	0.5411	-0.426
Mof_O 	O 	0.2332	0.1793	0.3239	-0.498
Mof_O 	O 	0.4004	0.0978	0.4403	-0.451
Mof_O 	O 	0.3981	0.1162	0.3515	-0.427
Mof_O 	O 	0.1866	0.1252	0.4563	-0.492
Mof_O 	O 	0.2329	0.0778	0.3869	-0.387
Mof_O 	O 	0.0974	0.2483	0.6381	-0.804
Mof_O 	O 	0.2523	0.2941	0.7186	-0.521
Mof_O 	O 	0.053	0.3904	0.6316	-0.5
Mof_O 	O 	0.2564	0.4023	0.6261	-0.51
Mof_O 	O 	0.2811	0.2022	0.7019	-0.528
Mof_O 	O 	0.3177	0.1338	0.5864	-0.47
Mof_O 	O 	0.2607	0.0886	0.6549	-0.416
Mof_O 	O 	0.0979	0.1169	0.5961	-0.529
Mof_O 	O 	0.9676	0.3447	0.5702	-0.507
Mof_O 	O 	0.0004	0.1627	0.5483	-0.539
Mof_O 	O 	0.9189	0.2556	0.4845	-0.425
Mof_O 	O 	0.0451	0.2686	0.4535	-0.448
Mof_C 	C 	0.3429	0.4693	0.582	-0.042
Mof_C 	C 	0.1607	0.458	0.4198	-0.047
Mof_H 	H 	0.4482	0.2176	0.3632	0.169
Mof_C 	C 	0.2273	0.2233	0.2939	0.473
Mof_C 	C 	0.4242	0.086	0.3917	0.328
Mof_C 	C 	0.1812	0.083	0.4283	0.361
Mof_H 	H 	0.0589	0.2394	0.6686	0.147
Mof_C 	C 	0.2906	0.2452	0.729	0.453
Mof_C 	C 	0.4287	0.4721	0.5956	-0.015
Mof_C 	C 	0.2984	0.5193	0.5694	0.008
Mof_C 	C 	0.0742	0.4572	0.4291	-0.011
Mof_C 	C 	0.2002	0.509	0.4053	0.007
Mof_C 	C 	0.1705	0.2228	0.2422	-0.153
Mof_C 	C 	0.488	0.0376	0.3843	-0.099
Mof_C 	C 	0.1256	0.0328	0.4356	-0.091
Mof_C 	C 	0.3469	0.2454	0.7826	-0.146
Mof_C 	C 	0.4699	0.5248	0.5965	-0.022
Mof_H 	H 	0.4585	0.4386	0.604	0.021
Mof_C 	C 	0.3396	0.5721	0.5703	0.019
Mof_C 	C 	0.2127	0.5166	0.5558	-0.044
Mof_C 	C 	0.0274	0.5075	0.4238	-0.012
Mof_H 	H 	0.0477	0.423	0.4388	0.019
Mof_C 	C 	0.2867	0.5098	0.396	-0.054
Mof_C 	C 	0.1534	0.5594	0.4001	0.012
Mof_C 	C 	0.1968	0.2563	0.1978	0.022
Mof_C 	C 	0.0948	0.189	0.2358	0.069
Mof_C 	C 	0.5277	0.0164	0.4314	-0.027
Mof_C 	C 	0.5062	0.0137	0.3325	0.037
Mof_C 	C 	0.1327	0.9961	0.4823	0.017
Mof_C 	C 	0.0676	0.023	0.3945	-0.034
Mof_C 	C 	0.3135	0.272	0.8281	0.016
Mof_C 	C 	0.4229	0.2156	0.7871	0.069
Mof_H 	H 	0.5272	0.5267	0.6056	0.028
Mof_C 	C 	0.4253	0.5749	0.5839	-0.057
Mof_C 	C 	0.2951	0.6221	0.5577	-0.035
Mof_C 	C 	0.1681	0.5666	0.5432	-0.042
Mof_H 	H 	0.1851	0.4812	0.5552	0.026
Mof_H 	H 	0.9695	0.507	0.43	0.009
Mof_C 	C 	0.067	0.5586	0.4093	-0.051
Mof_C 	C 	0.3263	0.5609	0.3815	-0.01
Mof_H 	H 	0.318	0.4761	0.3996	0.043
Mof_C 	C 	0.193	0.6104	0.3856	-0.041
Mof_C 	C 	0.1524	0.256	0.1464	-0.051
Mof_H 	H 	0.2445	0.2792	0.2022	0.009
Mof_C 	C 	0.0487	0.1917	0.1842	0.016
Mof_C 	C 	0.0623	0.1562	0.2816	-0.09
Mof_C 	C 	0.5857	0.9727	0.4284	-0.016
Mof_H 	H 	0.5151	0.0319	0.4661	0.04
Mof_C 	C 	0.5735	0.9725	0.3283	0.038
Mof_C 	C 	0.4659	0.03	0.2806	-0.089
Mof_C 	C 	0.0801	0.9454	0.4825	0.082
Mof_C 	C 	0.191	0.005	0.5268	-0.042
Mof_C 	C 	0.0124	0.9742	0.3964	0.028
Mof_H 	H 	0.0634	0.0483	0.3644	0.043
Mof_H 	H 	0.2628	0.2921	0.8249	0.008
Mof_C 	C 	0.3575	0.2683	0.8798	-0.045
Mof_C 	C 	0.4654	0.2121	0.8397	0.017
Mof_C 	C 	0.4615	0.1903	0.7386	-0.092
Mof_C 	C 	0.4812	0.6281	0.5869	0.426
Mof_H 	H 	0.3227	0.6574	0.5583	0.05
Mof_C 	C 	0.2094	0.6193	0.5441	0.001
Mof_H 	H 	0.1108	0.5647	0.5341	0.041
Mof_C 	C 	0.0112	0.6126	0.402	0.412
Mof_C 	C 	0.2794	0.6112	0.3763	-0.04
Mof_H 	H 	0.3841	0.5614	0.3753	0.027
Mof_H 	H 	0.1616	0.6441	0.382	0.022
Mof_C 	C 	0.0806	0.2248	0.1385	-0.08
Mof_H 	H 	0.1727	0.2778	0.1169	0.047
Mof_C 	C 	0.9725	0.1573	0.1787	-0.067
Mof_H 	H 	0.0912	0.1546	0.3159	0.072
Mof_C 	C 	0.9872	0.1272	0.2733	-0.017
Mof_C 	C 	0.6114	0.9514	0.3803	-0.103
Mof_H 	H 	0.6077	0.9574	0.4616	0.041
Mof_C 	C 	0.5952	0.9496	0.275	-0.086
Mof_H 	H 	0.4219	0.0565	0.2814	0.078
Mof_C 	C 	0.4897	0.0081	0.2295	-0.036
Mof_C 	C 	0.0206	0.937	0.4388	-0.167
Mof_C 	C 	0.0874	0.9085	0.5313	-0.107
Mof_C 	C 	0.197	0.9687	0.5715	-0.06
Mof_H 	H 	0.2266	0.0368	0.5257	0.046
Mof_H 	H 	0.9714	0.9686	0.3684	0.022
Mof_H 	H 	0.3349	0.2865	0.9108	0.049
Mof_C 	C 	0.4288	0.2403	0.8859	-0.083
Mof_C 	C 	0.5435	0.1806	0.842	-0.067
Mof_C 	C 	0.5356	0.1629	0.7432	-0.011
Mof_H 	H 	0.4345	0.1932	0.7037	0.069
Mof_H 	H 	0.1796	0.6528	0.5357	0.035
Mof_H 	H 	0.3059	0.6453	0.3666	0.045
Mof_C 	C 	0.0391	0.2276	0.0815	0.319
Mof_C 	C 	0.946	0.1279	0.2223	-0.034
Mof_H 	H 	0.9426	0.1558	0.1448	0.056
Mof_H 	H 	0.9641	0.1068	0.3028	0.032
Mof_C 	C 	0.6827	0.908	0.3794	0.35
Mof_C 	C 	0.5528	0.968	0.2269	-0.023
Mof_H 	H 	0.6378	0.9222	0.2725	0.077
Mof_H 	H 	0.4627	0.0206	0.1967	0.045
Mof_C 	C 	0.9692	0.8826	0.4329	0.489
Mof_C 	C 	0.1444	0.921	0.5736	-0.001
Mof_H 	H 	0.0532	0.8761	0.534	0.08
Mof_H 	H 	0.2359	0.9757	0.6003	0.053
Mof_C 	C 	0.4674	0.2385	0.9443	0.332
Mof_H 	H 	0.5717	0.1769	0.8764	0.054
Mof_C 	C 	0.578	0.156	0.7961	-0.037
Mof_H 	H 	0.5601	0.1479	0.7113	0.035
Mof_H 	H 	0.8967	0.1065	0.2181	0.038
Mof_H 	H 	0.5675	0.9529	0.1924	0.037
Mof_H 	H 	0.1479	0.8968	0.6045	0.024
Mof_H 	H 	0.628	0.1351	0.7992	0.037
Mof_C 	C 	0.4312	0.574	0.5781	-0.05
Mof_C 	C 	0.4741	0.5221	0.5735	-0.001
Mof_H 	H 	0.5326	0.5219	0.5705	0.011
Mof_C 	C 	0.4296	0.4706	0.5733	-0.011
Mof_H 	H 	0.4583	0.4359	0.5702	0.02
Mof_C 	C 	0.3421	0.471	0.5778	-0.057
Mof_C 	C 	0.2992	0.5228	0.5824	0.022
Mof_C 	C 	0.3438	0.5744	0.5826	0.015
Mof_C 	C 	0.3009	0.6262	0.5872	-0.028
Mof_H 	H 	0.3307	0.6607	0.5873	0.009
Mof_C 	C 	0.2135	0.6266	0.5917	-0.06
Mof_H 	H 	0.1848	0.6613	0.5948	0.049
Mof_C 	C 	0.1689	0.5751	0.5916	-0.013
Mof_H 	H 	0.1104	0.5753	0.5945	0.027
Mof_C 	C 	0.2118	0.5232	0.5869	-0.017
Mof_H 	H 	0.182	0.4888	0.5868	0.029
Mof_C 	C 	0.0684	0.5607	0.4131	-0.046
Mof_C 	C 	0.0257	0.5084	0.4112	-0.01
Mof_H 	H 	0.9673	0.5078	0.4062	0.024
Mof_C 	C 	0.0703	0.4572	0.417	-0.008
Mof_H 	H 	0.0418	0.4223	0.4158	0.015
Mof_C 	C 	0.1576	0.4582	0.4246	-0.056
Mof_C 	C 	0.2003	0.5105	0.4264	0.029
Mof_C 	C 	0.1557	0.5617	0.4206	0.018
Mof_C 	C 	0.1984	0.6139	0.4225	-0.02
Mof_H 	H 	0.1685	0.6481	0.4186	0.038
Mof_C 	C 	0.2857	0.6149	0.4301	-0.028
Mof_H 	H 	0.3143	0.6498	0.4313	0.047
Mof_C 	C 	0.3303	0.5637	0.4358	-0.036
Mof_H 	H 	0.3887	0.5644	0.4409	0.038
Mof_C 	C 	0.2876	0.5115	0.434	-0.017
Mof_H 	H 	0.3175	0.4772	0.4378	0.02
Mof_Yb	Yb	0.75161	0.21276	0.01044	1.893
Mof_O 	O 	0.8687	0.1843	0.9637	-0.763
Mof_O 	O 	0.843	0.2925	0.9943	-0.771
Mof_O 	O 	0.739	0.2439	0.9189	-0.755
Mof_O 	O 	0.7675	0.2338	0.104	-0.734
Mof_O 	O 	0.6374	0.1776	0.057	-0.792
Mof_O 	O 	0.6597	0.2873	0.0368	-0.772
Mof_O 	O 	0.8167	0.1261	0.047	-0.468
Mof_O 	O 	0.6847	0.1333	0.9636	-0.487
Mof_Yb	Yb	0.84163	0.18477	0.86692	1.644
Mof_Yb	Yb	0.97373	0.2509	0.97782	1.52
Mof_H 	H 	0.8873	0.1462	0.9762	0.227
Mof_Yb	Yb	0.80103	0.33292	0.90914	1.788
Mof_H 	H 	0.8445	0.3203	0.0252	0.21
Mof_H 	H 	0.6812	0.2419	0.9036	0.21
Mof_Yb	Yb	0.66898	0.16724	0.15047	1.621
Mof_Yb	Yb	0.69976	0.32126	0.12491	1.724
Mof_H 	H 	0.8259	0.2313	0.1182	0.211
Mof_Yb	Yb	0.53021	0.24282	0.05191	1.731
Mof_H 	H 	0.6192	0.1408	0.0408	0.228
Mof_H 	H 	0.6557	0.318	0.0088	0.224
Mof_C 	C 	0.8022	0.0886	0.0846	0.418
Mof_C 	C 	0.7028	0.1004	0.9253	0.429
Mof_O 	O 	0.909	0.2688	0.8915	-0.785
Mof_O 	O 	0.9578	0.1296	0.8779	-0.524
Mof_O 	O 	0.7653	0.2306	0.8022	-0.562
Mof_O 	O 	0.7557	0.1121	0.8865	-0.508
Mof_O 	O 	0.0376	0.1695	0.9441	-0.49
Mof_O 	O 	0.9613	0.2242	0.0735	-0.442
Mof_O 	O 	0.0877	0.2379	0.0411	-0.427
Mof_O 	O 	0.7332	0.3207	0.8239	-0.498
Mof_O 	O 	0.9004	0.4022	0.9403	-0.451
Mof_O 	O 	0.8981	0.3838	0.8515	-0.427
Mof_O 	O 	0.6866	0.3748	0.9563	-0.492
Mof_O 	O 	0.7329	0.4222	0.8869	-0.387
Mof_O 	O 	0.5974	0.2517	0.1381	-0.804
Mof_O 	O 	0.7523	0.2059	0.2186	-0.521
Mof_O 	O 	0.553	0.1096	0.1316	-0.5
Mof_O 	O 	0.7564	0.0977	0.1261	-0.511
Mof_O 	O 	0.7811	0.2978	0.2019	-0.528
Mof_O 	O 	0.8177	0.3662	0.0864	-0.47
Mof_O 	O 	0.7607	0.4114	0.1549	-0.416
Mof_O 	O 	0.5979	0.3831	0.0961	-0.529
Mof_O 	O 	0.4676	0.1553	0.0702	-0.508
Mof_O 	O 	0.5004	0.3373	0.0483	-0.539
Mof_O 	O 	0.4189	0.2444	0.9845	-0.424
Mof_O 	O 	0.5451	0.2314	0.9535	-0.448
Mof_C 	C 	0.8429	0.0307	0.082	-0.043
Mof_C 	C 	0.6607	0.042	0.9198	-0.046
Mof_H 	H 	0.9482	0.2824	0.8632	0.169
Mof_C 	C 	0.7273	0.2767	0.7939	0.474
Mof_C 	C 	0.9242	0.414	0.8917	0.328
Mof_C 	C 	0.6812	0.417	0.9283	0.361
Mof_H 	H 	0.5589	0.2606	0.1686	0.147
Mof_C 	C 	0.7906	0.2548	0.229	0.453
Mof_C 	C 	0.9287	0.0279	0.0956	-0.016
Mof_C 	C 	0.7984	0.9807	0.0694	0.007
Mof_C 	C 	0.5742	0.0428	0.9291	-0.01
Mof_C 	C 	0.7002	0.991	0.9053	0.007
Mof_C 	C 	0.6705	0.2772	0.7422	-0.154
Mof_C 	C 	0.988	0.4624	0.8843	-0.099
Mof_C 	C 	0.6256	0.4672	0.9356	-0.091
Mof_C 	C 	0.8469	0.2546	0.2826	-0.146
Mof_C 	C 	0.9699	0.9752	0.0965	-0.021
Mof_H 	H 	0.9585	0.0614	0.104	0.021
Mof_C 	C 	0.8396	0.9279	0.0703	0.019
Mof_C 	C 	0.7127	0.9834	0.0558	-0.043
Mof_C 	C 	0.5274	0.9925	0.9238	-0.013
Mof_H 	H 	0.5477	0.077	0.9388	0.02
Mof_C 	C 	0.7867	0.9902	0.896	-0.055
Mof_C 	C 	0.6534	0.9406	0.9001	0.013
Mof_C 	C 	0.6968	0.2437	0.6978	0.022
Mof_C 	C 	0.5948	0.311	0.7358	0.07
Mof_C 	C 	0.0277	0.4836	0.9314	-0.026
Mof_C 	C 	0.0062	0.4863	0.8325	0.039
Mof_C 	C 	0.6327	0.5039	0.9823	0.019
Mof_C 	C 	0.5676	0.477	0.8945	-0.033
Mof_C 	C 	0.8135	0.228	0.3281	0.017
Mof_C 	C 	0.9229	0.2844	0.2871	0.069
Mof_H 	H 	0.0272	0.9733	0.1056	0.028
Mof_C 	C 	0.9253	0.9251	0.0839	-0.057
Mof_C 	C 	0.7951	0.8779	0.0577	-0.036
Mof_C 	C 	0.6681	0.9334	0.0432	-0.042
Mof_H 	H 	0.6851	0.0188	0.0552	0.025
Mof_H 	H 	0.4695	0.993	0.93	0.009
Mof_C 	C 	0.567	0.9414	0.9093	-0.051
Mof_C 	C 	0.8263	0.9391	0.8815	-0.01
Mof_H 	H 	0.818	0.0239	0.8996	0.044
Mof_C 	C 	0.693	0.8896	0.8856	-0.039
Mof_C 	C 	0.6524	0.244	0.6464	-0.052
Mof_H 	H 	0.7445	0.2208	0.7022	0.009
Mof_C 	C 	0.5487	0.3083	0.6842	0.015
Mof_C 	C 	0.5623	0.3438	0.7816	-0.092
Mof_C 	C 	0.0857	0.5273	0.9284	-0.017
Mof_H 	H 	0.0151	0.4681	0.9661	0.04
Mof_C 	C 	0.0735	0.5275	0.8283	0.036
Mof_C 	C 	0.9659	0.47	0.7806	-0.091
Mof_C 	C 	0.5801	0.5546	0.9825	0.081
Mof_C 	C 	0.691	0.495	0.0268	-0.043
Mof_C 	C 	0.5124	0.5258	0.8964	0.027
Mof_H 	H 	0.5634	0.4517	0.8644	0.043
Mof_H 	H 	0.7628	0.2079	0.3249	0.008
Mof_C 	C 	0.8575	0.2317	0.3798	-0.045
Mof_C 	C 	0.9654	0.2879	0.3397	0.016
Mof_C 	C 	0.9615	0.3097	0.2386	-0.093
Mof_C 	C 	0.9812	0.8719	0.0869	0.426
Mof_H 	H 	0.8227	0.8426	0.0583	0.051
Mof_C 	C 	0.7094	0.8807	0.0441	0.001
Mof_H 	H 	0.6108	0.9353	0.0341	0.042
Mof_C 	C 	0.5112	0.8874	0.902	0.412
Mof_C 	C 	0.7794	0.8888	0.8763	-0.041
Mof_H 	H 	0.8841	0.9386	0.8753	0.027
Mof_H 	H 	0.6616	0.8559	0.882	0.021
Mof_C 	C 	0.5806	0.2752	0.6385	-0.08
Mof_H 	H 	0.6727	0.2222	0.6169	0.047
Mof_C 	C 	0.4725	0.3427	0.6787	-0.065
Mof_H 	H 	0.5912	0.3454	0.8159	0.072
Mof_C 	C 	0.4872	0.3728	0.7733	-0.016
Mof_C 	C 	0.1114	0.5486	0.8803	-0.102
Mof_H 	H 	0.1077	0.5426	0.9616	0.041
Mof_C 	C 	0.0952	0.5504	0.775	-0.084
Mof_H 	H 	0.9219	0.4435	0.7814	0.079
Mof_C 	C 	0.9897	0.4919	0.7295	-0.032
Mof_C 	C 	0.5206	0.563	0.9388	-0.166
Mof_C 	C 	0.5874	0.5915	0.0313	-0.105
Mof_C 	C 	0.697	0.5313	0.0715	-0.059
Mof_H 	H 	0.7266	0.4632	0.0257	0.047
Mof_H 	H 	0.4714	0.5314	0.8684	0.023
Mof_H 	H 	0.8349	0.2135	0.4108	0.049
Mof_C 	C 	0.9288	0.2597	0.3859	-0.082
Mof_C 	C 	0.0435	0.3194	0.342	-0.066
Mof_C 	C 	0.0356	0.3371	0.2432	-0.009
Mof_H 	H 	0.9345	0.3068	0.2037	0.07
Mof_H 	H 	0.6796	0.8472	0.0357	0.035
Mof_H 	H 	0.8059	0.8547	0.8666	0.046
Mof_C 	C 	0.5391	0.2724	0.5815	0.318
Mof_C 	C 	0.446	0.3721	0.7223	-0.035
Mof_H 	H 	0.4426	0.3442	0.6448	0.055
Mof_H 	H 	0.4641	0.3932	0.8028	0.032
Mof_C 	C 	0.1827	0.592	0.8794	0.349
Mof_C 	C 	0.0528	0.532	0.7269	-0.027
Mof_H 	H 	0.1378	0.5778	0.7725	0.076
Mof_H 	H 	0.9627	0.4794	0.6967	0.044
Mof_C 	C 	0.4692	0.6174	0.9329	0.488
Mof_C 	C 	0.6444	0.579	0.0736	-0.002
Mof_H 	H 	0.5532	0.6239	0.034	0.08
Mof_H 	H 	0.7359	0.5243	0.1003	0.053
Mof_C 	C 	0.9674	0.2615	0.4443	0.332
Mof_H 	H 	0.0717	0.3231	0.3764	0.054
Mof_C 	C 	0.078	0.344	0.2961	-0.038
Mof_H 	H 	0.0601	0.3521	0.2113	0.035
Mof_H 	H 	0.3967	0.3935	0.7181	0.039
Mof_H 	H 	0.0675	0.5471	0.6924	0.039
Mof_H 	H 	0.6479	0.6032	0.1045	0.024
Mof_H 	H 	0.128	0.3649	0.2992	0.038
Mof_C 	C 	0.9312	0.926	0.0781	-0.05
Mof_C 	C 	0.9741	0.9779	0.0735	-0.001
Mof_H 	H 	0.0326	0.9781	0.0705	0.012
Mof_C 	C 	0.9296	0.0294	0.0733	-0.012
Mof_H 	H 	0.9583	0.0641	0.0702	0.02
Mof_C 	C 	0.8421	0.029	0.0778	-0.057
Mof_C 	C 	0.7992	0.9772	0.0824	0.023
Mof_C 	C 	0.8438	0.9256	0.0826	0.015
Mof_C 	C 	0.8009	0.8738	0.0872	-0.027
Mof_H 	H 	0.8307	0.8393	0.0873	0.009
Mof_C 	C 	0.7135	0.8734	0.0917	-0.059
Mof_H 	H 	0.6848	0.8387	0.0948	0.049
Mof_C 	C 	0.6689	0.9249	0.0916	-0.015
Mof_H 	H 	0.6104	0.9247	0.0945	0.027
Mof_C 	C 	0.7118	0.9768	0.0869	-0.014
Mof_H 	H 	0.682	0.0112	0.0868	0.027
Mof_C 	C 	0.5684	0.9393	0.9131	-0.046
Mof_C 	C 	0.5257	0.9916	0.9112	-0.011
Mof_H 	H 	0.4673	0.9922	0.9062	0.024
Mof_C 	C 	0.5703	0.0428	0.917	-0.007
Mof_H 	H 	0.5418	0.0777	0.9158	0.014
Mof_C 	C 	0.6576	0.0418	0.9246	-0.056
Mof_C 	C 	0.7003	0.9895	0.9264	0.028
Mof_C 	C 	0.6557	0.9383	0.9206	0.017
Mof_C 	C 	0.6984	0.8861	0.9225	-0.021
Mof_H 	H 	0.6685	0.8519	0.9186	0.038
Mof_C 	C 	0.7857	0.8851	0.9301	-0.028
Mof_H 	H 	0.8143	0.8502	0.9313	0.047
Mof_C 	C 	0.8303	0.9363	0.9358	-0.035
Mof_H 	H 	0.8887	0.9356	0.9409	0.037
Mof_C 	C 	0.7876	0.9885	0.934	-0.019
Mof_H 	H 	0.8175	0.0228	0.9378	0.022
Mof_Yb	Yb	0.74839	0.71276	0.48956	1.896
Mof_O 	O 	0.6313	0.6843	0.5363	-0.763
Mof_O 	O 	0.657	0.7925	0.5057	-0.773
Mof_O 	O 	0.761	0.7439	0.5811	-0.756
Mof_O 	O 	0.7325	0.7338	0.396	-0.735
Mof_O 	O 	0.8626	0.6776	0.443	-0.792
Mof_O 	O 	0.8403	0.7873	0.4632	-0.772
Mof_O 	O 	0.6833	0.6261	0.453	-0.468
Mof_O 	O 	0.8153	0.6333	0.5364	-0.488
Mof_Yb	Yb	0.65837	0.68477	0.63308	1.644
Mof_Yb	Yb	0.52627	0.7509	0.52218	1.517
Mof_H 	H 	0.6127	0.6462	0.5238	0.226
Mof_Yb	Yb	0.69897	0.83292	0.59086	1.788
Mof_H 	H 	0.6555	0.8203	0.4748	0.211
Mof_H 	H 	0.8188	0.7419	0.5964	0.21
Mof_Yb	Yb	0.83102	0.66724	0.34953	1.621
Mof_Yb	Yb	0.80024	0.82126	0.37509	1.724
Mof_H 	H 	0.6741	0.7313	0.3818	0.211
Mof_Yb	Yb	0.96979	0.74282	0.44809	1.732
Mof_H 	H 	0.8808	0.6408	0.4592	0.229
Mof_H 	H 	0.8443	0.818	0.4912	0.224
Mof_C 	C 	0.6978	0.5886	0.4154	0.418
Mof_C 	C 	0.7972	0.6004	0.5747	0.43
Mof_O 	O 	0.591	0.7688	0.6085	-0.785
Mof_O 	O 	0.5422	0.6296	0.6221	-0.525
Mof_O 	O 	0.7347	0.7306	0.6978	-0.562
Mof_O 	O 	0.7443	0.6121	0.6135	-0.508
Mof_O 	O 	0.4624	0.6695	0.5559	-0.49
Mof_O 	O 	0.5387	0.7242	0.4265	-0.441
Mof_O 	O 	0.4123	0.7379	0.4589	-0.426
Mof_O 	O 	0.7668	0.8207	0.6761	-0.498
Mof_O 	O 	0.5996	0.9022	0.5597	-0.451
Mof_O 	O 	0.6019	0.8838	0.6485	-0.427
Mof_O 	O 	0.8134	0.8748	0.5437	-0.492
Mof_O 	O 	0.7671	0.9222	0.6131	-0.387
Mof_O 	O 	0.9026	0.7517	0.3619	-0.804
Mof_O 	O 	0.7477	0.7059	0.2814	-0.521
Mof_O 	O 	0.947	0.6096	0.3684	-0.5
Mof_O 	O 	0.7436	0.5977	0.3739	-0.51
Mof_O 	O 	0.7189	0.7978	0.2981	-0.528
Mof_O 	O 	0.6823	0.8662	0.4136	-0.47
Mof_O 	O 	0.7393	0.9114	0.3451	-0.416
Mof_O 	O 	0.9021	0.8831	0.4039	-0.529
Mof_O 	O 	0.0324	0.6553	0.4298	-0.507
Mof_O 	O 	0.9996	0.8373	0.4517	-0.539
Mof_O 	O 	0.0811	0.7444	0.5155	-0.425
Mof_O 	O 	0.9549	0.7314	0.5465	-0.448
Mof_C 	C 	0.6571	0.5307	0.418	-0.042
Mof_C 	C 	0.8393	0.542	0.5802	-0.047
Mof_H 	H 	0.5518	0.7824	0.6368	0.169
Mof_C 	C 	0.7727	0.7767	0.7061	0.473
Mof_C 	C 	0.5758	0.914	0.6083	0.328
Mof_C 	C 	0.8188	0.917	0.5717	0.361
Mof_H 	H 	0.9411	0.7606	0.3314	0.147
Mof_C 	C 	0.7094	0.7548	0.271	0.453
Mof_C 	C 	0.5713	0.5279	0.4044	-0.015
Mof_C 	C 	0.7016	0.4807	0.4306	0.008
Mof_C 	C 	0.9258	0.5428	0.5709	-0.011
Mof_C 	C 	0.7998	0.491	0.5947	0.007
Mof_C 	C 	0.8295	0.7772	0.7578	-0.153
Mof_C 	C 	0.512	0.9624	0.6157	-0.099
Mof_C 	C 	0.8744	0.9672	0.5644	-0.091
Mof_C 	C 	0.6531	0.7546	0.2174	-0.146
Mof_C 	C 	0.5301	0.4752	0.4035	-0.022
Mof_H 	H 	0.5415	0.5614	0.396	0.021
Mof_C 	C 	0.6604	0.4279	0.4297	0.019
Mof_C 	C 	0.7873	0.4834	0.4442	-0.044
Mof_C 	C 	0.9726	0.4925	0.5762	-0.012
Mof_H 	H 	0.9523	0.577	0.5612	0.019
Mof_C 	C 	0.7133	0.4902	0.604	-0.054
Mof_C 	C 	0.8466	0.4406	0.5999	0.012
Mof_C 	C 	0.8032	0.7437	0.8022	0.022
Mof_C 	C 	0.9052	0.811	0.7642	0.069
Mof_C 	C 	0.4723	0.9836	0.5686	-0.027
Mof_C 	C 	0.4938	0.9863	0.6675	0.037
Mof_C 	C 	0.8673	0.0039	0.5177	0.017
Mof_C 	C 	0.9324	0.977	0.6055	-0.034
Mof_C 	C 	0.6865	0.728	0.1719	0.016
Mof_C 	C 	0.5771	0.7844	0.2129	0.069
Mof_H 	H 	0.4728	0.4733	0.3944	0.028
Mof_C 	C 	0.5747	0.4251	0.4161	-0.057
Mof_C 	C 	0.7049	0.3779	0.4423	-0.035
Mof_C 	C 	0.8319	0.4334	0.4568	-0.042
Mof_H 	H 	0.8149	0.5188	0.4448	0.026
Mof_H 	H 	0.0305	0.493	0.57	0.009
Mof_C 	C 	0.933	0.4414	0.5907	-0.051
Mof_C 	C 	0.6737	0.4391	0.6185	-0.01
Mof_H 	H 	0.682	0.5239	0.6004	0.043
Mof_C 	C 	0.807	0.3896	0.6144	-0.041
Mof_C 	C 	0.8476	0.744	0.8536	-0.051
Mof_H 	H 	0.7555	0.7208	0.7978	0.009
Mof_C 	C 	0.9513	0.8083	0.8158	0.016
Mof_C 	C 	0.9377	0.8438	0.7184	-0.09
Mof_C 	C 	0.4143	0.0273	0.5716	-0.016
Mof_H 	H 	0.4849	0.9681	0.5339	0.04
Mof_C 	C 	0.4265	0.0275	0.6717	0.038
Mof_C 	C 	0.5341	0.97	0.7194	-0.089
Mof_C 	C 	0.9199	0.0546	0.5175	0.082
Mof_C 	C 	0.809	0.995	0.4732	-0.042
Mof_C 	C 	0.9876	0.0258	0.6036	0.028
Mof_H 	H 	0.9366	0.9517	0.6356	0.043
Mof_H 	H 	0.7372	0.7079	0.1751	0.008
Mof_C 	C 	0.6425	0.7317	0.1202	-0.045
Mof_C 	C 	0.5346	0.7879	0.1603	0.017
Mof_C 	C 	0.5385	0.8097	0.2614	-0.092
Mof_C 	C 	0.5188	0.3719	0.4131	0.426
Mof_H 	H 	0.6773	0.3426	0.4417	0.05
Mof_C 	C 	0.7906	0.3807	0.4559	0.001
Mof_H 	H 	0.8892	0.4353	0.4659	0.041
Mof_C 	C 	0.9888	0.3874	0.598	0.412
Mof_C 	C 	0.7206	0.3888	0.6237	-0.04
Mof_H 	H 	0.6159	0.4386	0.6247	0.027
Mof_H 	H 	0.8384	0.3559	0.618	0.022
Mof_C 	C 	0.9194	0.7752	0.8615	-0.08
Mof_H 	H 	0.8273	0.7222	0.8831	0.047
Mof_C 	C 	0.0275	0.8427	0.8213	-0.067
Mof_H 	H 	0.9088	0.8454	0.6841	0.072
Mof_C 	C 	0.0128	0.8728	0.7267	-0.017
Mof_C 	C 	0.3886	0.0486	0.6197	-0.103
Mof_H 	H 	0.3923	0.0426	0.5384	0.041
Mof_C 	C 	0.4048	0.0504	0.725	-0.086
Mof_H 	H 	0.5781	0.9435	0.7186	0.078
Mof_C 	C 	0.5103	0.9919	0.7705	-0.036
Mof_C 	C 	0.9794	0.063	0.5612	-0.167
Mof_C 	C 	0.9126	0.0915	0.4687	-0.107
Mof_C 	C 	0.803	0.0313	0.4285	-0.06
Mof_H 	H 	0.7734	0.9632	0.4743	0.046
Mof_H 	H 	0.0286	0.0314	0.6316	0.022
Mof_H 	H 	0.6651	0.7135	0.0892	0.049
Mof_C 	C 	0.5712	0.7597	0.1141	-0.083
Mof_C 	C 	0.4565	0.8194	0.158	-0.067
Mof_C 	C 	0.4644	0.8371	0.2568	-0.011
Mof_H 	H 	0.5655	0.8068	0.2963	0.069
Mof_H 	H 	0.8204	0.3472	0.4643	0.035
Mof_H 	H 	0.6941	0.3547	0.6334	0.045
Mof_C 	C 	0.9609	0.7724	0.9185	0.319
Mof_C 	C 	0.054	0.8721	0.7777	-0.034
Mof_H 	H 	0.0574	0.8442	0.8552	0.056
Mof_H 	H 	0.0359	0.8932	0.6972	0.032
Mof_C 	C 	0.3173	0.092	0.6206	0.35
Mof_C 	C 	0.4472	0.032	0.7731	-0.023
Mof_H 	H 	0.3622	0.0778	0.7275	0.077
Mof_H 	H 	0.5373	0.9794	0.8033	0.045
Mof_C 	C 	0.0308	0.1174	0.5671	0.489
Mof_C 	C 	0.8556	0.079	0.4264	-0.001
Mof_H 	H 	0.9468	0.1239	0.466	0.08
Mof_H 	H 	0.7641	0.0243	0.3997	0.053
Mof_C 	C 	0.5326	0.7615	0.0557	0.332
Mof_H 	H 	0.4283	0.8231	0.1236	0.054
Mof_C 	C 	0.422	0.844	0.2039	-0.037
Mof_H 	H 	0.4399	0.8521	0.2887	0.035
Mof_H 	H 	0.1033	0.8935	0.7819	0.038
Mof_H 	H 	0.4325	0.0471	0.8076	0.037
Mof_H 	H 	0.8521	0.1032	0.3955	0.024
Mof_H 	H 	0.372	0.8649	0.2008	0.037
Mof_C 	C 	0.5688	0.426	0.4219	-0.05
Mof_C 	C 	0.5259	0.4779	0.4265	-0.001
Mof_H 	H 	0.4674	0.4781	0.4295	0.011
Mof_C 	C 	0.5704	0.5294	0.4267	-0.011
Mof_H 	H 	0.5417	0.5641	0.4298	0.02
Mof_C 	C 	0.6579	0.529	0.4222	-0.057
Mof_C 	C 	0.7008	0.4772	0.4176	0.022
Mof_C 	C 	0.6562	0.4256	0.4174	0.015
Mof_C 	C 	0.6991	0.3738	0.4128	-0.028
Mof_H 	H 	0.6693	0.3393	0.4127	0.009
Mof_C 	C 	0.7865	0.3734	0.4083	-0.06
Mof_H 	H 	0.8152	0.3387	0.4052	0.049
Mof_C 	C 	0.8311	0.4249	0.4084	-0.013
Mof_H 	H 	0.8896	0.4247	0.4055	0.027
Mof_C 	C 	0.7882	0.4768	0.4131	-0.017
Mof_H 	H 	0.818	0.5112	0.4132	0.029
Mof_C 	C 	0.9316	0.4393	0.5869	-0.046
Mof_C 	C 	0.9743	0.4916	0.5888	-0.01
Mof_H 	H 	0.0327	0.4922	0.5938	0.024
Mof_C 	C 	0.9297	0.5428	0.583	-0.008
Mof_H 	H 	0.9582	0.5777	0.5842	0.015
Mof_C 	C 	0.8424	0.5418	0.5754	-0.056
Mof_C 	C 	0.7997	0.4895	0.5736	0.029
Mof_C 	C 	0.8443	0.4383	0.5794	0.018
Mof_C 	C 	0.8016	0.3861	0.5775	-0.02
Mof_H 	H 	0.8315	0.3519	0.5814	0.038
Mof_C 	C 	0.7143	0.3851	0.5699	-0.028
Mof_H 	H 	0.6857	0.3502	0.5687	0.047
Mof_C 	C 	0.6697	0.4363	0.5642	-0.036
Mof_H 	H 	0.6113	0.4356	0.5591	0.038
Mof_C 	C 	0.7124	0.4885	0.566	-0.017
Mof_H 	H 	0.6825	0.5228	0.5622	0.02
_end
