# CIF file generated by openbabel 3.1.0, see https://openbabel.org
data_I
_chemical_name_common 'image0'
_cell_length_a 28.281
_cell_length_b 20.849
_cell_length_c 30.699
_cell_angle_alpha 90
_cell_angle_beta 90.994
_cell_angle_gamma 90
_space_group_name_H-M_alt 'P 1'
_space_group_name_Hall 'P 1'
loop_
    _symmetry_equiv_pos_as_xyz
    x,y,z
loop_
    _atom_site_label
    _atom_site_type_symbol
    _atom_site_fract_x
    _atom_site_fract_y
    _atom_site_fract_z
    _atom_site_occupancy
    Ca1      Ca       0.50980    0.73800    0.31280    1.000
    O1       O        0.44430    0.81400    0.30910    1.000
    O2       O        0.44560    0.76120    0.24750    1.000
    O3       O        0.47140    0.71350    0.38020    1.000
    O4       O        0.49380    0.63770    0.28580    1.000
    O5       O        0.53930    0.81920    0.36190    1.000
    O6       O        0.57040    0.68640    0.35360    1.000
    C1       C        0.42530    0.79580    0.27410    1.000
    Ca2      Ca       0.54060    0.70880    0.43080    1.000
    C2       C        0.45180    0.66510    0.39600    1.000
    C3       C        0.37490    0.81440    0.26410    1.000
    O7       O        0.46990    0.63490    0.42720    1.000
    O8       O        0.58910    0.62200    0.40800    1.000
    O9       O        0.58750    0.80480    0.41860    1.000
    O10      O        0.59420    0.72420    0.49480    1.000
    O11      O        0.54320    0.64600    0.50160    1.000
    C4       C        0.40490    0.64450    0.37750    1.000
    C5       C        0.34890    0.78680    0.23080    1.000
    C6       C        0.35360    0.86190    0.28900    1.000
    Ca3      Ca       0.47100    0.58440    0.49670    1.000
    C7       C        0.37870    0.68680    0.35140    1.000
    C8       C        0.38770    0.58330    0.38500    1.000
    C9       C        0.50420    0.50400    0.28840    1.000
    H1       H        0.36290    0.75540    0.21370    1.000
    C10      C        0.30300    0.80420    0.22200    1.000
    C11      C        0.30740    0.88060    0.27960    1.000
    H2       H        0.37030    0.88110    0.31180    1.000
    O12      O        0.50770    0.50380    0.45410    1.000
    N1       N        0.45720    0.56970    0.58050    1.000
    H3       H        0.38980    0.72820    0.34670    1.000
    C12      C        0.33610    0.66740    0.33250    1.000
    H4       H        0.40440    0.55520    0.40300    1.000
    C13      C        0.34530    0.56390    0.36540    1.000
    C14      C        0.50430    0.43900    0.28830    1.000
    H5       H        0.50700    0.52580    0.31470    1.000
    H6       H        0.28590    0.78260    0.20040    1.000
    C15      C        0.28090    0.85440    0.24530    1.000
    H7       H        0.29360    0.91180    0.29690    1.000
    C16      C        0.52130    0.49250    0.41510    1.000
    C17      C        0.31930    0.60510    0.33830    1.000
    H8       H        0.31860    0.69630    0.31570    1.000
    H9       H        0.33400    0.52270    0.37050    1.000
    H10      H        0.50730    0.41750    0.31470    1.000
    C18      C        0.23310    0.87920    0.23410    1.000
    C19      C        0.27620    0.58300    0.31460    1.000
    C20      C        0.21040    0.92170    0.26080    1.000
    C21      C        0.20960    0.86310    0.19430    1.000
    C22      C        0.24480    0.53840    0.33250    1.000
    C23      C        0.26710    0.60420    0.27200    1.000
    C24      C        0.49050    0.29850    0.28730    1.000
    C25      C        0.16660    0.94890    0.25020    1.000
    H11      H        0.22490    0.93300    0.28710    1.000
    C26      C        0.16620    0.88880    0.18250    1.000
    H12      H        0.22390    0.83430    0.17550    1.000
    H13      H        0.25020    0.52320    0.36060    1.000
    C27      C        0.20550    0.51650    0.30860    1.000
    C28      C        0.22830    0.58400    0.24800    1.000
    H14      H        0.28810    0.63300    0.25940    1.000
    C29      C        0.49090    0.23030    0.28840    1.000
    H15      H        0.48350    0.32090    0.31260    1.000
    C30      C        0.14520    0.93250    0.21050    1.000
    C31      C        0.14520    0.99720    0.27960    1.000
    C32      C        0.14350    0.87230    0.13950    1.000
    C33      C        0.19800    0.53950    0.26710    1.000
    C34      C        0.17200    0.47010    0.32830    1.000
    C35      C        0.22140    0.60690    0.20240    1.000
    C36      C        0.48160    0.19650    0.33030    1.000
    H16      H        0.11640    0.95110    0.20260    1.000
    C37      C        0.12490    0.05270    0.26430    1.000
    C38      C        0.14720    0.98720    0.32420    1.000
    C39      C        0.10050    0.89740    0.12660    1.000
    C40      C        0.16530    0.83140    0.11030    1.000
    H17      H        0.17190    0.52490    0.25120    1.000
    C41      C        0.18850    0.42420    0.35920    1.000
    C42      C        0.12470    0.46720    0.31550    1.000
    C43      C        0.17610    0.61310    0.18320    1.000
    C44      C        0.25970    0.62420    0.17780    1.000
    C45      C        0.49660    0.13790    0.33680    1.000
    C46      C        0.46060    0.22310    0.36330    1.000
    H18      H        0.12290    0.05980    0.23440    1.000
    C47      C        0.10730    0.09840    0.29250    1.000
    H19      H        0.16100    0.94990    0.33520    1.000
    C48      C        0.12890    0.03210    0.35270    1.000
    C49      C        0.07940    0.88320    0.08640    1.000
    H20      H        0.08500    0.92490    0.14540    1.000
    H21      H        0.19470    0.81400    0.11750    1.000
    C50      C        0.14390    0.81600    0.07070    1.000
    H22      H        0.22030    0.42370    0.36760    1.000
    C51      C        0.15770    0.38040    0.37660    1.000
    C52      C        0.09450    0.42230    0.33310    1.000
    H23      H        0.11310    0.49590    0.29470    1.000
    C53      C        0.17020    0.63310    0.14120    1.000
    H24      H        0.14960    0.60340    0.19960    1.000
    H25      H        0.29000    0.62160    0.18990    1.000
    C54      C        0.25370    0.64530    0.13490    1.000
    C55      C        0.48870    0.10600    0.37820    1.000
    H26      H        0.51260    0.11660    0.31490    1.000
    C56      C        0.45480    0.19430    0.40310    1.000
    H27      H        0.44870    0.26440    0.35960    1.000
    H28      H        0.09440    0.13630    0.28160    1.000
    C57      C        0.10880    0.08780    0.33690    1.000
    H29      H        0.13020    0.02450    0.38250    1.000
    H30      H        0.05090    0.90230    0.07830    1.000
    C58      C        0.10110    0.84060    0.05870    1.000
    H31      H        0.15920    0.78830    0.05180    1.000
    H32      H        0.16880    0.35150    0.39750    1.000
    C59      C        0.11070    0.37850    0.36370    1.000
    H33      H        0.06280    0.42170    0.32430    1.000
    C60      C        0.20840    0.64840    0.11600    1.000
    H34      H        0.13980    0.63640    0.12930    1.000
    H35      H        0.27980    0.65740    0.11890    1.000
    C61      C        0.46770    0.13450    0.41030    1.000
    H36      H        0.49890    0.06390    0.38180    1.000
    H37      H        0.44130    0.21760    0.42550    1.000
    C62      C        0.08850    0.13470    0.36810    1.000
    C63      C        0.07820    0.82320    0.01560    1.000
    C64      C        0.07670    0.33060    0.38210    1.000
    C65      C        0.20180    0.66770    0.06910    1.000
    C66      C        0.45980    0.10330    0.45360    1.000
    O13      O        0.16230    0.65760    0.05210    1.000
    O14      O        0.23560    0.69230    0.05010    1.000
    O15      O        0.44800    0.13650    0.48540    1.000
    O16      O        0.46660    0.04480    0.45660    1.000
    Ca4      Ca       0.12390    0.67150    0.98630    1.000
    Ca5      Ca       0.00980    0.23800    0.31280    1.000
    O17      O        0.94430    0.31400    0.30910    1.000
    O18      O        0.94560    0.26120    0.24750    1.000
    O19      O        0.97140    0.21350    0.38020    1.000
    O20      O        0.99380    0.13770    0.28580    1.000
    O21      O        0.03930    0.31920    0.36190    1.000
    O22      O        0.07040    0.18640    0.35360    1.000
    C67      C        0.92530    0.29580    0.27410    1.000
    Ca6      Ca       0.04060    0.20880    0.43080    1.000
    C68      C        0.95180    0.16510    0.39600    1.000
    C69      C        0.87490    0.31440    0.26410    1.000
    O23      O        0.96990    0.13490    0.42720    1.000
    O24      O        0.08910    0.12200    0.40800    1.000
    O25      O        0.08750    0.30480    0.41860    1.000
    O26      O        0.09420    0.22420    0.49480    1.000
    O27      O        0.04320    0.14600    0.50160    1.000
    C70      C        0.90490    0.14450    0.37750    1.000
    C71      C        0.84890    0.28680    0.23080    1.000
    C72      C        0.85360    0.36190    0.28900    1.000
    Ca7      Ca       0.97100    0.08440    0.49670    1.000
    C73      C        0.87870    0.18680    0.35140    1.000
    C74      C        0.88770    0.08330    0.38500    1.000
    C75      C        0.00420    0.00400    0.28840    1.000
    H38      H        0.86290    0.25540    0.21370    1.000
    C76      C        0.80300    0.30420    0.22200    1.000
    C77      C        0.80740    0.38060    0.27960    1.000
    H39      H        0.87030    0.38110    0.31180    1.000
    O28      O        0.00770    0.00380    0.45410    1.000
    N2       N        0.95720    0.06970    0.58050    1.000
    H40      H        0.88980    0.22820    0.34670    1.000
    C78      C        0.83610    0.16740    0.33250    1.000
    H41      H        0.90440    0.05520    0.40300    1.000
    C79      C        0.84530    0.06390    0.36540    1.000
    C80      C        0.00430    0.93900    0.28830    1.000
    H42      H        0.00700    0.02580    0.31470    1.000
    H43      H        0.78590    0.28260    0.20040    1.000
    C81      C        0.78090    0.35440    0.24530    1.000
    H44      H        0.79360    0.41180    0.29690    1.000
    C82      C        0.02130    0.99250    0.41510    1.000
    C83      C        0.81930    0.10510    0.33830    1.000
    H45      H        0.81860    0.19630    0.31570    1.000
    H46      H        0.83400    0.02270    0.37050    1.000
    H47      H        0.00730    0.91750    0.31470    1.000
    C84      C        0.73310    0.37920    0.23410    1.000
    C85      C        0.77620    0.08300    0.31460    1.000
    C86      C        0.71040    0.42170    0.26080    1.000
    C87      C        0.70960    0.36310    0.19430    1.000
    C88      C        0.74480    0.03840    0.33250    1.000
    C89      C        0.76710    0.10420    0.27200    1.000
    C90      C        0.99050    0.79850    0.28730    1.000
    C91      C        0.66660    0.44890    0.25020    1.000
    H48      H        0.72490    0.43300    0.28710    1.000
    C92      C        0.66620    0.38880    0.18250    1.000
    H49      H        0.72390    0.33430    0.17550    1.000
    H50      H        0.75020    0.02320    0.36060    1.000
    C93      C        0.70550    0.01650    0.30860    1.000
    C94      C        0.72830    0.08400    0.24800    1.000
    H51      H        0.78810    0.13300    0.25940    1.000
    C95      C        0.99090    0.73030    0.28840    1.000
    H52      H        0.98350    0.82090    0.31260    1.000
    C96      C        0.64520    0.43250    0.21050    1.000
    C97      C        0.64520    0.49720    0.27960    1.000
    C98      C        0.64350    0.37230    0.13950    1.000
    C99      C        0.69800    0.03950    0.26710    1.000
    C100     C        0.67200    0.97010    0.32830    1.000
    C101     C        0.72140    0.10690    0.20240    1.000
    C102     C        0.98160    0.69650    0.33030    1.000
    H53      H        0.61640    0.45110    0.20260    1.000
    C103     C        0.62490    0.55270    0.26430    1.000
    C104     C        0.64720    0.48720    0.32420    1.000
    C105     C        0.60050    0.39740    0.12660    1.000
    C106     C        0.66530    0.33140    0.11030    1.000
    H54      H        0.67190    0.02490    0.25120    1.000
    C107     C        0.68850    0.92420    0.35920    1.000
    C108     C        0.62470    0.96720    0.31550    1.000
    C109     C        0.67610    0.11310    0.18320    1.000
    C110     C        0.75970    0.12420    0.17780    1.000
    C111     C        0.99660    0.63790    0.33680    1.000
    C112     C        0.96060    0.72310    0.36330    1.000
    H55      H        0.62290    0.55980    0.23440    1.000
    C113     C        0.60730    0.59840    0.29250    1.000
    H56      H        0.66100    0.44990    0.33520    1.000
    C114     C        0.62890    0.53210    0.35270    1.000
    C115     C        0.57940    0.38320    0.08640    1.000
    H57      H        0.58500    0.42490    0.14540    1.000
    H58      H        0.69470    0.31400    0.11750    1.000
    C116     C        0.64390    0.31600    0.07070    1.000
    H59      H        0.72030    0.92370    0.36760    1.000
    C117     C        0.65770    0.88040    0.37660    1.000
    C118     C        0.59450    0.92230    0.33310    1.000
    H60      H        0.61310    0.99590    0.29470    1.000
    C119     C        0.67020    0.13310    0.14120    1.000
    H61      H        0.64960    0.10340    0.19960    1.000
    H62      H        0.79000    0.12160    0.18990    1.000
    C120     C        0.75370    0.14530    0.13490    1.000
    C121     C        0.98870    0.60600    0.37820    1.000
    H63      H        0.01260    0.61660    0.31490    1.000
    C122     C        0.95480    0.69430    0.40310    1.000
    H64      H        0.94870    0.76440    0.35960    1.000
    H65      H        0.59440    0.63630    0.28160    1.000
    C123     C        0.60880    0.58780    0.33690    1.000
    H66      H        0.63020    0.52450    0.38250    1.000
    H67      H        0.55090    0.40230    0.07830    1.000
    C124     C        0.60110    0.34060    0.05870    1.000
    H68      H        0.65920    0.28830    0.05180    1.000
    H69      H        0.66880    0.85150    0.39750    1.000
    C125     C        0.61070    0.87850    0.36370    1.000
    H70      H        0.56280    0.92170    0.32430    1.000
    C126     C        0.70840    0.14840    0.11600    1.000
    H71      H        0.63980    0.13640    0.12930    1.000
    H72      H        0.77980    0.15740    0.11890    1.000
    C127     C        0.96770    0.63450    0.41030    1.000
    H73      H        0.99890    0.56390    0.38180    1.000
    H74      H        0.94130    0.71760    0.42550    1.000
    C128     C        0.58850    0.63470    0.36810    1.000
    C129     C        0.57820    0.32320    0.01560    1.000
    C130     C        0.57670    0.83060    0.38210    1.000
    C131     C        0.70180    0.16770    0.06910    1.000
    C132     C        0.95980    0.60330    0.45360    1.000
    O29      O        0.66230    0.15760    0.05210    1.000
    O30      O        0.73560    0.19230    0.05010    1.000
    O31      O        0.94800    0.63650    0.48540    1.000
    O32      O        0.96660    0.54480    0.45660    1.000
    Ca8      Ca       0.62390    0.17150    0.98630    1.000
    Ca9      Ca       0.49020    0.73800    0.18720    1.000
    O33      O        0.55570    0.81400    0.19090    1.000
    O34      O        0.55440    0.76120    0.25250    1.000
    O35      O        0.52860    0.71350    0.11980    1.000
    O36      O        0.50620    0.63770    0.21420    1.000
    O37      O        0.46070    0.81920    0.13810    1.000
    O38      O        0.42960    0.68640    0.14640    1.000
    C133     C        0.57470    0.79580    0.22590    1.000
    Ca10     Ca       0.45940    0.70880    0.06920    1.000
    C134     C        0.54820    0.66510    0.10400    1.000
    C135     C        0.62510    0.81440    0.23590    1.000
    O39      O        0.53010    0.63490    0.07280    1.000
    O40      O        0.41090    0.62200    0.09200    1.000
    O41      O        0.41250    0.80480    0.08140    1.000
    O42      O        0.40580    0.72420    0.00520    1.000
    O43      O        0.45680    0.64600    0.99840    1.000
    C136     C        0.59510    0.64450    0.12250    1.000
    C137     C        0.65110    0.78680    0.26920    1.000
    C138     C        0.64640    0.86190    0.21100    1.000
    Ca11     Ca       0.52900    0.58440    0.00330    1.000
    C139     C        0.62130    0.68680    0.14860    1.000
    C140     C        0.61230    0.58330    0.11500    1.000
    C141     C        0.49580    0.50400    0.21160    1.000
    H75      H        0.63710    0.75540    0.28630    1.000
    C142     C        0.69700    0.80420    0.27800    1.000
    C143     C        0.69260    0.88060    0.22040    1.000
    H76      H        0.62970    0.88110    0.18820    1.000
    O44      O        0.49230    0.50380    0.04590    1.000
    N3       N        0.54280    0.56970    0.91950    1.000
    H77      H        0.61020    0.72820    0.15330    1.000
    C144     C        0.66390    0.66740    0.16750    1.000
    H78      H        0.59560    0.55520    0.09700    1.000
    C145     C        0.65470    0.56390    0.13460    1.000
    C146     C        0.49570    0.43900    0.21170    1.000
    H79      H        0.49300    0.52580    0.18530    1.000
    H80      H        0.71410    0.78260    0.29960    1.000
    C147     C        0.71910    0.85440    0.25470    1.000
    H81      H        0.70640    0.91180    0.20310    1.000
    C148     C        0.47870    0.49250    0.08490    1.000
    C149     C        0.68070    0.60510    0.16170    1.000
    H82      H        0.68140    0.69630    0.18430    1.000
    H83      H        0.66600    0.52270    0.12950    1.000
    H84      H        0.49270    0.41750    0.18530    1.000
    C150     C        0.76690    0.87920    0.26590    1.000
    C151     C        0.72380    0.58300    0.18540    1.000
    C152     C        0.78960    0.92170    0.23920    1.000
    C153     C        0.79040    0.86310    0.30570    1.000
    C154     C        0.75520    0.53840    0.16750    1.000
    C155     C        0.73290    0.60420    0.22800    1.000
    C156     C        0.50950    0.29850    0.21270    1.000
    C157     C        0.83340    0.94890    0.24980    1.000
    H85      H        0.77510    0.93300    0.21290    1.000
    C158     C        0.83380    0.88880    0.31750    1.000
    H86      H        0.77610    0.83430    0.32450    1.000
    H87      H        0.74980    0.52320    0.13940    1.000
    C159     C        0.79450    0.51650    0.19140    1.000
    C160     C        0.77170    0.58400    0.25200    1.000
    H88      H        0.71190    0.63300    0.24060    1.000
    C161     C        0.50910    0.23030    0.21160    1.000
    H89      H        0.51650    0.32090    0.18740    1.000
    C162     C        0.85480    0.93250    0.28950    1.000
    C163     C        0.85480    0.99720    0.22040    1.000
    C164     C        0.85650    0.87230    0.36050    1.000
    C165     C        0.80200    0.53950    0.23290    1.000
    C166     C        0.82800    0.47010    0.17170    1.000
    C167     C        0.77860    0.60690    0.29760    1.000
    C168     C        0.51840    0.19650    0.16970    1.000
    H90      H        0.88360    0.95110    0.29740    1.000
    C169     C        0.87510    0.05270    0.23570    1.000
    C170     C        0.85280    0.98720    0.17580    1.000
    C171     C        0.89950    0.89740    0.37340    1.000
    C172     C        0.83470    0.83140    0.38970    1.000
    H91      H        0.82810    0.52490    0.24880    1.000
    C173     C        0.81150    0.42420    0.14080    1.000
    C174     C        0.87530    0.46720    0.18450    1.000
    C175     C        0.82390    0.61310    0.31680    1.000
    C176     C        0.74030    0.62420    0.32220    1.000
    C177     C        0.50340    0.13790    0.16320    1.000
    C178     C        0.53940    0.22310    0.13670    1.000
    H92      H        0.87710    0.05980    0.26560    1.000
    C179     C        0.89270    0.09840    0.20750    1.000
    H93      H        0.83900    0.94990    0.16480    1.000
    C180     C        0.87110    0.03210    0.14730    1.000
    C181     C        0.92060    0.88320    0.41360    1.000
    H94      H        0.91500    0.92490    0.35460    1.000
    H95      H        0.80530    0.81400    0.38250    1.000
    C182     C        0.85610    0.81600    0.42930    1.000
    H96      H        0.77970    0.42370    0.13240    1.000
    C183     C        0.84230    0.38040    0.12340    1.000
    C184     C        0.90550    0.42230    0.16690    1.000
    H97      H        0.88690    0.49590    0.20530    1.000
    C185     C        0.82980    0.63310    0.35880    1.000
    H98      H        0.85040    0.60340    0.30040    1.000
    H99      H        0.71000    0.62160    0.31010    1.000
    C186     C        0.74630    0.64530    0.36510    1.000
    C187     C        0.51130    0.10600    0.12180    1.000
    H100     H        0.48740    0.11660    0.18510    1.000
    C188     C        0.54520    0.19430    0.09690    1.000
    H101     H        0.55130    0.26440    0.14040    1.000
    H102     H        0.90560    0.13630    0.21840    1.000
    C189     C        0.89120    0.08780    0.16310    1.000
    H103     H        0.86980    0.02450    0.11750    1.000
    H104     H        0.94910    0.90230    0.42170    1.000
    C190     C        0.89890    0.84060    0.44130    1.000
    H105     H        0.84080    0.78830    0.44820    1.000
    H106     H        0.83120    0.35150    0.10250    1.000
    C191     C        0.88930    0.37850    0.13630    1.000
    H107     H        0.93720    0.42170    0.17570    1.000
    C192     C        0.79160    0.64840    0.38400    1.000
    H108     H        0.86020    0.63640    0.37070    1.000
    H109     H        0.72020    0.65740    0.38110    1.000
    C193     C        0.53230    0.13450    0.08970    1.000
    H110     H        0.50110    0.06390    0.11820    1.000
    H111     H        0.55870    0.21760    0.07450    1.000
    C194     C        0.91150    0.13470    0.13190    1.000
    C195     C        0.92180    0.82320    0.48440    1.000
    C196     C        0.92330    0.33060    0.11790    1.000
    C197     C        0.79820    0.66770    0.43090    1.000
    C198     C        0.54020    0.10330    0.04640    1.000
    O45      O        0.83770    0.65760    0.44790    1.000
    O46      O        0.76440    0.69230    0.44990    1.000
    O47      O        0.55200    0.13650    0.01460    1.000
    O48      O        0.53340    0.04480    0.04340    1.000
    Ca12     Ca       0.87610    0.67150    0.51370    1.000
    Ca13     Ca       0.99020    0.23800    0.18720    1.000
    O49      O        0.05570    0.31400    0.19090    1.000
    O50      O        0.05440    0.26120    0.25250    1.000
    O51      O        0.02860    0.21350    0.11980    1.000
    O52      O        0.00620    0.13770    0.21420    1.000
    O53      O        0.96070    0.31920    0.13810    1.000
    O54      O        0.92960    0.18640    0.14640    1.000
    C199     C        0.07470    0.29580    0.22590    1.000
    Ca14     Ca       0.95940    0.20880    0.06920    1.000
    C200     C        0.04820    0.16510    0.10400    1.000
    C201     C        0.12510    0.31440    0.23590    1.000
    O55      O        0.03010    0.13490    0.07280    1.000
    O56      O        0.91090    0.12200    0.09200    1.000
    O57      O        0.91250    0.30480    0.08140    1.000
    O58      O        0.90580    0.22420    0.00520    1.000
    O59      O        0.95680    0.14600    0.99840    1.000
    C202     C        0.09510    0.14450    0.12250    1.000
    C203     C        0.15110    0.28680    0.26920    1.000
    C204     C        0.14640    0.36190    0.21100    1.000
    Ca15     Ca       0.02900    0.08440    0.00330    1.000
    C205     C        0.12130    0.18680    0.14860    1.000
    C206     C        0.11230    0.08330    0.11500    1.000
    C207     C        0.99580    0.00400    0.21160    1.000
    H112     H        0.13710    0.25540    0.28630    1.000
    C208     C        0.19700    0.30420    0.27800    1.000
    C209     C        0.19260    0.38060    0.22040    1.000
    H113     H        0.12970    0.38110    0.18820    1.000
    O60      O        0.99230    0.00380    0.04590    1.000
    N4       N        0.04280    0.06970    0.91950    1.000
    H114     H        0.11020    0.22820    0.15330    1.000
    C210     C        0.16390    0.16740    0.16750    1.000
    H115     H        0.09560    0.05520    0.09700    1.000
    C211     C        0.15470    0.06390    0.13460    1.000
    C212     C        0.99570    0.93900    0.21170    1.000
    H116     H        0.99300    0.02580    0.18530    1.000
    H117     H        0.21410    0.28260    0.29960    1.000
    C213     C        0.21910    0.35440    0.25470    1.000
    H118     H        0.20640    0.41180    0.20310    1.000
    C214     C        0.97870    0.99250    0.08490    1.000
    C215     C        0.18070    0.10510    0.16170    1.000
    H119     H        0.18140    0.19630    0.18430    1.000
    H120     H        0.16600    0.02270    0.12950    1.000
    H121     H        0.99270    0.91750    0.18530    1.000
    C216     C        0.26690    0.37920    0.26590    1.000
    C217     C        0.22380    0.08300    0.18540    1.000
    C218     C        0.28960    0.42170    0.23920    1.000
    C219     C        0.29040    0.36310    0.30570    1.000
    C220     C        0.25520    0.03840    0.16750    1.000
    C221     C        0.23290    0.10420    0.22800    1.000
    C222     C        0.00950    0.79850    0.21270    1.000
    C223     C        0.33340    0.44890    0.24980    1.000
    H122     H        0.27510    0.43300    0.21290    1.000
    C224     C        0.33380    0.38880    0.31750    1.000
    H123     H        0.27610    0.33430    0.32450    1.000
    H124     H        0.24980    0.02320    0.13940    1.000
    C225     C        0.29450    0.01650    0.19140    1.000
    C226     C        0.27170    0.08400    0.25200    1.000
    H125     H        0.21190    0.13300    0.24060    1.000
    C227     C        0.00910    0.73030    0.21160    1.000
    H126     H        0.01650    0.82090    0.18740    1.000
    C228     C        0.35480    0.43250    0.28950    1.000
    C229     C        0.35480    0.49720    0.22040    1.000
    C230     C        0.35650    0.37230    0.36050    1.000
    C231     C        0.30200    0.03950    0.23290    1.000
    C232     C        0.32800    0.97010    0.17170    1.000
    C233     C        0.27860    0.10690    0.29760    1.000
    C234     C        0.01840    0.69650    0.16970    1.000
    H127     H        0.38360    0.45110    0.29740    1.000
    C235     C        0.37510    0.55270    0.23570    1.000
    C236     C        0.35280    0.48720    0.17580    1.000
    C237     C        0.39950    0.39740    0.37340    1.000
    C238     C        0.33470    0.33140    0.38970    1.000
    H128     H        0.32810    0.02490    0.24880    1.000
    C239     C        0.31150    0.92420    0.14080    1.000
    C240     C        0.37530    0.96720    0.18450    1.000
    C241     C        0.32390    0.11310    0.31680    1.000
    C242     C        0.24030    0.12420    0.32220    1.000
    C243     C        0.00340    0.63790    0.16320    1.000
    C244     C        0.03940    0.72310    0.13670    1.000
    H129     H        0.37710    0.55980    0.26560    1.000
    C245     C        0.39270    0.59840    0.20750    1.000
    H130     H        0.33900    0.44990    0.16480    1.000
    C246     C        0.37110    0.53210    0.14730    1.000
    C247     C        0.42060    0.38320    0.41360    1.000
    H131     H        0.41500    0.42490    0.35460    1.000
    H132     H        0.30530    0.31400    0.38250    1.000
    C248     C        0.35610    0.31600    0.42930    1.000
    H133     H        0.27970    0.92370    0.13240    1.000
    C249     C        0.34230    0.88040    0.12340    1.000
    C250     C        0.40550    0.92230    0.16690    1.000
    H134     H        0.38690    0.99590    0.20530    1.000
    C251     C        0.32980    0.13310    0.35880    1.000
    H135     H        0.35040    0.10340    0.30040    1.000
    H136     H        0.21000    0.12160    0.31010    1.000
    C252     C        0.24630    0.14530    0.36510    1.000
    C253     C        0.01130    0.60600    0.12180    1.000
    H137     H        0.98740    0.61660    0.18510    1.000
    C254     C        0.04520    0.69430    0.09690    1.000
    H138     H        0.05130    0.76440    0.14040    1.000
    H139     H        0.40560    0.63630    0.21840    1.000
    C255     C        0.39120    0.58780    0.16310    1.000
    H140     H        0.36980    0.52450    0.11750    1.000
    H141     H        0.44910    0.40230    0.42170    1.000
    C256     C        0.39890    0.34060    0.44130    1.000
    H142     H        0.34080    0.28830    0.44820    1.000
    H143     H        0.33120    0.85150    0.10250    1.000
    C257     C        0.38930    0.87850    0.13630    1.000
    H144     H        0.43720    0.92170    0.17570    1.000
    C258     C        0.29160    0.14840    0.38400    1.000
    H145     H        0.36020    0.13640    0.37070    1.000
    H146     H        0.22020    0.15740    0.38110    1.000
    C259     C        0.03230    0.63450    0.08970    1.000
    H147     H        0.00110    0.56390    0.11820    1.000
    H148     H        0.05870    0.71760    0.07450    1.000
    C260     C        0.41150    0.63470    0.13190    1.000
    C261     C        0.42180    0.32320    0.48440    1.000
    C262     C        0.42330    0.83060    0.11790    1.000
    C263     C        0.29820    0.16770    0.43090    1.000
    C264     C        0.04020    0.60330    0.04640    1.000
    O61      O        0.33770    0.15760    0.44790    1.000
    O62      O        0.26440    0.19230    0.44990    1.000
    O63      O        0.05200    0.63650    0.01460    1.000
    O64      O        0.03340    0.54480    0.04340    1.000
    Ca16     Ca       0.37610    0.17150    0.51370    1.000
    Ca17     Ca       0.49020    0.26200    0.68720    1.000
    O65      O        0.55570    0.18600    0.69090    1.000
    O66      O        0.55440    0.23880    0.75250    1.000
    O67      O        0.52860    0.28650    0.61980    1.000
    O68      O        0.50620    0.36230    0.71420    1.000
    O69      O        0.46070    0.18080    0.63810    1.000
    O70      O        0.42960    0.31360    0.64640    1.000
    C265     C        0.57470    0.20420    0.72590    1.000
    Ca18     Ca       0.45940    0.29120    0.56920    1.000
    C266     C        0.54820    0.33490    0.60400    1.000
    C267     C        0.62510    0.18560    0.73590    1.000
    O71      O        0.53010    0.36510    0.57280    1.000
    O72      O        0.41090    0.37800    0.59200    1.000
    O73      O        0.41250    0.19520    0.58140    1.000
    O74      O        0.40580    0.27580    0.50520    1.000
    O75      O        0.45680    0.35400    0.49840    1.000
    C268     C        0.59510    0.35550    0.62250    1.000
    C269     C        0.65110    0.21320    0.76920    1.000
    C270     C        0.64640    0.13810    0.71100    1.000
    Ca19     Ca       0.52900    0.41560    0.50330    1.000
    C271     C        0.62130    0.31320    0.64860    1.000
    C272     C        0.61230    0.41670    0.61500    1.000
    C273     C        0.49580    0.49600    0.71160    1.000
    H149     H        0.63710    0.24460    0.78630    1.000
    C274     C        0.69700    0.19580    0.77800    1.000
    C275     C        0.69260    0.11940    0.72040    1.000
    H150     H        0.62970    0.11890    0.68820    1.000
    O76      O        0.49230    0.49620    0.54590    1.000
    N5       N        0.54280    0.43030    0.41950    1.000
    H151     H        0.61020    0.27180    0.65330    1.000
    C276     C        0.66390    0.33260    0.66750    1.000
    H152     H        0.59560    0.44480    0.59700    1.000
    C277     C        0.65470    0.43610    0.63460    1.000
    C278     C        0.49570    0.56100    0.71170    1.000
    H153     H        0.49300    0.47420    0.68530    1.000
    H154     H        0.71410    0.21740    0.79960    1.000
    C279     C        0.71910    0.14560    0.75470    1.000
    H155     H        0.70640    0.08820    0.70310    1.000
    C280     C        0.47870    0.50750    0.58490    1.000
    C281     C        0.68070    0.39490    0.66170    1.000
    H156     H        0.68140    0.30370    0.68430    1.000
    H157     H        0.66600    0.47730    0.62950    1.000
    H158     H        0.49270    0.58250    0.68530    1.000
    C282     C        0.76690    0.12080    0.76590    1.000
    C283     C        0.72380    0.41700    0.68540    1.000
    C284     C        0.78960    0.07830    0.73920    1.000
    C285     C        0.79040    0.13690    0.80570    1.000
    C286     C        0.75520    0.46160    0.66750    1.000
    C287     C        0.73290    0.39580    0.72800    1.000
    C288     C        0.50950    0.70150    0.71270    1.000
    C289     C        0.83340    0.05110    0.74980    1.000
    H159     H        0.77510    0.06700    0.71290    1.000
    C290     C        0.83380    0.11120    0.81750    1.000
    H160     H        0.77610    0.16570    0.82450    1.000
    H161     H        0.74980    0.47680    0.63940    1.000
    C291     C        0.79450    0.48350    0.69140    1.000
    C292     C        0.77170    0.41600    0.75200    1.000
    H162     H        0.71190    0.36700    0.74060    1.000
    C293     C        0.50910    0.76970    0.71160    1.000
    H163     H        0.51650    0.67910    0.68740    1.000
    C294     C        0.85480    0.06750    0.78950    1.000
    C295     C        0.85480    0.00280    0.72040    1.000
    C296     C        0.85650    0.12770    0.86050    1.000
    C297     C        0.80200    0.46050    0.73290    1.000
    C298     C        0.82800    0.52990    0.67170    1.000
    C299     C        0.77860    0.39310    0.79760    1.000
    C300     C        0.51840    0.80350    0.66970    1.000
    H164     H        0.88360    0.04890    0.79740    1.000
    C301     C        0.87510    0.94730    0.73570    1.000
    C302     C        0.85280    0.01280    0.67580    1.000
    C303     C        0.89950    0.10260    0.87340    1.000
    C304     C        0.83470    0.16860    0.88970    1.000
    H165     H        0.82810    0.47510    0.74880    1.000
    C305     C        0.81150    0.57580    0.64080    1.000
    C306     C        0.87530    0.53280    0.68450    1.000
    C307     C        0.82390    0.38690    0.81680    1.000
    C308     C        0.74030    0.37580    0.82220    1.000
    C309     C        0.50340    0.86210    0.66320    1.000
    C310     C        0.53940    0.77690    0.63670    1.000
    H166     H        0.87710    0.94020    0.76560    1.000
    C311     C        0.89270    0.90160    0.70750    1.000
    H167     H        0.83900    0.05010    0.66480    1.000
    C312     C        0.87110    0.96790    0.64730    1.000
    C313     C        0.92060    0.11680    0.91360    1.000
    H168     H        0.91500    0.07510    0.85460    1.000
    H169     H        0.80530    0.18600    0.88250    1.000
    C314     C        0.85610    0.18400    0.92930    1.000
    H170     H        0.77970    0.57630    0.63240    1.000
    C315     C        0.84230    0.61960    0.62340    1.000
    C316     C        0.90550    0.57770    0.66690    1.000
    H171     H        0.88690    0.50410    0.70530    1.000
    C317     C        0.82980    0.36690    0.85880    1.000
    H172     H        0.85040    0.39660    0.80040    1.000
    H173     H        0.71000    0.37840    0.81010    1.000
    C318     C        0.74630    0.35470    0.86510    1.000
    C319     C        0.51130    0.89400    0.62180    1.000
    H174     H        0.48740    0.88340    0.68510    1.000
    C320     C        0.54520    0.80570    0.59690    1.000
    H175     H        0.55130    0.73560    0.64040    1.000
    H176     H        0.90560    0.86370    0.71840    1.000
    C321     C        0.89120    0.91220    0.66310    1.000
    H177     H        0.86980    0.97550    0.61750    1.000
    H178     H        0.94910    0.09770    0.92170    1.000
    C322     C        0.89890    0.15940    0.94130    1.000
    H179     H        0.84080    0.21170    0.94820    1.000
    H180     H        0.83120    0.64850    0.60250    1.000
    C323     C        0.88930    0.62150    0.63630    1.000
    H181     H        0.93720    0.57830    0.67570    1.000
    C324     C        0.79160    0.35160    0.88400    1.000
    H182     H        0.86020    0.36360    0.87070    1.000
    H183     H        0.72020    0.34260    0.88110    1.000
    C325     C        0.53230    0.86550    0.58970    1.000
    H184     H        0.50110    0.93610    0.61820    1.000
    H185     H        0.55870    0.78240    0.57450    1.000
    C326     C        0.91150    0.86530    0.63190    1.000
    C327     C        0.92180    0.17680    0.98440    1.000
    C328     C        0.92330    0.66940    0.61790    1.000
    C329     C        0.79820    0.33230    0.93090    1.000
    C330     C        0.54020    0.89670    0.54640    1.000
    O77      O        0.83770    0.34240    0.94790    1.000
    O78      O        0.76440    0.30770    0.94990    1.000
    O79      O        0.55200    0.86350    0.51460    1.000
    O80      O        0.53340    0.95520    0.54340    1.000
    Ca20     Ca       0.87610    0.32850    0.01370    1.000
    Ca21     Ca       0.99020    0.76200    0.68720    1.000
    O81      O        0.05570    0.68600    0.69090    1.000
    O82      O        0.05440    0.73880    0.75250    1.000
    O83      O        0.02860    0.78650    0.61980    1.000
    O84      O        0.00620    0.86230    0.71420    1.000
    O85      O        0.96070    0.68080    0.63810    1.000
    O86      O        0.92960    0.81360    0.64640    1.000
    C331     C        0.07470    0.70420    0.72590    1.000
    Ca22     Ca       0.95940    0.79120    0.56920    1.000
    C332     C        0.04820    0.83490    0.60400    1.000
    C333     C        0.12510    0.68560    0.73590    1.000
    O87      O        0.03010    0.86510    0.57280    1.000
    O88      O        0.91090    0.87800    0.59200    1.000
    O89      O        0.91250    0.69520    0.58140    1.000
    O90      O        0.90580    0.77580    0.50520    1.000
    O91      O        0.95680    0.85400    0.49840    1.000
    C334     C        0.09510    0.85550    0.62250    1.000
    C335     C        0.15110    0.71320    0.76920    1.000
    C336     C        0.14640    0.63810    0.71100    1.000
    Ca23     Ca       0.02900    0.91560    0.50330    1.000
    C337     C        0.12130    0.81320    0.64860    1.000
    C338     C        0.11230    0.91670    0.61500    1.000
    C339     C        0.99580    0.99600    0.71160    1.000
    H186     H        0.13710    0.74460    0.78630    1.000
    C340     C        0.19700    0.69580    0.77800    1.000
    C341     C        0.19260    0.61940    0.72040    1.000
    H187     H        0.12970    0.61890    0.68820    1.000
    O92      O        0.99230    0.99620    0.54590    1.000
    N6       N        0.04280    0.93030    0.41950    1.000
    H188     H        0.11020    0.77180    0.65330    1.000
    C342     C        0.16390    0.83260    0.66750    1.000
    H189     H        0.09560    0.94480    0.59700    1.000
    C343     C        0.15470    0.93610    0.63460    1.000
    C344     C        0.99570    0.06100    0.71170    1.000
    H190     H        0.99300    0.97420    0.68530    1.000
    H191     H        0.21410    0.71740    0.79960    1.000
    C345     C        0.21910    0.64560    0.75470    1.000
    H192     H        0.20640    0.58820    0.70310    1.000
    C346     C        0.97870    0.00750    0.58490    1.000
    C347     C        0.18070    0.89490    0.66170    1.000
    H193     H        0.18140    0.80370    0.68430    1.000
    H194     H        0.16600    0.97730    0.62950    1.000
    H195     H        0.99270    0.08250    0.68530    1.000
    C348     C        0.26690    0.62080    0.76590    1.000
    C349     C        0.22380    0.91700    0.68540    1.000
    C350     C        0.28960    0.57830    0.73920    1.000
    C351     C        0.29040    0.63690    0.80570    1.000
    C352     C        0.25520    0.96160    0.66750    1.000
    C353     C        0.23290    0.89580    0.72800    1.000
    C354     C        0.00950    0.20150    0.71270    1.000
    C355     C        0.33340    0.55110    0.74980    1.000
    H196     H        0.27510    0.56700    0.71290    1.000
    C356     C        0.33380    0.61120    0.81750    1.000
    H197     H        0.27610    0.66570    0.82450    1.000
    H198     H        0.24980    0.97680    0.63940    1.000
    C357     C        0.29450    0.98350    0.69140    1.000
    C358     C        0.27170    0.91600    0.75200    1.000
    H199     H        0.21190    0.86700    0.74060    1.000
    C359     C        0.00910    0.26970    0.71160    1.000
    H200     H        0.01650    0.17910    0.68740    1.000
    C360     C        0.35480    0.56750    0.78950    1.000
    C361     C        0.35480    0.50280    0.72040    1.000
    C362     C        0.35650    0.62770    0.86050    1.000
    C363     C        0.30200    0.96050    0.73290    1.000
    C364     C        0.32800    0.02990    0.67170    1.000
    C365     C        0.27860    0.89310    0.79760    1.000
    C366     C        0.01840    0.30350    0.66970    1.000
    H201     H        0.38360    0.54890    0.79740    1.000
    C367     C        0.37510    0.44730    0.73570    1.000
    C368     C        0.35280    0.51280    0.67580    1.000
    C369     C        0.39950    0.60260    0.87340    1.000
    C370     C        0.33470    0.66860    0.88970    1.000
    H202     H        0.32810    0.97510    0.74880    1.000
    C371     C        0.31150    0.07580    0.64080    1.000
    C372     C        0.37530    0.03280    0.68450    1.000
    C373     C        0.32390    0.88690    0.81680    1.000
    C374     C        0.24030    0.87580    0.82220    1.000
    C375     C        0.00340    0.36210    0.66320    1.000
    C376     C        0.03940    0.27690    0.63670    1.000
    H203     H        0.37710    0.44020    0.76560    1.000
    C377     C        0.39270    0.40160    0.70750    1.000
    H204     H        0.33900    0.55010    0.66480    1.000
    C378     C        0.37110    0.46790    0.64730    1.000
    C379     C        0.42060    0.61680    0.91360    1.000
    H205     H        0.41500    0.57510    0.85460    1.000
    H206     H        0.30530    0.68600    0.88250    1.000
    C380     C        0.35610    0.68400    0.92930    1.000
    H207     H        0.27970    0.07630    0.63240    1.000
    C381     C        0.34230    0.11960    0.62340    1.000
    C382     C        0.40550    0.07770    0.66690    1.000
    H208     H        0.38690    0.00410    0.70530    1.000
    C383     C        0.32980    0.86690    0.85880    1.000
    H209     H        0.35040    0.89660    0.80040    1.000
    H210     H        0.21000    0.87840    0.81010    1.000
    C384     C        0.24630    0.85470    0.86510    1.000
    C385     C        0.01130    0.39400    0.62180    1.000
    H211     H        0.98740    0.38340    0.68510    1.000
    C386     C        0.04520    0.30570    0.59690    1.000
    H212     H        0.05130    0.23560    0.64040    1.000
    H213     H        0.40560    0.36370    0.71840    1.000
    C387     C        0.39120    0.41220    0.66310    1.000
    H214     H        0.36980    0.47550    0.61750    1.000
    H215     H        0.44910    0.59770    0.92170    1.000
    C388     C        0.39890    0.65940    0.94130    1.000
    H216     H        0.34080    0.71170    0.94820    1.000
    H217     H        0.33120    0.14850    0.60250    1.000
    C389     C        0.38930    0.12150    0.63630    1.000
    H218     H        0.43720    0.07830    0.67570    1.000
    C390     C        0.29160    0.85160    0.88400    1.000
    H219     H        0.36020    0.86360    0.87070    1.000
    H220     H        0.22020    0.84260    0.88110    1.000
    C391     C        0.03230    0.36550    0.58970    1.000
    H221     H        0.00110    0.43610    0.61820    1.000
    H222     H        0.05870    0.28240    0.57450    1.000
    C392     C        0.41150    0.36530    0.63190    1.000
    C393     C        0.42180    0.67680    0.98440    1.000
    C394     C        0.42330    0.16940    0.61790    1.000
    C395     C        0.29820    0.83230    0.93090    1.000
    C396     C        0.04020    0.39670    0.54640    1.000
    O93      O        0.33770    0.84240    0.94790    1.000
    O94      O        0.26440    0.80770    0.94990    1.000
    O95      O        0.05200    0.36350    0.51460    1.000
    O96      O        0.03340    0.45520    0.54340    1.000
    Ca24     Ca       0.37610    0.82850    0.01370    1.000
    Ca25     Ca       0.50980    0.26200    0.81280    1.000
    O97      O        0.44430    0.18600    0.80910    1.000
    O98      O        0.44560    0.23880    0.74750    1.000
    O99      O        0.47140    0.28650    0.88020    1.000
    O100     O        0.49380    0.36230    0.78580    1.000
    O101     O        0.53930    0.18080    0.86190    1.000
    O102     O        0.57040    0.31360    0.85360    1.000
    C397     C        0.42530    0.20420    0.77410    1.000
    Ca26     Ca       0.54060    0.29120    0.93080    1.000
    C398     C        0.45180    0.33490    0.89600    1.000
    C399     C        0.37490    0.18560    0.76410    1.000
    O103     O        0.46990    0.36510    0.92720    1.000
    O104     O        0.58910    0.37800    0.90800    1.000
    O105     O        0.58750    0.19520    0.91860    1.000
    O106     O        0.59420    0.27580    0.99480    1.000
    O107     O        0.54320    0.35400    0.00160    1.000
    C400     C        0.40490    0.35550    0.87750    1.000
    C401     C        0.34890    0.21320    0.73080    1.000
    C402     C        0.35360    0.13810    0.78900    1.000
    Ca27     Ca       0.47100    0.41560    0.99670    1.000
    C403     C        0.37870    0.31320    0.85140    1.000
    C404     C        0.38770    0.41670    0.88500    1.000
    C405     C        0.50420    0.49600    0.78840    1.000
    H223     H        0.36290    0.24460    0.71370    1.000
    C406     C        0.30300    0.19580    0.72200    1.000
    C407     C        0.30740    0.11940    0.77960    1.000
    H224     H        0.37030    0.11890    0.81180    1.000
    O108     O        0.50770    0.49620    0.95410    1.000
    N7       N        0.45720    0.43030    0.08050    1.000
    H225     H        0.38980    0.27180    0.84670    1.000
    C408     C        0.33610    0.33260    0.83250    1.000
    H226     H        0.40440    0.44480    0.90300    1.000
    C409     C        0.34530    0.43610    0.86540    1.000
    C410     C        0.50430    0.56100    0.78830    1.000
    H227     H        0.50700    0.47420    0.81470    1.000
    H228     H        0.28590    0.21740    0.70040    1.000
    C411     C        0.28090    0.14560    0.74530    1.000
    H229     H        0.29360    0.08820    0.79690    1.000
    C412     C        0.52130    0.50750    0.91510    1.000
    C413     C        0.31930    0.39490    0.83830    1.000
    H230     H        0.31860    0.30370    0.81570    1.000
    H231     H        0.33400    0.47730    0.87050    1.000
    H232     H        0.50730    0.58250    0.81470    1.000
    C414     C        0.23310    0.12080    0.73410    1.000
    C415     C        0.27620    0.41700    0.81460    1.000
    C416     C        0.21040    0.07830    0.76080    1.000
    C417     C        0.20960    0.13690    0.69430    1.000
    C418     C        0.24480    0.46160    0.83250    1.000
    C419     C        0.26710    0.39580    0.77200    1.000
    C420     C        0.49050    0.70150    0.78730    1.000
    C421     C        0.16660    0.05110    0.75020    1.000
    H233     H        0.22490    0.06700    0.78710    1.000
    C422     C        0.16620    0.11120    0.68250    1.000
    H234     H        0.22390    0.16570    0.67550    1.000
    H235     H        0.25020    0.47680    0.86060    1.000
    C423     C        0.20550    0.48350    0.80860    1.000
    C424     C        0.22830    0.41600    0.74800    1.000
    H236     H        0.28810    0.36700    0.75940    1.000
    C425     C        0.49090    0.76970    0.78840    1.000
    H237     H        0.48350    0.67910    0.81260    1.000
    C426     C        0.14520    0.06750    0.71050    1.000
    C427     C        0.14520    0.00280    0.77960    1.000
    C428     C        0.14350    0.12770    0.63950    1.000
    C429     C        0.19800    0.46050    0.76710    1.000
    C430     C        0.17200    0.52990    0.82830    1.000
    C431     C        0.22140    0.39310    0.70240    1.000
    C432     C        0.48160    0.80350    0.83030    1.000
    H238     H        0.11640    0.04890    0.70260    1.000
    C433     C        0.12490    0.94730    0.76430    1.000
    C434     C        0.14720    0.01280    0.82420    1.000
    C435     C        0.10050    0.10260    0.62660    1.000
    C436     C        0.16530    0.16860    0.61030    1.000
    H239     H        0.17190    0.47510    0.75120    1.000
    C437     C        0.18850    0.57580    0.85920    1.000
    C438     C        0.12470    0.53280    0.81550    1.000
    C439     C        0.17610    0.38690    0.68320    1.000
    C440     C        0.25970    0.37580    0.67780    1.000
    C441     C        0.49660    0.86210    0.83680    1.000
    C442     C        0.46060    0.77690    0.86330    1.000
    H240     H        0.12290    0.94020    0.73440    1.000
    C443     C        0.10730    0.90160    0.79250    1.000
    H241     H        0.16100    0.05010    0.83520    1.000
    C444     C        0.12890    0.96790    0.85270    1.000
    C445     C        0.07940    0.11680    0.58640    1.000
    H242     H        0.08500    0.07510    0.64540    1.000
    H243     H        0.19470    0.18600    0.61750    1.000
    C446     C        0.14390    0.18400    0.57070    1.000
    H244     H        0.22030    0.57630    0.86760    1.000
    C447     C        0.15770    0.61960    0.87660    1.000
    C448     C        0.09450    0.57770    0.83310    1.000
    H245     H        0.11310    0.50410    0.79470    1.000
    C449     C        0.17020    0.36690    0.64120    1.000
    H246     H        0.14960    0.39660    0.69960    1.000
    H247     H        0.29000    0.37840    0.68990    1.000
    C450     C        0.25370    0.35470    0.63490    1.000
    C451     C        0.48870    0.89400    0.87820    1.000
    H248     H        0.51260    0.88340    0.81490    1.000
    C452     C        0.45480    0.80570    0.90310    1.000
    H249     H        0.44870    0.73560    0.85960    1.000
    H250     H        0.09440    0.86370    0.78160    1.000
    C453     C        0.10880    0.91220    0.83690    1.000
    H251     H        0.13020    0.97550    0.88250    1.000
    H252     H        0.05090    0.09770    0.57830    1.000
    C454     C        0.10110    0.15940    0.55870    1.000
    H253     H        0.15920    0.21170    0.55180    1.000
    H254     H        0.16880    0.64850    0.89750    1.000
    C455     C        0.11070    0.62150    0.86370    1.000
    H255     H        0.06280    0.57830    0.82430    1.000
    C456     C        0.20840    0.35160    0.61600    1.000
    H256     H        0.13980    0.36360    0.62930    1.000
    H257     H        0.27980    0.34260    0.61890    1.000
    C457     C        0.46770    0.86550    0.91030    1.000
    H258     H        0.49890    0.93610    0.88180    1.000
    H259     H        0.44130    0.78240    0.92550    1.000
    C458     C        0.08850    0.86530    0.86810    1.000
    C459     C        0.07820    0.17680    0.51560    1.000
    C460     C        0.07670    0.66940    0.88210    1.000
    C461     C        0.20180    0.33230    0.56910    1.000
    C462     C        0.45980    0.89670    0.95360    1.000
    O109     O        0.16230    0.34240    0.55210    1.000
    O110     O        0.23560    0.30770    0.55010    1.000
    O111     O        0.44800    0.86350    0.98540    1.000
    O112     O        0.46660    0.95520    0.95660    1.000
    Ca28     Ca       0.12390    0.32850    0.48630    1.000
    Ca29     Ca       0.00980    0.76200    0.81280    1.000
    O113     O        0.94430    0.68600    0.80910    1.000
    O114     O        0.94560    0.73880    0.74750    1.000
    O115     O        0.97140    0.78650    0.88020    1.000
    O116     O        0.99380    0.86230    0.78580    1.000
    O117     O        0.03930    0.68080    0.86190    1.000
    O118     O        0.07040    0.81360    0.85360    1.000
    C463     C        0.92530    0.70420    0.77410    1.000
    Ca30     Ca       0.04060    0.79120    0.93080    1.000
    C464     C        0.95180    0.83490    0.89600    1.000
    C465     C        0.87490    0.68560    0.76410    1.000
    O119     O        0.96990    0.86510    0.92720    1.000
    O120     O        0.08910    0.87800    0.90800    1.000
    O121     O        0.08750    0.69520    0.91860    1.000
    O122     O        0.09420    0.77580    0.99480    1.000
    O123     O        0.04320    0.85400    0.00160    1.000
    C466     C        0.90490    0.85550    0.87750    1.000
    C467     C        0.84890    0.71320    0.73080    1.000
    C468     C        0.85360    0.63810    0.78900    1.000
    Ca31     Ca       0.97100    0.91560    0.99670    1.000
    C469     C        0.87870    0.81320    0.85140    1.000
    C470     C        0.88770    0.91670    0.88500    1.000
    C471     C        0.00420    0.99600    0.78840    1.000
    H260     H        0.86290    0.74460    0.71370    1.000
    C472     C        0.80300    0.69580    0.72200    1.000
    C473     C        0.80740    0.61940    0.77960    1.000
    H261     H        0.87030    0.61890    0.81180    1.000
    O124     O        0.00770    0.99620    0.95410    1.000
    N8       N        0.95720    0.93030    0.08050    1.000
    H262     H        0.88980    0.77180    0.84670    1.000
    C474     C        0.83610    0.83260    0.83250    1.000
    H263     H        0.90440    0.94480    0.90300    1.000
    C475     C        0.84530    0.93610    0.86540    1.000
    C476     C        0.00430    0.06100    0.78830    1.000
    H264     H        0.00700    0.97420    0.81470    1.000
    H265     H        0.78590    0.71740    0.70040    1.000
    C477     C        0.78090    0.64560    0.74530    1.000
    H266     H        0.79360    0.58820    0.79690    1.000
    C478     C        0.02130    0.00750    0.91510    1.000
    C479     C        0.81930    0.89490    0.83830    1.000
    H267     H        0.81860    0.80370    0.81570    1.000
    H268     H        0.83400    0.97730    0.87050    1.000
    H269     H        0.00730    0.08250    0.81470    1.000
    C480     C        0.73310    0.62080    0.73410    1.000
    C481     C        0.77620    0.91700    0.81460    1.000
    C482     C        0.71040    0.57830    0.76080    1.000
    C483     C        0.70960    0.63690    0.69430    1.000
    C484     C        0.74480    0.96160    0.83250    1.000
    C485     C        0.76710    0.89580    0.77200    1.000
    C486     C        0.99050    0.20150    0.78730    1.000
    C487     C        0.66660    0.55110    0.75020    1.000
    H270     H        0.72490    0.56700    0.78710    1.000
    C488     C        0.66620    0.61120    0.68250    1.000
    H271     H        0.72390    0.66570    0.67550    1.000
    H272     H        0.75020    0.97680    0.86060    1.000
    C489     C        0.70550    0.98350    0.80860    1.000
    C490     C        0.72830    0.91600    0.74800    1.000
    H273     H        0.78810    0.86700    0.75940    1.000
    C491     C        0.99090    0.26970    0.78840    1.000
    H274     H        0.98350    0.17910    0.81260    1.000
    C492     C        0.64520    0.56750    0.71050    1.000
    C493     C        0.64520    0.50280    0.77960    1.000
    C494     C        0.64350    0.62770    0.63950    1.000
    C495     C        0.69800    0.96050    0.76710    1.000
    C496     C        0.67200    0.02990    0.82830    1.000
    C497     C        0.72140    0.89310    0.70240    1.000
    C498     C        0.98160    0.30350    0.83030    1.000
    H275     H        0.61640    0.54890    0.70260    1.000
    C499     C        0.62490    0.44730    0.76430    1.000
    C500     C        0.64720    0.51280    0.82420    1.000
    C501     C        0.60050    0.60260    0.62660    1.000
    C502     C        0.66530    0.66860    0.61030    1.000
    H276     H        0.67190    0.97510    0.75120    1.000
    C503     C        0.68850    0.07580    0.85920    1.000
    C504     C        0.62470    0.03280    0.81550    1.000
    C505     C        0.67610    0.88690    0.68320    1.000
    C506     C        0.75970    0.87580    0.67780    1.000
    C507     C        0.99660    0.36210    0.83680    1.000
    C508     C        0.96060    0.27690    0.86330    1.000
    H277     H        0.62290    0.44020    0.73440    1.000
    C509     C        0.60730    0.40160    0.79250    1.000
    H278     H        0.66100    0.55010    0.83520    1.000
    C510     C        0.62890    0.46790    0.85270    1.000
    C511     C        0.57940    0.61680    0.58640    1.000
    H279     H        0.58500    0.57510    0.64540    1.000
    H280     H        0.69470    0.68600    0.61750    1.000
    C512     C        0.64390    0.68400    0.57070    1.000
    H281     H        0.72030    0.07630    0.86760    1.000
    C513     C        0.65770    0.11960    0.87660    1.000
    C514     C        0.59450    0.07770    0.83310    1.000
    H282     H        0.61310    0.00410    0.79470    1.000
    C515     C        0.67020    0.86690    0.64120    1.000
    H283     H        0.64960    0.89660    0.69960    1.000
    H284     H        0.79000    0.87840    0.68990    1.000
    C516     C        0.75370    0.85470    0.63490    1.000
    C517     C        0.98870    0.39400    0.87820    1.000
    H285     H        0.01260    0.38340    0.81490    1.000
    C518     C        0.95480    0.30570    0.90310    1.000
    H286     H        0.94870    0.23560    0.85960    1.000
    H287     H        0.59440    0.36370    0.78160    1.000
    C519     C        0.60880    0.41220    0.83690    1.000
    H288     H        0.63020    0.47550    0.88250    1.000
    H289     H        0.55090    0.59770    0.57830    1.000
    C520     C        0.60110    0.65940    0.55870    1.000
    H290     H        0.65920    0.71170    0.55180    1.000
    H291     H        0.66880    0.14850    0.89750    1.000
    C521     C        0.61070    0.12150    0.86370    1.000
    H292     H        0.56280    0.07830    0.82430    1.000
    C522     C        0.70840    0.85160    0.61600    1.000
    H293     H        0.63980    0.86360    0.62930    1.000
    H294     H        0.77980    0.84260    0.61890    1.000
    C523     C        0.96770    0.36550    0.91030    1.000
    H295     H        0.99890    0.43610    0.88180    1.000
    H296     H        0.94130    0.28240    0.92550    1.000
    C524     C        0.58850    0.36530    0.86810    1.000
    C525     C        0.57820    0.67680    0.51560    1.000
    C526     C        0.57670    0.16940    0.88210    1.000
    C527     C        0.70180    0.83230    0.56910    1.000
    C528     C        0.95980    0.39670    0.95360    1.000
    O125     O        0.66230    0.84240    0.55210    1.000
    O126     O        0.73560    0.80770    0.55010    1.000
    O127     O        0.94800    0.36350    0.98540    1.000
    O128     O        0.96660    0.45520    0.95660    1.000
    Ca32     Ca       0.62390    0.82850    0.48630    1.000
    C529     C        0.50000    0.60970    0.25000    1.000
    C530     C        0.50000    0.53850    0.25000    1.000
    C531     C        0.50000    0.40310    0.25000    1.000
    C532     C        0.50000    0.33240    0.25000    1.000
    C533     C        0.50000    0.19890    0.25000    1.000
    H297     H        0.50000    0.15430    0.25000    1.000
    C534     C        0.00000    0.10970    0.25000    1.000
    C535     C        0.00000    0.03850    0.25000    1.000
    C536     C        0.00000    0.90310    0.25000    1.000
    C537     C        0.00000    0.83240    0.25000    1.000
    C538     C        0.00000    0.69890    0.25000    1.000
    H298     H        0.00000    0.65430    0.25000    1.000
    C539     C        0.50000    0.39030    0.75000    1.000
    C540     C        0.50000    0.46150    0.75000    1.000
    C541     C        0.50000    0.59690    0.75000    1.000
    C542     C        0.50000    0.66760    0.75000    1.000
    C543     C        0.50000    0.80110    0.75000    1.000
    H299     H        0.50000    0.84570    0.75000    1.000
    C544     C        0.00000    0.89030    0.75000    1.000
    C545     C        0.00000    0.96150    0.75000    1.000
    C546     C        0.00000    0.09690    0.75000    1.000
    C547     C        0.00000    0.16760    0.75000    1.000
    C548     C        0.00000    0.30110    0.75000    1.000
    H300     H        0.00000    0.34570    0.75000    1.000
