data_functionalizedCrystal
_audit_creation_method	'EQeq! by Chris Wilmer'
_symmetry_space_group_name_H-M	'P1'
_symmetry_Int_Tables_number	1
_symmetry_cell_setting	triclinic
loop_
_symmetry_equiv_pos_as_xyz
  x,y,z
_cell_length_a	13.036
_cell_length_b	12.2948
_cell_length_c	18.7055
_cell_angle_alpha	90
_cell_angle_beta	123.019
_cell_angle_gamma	90
loop_
_atom_site_label
_atom_site_type_symbol
_atom_site_fract_x
_atom_site_fract_y
_atom_site_fract_z
_atom_site_charge
Mof_Zn	Zn	0.59993	0.69252	0.12625	1.222
Mof_C 	C 	0.6113	0.5876	0.983	-0.004
Mof_H 	H 	0.6374	0.5205	0.0102	0.03
Mof_C 	C 	0.5927	0.6124	0.9067	0.01
Mof_H 	H 	0.6018	0.5661	0.8712	0.043
Mof_C 	C 	0.5526	0.7567	0.958	0.113
Mof_H 	H 	0.5294	0.8266	0.9625	0.004
Mof_C 	C 	0.5293	0.7841	0.8182	0.205
Mof_C 	C 	0.5336	0.8952	0.823	-0.236
Mof_H 	H 	0.5584	0.9308	0.8738	0.134
Mof_C 	C 	0.8231	0.1857	0.2567	0.282
Mof_C 	C 	0.0085	0.2916	0.3467	0.291
Mof_C 	C 	0.0189	0.0936	0.3516	0.291
Mof_C 	C 	0.8163	0.3821	0.2458	0.188
Mof_H 	H 	0.7545	0.3684	0.1862	0.007
Mof_H 	H 	0.8705	0.4381	0.2482	0.01
Mof_C 	C 	0.755	0.4229	0.2892	-0.507
Mof_H 	H 	0.817	0.4406	0.348	0.199
Mof_H 	H 	0.7041	0.3656	0.2895	0.206
Mof_C 	C 	0.6773	0.522	0.2461	0.522
Mof_C 	C 	0.205	0.1984	0.4328	0.143
Mof_H 	H 	0.2344	0.2618	0.4182	0.01
Mof_H 	H 	0.2391	0.1346	0.4227	0.023
Mof_C 	C 	0.2526	0.2035	0.5276	-0.446
Mof_H 	H 	0.2192	0.2662	0.5396	0.185
Mof_H 	H 	0.23	0.1383	0.5451	0.18
Mof_C 	C 	0.3898	0.2125	0.5738	0.432
Mof_C 	C 	0.8349	0.9867	0.2568	0.152
Mof_H 	H 	0.8918	0.9361	0.2567	0.023
Mof_H 	H 	0.7672	0.9968	0.1983	0.02
Mof_C 	C 	0.7866	0.9374	0.3075	-0.459
Mof_H 	H 	0.8547	0.9151	0.3632	0.179
Mof_H 	H 	0.7399	0.9916	0.3158	0.184
Mof_C 	C 	0.7062	0.8401	0.2613	0.479
Mof_O 	O 	0.6262	0.5672	0.2783	-0.5
Mof_O 	O 	0.6705	0.5521	0.1793	-0.509
Mof_O 	O 	0.4482	0.1447	0.5636	-0.366
Mof_O 	O 	0.4414	0.3018	0.6186	-0.578
Mof_O 	O 	0.6297	0.8101	0.2792	-0.476
Mof_O 	O 	0.7209	0.7946	0.2069	-0.495
Mof_O 	O 	0.715	0.1808	0.2062	-0.253
Mof_O 	O 	0.058	0.3784	0.3719	-0.254
Mof_O 	O 	0.0773	0.0111	0.3815	-0.252
Mof_N 	N 	0.5848	0.68	0.015	-0.259
Mof_N 	N 	0.5575	0.7206	0.8916	-0.145
Mof_N 	N 	0.8866	0.2828	0.2841	-0.218
Mof_N 	N 	0.0721	0.1943	0.3762	-0.213
Mof_N 	N 	0.8962	0.0907	0.2908	-0.208
Mof_Zn	Zn	0.40007	0.69252	0.37375	1.223
Mof_C 	C 	0.3887	0.5876	0.517	-0.003
Mof_H 	H 	0.3626	0.5205	0.4898	0.031
Mof_C 	C 	0.4073	0.6124	0.5933	0.011
Mof_H 	H 	0.3982	0.5661	0.6288	0.044
Mof_C 	C 	0.4474	0.7567	0.542	0.114
Mof_H 	H 	0.4706	0.8266	0.5375	0.005
Mof_C 	C 	0.4707	0.7841	0.6818	0.206
Mof_C 	C 	0.4664	0.8952	0.677	-0.235
Mof_H 	H 	0.4416	0.9308	0.6262	0.135
Mof_C 	C 	0.1769	0.1857	0.2433	0.282
Mof_C 	C 	0.9915	0.2916	0.1533	0.291
Mof_C 	C 	0.9811	0.0936	0.1484	0.291
Mof_C 	C 	0.1837	0.3821	0.2542	0.188
Mof_H 	H 	0.2455	0.3684	0.3138	0.007
Mof_H 	H 	0.1295	0.4381	0.2518	0.01
Mof_C 	C 	0.245	0.4229	0.2108	-0.507
Mof_H 	H 	0.183	0.4406	0.152	0.199
Mof_H 	H 	0.2959	0.3656	0.2105	0.206
Mof_C 	C 	0.3227	0.522	0.2539	0.522
Mof_C 	C 	0.795	0.1984	0.0672	0.144
Mof_H 	H 	0.7656	0.2618	0.0818	0.01
Mof_H 	H 	0.7609	0.1346	0.0773	0.023
Mof_C 	C 	0.7474	0.2035	0.9724	-0.447
Mof_H 	H 	0.7808	0.2662	0.9604	0.185
Mof_H 	H 	0.77	0.1383	0.9549	0.18
Mof_C 	C 	0.6102	0.2125	0.9262	0.432
Mof_C 	C 	0.1651	0.9867	0.2432	0.152
Mof_H 	H 	0.1082	0.9361	0.2433	0.023
Mof_H 	H 	0.2328	0.9968	0.3017	0.02
Mof_C 	C 	0.2134	0.9374	0.1925	-0.458
Mof_H 	H 	0.1453	0.9151	0.1368	0.179
Mof_H 	H 	0.2601	0.9916	0.1842	0.184
Mof_C 	C 	0.2938	0.8401	0.2387	0.479
Mof_O 	O 	0.3738	0.5672	0.2217	-0.5
Mof_O 	O 	0.3295	0.5521	0.3207	-0.509
Mof_O 	O 	0.5518	0.1447	0.9364	-0.366
Mof_O 	O 	0.5586	0.3018	0.8814	-0.578
Mof_O 	O 	0.3703	0.8101	0.2208	-0.476
Mof_O 	O 	0.2791	0.7946	0.2931	-0.495
Mof_O 	O 	0.285	0.1808	0.2938	-0.253
Mof_O 	O 	0.942	0.3784	0.1281	-0.254
Mof_O 	O 	0.9227	0.0111	0.1185	-0.252
Mof_N 	N 	0.4152	0.68	0.485	-0.258
Mof_N 	N 	0.4425	0.7206	0.6084	-0.145
Mof_N 	N 	0.1134	0.2828	0.2159	-0.218
Mof_N 	N 	0.9279	0.1943	0.1238	-0.213
Mof_N 	N 	0.1038	0.0907	0.2092	-0.209
Mof_Zn	Zn	0.40007	0.30748	0.87375	1.223
Mof_C 	C 	0.3887	0.4124	0.017	-0.003
Mof_H 	H 	0.3626	0.4795	0.9898	0.031
Mof_C 	C 	0.4073	0.3876	0.0933	0.011
Mof_H 	H 	0.3982	0.4339	0.1288	0.044
Mof_C 	C 	0.4474	0.2433	0.042	0.114
Mof_H 	H 	0.4706	0.1734	0.0375	0.005
Mof_C 	C 	0.4707	0.2159	0.1818	0.206
Mof_C 	C 	0.4664	0.1048	0.177	-0.235
Mof_H 	H 	0.4416	0.0692	0.1262	0.135
Mof_C 	C 	0.1769	0.8143	0.7433	0.282
Mof_C 	C 	0.9915	0.7084	0.6533	0.291
Mof_C 	C 	0.9811	0.9064	0.6484	0.291
Mof_C 	C 	0.1837	0.6179	0.7542	0.188
Mof_H 	H 	0.2455	0.6316	0.8138	0.007
Mof_H 	H 	0.1295	0.5619	0.7518	0.01
Mof_C 	C 	0.245	0.5771	0.7108	-0.507
Mof_H 	H 	0.183	0.5594	0.652	0.199
Mof_H 	H 	0.2959	0.6344	0.7105	0.206
Mof_C 	C 	0.3227	0.478	0.7539	0.522
Mof_C 	C 	0.795	0.8016	0.5672	0.143
Mof_H 	H 	0.7656	0.7382	0.5818	0.01
Mof_H 	H 	0.7609	0.8654	0.5773	0.023
Mof_C 	C 	0.7474	0.7965	0.4724	-0.446
Mof_H 	H 	0.7808	0.7338	0.4604	0.185
Mof_H 	H 	0.77	0.8617	0.4549	0.18
Mof_C 	C 	0.6102	0.7875	0.4262	0.432
Mof_C 	C 	0.1651	0.0133	0.7432	0.152
Mof_H 	H 	0.1082	0.0639	0.7433	0.023
Mof_H 	H 	0.2328	0.0032	0.8017	0.02
Mof_C 	C 	0.2134	0.0626	0.6925	-0.459
Mof_H 	H 	0.1453	0.0849	0.6368	0.179
Mof_H 	H 	0.2601	0.0084	0.6842	0.184
Mof_C 	C 	0.2938	0.1599	0.7387	0.479
Mof_O 	O 	0.3738	0.4328	0.7217	-0.5
Mof_O 	O 	0.3295	0.4479	0.8207	-0.509
Mof_O 	O 	0.5518	0.8553	0.4364	-0.366
Mof_O 	O 	0.5586	0.6982	0.3814	-0.578
Mof_O 	O 	0.3703	0.1899	0.7208	-0.476
Mof_O 	O 	0.2791	0.2054	0.7931	-0.495
Mof_O 	O 	0.285	0.8192	0.7938	-0.253
Mof_O 	O 	0.942	0.6216	0.6281	-0.254
Mof_O 	O 	0.9227	0.9889	0.6185	-0.252
Mof_N 	N 	0.4152	0.32	0.985	-0.259
Mof_N 	N 	0.4425	0.2794	0.1084	-0.145
Mof_N 	N 	0.1134	0.7172	0.7159	-0.218
Mof_N 	N 	0.9279	0.8057	0.6238	-0.213
Mof_N 	N 	0.1038	0.9093	0.7092	-0.208
Mof_Zn	Zn	0.59993	0.30748	0.62625	1.223
Mof_C 	C 	0.6113	0.4124	0.483	-0.003
Mof_H 	H 	0.6374	0.4795	0.5102	0.031
Mof_C 	C 	0.5927	0.3876	0.4067	0.011
Mof_H 	H 	0.6018	0.4339	0.3712	0.044
Mof_C 	C 	0.5526	0.2433	0.458	0.114
Mof_H 	H 	0.5294	0.1734	0.4625	0.005
Mof_C 	C 	0.5293	0.2159	0.3182	0.206
Mof_C 	C 	0.5336	0.1048	0.323	-0.235
Mof_H 	H 	0.5584	0.0692	0.3738	0.135
Mof_C 	C 	0.8231	0.8143	0.7567	0.282
Mof_C 	C 	0.0085	0.7084	0.8467	0.291
Mof_C 	C 	0.0189	0.9064	0.8516	0.291
Mof_C 	C 	0.8163	0.6179	0.7458	0.188
Mof_H 	H 	0.7545	0.6316	0.6862	0.007
Mof_H 	H 	0.8705	0.5619	0.7482	0.01
Mof_C 	C 	0.755	0.5771	0.7892	-0.507
Mof_H 	H 	0.817	0.5594	0.848	0.199
Mof_H 	H 	0.7041	0.6344	0.7895	0.206
Mof_C 	C 	0.6773	0.478	0.7461	0.522
Mof_C 	C 	0.205	0.8016	0.9328	0.144
Mof_H 	H 	0.2344	0.7382	0.9182	0.01
Mof_H 	H 	0.2391	0.8654	0.9227	0.023
Mof_C 	C 	0.2526	0.7965	0.0276	-0.447
Mof_H 	H 	0.2192	0.7338	0.0396	0.185
Mof_H 	H 	0.23	0.8617	0.0451	0.18
Mof_C 	C 	0.3898	0.7875	0.0738	0.432
Mof_C 	C 	0.8349	0.0133	0.7568	0.152
Mof_H 	H 	0.8918	0.0639	0.7567	0.023
Mof_H 	H 	0.7672	0.0032	0.6983	0.02
Mof_C 	C 	0.7866	0.0626	0.8075	-0.458
Mof_H 	H 	0.8547	0.0849	0.8632	0.179
Mof_H 	H 	0.7399	0.0084	0.8158	0.184
Mof_C 	C 	0.7062	0.1599	0.7613	0.479
Mof_O 	O 	0.6262	0.4328	0.7783	-0.5
Mof_O 	O 	0.6705	0.4479	0.6793	-0.509
Mof_O 	O 	0.4482	0.8553	0.0636	-0.366
Mof_O 	O 	0.4414	0.6982	0.1186	-0.578
Mof_O 	O 	0.6297	0.1899	0.7792	-0.476
Mof_O 	O 	0.7209	0.2054	0.7069	-0.495
Mof_O 	O 	0.715	0.8192	0.7062	-0.253
Mof_O 	O 	0.058	0.6216	0.8719	-0.254
Mof_O 	O 	0.0773	0.9889	0.8815	-0.252
Mof_N 	N 	0.5848	0.32	0.515	-0.258
Mof_N 	N 	0.5575	0.2794	0.3916	-0.145
Mof_N 	N 	0.8866	0.7172	0.7841	-0.218
Mof_N 	N 	0.0721	0.8057	0.8762	-0.213
Mof_N 	N 	0.8962	0.9093	0.7908	-0.209
Mof_Zn	Zn	0.5	0.68697	0.25	1.241
Mof_Zn	Zn	0.5	0.31303	0.75	1.241
Mof_C 	C 	0.5	0.9528	0.75	0.148
Mof_H 	H 	0.5	0.0285	0.75	-0.003
Mof_N 	N 	0.5	0.7287	0.75	-0.18
Mof_C 	C 	0.5	0.0472	0.25	0.148
Mof_H 	H 	0.5	0.9715	0.25	-0.003
Mof_N 	N 	0.5	0.2713	0.25	-0.18
_end
