data_functionalizedCrystal
_audit_creation_method	'EQeq! by Chris Wilmer'
_symmetry_space_group_name_H-M	'P1'
_symmetry_Int_Tables_number	1
_symmetry_cell_setting	triclinic
loop_
_symmetry_equiv_pos_as_xyz
  x,y,z
_cell_length_a	13.504
_cell_length_b	7.4447
_cell_length_c	8.2059
_cell_angle_alpha	90
_cell_angle_beta	90
_cell_angle_gamma	90
loop_
_atom_site_label
_atom_site_type_symbol
_atom_site_fract_x
_atom_site_fract_y
_atom_site_fract_z
_atom_site_charge
Mof_Cu	Cu	0.43512	0.15208	0.03785	0.709
Mof_Cu	Cu	0.06663	0.15093	0.14566	0.745
Mof_N 	N 	0.293	0.1688	0.0804	-0.257
Mof_C 	C 	0.2089	0.1701	0.1107	-0.303
Mof_N 	N 	0.4597	0.5064	0.8468	-0.203
Mof_C 	C 	0.4855	0.4211	0.9551	-0.175
Mof_N 	N 	0.4628	0.9997	0.8476	-0.151
Mof_C 	C 	0.4835	0.9136	0.7363	-0.326
Mof_Cu	Cu	0.56488	0.84792	0.53785	0.781
Mof_Cu	Cu	0.93337	0.84907	0.64566	0.787
Mof_N 	N 	0.707	0.8312	0.5804	-0.222
Mof_C 	C 	0.7911	0.8299	0.6107	-0.226
Mof_N 	N 	0.5403	0.4936	0.3468	-0.212
Mof_C 	C 	0.5145	0.5789	0.4551	-0.362
Mof_N 	N 	0.5372	0.0003	0.3476	-0.198
Mof_C 	C 	0.5165	0.0864	0.2363	-0.388
Mof_Cu	Cu	0.93512	0.34792	0.03785	0.697
Mof_Cu	Cu	0.56663	0.34907	0.14566	0.736
Mof_N 	N 	0.793	0.3312	0.0804	-0.261
Mof_C 	C 	0.7089	0.3299	0.1107	-0.313
Mof_N 	N 	0.9597	0.9936	0.8468	-0.225
Mof_C 	C 	0.9855	0.0789	0.9551	-0.17
Mof_N 	N 	0.9628	0.5003	0.8476	-0.144
Mof_C 	C 	0.9835	0.5864	0.7363	-0.338
Mof_Cu	Cu	0.06488	0.65208	0.53785	0.794
Mof_Cu	Cu	0.43337	0.65093	0.64566	0.796
Mof_N 	N 	0.207	0.6688	0.5804	-0.218
Mof_C 	C 	0.2911	0.6701	0.6107	-0.217
Mof_N 	N 	0.0403	0.0064	0.3468	-0.195
Mof_C 	C 	0.0145	0.9211	0.4551	-0.363
Mof_N 	N 	0.0372	0.4997	0.3476	-0.203
Mof_C 	C 	0.0165	0.4136	0.2363	-0.375
_end
