data_functionalizedCrystal
_audit_creation_method	'EQeq! by Chris Wilmer'
_symmetry_space_group_name_H-M	'P1'
_symmetry_Int_Tables_number	1
_symmetry_cell_setting	triclinic
loop_
_symmetry_equiv_pos_as_xyz
  x,y,z
_cell_length_a	11.942
_cell_length_b	21.5758
_cell_length_c	25.1163
_cell_angle_alpha	90
_cell_angle_beta	90
_cell_angle_gamma	90
loop_
_atom_site_label
_atom_site_type_symbol
_atom_site_fract_x
_atom_site_fract_y
_atom_site_fract_z
_atom_site_charge
Mof_Ag	Ag	0.54653	0.81703	0.74486	0.62
Mof_Ag	Ag	0.54653	0.68297	0.25514	0.617
Mof_Ag	Ag	0.95347	0.68297	0.24486	0.636
Mof_Ag	Ag	0.95347	0.81703	0.75514	0.636
Mof_Ag	Ag	0.45347	0.18297	0.25514	0.616
Mof_Ag	Ag	0.45347	0.31703	0.74486	0.619
Mof_Ag	Ag	0.04653	0.31703	0.75514	0.6
Mof_Ag	Ag	0.04653	0.18297	0.24486	0.596
Mof_Ag	Ag	0.5	0.5	0.5	0.714
Mof_Ag	Ag	0.5	0	0.5	0.674
Mof_Ag	Ag	-0	0	-0	0.575
Mof_Ag	Ag	-7.80155e-33	0.5	-0	0.617
Mof_Ag	Ag	0.75	0.61769	0.75	0.624
Mof_Ag	Ag	0.75	0.88231	0.25	0.631
Mof_Ag	Ag	0.25	0.38231	0.25	0.613
Mof_Ag	Ag	0.25	0.11769	0.75	0.605
Mof_Ag	Ag	0.25907	0.75	-0	0.651
Mof_Ag	Ag	0.24093	0.75	0.5	0.723
Mof_Ag	Ag	0.74093	0.25	-0	0.652
Mof_Ag	Ag	0.75907	0.25	0.5	0.726
Mof_H 	H 	0.4863	0.6093	0.5897	0.028
Mof_H 	H 	0.8198	0.533	0.6484	0.017
Mof_H 	H 	0.7469	0.5017	0.5673	0.036
Mof_H 	H 	0.4027	0.7152	0.6878	0.222
Mof_H 	H 	0.4436	0.6999	0.6286	0.217
Mof_H 	H 	0.3709	0.6502	0.661	0.222
Mof_H 	H 	0.475	0.6006	0.7902	0.215
Mof_H 	H 	0.4757	0.6181	0.8521	0.201
Mof_H 	H 	0.3619	0.6227	0.8186	0.208
Mof_H 	H 	0.3532	0.6903	0.894	0.034
Mof_H 	H 	0.3343	0.8684	0.9258	0.048
Mof_H 	H 	0.4263	0.8904	0.8469	0.011
Mof_H 	H 	0.6641	0.5296	0.402	0.026
Mof_H 	H 	0.4091	0.6819	0.3692	0.026
Mof_H 	H 	0.4031	0.6264	0.4476	0.027
Mof_H 	H 	0.8629	0.5459	0.297	0.218
Mof_H 	H 	0.8359	0.5554	0.3588	0.202
Mof_H 	H 	0.7758	0.501	0.3263	0.215
Mof_H 	H 	0.4863	0.8907	0.4103	0.031
Mof_H 	H 	0.8198	0.967	0.3516	0.023
Mof_H 	H 	0.7469	0.9983	0.4327	0.045
Mof_H 	H 	0.4027	0.7848	0.3122	0.222
Mof_H 	H 	0.4436	0.8001	0.3714	0.218
Mof_H 	H 	0.3709	0.8498	0.339	0.224
Mof_H 	H 	0.475	0.8994	0.2098	0.218
Mof_H 	H 	0.4757	0.8819	0.1479	0.199
Mof_H 	H 	0.3619	0.8773	0.1814	0.211
Mof_H 	H 	0.3532	0.8097	0.106	0.031
Mof_H 	H 	0.3343	0.6316	0.0742	0.026
Mof_H 	H 	0.4263	0.6096	0.1531	0.008
Mof_H 	H 	0.6641	0.9704	0.598	0.033
Mof_H 	H 	0.4091	0.8181	0.6308	0.025
Mof_H 	H 	0.4031	0.8736	0.5524	0.029
Mof_H 	H 	0.8629	0.9541	0.703	0.225
Mof_H 	H 	0.8359	0.9446	0.6412	0.209
Mof_H 	H 	0.7758	0.999	0.6737	0.228
Mof_H 	H 	0.0137	0.8907	0.0897	0.014
Mof_H 	H 	0.6802	0.967	0.1484	0.021
Mof_H 	H 	0.7531	0.9983	0.0673	0.037
Mof_H 	H 	0.0973	0.7848	0.1878	0.229
Mof_H 	H 	0.0564	0.8001	0.1286	0.224
Mof_H 	H 	0.1291	0.8498	0.161	0.233
Mof_H 	H 	0.025	0.8994	0.2902	0.21
Mof_H 	H 	0.0243	0.8819	0.3521	0.194
Mof_H 	H 	0.1381	0.8773	0.3186	0.207
Mof_H 	H 	0.1468	0.8097	0.394	0.03
Mof_H 	H 	0.1657	0.6316	0.4258	0.033
Mof_H 	H 	0.0737	0.6096	0.3469	0.005
Mof_H 	H 	0.8359	0.9704	0.902	0.039
Mof_H 	H 	0.0909	0.8181	0.8692	0.027
Mof_H 	H 	0.0969	0.8736	0.9476	0.049
Mof_H 	H 	0.6371	0.9541	0.797	0.225
Mof_H 	H 	0.6641	0.9446	0.8588	0.211
Mof_H 	H 	0.7242	0.999	0.8263	0.229
Mof_H 	H 	0.0137	0.6093	0.9103	0.017
Mof_H 	H 	0.6802	0.533	0.8516	0.016
Mof_H 	H 	0.7531	0.5017	0.9327	0.048
Mof_H 	H 	0.0973	0.7152	0.8122	0.229
Mof_H 	H 	0.0564	0.6999	0.8714	0.227
Mof_H 	H 	0.1291	0.6502	0.839	0.232
Mof_H 	H 	0.025	0.6006	0.7098	0.204
Mof_H 	H 	0.0243	0.6181	0.6479	0.188
Mof_H 	H 	0.1381	0.6227	0.6814	0.201
Mof_H 	H 	0.1468	0.6903	0.606	0.03
Mof_H 	H 	0.1657	0.8684	0.5742	0.035
Mof_H 	H 	0.0737	0.8904	0.6531	0.008
Mof_H 	H 	0.8359	0.5296	0.098	0.027
Mof_H 	H 	0.0909	0.6819	0.1308	0.027
Mof_H 	H 	0.0969	0.6264	0.0524	0.022
Mof_H 	H 	0.6371	0.5459	0.203	0.212
Mof_H 	H 	0.6641	0.5554	0.1412	0.194
Mof_H 	H 	0.7242	0.501	0.1737	0.212
Mof_H 	H 	0.5137	0.3907	0.4103	0.028
Mof_H 	H 	0.1802	0.467	0.3516	0.013
Mof_H 	H 	0.2531	0.4983	0.4327	0.034
Mof_H 	H 	0.5973	0.2848	0.3122	0.221
Mof_H 	H 	0.5564	0.3001	0.3714	0.217
Mof_H 	H 	0.6291	0.3498	0.339	0.222
Mof_H 	H 	0.525	0.3994	0.2098	0.213
Mof_H 	H 	0.5243	0.3819	0.1479	0.194
Mof_H 	H 	0.6381	0.3773	0.1814	0.207
Mof_H 	H 	0.6468	0.3097	0.106	0.031
Mof_H 	H 	0.6657	0.1316	0.0742	0.024
Mof_H 	H 	0.5737	0.1096	0.1531	0.006
Mof_H 	H 	0.3359	0.4704	0.598	0.025
Mof_H 	H 	0.5909	0.3181	0.6308	0.025
Mof_H 	H 	0.5969	0.3736	0.5524	0.027
Mof_H 	H 	0.1371	0.4541	0.703	0.21
Mof_H 	H 	0.1641	0.4446	0.6412	0.193
Mof_H 	H 	0.2242	0.499	0.6737	0.211
Mof_H 	H 	0.5137	0.1093	0.5897	0.029
Mof_H 	H 	0.1802	0.033	0.6484	0.006
Mof_H 	H 	0.2531	0.0017	0.5673	0.026
Mof_H 	H 	0.5973	0.2152	0.6878	0.221
Mof_H 	H 	0.5564	0.1999	0.6286	0.216
Mof_H 	H 	0.6291	0.1502	0.661	0.22
Mof_H 	H 	0.525	0.1006	0.7902	0.21
Mof_H 	H 	0.5243	0.1181	0.8521	0.197
Mof_H 	H 	0.6381	0.1227	0.8186	0.204
Mof_H 	H 	0.6468	0.1903	0.894	0.034
Mof_H 	H 	0.6657	0.3684	0.9258	0.046
Mof_H 	H 	0.5737	0.3904	0.8469	0.009
Mof_H 	H 	0.3359	0.0296	0.402	0.02
Mof_H 	H 	0.5909	0.1819	0.3692	0.025
Mof_H 	H 	0.5969	0.1264	0.4476	0.027
Mof_H 	H 	0.1371	0.0459	0.297	0.199
Mof_H 	H 	0.1641	0.0554	0.3588	0.184
Mof_H 	H 	0.2242	0.001	0.3263	0.196
Mof_H 	H 	0.9863	0.1093	0.9103	0.057
Mof_H 	H 	0.3198	0.033	0.8516	0.009
Mof_H 	H 	0.2469	0.0017	0.9327	0.041
Mof_H 	H 	0.9027	0.2152	0.8122	0.215
Mof_H 	H 	0.9436	0.1999	0.8714	0.212
Mof_H 	H 	0.8709	0.1502	0.839	0.212
Mof_H 	H 	0.975	0.1006	0.7098	0.219
Mof_H 	H 	0.9757	0.1181	0.6479	0.202
Mof_H 	H 	0.8619	0.1227	0.6814	0.209
Mof_H 	H 	0.8532	0.1903	0.606	0.029
Mof_H 	H 	0.8343	0.3684	0.5742	0.034
Mof_H 	H 	0.9263	0.3904	0.6531	0.012
Mof_H 	H 	0.1641	0.0296	0.098	0.021
Mof_H 	H 	0.9091	0.1819	0.1308	0.024
Mof_H 	H 	0.9031	0.1264	0.0524	0.018
Mof_H 	H 	0.3629	0.0459	0.203	0.202
Mof_H 	H 	0.3359	0.0554	0.1412	0.185
Mof_H 	H 	0.2758	0.001	0.1737	0.196
Mof_H 	H 	0.9863	0.3907	0.0897	0.051
Mof_H 	H 	0.3198	0.467	0.1484	0.014
Mof_H 	H 	0.2469	0.4983	0.0673	0.027
Mof_H 	H 	0.9027	0.2848	0.1878	0.214
Mof_H 	H 	0.9436	0.3001	0.1286	0.209
Mof_H 	H 	0.8709	0.3498	0.161	0.213
Mof_H 	H 	0.975	0.3994	0.2902	0.225
Mof_H 	H 	0.9757	0.3819	0.3521	0.207
Mof_H 	H 	0.8619	0.3773	0.3186	0.214
Mof_H 	H 	0.8532	0.3097	0.394	0.029
Mof_H 	H 	0.8343	0.1316	0.4258	0.031
Mof_H 	H 	0.9263	0.1096	0.3469	0.011
Mof_H 	H 	0.1641	0.4704	0.902	0.031
Mof_H 	H 	0.9091	0.3181	0.8692	0.025
Mof_H 	H 	0.9031	0.3736	0.9476	0.043
Mof_H 	H 	0.3629	0.4541	0.797	0.216
Mof_H 	H 	0.3359	0.4446	0.8588	0.202
Mof_H 	H 	0.2758	0.499	0.8263	0.215
Mof_C 	C 	0.5556	0.5926	0.6016	0.035
Mof_C 	C 	0.5969	0.6105	0.65092	-0.02
Mof_C 	C 	0.7495	0.549	0.63713	0.016
Mof_C 	C 	0.7064	0.5307	0.58831	0.014
Mof_C 	C 	0.5333	0.65452	0.68553	0.203
Mof_C 	C 	0.4287	0.6823	0.66389	-0.61
Mof_C 	C 	0.4433	0.62816	0.81727	-0.587
Mof_C 	C 	0.4699	0.69381	0.80344	0.196
Mof_C 	C 	0.4288	0.74493	0.83856	-0.016
Mof_C 	C 	0.3697	0.73216	0.88529	0.021
Mof_C 	C 	0.3576	0.83522	0.90349	0.006
Mof_C 	C 	0.4136	0.84834	0.85644	0.017
Mof_C 	C 	0.611	0.56166	0.39591	0.038
Mof_C 	C 	0.6186	0.59629	0.34946	-0.02
Mof_C 	C 	0.4637	0.65069	0.37543	0.015
Mof_C 	C 	0.4593	0.6171	0.42209	0.026
Mof_C 	C 	0.7112	0.58654	0.31022	0.199
Mof_C 	C 	0.8044	0.5435	0.32429	-0.594
Mof_C 	C 	0.5556	0.9074	0.3984	0.037
Mof_C 	C 	0.5969	0.8895	0.34908	-0.019
Mof_C 	C 	0.7495	0.951	0.36287	0.02
Mof_C 	C 	0.7064	0.9693	0.41169	0.017
Mof_C 	C 	0.5333	0.84548	0.31447	0.205
Mof_C 	C 	0.4287	0.8177	0.33611	-0.612
Mof_C 	C 	0.4433	0.87184	0.18273	-0.589
Mof_C 	C 	0.4699	0.80619	0.19656	0.195
Mof_C 	C 	0.4288	0.75507	0.16144	-0.019
Mof_C 	C 	0.3697	0.76784	0.11471	0.017
Mof_C 	C 	0.3576	0.66478	0.09651	0.004
Mof_C 	C 	0.4136	0.65166	0.14356	0.01
Mof_C 	C 	0.611	0.93834	0.60409	0.04
Mof_C 	C 	0.6186	0.90371	0.65054	-0.019
Mof_C 	C 	0.4637	0.84931	0.62457	0.016
Mof_C 	C 	0.4593	0.8829	0.57791	0.027
Mof_C 	C 	0.7112	0.91346	0.68978	0.205
Mof_C 	C 	0.8044	0.9565	0.67571	-0.61
Mof_C 	C 	0.9444	0.9074	0.1016	0.065
Mof_C 	C 	0.9031	0.8895	0.15092	-0.031
Mof_C 	C 	0.7505	0.951	0.13713	0.016
Mof_C 	C 	0.7936	0.9693	0.08831	0.017
Mof_C 	C 	0.9667	0.84548	0.18553	0.228
Mof_C 	C 	0.0713	0.8177	0.16389	-0.646
Mof_C 	C 	0.0567	0.87184	0.31727	-0.573
Mof_C 	C 	0.0301	0.80619	0.30344	0.179
Mof_C 	C 	0.0712	0.75507	0.33856	-0.016
Mof_C 	C 	0.1303	0.76784	0.38529	0.016
Mof_C 	C 	0.1424	0.66478	0.40349	0.004
Mof_C 	C 	0.0864	0.65166	0.35644	0.012
Mof_C 	C 	0.889	0.93834	0.89591	0.043
Mof_C 	C 	0.8814	0.90371	0.84946	-0.015
Mof_C 	C 	0.0363	0.84931	0.87543	0.012
Mof_C 	C 	0.0407	0.8829	0.92209	0.017
Mof_C 	C 	0.7888	0.91346	0.81022	0.206
Mof_C 	C 	0.6956	0.9565	0.82429	-0.611
Mof_C 	C 	0.9444	0.5926	0.8984	0.066
Mof_C 	C 	0.9031	0.6105	0.84908	-0.03
Mof_C 	C 	0.7505	0.549	0.86287	0.018
Mof_C 	C 	0.7936	0.5307	0.91169	0.016
Mof_C 	C 	0.9667	0.65452	0.81447	0.228
Mof_C 	C 	0.0713	0.6823	0.83611	-0.646
Mof_C 	C 	0.0567	0.62816	0.68273	-0.564
Mof_C 	C 	0.0301	0.69381	0.69656	0.176
Mof_C 	C 	0.0712	0.74493	0.66144	-0.015
Mof_C 	C 	0.1303	0.73216	0.61471	0.016
Mof_C 	C 	0.1424	0.83522	0.59651	0.004
Mof_C 	C 	0.0864	0.84834	0.64356	0.012
Mof_C 	C 	0.889	0.56166	0.10409	0.038
Mof_C 	C 	0.8814	0.59629	0.15054	-0.017
Mof_C 	C 	0.0363	0.65069	0.12457	0.003
Mof_C 	C 	0.0407	0.6171	0.07791	0.012
Mof_C 	C 	0.7888	0.58654	0.18978	0.195
Mof_C 	C 	0.6956	0.5435	0.17571	-0.585
Mof_C 	C 	0.4444	0.4074	0.3984	0.034
Mof_C 	C 	0.4031	0.3895	0.34908	-0.021
Mof_C 	C 	0.2505	0.451	0.36287	0.015
Mof_C 	C 	0.2936	0.4693	0.41169	0.013
Mof_C 	C 	0.4667	0.34548	0.31447	0.203
Mof_C 	C 	0.5713	0.3177	0.33611	-0.609
Mof_C 	C 	0.5567	0.37184	0.18273	-0.581
Mof_C 	C 	0.5301	0.30619	0.19656	0.193
Mof_C 	C 	0.5712	0.25507	0.16144	-0.019
Mof_C 	C 	0.6303	0.26784	0.11471	0.017
Mof_C 	C 	0.6424	0.16478	0.09651	0.004
Mof_C 	C 	0.5864	0.15166	0.14356	0.01
Mof_C 	C 	0.389	0.43834	0.60409	0.036
Mof_C 	C 	0.3814	0.40371	0.65054	-0.019
Mof_C 	C 	0.5363	0.34931	0.62457	0.015
Mof_C 	C 	0.5407	0.3829	0.57791	0.025
Mof_C 	C 	0.2888	0.41346	0.68978	0.194
Mof_C 	C 	0.1956	0.4565	0.67571	-0.582
Mof_C 	C 	0.4444	0.0926	0.6016	0.031
Mof_C 	C 	0.4031	0.1105	0.65092	-0.021
Mof_C 	C 	0.2505	0.049	0.63713	0.011
Mof_C 	C 	0.2936	0.0307	0.58831	0.009
Mof_C 	C 	0.4667	0.15452	0.68553	0.201
Mof_C 	C 	0.5713	0.1823	0.66389	-0.607
Mof_C 	C 	0.5567	0.12816	0.81727	-0.58
Mof_C 	C 	0.5301	0.19381	0.80344	0.194
Mof_C 	C 	0.5712	0.24493	0.83856	-0.016
Mof_C 	C 	0.6303	0.23216	0.88529	0.021
Mof_C 	C 	0.6424	0.33522	0.90349	0.006
Mof_C 	C 	0.5864	0.34834	0.85644	0.016
Mof_C 	C 	0.389	0.06166	0.39591	0.034
Mof_C 	C 	0.3814	0.09629	0.34946	-0.018
Mof_C 	C 	0.5363	0.15069	0.37543	0.015
Mof_C 	C 	0.5407	0.1171	0.42209	0.023
Mof_C 	C 	0.2888	0.08654	0.31022	0.185
Mof_C 	C 	0.1956	0.0435	0.32429	-0.563
Mof_C 	C 	0.0556	0.0926	0.8984	-0
Mof_C 	C 	0.0969	0.1105	0.84908	-0.005
Mof_C 	C 	0.2495	0.049	0.86287	0.019
Mof_C 	C 	0.2064	0.0307	0.91169	0.008
Mof_C 	C 	0.0333	0.15452	0.81447	0.176
Mof_C 	C 	0.9287	0.1823	0.83611	-0.572
Mof_C 	C 	0.9433	0.12816	0.68273	-0.597
Mof_C 	C 	0.9699	0.19381	0.69656	0.213
Mof_C 	C 	0.9288	0.24493	0.66144	-0.021
Mof_C 	C 	0.8697	0.23216	0.61471	0.022
Mof_C 	C 	0.8576	0.33522	0.59651	0.007
Mof_C 	C 	0.9136	0.34834	0.64356	0.012
Mof_C 	C 	0.111	0.06166	0.10409	0.029
Mof_C 	C 	0.1186	0.09629	0.15054	-0.021
Mof_C 	C 	0.9637	0.15069	0.12457	0.027
Mof_C 	C 	0.9593	0.1171	0.07791	0.036
Mof_C 	C 	0.2112	0.08654	0.18978	0.186
Mof_C 	C 	0.3044	0.0435	0.17571	-0.565
Mof_C 	C 	0.0556	0.4074	0.1016	-0.002
Mof_C 	C 	0.0969	0.3895	0.15092	-0.006
Mof_C 	C 	0.2495	0.451	0.13713	0.016
Mof_C 	C 	0.2064	0.4693	0.08831	0.01
Mof_C 	C 	0.0333	0.34548	0.18553	0.175
Mof_C 	C 	0.9287	0.3177	0.16389	-0.57
Mof_C 	C 	0.9433	0.37184	0.31727	-0.606
Mof_C 	C 	0.9699	0.30619	0.30344	0.216
Mof_C 	C 	0.9288	0.25507	0.33856	-0.022
Mof_C 	C 	0.8697	0.26784	0.38529	0.022
Mof_C 	C 	0.8576	0.16478	0.40349	0.007
Mof_C 	C 	0.9136	0.15166	0.35644	0.012
Mof_C 	C 	0.111	0.43834	0.89591	0.036
Mof_C 	C 	0.1186	0.40371	0.84946	-0.019
Mof_C 	C 	0.9637	0.34931	0.87543	0.032
Mof_C 	C 	0.9593	0.3829	0.92209	0.036
Mof_C 	C 	0.2112	0.41346	0.81022	0.198
Mof_C 	C 	0.3044	0.4565	0.82429	-0.593
Mof_N 	N 	0.61	0.55263	0.57039	-0.15
Mof_N 	N 	0.695	0.58821	0.66847	-0.163
Mof_N 	N 	0.5752	0.66517	0.73118	-0.185
Mof_N 	N 	0.5262	0.7107	0.76262	-0.182
Mof_N 	N 	0.45	0.80377	0.82426	-0.158
Mof_N 	N 	0.3356	0.77716	0.91818	-0.149
Mof_N 	N 	0.5319	0.57183	0.43212	-0.163
Mof_N 	N 	0.5427	0.64055	0.33886	-0.155
Mof_N 	N 	0.7044	0.61757	0.267	-0.184
Mof_N 	N 	0.7465	0.40815	0.4559	0.067
Mof_N 	N 	0.61	0.94737	0.42961	-0.142
Mof_N 	N 	0.695	0.91179	0.33153	-0.161
Mof_N 	N 	0.5752	0.83483	0.26882	-0.186
Mof_N 	N 	0.5262	0.7893	0.23738	-0.183
Mof_N 	N 	0.45	0.69623	0.17574	-0.158
Mof_N 	N 	0.3356	0.72284	0.08182	-0.163
Mof_N 	N 	0.5319	0.92817	0.56788	-0.155
Mof_N 	N 	0.5427	0.85945	0.66114	-0.155
Mof_N 	N 	0.7044	0.88243	0.733	-0.184
Mof_N 	N 	0.7465	0.09185	0.5441	0.067
Mof_N 	N 	0.89	0.94737	0.07039	-0.143
Mof_N 	N 	0.805	0.91179	0.16847	-0.159
Mof_N 	N 	0.9248	0.83483	0.23118	-0.189
Mof_N 	N 	0.9738	0.7893	0.26262	-0.173
Mof_N 	N 	0.05	0.69623	0.32426	-0.164
Mof_N 	N 	0.1644	0.72284	0.41818	-0.164
Mof_N 	N 	0.9681	0.92817	0.93212	-0.128
Mof_N 	N 	0.9573	0.85945	0.83886	-0.149
Mof_N 	N 	0.7956	0.88243	0.767	-0.185
Mof_N 	N 	0.7535	0.09185	0.9559	0.063
Mof_N 	N 	0.89	0.55263	0.92961	-0.135
Mof_N 	N 	0.805	0.58821	0.83153	-0.161
Mof_N 	N 	0.9248	0.66517	0.76882	-0.188
Mof_N 	N 	0.9738	0.7107	0.73738	-0.172
Mof_N 	N 	0.05	0.80377	0.67574	-0.164
Mof_N 	N 	0.1644	0.77716	0.58182	-0.164
Mof_N 	N 	0.9681	0.57183	0.06788	-0.15
Mof_N 	N 	0.9573	0.64055	0.16114	-0.148
Mof_N 	N 	0.7956	0.61757	0.233	-0.184
Mof_N 	N 	0.7535	0.40815	0.0441	0.067
Mof_N 	N 	0.39	0.44737	0.42961	-0.15
Mof_N 	N 	0.305	0.41179	0.33153	-0.163
Mof_N 	N 	0.4248	0.33483	0.26882	-0.185
Mof_N 	N 	0.4738	0.2893	0.23738	-0.182
Mof_N 	N 	0.55	0.19623	0.17574	-0.159
Mof_N 	N 	0.6644	0.22284	0.08182	-0.163
Mof_N 	N 	0.4681	0.42817	0.56788	-0.163
Mof_N 	N 	0.4573	0.35945	0.66114	-0.155
Mof_N 	N 	0.2956	0.38243	0.733	-0.183
Mof_N 	N 	0.2535	0.59185	0.5441	0.067
Mof_N 	N 	0.39	0.05263	0.57039	-0.151
Mof_N 	N 	0.305	0.08821	0.66847	-0.165
Mof_N 	N 	0.4248	0.16517	0.73118	-0.185
Mof_N 	N 	0.4738	0.2107	0.76262	-0.182
Mof_N 	N 	0.55	0.30377	0.82426	-0.158
Mof_N 	N 	0.6644	0.27716	0.91818	-0.149
Mof_N 	N 	0.4681	0.07183	0.43212	-0.162
Mof_N 	N 	0.4573	0.14055	0.33886	-0.155
Mof_N 	N 	0.2956	0.11757	0.267	-0.182
Mof_N 	N 	0.2535	0.90815	0.4559	0.065
Mof_N 	N 	0.11	0.05263	0.92961	-0.129
Mof_N 	N 	0.195	0.08821	0.83153	-0.167
Mof_N 	N 	0.0752	0.16517	0.76882	-0.182
Mof_N 	N 	0.0262	0.2107	0.73738	-0.193
Mof_N 	N 	0.95	0.30377	0.67574	-0.152
Mof_N 	N 	0.8356	0.27716	0.58182	-0.165
Mof_N 	N 	0.0319	0.07183	0.06788	-0.17
Mof_N 	N 	0.0427	0.14055	0.16114	-0.163
Mof_N 	N 	0.2044	0.11757	0.233	-0.181
Mof_N 	N 	0.2465	0.90815	0.0441	0.066
Mof_N 	N 	0.11	0.44737	0.07039	-0.145
Mof_N 	N 	0.195	0.41179	0.16847	-0.166
Mof_N 	N 	0.0752	0.33483	0.23118	-0.182
Mof_N 	N 	0.0262	0.2893	0.26262	-0.194
Mof_N 	N 	0.95	0.19623	0.32426	-0.152
Mof_N 	N 	0.8356	0.22284	0.41818	-0.165
Mof_N 	N 	0.0319	0.42817	0.93212	-0.153
Mof_N 	N 	0.0427	0.35945	0.83886	-0.162
Mof_N 	N 	0.2044	0.38243	0.767	-0.183
Mof_N 	N 	0.2465	0.59185	0.9559	0.063
Mof_N 	N 	0.0083	0.75	-0	0.036
Mof_N 	N 	0.4917	0.75	0.5	0.066
Mof_N 	N 	0.9917	0.25	-0	0.053
Mof_N 	N 	0.5083	0.25	0.5	0.066
Mof_O 	O 	0.7024	0.4474	0.48493	-0.191
Mof_O 	O 	0.7366	0.41115	0.4076	-0.171
Mof_O 	O 	0.8079	0.36766	0.47555	-0.191
Mof_O 	O 	0.0626	0.7267	0.96374	-0.162
Mof_O 	O 	0.7024	0.0526	0.51507	-0.198
Mof_O 	O 	0.7366	0.08885	0.5924	-0.177
Mof_O 	O 	0.8079	0.13234	0.52445	-0.193
Mof_O 	O 	0.0626	0.7733	0.03626	-0.205
Mof_O 	O 	0.7976	0.0526	0.98493	-0.164
Mof_O 	O 	0.7634	0.08885	0.9076	-0.171
Mof_O 	O 	0.6921	0.13234	0.97555	-0.167
Mof_O 	O 	0.4374	0.7733	0.46374	-0.201
Mof_O 	O 	0.7976	0.4474	0.01507	-0.202
Mof_O 	O 	0.7634	0.41115	0.0924	-0.171
Mof_O 	O 	0.6921	0.36766	0.02445	-0.203
Mof_O 	O 	0.4374	0.7267	0.53626	-0.202
Mof_O 	O 	0.2976	0.5526	0.51507	-0.193
Mof_O 	O 	0.2634	0.58885	0.5924	-0.172
Mof_O 	O 	0.1921	0.63234	0.52445	-0.194
Mof_O 	O 	0.9374	0.2733	0.03626	-0.2
Mof_O 	O 	0.2976	0.9474	0.48493	-0.178
Mof_O 	O 	0.2634	0.91115	0.4076	-0.164
Mof_O 	O 	0.1921	0.86766	0.47555	-0.191
Mof_O 	O 	0.9374	0.2267	0.96374	-0.157
Mof_O 	O 	0.2024	0.9474	0.01507	-0.19
Mof_O 	O 	0.2366	0.91115	0.0924	-0.165
Mof_O 	O 	0.3079	0.86766	0.02445	-0.201
Mof_O 	O 	0.5626	0.2267	0.53626	-0.202
Mof_O 	O 	0.2024	0.5526	0.98493	-0.161
Mof_O 	O 	0.2366	0.58885	0.9076	-0.167
Mof_O 	O 	0.3079	0.63234	0.97555	-0.166
Mof_O 	O 	0.5626	0.2733	0.46374	-0.203
Mof_O 	O 	0.9072	0.75	-0	-0.138
Mof_O 	O 	0.5928	0.75	0.5	-0.132
Mof_O 	O 	0.0928	0.25	-0	-0.163
Mof_O 	O 	0.4072	0.25	0.5	-0.137
Mof_Ag	Ag	0.25	0.92238	0.75	0.752
Mof_N 	N 	0.4565	0.98803	0.73239	0.058
Mof_N 	N 	0.0435	0.98803	0.76761	0.051
Mof_N 	N 	0.25	0.7875	0.75	0.052
Mof_O 	O 	0.303	0.81756	0.71484	-0.233
Mof_O 	O 	0.4249	0.98213	0.77982	-0.225
Mof_O 	O 	0.3987	0.96378	0.69603	-0.205
Mof_O 	O 	0.5429	0.01698	0.72126	-0.181
Mof_O 	O 	0.197	0.81756	0.78516	-0.235
Mof_O 	O 	0.0751	0.98213	0.72018	-0.23
Mof_O 	O 	0.1013	0.96378	0.80397	-0.207
Mof_O 	O 	0.9571	0.01698	0.77874	-0.17
Mof_O 	O 	0.25	0.7305	0.75	-0.168
Mof_Ag	Ag	0.25	0.57762	0.25	0.742
Mof_N 	N 	0.4565	0.51197	0.26761	0.046
Mof_N 	N 	0.0435	0.51197	0.23239	0.039
Mof_N 	N 	0.25	0.7125	0.25	0.052
Mof_O 	O 	0.303	0.68244	0.28516	-0.232
Mof_O 	O 	0.4249	0.51787	0.22018	-0.235
Mof_O 	O 	0.3987	0.53622	0.30397	-0.212
Mof_O 	O 	0.5429	0.48302	0.27874	-0.159
Mof_O 	O 	0.197	0.68244	0.21484	-0.235
Mof_O 	O 	0.0751	0.51787	0.27982	-0.239
Mof_O 	O 	0.1013	0.53622	0.19603	-0.215
Mof_O 	O 	0.9571	0.48302	0.22126	-0.148
Mof_O 	O 	0.25	0.7695	0.25	-0.167
Mof_Ag	Ag	0.75	0.07762	0.25	0.736
Mof_N 	N 	0.5435	0.01197	0.26761	0.034
Mof_N 	N 	0.9565	0.01197	0.23239	0.042
Mof_N 	N 	0.75	0.2125	0.25	0.052
Mof_O 	O 	0.697	0.18244	0.28516	-0.231
Mof_O 	O 	0.5751	0.01787	0.22018	-0.244
Mof_O 	O 	0.6013	0.03622	0.30397	-0.218
Mof_O 	O 	0.4571	0.98302	0.27874	-0.136
Mof_O 	O 	0.803	0.18244	0.21484	-0.228
Mof_O 	O 	0.9249	0.01787	0.27982	-0.237
Mof_O 	O 	0.8987	0.03622	0.19603	-0.214
Mof_O 	O 	0.0429	0.98302	0.22126	-0.146
Mof_O 	O 	0.75	0.2695	0.25	-0.165
Mof_Ag	Ag	0.75	0.42238	0.75	0.745
Mof_N 	N 	0.5435	0.48803	0.73239	0.046
Mof_N 	N 	0.9565	0.48803	0.76761	0.054
Mof_N 	N 	0.75	0.2875	0.75	0.052
Mof_O 	O 	0.697	0.31756	0.71484	-0.232
Mof_O 	O 	0.5751	0.48213	0.77982	-0.234
Mof_O 	O 	0.6013	0.46378	0.69603	-0.212
Mof_O 	O 	0.4571	0.51698	0.72126	-0.159
Mof_O 	O 	0.803	0.31756	0.78516	-0.229
Mof_O 	O 	0.9249	0.48213	0.72018	-0.23
Mof_O 	O 	0.8987	0.46378	0.80397	-0.209
Mof_O 	O 	0.0429	0.51698	0.77874	-0.17
Mof_O 	O 	0.75	0.2305	0.75	-0.166
_end
