data_functionalizedCrystal
_audit_creation_method	'EQeq! by Chris Wilmer'
_symmetry_space_group_name_H-M	'P1'
_symmetry_Int_Tables_number	1
_symmetry_cell_setting	triclinic
loop_
_symmetry_equiv_pos_as_xyz
  x,y,z
_cell_length_a	22.3092
_cell_length_b	41.769
_cell_length_c	7.1646
_cell_angle_alpha	90
_cell_angle_beta	90
_cell_angle_gamma	90
loop_
_atom_site_label
_atom_site_type_symbol
_atom_site_fract_x
_atom_site_fract_y
_atom_site_fract_z
_atom_site_charge
Mof_Na	Na	0.04512	0.07141	0.0054	1.727
Mof_N 	N 	0.10684	0.04203	0.7706	-0.31
Mof_N 	N 	0.04348	0.94078	0.815	-0.326
Mof_N 	N 	0.19286	0.87808	0.6948	-0.403
Mof_N 	N 	0.3581	0.9358	0.6681	-0.365
Mof_N 	N 	0.30484	0.0391	0.7065	-0.14
Mof_C 	C 	0.17176	0.99148	0.7377	-0.033
Mof_C 	C 	0.15026	0.95981	0.7405	-0.037
Mof_C 	C 	0.1993	0.93926	0.7178	-0.051
Mof_C 	C 	0.25132	0.95797	0.7035	-0.048
Mof_C 	C 	0.2345	0.99041	0.7151	-0.007
Mof_C 	C 	0.13606	0.01963	0.7552	0.091
Mof_C 	C 	0.09053	0.94961	0.7791	0.079
Mof_C 	C 	0.19601	0.90518	0.7064	0.056
Mof_C 	C 	0.31067	0.94574	0.6826	0.086
Mof_C 	C 	0.27328	0.0174	0.7096	0.077
Mof_O 	O 	0.0191	0.0185	0.1437	-0.615
Mof_C 	C 	0.0468	0.0002	0.298	0.298
Mof_H 	H 	0.061	0.9792	0.2519	-0.194
Mof_H 	H 	0.0816	0.0121	0.3487	-0.749
Mof_C 	C 	0.003	0.9956	0.4414	-0.263
Mof_H 	H 	0.0073	0.974	0.496	-0.013
Mof_H 	H 	0.009	0.0115	0.5419	0.121
Mof_C 	C 	0.0536	0.001	0.368	0.121
Mof_H 	H 	0.077	0.985	0.4387	0.019
Mof_H 	H 	0.0755	0.0217	0.3699	0.592
Mof_C 	C 	0.9573	0.0101	0.1678	0.329
Mof_H 	H 	0.0536	0.0072	0.0796	0.02
Mof_H 	H 	0.9317	0.0289	0.1404	-0.073
Mof_Na	Na	0.04512	0.57141	0.5054	1.95
Mof_N 	N 	0.10684	0.54203	0.2706	-0.363
Mof_N 	N 	0.04348	0.44078	0.315	-0.376
Mof_N 	N 	0.19286	0.37808	0.1948	-0.403
Mof_N 	N 	0.3581	0.4358	0.1681	-0.353
Mof_N 	N 	0.30484	0.5391	0.2065	-0.168
Mof_C 	C 	0.17176	0.49148	0.2377	-0.051
Mof_C 	C 	0.15026	0.45981	0.2405	-0.056
Mof_C 	C 	0.1993	0.43926	0.2178	-0.06
Mof_C 	C 	0.25132	0.45797	0.2035	-0.058
Mof_C 	C 	0.2345	0.49041	0.2151	-0.024
Mof_C 	C 	0.13606	0.51963	0.2552	0.052
Mof_C 	C 	0.09053	0.44961	0.2791	0.051
Mof_C 	C 	0.19601	0.40518	0.2064	0.038
Mof_C 	C 	0.31067	0.44574	0.1826	0.061
Mof_C 	C 	0.27328	0.5174	0.2096	0.041
Mof_O 	O 	0.0191	0.5185	0.6437	-0.63
Mof_C 	C 	0.0468	0.5002	0.798	0.367
Mof_H 	H 	0.061	0.4792	0.7519	-0.197
Mof_H 	H 	0.0816	0.5121	0.8487	-1.044
Mof_C 	C 	0.003	0.4956	0.9414	-0.245
Mof_H 	H 	0.0073	0.474	0.996	0.039
Mof_H 	H 	0.009	0.5115	0.0419	0.026
Mof_C 	C 	0.0536	0.501	0.868	0.18
Mof_H 	H 	0.077	0.485	0.9387	0.038
Mof_H 	H 	0.0755	0.5217	0.8699	0.846
Mof_C 	C 	0.9573	0.5101	0.6678	0.251
Mof_H 	H 	0.0536	0.5072	0.5796	0.054
Mof_H 	H 	0.9317	0.5289	0.6404	-0.033
Mof_Na	Na	0.54512	0.07141	0.5054	1.95
Mof_N 	N 	0.60684	0.04203	0.2706	-0.364
Mof_N 	N 	0.54348	0.94078	0.315	-0.376
Mof_N 	N 	0.69286	0.87808	0.1948	-0.403
Mof_N 	N 	0.8581	0.9358	0.1681	-0.353
Mof_N 	N 	0.80484	0.0391	0.2065	-0.168
Mof_C 	C 	0.67176	0.99148	0.2377	-0.051
Mof_C 	C 	0.65026	0.95981	0.2405	-0.056
Mof_C 	C 	0.6993	0.93926	0.2178	-0.06
Mof_C 	C 	0.75132	0.95797	0.2035	-0.058
Mof_C 	C 	0.7345	0.99041	0.2151	-0.024
Mof_C 	C 	0.63606	0.01963	0.2552	0.052
Mof_C 	C 	0.59053	0.94961	0.2791	0.051
Mof_C 	C 	0.69601	0.90518	0.2064	0.037
Mof_C 	C 	0.81067	0.94574	0.1826	0.061
Mof_C 	C 	0.77328	0.0174	0.2096	0.041
Mof_O 	O 	0.5191	0.0185	0.6437	-0.63
Mof_C 	C 	0.5468	0.0002	0.798	0.367
Mof_H 	H 	0.561	0.9792	0.7519	-0.197
Mof_H 	H 	0.5816	0.0121	0.8487	-1.045
Mof_C 	C 	0.503	0.9956	0.9414	-0.244
Mof_H 	H 	0.5073	0.974	0.996	0.039
Mof_H 	H 	0.509	0.0115	0.0419	0.025
Mof_C 	C 	0.5536	0.001	0.868	0.18
Mof_H 	H 	0.577	0.985	0.9387	0.038
Mof_H 	H 	0.5755	0.0217	0.8699	0.847
Mof_C 	C 	0.4573	0.0101	0.6678	0.251
Mof_H 	H 	0.5536	0.0072	0.5796	0.054
Mof_H 	H 	0.4317	0.0289	0.6404	-0.033
Mof_Na	Na	0.54512	0.57141	0.0054	1.725
Mof_N 	N 	0.60684	0.54203	0.7706	-0.311
Mof_N 	N 	0.54348	0.44078	0.815	-0.326
Mof_N 	N 	0.69286	0.37808	0.6948	-0.404
Mof_N 	N 	0.8581	0.4358	0.6681	-0.366
Mof_N 	N 	0.80484	0.5391	0.7065	-0.141
Mof_C 	C 	0.67176	0.49148	0.7377	-0.034
Mof_C 	C 	0.65026	0.45981	0.7405	-0.038
Mof_C 	C 	0.6993	0.43926	0.7178	-0.052
Mof_C 	C 	0.75132	0.45797	0.7035	-0.049
Mof_C 	C 	0.7345	0.49041	0.7151	-0.008
Mof_C 	C 	0.63606	0.51963	0.7552	0.09
Mof_C 	C 	0.59053	0.44961	0.7791	0.078
Mof_C 	C 	0.69601	0.40518	0.7064	0.055
Mof_C 	C 	0.81067	0.44574	0.6826	0.085
Mof_C 	C 	0.77328	0.5174	0.7096	0.077
Mof_O 	O 	0.5191	0.5185	0.1437	-0.615
Mof_C 	C 	0.5468	0.5002	0.298	0.297
Mof_H 	H 	0.561	0.4792	0.2519	-0.194
Mof_H 	H 	0.5816	0.5121	0.3487	-0.746
Mof_C 	C 	0.503	0.4956	0.4414	-0.263
Mof_H 	H 	0.5073	0.474	0.496	-0.013
Mof_H 	H 	0.509	0.5115	0.5419	0.121
Mof_C 	C 	0.5536	0.501	0.368	0.121
Mof_H 	H 	0.577	0.485	0.4387	0.019
Mof_H 	H 	0.5755	0.5217	0.3699	0.59
Mof_C 	C 	0.4573	0.5101	0.1678	0.33
Mof_H 	H 	0.5536	0.5072	0.0796	0.019
Mof_H 	H 	0.4317	0.5289	0.1404	-0.073
Mof_Na	Na	0.95488	0.92859	0.0054	1.726
Mof_N 	N 	0.89316	0.95797	0.7706	-0.311
Mof_N 	N 	0.95652	0.05922	0.815	-0.327
Mof_N 	N 	0.80714	0.12192	0.6948	-0.404
Mof_N 	N 	0.6419	0.0642	0.6681	-0.366
Mof_N 	N 	0.69516	0.9609	0.7065	-0.141
Mof_C 	C 	0.82824	0.00852	0.7377	-0.034
Mof_C 	C 	0.84974	0.04019	0.7405	-0.038
Mof_C 	C 	0.8007	0.06074	0.7178	-0.052
Mof_C 	C 	0.74868	0.04203	0.7035	-0.049
Mof_C 	C 	0.7655	0.00959	0.7151	-0.008
Mof_C 	C 	0.86394	0.98037	0.7552	0.09
Mof_C 	C 	0.90947	0.05039	0.7791	0.078
Mof_C 	C 	0.80399	0.09482	0.7064	0.055
Mof_C 	C 	0.68933	0.05426	0.6826	0.086
Mof_C 	C 	0.72672	0.9826	0.7096	0.077
Mof_O 	O 	0.9809	0.9815	0.1437	-0.615
Mof_C 	C 	0.9532	0.9998	0.298	0.298
Mof_H 	H 	0.939	0.0208	0.2519	-0.194
Mof_H 	H 	0.9184	0.9879	0.3487	-0.749
Mof_C 	C 	0.997	0.0044	0.4414	-0.263
Mof_H 	H 	0.9927	0.026	0.496	-0.013
Mof_H 	H 	0.991	0.9885	0.5419	0.121
Mof_C 	C 	0.9464	0.999	0.368	0.121
Mof_H 	H 	0.923	0.015	0.4387	0.019
Mof_H 	H 	0.9245	0.9783	0.3699	0.592
Mof_C 	C 	0.0427	0.9899	0.1678	0.329
Mof_H 	H 	0.9464	0.9928	0.0796	0.02
Mof_H 	H 	0.0683	0.9711	0.1404	-0.073
Mof_Na	Na	0.95488	0.42859	0.5054	1.95
Mof_N 	N 	0.89316	0.45797	0.2706	-0.363
Mof_N 	N 	0.95652	0.55922	0.315	-0.376
Mof_N 	N 	0.80714	0.62192	0.1948	-0.403
Mof_N 	N 	0.6419	0.5642	0.1681	-0.353
Mof_N 	N 	0.69516	0.4609	0.2065	-0.168
Mof_C 	C 	0.82824	0.50852	0.2377	-0.051
Mof_C 	C 	0.84974	0.54019	0.2405	-0.056
Mof_C 	C 	0.8007	0.56074	0.2178	-0.06
Mof_C 	C 	0.74868	0.54203	0.2035	-0.058
Mof_C 	C 	0.7655	0.50959	0.2151	-0.024
Mof_C 	C 	0.86394	0.48037	0.2552	0.052
Mof_C 	C 	0.90947	0.55039	0.2791	0.051
Mof_C 	C 	0.80399	0.59482	0.2064	0.038
Mof_C 	C 	0.68933	0.55426	0.1826	0.061
Mof_C 	C 	0.72672	0.4826	0.2096	0.041
Mof_O 	O 	0.9809	0.4815	0.6437	-0.63
Mof_C 	C 	0.9532	0.4998	0.798	0.367
Mof_H 	H 	0.939	0.5208	0.7519	-0.197
Mof_H 	H 	0.9184	0.4879	0.8487	-1.044
Mof_C 	C 	0.997	0.5044	0.9414	-0.245
Mof_H 	H 	0.9927	0.526	0.996	0.039
Mof_H 	H 	0.991	0.4885	0.0419	0.026
Mof_C 	C 	0.9464	0.499	0.868	0.18
Mof_H 	H 	0.923	0.515	0.9387	0.038
Mof_H 	H 	0.9245	0.4783	0.8699	0.846
Mof_C 	C 	0.0427	0.4899	0.6678	0.251
Mof_H 	H 	0.9464	0.4928	0.5796	0.054
Mof_H 	H 	0.0683	0.4711	0.6404	-0.033
Mof_Na	Na	0.45488	0.92859	0.5054	1.95
Mof_N 	N 	0.39316	0.95797	0.2706	-0.364
Mof_N 	N 	0.45652	0.05922	0.315	-0.376
Mof_N 	N 	0.30714	0.12192	0.1948	-0.403
Mof_N 	N 	0.1419	0.0642	0.1681	-0.353
Mof_N 	N 	0.19516	0.9609	0.2065	-0.168
Mof_C 	C 	0.32824	0.00852	0.2377	-0.051
Mof_C 	C 	0.34974	0.04019	0.2405	-0.056
Mof_C 	C 	0.3007	0.06074	0.2178	-0.06
Mof_C 	C 	0.24868	0.04203	0.2035	-0.058
Mof_C 	C 	0.2655	0.00959	0.2151	-0.024
Mof_C 	C 	0.36394	0.98037	0.2552	0.052
Mof_C 	C 	0.40947	0.05039	0.2791	0.051
Mof_C 	C 	0.30399	0.09482	0.2064	0.037
Mof_C 	C 	0.18933	0.05426	0.1826	0.061
Mof_C 	C 	0.22672	0.9826	0.2096	0.041
Mof_O 	O 	0.4809	0.9815	0.6437	-0.63
Mof_C 	C 	0.4532	0.9998	0.798	0.367
Mof_H 	H 	0.439	0.0208	0.7519	-0.197
Mof_H 	H 	0.4184	0.9879	0.8487	-1.045
Mof_C 	C 	0.497	0.0044	0.9414	-0.244
Mof_H 	H 	0.4927	0.026	0.996	0.039
Mof_H 	H 	0.491	0.9885	0.0419	0.025
Mof_C 	C 	0.4464	0.999	0.868	0.18
Mof_H 	H 	0.423	0.015	0.9387	0.038
Mof_H 	H 	0.4245	0.9783	0.8699	0.847
Mof_C 	C 	0.5427	0.9899	0.6678	0.251
Mof_H 	H 	0.4464	0.9928	0.5796	0.054
Mof_H 	H 	0.5683	0.9711	0.6404	-0.033
Mof_Na	Na	0.45488	0.42859	0.0054	1.725
Mof_N 	N 	0.39316	0.45797	0.7706	-0.311
Mof_N 	N 	0.45652	0.55922	0.815	-0.326
Mof_N 	N 	0.30714	0.62192	0.6948	-0.404
Mof_N 	N 	0.1419	0.5642	0.6681	-0.366
Mof_N 	N 	0.19516	0.4609	0.7065	-0.141
Mof_C 	C 	0.32824	0.50852	0.7377	-0.034
Mof_C 	C 	0.34974	0.54019	0.7405	-0.038
Mof_C 	C 	0.3007	0.56074	0.7178	-0.052
Mof_C 	C 	0.24868	0.54203	0.7035	-0.049
Mof_C 	C 	0.2655	0.50959	0.7151	-0.008
Mof_C 	C 	0.36394	0.48037	0.7552	0.09
Mof_C 	C 	0.40947	0.55039	0.7791	0.078
Mof_C 	C 	0.30399	0.59482	0.7064	0.055
Mof_C 	C 	0.18933	0.55426	0.6826	0.085
Mof_C 	C 	0.22672	0.4826	0.7096	0.077
Mof_O 	O 	0.4809	0.4815	0.1437	-0.615
Mof_C 	C 	0.4532	0.4998	0.298	0.297
Mof_H 	H 	0.439	0.5208	0.2519	-0.194
Mof_H 	H 	0.4184	0.4879	0.3487	-0.746
Mof_C 	C 	0.497	0.5044	0.4414	-0.263
Mof_H 	H 	0.4927	0.526	0.496	-0.013
Mof_H 	H 	0.491	0.4885	0.5419	0.121
Mof_C 	C 	0.4464	0.499	0.368	0.121
Mof_H 	H 	0.423	0.515	0.4387	0.019
Mof_H 	H 	0.4245	0.4783	0.3699	0.59
Mof_C 	C 	0.5427	0.4899	0.1678	0.33
Mof_H 	H 	0.4464	0.4928	0.0796	0.019
Mof_H 	H 	0.5683	0.4711	0.1404	-0.073
Mof_Na	Na	0.29512	0.17859	0.2554	1.938
Mof_N 	N 	0.35684	0.20797	0.0206	-0.345
Mof_N 	N 	0.29348	0.30922	0.065	-0.359
Mof_N 	N 	0.44286	0.37192	0.9448	-0.353
Mof_N 	N 	0.6081	0.3142	0.9181	-0.364
Mof_N 	N 	0.55484	0.2109	0.9565	-0.139
Mof_C 	C 	0.42176	0.25852	0.9877	0.028
Mof_C 	C 	0.40026	0.29019	0.9905	0.026
Mof_C 	C 	0.4493	0.31074	0.9678	-0.067
Mof_C 	C 	0.50132	0.29203	0.9535	-0.035
Mof_C 	C 	0.4845	0.25959	0.9651	-0.031
Mof_C 	C 	0.38606	0.23037	0.0052	-0.028
Mof_C 	C 	0.34053	0.30039	0.0291	-0.033
Mof_C 	C 	0.44601	0.34482	0.9564	0.079
Mof_C 	C 	0.56067	0.30426	0.9326	0.093
Mof_C 	C 	0.52328	0.2326	0.9596	0.097
Mof_O 	O 	0.2691	0.2315	0.3937	-0.639
Mof_C 	C 	0.2968	0.2498	0.548	0.291
Mof_H 	H 	0.311	0.2708	0.5019	-0.206
Mof_H 	H 	0.3316	0.2379	0.5987	-0.73
Mof_C 	C 	0.253	0.2544	0.6914	-0.258
Mof_H 	H 	0.2573	0.276	0.746	-0.005
Mof_H 	H 	0.259	0.2385	0.7919	0.126
Mof_C 	C 	0.3036	0.249	0.618	0.108
Mof_H 	H 	0.327	0.265	0.6887	0.034
Mof_H 	H 	0.3255	0.2283	0.6199	0.585
Mof_C 	C 	0.2073	0.2399	0.4178	0.371
Mof_H 	H 	0.3036	0.2428	0.3296	0.019
Mof_H 	H 	0.1817	0.2211	0.3904	-0.071
Mof_Na	Na	0.29512	0.67859	0.7554	2.011
Mof_N 	N 	0.35684	0.70797	0.5206	-0.366
Mof_N 	N 	0.29348	0.80922	0.565	-0.38
Mof_N 	N 	0.44286	0.87192	0.4448	-0.402
Mof_N 	N 	0.6081	0.8142	0.4181	-0.362
Mof_N 	N 	0.55484	0.7109	0.4565	-0.159
Mof_C 	C 	0.42176	0.75852	0.4877	-0.048
Mof_C 	C 	0.40026	0.79019	0.4905	-0.052
Mof_C 	C 	0.4493	0.81074	0.4678	-0.057
Mof_C 	C 	0.50132	0.79203	0.4535	-0.058
Mof_C 	C 	0.4845	0.75959	0.4651	-0.02
Mof_C 	C 	0.38606	0.73037	0.5052	0.061
Mof_C 	C 	0.34053	0.80039	0.5291	0.059
Mof_C 	C 	0.44601	0.84482	0.4564	0.042
Mof_C 	C 	0.56067	0.80426	0.4326	0.075
Mof_C 	C 	0.52328	0.7326	0.4596	0.045
Mof_O 	O 	0.2691	0.7315	0.8937	-0.691
Mof_C 	C 	0.2968	0.7498	0.048	0.569
Mof_H 	H 	0.311	0.7708	0.0019	-0.368
Mof_H 	H 	0.3316	0.7379	0.0987	-1.25
Mof_C 	C 	0.253	0.7544	0.1914	-0.394
Mof_H 	H 	0.2573	0.776	0.246	-0.028
Mof_H 	H 	0.259	0.7385	0.2919	0.176
Mof_C 	C 	0.3036	0.749	0.118	0.107
Mof_H 	H 	0.327	0.765	0.1887	0.041
Mof_H 	H 	0.3255	0.7283	0.1199	0.981
Mof_C 	C 	0.2073	0.7399	0.9178	0.4
Mof_H 	H 	0.3036	0.7428	0.8296	0.022
Mof_H 	H 	0.1817	0.7211	0.8904	0.003
Mof_Na	Na	0.79512	0.17859	0.7554	2.011
Mof_N 	N 	0.85684	0.20797	0.5206	-0.366
Mof_N 	N 	0.79348	0.30922	0.565	-0.38
Mof_N 	N 	0.94286	0.37192	0.4448	-0.402
Mof_N 	N 	0.1081	0.3142	0.4181	-0.362
Mof_N 	N 	0.05484	0.2109	0.4565	-0.159
Mof_C 	C 	0.92176	0.25852	0.4877	-0.048
Mof_C 	C 	0.90026	0.29019	0.4905	-0.052
Mof_C 	C 	0.9493	0.31074	0.4678	-0.057
Mof_C 	C 	0.00132	0.29203	0.4535	-0.058
Mof_C 	C 	0.9845	0.25959	0.4651	-0.02
Mof_C 	C 	0.88606	0.23037	0.5052	0.061
Mof_C 	C 	0.84053	0.30039	0.5291	0.059
Mof_C 	C 	0.94601	0.34482	0.4564	0.042
Mof_C 	C 	0.06067	0.30426	0.4326	0.075
Mof_C 	C 	0.02328	0.2326	0.4596	0.045
Mof_O 	O 	0.7691	0.2315	0.8937	-0.691
Mof_C 	C 	0.7968	0.2498	0.048	0.569
Mof_H 	H 	0.811	0.2708	0.0019	-0.368
Mof_H 	H 	0.8316	0.2379	0.0987	-1.249
Mof_C 	C 	0.753	0.2544	0.1914	-0.394
Mof_H 	H 	0.7573	0.276	0.246	-0.028
Mof_H 	H 	0.759	0.2385	0.2919	0.176
Mof_C 	C 	0.8036	0.249	0.118	0.107
Mof_H 	H 	0.827	0.265	0.1887	0.041
Mof_H 	H 	0.8255	0.2283	0.1199	0.981
Mof_C 	C 	0.7073	0.2399	0.9178	0.401
Mof_H 	H 	0.8036	0.2428	0.8296	0.022
Mof_H 	H 	0.6817	0.2211	0.8904	0.003
Mof_Na	Na	0.79512	0.67859	0.2554	1.938
Mof_N 	N 	0.85684	0.70797	0.0206	-0.345
Mof_N 	N 	0.79348	0.80922	0.065	-0.359
Mof_N 	N 	0.94286	0.87192	0.9448	-0.354
Mof_N 	N 	0.1081	0.8142	0.9181	-0.364
Mof_N 	N 	0.05484	0.7109	0.9565	-0.139
Mof_C 	C 	0.92176	0.75852	0.9877	0.028
Mof_C 	C 	0.90026	0.79019	0.9905	0.026
Mof_C 	C 	0.9493	0.81074	0.9678	-0.067
Mof_C 	C 	0.00132	0.79203	0.9535	-0.035
Mof_C 	C 	0.9845	0.75959	0.9651	-0.031
Mof_C 	C 	0.88606	0.73037	0.0052	-0.028
Mof_C 	C 	0.84053	0.80039	0.0291	-0.033
Mof_C 	C 	0.94601	0.84482	0.9564	0.079
Mof_C 	C 	0.06067	0.80426	0.9326	0.093
Mof_C 	C 	0.02328	0.7326	0.9596	0.097
Mof_O 	O 	0.7691	0.7315	0.3937	-0.639
Mof_C 	C 	0.7968	0.7498	0.548	0.291
Mof_H 	H 	0.811	0.7708	0.5019	-0.206
Mof_H 	H 	0.8316	0.7379	0.5987	-0.73
Mof_C 	C 	0.753	0.7544	0.6914	-0.258
Mof_H 	H 	0.7573	0.776	0.746	-0.005
Mof_H 	H 	0.759	0.7385	0.7919	0.126
Mof_C 	C 	0.8036	0.749	0.618	0.108
Mof_H 	H 	0.827	0.765	0.6887	0.034
Mof_H 	H 	0.8255	0.7283	0.6199	0.585
Mof_C 	C 	0.7073	0.7399	0.4178	0.372
Mof_H 	H 	0.8036	0.7428	0.3296	0.019
Mof_H 	H 	0.6817	0.7211	0.3904	-0.071
Mof_Na	Na	0.20488	0.32141	0.2554	1.938
Mof_N 	N 	0.14316	0.29203	0.0206	-0.345
Mof_N 	N 	0.20652	0.19078	0.065	-0.359
Mof_N 	N 	0.05714	0.12808	0.9448	-0.354
Mof_N 	N 	0.8919	0.1858	0.9181	-0.364
Mof_N 	N 	0.94516	0.2891	0.9565	-0.139
Mof_C 	C 	0.07824	0.24148	0.9877	0.028
Mof_C 	C 	0.09974	0.20981	0.9905	0.026
Mof_C 	C 	0.0507	0.18926	0.9678	-0.067
Mof_C 	C 	0.99868	0.20797	0.9535	-0.035
Mof_C 	C 	0.0155	0.24041	0.9651	-0.031
Mof_C 	C 	0.11394	0.26963	0.0052	-0.028
Mof_C 	C 	0.15947	0.19961	0.0291	-0.033
Mof_C 	C 	0.05399	0.15518	0.9564	0.079
Mof_C 	C 	0.93933	0.19574	0.9326	0.093
Mof_C 	C 	0.97672	0.2674	0.9596	0.097
Mof_O 	O 	0.2309	0.2685	0.3937	-0.639
Mof_C 	C 	0.2032	0.2502	0.548	0.291
Mof_H 	H 	0.189	0.2292	0.5019	-0.206
Mof_H 	H 	0.1684	0.2621	0.5987	-0.73
Mof_C 	C 	0.247	0.2456	0.6914	-0.258
Mof_H 	H 	0.2427	0.224	0.746	-0.005
Mof_H 	H 	0.241	0.2615	0.7919	0.126
Mof_C 	C 	0.1964	0.251	0.618	0.108
Mof_H 	H 	0.173	0.235	0.6887	0.034
Mof_H 	H 	0.1745	0.2717	0.6199	0.585
Mof_C 	C 	0.2927	0.2601	0.4178	0.372
Mof_H 	H 	0.1964	0.2572	0.3296	0.019
Mof_H 	H 	0.3183	0.2789	0.3904	-0.071
Mof_Na	Na	0.20488	0.82141	0.7554	2.011
Mof_N 	N 	0.14316	0.79203	0.5206	-0.366
Mof_N 	N 	0.20652	0.69078	0.565	-0.38
Mof_N 	N 	0.05714	0.62808	0.4448	-0.402
Mof_N 	N 	0.8919	0.6858	0.4181	-0.362
Mof_N 	N 	0.94516	0.7891	0.4565	-0.159
Mof_C 	C 	0.07824	0.74148	0.4877	-0.048
Mof_C 	C 	0.09974	0.70981	0.4905	-0.052
Mof_C 	C 	0.0507	0.68926	0.4678	-0.057
Mof_C 	C 	0.99868	0.70797	0.4535	-0.058
Mof_C 	C 	0.0155	0.74041	0.4651	-0.02
Mof_C 	C 	0.11394	0.76963	0.5052	0.061
Mof_C 	C 	0.15947	0.69961	0.5291	0.059
Mof_C 	C 	0.05399	0.65518	0.4564	0.042
Mof_C 	C 	0.93933	0.69574	0.4326	0.075
Mof_C 	C 	0.97672	0.7674	0.4596	0.045
Mof_O 	O 	0.2309	0.7685	0.8937	-0.691
Mof_C 	C 	0.2032	0.7502	0.048	0.569
Mof_H 	H 	0.189	0.7292	0.0019	-0.368
Mof_H 	H 	0.1684	0.7621	0.0987	-1.249
Mof_C 	C 	0.247	0.7456	0.1914	-0.394
Mof_H 	H 	0.2427	0.724	0.246	-0.028
Mof_H 	H 	0.241	0.7615	0.2919	0.176
Mof_C 	C 	0.1964	0.751	0.118	0.107
Mof_H 	H 	0.173	0.735	0.1887	0.041
Mof_H 	H 	0.1745	0.7717	0.1199	0.981
Mof_C 	C 	0.2927	0.7601	0.9178	0.401
Mof_H 	H 	0.1964	0.7572	0.8296	0.022
Mof_H 	H 	0.3183	0.7789	0.8904	0.003
Mof_Na	Na	0.70488	0.32141	0.7554	2.011
Mof_N 	N 	0.64316	0.29203	0.5206	-0.366
Mof_N 	N 	0.70652	0.19078	0.565	-0.38
Mof_N 	N 	0.55714	0.12808	0.4448	-0.402
Mof_N 	N 	0.3919	0.1858	0.4181	-0.362
Mof_N 	N 	0.44516	0.2891	0.4565	-0.159
Mof_C 	C 	0.57824	0.24148	0.4877	-0.048
Mof_C 	C 	0.59974	0.20981	0.4905	-0.052
Mof_C 	C 	0.5507	0.18926	0.4678	-0.057
Mof_C 	C 	0.49868	0.20797	0.4535	-0.058
Mof_C 	C 	0.5155	0.24041	0.4651	-0.02
Mof_C 	C 	0.61394	0.26963	0.5052	0.061
Mof_C 	C 	0.65947	0.19961	0.5291	0.059
Mof_C 	C 	0.55399	0.15518	0.4564	0.042
Mof_C 	C 	0.43933	0.19574	0.4326	0.075
Mof_C 	C 	0.47672	0.2674	0.4596	0.045
Mof_O 	O 	0.7309	0.2685	0.8937	-0.691
Mof_C 	C 	0.7032	0.2502	0.048	0.569
Mof_H 	H 	0.689	0.2292	0.0019	-0.368
Mof_H 	H 	0.6684	0.2621	0.0987	-1.25
Mof_C 	C 	0.747	0.2456	0.1914	-0.394
Mof_H 	H 	0.7427	0.224	0.246	-0.028
Mof_H 	H 	0.741	0.2615	0.2919	0.176
Mof_C 	C 	0.6964	0.251	0.118	0.107
Mof_H 	H 	0.673	0.235	0.1887	0.041
Mof_H 	H 	0.6745	0.2717	0.1199	0.981
Mof_C 	C 	0.7927	0.2601	0.9178	0.4
Mof_H 	H 	0.6964	0.2572	0.8296	0.022
Mof_H 	H 	0.8183	0.2789	0.8904	0.003
Mof_Na	Na	0.70488	0.82141	0.2554	1.938
Mof_N 	N 	0.64316	0.79203	0.0206	-0.345
Mof_N 	N 	0.70652	0.69078	0.065	-0.359
Mof_N 	N 	0.55714	0.62808	0.9448	-0.353
Mof_N 	N 	0.3919	0.6858	0.9181	-0.364
Mof_N 	N 	0.44516	0.7891	0.9565	-0.139
Mof_C 	C 	0.57824	0.74148	0.9877	0.028
Mof_C 	C 	0.59974	0.70981	0.9905	0.026
Mof_C 	C 	0.5507	0.68926	0.9678	-0.067
Mof_C 	C 	0.49868	0.70797	0.9535	-0.035
Mof_C 	C 	0.5155	0.74041	0.9651	-0.031
Mof_C 	C 	0.61394	0.76963	0.0052	-0.028
Mof_C 	C 	0.65947	0.69961	0.0291	-0.033
Mof_C 	C 	0.55399	0.65518	0.9564	0.079
Mof_C 	C 	0.43933	0.69574	0.9326	0.093
Mof_C 	C 	0.47672	0.7674	0.9596	0.097
Mof_O 	O 	0.7309	0.7685	0.3937	-0.639
Mof_C 	C 	0.7032	0.7502	0.548	0.291
Mof_H 	H 	0.689	0.7292	0.5019	-0.206
Mof_H 	H 	0.6684	0.7621	0.5987	-0.73
Mof_C 	C 	0.747	0.7456	0.6914	-0.258
Mof_H 	H 	0.7427	0.724	0.746	-0.005
Mof_H 	H 	0.741	0.7615	0.7919	0.126
Mof_C 	C 	0.6964	0.751	0.618	0.108
Mof_H 	H 	0.673	0.735	0.6887	0.034
Mof_H 	H 	0.6745	0.7717	0.6199	0.585
Mof_C 	C 	0.7927	0.7601	0.4178	0.371
Mof_H 	H 	0.6964	0.7572	0.3296	0.019
Mof_H 	H 	0.8183	0.7789	0.3904	-0.071
_end
