data_functionalizedCrystal
_audit_creation_method	'EQeq! by Chris Wilmer'
_symmetry_space_group_name_H-M	'P1'
_symmetry_Int_Tables_number	1
_symmetry_cell_setting	triclinic
loop_
_symmetry_equiv_pos_as_xyz
  x,y,z
_cell_length_a	9.6448
_cell_length_b	8.877
_cell_length_c	14.813
_cell_angle_alpha	90
_cell_angle_beta	91.936
_cell_angle_gamma	90
loop_
_atom_site_label
_atom_site_type_symbol
_atom_site_fract_x
_atom_site_fract_y
_atom_site_fract_z
_atom_site_charge
Mof_V 	V 	0.9355	0.9979	0.1513	1.722
Mof_V 	V 	0.1685	0.4998	0.8932	1.747
Mof_P 	P 	0.008	0.7473	0.0047	0.544
Mof_O 	O 	0.0469	0.8383	0.0882	-0.508
Mof_O 	O 	0.1357	0.6496	0.9833	-0.537
Mof_O 	O 	0.9651	0.8427	0.9222	-0.496
Mof_O 	O 	0.8818	0.8455	0.2437	-0.52
Mof_O 	O 	0.8803	0.1607	0.2383	-0.507
Mof_O 	O 	0.729	0.6502	0.1654	-0.557
Mof_O 	O 	0.7203	0.3552	0.1662	-0.543
Mof_O 	O 	0.8814	0.6439	0.0198	-0.558
Mof_O 	O 	0.1214	0.011	0.2401	-0.381
Mof_O 	O 	0.2594	0.2114	0.1659	-0.214
Mof_V 	V 	0.5645	0.9979	0.3487	1.73
Mof_V 	V 	0.3315	0.4998	0.6068	1.748
Mof_P 	P 	0.492	0.7473	0.4953	0.541
Mof_O 	O 	0.4531	0.8383	0.4118	-0.51
Mof_O 	O 	0.3643	0.6496	0.5167	-0.537
Mof_O 	O 	0.5349	0.8427	0.5778	-0.499
Mof_O 	O 	0.6182	0.8455	0.2563	-0.518
Mof_O 	O 	0.6197	0.1607	0.2617	-0.509
Mof_O 	O 	0.771	0.6502	0.3346	-0.557
Mof_O 	O 	0.7797	0.3552	0.3338	-0.543
Mof_O 	O 	0.6186	0.6439	0.4802	-0.551
Mof_O 	O 	0.3786	0.011	0.2599	-0.38
Mof_O 	O 	0.2406	0.2114	0.3341	-0.217
Mof_V 	V 	0.0645	0.0021	0.8487	1.723
Mof_V 	V 	0.8315	0.5002	0.1068	1.748
Mof_P 	P 	0.992	0.2527	0.9953	0.544
Mof_O 	O 	0.9531	0.1617	0.9118	-0.508
Mof_O 	O 	0.8643	0.3504	0.0167	-0.537
Mof_O 	O 	0.0349	0.1573	0.0778	-0.496
Mof_O 	O 	0.1182	0.1545	0.7563	-0.52
Mof_O 	O 	0.1197	0.8393	0.7617	-0.507
Mof_O 	O 	0.271	0.3498	0.8346	-0.557
Mof_O 	O 	0.2797	0.6448	0.8338	-0.543
Mof_O 	O 	0.1186	0.3561	0.9802	-0.558
Mof_O 	O 	0.8786	0.989	0.7599	-0.381
Mof_O 	O 	0.7406	0.7886	0.8341	-0.214
Mof_V 	V 	0.4355	0.0021	0.6513	1.73
Mof_V 	V 	0.6685	0.5002	0.3932	1.748
Mof_P 	P 	0.508	0.2527	0.5047	0.541
Mof_O 	O 	0.5469	0.1617	0.5882	-0.51
Mof_O 	O 	0.6357	0.3504	0.4833	-0.537
Mof_O 	O 	0.4651	0.1573	0.4222	-0.499
Mof_O 	O 	0.3818	0.1545	0.7437	-0.518
Mof_O 	O 	0.3803	0.8393	0.7383	-0.509
Mof_O 	O 	0.229	0.3498	0.6654	-0.557
Mof_O 	O 	0.2203	0.6448	0.6662	-0.543
Mof_O 	O 	0.3814	0.3561	0.5198	-0.551
Mof_O 	O 	0.6214	0.989	0.7401	-0.38
Mof_O 	O 	0.7594	0.7886	0.6659	-0.217
Mof_P 	P 	0.75	0.2531	0.25	0.542
Mof_P 	P 	0.75	0.7523	0.25	0.541
Mof_P 	P 	0.25	0.7469	0.75	0.542
Mof_P 	P 	0.25	0.2477	0.75	0.541
Mof_P 	P 	0.25	0.1046	0.25	0.526
Mof_P 	P 	0.75	0.8954	0.75	0.526
_end
