data_functionalizedCrystal
_audit_creation_method	'EQeq! by Chris Wilmer'
_symmetry_space_group_name_H-M	'P1'
_symmetry_Int_Tables_number	1
_symmetry_cell_setting	triclinic
loop_
_symmetry_equiv_pos_as_xyz
  x,y,z
_cell_length_a	18.338
_cell_length_b	14.619
_cell_length_c	12.379
_cell_angle_alpha	90
_cell_angle_beta	113
_cell_angle_gamma	90
loop_
_atom_site_label
_atom_site_type_symbol
_atom_site_fract_x
_atom_site_fract_y
_atom_site_fract_z
_atom_site_charge
Mof_Ag	Ag	0.24828	0.19738	0.74462	0.779
Mof_Ag	Ag	0.07769	0.19023	0.87525	0.615
Mof_Cr	Cr	0.2905	0.49563	0.47614	2.123
Mof_O 	O 	0.3522	0.4218	0.613	-0.629
Mof_O 	O 	0.2068	0.4087	0.4648	-0.653
Mof_O 	O 	0.342	0.2997	0.7166	-0.357
Mof_O 	O 	0.1838	0.2875	0.5579	-0.43
Mof_C 	C 	0.3141	0.3553	0.6355	0.242
Mof_C 	C 	0.2268	0.3477	0.5455	0.273
Mof_O 	O 	0.2199	0.5691	0.343	-0.565
Mof_O 	O 	0.258	0.5845	0.568	-0.586
Mof_O 	O 	0.1477	0.3039	0.8062	-0.349
Mof_O 	O 	0.3159	0.2103	0.9559	-0.358
Mof_C 	C 	0.1895	0.6391	0.3727	0.264
Mof_C 	C 	0.2101	0.6468	0.5047	0.231
Mof_O 	O 	0.3834	0.5704	0.4889	-0.642
Mof_O 	O 	0.3271	0.4224	0.3723	-0.652
Mof_O 	O 	0.5255	0.4137	0.5862	-0.382
Mof_O 	O 	0.5793	0.5829	0.6994	-0.424
Mof_C 	C 	0.4189	0.5456	0.4249	0.284
Mof_C 	C 	0.3877	0.4535	0.3593	0.291
Mof_Cs	Cs	0.5088	0.2145	0.8602	-1.573
Mof_Ag	Ag	0.5749	0.1589	0.8022	0.91
Mof_Ag	Ag	0.5469	0.243	0.9413	1.365
Mof_O 	O 	0.9949	0.3011	0.8982	-0.271
Mof_Ag	Ag	0.74828	0.69738	0.74462	0.778
Mof_Ag	Ag	0.57769	0.69023	0.87525	0.702
Mof_Cr	Cr	0.7905	0.99563	0.47614	2.128
Mof_O 	O 	0.8522	0.9218	0.613	-0.613
Mof_O 	O 	0.7068	0.9087	0.4648	-0.654
Mof_O 	O 	0.842	0.7997	0.7166	-0.354
Mof_O 	O 	0.6838	0.7875	0.5579	-0.439
Mof_C 	C 	0.8141	0.8553	0.6355	0.239
Mof_C 	C 	0.7268	0.8477	0.5455	0.278
Mof_O 	O 	0.7199	0.0691	0.343	-0.563
Mof_O 	O 	0.758	0.0845	0.568	-0.587
Mof_O 	O 	0.6477	0.8039	0.8062	-0.353
Mof_O 	O 	0.8159	0.7103	0.9559	-0.356
Mof_C 	C 	0.6895	0.1391	0.3727	0.267
Mof_C 	C 	0.7101	0.1468	0.5047	0.233
Mof_O 	O 	0.8834	0.0704	0.4889	-0.638
Mof_O 	O 	0.8271	0.9224	0.3723	-0.654
Mof_O 	O 	0.0255	0.9137	0.5862	-0.401
Mof_O 	O 	0.0793	0.0829	0.6994	-0.427
Mof_C 	C 	0.9189	0.0456	0.4249	0.291
Mof_C 	C 	0.8877	0.9535	0.3593	0.294
Mof_Cs	Cs	0.0088	0.7145	0.8602	-1.395
Mof_Ag	Ag	0.0749	0.6589	0.8022	0.859
Mof_Ag	Ag	0.0469	0.743	0.9413	1.214
Mof_O 	O 	0.4949	0.8011	0.8982	-0.304
Mof_Ag	Ag	0.75172	0.19738	0.75538	0.776
Mof_Ag	Ag	0.92231	0.19023	0.62475	0.776
Mof_Cr	Cr	0.7095	0.49563	0.02386	2.127
Mof_O 	O 	0.6478	0.4218	0.887	-0.628
Mof_O 	O 	0.7932	0.4087	0.0352	-0.655
Mof_O 	O 	0.658	0.2997	0.7834	-0.354
Mof_O 	O 	0.8162	0.2875	0.9421	-0.449
Mof_C 	C 	0.6859	0.3553	0.8645	0.239
Mof_C 	C 	0.7732	0.3477	0.9545	0.282
Mof_O 	O 	0.7801	0.5691	0.157	-0.563
Mof_O 	O 	0.742	0.5845	0.932	-0.585
Mof_O 	O 	0.8523	0.3039	0.6938	-0.353
Mof_O 	O 	0.6841	0.2103	0.5441	-0.36
Mof_C 	C 	0.8105	0.6391	0.1273	0.266
Mof_C 	C 	0.7899	0.6468	0.9953	0.24
Mof_O 	O 	0.6166	0.5704	0.0111	-0.644
Mof_O 	O 	0.6729	0.4224	0.1277	-0.652
Mof_O 	O 	0.4745	0.4137	0.9138	-0.383
Mof_O 	O 	0.4207	0.5829	0.8006	-0.424
Mof_C 	C 	0.5811	0.5456	0.0751	0.285
Mof_C 	C 	0.6123	0.4535	0.1407	0.291
Mof_Cs	Cs	0.4912	0.2145	0.6398	-1.572
Mof_Ag	Ag	0.4251	0.1589	0.6978	0.91
Mof_Ag	Ag	0.4531	0.243	0.5587	1.372
Mof_O 	O 	0.0051	0.3011	0.6018	-0.345
Mof_Ag	Ag	0.25172	0.69738	0.75538	0.781
Mof_Ag	Ag	0.42231	0.69023	0.62475	0.698
Mof_Cr	Cr	0.2095	0.99563	0.02386	2.108
Mof_O 	O 	0.1478	0.9218	0.887	-0.616
Mof_O 	O 	0.2932	0.9087	0.0352	-0.655
Mof_O 	O 	0.158	0.7997	0.7834	-0.349
Mof_O 	O 	0.3162	0.7875	0.9421	-0.438
Mof_C 	C 	0.1859	0.8553	0.8645	0.237
Mof_C 	C 	0.2732	0.8477	0.9545	0.287
Mof_O 	O 	0.2801	0.0691	0.157	-0.558
Mof_O 	O 	0.242	0.0845	0.932	-0.582
Mof_O 	O 	0.3523	0.8039	0.6938	-0.351
Mof_O 	O 	0.1841	0.7103	0.5441	-0.36
Mof_C 	C 	0.3105	0.1391	0.1273	0.277
Mof_C 	C 	0.2899	0.1468	0.9953	0.224
Mof_O 	O 	0.1166	0.0704	0.0111	-0.631
Mof_O 	O 	0.1729	0.9224	0.1277	-0.648
Mof_O 	O 	0.9745	0.9137	0.9138	-0.335
Mof_O 	O 	0.9207	0.0829	0.8006	-0.401
Mof_C 	C 	0.0811	0.0456	0.0751	0.286
Mof_C 	C 	0.1123	0.9535	0.1407	0.281
Mof_Cs	Cs	0.9912	0.7145	0.6398	-1.758
Mof_Ag	Ag	0.9251	0.6589	0.6978	0.967
Mof_Ag	Ag	0.9531	0.743	0.5587	1.542
Mof_O 	O 	0.5051	0.8011	0.6018	-0.306
Mof_Ag	Ag	0.75172	0.80262	0.25538	0.776
Mof_Ag	Ag	0.92231	0.80977	0.12475	0.757
Mof_Cr	Cr	0.7095	0.50437	0.52386	2.13
Mof_O 	O 	0.6478	0.5782	0.387	-0.628
Mof_O 	O 	0.7932	0.5913	0.5352	-0.656
Mof_O 	O 	0.658	0.7003	0.2834	-0.354
Mof_O 	O 	0.8162	0.7125	0.4421	-0.448
Mof_C 	C 	0.6859	0.6447	0.3645	0.239
Mof_C 	C 	0.7732	0.6523	0.4545	0.283
Mof_O 	O 	0.7801	0.4309	0.657	-0.564
Mof_O 	O 	0.742	0.4155	0.432	-0.585
Mof_O 	O 	0.8523	0.6961	0.1938	-0.351
Mof_O 	O 	0.6841	0.7897	0.0441	-0.36
Mof_C 	C 	0.8105	0.3609	0.6273	0.271
Mof_C 	C 	0.7899	0.3532	0.4953	0.236
Mof_O 	O 	0.6166	0.4296	0.5111	-0.643
Mof_O 	O 	0.6729	0.5776	0.6277	-0.653
Mof_O 	O 	0.4745	0.5863	0.4138	-0.382
Mof_O 	O 	0.4207	0.4171	0.3006	-0.424
Mof_C 	C 	0.5811	0.4544	0.5751	0.284
Mof_C 	C 	0.6123	0.5465	0.6407	0.291
Mof_Cs	Cs	0.4912	0.7855	0.1398	-1.57
Mof_Ag	Ag	0.4251	0.8411	0.1978	0.911
Mof_Ag	Ag	0.4531	0.757	0.0587	1.366
Mof_O 	O 	0.0051	0.6989	0.1018	-0.341
Mof_Ag	Ag	0.25172	0.30262	0.25538	0.781
Mof_Ag	Ag	0.42231	0.30977	0.12475	0.704
Mof_Cr	Cr	0.2095	0.00437	0.52386	2.121
Mof_O 	O 	0.1478	0.0782	0.387	-0.621
Mof_O 	O 	0.2932	0.0913	0.5352	-0.653
Mof_O 	O 	0.158	0.2003	0.2834	-0.349
Mof_O 	O 	0.3162	0.2125	0.4421	-0.438
Mof_C 	C 	0.1859	0.1447	0.3645	0.239
Mof_C 	C 	0.2732	0.1523	0.4545	0.281
Mof_O 	O 	0.2801	0.9309	0.657	-0.56
Mof_O 	O 	0.242	0.9155	0.432	-0.582
Mof_O 	O 	0.3523	0.1961	0.1938	-0.353
Mof_O 	O 	0.1841	0.2897	0.0441	-0.358
Mof_C 	C 	0.3105	0.8609	0.6273	0.268
Mof_C 	C 	0.2899	0.8532	0.4953	0.234
Mof_O 	O 	0.1166	0.9296	0.5111	-0.641
Mof_O 	O 	0.1729	0.0776	0.6277	-0.649
Mof_O 	O 	0.9745	0.0863	0.4138	-0.337
Mof_O 	O 	0.9207	0.9171	0.3006	-0.403
Mof_C 	C 	0.0811	0.9544	0.5751	0.285
Mof_C 	C 	0.1123	0.0465	0.6407	0.284
Mof_Cs	Cs	0.9912	0.2855	0.1398	-1.748
Mof_Ag	Ag	0.9251	0.3411	0.1978	0.963
Mof_Ag	Ag	0.9531	0.257	0.0587	1.537
Mof_O 	O 	0.5051	0.1989	0.1018	-0.303
Mof_Ag	Ag	0.24828	0.80262	0.24462	0.781
Mof_Ag	Ag	0.07769	0.80977	0.37525	0.636
Mof_Cr	Cr	0.2905	0.50437	0.97614	2.119
Mof_O 	O 	0.3522	0.5782	0.113	-0.626
Mof_O 	O 	0.2068	0.5913	0.9648	-0.653
Mof_O 	O 	0.342	0.7003	0.2166	-0.355
Mof_O 	O 	0.1838	0.7125	0.0579	-0.429
Mof_C 	C 	0.3141	0.6447	0.1355	0.242
Mof_C 	C 	0.2268	0.6523	0.0455	0.276
Mof_O 	O 	0.2199	0.4309	0.843	-0.564
Mof_O 	O 	0.258	0.4155	0.068	-0.585
Mof_O 	O 	0.1477	0.6961	0.3062	-0.351
Mof_O 	O 	0.3159	0.7897	0.4559	-0.358
Mof_C 	C 	0.1895	0.3609	0.8727	0.258
Mof_C 	C 	0.2101	0.3532	0.0047	0.238
Mof_O 	O 	0.3834	0.4296	0.9889	-0.644
Mof_O 	O 	0.3271	0.5776	0.8723	-0.651
Mof_O 	O 	0.5255	0.5863	0.0862	-0.382
Mof_O 	O 	0.5793	0.4171	0.1994	-0.424
Mof_C 	C 	0.4189	0.4544	0.9249	0.285
Mof_C 	C 	0.3877	0.5465	0.8593	0.29
Mof_Cs	Cs	0.5088	0.7855	0.3602	-1.574
Mof_Ag	Ag	0.5749	0.8411	0.3022	0.909
Mof_Ag	Ag	0.5469	0.757	0.4413	1.373
Mof_O 	O 	0.9949	0.6989	0.3982	-0.274
Mof_Ag	Ag	0.74828	0.30262	0.24462	0.779
Mof_Ag	Ag	0.57769	0.30977	0.37525	0.697
Mof_Cr	Cr	0.7905	0.00437	0.97614	2.109
Mof_O 	O 	0.8522	0.0782	0.113	-0.607
Mof_O 	O 	0.7068	0.0913	0.9648	-0.658
Mof_O 	O 	0.842	0.2003	0.2166	-0.353
Mof_O 	O 	0.6838	0.2125	0.0579	-0.438
Mof_C 	C 	0.8141	0.1447	0.1355	0.237
Mof_C 	C 	0.7268	0.1523	0.0455	0.287
Mof_O 	O 	0.7199	0.9309	0.843	-0.56
Mof_O 	O 	0.758	0.9155	0.068	-0.586
Mof_O 	O 	0.6477	0.1961	0.3062	-0.351
Mof_O 	O 	0.8159	0.2897	0.4559	-0.358
Mof_C 	C 	0.6895	0.8609	0.8727	0.275
Mof_C 	C 	0.7101	0.8532	0.0047	0.224
Mof_O 	O 	0.8834	0.9296	0.9889	-0.629
Mof_O 	O 	0.8271	0.0776	0.8723	-0.652
Mof_O 	O 	0.0255	0.0863	0.0862	-0.398
Mof_O 	O 	0.0793	0.9171	0.1994	-0.425
Mof_C 	C 	0.9189	0.9544	0.9249	0.292
Mof_C 	C 	0.8877	0.0465	0.8593	0.29
Mof_Cs	Cs	0.0088	0.2855	0.3602	-1.405
Mof_Ag	Ag	0.0749	0.3411	0.3022	0.864
Mof_Ag	Ag	0.0469	0.257	0.4413	1.22
Mof_O 	O 	0.4949	0.1989	0.3982	-0.306
Mof_Ag	Ag	0.5	0.46263	0.75	0.868
Mof_Ag	Ag	3.72159e-17	0.96263	0.75	0.77
Mof_Ag	Ag	0.5	0.53737	0.25	0.869
Mof_Ag	Ag	9.30398e-18	0.03737	0.25	0.773
_end
