# CIF file generated by openbabel 3.1.0, see https://openbabel.org
data_I
_chemical_name_common 'LUCDIW_clean'
_cell_length_a 12.2015
_cell_length_b 12.3678
_cell_length_c 13.5203
_cell_angle_alpha 102.222
_cell_angle_beta 98.704
_cell_angle_gamma 106.48
_space_group_name_H-M_alt 'P 1'
_space_group_name_Hall 'P 1'
loop_
    _symmetry_equiv_pos_as_xyz
    x,y,z
loop_
    _atom_site_label
    _atom_site_type_symbol
    _atom_site_fract_x
    _atom_site_fract_y
    _atom_site_fract_z
    _atom_site_occupancy
    Ce1      Ce       0.32514    0.48091    0.45396    1.000
    Ce2      Ce       0.67486    0.51909    0.54604    1.000
    H1       H        0.03750    0.35670    0.11180    1.000
    H2       H        0.20220    0.69990    0.20580    1.000
    H3       H        0.89410    0.27850    0.94410    1.000
    H4       H        0.58510    0.22950    0.54380    1.000
    H5       H        0.26100    0.05110    0.37890    1.000
    H6       H        0.71180    0.12210    0.60910    1.000
    H7       H        0.36680    0.46900    0.13420    1.000
    H8       H        0.71280    0.53110    0.20840    1.000
    H9       H        0.27410    0.46230    0.95550    1.000
    H10      H        0.96250    0.64330    0.88820    1.000
    H11      H        0.79780    0.30010    0.79420    1.000
    H12      H        0.10590    0.72150    0.05590    1.000
    H13      H        0.41490    0.77050    0.45620    1.000
    H14      H        0.73900    0.94890    0.62110    1.000
    H15      H        0.28820    0.87790    0.39090    1.000
    H16      H        0.63320    0.53100    0.86580    1.000
    H17      H        0.28720    0.46890    0.79160    1.000
    H18      H        0.72590    0.53770    0.04450    1.000
    C1       C        0.18850    0.50910    0.27180    1.000
    C2       C        0.99000    0.44290    0.00470    1.000
    C3       C        0.05160    0.43060    0.10060    1.000
    C4       C        0.12750    0.52330    0.17250    1.000
    C5       C        0.14860    0.63480    0.15630    1.000
    C6       C        0.91040    0.35260    0.93320    1.000
    C7       C        0.40220    0.26990    0.45270    1.000
    C8       C        0.54460    0.05230    0.52310    1.000
    C9       C        0.52550    0.15850    0.51320    1.000
    C10      C        0.42210    0.15720    0.46010    1.000
    C11      C        0.33260    0.05170    0.41470    1.000
    C12      C        0.65130    0.05180    0.57770    1.000
    C13      C        0.52750    0.49390    0.29730    1.000
    C14      C        0.44550    0.48860    0.01250    1.000
    C15      C        0.43880    0.48320    0.11560    1.000
    C16      C        0.53650    0.49840    0.18680    1.000
    C17      C        0.64570    0.52010    0.15920    1.000
    C18      C        0.34660    0.47500    0.93780    1.000
    C19      C        0.81150    0.49090    0.72820    1.000
    C20      C        0.01000    0.55710    0.99530    1.000
    C21      C        0.94840    0.56940    0.89940    1.000
    C22      C        0.87250    0.47670    0.82750    1.000
    C23      C        0.85140    0.36520    0.84370    1.000
    C24      C        0.08960    0.64740    0.06680    1.000
    C25      C        0.59780    0.73010    0.54730    1.000
    C26      C        0.45540    0.94770    0.47690    1.000
    C27      C        0.47450    0.84150    0.48680    1.000
    C28      C        0.57790    0.84280    0.53990    1.000
    C29      C        0.66740    0.94830    0.58530    1.000
    C30      C        0.34870    0.94820    0.42230    1.000
    C31      C        0.47250    0.50610    0.70270    1.000
    C32      C        0.55450    0.51140    0.98750    1.000
    C33      C        0.56120    0.51680    0.88440    1.000
    C34      C        0.46350    0.50160    0.81320    1.000
    C35      C        0.35430    0.47990    0.84080    1.000
    C36      C        0.65340    0.52500    0.06220    1.000
    O1       O        0.16590    0.40870    0.28750    1.000
    O2       O        0.26220    0.59880    0.33550    1.000
    O3       O        0.30190    0.26610    0.41430    1.000
    O4       O        0.48470    0.36370    0.48580    1.000
    O5       O        0.42620    0.46310    0.31220    1.000
    O6       O        0.62190    0.52070    0.36130    1.000
    O7       O        0.83410    0.59130    0.71250    1.000
    O8       O        0.73780    0.40120    0.66450    1.000
    O9       O        0.69810    0.73390    0.58570    1.000
    O10      O        0.51530    0.63630    0.51420    1.000
    O11      O        0.57380    0.53690    0.68780    1.000
    O12      O        0.37810    0.47930    0.63870    1.000
