data_functionalizedCrystal
_audit_creation_method	'EQeq! by Chris Wilmer'
_symmetry_space_group_name_H-M	'P1'
_symmetry_Int_Tables_number	1
_symmetry_cell_setting	triclinic
loop_
_symmetry_equiv_pos_as_xyz
  x,y,z
_cell_length_a	30.839
_cell_length_b	14.9128
_cell_length_c	34.344
_cell_angle_alpha	90
_cell_angle_beta	99.929
_cell_angle_gamma	90
loop_
_atom_site_label
_atom_site_type_symbol
_atom_site_fract_x
_atom_site_fract_y
_atom_site_fract_z
_atom_site_charge
Mof_Zn	Zn	0.24031	0.8832	0.58481	0.879
Mof_I 	I 	0.31496	0.9031	0.63004	-2.364
Mof_I 	I 	0.22117	0.981	0.52407	-9.046
Mof_Zn	Zn	0.90133	0.3553	0.66051	1.162
Mof_I 	I 	0.86686	0.391	0.72088	-0.299
Mof_N 	N 	0.0844	0.8853	0.7126	-0.115
Mof_N 	N 	0.0617	0.014	0.6736	-0.147
Mof_N 	N 	0.0216	0.967	0.7252	-0.15
Mof_N 	N 	0.1895	0.899	0.6168	-0.471
Mof_N 	N 	0.9473	0.251	0.6749	-0.26
Mof_N 	N 	0.045	0.738	0.8315	-0.543
Mof_C 	C 	0.0868	0.942	0.6823	0.116
Mof_C 	C 	0.0288	0.022	0.6968	0.031
Mof_C 	C 	0.0523	0.901	0.7324	0.079
Mof_C 	C 	0.1229	0.926	0.6591	0.195
Mof_C 	C 	0.1463	0.852	0.6613	-0.194
Mof_H 	H 	0.1391	0.8044	0.6775	0.158
Mof_C 	C 	0.1801	0.841	0.6416	0.181
Mof_H 	H 	0.1977	0.7885	0.6462	-0.079
Mof_C 	C 	0.165	0.972	0.6105	0.077
Mof_H 	H 	0.1698	0.0121	0.5902	-0.14
Mof_C 	C 	0.1311	0.992	0.6335	-0.155
Mof_H 	H 	0.1156	0.0477	0.631	0.078
Mof_C 	C 	0.0009	0.102	0.6882	-0.008
Mof_C 	C 	0.9991	0.152	0.6537	-0.142
Mof_H 	H 	0.0172	0.1361	0.635	0.004
Mof_C 	C 	0.9724	0.222	0.6468	0.024
Mof_H 	H 	0.9702	0.2537	0.6224	-0.048
Mof_C 	C 	0.9469	0.205	0.7081	0.049
Mof_H 	H 	0.9299	0.2239	0.7272	0.011
Mof_C 	C 	0.9733	0.126	0.7137	-0.092
Mof_H 	H 	0.9717	0.0888	0.7359	0.075
Mof_C 	C 	0.0486	0.843	0.7679	0.095
Mof_C 	C 	0.0076	0.824	0.7788	-0.147
Mof_H 	H 	0.9811	0.8466	0.7637	0.088
Mof_C 	C 	0.0069	0.772	0.8122	0.015
Mof_H 	H 	0.98	0.7612	0.8213	-0.189
Mof_C 	C 	0.0811	0.757	0.8211	0.192
Mof_H 	H 	0.1072	0.7361	0.8375	-0.091
Mof_C 	C 	0.0859	0.805	0.7874	-0.186
Mof_H 	H 	0.1134	0.811	0.7788	0.147
Mof_N 	N 	0.7373	0.064	0.5663	-0.13
Mof_N 	N 	0.715	0.195	0.5304	-0.111
Mof_N 	N 	0.6727	0.056	0.5151	-0.053
Mof_N 	N 	0.8529	0.291	0.623	-0.285
Mof_N 	N 	0.5881	0.275	0.4247	-0.42
Mof_N 	N 	0.714	0.737	0.5618	-0.381
Mof_C 	C 	0.7436	0.151	0.5603	0.091
Mof_C 	C 	0.6821	0.146	0.5127	0.18
Mof_C 	C 	0.7048	0.022	0.5448	0.216
Mof_C 	C 	0.7813	0.2	0.5835	0.051
Mof_C 	C 	0.8046	0.165	0.6158	-0.146
Mof_H 	H 	0.7976	0.1065	0.6235	0.129
Mof_C 	C 	0.8388	0.211	0.6389	0.043
Mof_H 	H 	0.8521	0.1893	0.6642	0.035
Mof_C 	C 	0.8274	0.321	0.5897	0.09
Mof_H 	H 	0.8346	0.3766	0.5791	-0.003
Mof_C 	C 	0.794	0.278	0.5716	-0.191
Mof_H 	H 	0.7776	0.3038	0.5484	0.106
Mof_C 	C 	0.6506	0.191	0.4815	0.101
Mof_C 	C 	0.6547	0.279	0.4712	-0.111
Mof_H 	H 	0.6786	0.3128	0.4848	0.107
Mof_C 	C 	0.6244	0.32	0.4409	0.047
Mof_H 	H 	0.6296	0.3787	0.4322	-0.074
Mof_C 	C 	0.5814	0.19	0.4327	0.172
Mof_H 	H 	0.5564	0.1599	0.4188	-0.084
Mof_C 	C 	0.6117	0.143	0.4626	-0.108
Mof_H 	H 	0.6064	0.0824	0.4695	0.112
Mof_C 	C 	0.7058	0.922	0.5505	0.192
Mof_C 	C 	0.6732	0.867	0.5316	-0.097
Mof_H 	H 	0.6472	0.8886	0.5152	0.145
Mof_C 	C 	0.6825	0.777	0.5389	0.22
Mof_H 	H 	0.6616	0.737	0.5244	-0.005
Mof_C 	C 	0.7389	0.791	0.5806	0.261
Mof_H 	H 	0.761	0.7659	0.6002	-0.074
Mof_C 	C 	0.7401	0.879	0.5781	-0.195
Mof_H 	H 	0.7626	0.9131	0.5939	0.141
Mof_I 	I 	0.93363	0.478	0.62302	-0.415
Mof_Zn	Zn	0.40916	0.1167	0.67295	1.178
Mof_I 	I 	0.45063	0.9976	0.64109	-0.429
Mof_I 	I 	0.37005	0.0842	0.73023	-0.313
Mof_N 	N 	0.5857	0.5942	0.719	-0.16
Mof_N 	N 	0.5628	0.465	0.6841	-0.316
Mof_N 	N 	0.529	0.505	0.7384	-0.149
Mof_N 	N 	0.6753	0.583	0.6085	-0.314
Mof_N 	N 	0.4561	0.218	0.6886	-0.27
Mof_N 	N 	0.5599	0.75	0.84	-0.338
Mof_C 	C 	0.5875	0.533	0.6897	-0.194
Mof_C 	C 	0.532	0.455	0.7081	-0.093
Mof_C 	C 	0.5601	0.576	0.7424	0.002
Mof_C 	C 	0.6196	0.555	0.6611	0.047
Mof_C 	C 	0.6487	0.625	0.6647	-0.035
Mof_H 	H 	0.6495	0.6672	0.6854	0.168
Mof_C 	C 	0.6757	0.632	0.639	0.285
Mof_H 	H 	0.6975	0.6775	0.6437	-0.014
Mof_C 	C 	0.6386	0.521	0.6005	0.215
Mof_H 	H 	0.6311	0.4952	0.575	-0.041
Mof_C 	C 	0.6146	0.5	0.6295	-0.234
Mof_H 	H 	0.5956	0.4492	0.6273	-0.106
Mof_C 	C 	0.5054	0.37	0.7028	0.035
Mof_C 	C 	0.5068	0.316	0.6683	-0.135
Mof_H 	H 	0.5244	0.3316	0.6492	-0.006
Mof_C 	C 	0.4806	0.24	0.665	0.104
Mof_H 	H 	0.4815	0.2018	0.6431	-0.026
Mof_C 	C 	0.4505	0.269	0.7205	0.037
Mof_H 	H 	0.4303	0.2519	0.7372	-0.002
Mof_C 	C 	0.4769	0.348	0.7276	-0.117
Mof_H 	H 	0.4745	0.3862	0.7494	0.078
Mof_C 	C 	0.5564	0.637	0.7751	0.044
Mof_C 	C 	0.5179	0.647	0.7937	-0.103
Mof_H 	H 	0.4921	0.6124	0.7853	0.079
Mof_C 	C 	0.5205	0.708	0.824	0.012
Mof_H 	H 	0.4946	0.7215	0.8344	0.01
Mof_C 	C 	0.5939	0.733	0.8243	0.105
Mof_H 	H 	0.6209	0.7583	0.8371	0.007
Mof_C 	C 	0.5954	0.682	0.7907	-0.127
Mof_H 	H 	0.6212	0.6784	0.779	0.107
Mof_N 	N 	0.2611	0.422	0.5735	-0.148
Mof_N 	N 	0.2359	0.295	0.5351	-0.115
Mof_N 	N 	0.1991	0.435	0.5227	-0.128
Mof_N 	N 	0.3669	0.184	0.6306	-0.283
Mof_N 	N 	0.1096	0.22	0.4281	-0.394
Mof_N 	N 	0.2364	0.748	0.572	-0.336
Mof_C 	C 	0.2603	0.338	0.5622	0.089
Mof_C 	C 	0.2025	0.348	0.5146	0.065
Mof_C 	C 	0.229	0.466	0.5498	0.116
Mof_C 	C 	0.2993	0.283	0.5856	0.156
Mof_C 	C 	0.3228	0.318	0.6152	-0.165
Mof_H 	H 	0.3158	0.3775	0.6221	0.04
Mof_C 	C 	0.3601	0.274	0.6396	0.061
Mof_H 	H 	0.3787	0.3041	0.6603	-0.053
Mof_C 	C 	0.3372	0.154	0.6004	0.206
Mof_H 	H 	0.3407	0.0931	0.594	0.047
Mof_C 	C 	0.3051	0.193	0.5787	-0.283
Mof_H 	H 	0.286	0.1616	0.5587	0.308
Mof_C 	C 	0.1699	0.302	0.4862	0.104
Mof_C 	C 	0.1739	0.209	0.4744	-0.312
Mof_H 	H 	0.1989	0.175	0.4857	0.166
Mof_C 	C 	0.1435	0.174	0.4484	0.164
Mof_H 	H 	0.1452	0.1111	0.4433	-0.233
Mof_C 	C 	0.104	0.305	0.4377	0.08
Mof_H 	H 	0.0781	0.3354	0.4258	-0.069
Mof_C 	C 	0.1336	0.348	0.4636	-0.175
Mof_H 	H 	0.1306	0.4111	0.467	0.102
Mof_C 	C 	0.2312	0.568	0.5568	0.085
Mof_C 	C 	0.1992	0.627	0.535	-0.16
Mof_H 	H 	0.1752	0.605	0.5163	0.079
Mof_C 	C 	0.2048	0.718	0.5424	0.126
Mof_H 	H 	0.1863	0.7604	0.5266	-0.228
Mof_C 	C 	0.2627	0.689	0.5952	0.083
Mof_H 	H 	0.2833	0.7098	0.6171	-0.019
Mof_C 	C 	0.2591	0.604	0.587	-0.133
Mof_H 	H 	0.2778	0.5635	0.6037	0.05
Mof_Zn	Zn	0.5392	0.3317	0.3842	-0.31
Mof_Zn	Zn	0.7266	0.6047	0.5801	0.983
Mof_I 	I 	0.5668	0.4903	0.3738	-4.907
Mof_I 	I 	0.4653	0.3121	0.4052	-30.318
Mof_I 	I 	0.7007	0.5131	0.5191	-0.77
Mof_I 	I 	0.803	0.5848	0.6222	0.119
Mof_I 	I 	0.49421	0.8684	0.90943	3.826
Mof_Zn	Zn	0.5655	0.8422	0.88415	0.714
Mof_I 	I 	0.60644	0.9755	0.8593	-3.012
Mof_I 	I 	0.546	0.8999	0.44304	0.175
Mof_I 	I 	0.5376	0.8072	0.50968	0.548
Mof_Zn	Zn	0.2131	0.884	0.5769	0.879
Mof_I 	I 	0.2881	0.912	0.6204	2.114
Mof_I 	I 	0.1928	0.97	0.5128	8.412
Mof_Zn	Zn	0.5559	0.3507	0.3759	0.714
Mof_I 	I 	0.5186	0.639	0.6038	28.051
Mof_Zn	Zn	0.7019	0.5996	0.5557	0.994
Mof_I 	I 	0.6623	0.5364	0.491	0.148
Mof_I 	I 	0.7795	0.5464	0.5855	-0.729
Mof_Zn	Zn	0.5429	0.834	0.887	0.548
Mof_I 	I 	0.7443	0.404	0.6421	-0.092
Mof_I 	I 	0.7165	0.2878	0.6933	-0.003
Mof_I 	I 	0.6856	0.2611	0.6401	-0.025
Mof_I 	I 	0.7617	0.328	0.6816	0.004
Mof_I 	I 	0.5081	0.9948	0.4768	-0.232
Mof_I 	I 	0.5488	0.838	0.4661	-0.403
Mof_I 	I 	0.5794	0.568	0.4439	0.014
Mof_I 	I 	0.561	0.5936	0.5176	1.21
Mof_I 	I 	0.581	0.593	0.4386	-0.037
Mof_I 	I 	0.5406	0.508	0.4925	-1.097
Mof_I 	I 	0.6002	0.869	0.6166	-3.447
Mof_I 	I 	0.6619	0.997	0.639	0.493
Mof_I 	I 	0.5521	0.8233	0.5972	9.113
Mof_I 	I 	0.5785	0.9959	0.5915	-0.11
Mof_I 	I 	0.5614	0.248	0.5592	0.111
Mof_I 	I 	0.6348	0.2438	0.6157	-0.022
Mof_I 	I 	0.5869	0.197	0.5738	-0.142
Mof_I 	I 	0.5698	0.3642	0.5441	-0.255
Mof_I 	I 	0.4679	0.85	0.9059	-4.533
Mof_I 	I 	0.4301	0.7027	0.8983	-0.893
Mof_I 	I 	0.3629	0.5836	0.8808	-0.03
Mof_I 	I 	0.4348	0.6707	0.9129	1.174
Mof_I 	I 	0.3892	0.5154	0.915	-0.23
Mof_I 	I 	0.594	0.4916	0.356	3.417
Mof_I 	I 	0.6194	0.4031	0.2162	0.011
Mof_I 	I 	0.5985	0.4516	0.2867	-0.777
Mof_I 	I 	0.5811	0.975	0.8646	2.361
Mof_Zn	Zn	0.25969	0.8832	0.91519	0.879
Mof_I 	I 	0.18504	0.9031	0.86996	-2.366
Mof_I 	I 	0.27883	0.981	0.97593	-9.025
Mof_Zn	Zn	0.59867	0.3553	0.83949	1.163
Mof_I 	I 	0.63314	0.391	0.77912	-0.298
Mof_N 	N 	0.4156	0.8853	0.7874	-0.113
Mof_N 	N 	0.4383	0.014	0.8264	-0.146
Mof_N 	N 	0.4784	0.967	0.7748	-0.152
Mof_N 	N 	0.3105	0.899	0.8832	-0.471
Mof_N 	N 	0.5527	0.251	0.8251	-0.26
Mof_N 	N 	0.455	0.738	0.6685	-0.543
Mof_C 	C 	0.4132	0.942	0.8177	0.115
Mof_C 	C 	0.4712	0.022	0.8032	0.031
Mof_C 	C 	0.4477	0.901	0.7676	0.078
Mof_C 	C 	0.3771	0.926	0.8409	0.196
Mof_C 	C 	0.3537	0.852	0.8387	-0.195
Mof_H 	H 	0.3609	0.8044	0.8225	0.158
Mof_C 	C 	0.3199	0.841	0.8584	0.182
Mof_H 	H 	0.3023	0.7885	0.8538	-0.079
Mof_C 	C 	0.335	0.972	0.8895	0.078
Mof_H 	H 	0.3302	0.0121	0.9098	-0.14
Mof_C 	C 	0.3689	0.992	0.8665	-0.156
Mof_H 	H 	0.3844	0.0477	0.869	0.078
Mof_C 	C 	0.4991	0.102	0.8118	-0.008
Mof_C 	C 	0.5009	0.152	0.8463	-0.144
Mof_H 	H 	0.4828	0.1361	0.865	0.004
Mof_C 	C 	0.5276	0.222	0.8532	0.025
Mof_H 	H 	0.5298	0.2537	0.8776	-0.049
Mof_C 	C 	0.5531	0.205	0.7919	0.05
Mof_H 	H 	0.5701	0.2239	0.7728	0.011
Mof_C 	C 	0.5267	0.126	0.7863	-0.092
Mof_H 	H 	0.5283	0.0888	0.7641	0.075
Mof_C 	C 	0.4514	0.843	0.7321	0.096
Mof_C 	C 	0.4924	0.824	0.7212	-0.151
Mof_H 	H 	0.5189	0.8466	0.7363	0.09
Mof_C 	C 	0.4931	0.772	0.6878	0.012
Mof_H 	H 	0.52	0.7612	0.6787	-0.186
Mof_C 	C 	0.4189	0.757	0.6789	0.192
Mof_H 	H 	0.3928	0.7361	0.6625	-0.091
Mof_C 	C 	0.4141	0.805	0.7126	-0.186
Mof_H 	H 	0.3866	0.811	0.7212	0.147
Mof_N 	N 	0.7627	0.064	0.9337	-0.13
Mof_N 	N 	0.785	0.195	0.9696	-0.111
Mof_N 	N 	0.8273	0.056	0.9849	-0.053
Mof_N 	N 	0.6471	0.291	0.877	-0.285
Mof_N 	N 	0.9119	0.275	0.0753	-0.42
Mof_N 	N 	0.786	0.737	0.9382	-0.381
Mof_C 	C 	0.7564	0.151	0.9397	0.091
Mof_C 	C 	0.8179	0.146	0.9873	0.178
Mof_C 	C 	0.7952	0.022	0.9552	0.216
Mof_C 	C 	0.7187	0.2	0.9165	0.051
Mof_C 	C 	0.6954	0.165	0.8842	-0.146
Mof_H 	H 	0.7024	0.1065	0.8765	0.129
Mof_C 	C 	0.6612	0.211	0.8611	0.043
Mof_H 	H 	0.6479	0.1893	0.8358	0.035
Mof_C 	C 	0.6726	0.321	0.9103	0.09
Mof_H 	H 	0.6654	0.3766	0.9209	-0.003
Mof_C 	C 	0.706	0.278	0.9284	-0.191
Mof_H 	H 	0.7224	0.3038	0.9516	0.106
Mof_C 	C 	0.8494	0.191	0.0185	0.103
Mof_C 	C 	0.8453	0.279	0.0288	-0.112
Mof_H 	H 	0.8214	0.3128	0.0152	0.108
Mof_C 	C 	0.8756	0.32	0.0591	0.048
Mof_H 	H 	0.8704	0.3787	0.0678	-0.075
Mof_C 	C 	0.9186	0.19	0.0673	0.173
Mof_H 	H 	0.9436	0.1599	0.0812	-0.083
Mof_C 	C 	0.8883	0.143	0.0374	-0.109
Mof_H 	H 	0.8936	0.0824	0.0305	0.113
Mof_C 	C 	0.7942	0.922	0.9495	0.192
Mof_C 	C 	0.8268	0.867	0.9684	-0.096
Mof_H 	H 	0.8528	0.8886	0.9848	0.144
Mof_C 	C 	0.8175	0.777	0.9611	0.22
Mof_H 	H 	0.8384	0.737	0.9756	-0.005
Mof_C 	C 	0.7611	0.791	0.9194	0.261
Mof_H 	H 	0.739	0.7659	0.8998	-0.073
Mof_C 	C 	0.7599	0.879	0.9219	-0.195
Mof_H 	H 	0.7374	0.9131	0.9061	0.141
Mof_I 	I 	0.56637	0.478	0.87698	-0.415
Mof_Zn	Zn	0.09084	0.1167	0.82705	1.178
Mof_I 	I 	0.04937	0.9976	0.85891	-0.426
Mof_I 	I 	0.12995	0.0842	0.76977	-0.313
Mof_N 	N 	0.9143	0.5942	0.781	-0.16
Mof_N 	N 	0.9372	0.465	0.8159	-0.316
Mof_N 	N 	0.971	0.505	0.7616	-0.149
Mof_N 	N 	0.8247	0.583	0.8915	-0.314
Mof_N 	N 	0.0439	0.218	0.8114	-0.27
Mof_N 	N 	0.9401	0.75	0.66	-0.338
Mof_C 	C 	0.9125	0.533	0.8103	-0.195
Mof_C 	C 	0.968	0.455	0.7919	-0.093
Mof_C 	C 	0.9399	0.576	0.7576	0.002
Mof_C 	C 	0.8804	0.555	0.8389	0.047
Mof_C 	C 	0.8513	0.625	0.8353	-0.035
Mof_H 	H 	0.8505	0.6672	0.8146	0.168
Mof_C 	C 	0.8243	0.632	0.861	0.285
Mof_H 	H 	0.8025	0.6775	0.8563	-0.014
Mof_C 	C 	0.8614	0.521	0.8995	0.216
Mof_H 	H 	0.8689	0.4952	0.925	-0.041
Mof_C 	C 	0.8854	0.5	0.8705	-0.235
Mof_H 	H 	0.9044	0.4492	0.8727	-0.106
Mof_C 	C 	0.9946	0.37	0.7972	0.034
Mof_C 	C 	0.9932	0.316	0.8317	-0.135
Mof_H 	H 	0.9756	0.3316	0.8508	-0.006
Mof_C 	C 	0.0194	0.24	0.835	0.105
Mof_H 	H 	0.0185	0.2018	0.8569	-0.026
Mof_C 	C 	0.0495	0.269	0.7795	0.037
Mof_H 	H 	0.0697	0.2519	0.7628	-0.002
Mof_C 	C 	0.0231	0.348	0.7724	-0.116
Mof_H 	H 	0.0255	0.3862	0.7506	0.078
Mof_C 	C 	0.9436	0.637	0.7249	0.044
Mof_C 	C 	0.9821	0.647	0.7063	-0.104
Mof_H 	H 	0.0079	0.6124	0.7147	0.081
Mof_C 	C 	0.9795	0.708	0.676	0.011
Mof_H 	H 	0.0054	0.7215	0.6656	0.011
Mof_C 	C 	0.9061	0.733	0.6757	0.105
Mof_H 	H 	0.8791	0.7583	0.6629	0.007
Mof_C 	C 	0.9046	0.682	0.7093	-0.127
Mof_H 	H 	0.8788	0.6784	0.721	0.107
Mof_N 	N 	0.2389	0.422	0.9265	-0.148
Mof_N 	N 	0.2641	0.295	0.9649	-0.115
Mof_N 	N 	0.3009	0.435	0.9773	-0.128
Mof_N 	N 	0.1331	0.184	0.8694	-0.283
Mof_N 	N 	0.3904	0.22	0.0719	-0.394
Mof_N 	N 	0.2636	0.748	0.928	-0.336
Mof_C 	C 	0.2397	0.338	0.9378	0.089
Mof_C 	C 	0.2975	0.348	0.9854	0.066
Mof_C 	C 	0.271	0.466	0.9502	0.117
Mof_C 	C 	0.2007	0.283	0.9144	0.156
Mof_C 	C 	0.1772	0.318	0.8848	-0.165
Mof_H 	H 	0.1842	0.3775	0.8779	0.04
Mof_C 	C 	0.1399	0.274	0.8604	0.061
Mof_H 	H 	0.1213	0.3041	0.8397	-0.053
Mof_C 	C 	0.1628	0.154	0.8996	0.206
Mof_H 	H 	0.1593	0.0931	0.906	0.047
Mof_C 	C 	0.1949	0.193	0.9213	-0.283
Mof_H 	H 	0.214	0.1616	0.9413	0.307
Mof_C 	C 	0.3301	0.302	0.0138	0.103
Mof_C 	C 	0.3261	0.209	0.0256	-0.311
Mof_H 	H 	0.3011	0.175	0.0143	0.165
Mof_C 	C 	0.3565	0.174	0.0516	0.163
Mof_H 	H 	0.3548	0.1111	0.0567	-0.233
Mof_C 	C 	0.396	0.305	0.0623	0.08
Mof_H 	H 	0.4219	0.3354	0.0742	-0.069
Mof_C 	C 	0.3664	0.348	0.0364	-0.174
Mof_H 	H 	0.3694	0.4111	0.033	0.101
Mof_C 	C 	0.2688	0.568	0.9432	0.086
Mof_C 	C 	0.3008	0.627	0.965	-0.16
Mof_H 	H 	0.3248	0.605	0.9837	0.079
Mof_C 	C 	0.2952	0.718	0.9576	0.126
Mof_H 	H 	0.3137	0.7604	0.9734	-0.227
Mof_C 	C 	0.2373	0.689	0.9048	0.083
Mof_H 	H 	0.2167	0.7098	0.8829	-0.019
Mof_C 	C 	0.2409	0.604	0.913	-0.133
Mof_H 	H 	0.2222	0.5635	0.8963	0.05
Mof_Zn	Zn	0.9608	0.3317	0.1158	-0.312
Mof_Zn	Zn	0.7734	0.6047	0.9199	0.983
Mof_I 	I 	0.9332	0.4903	0.1262	-4.913
Mof_I 	I 	0.0347	0.3121	0.0948	-30.388
Mof_I 	I 	0.7993	0.5131	0.9809	-0.775
Mof_I 	I 	0.697	0.5848	0.8778	0.119
Mof_I 	I 	0.00579	0.8684	0.59057	3.808
Mof_Zn	Zn	0.9345	0.8422	0.61585	0.714
Mof_I 	I 	0.89356	0.9755	0.6407	-3.009
Mof_I 	I 	0.954	0.8999	0.05696	0.166
Mof_I 	I 	0.9624	0.8072	0.99032	0.541
Mof_Zn	Zn	0.2869	0.884	0.9231	0.879
Mof_I 	I 	0.2119	0.912	0.8796	2.116
Mof_I 	I 	0.3072	0.97	0.9872	8.392
Mof_Zn	Zn	0.9441	0.3507	0.1241	0.714
Mof_I 	I 	0.9814	0.639	0.8962	28.116
Mof_Zn	Zn	0.7981	0.5996	0.9443	0.994
Mof_I 	I 	0.8377	0.5364	0.009	0.153
Mof_I 	I 	0.7205	0.5464	0.9145	-0.728
Mof_Zn	Zn	0.9571	0.834	0.613	0.549
Mof_I 	I 	0.7557	0.404	0.8579	-0.092
Mof_I 	I 	0.7835	0.2878	0.8067	-0.003
Mof_I 	I 	0.8144	0.2611	0.8599	-0.025
Mof_I 	I 	0.7383	0.328	0.8184	0.004
Mof_I 	I 	0.9919	0.9948	0.0232	-0.229
Mof_I 	I 	0.9512	0.838	0.0339	-0.389
Mof_I 	I 	0.9206	0.568	0.0561	0.015
Mof_I 	I 	0.939	0.5936	0.9824	1.208
Mof_I 	I 	0.919	0.593	0.0614	-0.037
Mof_I 	I 	0.9594	0.508	0.0075	-1.093
Mof_I 	I 	0.8998	0.869	0.8834	-3.455
Mof_I 	I 	0.8381	0.997	0.861	0.494
Mof_I 	I 	0.9479	0.8233	0.9028	9.134
Mof_I 	I 	0.9215	0.9959	0.9085	-0.112
Mof_I 	I 	0.9386	0.248	0.9408	0.113
Mof_I 	I 	0.8652	0.2438	0.8843	-0.021
Mof_I 	I 	0.9131	0.197	0.9262	-0.144
Mof_I 	I 	0.9302	0.3642	0.9559	-0.258
Mof_I 	I 	0.0321	0.85	0.5941	-4.511
Mof_I 	I 	0.0699	0.7027	0.6017	-0.888
Mof_I 	I 	0.1371	0.5836	0.6192	-0.03
Mof_I 	I 	0.0652	0.6707	0.5871	1.167
Mof_I 	I 	0.1108	0.5154	0.585	-0.229
Mof_I 	I 	0.906	0.4916	0.144	3.421
Mof_I 	I 	0.8806	0.4031	0.2838	0.011
Mof_I 	I 	0.9015	0.4516	0.2133	-0.777
Mof_I 	I 	0.9189	0.975	0.6354	2.358
Mof_Zn	Zn	0.75969	0.1168	0.41519	0.88
Mof_I 	I 	0.68504	0.0969	0.36996	-2.363
Mof_I 	I 	0.77883	0.019	0.47593	-9.045
Mof_Zn	Zn	0.09867	0.6447	0.33949	1.163
Mof_I 	I 	0.13314	0.609	0.27912	-0.298
Mof_N 	N 	0.9156	0.1147	0.2874	-0.114
Mof_N 	N 	0.9383	0.986	0.3264	-0.147
Mof_N 	N 	0.9784	0.033	0.2748	-0.15
Mof_N 	N 	0.8105	0.101	0.3832	-0.471
Mof_N 	N 	0.0527	0.749	0.3251	-0.26
Mof_N 	N 	0.955	0.262	0.1685	-0.543
Mof_C 	C 	0.9132	0.058	0.3177	0.116
Mof_C 	C 	0.9712	0.978	0.3032	0.031
Mof_C 	C 	0.9477	0.099	0.2676	0.079
Mof_C 	C 	0.8771	0.074	0.3409	0.195
Mof_C 	C 	0.8537	0.148	0.3387	-0.194
Mof_H 	H 	0.8609	0.1956	0.3225	0.158
Mof_C 	C 	0.8199	0.159	0.3584	0.181
Mof_H 	H 	0.8023	0.2115	0.3538	-0.079
Mof_C 	C 	0.835	0.028	0.3895	0.077
Mof_H 	H 	0.8302	0.9879	0.4098	-0.14
Mof_C 	C 	0.8689	0.008	0.3665	-0.155
Mof_H 	H 	0.8844	0.9523	0.369	0.078
Mof_C 	C 	0.9991	0.898	0.3118	-0.008
Mof_C 	C 	0.0009	0.848	0.3463	-0.142
Mof_H 	H 	0.9828	0.8639	0.365	0.004
Mof_C 	C 	0.0276	0.778	0.3532	0.024
Mof_H 	H 	0.0298	0.7463	0.3776	-0.048
Mof_C 	C 	0.0531	0.795	0.2919	0.049
Mof_H 	H 	0.0701	0.7761	0.2728	0.011
Mof_C 	C 	0.0267	0.874	0.2863	-0.092
Mof_H 	H 	0.0283	0.9112	0.2641	0.075
Mof_C 	C 	0.9514	0.157	0.2321	0.095
Mof_C 	C 	0.9924	0.176	0.2212	-0.147
Mof_H 	H 	0.0189	0.1534	0.2363	0.088
Mof_C 	C 	0.9931	0.228	0.1878	0.015
Mof_H 	H 	0.02	0.2388	0.1787	-0.189
Mof_C 	C 	0.9189	0.243	0.1789	0.192
Mof_H 	H 	0.8928	0.2639	0.1625	-0.091
Mof_C 	C 	0.9141	0.195	0.2126	-0.186
Mof_H 	H 	0.8866	0.189	0.2212	0.147
Mof_N 	N 	0.2627	0.936	0.4337	-0.13
Mof_N 	N 	0.285	0.805	0.4696	-0.111
Mof_N 	N 	0.3273	0.944	0.4849	-0.053
Mof_N 	N 	0.1471	0.709	0.377	-0.285
Mof_N 	N 	0.4119	0.725	0.5753	-0.42
Mof_N 	N 	0.286	0.263	0.4382	-0.381
Mof_C 	C 	0.2564	0.849	0.4397	0.091
Mof_C 	C 	0.3179	0.854	0.4873	0.18
Mof_C 	C 	0.2952	0.978	0.4552	0.216
Mof_C 	C 	0.2187	0.8	0.4165	0.051
Mof_C 	C 	0.1954	0.835	0.3842	-0.146
Mof_H 	H 	0.2024	0.8935	0.3765	0.129
Mof_C 	C 	0.1612	0.789	0.3611	0.043
Mof_H 	H 	0.1479	0.8107	0.3358	0.035
Mof_C 	C 	0.1726	0.679	0.4103	0.09
Mof_H 	H 	0.1654	0.6234	0.4209	-0.003
Mof_C 	C 	0.206	0.722	0.4284	-0.191
Mof_H 	H 	0.2224	0.6962	0.4516	0.106
Mof_C 	C 	0.3494	0.809	0.5185	0.101
Mof_C 	C 	0.3453	0.721	0.5288	-0.111
Mof_H 	H 	0.3214	0.6872	0.5152	0.107
Mof_C 	C 	0.3756	0.68	0.5591	0.047
Mof_H 	H 	0.3704	0.6213	0.5678	-0.074
Mof_C 	C 	0.4186	0.81	0.5673	0.172
Mof_H 	H 	0.4436	0.8401	0.5812	-0.084
Mof_C 	C 	0.3883	0.857	0.5374	-0.108
Mof_H 	H 	0.3936	0.9176	0.5305	0.112
Mof_C 	C 	0.2942	0.078	0.4495	0.192
Mof_C 	C 	0.3268	0.133	0.4684	-0.097
Mof_H 	H 	0.3528	0.1114	0.4848	0.145
Mof_C 	C 	0.3175	0.223	0.4611	0.22
Mof_H 	H 	0.3384	0.263	0.4756	-0.005
Mof_C 	C 	0.2611	0.209	0.4194	0.261
Mof_H 	H 	0.239	0.2341	0.3998	-0.074
Mof_C 	C 	0.2599	0.121	0.4219	-0.195
Mof_H 	H 	0.2374	0.0869	0.4061	0.141
Mof_I 	I 	0.06637	0.522	0.37698	-0.415
Mof_Zn	Zn	0.59084	0.8833	0.32705	1.178
Mof_I 	I 	0.54937	0.0024	0.35891	-0.429
Mof_I 	I 	0.62995	0.9158	0.26977	-0.313
Mof_N 	N 	0.4143	0.4058	0.281	-0.16
Mof_N 	N 	0.4372	0.535	0.3159	-0.316
Mof_N 	N 	0.471	0.495	0.2616	-0.149
Mof_N 	N 	0.3247	0.417	0.3915	-0.314
Mof_N 	N 	0.5439	0.782	0.3114	-0.27
Mof_N 	N 	0.4401	0.25	0.16	-0.338
Mof_C 	C 	0.4125	0.467	0.3103	-0.194
Mof_C 	C 	0.468	0.545	0.2919	-0.093
Mof_C 	C 	0.4399	0.424	0.2576	0.002
Mof_C 	C 	0.3804	0.445	0.3389	0.047
Mof_C 	C 	0.3513	0.375	0.3353	-0.035
Mof_H 	H 	0.3505	0.3328	0.3146	0.168
Mof_C 	C 	0.3243	0.368	0.361	0.285
Mof_H 	H 	0.3025	0.3225	0.3563	-0.014
Mof_C 	C 	0.3614	0.479	0.3995	0.215
Mof_H 	H 	0.3689	0.5048	0.425	-0.041
Mof_C 	C 	0.3854	0.5	0.3705	-0.234
Mof_H 	H 	0.4044	0.5508	0.3727	-0.106
Mof_C 	C 	0.4946	0.63	0.2972	0.035
Mof_C 	C 	0.4932	0.684	0.3317	-0.135
Mof_H 	H 	0.4756	0.6684	0.3508	-0.006
Mof_C 	C 	0.5194	0.76	0.335	0.104
Mof_H 	H 	0.5185	0.7982	0.3569	-0.026
Mof_C 	C 	0.5495	0.731	0.2795	0.037
Mof_H 	H 	0.5697	0.7481	0.2628	-0.002
Mof_C 	C 	0.5231	0.652	0.2724	-0.117
Mof_H 	H 	0.5255	0.6138	0.2506	0.078
Mof_C 	C 	0.4436	0.363	0.2249	0.044
Mof_C 	C 	0.4821	0.353	0.2063	-0.103
Mof_H 	H 	0.5079	0.3876	0.2147	0.079
Mof_C 	C 	0.4795	0.292	0.176	0.012
Mof_H 	H 	0.5054	0.2785	0.1656	0.01
Mof_C 	C 	0.4061	0.267	0.1757	0.105
Mof_H 	H 	0.3791	0.2417	0.1629	0.007
Mof_C 	C 	0.4046	0.318	0.2093	-0.127
Mof_H 	H 	0.3788	0.3216	0.221	0.107
Mof_N 	N 	0.7389	0.578	0.4265	-0.148
Mof_N 	N 	0.7641	0.705	0.4649	-0.115
Mof_N 	N 	0.8009	0.565	0.4773	-0.128
Mof_N 	N 	0.6331	0.816	0.3694	-0.283
Mof_N 	N 	0.8904	0.78	0.5719	-0.394
Mof_N 	N 	0.7636	0.252	0.428	-0.336
Mof_C 	C 	0.7397	0.662	0.4378	0.089
Mof_C 	C 	0.7975	0.652	0.4854	0.065
Mof_C 	C 	0.771	0.534	0.4502	0.116
Mof_C 	C 	0.7007	0.717	0.4144	0.156
Mof_C 	C 	0.6772	0.682	0.3848	-0.165
Mof_H 	H 	0.6842	0.6225	0.3779	0.04
Mof_C 	C 	0.6399	0.726	0.3604	0.061
Mof_H 	H 	0.6213	0.6959	0.3397	-0.053
Mof_C 	C 	0.6628	0.846	0.3996	0.206
Mof_H 	H 	0.6593	0.9069	0.406	0.047
Mof_C 	C 	0.6949	0.807	0.4213	-0.283
Mof_H 	H 	0.714	0.8384	0.4413	0.308
Mof_C 	C 	0.8301	0.698	0.5138	0.104
Mof_C 	C 	0.8261	0.791	0.5256	-0.312
Mof_H 	H 	0.8011	0.825	0.5143	0.166
Mof_C 	C 	0.8565	0.826	0.5516	0.164
Mof_H 	H 	0.8548	0.8889	0.5567	-0.233
Mof_C 	C 	0.896	0.695	0.5623	0.08
Mof_H 	H 	0.9219	0.6646	0.5742	-0.069
Mof_C 	C 	0.8664	0.652	0.5364	-0.175
Mof_H 	H 	0.8694	0.5889	0.533	0.102
Mof_C 	C 	0.7688	0.432	0.4432	0.085
Mof_C 	C 	0.8008	0.373	0.465	-0.16
Mof_H 	H 	0.8248	0.395	0.4837	0.079
Mof_C 	C 	0.7952	0.282	0.4576	0.126
Mof_H 	H 	0.8137	0.2396	0.4734	-0.228
Mof_C 	C 	0.7373	0.311	0.4048	0.083
Mof_H 	H 	0.7167	0.2902	0.3829	-0.019
Mof_C 	C 	0.7409	0.396	0.413	-0.133
Mof_H 	H 	0.7222	0.4365	0.3963	0.05
Mof_Zn	Zn	0.4608	0.6683	0.6158	-0.31
Mof_Zn	Zn	0.2734	0.3953	0.4199	0.983
Mof_I 	I 	0.4332	0.5097	0.6262	-4.907
Mof_I 	I 	0.5347	0.6879	0.5948	-30.318
Mof_I 	I 	0.2993	0.4869	0.4809	-0.77
Mof_I 	I 	0.197	0.4152	0.3778	0.119
Mof_I 	I 	0.50579	0.1316	0.09057	3.826
Mof_Zn	Zn	0.4345	0.1578	0.11585	0.714
Mof_I 	I 	0.39356	0.0245	0.1407	-3.012
Mof_I 	I 	0.454	0.1001	0.55696	0.175
Mof_I 	I 	0.4624	0.1928	0.49032	0.548
Mof_Zn	Zn	0.7869	0.116	0.4231	0.879
Mof_I 	I 	0.7119	0.088	0.3796	2.114
Mof_I 	I 	0.8072	0.03	0.4872	8.412
Mof_Zn	Zn	0.4441	0.6493	0.6241	0.714
Mof_I 	I 	0.4814	0.361	0.3962	28.051
Mof_Zn	Zn	0.2981	0.4004	0.4443	0.994
Mof_I 	I 	0.3377	0.4636	0.509	0.148
Mof_I 	I 	0.2205	0.4536	0.4145	-0.729
Mof_Zn	Zn	0.4571	0.166	0.113	0.548
Mof_I 	I 	0.2557	0.596	0.3579	-0.092
Mof_I 	I 	0.2835	0.7122	0.3067	-0.003
Mof_I 	I 	0.3144	0.7389	0.3599	-0.025
Mof_I 	I 	0.2383	0.672	0.3184	0.004
Mof_I 	I 	0.4919	0.0052	0.5232	-0.232
Mof_I 	I 	0.4512	0.162	0.5339	-0.403
Mof_I 	I 	0.4206	0.432	0.5561	0.014
Mof_I 	I 	0.439	0.4064	0.4824	1.21
Mof_I 	I 	0.419	0.407	0.5614	-0.037
Mof_I 	I 	0.4594	0.492	0.5075	-1.097
Mof_I 	I 	0.3998	0.131	0.3834	-3.447
Mof_I 	I 	0.3381	0.003	0.361	0.493
Mof_I 	I 	0.4479	0.1767	0.4028	9.113
Mof_I 	I 	0.4215	0.0041	0.4085	-0.11
Mof_I 	I 	0.4386	0.752	0.4408	0.111
Mof_I 	I 	0.3652	0.7562	0.3843	-0.022
Mof_I 	I 	0.4131	0.803	0.4262	-0.142
Mof_I 	I 	0.4302	0.6358	0.4559	-0.255
Mof_I 	I 	0.5321	0.15	0.0941	-4.533
Mof_I 	I 	0.5699	0.2973	0.1017	-0.893
Mof_I 	I 	0.6371	0.4164	0.1192	-0.03
Mof_I 	I 	0.5652	0.3293	0.0871	1.174
Mof_I 	I 	0.6108	0.4846	0.085	-0.23
Mof_I 	I 	0.406	0.5084	0.644	3.417
Mof_I 	I 	0.3806	0.5969	0.7838	0.011
Mof_I 	I 	0.4015	0.5484	0.7133	-0.777
Mof_I 	I 	0.4189	0.025	0.1354	2.361
Mof_Zn	Zn	0.74031	0.1168	0.08481	0.879
Mof_I 	I 	0.81496	0.0969	0.13004	-2.366
Mof_I 	I 	0.72117	0.019	0.02407	-9.025
Mof_Zn	Zn	0.40133	0.6447	0.16051	1.163
Mof_I 	I 	0.36686	0.609	0.22088	-0.298
Mof_N 	N 	0.5844	0.1147	0.2126	-0.113
Mof_N 	N 	0.5617	0.986	0.1736	-0.146
Mof_N 	N 	0.5216	0.033	0.2252	-0.152
Mof_N 	N 	0.6895	0.101	0.1168	-0.471
Mof_N 	N 	0.4473	0.749	0.1749	-0.26
Mof_N 	N 	0.545	0.262	0.3315	-0.543
Mof_C 	C 	0.5868	0.058	0.1823	0.115
Mof_C 	C 	0.5288	0.978	0.1968	0.031
Mof_C 	C 	0.5523	0.099	0.2324	0.078
Mof_C 	C 	0.6229	0.074	0.1591	0.196
Mof_C 	C 	0.6463	0.148	0.1613	-0.195
Mof_H 	H 	0.6391	0.1956	0.1775	0.158
Mof_C 	C 	0.6801	0.159	0.1416	0.182
Mof_H 	H 	0.6977	0.2115	0.1462	-0.079
Mof_C 	C 	0.665	0.028	0.1105	0.078
Mof_H 	H 	0.6698	0.9879	0.0902	-0.14
Mof_C 	C 	0.6311	0.008	0.1335	-0.156
Mof_H 	H 	0.6156	0.9523	0.131	0.078
Mof_C 	C 	0.5009	0.898	0.1882	-0.008
Mof_C 	C 	0.4991	0.848	0.1537	-0.144
Mof_H 	H 	0.5172	0.8639	0.135	0.004
Mof_C 	C 	0.4724	0.778	0.1468	0.025
Mof_H 	H 	0.4702	0.7463	0.1224	-0.049
Mof_C 	C 	0.4469	0.795	0.2081	0.05
Mof_H 	H 	0.4299	0.7761	0.2272	0.011
Mof_C 	C 	0.4733	0.874	0.2137	-0.092
Mof_H 	H 	0.4717	0.9112	0.2359	0.075
Mof_C 	C 	0.5486	0.157	0.2679	0.096
Mof_C 	C 	0.5076	0.176	0.2788	-0.151
Mof_H 	H 	0.4811	0.1534	0.2637	0.09
Mof_C 	C 	0.5069	0.228	0.3122	0.012
Mof_H 	H 	0.48	0.2388	0.3213	-0.186
Mof_C 	C 	0.5811	0.243	0.3211	0.192
Mof_H 	H 	0.6072	0.2639	0.3375	-0.091
Mof_C 	C 	0.5859	0.195	0.2874	-0.186
Mof_H 	H 	0.6134	0.189	0.2788	0.147
Mof_N 	N 	0.2373	0.936	0.0663	-0.13
Mof_N 	N 	0.215	0.805	0.0304	-0.111
Mof_N 	N 	0.1727	0.944	0.0151	-0.053
Mof_N 	N 	0.3529	0.709	0.123	-0.285
Mof_N 	N 	0.0881	0.725	0.9247	-0.42
Mof_N 	N 	0.214	0.263	0.0618	-0.381
Mof_C 	C 	0.2436	0.849	0.0603	0.091
Mof_C 	C 	0.1821	0.854	0.0127	0.178
Mof_C 	C 	0.2048	0.978	0.0448	0.216
Mof_C 	C 	0.2813	0.8	0.0835	0.051
Mof_C 	C 	0.3046	0.835	0.1158	-0.146
Mof_H 	H 	0.2976	0.8935	0.1235	0.129
Mof_C 	C 	0.3388	0.789	0.1389	0.043
Mof_H 	H 	0.3521	0.8107	0.1642	0.035
Mof_C 	C 	0.3274	0.679	0.0897	0.09
Mof_H 	H 	0.3346	0.6234	0.0791	-0.003
Mof_C 	C 	0.294	0.722	0.0716	-0.191
Mof_H 	H 	0.2776	0.6962	0.0484	0.106
Mof_C 	C 	0.1506	0.809	0.9815	0.103
Mof_C 	C 	0.1547	0.721	0.9712	-0.112
Mof_H 	H 	0.1786	0.6872	0.9848	0.108
Mof_C 	C 	0.1244	0.68	0.9409	0.048
Mof_H 	H 	0.1296	0.6213	0.9322	-0.075
Mof_C 	C 	0.0814	0.81	0.9327	0.173
Mof_H 	H 	0.0564	0.8401	0.9188	-0.083
Mof_C 	C 	0.1117	0.857	0.9626	-0.109
Mof_H 	H 	0.1064	0.9176	0.9695	0.113
Mof_C 	C 	0.2058	0.078	0.0505	0.192
Mof_C 	C 	0.1732	0.133	0.0316	-0.096
Mof_H 	H 	0.1472	0.1114	0.0152	0.144
Mof_C 	C 	0.1825	0.223	0.0389	0.22
Mof_H 	H 	0.1616	0.263	0.0244	-0.005
Mof_C 	C 	0.2389	0.209	0.0806	0.261
Mof_H 	H 	0.261	0.2341	0.1002	-0.073
Mof_C 	C 	0.2401	0.121	0.0781	-0.195
Mof_H 	H 	0.2626	0.0869	0.0939	0.141
Mof_I 	I 	0.43363	0.522	0.12302	-0.415
Mof_Zn	Zn	0.90916	0.8833	0.17295	1.178
Mof_I 	I 	0.95063	0.0024	0.14109	-0.426
Mof_I 	I 	0.87005	0.9158	0.23023	-0.313
Mof_N 	N 	0.0857	0.4058	0.219	-0.16
Mof_N 	N 	0.0628	0.535	0.1841	-0.316
Mof_N 	N 	0.029	0.495	0.2384	-0.149
Mof_N 	N 	0.1753	0.417	0.1085	-0.314
Mof_N 	N 	0.9561	0.782	0.1886	-0.27
Mof_N 	N 	0.0599	0.25	0.34	-0.338
Mof_C 	C 	0.0875	0.467	0.1897	-0.195
Mof_C 	C 	0.032	0.545	0.2081	-0.093
Mof_C 	C 	0.0601	0.424	0.2424	0.002
Mof_C 	C 	0.1196	0.445	0.1611	0.047
Mof_C 	C 	0.1487	0.375	0.1647	-0.035
Mof_H 	H 	0.1495	0.3328	0.1854	0.168
Mof_C 	C 	0.1757	0.368	0.139	0.285
Mof_H 	H 	0.1975	0.3225	0.1437	-0.014
Mof_C 	C 	0.1386	0.479	0.1005	0.216
Mof_H 	H 	0.1311	0.5048	0.075	-0.041
Mof_C 	C 	0.1146	0.5	0.1295	-0.235
Mof_H 	H 	0.0956	0.5508	0.1273	-0.106
Mof_C 	C 	0.0054	0.63	0.2028	0.034
Mof_C 	C 	0.0068	0.684	0.1683	-0.135
Mof_H 	H 	0.0244	0.6684	0.1492	-0.006
Mof_C 	C 	0.9806	0.76	0.165	0.105
Mof_H 	H 	0.9815	0.7982	0.1431	-0.026
Mof_C 	C 	0.9505	0.731	0.2205	0.037
Mof_H 	H 	0.9303	0.7481	0.2372	-0.002
Mof_C 	C 	0.9769	0.652	0.2276	-0.116
Mof_H 	H 	0.9745	0.6138	0.2494	0.078
Mof_C 	C 	0.0564	0.363	0.2751	0.044
Mof_C 	C 	0.0179	0.353	0.2937	-0.104
Mof_H 	H 	0.9921	0.3876	0.2853	0.081
Mof_C 	C 	0.0205	0.292	0.324	0.011
Mof_H 	H 	0.9946	0.2785	0.3344	0.011
Mof_C 	C 	0.0939	0.267	0.3243	0.105
Mof_H 	H 	0.1209	0.2417	0.3371	0.007
Mof_C 	C 	0.0954	0.318	0.2907	-0.127
Mof_H 	H 	0.1212	0.3216	0.279	0.107
Mof_N 	N 	0.7611	0.578	0.0735	-0.148
Mof_N 	N 	0.7359	0.705	0.0351	-0.115
Mof_N 	N 	0.6991	0.565	0.0227	-0.128
Mof_N 	N 	0.8669	0.816	0.1306	-0.283
Mof_N 	N 	0.6096	0.78	0.9281	-0.394
Mof_N 	N 	0.7364	0.252	0.072	-0.336
Mof_C 	C 	0.7603	0.662	0.0622	0.089
Mof_C 	C 	0.7025	0.652	0.0146	0.066
Mof_C 	C 	0.729	0.534	0.0498	0.117
Mof_C 	C 	0.7993	0.717	0.0856	0.156
Mof_C 	C 	0.8228	0.682	0.1152	-0.165
Mof_H 	H 	0.8158	0.6225	0.1221	0.04
Mof_C 	C 	0.8601	0.726	0.1396	0.061
Mof_H 	H 	0.8787	0.6959	0.1603	-0.053
Mof_C 	C 	0.8372	0.846	0.1004	0.206
Mof_H 	H 	0.8407	0.9069	0.094	0.047
Mof_C 	C 	0.8051	0.807	0.0787	-0.283
Mof_H 	H 	0.786	0.8384	0.0587	0.307
Mof_C 	C 	0.6699	0.698	0.9862	0.103
Mof_C 	C 	0.6739	0.791	0.9744	-0.311
Mof_H 	H 	0.6989	0.825	0.9857	0.165
Mof_C 	C 	0.6435	0.826	0.9484	0.163
Mof_H 	H 	0.6452	0.8889	0.9433	-0.233
Mof_C 	C 	0.604	0.695	0.9377	0.08
Mof_H 	H 	0.5781	0.6646	0.9258	-0.069
Mof_C 	C 	0.6336	0.652	0.9636	-0.174
Mof_H 	H 	0.6306	0.5889	0.967	0.101
Mof_C 	C 	0.7312	0.432	0.0568	0.086
Mof_C 	C 	0.6992	0.373	0.035	-0.16
Mof_H 	H 	0.6752	0.395	0.0163	0.079
Mof_C 	C 	0.7048	0.282	0.0424	0.126
Mof_H 	H 	0.6863	0.2396	0.0266	-0.227
Mof_C 	C 	0.7627	0.311	0.0952	0.083
Mof_H 	H 	0.7833	0.2902	0.1171	-0.019
Mof_C 	C 	0.7591	0.396	0.087	-0.133
Mof_H 	H 	0.7778	0.4365	0.1037	0.05
Mof_Zn	Zn	0.0392	0.6683	0.8842	-0.312
Mof_Zn	Zn	0.2266	0.3953	0.0801	0.983
Mof_I 	I 	0.0668	0.5097	0.8738	-4.913
Mof_I 	I 	0.9653	0.6879	0.9052	-30.388
Mof_I 	I 	0.2007	0.4869	0.0191	-0.775
Mof_I 	I 	0.303	0.4152	0.1222	0.119
Mof_I 	I 	0.99421	0.1316	0.40943	3.808
Mof_Zn	Zn	0.0655	0.1578	0.38415	0.714
Mof_I 	I 	0.10644	0.0245	0.3593	-3.009
Mof_I 	I 	0.046	0.1001	0.94304	0.166
Mof_I 	I 	0.0376	0.1928	0.00968	0.541
Mof_Zn	Zn	0.7131	0.116	0.0769	0.879
Mof_I 	I 	0.7881	0.088	0.1204	2.116
Mof_I 	I 	0.6928	0.03	0.0128	8.392
Mof_Zn	Zn	0.0559	0.6493	0.8759	0.714
Mof_I 	I 	0.0186	0.361	0.1038	28.116
Mof_Zn	Zn	0.2019	0.4004	0.0557	0.994
Mof_I 	I 	0.1623	0.4636	0.991	0.153
Mof_I 	I 	0.2795	0.4536	0.0855	-0.728
Mof_Zn	Zn	0.0429	0.166	0.387	0.549
Mof_I 	I 	0.2443	0.596	0.1421	-0.092
Mof_I 	I 	0.2165	0.7122	0.1933	-0.003
Mof_I 	I 	0.1856	0.7389	0.1401	-0.025
Mof_I 	I 	0.2617	0.672	0.1816	0.004
Mof_I 	I 	0.0081	0.0052	0.9768	-0.229
Mof_I 	I 	0.0488	0.162	0.9661	-0.389
Mof_I 	I 	0.0794	0.432	0.9439	0.015
Mof_I 	I 	0.061	0.4064	0.0176	1.208
Mof_I 	I 	0.081	0.407	0.9386	-0.037
Mof_I 	I 	0.0406	0.492	0.9925	-1.093
Mof_I 	I 	0.1002	0.131	0.1166	-3.455
Mof_I 	I 	0.1619	0.003	0.139	0.494
Mof_I 	I 	0.0521	0.1767	0.0972	9.134
Mof_I 	I 	0.0785	0.0041	0.0915	-0.112
Mof_I 	I 	0.0614	0.752	0.0592	0.113
Mof_I 	I 	0.1348	0.7562	0.1157	-0.021
Mof_I 	I 	0.0869	0.803	0.0738	-0.144
Mof_I 	I 	0.0698	0.6358	0.0441	-0.258
Mof_I 	I 	0.9679	0.15	0.4059	-4.511
Mof_I 	I 	0.9301	0.2973	0.3983	-0.888
Mof_I 	I 	0.8629	0.4164	0.3808	-0.03
Mof_I 	I 	0.9348	0.3293	0.4129	1.167
Mof_I 	I 	0.8892	0.4846	0.415	-0.229
Mof_I 	I 	0.094	0.5084	0.856	3.421
Mof_I 	I 	0.1194	0.5969	0.7162	0.011
Mof_I 	I 	0.0985	0.5484	0.7867	-0.777
Mof_I 	I 	0.0811	0.025	0.3646	2.358
_end
