# CIF file generated by openbabel 3.1.0, see https://openbabel.org
data_I
_chemical_name_common 'image0'
_cell_length_a 8.857
_cell_length_b 10.021
_cell_length_c 12.993
_cell_angle_alpha 82.284
_cell_angle_beta 84.145
_cell_angle_gamma 89.896
_space_group_name_H-M_alt 'P 1'
_space_group_name_Hall 'P 1'
loop_
    _symmetry_equiv_pos_as_xyz
    x,y,z
loop_
    _atom_site_label
    _atom_site_type_symbol
    _atom_site_fract_x
    _atom_site_fract_y
    _atom_site_fract_z
    _atom_site_occupancy
    S1       S        0.95399    0.11062    0.25590    1.000
    N1       N        0.09970    0.21030    0.92740    1.000
    N2       N        0.21620    0.38060    0.82550    1.000
    N3       N        0.91860    0.19540    0.54920    1.000
    N4       N        0.87280    0.35980    0.64360    1.000
    N5       N        0.24490    0.91570    0.99650    1.000
    N6       N        0.46750    0.85210    0.93120    1.000
    O1       O        0.02330    0.04500    0.16980    1.000
    O2       O        0.81820    0.03200    0.30060    1.000
    O3       O        0.06170    0.10660    0.33420    1.000
    O4       O        0.91360    0.24850    0.22150    1.000
    C1       C        0.44550    0.51750    0.75470    1.000
    C2       C        0.58000    0.44950    0.73450    1.000
    H1       H        0.57830    0.36750    0.70860    1.000
    C3       C        0.71730    0.50460    0.75320    1.000
    C4       C        0.71840    0.62670    0.79290    1.000
    H2       H        0.81040    0.66320    0.80510    1.000
    C5       C        0.58520    0.69510    0.81460    1.000
    C6       C        0.44800    0.64040    0.79420    1.000
    H3       H        0.35790    0.68600    0.80690    1.000
    C7       C        0.29640    0.46020    0.73320    1.000
    H4       H        0.23220    0.53350    0.70830    1.000
    H5       H        0.31500    0.40360    0.67830    1.000
    C8       C        0.86670    0.43640    0.73260    1.000
    H6       H        0.94690    0.50410    0.71960    1.000
    H7       H        0.88560    0.37580    0.79460    1.000
    C9       C        0.59320    0.83070    0.85260    1.000
    H8       H        0.68850    0.83820    0.88240    1.000
    H9       H        0.59220    0.90090    0.79350    1.000
    C10      C        0.15910    0.42880    0.91500    1.000
    H10      H        0.16790    0.51630    0.93020    1.000
    C11      C        0.08710    0.32320    0.97730    1.000
    H11      H        0.03720    0.32670    0.04340    1.000
    C12      C        0.17780    0.24840    0.83650    1.000
    H12      H        0.20330    0.19180    0.78640    1.000
    C13      C        0.84570    0.40890    0.54370    1.000
    H13      H        0.81420    0.49520    0.52010    1.000
    C14      C        0.87420    0.30610    0.48560    1.000
    H14      H        0.86500    0.31030    0.41460    1.000
    C15      C        0.91610    0.23070    0.64320    1.000
    H15      H        0.94090    0.17410    0.70160    1.000
    C16      C        0.31800    0.84760    0.07450    1.000
    H16      H        0.27980    0.83160    0.14450    1.000
    C17      C        0.45500    0.80670    0.03430    1.000
    H17      H        0.52630    0.75710    0.07060    1.000
    C18      C        0.33890    0.91720    0.91130    1.000
    H18      H        0.31880    0.95820    0.84560    1.000
    S2       S        0.04601    0.88938    0.74410    1.000
    N7       N        0.90030    0.78970    0.07260    1.000
    N8       N        0.78380    0.61940    0.17450    1.000
    N9       N        0.08140    0.80460    0.45080    1.000
    N10      N        0.12720    0.64020    0.35640    1.000
    N11      N        0.75510    0.08430    0.00350    1.000
    N12      N        0.53250    0.14790    0.06880    1.000
    O5       O        0.97670    0.95500    0.83020    1.000
    O6       O        0.18180    0.96800    0.69940    1.000
    O7       O        0.93830    0.89340    0.66580    1.000
    O8       O        0.08640    0.75150    0.77850    1.000
    C19      C        0.55450    0.48250    0.24530    1.000
    C20      C        0.42000    0.55050    0.26550    1.000
    H19      H        0.42170    0.63250    0.29140    1.000
    C21      C        0.28270    0.49540    0.24680    1.000
    C22      C        0.28160    0.37330    0.20710    1.000
    H20      H        0.18960    0.33680    0.19490    1.000
    C23      C        0.41480    0.30490    0.18540    1.000
    C24      C        0.55200    0.35960    0.20580    1.000
    H21      H        0.64210    0.31400    0.19310    1.000
    C25      C        0.70360    0.53980    0.26680    1.000
    H22      H        0.76780    0.46650    0.29170    1.000
    H23      H        0.68500    0.59640    0.32170    1.000
    C26      C        0.13330    0.56360    0.26740    1.000
    H24      H        0.05310    0.49590    0.28040    1.000
    H25      H        0.11440    0.62420    0.20540    1.000
    C27      C        0.40680    0.16930    0.14740    1.000
    H26      H        0.31150    0.16180    0.11760    1.000
    H27      H        0.40780    0.09910    0.20650    1.000
    C28      C        0.84090    0.57120    0.08500    1.000
    H28      H        0.83210    0.48370    0.06980    1.000
    C29      C        0.91290    0.67680    0.02270    1.000
    H29      H        0.96280    0.67330    0.95660    1.000
    C30      C        0.82220    0.75160    0.16350    1.000
    H30      H        0.79670    0.80820    0.21360    1.000
    C31      C        0.15430    0.59110    0.45630    1.000
    H31      H        0.18580    0.50480    0.47990    1.000
    C32      C        0.12580    0.69390    0.51440    1.000
    H32      H        0.13500    0.68970    0.58540    1.000
    C33      C        0.08390    0.76930    0.35680    1.000
    H33      H        0.05910    0.82590    0.29840    1.000
    C34      C        0.68200    0.15240    0.92550    1.000
    H34      H        0.72020    0.16840    0.85550    1.000
    C35      C        0.54500    0.19330    0.96570    1.000
    H35      H        0.47370    0.24290    0.92940    1.000
    C36      C        0.66110    0.08280    0.08870    1.000
    H36      H        0.68120    0.04180    0.15440    1.000
    Cd1      Cd       0.00000    0.00000    0.00000    1.000
    Cd2      Cd       0.00000    0.00000    0.50000    1.000
