# CIF file generated by openbabel 3.1.0, see https://openbabel.org
data_I
_chemical_name_common 'image0'
_cell_length_a 39.9194
_cell_length_b 39.9194
_cell_length_c 39.9194
_cell_angle_alpha 90
_cell_angle_beta 90
_cell_angle_gamma 90
_space_group_name_H-M_alt 'P 1'
_space_group_name_Hall 'P 1'
loop_
    _symmetry_equiv_pos_as_xyz
    x,y,z
loop_
    _atom_site_label
    _atom_site_type_symbol
    _atom_site_fract_x
    _atom_site_fract_y
    _atom_site_fract_z
    _atom_site_occupancy
    C1       C        0.22980    0.15453    0.06010    1.000
    C2       C        0.21940    0.12590    0.08414    1.000
    N1       N        0.18951    0.10880    0.08382    1.000
    O1       O        0.20920    0.15773    0.03671    1.000
    O2       O        0.25719    0.16882    0.06869    1.000
    C3       C        0.22980    0.65453    0.56010    1.000
    C4       C        0.21940    0.62590    0.58414    1.000
    N2       N        0.18951    0.60880    0.58382    1.000
    O3       O        0.20920    0.65773    0.53671    1.000
    O4       O        0.25719    0.66882    0.56869    1.000
    C5       C        0.72980    0.15453    0.56010    1.000
    C6       C        0.71940    0.12590    0.58414    1.000
    N3       N        0.68951    0.10880    0.58382    1.000
    O5       O        0.70920    0.15773    0.53671    1.000
    O6       O        0.75719    0.16882    0.56869    1.000
    C7       C        0.72980    0.65453    0.06010    1.000
    C8       C        0.71940    0.62590    0.08414    1.000
    N4       N        0.68951    0.60880    0.08382    1.000
    O7       O        0.70920    0.65773    0.03671    1.000
    O8       O        0.75719    0.66882    0.06869    1.000
    C9       C        0.77020    0.84547    0.06010    1.000
    C10      C        0.78060    0.87410    0.08414    1.000
    N5       N        0.81049    0.89120    0.08382    1.000
    O9       O        0.79080    0.84227    0.03671    1.000
    O10      O        0.74281    0.83118    0.06869    1.000
    C11      C        0.77020    0.34547    0.56010    1.000
    C12      C        0.78060    0.37410    0.58414    1.000
    N6       N        0.81049    0.39120    0.58382    1.000
    O11      O        0.79080    0.34227    0.53671    1.000
    O12      O        0.74281    0.33118    0.56869    1.000
    C13      C        0.27020    0.84547    0.56010    1.000
    C14      C        0.28060    0.87410    0.58414    1.000
    N7       N        0.31049    0.89120    0.58382    1.000
    O13      O        0.29080    0.84227    0.53671    1.000
    O14      O        0.24281    0.83118    0.56869    1.000
    C15      C        0.27020    0.34547    0.06010    1.000
    C16      C        0.28060    0.37410    0.08414    1.000
    N8       N        0.31049    0.39120    0.08382    1.000
    O15      O        0.29080    0.34227    0.03671    1.000
    O16      O        0.24281    0.33118    0.06869    1.000
    C17      C        0.77020    0.15453    0.93990    1.000
    C18      C        0.78060    0.12590    0.91586    1.000
    N9       N        0.81049    0.10880    0.91618    1.000
    O17      O        0.79080    0.15773    0.96329    1.000
    O18      O        0.74281    0.16882    0.93131    1.000
    C19      C        0.77020    0.65453    0.43990    1.000
    C20      C        0.78060    0.62590    0.41586    1.000
    N10      N        0.81049    0.60880    0.41618    1.000
    O19      O        0.79080    0.65773    0.46329    1.000
    O20      O        0.74281    0.66882    0.43131    1.000
    C21      C        0.27020    0.15453    0.43990    1.000
    C22      C        0.28060    0.12590    0.41586    1.000
    N11      N        0.31049    0.10880    0.41618    1.000
    O21      O        0.29080    0.15773    0.46329    1.000
    O22      O        0.24281    0.16882    0.43131    1.000
    C23      C        0.27020    0.65453    0.93990    1.000
    C24      C        0.28060    0.62590    0.91586    1.000
    N12      N        0.31049    0.60880    0.91618    1.000
    O23      O        0.29080    0.65773    0.96329    1.000
    O24      O        0.24281    0.66882    0.93131    1.000
    C25      C        0.22980    0.84547    0.93990    1.000
    C26      C        0.21940    0.87410    0.91586    1.000
    N13      N        0.18951    0.89120    0.91618    1.000
    O25      O        0.20920    0.84227    0.96329    1.000
    O26      O        0.25719    0.83118    0.93131    1.000
    C27      C        0.22980    0.34547    0.43990    1.000
    C28      C        0.21940    0.37410    0.41586    1.000
    N14      N        0.18951    0.39120    0.41618    1.000
    O27      O        0.20920    0.34227    0.46329    1.000
    O28      O        0.25719    0.33118    0.43131    1.000
    C29      C        0.72980    0.84547    0.43990    1.000
    C30      C        0.71940    0.87410    0.41586    1.000
    N15      N        0.68951    0.89120    0.41618    1.000
    O29      O        0.70920    0.84227    0.46329    1.000
    O30      O        0.75719    0.83118    0.43131    1.000
    C31      C        0.72980    0.34547    0.93990    1.000
    C32      C        0.71940    0.37410    0.91586    1.000
    N16      N        0.68951    0.39120    0.91618    1.000
    O31      O        0.70920    0.34227    0.96329    1.000
    O32      O        0.75719    0.33118    0.93131    1.000
    C33      C        0.06010    0.22980    0.15453    1.000
    C34      C        0.08414    0.21940    0.12590    1.000
    N17      N        0.08382    0.18951    0.10880    1.000
    O33      O        0.03671    0.20920    0.15773    1.000
    O34      O        0.06869    0.25719    0.16882    1.000
    C35      C        0.06010    0.72980    0.65453    1.000
    C36      C        0.08414    0.71940    0.62590    1.000
    N18      N        0.08382    0.68951    0.60880    1.000
    O35      O        0.03671    0.70920    0.65773    1.000
    O36      O        0.06869    0.75719    0.66882    1.000
    C37      C        0.56010    0.22980    0.65453    1.000
    C38      C        0.58414    0.21940    0.62590    1.000
    N19      N        0.58382    0.18951    0.60880    1.000
    O37      O        0.53671    0.20920    0.65773    1.000
    O38      O        0.56869    0.25719    0.66882    1.000
    C39      C        0.56010    0.72980    0.15453    1.000
    C40      C        0.58414    0.71940    0.12590    1.000
    N20      N        0.58382    0.68951    0.10880    1.000
    O39      O        0.53671    0.70920    0.15773    1.000
    O40      O        0.56869    0.75719    0.16882    1.000
    C41      C        0.06010    0.77020    0.84547    1.000
    C42      C        0.08414    0.78060    0.87410    1.000
    N21      N        0.08382    0.81049    0.89120    1.000
    O41      O        0.03671    0.79080    0.84227    1.000
    O42      O        0.06869    0.74281    0.83118    1.000
    C43      C        0.06010    0.27020    0.34547    1.000
    C44      C        0.08414    0.28060    0.37410    1.000
    N22      N        0.08382    0.31049    0.39120    1.000
    O43      O        0.03671    0.29080    0.34227    1.000
    O44      O        0.06869    0.24281    0.33118    1.000
    C45      C        0.56010    0.77020    0.34547    1.000
    C46      C        0.58414    0.78060    0.37410    1.000
    N23      N        0.58382    0.81049    0.39120    1.000
    O45      O        0.53671    0.79080    0.34227    1.000
    O46      O        0.56869    0.74281    0.33118    1.000
    C47      C        0.56010    0.27020    0.84547    1.000
    C48      C        0.58414    0.28060    0.87410    1.000
    N24      N        0.58382    0.31049    0.89120    1.000
    O47      O        0.53671    0.29080    0.84227    1.000
    O48      O        0.56869    0.24281    0.83118    1.000
    C49      C        0.93990    0.77020    0.15453    1.000
    C50      C        0.91586    0.78060    0.12590    1.000
    N25      N        0.91618    0.81049    0.10880    1.000
    O49      O        0.96329    0.79080    0.15773    1.000
    O50      O        0.93131    0.74281    0.16882    1.000
    C51      C        0.93990    0.27020    0.65453    1.000
    C52      C        0.91586    0.28060    0.62590    1.000
    N26      N        0.91618    0.31049    0.60880    1.000
    O51      O        0.96329    0.29080    0.65773    1.000
    O52      O        0.93131    0.24281    0.66882    1.000
    C53      C        0.43990    0.77020    0.65453    1.000
    C54      C        0.41586    0.78060    0.62590    1.000
    N27      N        0.41618    0.81049    0.60880    1.000
    O53      O        0.46329    0.79080    0.65773    1.000
    O54      O        0.43131    0.74281    0.66882    1.000
    C55      C        0.43990    0.27020    0.15453    1.000
    C56      C        0.41586    0.28060    0.12590    1.000
    N28      N        0.41618    0.31049    0.10880    1.000
    O55      O        0.46329    0.29080    0.15773    1.000
    O56      O        0.43131    0.24281    0.16882    1.000
    C57      C        0.93990    0.22980    0.84547    1.000
    C58      C        0.91586    0.21940    0.87410    1.000
    N29      N        0.91618    0.18951    0.89120    1.000
    O57      O        0.96329    0.20920    0.84227    1.000
    O58      O        0.93131    0.25719    0.83118    1.000
    C59      C        0.93990    0.72980    0.34547    1.000
    C60      C        0.91586    0.71940    0.37410    1.000
    N30      N        0.91618    0.68951    0.39120    1.000
    O59      O        0.96329    0.70920    0.34227    1.000
    O60      O        0.93131    0.75719    0.33118    1.000
    C61      C        0.43990    0.22980    0.34547    1.000
    C62      C        0.41586    0.21940    0.37410    1.000
    N31      N        0.41618    0.18951    0.39120    1.000
    O61      O        0.46329    0.20920    0.34227    1.000
    O62      O        0.43131    0.25719    0.33118    1.000
    C63      C        0.43990    0.72980    0.84547    1.000
    C64      C        0.41586    0.71940    0.87410    1.000
    N32      N        0.41618    0.68951    0.89120    1.000
    O63      O        0.46329    0.70920    0.84227    1.000
    O64      O        0.43131    0.75719    0.83118    1.000
    C65      C        0.15453    0.06010    0.22980    1.000
    C66      C        0.12590    0.08414    0.21940    1.000
    N33      N        0.10880    0.08382    0.18951    1.000
    O65      O        0.15773    0.03671    0.20920    1.000
    O66      O        0.16882    0.06869    0.25719    1.000
    C67      C        0.15453    0.56010    0.72980    1.000
    C68      C        0.12590    0.58414    0.71940    1.000
    N34      N        0.10880    0.58382    0.68951    1.000
    O67      O        0.15773    0.53671    0.70920    1.000
    O68      O        0.16882    0.56869    0.75719    1.000
    C69      C        0.65453    0.06010    0.72980    1.000
    C70      C        0.62590    0.08414    0.71940    1.000
    N35      N        0.60880    0.08382    0.68951    1.000
    O69      O        0.65773    0.03671    0.70920    1.000
    O70      O        0.66882    0.06869    0.75719    1.000
    C71      C        0.65453    0.56010    0.22980    1.000
    C72      C        0.62590    0.58414    0.21940    1.000
    N36      N        0.60880    0.58382    0.18951    1.000
    O71      O        0.65773    0.53671    0.20920    1.000
    O72      O        0.66882    0.56869    0.25719    1.000
    C73      C        0.84547    0.06010    0.77020    1.000
    C74      C        0.87410    0.08414    0.78060    1.000
    N37      N        0.89120    0.08382    0.81049    1.000
    O73      O        0.84227    0.03671    0.79080    1.000
    O74      O        0.83118    0.06869    0.74281    1.000
    C75      C        0.84547    0.56010    0.27020    1.000
    C76      C        0.87410    0.58414    0.28060    1.000
    N38      N        0.89120    0.58382    0.31049    1.000
    O75      O        0.84227    0.53671    0.29080    1.000
    O76      O        0.83118    0.56869    0.24281    1.000
    C77      C        0.34547    0.06010    0.27020    1.000
    C78      C        0.37410    0.08414    0.28060    1.000
    N39      N        0.39120    0.08382    0.31049    1.000
    O77      O        0.34227    0.03671    0.29080    1.000
    O78      O        0.33118    0.06869    0.24281    1.000
    C79      C        0.34547    0.56010    0.77020    1.000
    C80      C        0.37410    0.58414    0.78060    1.000
    N40      N        0.39120    0.58382    0.81049    1.000
    O79      O        0.34227    0.53671    0.79080    1.000
    O80      O        0.33118    0.56869    0.74281    1.000
    C81      C        0.15453    0.93990    0.77020    1.000
    C82      C        0.12590    0.91586    0.78060    1.000
    N41      N        0.10880    0.91618    0.81049    1.000
    O81      O        0.15773    0.96329    0.79080    1.000
    O82      O        0.16882    0.93131    0.74281    1.000
    C83      C        0.15453    0.43990    0.27020    1.000
    C84      C        0.12590    0.41586    0.28060    1.000
    N42      N        0.10880    0.41618    0.31049    1.000
    O83      O        0.15773    0.46329    0.29080    1.000
    O84      O        0.16882    0.43131    0.24281    1.000
    C85      C        0.65453    0.93990    0.27020    1.000
    C86      C        0.62590    0.91586    0.28060    1.000
    N43      N        0.60880    0.91618    0.31049    1.000
    O85      O        0.65773    0.96329    0.29080    1.000
    O86      O        0.66882    0.93131    0.24281    1.000
    C87      C        0.65453    0.43990    0.77020    1.000
    C88      C        0.62590    0.41586    0.78060    1.000
    N44      N        0.60880    0.41618    0.81049    1.000
    O87      O        0.65773    0.46329    0.79080    1.000
    O88      O        0.66882    0.43131    0.74281    1.000
    C89      C        0.84547    0.93990    0.22980    1.000
    C90      C        0.87410    0.91586    0.21940    1.000
    N45      N        0.89120    0.91618    0.18951    1.000
    O89      O        0.84227    0.96329    0.20920    1.000
    O90      O        0.83118    0.93131    0.25719    1.000
    C91      C        0.84547    0.43990    0.72980    1.000
    C92      C        0.87410    0.41586    0.71940    1.000
    N46      N        0.89120    0.41618    0.68951    1.000
    O91      O        0.84227    0.46329    0.70920    1.000
    O92      O        0.83118    0.43131    0.75719    1.000
    C93      C        0.34547    0.93990    0.72980    1.000
    C94      C        0.37410    0.91586    0.71940    1.000
    N47      N        0.39120    0.91618    0.68951    1.000
    O93      O        0.34227    0.96329    0.70920    1.000
    O94      O        0.33118    0.93131    0.75719    1.000
    C95      C        0.34547    0.43990    0.22980    1.000
    C96      C        0.37410    0.41586    0.21940    1.000
    N48      N        0.39120    0.41618    0.18951    1.000
    O95      O        0.34227    0.46329    0.20920    1.000
    O96      O        0.33118    0.43131    0.25719    1.000
    C97      C        0.15453    0.22980    0.93990    1.000
    C98      C        0.12590    0.21940    0.91586    1.000
    N49      N        0.10880    0.18951    0.91618    1.000
    O97      O        0.15773    0.20920    0.96329    1.000
    O98      O        0.16882    0.25719    0.93131    1.000
    C99      C        0.15453    0.72980    0.43990    1.000
    C100     C        0.12590    0.71940    0.41586    1.000
    N50      N        0.10880    0.68951    0.41618    1.000
    O99      O        0.15773    0.70920    0.46329    1.000
    O100     O        0.16882    0.75719    0.43131    1.000
    C101     C        0.65453    0.22980    0.43990    1.000
    C102     C        0.62590    0.21940    0.41586    1.000
    N51      N        0.60880    0.18951    0.41618    1.000
    O101     O        0.65773    0.20920    0.46329    1.000
    O102     O        0.66882    0.25719    0.43131    1.000
    C103     C        0.65453    0.72980    0.93990    1.000
    C104     C        0.62590    0.71940    0.91586    1.000
    N52      N        0.60880    0.68951    0.91618    1.000
    O103     O        0.65773    0.70920    0.96329    1.000
    O104     O        0.66882    0.75719    0.93131    1.000
    C105     C        0.84547    0.77020    0.93990    1.000
    C106     C        0.87410    0.78060    0.91586    1.000
    N53      N        0.89120    0.81049    0.91618    1.000
    O105     O        0.84227    0.79080    0.96329    1.000
    O106     O        0.83118    0.74281    0.93131    1.000
    C107     C        0.84547    0.27020    0.43990    1.000
    C108     C        0.87410    0.28060    0.41586    1.000
    N54      N        0.89120    0.31049    0.41618    1.000
    O107     O        0.84227    0.29080    0.46329    1.000
    O108     O        0.83118    0.24281    0.43131    1.000
    C109     C        0.34547    0.77020    0.43990    1.000
    C110     C        0.37410    0.78060    0.41586    1.000
    N55      N        0.39120    0.81049    0.41618    1.000
    O109     O        0.34227    0.79080    0.46329    1.000
    O110     O        0.33118    0.74281    0.43131    1.000
    C111     C        0.34547    0.27020    0.93990    1.000
    C112     C        0.37410    0.28060    0.91586    1.000
    N56      N        0.39120    0.31049    0.91618    1.000
    O111     O        0.34227    0.29080    0.96329    1.000
    O112     O        0.33118    0.24281    0.93131    1.000
    C113     C        0.15453    0.77020    0.06010    1.000
    C114     C        0.12590    0.78060    0.08414    1.000
    N57      N        0.10880    0.81049    0.08382    1.000
    O113     O        0.15773    0.79080    0.03671    1.000
    O114     O        0.16882    0.74281    0.06869    1.000
    C115     C        0.15453    0.27020    0.56010    1.000
    C116     C        0.12590    0.28060    0.58414    1.000
    N58      N        0.10880    0.31049    0.58382    1.000
    O115     O        0.15773    0.29080    0.53671    1.000
    O116     O        0.16882    0.24281    0.56869    1.000
    C117     C        0.65453    0.77020    0.56010    1.000
    C118     C        0.62590    0.78060    0.58414    1.000
    N59      N        0.60880    0.81049    0.58382    1.000
    O117     O        0.65773    0.79080    0.53671    1.000
    O118     O        0.66882    0.74281    0.56869    1.000
    C119     C        0.65453    0.27020    0.06010    1.000
    C120     C        0.62590    0.28060    0.08414    1.000
    N60      N        0.60880    0.31049    0.08382    1.000
    O119     O        0.65773    0.29080    0.03671    1.000
    O120     O        0.66882    0.24281    0.06869    1.000
    C121     C        0.84547    0.22980    0.06010    1.000
    C122     C        0.87410    0.21940    0.08414    1.000
    N61      N        0.89120    0.18951    0.08382    1.000
    O121     O        0.84227    0.20920    0.03671    1.000
    O122     O        0.83118    0.25719    0.06869    1.000
    C123     C        0.84547    0.72980    0.56010    1.000
    C124     C        0.87410    0.71940    0.58414    1.000
    N62      N        0.89120    0.68951    0.58382    1.000
    O123     O        0.84227    0.70920    0.53671    1.000
    O124     O        0.83118    0.75719    0.56869    1.000
    C125     C        0.34547    0.22980    0.56010    1.000
    C126     C        0.37410    0.21940    0.58414    1.000
    N63      N        0.39120    0.18951    0.58382    1.000
    O125     O        0.34227    0.20920    0.53671    1.000
    O126     O        0.33118    0.25719    0.56869    1.000
    C127     C        0.34547    0.72980    0.06010    1.000
    C128     C        0.37410    0.71940    0.08414    1.000
    N64      N        0.39120    0.68951    0.08382    1.000
    O127     O        0.34227    0.70920    0.03671    1.000
    O128     O        0.33118    0.75719    0.06869    1.000
    C129     C        0.22980    0.06010    0.84547    1.000
    C130     C        0.21940    0.08414    0.87410    1.000
    N65      N        0.18951    0.08382    0.89120    1.000
    O129     O        0.20920    0.03671    0.84227    1.000
    O130     O        0.25719    0.06869    0.83118    1.000
    C131     C        0.22980    0.56010    0.34547    1.000
    C132     C        0.21940    0.58414    0.37410    1.000
    N66      N        0.18951    0.58382    0.39120    1.000
    O131     O        0.20920    0.53671    0.34227    1.000
    O132     O        0.25719    0.56869    0.33118    1.000
    C133     C        0.72980    0.06010    0.34547    1.000
    C134     C        0.71940    0.08414    0.37410    1.000
    N67      N        0.68951    0.08382    0.39120    1.000
    O133     O        0.70920    0.03671    0.34227    1.000
    O134     O        0.75719    0.06869    0.33118    1.000
    C135     C        0.72980    0.56010    0.84547    1.000
    C136     C        0.71940    0.58414    0.87410    1.000
    N68      N        0.68951    0.58382    0.89120    1.000
    O135     O        0.70920    0.53671    0.84227    1.000
    O136     O        0.75719    0.56869    0.83118    1.000
    C137     C        0.77020    0.06010    0.15453    1.000
    C138     C        0.78060    0.08414    0.12590    1.000
    N69      N        0.81049    0.08382    0.10880    1.000
    O137     O        0.79080    0.03671    0.15773    1.000
    O138     O        0.74281    0.06869    0.16882    1.000
    C139     C        0.77020    0.56010    0.65453    1.000
    C140     C        0.78060    0.58414    0.62590    1.000
    N70      N        0.81049    0.58382    0.60880    1.000
    O139     O        0.79080    0.53671    0.65773    1.000
    O140     O        0.74281    0.56869    0.66882    1.000
    C141     C        0.27020    0.06010    0.65453    1.000
    C142     C        0.28060    0.08414    0.62590    1.000
    N71      N        0.31049    0.08382    0.60880    1.000
    O141     O        0.29080    0.03671    0.65773    1.000
    O142     O        0.24281    0.06869    0.66882    1.000
    C143     C        0.27020    0.56010    0.15453    1.000
    C144     C        0.28060    0.58414    0.12590    1.000
    N72      N        0.31049    0.58382    0.10880    1.000
    O143     O        0.29080    0.53671    0.15773    1.000
    O144     O        0.24281    0.56869    0.16882    1.000
    C145     C        0.77020    0.93990    0.84547    1.000
    C146     C        0.78060    0.91586    0.87410    1.000
    N73      N        0.81049    0.91618    0.89120    1.000
    O145     O        0.79080    0.96329    0.84227    1.000
    O146     O        0.74281    0.93131    0.83118    1.000
    C147     C        0.77020    0.43990    0.34547    1.000
    C148     C        0.78060    0.41586    0.37410    1.000
    N74      N        0.81049    0.41618    0.39120    1.000
    O147     O        0.79080    0.46329    0.34227    1.000
    O148     O        0.74281    0.43131    0.33118    1.000
    C149     C        0.27020    0.93990    0.34547    1.000
    C150     C        0.28060    0.91586    0.37410    1.000
    N75      N        0.31049    0.91618    0.39120    1.000
    O149     O        0.29080    0.96329    0.34227    1.000
    O150     O        0.24281    0.93131    0.33118    1.000
    C151     C        0.27020    0.43990    0.84547    1.000
    C152     C        0.28060    0.41586    0.87410    1.000
    N76      N        0.31049    0.41618    0.89120    1.000
    O151     O        0.29080    0.46329    0.84227    1.000
    O152     O        0.24281    0.43131    0.83118    1.000
    C153     C        0.22980    0.93990    0.15453    1.000
    C154     C        0.21940    0.91586    0.12590    1.000
    N77      N        0.18951    0.91618    0.10880    1.000
    O153     O        0.20920    0.96329    0.15773    1.000
    O154     O        0.25719    0.93131    0.16882    1.000
    C155     C        0.22980    0.43990    0.65453    1.000
    C156     C        0.21940    0.41586    0.62590    1.000
    N78      N        0.18951    0.41618    0.60880    1.000
    O155     O        0.20920    0.46329    0.65773    1.000
    O156     O        0.25719    0.43131    0.66882    1.000
    C157     C        0.72980    0.93990    0.65453    1.000
    C158     C        0.71940    0.91586    0.62590    1.000
    N79      N        0.68951    0.91618    0.60880    1.000
    O157     O        0.70920    0.96329    0.65773    1.000
    O158     O        0.75719    0.93131    0.66882    1.000
    C159     C        0.72980    0.43990    0.15453    1.000
    C160     C        0.71940    0.41586    0.12590    1.000
    N80      N        0.68951    0.41618    0.10880    1.000
    O159     O        0.70920    0.46329    0.15773    1.000
    O160     O        0.75719    0.43131    0.16882    1.000
    C161     C        0.06010    0.15453    0.77020    1.000
    C162     C        0.08414    0.12590    0.78060    1.000
    N81      N        0.08382    0.10880    0.81049    1.000
    O161     O        0.03671    0.15773    0.79080    1.000
    O162     O        0.06869    0.16882    0.74281    1.000
    C163     C        0.06010    0.65453    0.27020    1.000
    C164     C        0.08414    0.62590    0.28060    1.000
    N82      N        0.08382    0.60880    0.31049    1.000
    O163     O        0.03671    0.65773    0.29080    1.000
    O164     O        0.06869    0.66882    0.24281    1.000
    C165     C        0.56010    0.15453    0.27020    1.000
    C166     C        0.58414    0.12590    0.28060    1.000
    N83      N        0.58382    0.10880    0.31049    1.000
    O165     O        0.53671    0.15773    0.29080    1.000
    O166     O        0.56869    0.16882    0.24281    1.000
    C167     C        0.56010    0.65453    0.77020    1.000
    C168     C        0.58414    0.62590    0.78060    1.000
    N84      N        0.58382    0.60880    0.81049    1.000
    O167     O        0.53671    0.65773    0.79080    1.000
    O168     O        0.56869    0.66882    0.74281    1.000
    C169     C        0.06010    0.84547    0.22980    1.000
    C170     C        0.08414    0.87410    0.21940    1.000
    N85      N        0.08382    0.89120    0.18951    1.000
    O169     O        0.03671    0.84227    0.20920    1.000
    O170     O        0.06869    0.83118    0.25719    1.000
    C171     C        0.06010    0.34547    0.72980    1.000
    C172     C        0.08414    0.37410    0.71940    1.000
    N86      N        0.08382    0.39120    0.68951    1.000
    O171     O        0.03671    0.34227    0.70920    1.000
    O172     O        0.06869    0.33118    0.75719    1.000
    C173     C        0.56010    0.84547    0.72980    1.000
    C174     C        0.58414    0.87410    0.71940    1.000
    N87      N        0.58382    0.89120    0.68951    1.000
    O173     O        0.53671    0.84227    0.70920    1.000
    O174     O        0.56869    0.83118    0.75719    1.000
    C175     C        0.56010    0.34547    0.22980    1.000
    C176     C        0.58414    0.37410    0.21940    1.000
    N88      N        0.58382    0.39120    0.18951    1.000
    O175     O        0.53671    0.34227    0.20920    1.000
    O176     O        0.56869    0.33118    0.25719    1.000
    C177     C        0.93990    0.15453    0.22980    1.000
    C178     C        0.91586    0.12590    0.21940    1.000
    N89      N        0.91618    0.10880    0.18951    1.000
    O177     O        0.96329    0.15773    0.20920    1.000
    O178     O        0.93131    0.16882    0.25719    1.000
    C179     C        0.93990    0.65453    0.72980    1.000
    C180     C        0.91586    0.62590    0.71940    1.000
    N90      N        0.91618    0.60880    0.68951    1.000
    O179     O        0.96329    0.65773    0.70920    1.000
    O180     O        0.93131    0.66882    0.75719    1.000
    C181     C        0.43990    0.15453    0.72980    1.000
    C182     C        0.41586    0.12590    0.71940    1.000
    N91      N        0.41618    0.10880    0.68951    1.000
    O181     O        0.46329    0.15773    0.70920    1.000
    O182     O        0.43131    0.16882    0.75719    1.000
    C183     C        0.43990    0.65453    0.22980    1.000
    C184     C        0.41586    0.62590    0.21940    1.000
    N92      N        0.41618    0.60880    0.18951    1.000
    O183     O        0.46329    0.65773    0.20920    1.000
    O184     O        0.43131    0.66882    0.25719    1.000
    C185     C        0.93990    0.84547    0.77020    1.000
    C186     C        0.91586    0.87410    0.78060    1.000
    N93      N        0.91618    0.89120    0.81049    1.000
    O185     O        0.96329    0.84227    0.79080    1.000
    O186     O        0.93131    0.83118    0.74281    1.000
    C187     C        0.93990    0.34547    0.27020    1.000
    C188     C        0.91586    0.37410    0.28060    1.000
    N94      N        0.91618    0.39120    0.31049    1.000
    O187     O        0.96329    0.34227    0.29080    1.000
    O188     O        0.93131    0.33118    0.24281    1.000
    C189     C        0.43990    0.84547    0.27020    1.000
    C190     C        0.41586    0.87410    0.28060    1.000
    N95      N        0.41618    0.89120    0.31049    1.000
    O189     O        0.46329    0.84227    0.29080    1.000
    O190     O        0.43131    0.83118    0.24281    1.000
    C191     C        0.43990    0.34547    0.77020    1.000
    C192     C        0.41586    0.37410    0.78060    1.000
    N96      N        0.41618    0.39120    0.81049    1.000
    O191     O        0.46329    0.34227    0.79080    1.000
    O192     O        0.43131    0.33118    0.74281    1.000
    C193     C        0.77020    0.84547    0.93990    1.000
    C194     C        0.78060    0.87410    0.91586    1.000
    N97      N        0.81049    0.89120    0.91618    1.000
    O193     O        0.79080    0.84227    0.96329    1.000
    O194     O        0.74281    0.83118    0.93131    1.000
    C195     C        0.77020    0.34547    0.43990    1.000
    C196     C        0.78060    0.37410    0.41586    1.000
    N98      N        0.81049    0.39120    0.41618    1.000
    O195     O        0.79080    0.34227    0.46329    1.000
    O196     O        0.74281    0.33118    0.43131    1.000
    C197     C        0.27020    0.84547    0.43990    1.000
    C198     C        0.28060    0.87410    0.41586    1.000
    N99      N        0.31049    0.89120    0.41618    1.000
    O197     O        0.29080    0.84227    0.46329    1.000
    O198     O        0.24281    0.83118    0.43131    1.000
    C199     C        0.27020    0.34547    0.93990    1.000
    C200     C        0.28060    0.37410    0.91586    1.000
    N100     N        0.31049    0.39120    0.91618    1.000
    O199     O        0.29080    0.34227    0.96329    1.000
    O200     O        0.24281    0.33118    0.93131    1.000
    C201     C        0.22980    0.15453    0.93990    1.000
    C202     C        0.21940    0.12590    0.91586    1.000
    N101     N        0.18951    0.10880    0.91618    1.000
    O201     O        0.20920    0.15773    0.96329    1.000
    O202     O        0.25719    0.16882    0.93131    1.000
    C203     C        0.22980    0.65453    0.43990    1.000
    C204     C        0.21940    0.62590    0.41586    1.000
    N102     N        0.18951    0.60880    0.41618    1.000
    O203     O        0.20920    0.65773    0.46329    1.000
    O204     O        0.25719    0.66882    0.43131    1.000
    C205     C        0.72980    0.15453    0.43990    1.000
    C206     C        0.71940    0.12590    0.41586    1.000
    N103     N        0.68951    0.10880    0.41618    1.000
    O205     O        0.70920    0.15773    0.46329    1.000
    O206     O        0.75719    0.16882    0.43131    1.000
    C207     C        0.72980    0.65453    0.93990    1.000
    C208     C        0.71940    0.62590    0.91586    1.000
    N104     N        0.68951    0.60880    0.91618    1.000
    O207     O        0.70920    0.65773    0.96329    1.000
    O208     O        0.75719    0.66882    0.93131    1.000
    C209     C        0.22980    0.84547    0.06010    1.000
    C210     C        0.21940    0.87410    0.08414    1.000
    N105     N        0.18951    0.89120    0.08382    1.000
    O209     O        0.20920    0.84227    0.03671    1.000
    O210     O        0.25719    0.83118    0.06869    1.000
    C211     C        0.22980    0.34547    0.56010    1.000
    C212     C        0.21940    0.37410    0.58414    1.000
    N106     N        0.18951    0.39120    0.58382    1.000
    O211     O        0.20920    0.34227    0.53671    1.000
    O212     O        0.25719    0.33118    0.56869    1.000
    C213     C        0.72980    0.84547    0.56010    1.000
    C214     C        0.71940    0.87410    0.58414    1.000
    N107     N        0.68951    0.89120    0.58382    1.000
    O213     O        0.70920    0.84227    0.53671    1.000
    O214     O        0.75719    0.83118    0.56869    1.000
    C215     C        0.72980    0.34547    0.06010    1.000
    C216     C        0.71940    0.37410    0.08414    1.000
    N108     N        0.68951    0.39120    0.08382    1.000
    O215     O        0.70920    0.34227    0.03671    1.000
    O216     O        0.75719    0.33118    0.06869    1.000
    C217     C        0.77020    0.15453    0.06010    1.000
    C218     C        0.78060    0.12590    0.08414    1.000
    N109     N        0.81049    0.10880    0.08382    1.000
    O217     O        0.79080    0.15773    0.03671    1.000
    O218     O        0.74281    0.16882    0.06869    1.000
    C219     C        0.77020    0.65453    0.56010    1.000
    C220     C        0.78060    0.62590    0.58414    1.000
    N110     N        0.81049    0.60880    0.58382    1.000
    O219     O        0.79080    0.65773    0.53671    1.000
    O220     O        0.74281    0.66882    0.56869    1.000
    C221     C        0.27020    0.15453    0.56010    1.000
    C222     C        0.28060    0.12590    0.58414    1.000
    N111     N        0.31049    0.10880    0.58382    1.000
    O221     O        0.29080    0.15773    0.53671    1.000
    O222     O        0.24281    0.16882    0.56869    1.000
    C223     C        0.27020    0.65453    0.06010    1.000
    C224     C        0.28060    0.62590    0.08414    1.000
    N112     N        0.31049    0.60880    0.08382    1.000
    O223     O        0.29080    0.65773    0.03671    1.000
    O224     O        0.24281    0.66882    0.06869    1.000
    C225     C        0.93990    0.77020    0.84547    1.000
    C226     C        0.91586    0.78060    0.87410    1.000
    N113     N        0.91618    0.81049    0.89120    1.000
    O225     O        0.96329    0.79080    0.84227    1.000
    O226     O        0.93131    0.74281    0.83118    1.000
    C227     C        0.93990    0.27020    0.34547    1.000
    C228     C        0.91586    0.28060    0.37410    1.000
    N114     N        0.91618    0.31049    0.39120    1.000
    O227     O        0.96329    0.29080    0.34227    1.000
    O228     O        0.93131    0.24281    0.33118    1.000
    C229     C        0.43990    0.77020    0.34547    1.000
    C230     C        0.41586    0.78060    0.37410    1.000
    N115     N        0.41618    0.81049    0.39120    1.000
    O229     O        0.46329    0.79080    0.34227    1.000
    O230     O        0.43131    0.74281    0.33118    1.000
    C231     C        0.43990    0.27020    0.84547    1.000
    C232     C        0.41586    0.28060    0.87410    1.000
    N116     N        0.41618    0.31049    0.89120    1.000
    O231     O        0.46329    0.29080    0.84227    1.000
    O232     O        0.43131    0.24281    0.83118    1.000
    C233     C        0.93990    0.22980    0.15453    1.000
    C234     C        0.91586    0.21940    0.12590    1.000
    N117     N        0.91618    0.18951    0.10880    1.000
    O233     O        0.96329    0.20920    0.15773    1.000
    O234     O        0.93131    0.25719    0.16882    1.000
    C235     C        0.93990    0.72980    0.65453    1.000
    C236     C        0.91586    0.71940    0.62590    1.000
    N118     N        0.91618    0.68951    0.60880    1.000
    O235     O        0.96329    0.70920    0.65773    1.000
    O236     O        0.93131    0.75719    0.66882    1.000
    C237     C        0.43990    0.22980    0.65453    1.000
    C238     C        0.41586    0.21940    0.62590    1.000
    N119     N        0.41618    0.18951    0.60880    1.000
    O237     O        0.46329    0.20920    0.65773    1.000
    O238     O        0.43131    0.25719    0.66882    1.000
    C239     C        0.43990    0.72980    0.15453    1.000
    C240     C        0.41586    0.71940    0.12590    1.000
    N120     N        0.41618    0.68951    0.10880    1.000
    O239     O        0.46329    0.70920    0.15773    1.000
    O240     O        0.43131    0.75719    0.16882    1.000
    C241     C        0.06010    0.22980    0.84547    1.000
    C242     C        0.08414    0.21940    0.87410    1.000
    N121     N        0.08382    0.18951    0.89120    1.000
    O241     O        0.03671    0.20920    0.84227    1.000
    O242     O        0.06869    0.25719    0.83118    1.000
    C243     C        0.06010    0.72980    0.34547    1.000
    C244     C        0.08414    0.71940    0.37410    1.000
    N122     N        0.08382    0.68951    0.39120    1.000
    O243     O        0.03671    0.70920    0.34227    1.000
    O244     O        0.06869    0.75719    0.33118    1.000
    C245     C        0.56010    0.22980    0.34547    1.000
    C246     C        0.58414    0.21940    0.37410    1.000
    N123     N        0.58382    0.18951    0.39120    1.000
    O245     O        0.53671    0.20920    0.34227    1.000
    O246     O        0.56869    0.25719    0.33118    1.000
    C247     C        0.56010    0.72980    0.84547    1.000
    C248     C        0.58414    0.71940    0.87410    1.000
    N124     N        0.58382    0.68951    0.89120    1.000
    O247     O        0.53671    0.70920    0.84227    1.000
    O248     O        0.56869    0.75719    0.83118    1.000
    C249     C        0.06010    0.77020    0.15453    1.000
    C250     C        0.08414    0.78060    0.12590    1.000
    N125     N        0.08382    0.81049    0.10880    1.000
    O249     O        0.03671    0.79080    0.15773    1.000
    O250     O        0.06869    0.74281    0.16882    1.000
    C251     C        0.06010    0.27020    0.65453    1.000
    C252     C        0.08414    0.28060    0.62590    1.000
    N126     N        0.08382    0.31049    0.60880    1.000
    O251     O        0.03671    0.29080    0.65773    1.000
    O252     O        0.06869    0.24281    0.66882    1.000
    C253     C        0.56010    0.77020    0.65453    1.000
    C254     C        0.58414    0.78060    0.62590    1.000
    N127     N        0.58382    0.81049    0.60880    1.000
    O253     O        0.53671    0.79080    0.65773    1.000
    O254     O        0.56869    0.74281    0.66882    1.000
    C255     C        0.56010    0.27020    0.15453    1.000
    C256     C        0.58414    0.28060    0.12590    1.000
    N128     N        0.58382    0.31049    0.10880    1.000
    O255     O        0.53671    0.29080    0.15773    1.000
    O256     O        0.56869    0.24281    0.16882    1.000
    C257     C        0.84547    0.93990    0.77020    1.000
    C258     C        0.87410    0.91586    0.78060    1.000
    N129     N        0.89120    0.91618    0.81049    1.000
    O257     O        0.84227    0.96329    0.79080    1.000
    O258     O        0.83118    0.93131    0.74281    1.000
    C259     C        0.84547    0.43990    0.27020    1.000
    C260     C        0.87410    0.41586    0.28060    1.000
    N130     N        0.89120    0.41618    0.31049    1.000
    O259     O        0.84227    0.46329    0.29080    1.000
    O260     O        0.83118    0.43131    0.24281    1.000
    C261     C        0.34547    0.93990    0.27020    1.000
    C262     C        0.37410    0.91586    0.28060    1.000
    N131     N        0.39120    0.91618    0.31049    1.000
    O261     O        0.34227    0.96329    0.29080    1.000
    O262     O        0.33118    0.93131    0.24281    1.000
    C263     C        0.34547    0.43990    0.77020    1.000
    C264     C        0.37410    0.41586    0.78060    1.000
    N132     N        0.39120    0.41618    0.81049    1.000
    O263     O        0.34227    0.46329    0.79080    1.000
    O264     O        0.33118    0.43131    0.74281    1.000
    C265     C        0.15453    0.93990    0.22980    1.000
    C266     C        0.12590    0.91586    0.21940    1.000
    N133     N        0.10880    0.91618    0.18951    1.000
    O265     O        0.15773    0.96329    0.20920    1.000
    O266     O        0.16882    0.93131    0.25719    1.000
    C267     C        0.15453    0.43990    0.72980    1.000
    C268     C        0.12590    0.41586    0.71940    1.000
    N134     N        0.10880    0.41618    0.68951    1.000
    O267     O        0.15773    0.46329    0.70920    1.000
    O268     O        0.16882    0.43131    0.75719    1.000
    C269     C        0.65453    0.93990    0.72980    1.000
    C270     C        0.62590    0.91586    0.71940    1.000
    N135     N        0.60880    0.91618    0.68951    1.000
    O269     O        0.65773    0.96329    0.70920    1.000
    O270     O        0.66882    0.93131    0.75719    1.000
    C271     C        0.65453    0.43990    0.22980    1.000
    C272     C        0.62590    0.41586    0.21940    1.000
    N136     N        0.60880    0.41618    0.18951    1.000
    O271     O        0.65773    0.46329    0.20920    1.000
    O272     O        0.66882    0.43131    0.25719    1.000
    C273     C        0.84547    0.06010    0.22980    1.000
    C274     C        0.87410    0.08414    0.21940    1.000
    N137     N        0.89120    0.08382    0.18951    1.000
    O273     O        0.84227    0.03671    0.20920    1.000
    O274     O        0.83118    0.06869    0.25719    1.000
    C275     C        0.84547    0.56010    0.72980    1.000
    C276     C        0.87410    0.58414    0.71940    1.000
    N138     N        0.89120    0.58382    0.68951    1.000
    O275     O        0.84227    0.53671    0.70920    1.000
    O276     O        0.83118    0.56869    0.75719    1.000
    C277     C        0.34547    0.06010    0.72980    1.000
    C278     C        0.37410    0.08414    0.71940    1.000
    N139     N        0.39120    0.08382    0.68951    1.000
    O277     O        0.34227    0.03671    0.70920    1.000
    O278     O        0.33118    0.06869    0.75719    1.000
    C279     C        0.34547    0.56010    0.22980    1.000
    C280     C        0.37410    0.58414    0.21940    1.000
    N140     N        0.39120    0.58382    0.18951    1.000
    O279     O        0.34227    0.53671    0.20920    1.000
    O280     O        0.33118    0.56869    0.25719    1.000
    C281     C        0.15453    0.06010    0.77020    1.000
    C282     C        0.12590    0.08414    0.78060    1.000
    N141     N        0.10880    0.08382    0.81049    1.000
    O281     O        0.15773    0.03671    0.79080    1.000
    O282     O        0.16882    0.06869    0.74281    1.000
    C283     C        0.15453    0.56010    0.27020    1.000
    C284     C        0.12590    0.58414    0.28060    1.000
    N142     N        0.10880    0.58382    0.31049    1.000
    O283     O        0.15773    0.53671    0.29080    1.000
    O284     O        0.16882    0.56869    0.24281    1.000
    C285     C        0.65453    0.06010    0.27020    1.000
    C286     C        0.62590    0.08414    0.28060    1.000
    N143     N        0.60880    0.08382    0.31049    1.000
    O285     O        0.65773    0.03671    0.29080    1.000
    O286     O        0.66882    0.06869    0.24281    1.000
    C287     C        0.65453    0.56010    0.77020    1.000
    C288     C        0.62590    0.58414    0.78060    1.000
    N144     N        0.60880    0.58382    0.81049    1.000
    O287     O        0.65773    0.53671    0.79080    1.000
    O288     O        0.66882    0.56869    0.74281    1.000
    C289     C        0.84547    0.77020    0.06010    1.000
    C290     C        0.87410    0.78060    0.08414    1.000
    N145     N        0.89120    0.81049    0.08382    1.000
    O289     O        0.84227    0.79080    0.03671    1.000
    O290     O        0.83118    0.74281    0.06869    1.000
    C291     C        0.84547    0.27020    0.56010    1.000
    C292     C        0.87410    0.28060    0.58414    1.000
    N146     N        0.89120    0.31049    0.58382    1.000
    O291     O        0.84227    0.29080    0.53671    1.000
    O292     O        0.83118    0.24281    0.56869    1.000
    C293     C        0.34547    0.77020    0.56010    1.000
    C294     C        0.37410    0.78060    0.58414    1.000
    N147     N        0.39120    0.81049    0.58382    1.000
    O293     O        0.34227    0.79080    0.53671    1.000
    O294     O        0.33118    0.74281    0.56869    1.000
    C295     C        0.34547    0.27020    0.06010    1.000
    C296     C        0.37410    0.28060    0.08414    1.000
    N148     N        0.39120    0.31049    0.08382    1.000
    O295     O        0.34227    0.29080    0.03671    1.000
    O296     O        0.33118    0.24281    0.06869    1.000
    C297     C        0.15453    0.22980    0.06010    1.000
    C298     C        0.12590    0.21940    0.08414    1.000
    N149     N        0.10880    0.18951    0.08382    1.000
    O297     O        0.15773    0.20920    0.03671    1.000
    O298     O        0.16882    0.25719    0.06869    1.000
    C299     C        0.15453    0.72980    0.56010    1.000
    C300     C        0.12590    0.71940    0.58414    1.000
    N150     N        0.10880    0.68951    0.58382    1.000
    O299     O        0.15773    0.70920    0.53671    1.000
    O300     O        0.16882    0.75719    0.56869    1.000
    C301     C        0.65453    0.22980    0.56010    1.000
    C302     C        0.62590    0.21940    0.58414    1.000
    N151     N        0.60880    0.18951    0.58382    1.000
    O301     O        0.65773    0.20920    0.53671    1.000
    O302     O        0.66882    0.25719    0.56869    1.000
    C303     C        0.65453    0.72980    0.06010    1.000
    C304     C        0.62590    0.71940    0.08414    1.000
    N152     N        0.60880    0.68951    0.08382    1.000
    O303     O        0.65773    0.70920    0.03671    1.000
    O304     O        0.66882    0.75719    0.06869    1.000
    C305     C        0.84547    0.22980    0.93990    1.000
    C306     C        0.87410    0.21940    0.91586    1.000
    N153     N        0.89120    0.18951    0.91618    1.000
    O305     O        0.84227    0.20920    0.96329    1.000
    O306     O        0.83118    0.25719    0.93131    1.000
    C307     C        0.84547    0.72980    0.43990    1.000
    C308     C        0.87410    0.71940    0.41586    1.000
    N154     N        0.89120    0.68951    0.41618    1.000
    O307     O        0.84227    0.70920    0.46329    1.000
    O308     O        0.83118    0.75719    0.43131    1.000
    C309     C        0.34547    0.22980    0.43990    1.000
    C310     C        0.37410    0.21940    0.41586    1.000
    N155     N        0.39120    0.18951    0.41618    1.000
    O309     O        0.34227    0.20920    0.46329    1.000
    O310     O        0.33118    0.25719    0.43131    1.000
    C311     C        0.34547    0.72980    0.93990    1.000
    C312     C        0.37410    0.71940    0.91586    1.000
    N156     N        0.39120    0.68951    0.91618    1.000
    O311     O        0.34227    0.70920    0.96329    1.000
    O312     O        0.33118    0.75719    0.93131    1.000
    C313     C        0.15453    0.77020    0.93990    1.000
    C314     C        0.12590    0.78060    0.91586    1.000
    N157     N        0.10880    0.81049    0.91618    1.000
    O313     O        0.15773    0.79080    0.96329    1.000
    O314     O        0.16882    0.74281    0.93131    1.000
    C315     C        0.15453    0.27020    0.43990    1.000
    C316     C        0.12590    0.28060    0.41586    1.000
    N158     N        0.10880    0.31049    0.41618    1.000
    O315     O        0.15773    0.29080    0.46329    1.000
    O316     O        0.16882    0.24281    0.43131    1.000
    C317     C        0.65453    0.77020    0.43990    1.000
    C318     C        0.62590    0.78060    0.41586    1.000
    N159     N        0.60880    0.81049    0.41618    1.000
    O317     O        0.65773    0.79080    0.46329    1.000
    O318     O        0.66882    0.74281    0.43131    1.000
    C319     C        0.65453    0.27020    0.93990    1.000
    C320     C        0.62590    0.28060    0.91586    1.000
    N160     N        0.60880    0.31049    0.91618    1.000
    O319     O        0.65773    0.29080    0.96329    1.000
    O320     O        0.66882    0.24281    0.93131    1.000
    C321     C        0.77020    0.93990    0.15453    1.000
    C322     C        0.78060    0.91586    0.12590    1.000
    N161     N        0.81049    0.91618    0.10880    1.000
    O321     O        0.79080    0.96329    0.15773    1.000
    O322     O        0.74281    0.93131    0.16882    1.000
    C323     C        0.77020    0.43990    0.65453    1.000
    C324     C        0.78060    0.41586    0.62590    1.000
    N162     N        0.81049    0.41618    0.60880    1.000
    O323     O        0.79080    0.46329    0.65773    1.000
    O324     O        0.74281    0.43131    0.66882    1.000
    C325     C        0.27020    0.93990    0.65453    1.000
    C326     C        0.28060    0.91586    0.62590    1.000
    N163     N        0.31049    0.91618    0.60880    1.000
    O325     O        0.29080    0.96329    0.65773    1.000
    O326     O        0.24281    0.93131    0.66882    1.000
    C327     C        0.27020    0.43990    0.15453    1.000
    C328     C        0.28060    0.41586    0.12590    1.000
    N164     N        0.31049    0.41618    0.10880    1.000
    O327     O        0.29080    0.46329    0.15773    1.000
    O328     O        0.24281    0.43131    0.16882    1.000
    C329     C        0.22980    0.93990    0.84547    1.000
    C330     C        0.21940    0.91586    0.87410    1.000
    N165     N        0.18951    0.91618    0.89120    1.000
    O329     O        0.20920    0.96329    0.84227    1.000
    O330     O        0.25719    0.93131    0.83118    1.000
    C331     C        0.22980    0.43990    0.34547    1.000
    C332     C        0.21940    0.41586    0.37410    1.000
    N166     N        0.18951    0.41618    0.39120    1.000
    O331     O        0.20920    0.46329    0.34227    1.000
    O332     O        0.25719    0.43131    0.33118    1.000
    C333     C        0.72980    0.93990    0.34547    1.000
    C334     C        0.71940    0.91586    0.37410    1.000
    N167     N        0.68951    0.91618    0.39120    1.000
    O333     O        0.70920    0.96329    0.34227    1.000
    O334     O        0.75719    0.93131    0.33118    1.000
    C335     C        0.72980    0.43990    0.84547    1.000
    C336     C        0.71940    0.41586    0.87410    1.000
    N168     N        0.68951    0.41618    0.89120    1.000
    O335     O        0.70920    0.46329    0.84227    1.000
    O336     O        0.75719    0.43131    0.83118    1.000
    C337     C        0.22980    0.06010    0.15453    1.000
    C338     C        0.21940    0.08414    0.12590    1.000
    N169     N        0.18951    0.08382    0.10880    1.000
    O337     O        0.20920    0.03671    0.15773    1.000
    O338     O        0.25719    0.06869    0.16882    1.000
    C339     C        0.22980    0.56010    0.65453    1.000
    C340     C        0.21940    0.58414    0.62590    1.000
    N170     N        0.18951    0.58382    0.60880    1.000
    O339     O        0.20920    0.53671    0.65773    1.000
    O340     O        0.25719    0.56869    0.66882    1.000
    C341     C        0.72980    0.06010    0.65453    1.000
    C342     C        0.71940    0.08414    0.62590    1.000
    N171     N        0.68951    0.08382    0.60880    1.000
    O341     O        0.70920    0.03671    0.65773    1.000
    O342     O        0.75719    0.06869    0.66882    1.000
    C343     C        0.72980    0.56010    0.15453    1.000
    C344     C        0.71940    0.58414    0.12590    1.000
    N172     N        0.68951    0.58382    0.10880    1.000
    O343     O        0.70920    0.53671    0.15773    1.000
    O344     O        0.75719    0.56869    0.16882    1.000
    C345     C        0.77020    0.06010    0.84547    1.000
    C346     C        0.78060    0.08414    0.87410    1.000
    N173     N        0.81049    0.08382    0.89120    1.000
    O345     O        0.79080    0.03671    0.84227    1.000
    O346     O        0.74281    0.06869    0.83118    1.000
    C347     C        0.77020    0.56010    0.34547    1.000
    C348     C        0.78060    0.58414    0.37410    1.000
    N174     N        0.81049    0.58382    0.39120    1.000
    O347     O        0.79080    0.53671    0.34227    1.000
    O348     O        0.74281    0.56869    0.33118    1.000
    C349     C        0.27020    0.06010    0.34547    1.000
    C350     C        0.28060    0.08414    0.37410    1.000
    N175     N        0.31049    0.08382    0.39120    1.000
    O349     O        0.29080    0.03671    0.34227    1.000
    O350     O        0.24281    0.06869    0.33118    1.000
    C351     C        0.27020    0.56010    0.84547    1.000
    C352     C        0.28060    0.58414    0.87410    1.000
    N176     N        0.31049    0.58382    0.89120    1.000
    O351     O        0.29080    0.53671    0.84227    1.000
    O352     O        0.24281    0.56869    0.83118    1.000
    C353     C        0.93990    0.84547    0.22980    1.000
    C354     C        0.91586    0.87410    0.21940    1.000
    N177     N        0.91618    0.89120    0.18951    1.000
    O353     O        0.96329    0.84227    0.20920    1.000
    O354     O        0.93131    0.83118    0.25719    1.000
    C355     C        0.93990    0.34547    0.72980    1.000
    C356     C        0.91586    0.37410    0.71940    1.000
    N178     N        0.91618    0.39120    0.68951    1.000
    O355     O        0.96329    0.34227    0.70920    1.000
    O356     O        0.93131    0.33118    0.75719    1.000
    C357     C        0.43990    0.84547    0.72980    1.000
    C358     C        0.41586    0.87410    0.71940    1.000
    N179     N        0.41618    0.89120    0.68951    1.000
    O357     O        0.46329    0.84227    0.70920    1.000
    O358     O        0.43131    0.83118    0.75719    1.000
    C359     C        0.43990    0.34547    0.22980    1.000
    C360     C        0.41586    0.37410    0.21940    1.000
    N180     N        0.41618    0.39120    0.18951    1.000
    O359     O        0.46329    0.34227    0.20920    1.000
    O360     O        0.43131    0.33118    0.25719    1.000
    C361     C        0.93990    0.15453    0.77020    1.000
    C362     C        0.91586    0.12590    0.78060    1.000
    N181     N        0.91618    0.10880    0.81049    1.000
    O361     O        0.96329    0.15773    0.79080    1.000
    O362     O        0.93131    0.16882    0.74281    1.000
    C363     C        0.93990    0.65453    0.27020    1.000
    C364     C        0.91586    0.62590    0.28060    1.000
    N182     N        0.91618    0.60880    0.31049    1.000
    O363     O        0.96329    0.65773    0.29080    1.000
    O364     O        0.93131    0.66882    0.24281    1.000
    C365     C        0.43990    0.15453    0.27020    1.000
    C366     C        0.41586    0.12590    0.28060    1.000
    N183     N        0.41618    0.10880    0.31049    1.000
    O365     O        0.46329    0.15773    0.29080    1.000
    O366     O        0.43131    0.16882    0.24281    1.000
    C367     C        0.43990    0.65453    0.77020    1.000
    C368     C        0.41586    0.62590    0.78060    1.000
    N184     N        0.41618    0.60880    0.81049    1.000
    O367     O        0.46329    0.65773    0.79080    1.000
    O368     O        0.43131    0.66882    0.74281    1.000
    C369     C        0.06010    0.84547    0.77020    1.000
    C370     C        0.08414    0.87410    0.78060    1.000
    N185     N        0.08382    0.89120    0.81049    1.000
    O369     O        0.03671    0.84227    0.79080    1.000
    O370     O        0.06869    0.83118    0.74281    1.000
    C371     C        0.06010    0.34547    0.27020    1.000
    C372     C        0.08414    0.37410    0.28060    1.000
    N186     N        0.08382    0.39120    0.31049    1.000
    O371     O        0.03671    0.34227    0.29080    1.000
    O372     O        0.06869    0.33118    0.24281    1.000
    C373     C        0.56010    0.84547    0.27020    1.000
    C374     C        0.58414    0.87410    0.28060    1.000
    N187     N        0.58382    0.89120    0.31049    1.000
    O373     O        0.53671    0.84227    0.29080    1.000
    O374     O        0.56869    0.83118    0.24281    1.000
    C375     C        0.56010    0.34547    0.77020    1.000
    C376     C        0.58414    0.37410    0.78060    1.000
    N188     N        0.58382    0.39120    0.81049    1.000
    O375     O        0.53671    0.34227    0.79080    1.000
    O376     O        0.56869    0.33118    0.74281    1.000
    C377     C        0.06010    0.15453    0.22980    1.000
    C378     C        0.08414    0.12590    0.21940    1.000
    N189     N        0.08382    0.10880    0.18951    1.000
    O377     O        0.03671    0.15773    0.20920    1.000
    O378     O        0.06869    0.16882    0.25719    1.000
    C379     C        0.06010    0.65453    0.72980    1.000
    C380     C        0.08414    0.62590    0.71940    1.000
    N190     N        0.08382    0.60880    0.68951    1.000
    O379     O        0.03671    0.65773    0.70920    1.000
    O380     O        0.06869    0.66882    0.75719    1.000
    C381     C        0.56010    0.15453    0.72980    1.000
    C382     C        0.58414    0.12590    0.71940    1.000
    N191     N        0.58382    0.10880    0.68951    1.000
    O381     O        0.53671    0.15773    0.70920    1.000
    O382     O        0.56869    0.16882    0.75719    1.000
    C383     C        0.56010    0.65453    0.22980    1.000
    C384     C        0.58414    0.62590    0.21940    1.000
    N192     N        0.58382    0.60880    0.18951    1.000
    O383     O        0.53671    0.65773    0.20920    1.000
    O384     O        0.56869    0.66882    0.25719    1.000
    Ce1      Ce       0.21648    0.28352    0.04783    1.000
    Ce2      Ce       0.21648    0.78352    0.54783    1.000
    Ce3      Ce       0.78352    0.71648    0.04783    1.000
    Ce4      Ce       0.78352    0.21648    0.54783    1.000
    Ce5      Ce       0.28352    0.21648    0.04783    1.000
    Ce6      Ce       0.78352    0.28352    0.95217    1.000
    Ce7      Ce       0.78352    0.78352    0.45217    1.000
    Ce8      Ce       0.28352    0.28352    0.45217    1.000
    Ce9      Ce       0.21648    0.71648    0.95217    1.000
    Ce10     Ce       0.21648    0.21648    0.45217    1.000
    Ce11     Ce       0.04783    0.21648    0.28352    1.000
    Ce12     Ce       0.54783    0.21648    0.78352    1.000
    Ce13     Ce       0.04783    0.78352    0.71648    1.000
    Ce14     Ce       0.04783    0.28352    0.21648    1.000
    Ce15     Ce       0.54783    0.78352    0.21648    1.000
    Ce16     Ce       0.95217    0.78352    0.28352    1.000
    Ce17     Ce       0.45217    0.78352    0.78352    1.000
    Ce18     Ce       0.45217    0.28352    0.28352    1.000
    Ce19     Ce       0.95217    0.21648    0.71648    1.000
    Ce20     Ce       0.45217    0.21648    0.21648    1.000
    Ce21     Ce       0.28352    0.04783    0.21648    1.000
    Ce22     Ce       0.28352    0.54783    0.71648    1.000
    Ce23     Ce       0.71648    0.04783    0.78352    1.000
    Ce24     Ce       0.71648    0.54783    0.28352    1.000
    Ce25     Ce       0.21648    0.04783    0.28352    1.000
    Ce26     Ce       0.28352    0.95217    0.78352    1.000
    Ce27     Ce       0.28352    0.45217    0.28352    1.000
    Ce28     Ce       0.71648    0.95217    0.21648    1.000
    Ce29     Ce       0.71648    0.45217    0.71648    1.000
    Ce30     Ce       0.21648    0.45217    0.21648    1.000
    Ce31     Ce       0.28352    0.21648    0.95217    1.000
    Ce32     Ce       0.28352    0.71648    0.45217    1.000
    Ce33     Ce       0.71648    0.78352    0.95217    1.000
    Ce34     Ce       0.71648    0.28352    0.45217    1.000
    Ce35     Ce       0.21648    0.28352    0.95217    1.000
    Ce36     Ce       0.28352    0.78352    0.04783    1.000
    Ce37     Ce       0.28352    0.28352    0.54783    1.000
    Ce38     Ce       0.71648    0.21648    0.04783    1.000
    Ce39     Ce       0.71648    0.71648    0.54783    1.000
    Ce40     Ce       0.21648    0.21648    0.54783    1.000
    Ce41     Ce       0.21648    0.04783    0.71648    1.000
    Ce42     Ce       0.21648    0.54783    0.21648    1.000
    Ce43     Ce       0.78352    0.04783    0.28352    1.000
    Ce44     Ce       0.78352    0.54783    0.78352    1.000
    Ce45     Ce       0.28352    0.54783    0.28352    1.000
    Ce46     Ce       0.78352    0.95217    0.71648    1.000
    Ce47     Ce       0.78352    0.45217    0.21648    1.000
    Ce48     Ce       0.28352    0.95217    0.21648    1.000
    Ce49     Ce       0.21648    0.95217    0.28352    1.000
    Ce50     Ce       0.21648    0.45217    0.78352    1.000
    Ce51     Ce       0.04783    0.28352    0.78352    1.000
    Ce52     Ce       0.54783    0.28352    0.28352    1.000
    Ce53     Ce       0.04783    0.71648    0.21648    1.000
    Ce54     Ce       0.54783    0.71648    0.71648    1.000
    Ce55     Ce       0.54783    0.21648    0.21648    1.000
    Ce56     Ce       0.95217    0.28352    0.21648    1.000
    Ce57     Ce       0.45217    0.28352    0.71648    1.000
    Ce58     Ce       0.95217    0.71648    0.78352    1.000
    Ce59     Ce       0.95217    0.21648    0.28352    1.000
    Ce60     Ce       0.45217    0.71648    0.28352    1.000
    Ce61     Ce       0.78352    0.71648    0.95217    1.000
    Ce62     Ce       0.78352    0.21648    0.45217    1.000
    Ce63     Ce       0.21648    0.78352    0.45217    1.000
    Ce64     Ce       0.21648    0.71648    0.04783    1.000
    Ce65     Ce       0.78352    0.28352    0.04783    1.000
    Ce66     Ce       0.78352    0.78352    0.54783    1.000
    Ce67     Ce       0.95217    0.78352    0.71648    1.000
    Ce68     Ce       0.45217    0.78352    0.21648    1.000
    Ce69     Ce       0.45217    0.21648    0.78352    1.000
    Ce70     Ce       0.04783    0.21648    0.71648    1.000
    Ce71     Ce       0.04783    0.78352    0.28352    1.000
    Ce72     Ce       0.54783    0.78352    0.78352    1.000
    Ce73     Ce       0.71648    0.95217    0.78352    1.000
    Ce74     Ce       0.71648    0.45217    0.28352    1.000
    Ce75     Ce       0.28352    0.45217    0.71648    1.000
    Ce76     Ce       0.71648    0.04783    0.21648    1.000
    Ce77     Ce       0.71648    0.54783    0.71648    1.000
    Ce78     Ce       0.28352    0.04783    0.78352    1.000
    Ce79     Ce       0.71648    0.78352    0.04783    1.000
    Ce80     Ce       0.71648    0.28352    0.54783    1.000
    Ce81     Ce       0.28352    0.71648    0.54783    1.000
    Ce82     Ce       0.71648    0.21648    0.95217    1.000
    Ce83     Ce       0.71648    0.71648    0.45217    1.000
    Ce84     Ce       0.28352    0.78352    0.95217    1.000
    Ce85     Ce       0.78352    0.95217    0.28352    1.000
    Ce86     Ce       0.78352    0.45217    0.78352    1.000
    Ce87     Ce       0.21648    0.95217    0.71648    1.000
    Ce88     Ce       0.21648    0.54783    0.78352    1.000
    Ce89     Ce       0.78352    0.04783    0.71648    1.000
    Ce90     Ce       0.78352    0.54783    0.21648    1.000
    Ce91     Ce       0.95217    0.71648    0.21648    1.000
    Ce92     Ce       0.45217    0.71648    0.71648    1.000
    Ce93     Ce       0.95217    0.28352    0.78352    1.000
    Ce94     Ce       0.04783    0.71648    0.78352    1.000
    Ce95     Ce       0.54783    0.71648    0.28352    1.000
    Ce96     Ce       0.54783    0.28352    0.71648    1.000
    Ce97     Ce       0.20151    0.20151    0.00000    1.000
    Ce98     Ce       0.20151    0.70151    0.50000    1.000
    Ce99     Ce       0.70151    0.20151    0.50000    1.000
    Ce100    Ce       0.70151    0.70151    0.00000    1.000
    Ce101    Ce       0.79849    0.79849    0.00000    1.000
    Ce102    Ce       0.79849    0.29849    0.50000    1.000
    Ce103    Ce       0.29849    0.79849    0.50000    1.000
    Ce104    Ce       0.29849    0.29849    0.00000    1.000
    Ce105    Ce       0.79849    0.20151    0.00000    1.000
    Ce106    Ce       0.79849    0.70151    0.50000    1.000
    Ce107    Ce       0.29849    0.20151    0.50000    1.000
    Ce108    Ce       0.29849    0.70151    0.00000    1.000
    Ce109    Ce       0.20151    0.79849    0.00000    1.000
    Ce110    Ce       0.20151    0.29849    0.50000    1.000
    Ce111    Ce       0.70151    0.79849    0.50000    1.000
    Ce112    Ce       0.70151    0.29849    0.00000    1.000
    Ce113    Ce       0.00000    0.20151    0.20151    1.000
    Ce114    Ce       0.00000    0.70151    0.70151    1.000
    Ce115    Ce       0.50000    0.20151    0.70151    1.000
    Ce116    Ce       0.50000    0.70151    0.20151    1.000
    Ce117    Ce       0.00000    0.79849    0.79849    1.000
    Ce118    Ce       0.00000    0.29849    0.29849    1.000
    Ce119    Ce       0.50000    0.79849    0.29849    1.000
    Ce120    Ce       0.50000    0.29849    0.79849    1.000
    Ce121    Ce       0.00000    0.79849    0.20151    1.000
    Ce122    Ce       0.00000    0.29849    0.70151    1.000
    Ce123    Ce       0.50000    0.79849    0.70151    1.000
    Ce124    Ce       0.50000    0.29849    0.20151    1.000
    Ce125    Ce       0.00000    0.20151    0.79849    1.000
    Ce126    Ce       0.00000    0.70151    0.29849    1.000
    Ce127    Ce       0.50000    0.20151    0.29849    1.000
    Ce128    Ce       0.50000    0.70151    0.79849    1.000
    Ce129    Ce       0.20151    0.00000    0.20151    1.000
    Ce130    Ce       0.20151    0.50000    0.70151    1.000
    Ce131    Ce       0.70151    0.00000    0.70151    1.000
    Ce132    Ce       0.70151    0.50000    0.20151    1.000
    Ce133    Ce       0.79849    0.00000    0.79849    1.000
    Ce134    Ce       0.79849    0.50000    0.29849    1.000
    Ce135    Ce       0.29849    0.00000    0.29849    1.000
    Ce136    Ce       0.29849    0.50000    0.79849    1.000
    Ce137    Ce       0.20151    0.00000    0.79849    1.000
    Ce138    Ce       0.20151    0.50000    0.29849    1.000
    Ce139    Ce       0.70151    0.00000    0.29849    1.000
    Ce140    Ce       0.70151    0.50000    0.79849    1.000
    Ce141    Ce       0.79849    0.00000    0.20151    1.000
    Ce142    Ce       0.79849    0.50000    0.70151    1.000
    Ce143    Ce       0.29849    0.00000    0.70151    1.000
    Ce144    Ce       0.29849    0.50000    0.20151    1.000
    O385     O        0.22650    0.22650    0.04860    1.000
    O386     O        0.22650    0.72650    0.54860    1.000
    O387     O        0.72650    0.22650    0.54860    1.000
    O388     O        0.72650    0.72650    0.04860    1.000
    O389     O        0.77350    0.77350    0.04860    1.000
    O390     O        0.77350    0.27350    0.54860    1.000
    O391     O        0.27350    0.77350    0.54860    1.000
    O392     O        0.27350    0.27350    0.04860    1.000
    O393     O        0.77350    0.22650    0.95140    1.000
    O394     O        0.77350    0.72650    0.45140    1.000
    O395     O        0.27350    0.22650    0.45140    1.000
    O396     O        0.27350    0.72650    0.95140    1.000
    O397     O        0.22650    0.77350    0.95140    1.000
    O398     O        0.22650    0.27350    0.45140    1.000
    O399     O        0.72650    0.77350    0.45140    1.000
    O400     O        0.72650    0.27350    0.95140    1.000
    O401     O        0.04860    0.22650    0.22650    1.000
    O402     O        0.04860    0.72650    0.72650    1.000
    O403     O        0.54860    0.22650    0.72650    1.000
    O404     O        0.54860    0.72650    0.22650    1.000
    O405     O        0.04860    0.77350    0.77350    1.000
    O406     O        0.04860    0.27350    0.27350    1.000
    O407     O        0.54860    0.77350    0.27350    1.000
    O408     O        0.54860    0.27350    0.77350    1.000
    O409     O        0.95140    0.77350    0.22650    1.000
    O410     O        0.95140    0.27350    0.72650    1.000
    O411     O        0.45140    0.77350    0.72650    1.000
    O412     O        0.45140    0.27350    0.22650    1.000
    O413     O        0.95140    0.22650    0.77350    1.000
    O414     O        0.95140    0.72650    0.27350    1.000
    O415     O        0.45140    0.22650    0.27350    1.000
    O416     O        0.45140    0.72650    0.77350    1.000
    O417     O        0.22650    0.04860    0.22650    1.000
    O418     O        0.22650    0.54860    0.72650    1.000
    O419     O        0.72650    0.04860    0.72650    1.000
    O420     O        0.72650    0.54860    0.22650    1.000
    O421     O        0.77350    0.04860    0.77350    1.000
    O422     O        0.77350    0.54860    0.27350    1.000
    O423     O        0.27350    0.04860    0.27350    1.000
    O424     O        0.27350    0.54860    0.77350    1.000
    O425     O        0.22650    0.95140    0.77350    1.000
    O426     O        0.22650    0.45140    0.27350    1.000
    O427     O        0.72650    0.95140    0.27350    1.000
    O428     O        0.72650    0.45140    0.77350    1.000
    O429     O        0.77350    0.95140    0.22650    1.000
    O430     O        0.77350    0.45140    0.72650    1.000
    O431     O        0.27350    0.95140    0.72650    1.000
    O432     O        0.27350    0.45140    0.22650    1.000
    O433     O        0.22650    0.22650    0.95140    1.000
    O434     O        0.22650    0.72650    0.45140    1.000
    O435     O        0.72650    0.22650    0.45140    1.000
    O436     O        0.72650    0.72650    0.95140    1.000
    O437     O        0.77350    0.77350    0.95140    1.000
    O438     O        0.77350    0.27350    0.45140    1.000
    O439     O        0.27350    0.77350    0.45140    1.000
    O440     O        0.27350    0.27350    0.95140    1.000
    O441     O        0.22650    0.77350    0.04860    1.000
    O442     O        0.22650    0.27350    0.54860    1.000
    O443     O        0.72650    0.77350    0.54860    1.000
    O444     O        0.72650    0.27350    0.04860    1.000
    O445     O        0.77350    0.22650    0.04860    1.000
    O446     O        0.77350    0.72650    0.54860    1.000
    O447     O        0.27350    0.22650    0.54860    1.000
    O448     O        0.27350    0.72650    0.04860    1.000
    O449     O        0.22650    0.04860    0.77350    1.000
    O450     O        0.22650    0.54860    0.27350    1.000
    O451     O        0.72650    0.04860    0.27350    1.000
    O452     O        0.72650    0.54860    0.77350    1.000
    O453     O        0.77350    0.04860    0.22650    1.000
    O454     O        0.77350    0.54860    0.72650    1.000
    O455     O        0.27350    0.04860    0.72650    1.000
    O456     O        0.27350    0.54860    0.22650    1.000
    O457     O        0.77350    0.95140    0.77350    1.000
    O458     O        0.77350    0.45140    0.27350    1.000
    O459     O        0.27350    0.95140    0.27350    1.000
    O460     O        0.27350    0.45140    0.77350    1.000
    O461     O        0.22650    0.95140    0.22650    1.000
    O462     O        0.22650    0.45140    0.72650    1.000
    O463     O        0.72650    0.95140    0.72650    1.000
    O464     O        0.72650    0.45140    0.22650    1.000
    O465     O        0.04860    0.22650    0.77350    1.000
    O466     O        0.04860    0.72650    0.27350    1.000
    O467     O        0.54860    0.22650    0.27350    1.000
    O468     O        0.54860    0.72650    0.77350    1.000
    O469     O        0.04860    0.77350    0.22650    1.000
    O470     O        0.04860    0.27350    0.72650    1.000
    O471     O        0.54860    0.77350    0.72650    1.000
    O472     O        0.54860    0.27350    0.22650    1.000
    O473     O        0.95140    0.22650    0.22650    1.000
    O474     O        0.95140    0.72650    0.72650    1.000
    O475     O        0.45140    0.22650    0.72650    1.000
    O476     O        0.45140    0.72650    0.22650    1.000
    O477     O        0.95140    0.77350    0.77350    1.000
    O478     O        0.95140    0.27350    0.27350    1.000
    O479     O        0.45140    0.77350    0.27350    1.000
    O480     O        0.45140    0.27350    0.77350    1.000
    O481     O        0.24190    0.30200    0.00000    1.000
    O482     O        0.24190    0.80200    0.50000    1.000
    O483     O        0.74190    0.30200    0.50000    1.000
    O484     O        0.74190    0.80200    0.00000    1.000
    O485     O        0.75810    0.69800    0.00000    1.000
    O486     O        0.75810    0.19800    0.50000    1.000
    O487     O        0.25810    0.69800    0.50000    1.000
    O488     O        0.25810    0.19800    0.00000    1.000
    O489     O        0.75810    0.30200    0.00000    1.000
    O490     O        0.75810    0.80200    0.50000    1.000
    O491     O        0.25810    0.30200    0.50000    1.000
    O492     O        0.25810    0.80200    0.00000    1.000
    O493     O        0.24190    0.69800    0.00000    1.000
    O494     O        0.24190    0.19800    0.50000    1.000
    O495     O        0.74190    0.69800    0.50000    1.000
    O496     O        0.74190    0.19800    0.00000    1.000
    O497     O        0.00000    0.24190    0.30200    1.000
    O498     O        0.00000    0.74190    0.80200    1.000
    O499     O        0.50000    0.24190    0.80200    1.000
    O500     O        0.50000    0.74190    0.30200    1.000
    O501     O        0.00000    0.75810    0.69800    1.000
    O502     O        0.00000    0.25810    0.19800    1.000
    O503     O        0.50000    0.75810    0.19800    1.000
    O504     O        0.50000    0.25810    0.69800    1.000
    O505     O        0.00000    0.75810    0.30200    1.000
    O506     O        0.00000    0.25810    0.80200    1.000
    O507     O        0.50000    0.75810    0.80200    1.000
    O508     O        0.50000    0.25810    0.30200    1.000
    O509     O        0.00000    0.24190    0.69800    1.000
    O510     O        0.00000    0.74190    0.19800    1.000
    O511     O        0.50000    0.24190    0.19800    1.000
    O512     O        0.50000    0.74190    0.69800    1.000
    O513     O        0.30200    0.00000    0.24190    1.000
    O514     O        0.30200    0.50000    0.74190    1.000
    O515     O        0.80200    0.00000    0.74190    1.000
    O516     O        0.80200    0.50000    0.24190    1.000
    O517     O        0.69800    0.00000    0.75810    1.000
    O518     O        0.69800    0.50000    0.25810    1.000
    O519     O        0.19800    0.00000    0.25810    1.000
    O520     O        0.19800    0.50000    0.75810    1.000
    O521     O        0.30200    0.00000    0.75810    1.000
    O522     O        0.30200    0.50000    0.25810    1.000
    O523     O        0.80200    0.00000    0.25810    1.000
    O524     O        0.80200    0.50000    0.75810    1.000
    O525     O        0.69800    0.00000    0.24190    1.000
    O526     O        0.69800    0.50000    0.74190    1.000
    O527     O        0.19800    0.00000    0.74190    1.000
    O528     O        0.19800    0.50000    0.24190    1.000
    O529     O        0.30200    0.24190    0.00000    1.000
    O530     O        0.30200    0.74190    0.50000    1.000
    O531     O        0.80200    0.24190    0.50000    1.000
    O532     O        0.80200    0.74190    0.00000    1.000
    O533     O        0.69800    0.75810    0.00000    1.000
    O534     O        0.69800    0.25810    0.50000    1.000
    O535     O        0.19800    0.75810    0.50000    1.000
    O536     O        0.19800    0.25810    0.00000    1.000
    O537     O        0.30200    0.75810    0.00000    1.000
    O538     O        0.30200    0.25810    0.50000    1.000
    O539     O        0.80200    0.75810    0.50000    1.000
    O540     O        0.80200    0.25810    0.00000    1.000
    O541     O        0.69800    0.24190    0.00000    1.000
    O542     O        0.69800    0.74190    0.50000    1.000
    O543     O        0.19800    0.24190    0.50000    1.000
    O544     O        0.19800    0.74190    0.00000    1.000
    O545     O        0.24190    0.00000    0.69800    1.000
    O546     O        0.24190    0.50000    0.19800    1.000
    O547     O        0.74190    0.00000    0.19800    1.000
    O548     O        0.74190    0.50000    0.69800    1.000
    O549     O        0.75810    0.00000    0.30200    1.000
    O550     O        0.75810    0.50000    0.80200    1.000
    O551     O        0.25810    0.00000    0.80200    1.000
    O552     O        0.25810    0.50000    0.30200    1.000
    O553     O        0.75810    0.00000    0.69800    1.000
    O554     O        0.75810    0.50000    0.19800    1.000
    O555     O        0.25810    0.00000    0.19800    1.000
    O556     O        0.25810    0.50000    0.69800    1.000
    O557     O        0.24190    0.00000    0.30200    1.000
    O558     O        0.24190    0.50000    0.80200    1.000
    O559     O        0.74190    0.00000    0.80200    1.000
    O560     O        0.74190    0.50000    0.30200    1.000
    O561     O        0.00000    0.30200    0.75810    1.000
    O562     O        0.00000    0.80200    0.25810    1.000
    O563     O        0.50000    0.30200    0.25810    1.000
    O564     O        0.50000    0.80200    0.75810    1.000
    O565     O        0.00000    0.69800    0.24190    1.000
    O566     O        0.00000    0.19800    0.74190    1.000
    O567     O        0.50000    0.69800    0.74190    1.000
    O568     O        0.50000    0.19800    0.24190    1.000
    O569     O        0.00000    0.30200    0.24190    1.000
    O570     O        0.00000    0.80200    0.74190    1.000
    O571     O        0.50000    0.30200    0.74190    1.000
    O572     O        0.50000    0.80200    0.24190    1.000
    O573     O        0.00000    0.69800    0.75810    1.000
    O574     O        0.00000    0.19800    0.25810    1.000
    O575     O        0.50000    0.69800    0.25810    1.000
    O576     O        0.50000    0.19800    0.75810    1.000
    C385     C        0.23690    0.10910    0.10910    1.000
    C386     C        0.23690    0.60910    0.60910    1.000
    C387     C        0.73690    0.10910    0.60910    1.000
    C388     C        0.73690    0.60910    0.10910    1.000
    C389     C        0.76310    0.89090    0.10910    1.000
    C390     C        0.76310    0.39090    0.60910    1.000
    C391     C        0.26310    0.89090    0.60910    1.000
    C392     C        0.26310    0.39090    0.10910    1.000
    C393     C        0.76310    0.10910    0.89090    1.000
    C394     C        0.76310    0.60910    0.39090    1.000
    C395     C        0.26310    0.10910    0.39090    1.000
    C396     C        0.26310    0.60910    0.89090    1.000
    C397     C        0.23690    0.89090    0.89090    1.000
    C398     C        0.23690    0.39090    0.39090    1.000
    C399     C        0.73690    0.89090    0.39090    1.000
    C400     C        0.73690    0.39090    0.89090    1.000
    C401     C        0.10910    0.23690    0.10910    1.000
    C402     C        0.10910    0.73690    0.60910    1.000
    C403     C        0.60910    0.23690    0.60910    1.000
    C404     C        0.60910    0.73690    0.10910    1.000
    C405     C        0.10910    0.76310    0.89090    1.000
    C406     C        0.10910    0.26310    0.39090    1.000
    C407     C        0.60910    0.76310    0.39090    1.000
    C408     C        0.60910    0.26310    0.89090    1.000
    C409     C        0.89090    0.76310    0.10910    1.000
    C410     C        0.89090    0.26310    0.60910    1.000
    C411     C        0.39090    0.76310    0.60910    1.000
    C412     C        0.39090    0.26310    0.10910    1.000
    C413     C        0.89090    0.23690    0.89090    1.000
    C414     C        0.89090    0.73690    0.39090    1.000
    C415     C        0.39090    0.23690    0.39090    1.000
    C416     C        0.39090    0.73690    0.89090    1.000
    C417     C        0.10910    0.10910    0.23690    1.000
    C418     C        0.10910    0.60910    0.73690    1.000
    C419     C        0.60910    0.10910    0.73690    1.000
    C420     C        0.60910    0.60910    0.23690    1.000
    C421     C        0.89090    0.10910    0.76310    1.000
    C422     C        0.89090    0.60910    0.26310    1.000
    C423     C        0.39090    0.10910    0.26310    1.000
    C424     C        0.39090    0.60910    0.76310    1.000
    C425     C        0.10910    0.89090    0.76310    1.000
    C426     C        0.10910    0.39090    0.26310    1.000
    C427     C        0.60910    0.89090    0.26310    1.000
    C428     C        0.60910    0.39090    0.76310    1.000
    C429     C        0.89090    0.89090    0.23690    1.000
    C430     C        0.89090    0.39090    0.73690    1.000
    C431     C        0.39090    0.89090    0.73690    1.000
    C432     C        0.39090    0.39090    0.23690    1.000
    C433     C        0.10910    0.23690    0.89090    1.000
    C434     C        0.10910    0.73690    0.39090    1.000
    C435     C        0.60910    0.23690    0.39090    1.000
    C436     C        0.60910    0.73690    0.89090    1.000
    C437     C        0.89090    0.76310    0.89090    1.000
    C438     C        0.89090    0.26310    0.39090    1.000
    C439     C        0.39090    0.76310    0.39090    1.000
    C440     C        0.39090    0.26310    0.89090    1.000
    C441     C        0.10910    0.76310    0.10910    1.000
    C442     C        0.10910    0.26310    0.60910    1.000
    C443     C        0.60910    0.76310    0.60910    1.000
    C444     C        0.60910    0.26310    0.10910    1.000
    C445     C        0.89090    0.23690    0.10910    1.000
    C446     C        0.89090    0.73690    0.60910    1.000
    C447     C        0.39090    0.23690    0.60910    1.000
    C448     C        0.39090    0.73690    0.10910    1.000
    C449     C        0.23690    0.10910    0.89090    1.000
    C450     C        0.23690    0.60910    0.39090    1.000
    C451     C        0.73690    0.10910    0.39090    1.000
    C452     C        0.73690    0.60910    0.89090    1.000
    C453     C        0.76310    0.10910    0.10910    1.000
    C454     C        0.76310    0.60910    0.60910    1.000
    C455     C        0.26310    0.10910    0.60910    1.000
    C456     C        0.26310    0.60910    0.10910    1.000
    C457     C        0.76310    0.89090    0.89090    1.000
    C458     C        0.76310    0.39090    0.39090    1.000
    C459     C        0.26310    0.89090    0.39090    1.000
    C460     C        0.26310    0.39090    0.89090    1.000
    C461     C        0.23690    0.89090    0.10910    1.000
    C462     C        0.23690    0.39090    0.60910    1.000
    C463     C        0.73690    0.89090    0.60910    1.000
    C464     C        0.73690    0.39090    0.10910    1.000
    C465     C        0.10910    0.10910    0.76310    1.000
    C466     C        0.10910    0.60910    0.26310    1.000
    C467     C        0.60910    0.10910    0.26310    1.000
    C468     C        0.60910    0.60910    0.76310    1.000
    C469     C        0.10910    0.89090    0.23690    1.000
    C470     C        0.10910    0.39090    0.73690    1.000
    C471     C        0.60910    0.89090    0.73690    1.000
    C472     C        0.60910    0.39090    0.23690    1.000
    C473     C        0.89090    0.10910    0.23690    1.000
    C474     C        0.89090    0.60910    0.73690    1.000
    C475     C        0.39090    0.10910    0.73690    1.000
    C476     C        0.39090    0.60910    0.23690    1.000
    C477     C        0.89090    0.89090    0.76310    1.000
    C478     C        0.89090    0.39090    0.26310    1.000
    C479     C        0.39090    0.89090    0.26310    1.000
    C480     C        0.39090    0.39090    0.76310    1.000
