data_functionalizedCrystal
_audit_creation_method	'EQeq! by Chris Wilmer'
_symmetry_space_group_name_H-M	'P1'
_symmetry_Int_Tables_number	1
_symmetry_cell_setting	triclinic
loop_
_symmetry_equiv_pos_as_xyz
  x,y,z
_cell_length_a	17.4259
_cell_length_b	21.5209
_cell_length_c	26.8326
_cell_angle_alpha	90
_cell_angle_beta	90
_cell_angle_gamma	90
loop_
_atom_site_label
_atom_site_type_symbol
_atom_site_fract_x
_atom_site_fract_y
_atom_site_fract_z
_atom_site_charge
Mof_Cu	Cu	0.72792	0.84477	0.78173	0.911
Mof_Cu	Cu	0.75002	0.74751	0.8749	0.913
Mof_Cu	Cu	0.77344	0.14859	0.03312	0.888
Mof_Cu	Cu	0.77208	0.34477	0.71827	0.911
Mof_Cu	Cu	0.74998	0.24751	0.6251	0.913
Mof_Cu	Cu	0.72656	0.64859	0.46688	0.888
Mof_Cu	Cu	0.27208	0.65523	0.78173	0.911
Mof_Cu	Cu	0.24998	0.75249	0.8749	0.913
Mof_Cu	Cu	0.22656	0.35141	0.03312	0.888
Mof_Cu	Cu	0.22792	0.15523	0.71827	0.911
Mof_Cu	Cu	0.25002	0.25249	0.6251	0.913
Mof_Cu	Cu	0.27344	0.85141	0.46688	0.888
Mof_Cu	Cu	0.27208	0.15523	0.21827	0.911
Mof_Cu	Cu	0.24998	0.25249	0.1251	0.913
Mof_Cu	Cu	0.22656	0.85141	0.96688	0.888
Mof_Cu	Cu	0.22792	0.65523	0.28173	0.911
Mof_Cu	Cu	0.25002	0.75249	0.3749	0.913
Mof_Cu	Cu	0.27344	0.35141	0.53312	0.888
Mof_Cu	Cu	0.72792	0.34477	0.21827	0.911
Mof_Cu	Cu	0.75002	0.24751	0.1251	0.913
Mof_Cu	Cu	0.77344	0.64859	0.96688	0.888
Mof_Cu	Cu	0.77208	0.84477	0.28173	0.911
Mof_Cu	Cu	0.74998	0.74751	0.3749	0.914
Mof_Cu	Cu	0.72656	0.14859	0.53312	0.889
Mof_H 	H 	0.6705	0.753	0.8054	0.302
Mof_H 	H 	0.8274	0.7426	0.9452	0.246
Mof_H 	H 	0.7187	0.983	0.8375	0.014
Mof_H 	H 	0.7617	0.8857	0.96	0.001
Mof_H 	H 	0.6034	0.0129	0.9358	0.03
Mof_H 	H 	0.8241	0.0319	0.9649	-0.007
Mof_H 	H 	0.9414	0.8232	0.7528	0.016
Mof_H 	H 	0.9232	0.7004	0.8627	0.008
Mof_H 	H 	0.5809	0.7996	0.8892	0.059
Mof_H 	H 	0.5553	0.6738	0.996	0.014
Mof_H 	H 	0.7829	0.1109	0.7114	0.04
Mof_H 	H 	0.7562	0.0102	0.5878	0.002
Mof_H 	H 	0.6842	0.9697	0.7205	0.021
Mof_H 	H 	0.8999	0.9675	0.6753	0.041
Mof_H 	H 	0.744	0.8292	0.6595	0.007
Mof_H 	H 	0.6228	0.6747	0.6797	0.055
Mof_H 	H 	0.7486	0.6641	0.589	0.008
Mof_H 	H 	0.6073	0.8067	0.5736	0.019
Mof_H 	H 	0.8295	0.253	0.6946	0.302
Mof_H 	H 	0.6726	0.2426	0.5548	0.246
Mof_H 	H 	0.7813	0.483	0.6625	0.014
Mof_H 	H 	0.7383	0.3857	0.54	0.002
Mof_H 	H 	0.8966	0.5129	0.5642	0.029
Mof_H 	H 	0.6759	0.5319	0.5351	-0.008
Mof_H 	H 	0.5586	0.3232	0.7472	0.016
Mof_H 	H 	0.5768	0.2004	0.6373	0.008
Mof_H 	H 	0.9191	0.2996	0.6108	0.059
Mof_H 	H 	0.9447	0.1738	0.504	0.014
Mof_H 	H 	0.7171	0.6109	0.7886	0.04
Mof_H 	H 	0.7438	0.5102	0.9122	0.002
Mof_H 	H 	0.8158	0.4697	0.7795	0.021
Mof_H 	H 	0.6001	0.4675	0.8247	0.042
Mof_H 	H 	0.756	0.3292	0.8405	0.007
Mof_H 	H 	0.8772	0.1747	0.8203	0.055
Mof_H 	H 	0.7514	0.1641	0.911	0.008
Mof_H 	H 	0.8927	0.3067	0.9264	0.019
Mof_H 	H 	0.3295	0.747	0.8054	0.302
Mof_H 	H 	0.1726	0.7574	0.9452	0.246
Mof_H 	H 	0.2813	0.517	0.8375	0.014
Mof_H 	H 	0.2383	0.6143	0.96	0.002
Mof_H 	H 	0.3966	0.4871	0.9358	0.029
Mof_H 	H 	0.1759	0.4681	0.9649	-0.008
Mof_H 	H 	0.0586	0.6768	0.7528	0.016
Mof_H 	H 	0.0768	0.7996	0.8627	0.008
Mof_H 	H 	0.4191	0.7004	0.8892	0.059
Mof_H 	H 	0.4447	0.8262	0.996	0.014
Mof_H 	H 	0.2171	0.3891	0.7114	0.04
Mof_H 	H 	0.2438	0.4898	0.5878	0.002
Mof_H 	H 	0.3158	0.5303	0.7205	0.021
Mof_H 	H 	0.1001	0.5325	0.6753	0.041
Mof_H 	H 	0.256	0.6708	0.6595	0.007
Mof_H 	H 	0.3772	0.8253	0.6797	0.055
Mof_H 	H 	0.2514	0.8359	0.589	0.008
Mof_H 	H 	0.3927	0.6933	0.5736	0.019
Mof_H 	H 	0.1705	0.247	0.6946	0.302
Mof_H 	H 	0.3274	0.2574	0.5548	0.246
Mof_H 	H 	0.2187	0.017	0.6625	0.014
Mof_H 	H 	0.2617	0.1143	0.54	0.001
Mof_H 	H 	0.1034	0.9871	0.5642	0.029
Mof_H 	H 	0.3241	0.9681	0.5351	-0.008
Mof_H 	H 	0.4414	0.1768	0.7472	0.016
Mof_H 	H 	0.4232	0.2996	0.6373	0.008
Mof_H 	H 	0.0809	0.2004	0.6108	0.059
Mof_H 	H 	0.0553	0.3262	0.504	0.014
Mof_H 	H 	0.2829	0.8891	0.7886	0.04
Mof_H 	H 	0.2562	0.9898	0.9122	0.002
Mof_H 	H 	0.1842	0.0303	0.7795	0.021
Mof_H 	H 	0.3999	0.0325	0.8247	0.042
Mof_H 	H 	0.244	0.1708	0.8405	0.007
Mof_H 	H 	0.1228	0.3253	0.8203	0.055
Mof_H 	H 	0.2486	0.3359	0.911	0.008
Mof_H 	H 	0.1073	0.1933	0.9264	0.019
Mof_H 	H 	0.3295	0.247	0.1946	0.302
Mof_H 	H 	0.1726	0.2574	0.0548	0.246
Mof_H 	H 	0.2813	0.017	0.1625	0.014
Mof_H 	H 	0.2383	0.1143	0.04	0.001
Mof_H 	H 	0.3966	0.9871	0.0642	0.03
Mof_H 	H 	0.1759	0.9681	0.0351	-0.007
Mof_H 	H 	0.0586	0.1768	0.2472	0.016
Mof_H 	H 	0.0768	0.2996	0.1373	0.008
Mof_H 	H 	0.4191	0.2004	0.1108	0.059
Mof_H 	H 	0.4447	0.3262	0.004	0.014
Mof_H 	H 	0.2171	0.8891	0.2886	0.04
Mof_H 	H 	0.2438	0.9898	0.4122	0.002
Mof_H 	H 	0.3158	0.0303	0.2795	0.021
Mof_H 	H 	0.1001	0.0325	0.3247	0.041
Mof_H 	H 	0.256	0.1708	0.3405	0.007
Mof_H 	H 	0.3772	0.3253	0.3203	0.055
Mof_H 	H 	0.2514	0.3359	0.411	0.008
Mof_H 	H 	0.3927	0.1933	0.4264	0.019
Mof_H 	H 	0.1705	0.747	0.3054	0.302
Mof_H 	H 	0.3274	0.7574	0.4452	0.246
Mof_H 	H 	0.2187	0.517	0.3375	0.014
Mof_H 	H 	0.2617	0.6143	0.46	0.002
Mof_H 	H 	0.1034	0.4871	0.4358	0.029
Mof_H 	H 	0.3241	0.4681	0.4649	-0.008
Mof_H 	H 	0.4414	0.6768	0.2528	0.016
Mof_H 	H 	0.4232	0.7996	0.3627	0.008
Mof_H 	H 	0.0809	0.7004	0.3892	0.059
Mof_H 	H 	0.0553	0.8262	0.496	0.014
Mof_H 	H 	0.2829	0.3891	0.2114	0.04
Mof_H 	H 	0.2562	0.4898	0.0878	0.002
Mof_H 	H 	0.1842	0.5303	0.2205	0.021
Mof_H 	H 	0.3999	0.5325	0.1753	0.042
Mof_H 	H 	0.244	0.6708	0.1595	0.007
Mof_H 	H 	0.1228	0.8253	0.1797	0.055
Mof_H 	H 	0.2486	0.8359	0.089	0.008
Mof_H 	H 	0.1073	0.6933	0.0736	0.019
Mof_H 	H 	0.6705	0.253	0.1946	0.302
Mof_H 	H 	0.8274	0.2426	0.0548	0.246
Mof_H 	H 	0.7187	0.483	0.1625	0.014
Mof_H 	H 	0.7617	0.3857	0.04	0.002
Mof_H 	H 	0.6034	0.5129	0.0642	0.029
Mof_H 	H 	0.8241	0.5319	0.0351	-0.008
Mof_H 	H 	0.9414	0.3232	0.2472	0.016
Mof_H 	H 	0.9232	0.2004	0.1373	0.008
Mof_H 	H 	0.5809	0.2996	0.1108	0.059
Mof_H 	H 	0.5553	0.1738	0.004	0.014
Mof_H 	H 	0.7829	0.6109	0.2886	0.04
Mof_H 	H 	0.7562	0.5102	0.4122	0.002
Mof_H 	H 	0.6842	0.4697	0.2795	0.021
Mof_H 	H 	0.8999	0.4675	0.3247	0.041
Mof_H 	H 	0.744	0.3292	0.3405	0.007
Mof_H 	H 	0.6228	0.1747	0.3203	0.055
Mof_H 	H 	0.7486	0.1641	0.411	0.008
Mof_H 	H 	0.6073	0.3067	0.4264	0.019
Mof_H 	H 	0.8295	0.753	0.3054	0.302
Mof_H 	H 	0.6726	0.7426	0.4452	0.246
Mof_H 	H 	0.7813	0.983	0.3375	0.014
Mof_H 	H 	0.7383	0.8857	0.46	0.001
Mof_H 	H 	0.8966	0.0129	0.4358	0.029
Mof_H 	H 	0.6759	0.0319	0.4649	-0.008
Mof_H 	H 	0.5586	0.8232	0.2528	0.016
Mof_H 	H 	0.5768	0.7004	0.3627	0.008
Mof_H 	H 	0.9191	0.7996	0.3892	0.059
Mof_H 	H 	0.9447	0.6738	0.496	0.014
Mof_H 	H 	0.7171	0.1109	0.2114	0.04
Mof_H 	H 	0.7438	0.0102	0.0878	0.002
Mof_H 	H 	0.8158	0.9697	0.2205	0.021
Mof_H 	H 	0.6001	0.9675	0.1753	0.042
Mof_H 	H 	0.756	0.8292	0.1595	0.007
Mof_H 	H 	0.8772	0.6747	0.1797	0.055
Mof_H 	H 	0.7514	0.6641	0.089	0.008
Mof_H 	H 	0.8927	0.8067	0.0736	0.019
Mof_C 	C 	0.7309	0.94989	0.85956	0.115
Mof_C 	C 	0.7544	0.89657	0.92598	0.108
Mof_C 	C 	0.6502	0.0284	0.94897	0.101
Mof_C 	C 	0.7703	0.03855	0.96477	0.099
Mof_C 	C 	0.92078	0.7975	0.77829	0.106
Mof_C 	C 	0.911	0.73074	0.83817	0.102
Mof_C 	C 	0.59105	0.76812	0.91317	0.138
Mof_C 	C 	0.5772	0.69989	0.9713	0.121
Mof_C 	C 	0.7748	0.09952	0.67757	0.13
Mof_C 	C 	0.7599	0.04435	0.61003	0.109
Mof_C 	C 	0.7364	0.95825	0.71615	0.107
Mof_C 	C 	0.8534	0.95658	0.69154	0.11
Mof_C 	C 	0.7149	0.79696	0.67465	0.112
Mof_C 	C 	0.6495	0.7125	0.68569	0.124
Mof_C 	C 	0.7158	0.69461	0.57487	0.1
Mof_C 	C 	0.6395	0.7724	0.56603	0.101
Mof_C 	C 	0.566	0.8972	0.80729	0.168
Mof_C 	C 	0.4887	0.864	0.7942	0.813
Mof_C 	C 	0.7691	0.44989	0.64044	0.115
Mof_C 	C 	0.7456	0.39657	0.57402	0.108
Mof_C 	C 	0.8498	0.5284	0.55103	0.101
Mof_C 	C 	0.7297	0.53855	0.53523	0.099
Mof_C 	C 	0.57922	0.2975	0.72171	0.106
Mof_C 	C 	0.589	0.23074	0.66183	0.102
Mof_C 	C 	0.90895	0.26812	0.58683	0.138
Mof_C 	C 	0.9228	0.19989	0.5287	0.121
Mof_C 	C 	0.7252	0.59952	0.82243	0.13
Mof_C 	C 	0.7401	0.54435	0.88997	0.109
Mof_C 	C 	0.7636	0.45825	0.78385	0.107
Mof_C 	C 	0.6466	0.45658	0.80846	0.11
Mof_C 	C 	0.7851	0.29696	0.82535	0.112
Mof_C 	C 	0.8505	0.2125	0.81431	0.124
Mof_C 	C 	0.7842	0.19461	0.92513	0.1
Mof_C 	C 	0.8605	0.2724	0.93397	0.101
Mof_C 	C 	0.934	0.3972	0.69271	0.168
Mof_C 	C 	0.0113	0.364	0.7058	0.813
Mof_C 	C 	0.2691	0.55011	0.85956	0.115
Mof_C 	C 	0.2456	0.60343	0.92598	0.108
Mof_C 	C 	0.3498	0.4716	0.94897	0.101
Mof_C 	C 	0.2297	0.46145	0.96477	0.099
Mof_C 	C 	0.07922	0.7025	0.77829	0.106
Mof_C 	C 	0.089	0.76926	0.83817	0.102
Mof_C 	C 	0.40895	0.73188	0.91317	0.138
Mof_C 	C 	0.4228	0.80011	0.9713	0.121
Mof_C 	C 	0.2252	0.40048	0.67757	0.13
Mof_C 	C 	0.2401	0.45565	0.61003	0.109
Mof_C 	C 	0.2636	0.54175	0.71615	0.107
Mof_C 	C 	0.1466	0.54342	0.69154	0.11
Mof_C 	C 	0.2851	0.70304	0.67465	0.112
Mof_C 	C 	0.3505	0.7875	0.68569	0.124
Mof_C 	C 	0.2842	0.80539	0.57487	0.1
Mof_C 	C 	0.3605	0.7276	0.56603	0.101
Mof_C 	C 	0.434	0.6028	0.80729	0.168
Mof_C 	C 	0.5113	0.636	0.7942	0.813
Mof_C 	C 	0.2309	0.05011	0.64044	0.115
Mof_C 	C 	0.2544	0.10343	0.57402	0.108
Mof_C 	C 	0.1502	0.9716	0.55103	0.101
Mof_C 	C 	0.2703	0.96145	0.53523	0.099
Mof_C 	C 	0.42078	0.2025	0.72171	0.106
Mof_C 	C 	0.411	0.26926	0.66183	0.102
Mof_C 	C 	0.09105	0.23188	0.58683	0.138
Mof_C 	C 	0.0772	0.30011	0.5287	0.121
Mof_C 	C 	0.2748	0.90048	0.82243	0.13
Mof_C 	C 	0.2599	0.95565	0.88997	0.109
Mof_C 	C 	0.2364	0.04175	0.78385	0.107
Mof_C 	C 	0.3534	0.04342	0.80846	0.111
Mof_C 	C 	0.2149	0.20304	0.82535	0.112
Mof_C 	C 	0.1495	0.2875	0.81431	0.124
Mof_C 	C 	0.2158	0.30539	0.92513	0.1
Mof_C 	C 	0.1395	0.2276	0.93397	0.101
Mof_C 	C 	0.066	0.1028	0.69271	0.168
Mof_C 	C 	0.9887	0.136	0.7058	0.813
Mof_C 	C 	0.2691	0.05011	0.14044	0.115
Mof_C 	C 	0.2456	0.10343	0.07402	0.108
Mof_C 	C 	0.3498	0.9716	0.05103	0.101
Mof_C 	C 	0.2297	0.96145	0.03523	0.099
Mof_C 	C 	0.07922	0.2025	0.22171	0.106
Mof_C 	C 	0.089	0.26926	0.16183	0.102
Mof_C 	C 	0.40895	0.23188	0.08683	0.138
Mof_C 	C 	0.4228	0.30011	0.0287	0.121
Mof_C 	C 	0.2252	0.90048	0.32243	0.13
Mof_C 	C 	0.2401	0.95565	0.38997	0.109
Mof_C 	C 	0.2636	0.04175	0.28385	0.107
Mof_C 	C 	0.1466	0.04342	0.30846	0.11
Mof_C 	C 	0.2851	0.20304	0.32535	0.112
Mof_C 	C 	0.3505	0.2875	0.31431	0.124
Mof_C 	C 	0.2842	0.30539	0.42513	0.1
Mof_C 	C 	0.3605	0.2276	0.43397	0.101
Mof_C 	C 	0.434	0.1028	0.19271	0.168
Mof_C 	C 	0.5113	0.136	0.2058	0.813
Mof_C 	C 	0.2309	0.55011	0.35956	0.115
Mof_C 	C 	0.2544	0.60343	0.42598	0.108
Mof_C 	C 	0.1502	0.4716	0.44897	0.101
Mof_C 	C 	0.2703	0.46145	0.46477	0.099
Mof_C 	C 	0.42078	0.7025	0.27829	0.106
Mof_C 	C 	0.411	0.76926	0.33817	0.102
Mof_C 	C 	0.09105	0.73188	0.41317	0.138
Mof_C 	C 	0.0772	0.80011	0.4713	0.121
Mof_C 	C 	0.2748	0.40048	0.17757	0.13
Mof_C 	C 	0.2599	0.45565	0.11003	0.109
Mof_C 	C 	0.2364	0.54175	0.21615	0.107
Mof_C 	C 	0.3534	0.54342	0.19154	0.11
Mof_C 	C 	0.2149	0.70304	0.17465	0.112
Mof_C 	C 	0.1495	0.7875	0.18569	0.124
Mof_C 	C 	0.2158	0.80539	0.07487	0.1
Mof_C 	C 	0.1395	0.7276	0.06603	0.101
Mof_C 	C 	0.066	0.6028	0.30729	0.168
Mof_C 	C 	0.9887	0.636	0.2942	0.813
Mof_C 	C 	0.7309	0.44989	0.14044	0.115
Mof_C 	C 	0.7544	0.39657	0.07402	0.108
Mof_C 	C 	0.6502	0.5284	0.05103	0.101
Mof_C 	C 	0.7703	0.53855	0.03523	0.099
Mof_C 	C 	0.92078	0.2975	0.22171	0.106
Mof_C 	C 	0.911	0.23074	0.16183	0.102
Mof_C 	C 	0.59105	0.26812	0.08683	0.138
Mof_C 	C 	0.5772	0.19989	0.0287	0.121
Mof_C 	C 	0.7748	0.59952	0.32243	0.13
Mof_C 	C 	0.7599	0.54435	0.38997	0.109
Mof_C 	C 	0.7364	0.45825	0.28385	0.107
Mof_C 	C 	0.8534	0.45658	0.30846	0.11
Mof_C 	C 	0.7149	0.29696	0.32535	0.112
Mof_C 	C 	0.6495	0.2125	0.31431	0.124
Mof_C 	C 	0.7158	0.19461	0.42513	0.1
Mof_C 	C 	0.6395	0.2724	0.43397	0.101
Mof_C 	C 	0.566	0.3972	0.19271	0.168
Mof_C 	C 	0.4887	0.364	0.2058	0.813
Mof_C 	C 	0.7691	0.94989	0.35956	0.115
Mof_C 	C 	0.7456	0.89657	0.42598	0.108
Mof_C 	C 	0.8498	0.0284	0.44897	0.101
Mof_C 	C 	0.7297	0.03855	0.46477	0.099
Mof_C 	C 	0.57922	0.7975	0.27829	0.106
Mof_C 	C 	0.589	0.73074	0.33817	0.102
Mof_C 	C 	0.90895	0.76812	0.41317	0.138
Mof_C 	C 	0.9228	0.69989	0.4713	0.121
Mof_C 	C 	0.7252	0.09952	0.17757	0.13
Mof_C 	C 	0.7401	0.04435	0.11003	0.109
Mof_C 	C 	0.7636	0.95825	0.21615	0.107
Mof_C 	C 	0.6466	0.95658	0.19154	0.111
Mof_C 	C 	0.7851	0.79696	0.17465	0.112
Mof_C 	C 	0.8505	0.7125	0.18569	0.124
Mof_C 	C 	0.7842	0.69461	0.07487	0.1
Mof_C 	C 	0.8605	0.7724	0.06603	0.101
Mof_C 	C 	0.934	0.8972	0.30729	0.168
Mof_C 	C 	0.0113	0.864	0.2942	0.813
Mof_N 	N 	0.74723	0.89318	0.84651	-0.175
Mof_N 	N 	0.76207	0.85939	0.88938	-0.151
Mof_N 	N 	0.7343	0.95371	0.90954	-0.107
Mof_N 	N 	0.6552	0.07522	0.98003	-0.099
Mof_N 	N 	0.73381	0.0803	0.98959	-0.201
Mof_N 	N 	0.71764	0.00575	0.93842	-0.107
Mof_N 	N 	0.85081	0.79704	0.7922	-0.156
Mof_N 	N 	0.84384	0.75445	0.83103	-0.191
Mof_N 	N 	0.96145	0.75556	0.80559	-0.107
Mof_N 	N 	0.65488	0.74253	0.92008	-0.181
Mof_N 	N 	0.64821	0.69838	0.95773	-0.147
Mof_N 	N 	0.53845	0.74363	0.94548	-0.095
Mof_N 	N 	0.763	0.13829	0.64073	-0.141
Mof_N 	N 	0.75285	0.10234	0.59836	-0.182
Mof_N 	N 	0.77363	0.04104	0.65983	-0.099
Mof_N 	N 	0.76952	0.91134	0.73714	-0.189
Mof_N 	N 	0.84436	0.90893	0.72127	-0.099
Mof_N 	N 	0.78654	0.98789	0.68752	-0.1
Mof_N 	N 	0.7017	0.79088	0.72194	-0.177
Mof_N 	N 	0.6625	0.73683	0.72924	-0.07
Mof_N 	N 	0.6801	0.74941	0.6506	-0.105
Mof_N 	N 	0.69827	0.69943	0.52782	-0.195
Mof_N 	N 	0.6506	0.75072	0.52209	-0.119
Mof_N 	N 	0.6801	0.73962	0.59998	-0.105
Mof_N 	N 	0.75277	0.39318	0.65349	-0.175
Mof_N 	N 	0.73793	0.35939	0.61062	-0.151
Mof_N 	N 	0.7657	0.45371	0.59046	-0.106
Mof_N 	N 	0.8448	0.57522	0.51997	-0.099
Mof_N 	N 	0.76619	0.5803	0.51041	-0.202
Mof_N 	N 	0.78236	0.50575	0.56158	-0.107
Mof_N 	N 	0.64919	0.29704	0.7078	-0.156
Mof_N 	N 	0.65616	0.25445	0.66897	-0.191
Mof_N 	N 	0.53855	0.25556	0.69441	-0.107
Mof_N 	N 	0.84512	0.24253	0.57992	-0.181
Mof_N 	N 	0.85179	0.19838	0.54227	-0.147
Mof_N 	N 	0.96155	0.24363	0.55452	-0.095
Mof_N 	N 	0.737	0.63829	0.85927	-0.141
Mof_N 	N 	0.74715	0.60234	0.90164	-0.182
Mof_N 	N 	0.72637	0.54104	0.84017	-0.099
Mof_N 	N 	0.73048	0.41134	0.76286	-0.189
Mof_N 	N 	0.65564	0.40893	0.77873	-0.099
Mof_N 	N 	0.71346	0.48789	0.81248	-0.1
Mof_N 	N 	0.7983	0.29088	0.77806	-0.177
Mof_N 	N 	0.8375	0.23683	0.77076	-0.07
Mof_N 	N 	0.8199	0.24941	0.8494	-0.105
Mof_N 	N 	0.80173	0.19943	0.97218	-0.195
Mof_N 	N 	0.8494	0.25072	0.97791	-0.119
Mof_N 	N 	0.8199	0.23962	0.90002	-0.105
Mof_N 	N 	0.25277	0.60682	0.84651	-0.175
Mof_N 	N 	0.23793	0.64061	0.88938	-0.151
Mof_N 	N 	0.2657	0.54629	0.90954	-0.106
Mof_N 	N 	0.3448	0.42478	0.98003	-0.099
Mof_N 	N 	0.26619	0.4197	0.98959	-0.202
Mof_N 	N 	0.28236	0.49425	0.93842	-0.107
Mof_N 	N 	0.14919	0.70296	0.7922	-0.156
Mof_N 	N 	0.15616	0.74555	0.83103	-0.191
Mof_N 	N 	0.03855	0.74444	0.80559	-0.107
Mof_N 	N 	0.34512	0.75747	0.92008	-0.181
Mof_N 	N 	0.35179	0.80162	0.95773	-0.147
Mof_N 	N 	0.46155	0.75637	0.94548	-0.095
Mof_N 	N 	0.237	0.36171	0.64073	-0.141
Mof_N 	N 	0.24715	0.39766	0.59836	-0.182
Mof_N 	N 	0.22637	0.45896	0.65983	-0.099
Mof_N 	N 	0.23048	0.58866	0.73714	-0.189
Mof_N 	N 	0.15564	0.59107	0.72127	-0.099
Mof_N 	N 	0.21346	0.51211	0.68752	-0.1
Mof_N 	N 	0.2983	0.70912	0.72194	-0.177
Mof_N 	N 	0.3375	0.76317	0.72924	-0.07
Mof_N 	N 	0.3199	0.75059	0.6506	-0.105
Mof_N 	N 	0.30173	0.80057	0.52782	-0.195
Mof_N 	N 	0.3494	0.74928	0.52209	-0.119
Mof_N 	N 	0.3199	0.76038	0.59998	-0.105
Mof_N 	N 	0.24723	0.10682	0.65349	-0.175
Mof_N 	N 	0.26207	0.14061	0.61062	-0.151
Mof_N 	N 	0.2343	0.04629	0.59046	-0.106
Mof_N 	N 	0.1552	0.92478	0.51997	-0.099
Mof_N 	N 	0.23381	0.9197	0.51041	-0.202
Mof_N 	N 	0.21764	0.99425	0.56158	-0.107
Mof_N 	N 	0.35081	0.20296	0.7078	-0.156
Mof_N 	N 	0.34384	0.24555	0.66897	-0.191
Mof_N 	N 	0.46145	0.24444	0.69441	-0.107
Mof_N 	N 	0.15488	0.25747	0.57992	-0.181
Mof_N 	N 	0.14821	0.30162	0.54227	-0.147
Mof_N 	N 	0.03845	0.25637	0.55452	-0.095
Mof_N 	N 	0.263	0.86171	0.85927	-0.141
Mof_N 	N 	0.25285	0.89766	0.90164	-0.183
Mof_N 	N 	0.27363	0.95896	0.84017	-0.099
Mof_N 	N 	0.26952	0.08866	0.76286	-0.189
Mof_N 	N 	0.34436	0.09107	0.77873	-0.099
Mof_N 	N 	0.28654	0.01211	0.81248	-0.099
Mof_N 	N 	0.2017	0.20912	0.77806	-0.177
Mof_N 	N 	0.1625	0.26317	0.77076	-0.07
Mof_N 	N 	0.1801	0.25059	0.8494	-0.105
Mof_N 	N 	0.19827	0.30057	0.97218	-0.195
Mof_N 	N 	0.1506	0.24928	0.97791	-0.119
Mof_N 	N 	0.1801	0.26038	0.90002	-0.105
Mof_N 	N 	0.25277	0.10682	0.15349	-0.175
Mof_N 	N 	0.23793	0.14061	0.11062	-0.151
Mof_N 	N 	0.2657	0.04629	0.09046	-0.107
Mof_N 	N 	0.3448	0.92478	0.01997	-0.099
Mof_N 	N 	0.26619	0.9197	0.01041	-0.201
Mof_N 	N 	0.28236	0.99425	0.06158	-0.107
Mof_N 	N 	0.14919	0.20296	0.2078	-0.156
Mof_N 	N 	0.15616	0.24555	0.16897	-0.191
Mof_N 	N 	0.03855	0.24444	0.19441	-0.107
Mof_N 	N 	0.34512	0.25747	0.07992	-0.181
Mof_N 	N 	0.35179	0.30162	0.04227	-0.147
Mof_N 	N 	0.46155	0.25637	0.05452	-0.095
Mof_N 	N 	0.237	0.86171	0.35927	-0.141
Mof_N 	N 	0.24715	0.89766	0.40164	-0.182
Mof_N 	N 	0.22637	0.95896	0.34017	-0.099
Mof_N 	N 	0.23048	0.08866	0.26286	-0.189
Mof_N 	N 	0.15564	0.09107	0.27873	-0.099
Mof_N 	N 	0.21346	0.01211	0.31248	-0.1
Mof_N 	N 	0.2983	0.20912	0.27806	-0.177
Mof_N 	N 	0.3375	0.26317	0.27076	-0.07
Mof_N 	N 	0.3199	0.25059	0.3494	-0.105
Mof_N 	N 	0.30173	0.30057	0.47218	-0.195
Mof_N 	N 	0.3494	0.24928	0.47791	-0.119
Mof_N 	N 	0.3199	0.26038	0.40002	-0.105
Mof_N 	N 	0.24723	0.60682	0.34651	-0.175
Mof_N 	N 	0.26207	0.64061	0.38938	-0.151
Mof_N 	N 	0.2343	0.54629	0.40954	-0.106
Mof_N 	N 	0.1552	0.42478	0.48003	-0.099
Mof_N 	N 	0.23381	0.4197	0.48959	-0.202
Mof_N 	N 	0.21764	0.49425	0.43842	-0.107
Mof_N 	N 	0.35081	0.70296	0.2922	-0.156
Mof_N 	N 	0.34384	0.74555	0.33103	-0.191
Mof_N 	N 	0.46145	0.74444	0.30559	-0.107
Mof_N 	N 	0.15488	0.75747	0.42008	-0.181
Mof_N 	N 	0.14821	0.80162	0.45773	-0.147
Mof_N 	N 	0.03845	0.75637	0.44548	-0.095
Mof_N 	N 	0.263	0.36171	0.14073	-0.141
Mof_N 	N 	0.25285	0.39766	0.09836	-0.182
Mof_N 	N 	0.27363	0.45896	0.15983	-0.099
Mof_N 	N 	0.26952	0.58866	0.23714	-0.189
Mof_N 	N 	0.34436	0.59107	0.22127	-0.099
Mof_N 	N 	0.28654	0.51211	0.18752	-0.1
Mof_N 	N 	0.2017	0.70912	0.22194	-0.177
Mof_N 	N 	0.1625	0.76317	0.22924	-0.07
Mof_N 	N 	0.1801	0.75059	0.1506	-0.105
Mof_N 	N 	0.19827	0.80057	0.02782	-0.195
Mof_N 	N 	0.1506	0.74928	0.02209	-0.119
Mof_N 	N 	0.1801	0.76038	0.09998	-0.105
Mof_N 	N 	0.74723	0.39318	0.15349	-0.175
Mof_N 	N 	0.76207	0.35939	0.11062	-0.151
Mof_N 	N 	0.7343	0.45371	0.09046	-0.106
Mof_N 	N 	0.6552	0.57522	0.01997	-0.099
Mof_N 	N 	0.73381	0.5803	0.01041	-0.202
Mof_N 	N 	0.71764	0.50575	0.06158	-0.107
Mof_N 	N 	0.85081	0.29704	0.2078	-0.156
Mof_N 	N 	0.84384	0.25445	0.16897	-0.191
Mof_N 	N 	0.96145	0.25556	0.19441	-0.107
Mof_N 	N 	0.65488	0.24253	0.07992	-0.181
Mof_N 	N 	0.64821	0.19838	0.04227	-0.147
Mof_N 	N 	0.53845	0.24363	0.05452	-0.095
Mof_N 	N 	0.763	0.63829	0.35927	-0.141
Mof_N 	N 	0.75285	0.60234	0.40164	-0.182
Mof_N 	N 	0.77363	0.54104	0.34017	-0.099
Mof_N 	N 	0.76952	0.41134	0.26286	-0.189
Mof_N 	N 	0.84436	0.40893	0.27873	-0.099
Mof_N 	N 	0.78654	0.48789	0.31248	-0.1
Mof_N 	N 	0.7017	0.29088	0.27806	-0.177
Mof_N 	N 	0.6625	0.23683	0.27076	-0.07
Mof_N 	N 	0.6801	0.24941	0.3494	-0.105
Mof_N 	N 	0.69827	0.19943	0.47218	-0.195
Mof_N 	N 	0.6506	0.25072	0.47791	-0.119
Mof_N 	N 	0.6801	0.23962	0.40002	-0.105
Mof_N 	N 	0.75277	0.89318	0.34651	-0.175
Mof_N 	N 	0.73793	0.85939	0.38938	-0.151
Mof_N 	N 	0.7657	0.95371	0.40954	-0.106
Mof_N 	N 	0.8448	0.07522	0.48003	-0.099
Mof_N 	N 	0.76619	0.0803	0.48959	-0.202
Mof_N 	N 	0.78236	0.00575	0.43842	-0.107
Mof_N 	N 	0.64919	0.79704	0.2922	-0.156
Mof_N 	N 	0.65616	0.75445	0.33103	-0.191
Mof_N 	N 	0.53855	0.75556	0.30559	-0.107
Mof_N 	N 	0.84512	0.74253	0.42008	-0.181
Mof_N 	N 	0.85179	0.69838	0.45773	-0.147
Mof_N 	N 	0.96155	0.74363	0.44548	-0.095
Mof_N 	N 	0.737	0.13829	0.14073	-0.141
Mof_N 	N 	0.74715	0.10234	0.09836	-0.183
Mof_N 	N 	0.72637	0.04104	0.15983	-0.099
Mof_N 	N 	0.73048	0.91134	0.23714	-0.189
Mof_N 	N 	0.65564	0.90893	0.22127	-0.099
Mof_N 	N 	0.71346	0.98789	0.18752	-0.099
Mof_N 	N 	0.7983	0.79088	0.22194	-0.177
Mof_N 	N 	0.8375	0.73683	0.22924	-0.07
Mof_N 	N 	0.8199	0.74941	0.1506	-0.105
Mof_N 	N 	0.80173	0.69943	0.02782	-0.195
Mof_N 	N 	0.8494	0.75072	0.02209	-0.119
Mof_N 	N 	0.8199	0.73962	0.09998	-0.105
Mof_O 	O 	0.68598	0.78231	0.82379	-0.612
Mof_O 	O 	0.8139	0.71275	0.92617	-0.624
Mof_O 	O 	0.60538	0.90079	0.77412	-0.246
Mof_O 	O 	0.5666	0.9068	0.85326	-0.165
Mof_O 	O 	0.81402	0.28231	0.67621	-0.612
Mof_O 	O 	0.6861	0.21275	0.57383	-0.624
Mof_O 	O 	0.89462	0.40079	0.72588	-0.246
Mof_O 	O 	0.9334	0.4068	0.64674	-0.165
Mof_O 	O 	0.31402	0.71769	0.82379	-0.612
Mof_O 	O 	0.1861	0.78725	0.92617	-0.624
Mof_O 	O 	0.39462	0.59921	0.77412	-0.246
Mof_O 	O 	0.4334	0.5932	0.85326	-0.165
Mof_O 	O 	0.18598	0.21769	0.67621	-0.612
Mof_O 	O 	0.3139	0.28725	0.57383	-0.624
Mof_O 	O 	0.10538	0.09921	0.72588	-0.246
Mof_O 	O 	0.0666	0.0932	0.64674	-0.165
Mof_O 	O 	0.31402	0.21769	0.17621	-0.612
Mof_O 	O 	0.1861	0.28725	0.07383	-0.624
Mof_O 	O 	0.39462	0.09921	0.22588	-0.246
Mof_O 	O 	0.4334	0.0932	0.14674	-0.165
Mof_O 	O 	0.18598	0.71769	0.32379	-0.612
Mof_O 	O 	0.3139	0.78725	0.42617	-0.624
Mof_O 	O 	0.10538	0.59921	0.27412	-0.246
Mof_O 	O 	0.0666	0.5932	0.35326	-0.165
Mof_O 	O 	0.68598	0.28231	0.17621	-0.612
Mof_O 	O 	0.8139	0.21275	0.07383	-0.624
Mof_O 	O 	0.60538	0.40079	0.22588	-0.246
Mof_O 	O 	0.5666	0.4068	0.14674	-0.165
Mof_O 	O 	0.81402	0.78231	0.32379	-0.612
Mof_O 	O 	0.6861	0.71275	0.42617	-0.624
Mof_O 	O 	0.89462	0.90079	0.27412	-0.246
Mof_O 	O 	0.9334	0.9068	0.35326	-0.165
Mof_F 	F 	0.4609	0.8324	0.8325	-0.476
Mof_F 	F 	0.4356	0.904	0.7791	-0.486
Mof_F 	F 	0.4987	0.823	0.7569	-0.445
Mof_F 	F 	0.0391	0.3324	0.6675	-0.476
Mof_F 	F 	0.0644	0.404	0.7209	-0.486
Mof_F 	F 	0.0013	0.323	0.7431	-0.445
Mof_F 	F 	0.5391	0.6676	0.8325	-0.476
Mof_F 	F 	0.5644	0.596	0.7791	-0.486
Mof_F 	F 	0.5013	0.677	0.7569	-0.445
Mof_F 	F 	0.9609	0.1676	0.6675	-0.476
Mof_F 	F 	0.9356	0.096	0.7209	-0.486
Mof_F 	F 	0.9987	0.177	0.7431	-0.445
Mof_F 	F 	0.5391	0.1676	0.1675	-0.476
Mof_F 	F 	0.5644	0.096	0.2209	-0.486
Mof_F 	F 	0.5013	0.177	0.2431	-0.445
Mof_F 	F 	0.9609	0.6676	0.3325	-0.476
Mof_F 	F 	0.9356	0.596	0.2791	-0.486
Mof_F 	F 	0.9987	0.677	0.2569	-0.445
Mof_F 	F 	0.4609	0.3324	0.1675	-0.476
Mof_F 	F 	0.4356	0.404	0.2209	-0.486
Mof_F 	F 	0.4987	0.323	0.2431	-0.445
Mof_F 	F 	0.0391	0.8324	0.3325	-0.476
Mof_F 	F 	0.0644	0.904	0.2791	-0.486
Mof_F 	F 	0.0013	0.823	0.2569	-0.445
_end
