# CIF file generated by openbabel 3.1.0, see https://openbabel.org
data_I
_chemical_name_common 'image0'
_cell_length_a 12.3215
_cell_length_b 30.711
_cell_length_c 22.7224
_cell_angle_alpha 90
_cell_angle_beta 94.229
_cell_angle_gamma 90
_space_group_name_H-M_alt 'P 1'
_space_group_name_Hall 'P 1'
loop_
    _symmetry_equiv_pos_as_xyz
    x,y,z
loop_
    _atom_site_label
    _atom_site_type_symbol
    _atom_site_fract_x
    _atom_site_fract_y
    _atom_site_fract_z
    _atom_site_occupancy
    Zn1      Zn       0.74016    0.91717    0.66102    1.000
    Zn2      Zn       0.80535    0.63082    0.48792    1.000
    O1       O        0.44770    0.10650    0.47561    1.000
    O2       O        0.40140    0.09769    0.38137    1.000
    O3       O        0.67480    0.08083    0.23754    1.000
    O4       O        0.84170    0.07690    0.26643    1.000
    O5       O        0.17420    0.09824    0.49172    1.000
    O6       O        0.22340    0.06107    0.57188    1.000
    O7       O        0.94490    0.96293    0.65541    1.000
    O8       O        0.77430    0.97000    0.62153    1.000
    O9       O        0.82080    0.86344    0.65315    1.000
    O10      O        0.74300    0.82754    0.57606    1.000
    O11      O        0.82800    0.67482    0.54896    1.000
    O12      O        0.93000    0.63838    0.61442    1.000
    C1       C        0.47070    0.09827    0.42388    1.000
    C2       C        0.58480    0.08911    0.41131    1.000
    C3       C        0.66460    0.08117    0.45614    1.000
    H1       H        0.64700    0.08290    0.49520    1.000
    C4       C        0.77130    0.07058    0.44395    1.000
    C5       C        0.79570    0.07015    0.38570    1.000
    H2       H        0.86670    0.06420    0.37680    1.000
    C6       C        0.71760    0.07829    0.34022    1.000
    C7       C        0.61220    0.08742    0.35279    1.000
    H3       H        0.55930    0.09250    0.32220    1.000
    C8       C        0.74840    0.07770    0.27720    1.000
    C9       C        0.85360    0.05767    0.49202    1.000
    C10      C        0.82540    0.02917    0.53570    1.000
    H4       H        0.75380    0.01980    0.53650    1.000
    C11      C        0.90350    0.01454    0.57828    1.000
    C12      C        0.87390    0.98005    0.62243    1.000
    C13      C        0.00930    0.02876    0.57787    1.000
    H5       H        0.06110    0.01910    0.60680    1.000
    C14      C        0.03990    0.05755    0.53462    1.000
    C15      C        0.96090    0.07168    0.49139    1.000
    H6       H        0.98030    0.09060    0.46200    1.000
    C16      C        0.15500    0.07303    0.53310    1.000
    C17      C        0.80270    0.82992    0.62321    1.000
    C18      C        0.85390    0.78835    0.64536    1.000
    C19      C        0.91570    0.78774    0.70020    1.000
    H7       H        0.92210    0.81300    0.72270    1.000
    C20      C        0.96680    0.75017    0.72087    1.000
    C21      C        0.95500    0.71275    0.68722    1.000
    H8       H        0.98850    0.68720    0.70080    1.000
    C22      C        0.89350    0.71278    0.63316    1.000
    C23      C        0.84400    0.75038    0.61316    1.000
    H9       H        0.80280    0.75030    0.57720    1.000
    C24      C        0.88320    0.67132    0.59678    1.000
    Zn3      Zn       0.24016    0.41717    0.66102    1.000
    Zn4      Zn       0.30535    0.13082    0.48792    1.000
    O13      O        0.94770    0.60650    0.47561    1.000
    O14      O        0.90140    0.59769    0.38137    1.000
    O15      O        0.17480    0.58083    0.23754    1.000
    O16      O        0.34170    0.57690    0.26643    1.000
    O17      O        0.67420    0.59824    0.49172    1.000
    O18      O        0.72340    0.56107    0.57188    1.000
    O19      O        0.44490    0.46293    0.65541    1.000
    O20      O        0.27430    0.47000    0.62153    1.000
    O21      O        0.32080    0.36344    0.65315    1.000
    O22      O        0.24300    0.32754    0.57606    1.000
    O23      O        0.32800    0.17482    0.54896    1.000
    O24      O        0.43000    0.13838    0.61442    1.000
    C25      C        0.97070    0.59827    0.42388    1.000
    C26      C        0.08480    0.58911    0.41131    1.000
    C27      C        0.16460    0.58117    0.45614    1.000
    H10      H        0.14700    0.58290    0.49520    1.000
    C28      C        0.27130    0.57058    0.44395    1.000
    C29      C        0.29570    0.57015    0.38570    1.000
    H11      H        0.36670    0.56420    0.37680    1.000
    C30      C        0.21760    0.57829    0.34022    1.000
    C31      C        0.11220    0.58742    0.35279    1.000
    H12      H        0.05930    0.59250    0.32220    1.000
    C32      C        0.24840    0.57770    0.27720    1.000
    C33      C        0.35360    0.55767    0.49202    1.000
    C34      C        0.32540    0.52917    0.53570    1.000
    H13      H        0.25380    0.51980    0.53650    1.000
    C35      C        0.40350    0.51454    0.57828    1.000
    C36      C        0.37390    0.48005    0.62243    1.000
    C37      C        0.50930    0.52876    0.57787    1.000
    H14      H        0.56110    0.51910    0.60680    1.000
    C38      C        0.53990    0.55755    0.53462    1.000
    C39      C        0.46090    0.57168    0.49139    1.000
    H15      H        0.48030    0.59060    0.46200    1.000
    C40      C        0.65500    0.57303    0.53310    1.000
    C41      C        0.30270    0.32992    0.62321    1.000
    C42      C        0.35390    0.28835    0.64536    1.000
    C43      C        0.41570    0.28774    0.70020    1.000
    H16      H        0.42210    0.31300    0.72270    1.000
    C44      C        0.46680    0.25017    0.72087    1.000
    C45      C        0.45500    0.21275    0.68722    1.000
    H17      H        0.48850    0.18720    0.70080    1.000
    C46      C        0.39350    0.21278    0.63316    1.000
    C47      C        0.34400    0.25038    0.61316    1.000
    H18      H        0.30280    0.25030    0.57720    1.000
    C48      C        0.38320    0.17132    0.59678    1.000
    Zn5      Zn       0.25984    0.91717    0.83898    1.000
    Zn6      Zn       0.19465    0.63082    0.01208    1.000
    O25      O        0.55230    0.10650    0.02439    1.000
    O26      O        0.59860    0.09769    0.11863    1.000
    O27      O        0.32520    0.08083    0.26246    1.000
    O28      O        0.15830    0.07690    0.23357    1.000
    O29      O        0.82580    0.09824    0.00828    1.000
    O30      O        0.77660    0.06107    0.92812    1.000
    O31      O        0.05510    0.96293    0.84459    1.000
    O32      O        0.22570    0.97000    0.87847    1.000
    O33      O        0.17920    0.86344    0.84685    1.000
    O34      O        0.25700    0.82754    0.92394    1.000
    O35      O        0.17200    0.67482    0.95104    1.000
    O36      O        0.07000    0.63838    0.88558    1.000
    C49      C        0.52930    0.09827    0.07612    1.000
    C50      C        0.41520    0.08911    0.08869    1.000
    C51      C        0.33540    0.08117    0.04386    1.000
    H19      H        0.35300    0.08290    0.00480    1.000
    C52      C        0.22870    0.07058    0.05605    1.000
    C53      C        0.20430    0.07015    0.11430    1.000
    H20      H        0.13330    0.06420    0.12320    1.000
    C54      C        0.28240    0.07829    0.15978    1.000
    C55      C        0.38780    0.08742    0.14721    1.000
    H21      H        0.44070    0.09250    0.17780    1.000
    C56      C        0.25160    0.07770    0.22280    1.000
    C57      C        0.14640    0.05767    0.00798    1.000
    C58      C        0.17460    0.02917    0.96430    1.000
    H22      H        0.24620    0.01980    0.96350    1.000
    C59      C        0.09650    0.01454    0.92172    1.000
    C60      C        0.12610    0.98005    0.87757    1.000
    C61      C        0.99070    0.02876    0.92213    1.000
    H23      H        0.93890    0.01910    0.89320    1.000
    C62      C        0.96010    0.05755    0.96538    1.000
    C63      C        0.03910    0.07168    0.00861    1.000
    H24      H        0.01970    0.09060    0.03800    1.000
    C64      C        0.84500    0.07303    0.96690    1.000
    C65      C        0.19730    0.82992    0.87679    1.000
    C66      C        0.14610    0.78835    0.85464    1.000
    C67      C        0.08430    0.78774    0.79980    1.000
    H25      H        0.07790    0.81300    0.77730    1.000
    C68      C        0.03320    0.75017    0.77913    1.000
    C69      C        0.04500    0.71275    0.81278    1.000
    H26      H        0.01150    0.68720    0.79920    1.000
    C70      C        0.10650    0.71278    0.86684    1.000
    C71      C        0.15600    0.75038    0.88684    1.000
    H27      H        0.19720    0.75030    0.92280    1.000
    C72      C        0.11680    0.67132    0.90322    1.000
    Zn7      Zn       0.75984    0.41717    0.83898    1.000
    Zn8      Zn       0.69465    0.13082    0.01208    1.000
    O37      O        0.05230    0.60650    0.02439    1.000
    O38      O        0.09860    0.59769    0.11863    1.000
    O39      O        0.82520    0.58083    0.26246    1.000
    O40      O        0.65830    0.57690    0.23357    1.000
    O41      O        0.32580    0.59824    0.00828    1.000
    O42      O        0.27660    0.56107    0.92812    1.000
    O43      O        0.55510    0.46293    0.84459    1.000
    O44      O        0.72570    0.47000    0.87847    1.000
    O45      O        0.67920    0.36344    0.84685    1.000
    O46      O        0.75700    0.32754    0.92394    1.000
    O47      O        0.67200    0.17482    0.95104    1.000
    O48      O        0.57000    0.13838    0.88558    1.000
    C73      C        0.02930    0.59827    0.07612    1.000
    C74      C        0.91520    0.58911    0.08869    1.000
    C75      C        0.83540    0.58117    0.04386    1.000
    H28      H        0.85300    0.58290    0.00480    1.000
    C76      C        0.72870    0.57058    0.05605    1.000
    C77      C        0.70430    0.57015    0.11430    1.000
    H29      H        0.63330    0.56420    0.12320    1.000
    C78      C        0.78240    0.57829    0.15978    1.000
    C79      C        0.88780    0.58742    0.14721    1.000
    H30      H        0.94070    0.59250    0.17780    1.000
    C80      C        0.75160    0.57770    0.22280    1.000
    C81      C        0.64640    0.55767    0.00798    1.000
    C82      C        0.67460    0.52917    0.96430    1.000
    H31      H        0.74620    0.51980    0.96350    1.000
    C83      C        0.59650    0.51454    0.92172    1.000
    C84      C        0.62610    0.48005    0.87757    1.000
    C85      C        0.49070    0.52876    0.92213    1.000
    H32      H        0.43890    0.51910    0.89320    1.000
    C86      C        0.46010    0.55755    0.96538    1.000
    C87      C        0.53910    0.57168    0.00861    1.000
    H33      H        0.51970    0.59060    0.03800    1.000
    C88      C        0.34500    0.57303    0.96690    1.000
    C89      C        0.69730    0.32992    0.87679    1.000
    C90      C        0.64610    0.28835    0.85464    1.000
    C91      C        0.58430    0.28774    0.79980    1.000
    H34      H        0.57790    0.31300    0.77730    1.000
    C92      C        0.53320    0.25017    0.77913    1.000
    C93      C        0.54500    0.21275    0.81278    1.000
    H35      H        0.51150    0.18720    0.79920    1.000
    C94      C        0.60650    0.21278    0.86684    1.000
    C95      C        0.65600    0.25038    0.88684    1.000
    H36      H        0.69720    0.25030    0.92280    1.000
    C96      C        0.61680    0.17132    0.90322    1.000
    Zn9      Zn       0.25984    0.08283    0.33898    1.000
    Zn10     Zn       0.19465    0.36918    0.51208    1.000
    O49      O        0.55230    0.89350    0.52439    1.000
    O50      O        0.59860    0.90231    0.61863    1.000
    O51      O        0.32520    0.91917    0.76246    1.000
    O52      O        0.15830    0.92310    0.73357    1.000
    O53      O        0.82580    0.90176    0.50828    1.000
    O54      O        0.77660    0.93893    0.42812    1.000
    O55      O        0.05510    0.03707    0.34459    1.000
    O56      O        0.22570    0.03000    0.37847    1.000
    O57      O        0.17920    0.13656    0.34685    1.000
    O58      O        0.25700    0.17246    0.42394    1.000
    O59      O        0.17200    0.32518    0.45104    1.000
    O60      O        0.07000    0.36162    0.38558    1.000
    C97      C        0.52930    0.90173    0.57612    1.000
    C98      C        0.41520    0.91089    0.58869    1.000
    C99      C        0.33540    0.91883    0.54386    1.000
    H37      H        0.35300    0.91710    0.50480    1.000
    C100     C        0.22870    0.92942    0.55605    1.000
    C101     C        0.20430    0.92985    0.61430    1.000
    H38      H        0.13330    0.93580    0.62320    1.000
    C102     C        0.28240    0.92171    0.65978    1.000
    C103     C        0.38780    0.91258    0.64721    1.000
    H39      H        0.44070    0.90750    0.67780    1.000
    C104     C        0.25160    0.92230    0.72280    1.000
    C105     C        0.14640    0.94233    0.50798    1.000
    C106     C        0.17460    0.97083    0.46430    1.000
    H40      H        0.24620    0.98020    0.46350    1.000
    C107     C        0.09650    0.98546    0.42172    1.000
    C108     C        0.12610    0.01995    0.37757    1.000
    C109     C        0.99070    0.97124    0.42213    1.000
    H41      H        0.93890    0.98090    0.39320    1.000
    C110     C        0.96010    0.94245    0.46538    1.000
    C111     C        0.03910    0.92832    0.50861    1.000
    H42      H        0.01970    0.90940    0.53800    1.000
    C112     C        0.84500    0.92697    0.46690    1.000
    C113     C        0.19730    0.17008    0.37679    1.000
    C114     C        0.14610    0.21165    0.35464    1.000
    C115     C        0.08430    0.21226    0.29980    1.000
    H43      H        0.07790    0.18700    0.27730    1.000
    C116     C        0.03320    0.24983    0.27913    1.000
    C117     C        0.04500    0.28725    0.31278    1.000
    H44      H        0.01150    0.31280    0.29920    1.000
    C118     C        0.10650    0.28722    0.36684    1.000
    C119     C        0.15600    0.24962    0.38684    1.000
    H45      H        0.19720    0.24970    0.42280    1.000
    C120     C        0.11680    0.32868    0.40322    1.000
    Zn11     Zn       0.75984    0.58283    0.33898    1.000
    Zn12     Zn       0.69465    0.86918    0.51208    1.000
    O61      O        0.05230    0.39350    0.52439    1.000
    O62      O        0.09860    0.40231    0.61863    1.000
    O63      O        0.82520    0.41917    0.76246    1.000
    O64      O        0.65830    0.42310    0.73357    1.000
    O65      O        0.32580    0.40176    0.50828    1.000
    O66      O        0.27660    0.43893    0.42812    1.000
    O67      O        0.55510    0.53707    0.34459    1.000
    O68      O        0.72570    0.53000    0.37847    1.000
    O69      O        0.67920    0.63656    0.34685    1.000
    O70      O        0.75700    0.67246    0.42394    1.000
    O71      O        0.67200    0.82518    0.45104    1.000
    O72      O        0.57000    0.86162    0.38558    1.000
    C121     C        0.02930    0.40173    0.57612    1.000
    C122     C        0.91520    0.41089    0.58869    1.000
    C123     C        0.83540    0.41883    0.54386    1.000
    H46      H        0.85300    0.41710    0.50480    1.000
    C124     C        0.72870    0.42942    0.55605    1.000
    C125     C        0.70430    0.42985    0.61430    1.000
    H47      H        0.63330    0.43580    0.62320    1.000
    C126     C        0.78240    0.42171    0.65978    1.000
    C127     C        0.88780    0.41258    0.64721    1.000
    H48      H        0.94070    0.40750    0.67780    1.000
    C128     C        0.75160    0.42230    0.72280    1.000
    C129     C        0.64640    0.44233    0.50798    1.000
    C130     C        0.67460    0.47083    0.46430    1.000
    H49      H        0.74620    0.48020    0.46350    1.000
    C131     C        0.59650    0.48546    0.42172    1.000
    C132     C        0.62610    0.51995    0.37757    1.000
    C133     C        0.49070    0.47124    0.42213    1.000
    H50      H        0.43890    0.48090    0.39320    1.000
    C134     C        0.46010    0.44245    0.46538    1.000
    C135     C        0.53910    0.42832    0.50861    1.000
    H51      H        0.51970    0.40940    0.53800    1.000
    C136     C        0.34500    0.42697    0.46690    1.000
    C137     C        0.69730    0.67008    0.37679    1.000
    C138     C        0.64610    0.71165    0.35464    1.000
    C139     C        0.58430    0.71226    0.29980    1.000
    H52      H        0.57790    0.68700    0.27730    1.000
    C140     C        0.53320    0.74983    0.27913    1.000
    C141     C        0.54500    0.78725    0.31278    1.000
    H53      H        0.51150    0.81280    0.29920    1.000
    C142     C        0.60650    0.78722    0.36684    1.000
    C143     C        0.65600    0.74962    0.38684    1.000
    H54      H        0.69720    0.74970    0.42280    1.000
    C144     C        0.61680    0.82868    0.40322    1.000
    Zn13     Zn       0.74016    0.08283    0.16102    1.000
    Zn14     Zn       0.80535    0.36918    0.98792    1.000
    O73      O        0.44770    0.89350    0.97561    1.000
    O74      O        0.40140    0.90231    0.88137    1.000
    O75      O        0.67480    0.91917    0.73754    1.000
    O76      O        0.84170    0.92310    0.76643    1.000
    O77      O        0.17420    0.90176    0.99172    1.000
    O78      O        0.22340    0.93893    0.07188    1.000
    O79      O        0.94490    0.03707    0.15541    1.000
    O80      O        0.77430    0.03000    0.12153    1.000
    O81      O        0.82080    0.13656    0.15315    1.000
    O82      O        0.74300    0.17246    0.07606    1.000
    O83      O        0.82800    0.32518    0.04896    1.000
    O84      O        0.93000    0.36162    0.11442    1.000
    C145     C        0.47070    0.90173    0.92388    1.000
    C146     C        0.58480    0.91089    0.91131    1.000
    C147     C        0.66460    0.91883    0.95614    1.000
    H55      H        0.64700    0.91710    0.99520    1.000
    C148     C        0.77130    0.92942    0.94395    1.000
    C149     C        0.79570    0.92985    0.88570    1.000
    H56      H        0.86670    0.93580    0.87680    1.000
    C150     C        0.71760    0.92171    0.84022    1.000
    C151     C        0.61220    0.91258    0.85279    1.000
    H57      H        0.55930    0.90750    0.82220    1.000
    C152     C        0.74840    0.92230    0.77720    1.000
    C153     C        0.85360    0.94233    0.99202    1.000
    C154     C        0.82540    0.97083    0.03570    1.000
    H58      H        0.75380    0.98020    0.03650    1.000
    C155     C        0.90350    0.98546    0.07828    1.000
    C156     C        0.87390    0.01995    0.12243    1.000
    C157     C        0.00930    0.97124    0.07787    1.000
    H59      H        0.06110    0.98090    0.10680    1.000
    C158     C        0.03990    0.94245    0.03462    1.000
    C159     C        0.96090    0.92832    0.99139    1.000
    H60      H        0.98030    0.90940    0.96200    1.000
    C160     C        0.15500    0.92697    0.03310    1.000
    C161     C        0.80270    0.17008    0.12321    1.000
    C162     C        0.85390    0.21165    0.14536    1.000
    C163     C        0.91570    0.21226    0.20020    1.000
    H61      H        0.92210    0.18700    0.22270    1.000
    C164     C        0.96680    0.24983    0.22087    1.000
    C165     C        0.95500    0.28725    0.18722    1.000
    H62      H        0.98850    0.31280    0.20080    1.000
    C166     C        0.89350    0.28722    0.13316    1.000
    C167     C        0.84400    0.24962    0.11316    1.000
    H63      H        0.80280    0.24970    0.07720    1.000
    C168     C        0.88320    0.32868    0.09678    1.000
    Zn15     Zn       0.24016    0.58283    0.16102    1.000
    Zn16     Zn       0.30535    0.86918    0.98792    1.000
    O85      O        0.94770    0.39350    0.97561    1.000
    O86      O        0.90140    0.40231    0.88137    1.000
    O87      O        0.17480    0.41917    0.73754    1.000
    O88      O        0.34170    0.42310    0.76643    1.000
    O89      O        0.67420    0.40176    0.99172    1.000
    O90      O        0.72340    0.43893    0.07188    1.000
    O91      O        0.44490    0.53707    0.15541    1.000
    O92      O        0.27430    0.53000    0.12153    1.000
    O93      O        0.32080    0.63656    0.15315    1.000
    O94      O        0.24300    0.67246    0.07606    1.000
    O95      O        0.32800    0.82518    0.04896    1.000
    O96      O        0.43000    0.86162    0.11442    1.000
    C169     C        0.97070    0.40173    0.92388    1.000
    C170     C        0.08480    0.41089    0.91131    1.000
    C171     C        0.16460    0.41883    0.95614    1.000
    H64      H        0.14700    0.41710    0.99520    1.000
    C172     C        0.27130    0.42942    0.94395    1.000
    C173     C        0.29570    0.42985    0.88570    1.000
    H65      H        0.36670    0.43580    0.87680    1.000
    C174     C        0.21760    0.42171    0.84022    1.000
    C175     C        0.11220    0.41258    0.85279    1.000
    H66      H        0.05930    0.40750    0.82220    1.000
    C176     C        0.24840    0.42230    0.77720    1.000
    C177     C        0.35360    0.44233    0.99202    1.000
    C178     C        0.32540    0.47083    0.03570    1.000
    H67      H        0.25380    0.48020    0.03650    1.000
    C179     C        0.40350    0.48546    0.07828    1.000
    C180     C        0.37390    0.51995    0.12243    1.000
    C181     C        0.50930    0.47124    0.07787    1.000
    H68      H        0.56110    0.48090    0.10680    1.000
    C182     C        0.53990    0.44245    0.03462    1.000
    C183     C        0.46090    0.42832    0.99139    1.000
    H69      H        0.48030    0.40940    0.96200    1.000
    C184     C        0.65500    0.42697    0.03310    1.000
    C185     C        0.30270    0.67008    0.12321    1.000
    C186     C        0.35390    0.71165    0.14536    1.000
    C187     C        0.41570    0.71226    0.20020    1.000
    H70      H        0.42210    0.68700    0.22270    1.000
    C188     C        0.46680    0.74983    0.22087    1.000
    C189     C        0.45500    0.78725    0.18722    1.000
    H71      H        0.48850    0.81280    0.20080    1.000
    C190     C        0.39350    0.78722    0.13316    1.000
    C191     C        0.34400    0.74962    0.11316    1.000
    H72      H        0.30280    0.74970    0.07720    1.000
    C192     C        0.38320    0.82868    0.09678    1.000
    Zn17     Zn       0.00000    0.94840    0.75000    1.000
    Zn18     Zn       0.50000    0.44840    0.75000    1.000
    Zn19     Zn       0.00000    0.05160    0.25000    1.000
    Zn20     Zn       0.50000    0.55160    0.25000    1.000
