data_functionalizedCrystal
_audit_creation_method	'EQeq! by Chris Wilmer'
_symmetry_space_group_name_H-M	'P1'
_symmetry_Int_Tables_number	1
_symmetry_cell_setting	triclinic
loop_
_symmetry_equiv_pos_as_xyz
  x,y,z
_cell_length_a	19.1786
_cell_length_b	19.1786
_cell_length_c	27.926
_cell_angle_alpha	90
_cell_angle_beta	90
_cell_angle_gamma	120
loop_
_atom_site_label
_atom_site_type_symbol
_atom_site_fract_x
_atom_site_fract_y
_atom_site_fract_z
_atom_site_charge
Mof_C 	C 	0.2951	0.7818	0.6839	0.418
Mof_C 	C 	0.2802	0.8265	0.6442	-0.151
Mof_C 	C 	0.2518	0.909	0.5713	0.066
Mof_C 	C 	0.328	0.9374	0.5895	-0.136
Mof_H 	H 	0.3707	0.9846	0.5773	0.076
Mof_C 	C 	0.2063	0.7979	0.6253	0.08
Mof_H 	H 	0.1644	0.7492	0.6364	0.017
Mof_C 	C 	0.1907	0.838	0.5902	-0.141
Mof_H 	H 	0.1384	0.8173	0.5789	0.078
Mof_C 	C 	0.3421	0.8966	0.626	0.072
Mof_H 	H 	0.3939	0.9171	0.6381	0.019
Mof_O 	O 	0.3659	0.8126	0.69829	-0.432
Mof_O 	O 	0.2356	0.7196	0.69866	-0.435
Mof_C 	C 	0.2366	0.955	0.5342	0.031
Mof_C 	C 	0.1643	0.9541	0.5331	-0.1
Mof_H 	H 	0.1242	0.9224	0.5549	0.065
Mof_C 	C 	0.2182	0.5133	0.6839	0.419
Mof_C 	C 	0.1735	0.4537	0.6442	-0.15
Mof_C 	C 	0.091	0.3428	0.5713	0.067
Mof_C 	C 	0.0626	0.3906	0.5895	-0.135
Mof_H 	H 	0.0154	0.3861	0.5773	0.077
Mof_C 	C 	0.2021	0.4084	0.6253	0.08
Mof_H 	H 	0.2508	0.4152	0.6364	0.017
Mof_C 	C 	0.162	0.3527	0.5902	-0.141
Mof_H 	H 	0.1827	0.3211	0.5789	0.078
Mof_C 	C 	0.1034	0.4455	0.626	0.072
Mof_H 	H 	0.0829	0.4768	0.6381	0.019
Mof_O 	O 	0.1874	0.5533	0.69829	-0.432
Mof_O 	O 	0.2804	0.516	0.69866	-0.435
Mof_C 	C 	0.045	0.2816	0.5342	0.03
Mof_C 	C 	0.0459	0.2102	0.5331	-0.101
Mof_H 	H 	0.0776	0.2018	0.5549	0.065
Mof_C 	C 	0.4867	0.7049	0.6839	0.419
Mof_C 	C 	0.5463	0.7198	0.6442	-0.15
Mof_C 	C 	0.6572	0.7482	0.5713	0.066
Mof_C 	C 	0.6094	0.672	0.5895	-0.135
Mof_H 	H 	0.6139	0.6293	0.5773	0.077
Mof_C 	C 	0.5916	0.7937	0.6253	0.08
Mof_H 	H 	0.5848	0.8356	0.6364	0.017
Mof_C 	C 	0.6473	0.8093	0.5902	-0.141
Mof_H 	H 	0.6789	0.8616	0.5789	0.078
Mof_C 	C 	0.5545	0.6579	0.626	0.072
Mof_H 	H 	0.5232	0.6061	0.6381	0.019
Mof_O 	O 	0.4467	0.6341	0.69829	-0.432
Mof_O 	O 	0.484	0.7644	0.69866	-0.435
Mof_C 	C 	0.7184	0.7634	0.5342	0.03
Mof_C 	C 	0.7898	0.8357	0.5331	-0.101
Mof_H 	H 	0.7982	0.8758	0.5549	0.065
Mof_C 	C 	0.2951	0.7818	0.8161	0.419
Mof_C 	C 	0.2802	0.8265	0.8558	-0.15
Mof_C 	C 	0.2518	0.909	0.9287	0.067
Mof_C 	C 	0.328	0.9374	0.9105	-0.135
Mof_H 	H 	0.3707	0.9846	0.9227	0.078
Mof_C 	C 	0.2063	0.7979	0.8747	0.08
Mof_H 	H 	0.1644	0.7492	0.8636	0.017
Mof_C 	C 	0.1907	0.838	0.9098	-0.141
Mof_H 	H 	0.1384	0.8173	0.9211	0.078
Mof_C 	C 	0.3421	0.8966	0.874	0.072
Mof_H 	H 	0.3939	0.9171	0.8619	0.019
Mof_O 	O 	0.3659	0.8126	0.80171	-0.432
Mof_O 	O 	0.2356	0.7196	0.80134	-0.435
Mof_C 	C 	0.2366	0.955	0.9658	0.031
Mof_C 	C 	0.1643	0.9541	0.9669	-0.1
Mof_H 	H 	0.1242	0.9224	0.9451	0.065
Mof_C 	C 	0.2182	0.5133	0.8161	0.419
Mof_C 	C 	0.1735	0.4537	0.8558	-0.15
Mof_C 	C 	0.091	0.3428	0.9287	0.067
Mof_C 	C 	0.0626	0.3906	0.9105	-0.135
Mof_H 	H 	0.0154	0.3861	0.9227	0.077
Mof_C 	C 	0.2021	0.4084	0.8747	0.08
Mof_H 	H 	0.2508	0.4152	0.8636	0.017
Mof_C 	C 	0.162	0.3527	0.9098	-0.141
Mof_H 	H 	0.1827	0.3211	0.9211	0.078
Mof_C 	C 	0.1034	0.4455	0.874	0.072
Mof_H 	H 	0.0829	0.4768	0.8619	0.019
Mof_O 	O 	0.1874	0.5533	0.80171	-0.432
Mof_O 	O 	0.2804	0.516	0.80134	-0.435
Mof_C 	C 	0.045	0.2816	0.9658	0.03
Mof_C 	C 	0.0459	0.2102	0.9669	-0.101
Mof_H 	H 	0.0776	0.2018	0.9451	0.065
Mof_C 	C 	0.4867	0.7049	0.8161	0.419
Mof_C 	C 	0.5463	0.7198	0.8558	-0.15
Mof_C 	C 	0.6572	0.7482	0.9287	0.066
Mof_C 	C 	0.6094	0.672	0.9105	-0.135
Mof_H 	H 	0.6139	0.6293	0.9227	0.077
Mof_C 	C 	0.5916	0.7937	0.8747	0.08
Mof_H 	H 	0.5848	0.8356	0.8636	0.017
Mof_C 	C 	0.6473	0.8093	0.9098	-0.141
Mof_H 	H 	0.6789	0.8616	0.9211	0.078
Mof_C 	C 	0.5545	0.6579	0.874	0.072
Mof_H 	H 	0.5232	0.6061	0.8619	0.019
Mof_O 	O 	0.4467	0.6341	0.80171	-0.432
Mof_O 	O 	0.484	0.7644	0.80134	-0.435
Mof_C 	C 	0.7184	0.7634	0.9658	0.03
Mof_C 	C 	0.7898	0.8357	0.9669	-0.101
Mof_H 	H 	0.7982	0.8758	0.9451	0.065
Mof_C 	C 	0.7818	0.2951	0.3161	0.419
Mof_C 	C 	0.8265	0.2802	0.3558	-0.15
Mof_C 	C 	0.909	0.2518	0.4287	0.067
Mof_C 	C 	0.9374	0.328	0.4105	-0.135
Mof_H 	H 	0.9846	0.3707	0.4227	0.077
Mof_C 	C 	0.7979	0.2063	0.3747	0.08
Mof_H 	H 	0.7492	0.1644	0.3636	0.017
Mof_C 	C 	0.838	0.1907	0.4098	-0.141
Mof_H 	H 	0.8173	0.1384	0.4211	0.078
Mof_C 	C 	0.8966	0.3421	0.374	0.072
Mof_H 	H 	0.9171	0.3939	0.3619	0.019
Mof_O 	O 	0.8126	0.3659	0.30171	-0.432
Mof_O 	O 	0.7196	0.2356	0.30134	-0.435
Mof_C 	C 	0.955	0.2366	0.4658	0.031
Mof_C 	C 	0.9541	0.1643	0.4669	-0.1
Mof_H 	H 	0.9224	0.1242	0.4451	0.065
Mof_C 	C 	0.5133	0.2182	0.3161	0.419
Mof_C 	C 	0.4537	0.1735	0.3558	-0.15
Mof_C 	C 	0.3428	0.091	0.4287	0.067
Mof_C 	C 	0.3906	0.0626	0.4105	-0.135
Mof_H 	H 	0.3861	0.0154	0.4227	0.077
Mof_C 	C 	0.4084	0.2021	0.3747	0.08
Mof_H 	H 	0.4152	0.2508	0.3636	0.017
Mof_C 	C 	0.3527	0.162	0.4098	-0.141
Mof_H 	H 	0.3211	0.1827	0.4211	0.078
Mof_C 	C 	0.4455	0.1034	0.374	0.072
Mof_H 	H 	0.4768	0.0829	0.3619	0.019
Mof_O 	O 	0.5533	0.1874	0.30171	-0.432
Mof_O 	O 	0.516	0.2804	0.30134	-0.435
Mof_C 	C 	0.2816	0.045	0.4658	0.03
Mof_C 	C 	0.2102	0.0459	0.4669	-0.101
Mof_H 	H 	0.2018	0.0776	0.4451	0.065
Mof_C 	C 	0.7049	0.4867	0.3161	0.419
Mof_C 	C 	0.7198	0.5463	0.3558	-0.15
Mof_C 	C 	0.7482	0.6572	0.4287	0.066
Mof_C 	C 	0.672	0.6094	0.4105	-0.135
Mof_H 	H 	0.6293	0.6139	0.4227	0.077
Mof_C 	C 	0.7937	0.5916	0.3747	0.08
Mof_H 	H 	0.8356	0.5848	0.3636	0.017
Mof_C 	C 	0.8093	0.6473	0.4098	-0.141
Mof_H 	H 	0.8616	0.6789	0.4211	0.078
Mof_C 	C 	0.6579	0.5545	0.374	0.072
Mof_H 	H 	0.6061	0.5232	0.3619	0.019
Mof_O 	O 	0.6341	0.4467	0.30171	-0.432
Mof_O 	O 	0.7644	0.484	0.30134	-0.435
Mof_C 	C 	0.7634	0.7184	0.4658	0.03
Mof_C 	C 	0.8357	0.7898	0.4669	-0.101
Mof_H 	H 	0.8758	0.7982	0.4451	0.065
Mof_C 	C 	0.7818	0.2951	0.1839	0.419
Mof_C 	C 	0.8265	0.2802	0.1442	-0.15
Mof_C 	C 	0.909	0.2518	0.0713	0.067
Mof_C 	C 	0.9374	0.328	0.0895	-0.135
Mof_H 	H 	0.9846	0.3707	0.0773	0.077
Mof_C 	C 	0.7979	0.2063	0.1253	0.08
Mof_H 	H 	0.7492	0.1644	0.1364	0.017
Mof_C 	C 	0.838	0.1907	0.0902	-0.141
Mof_H 	H 	0.8173	0.1384	0.0789	0.078
Mof_C 	C 	0.8966	0.3421	0.126	0.072
Mof_H 	H 	0.9171	0.3939	0.1381	0.019
Mof_O 	O 	0.8126	0.3659	0.19829	-0.432
Mof_O 	O 	0.7196	0.2356	0.19866	-0.435
Mof_C 	C 	0.955	0.2366	0.0342	0.031
Mof_C 	C 	0.9541	0.1643	0.0331	-0.1
Mof_H 	H 	0.9224	0.1242	0.0549	0.065
Mof_C 	C 	0.5133	0.2182	0.1839	0.419
Mof_C 	C 	0.4537	0.1735	0.1442	-0.15
Mof_C 	C 	0.3428	0.091	0.0713	0.067
Mof_C 	C 	0.3906	0.0626	0.0895	-0.135
Mof_H 	H 	0.3861	0.0154	0.0773	0.077
Mof_C 	C 	0.4084	0.2021	0.1253	0.08
Mof_H 	H 	0.4152	0.2508	0.1364	0.017
Mof_C 	C 	0.3527	0.162	0.0902	-0.141
Mof_H 	H 	0.3211	0.1827	0.0789	0.078
Mof_C 	C 	0.4455	0.1034	0.126	0.072
Mof_H 	H 	0.4768	0.0829	0.1381	0.019
Mof_O 	O 	0.5533	0.1874	0.19829	-0.432
Mof_O 	O 	0.516	0.2804	0.19866	-0.435
Mof_C 	C 	0.2816	0.045	0.0342	0.03
Mof_C 	C 	0.2102	0.0459	0.0331	-0.101
Mof_H 	H 	0.2018	0.0776	0.0549	0.065
Mof_C 	C 	0.7049	0.4867	0.1839	0.419
Mof_C 	C 	0.7198	0.5463	0.1442	-0.15
Mof_C 	C 	0.7482	0.6572	0.0713	0.066
Mof_C 	C 	0.672	0.6094	0.0895	-0.135
Mof_H 	H 	0.6293	0.6139	0.0773	0.077
Mof_C 	C 	0.7937	0.5916	0.1253	0.08
Mof_H 	H 	0.8356	0.5848	0.1364	0.017
Mof_C 	C 	0.8093	0.6473	0.0902	-0.141
Mof_H 	H 	0.8616	0.6789	0.0789	0.078
Mof_C 	C 	0.6579	0.5545	0.126	0.072
Mof_H 	H 	0.6061	0.5232	0.1381	0.019
Mof_O 	O 	0.6341	0.4467	0.19829	-0.432
Mof_O 	O 	0.7644	0.484	0.19866	-0.435
Mof_C 	C 	0.7634	0.7184	0.0342	0.03
Mof_C 	C 	0.8357	0.7898	0.0331	-0.101
Mof_H 	H 	0.8758	0.7982	0.0549	0.065
Mof_Ni	Ni	0.41929	0.78102	0.75	1.128
Mof_Ni	Ni	0.21898	0.63827	0.75	1.128
Mof_Ni	Ni	0.36173	0.58071	0.75	1.128
Mof_Ni	Ni	0.78102	0.41929	0.25	1.128
Mof_Ni	Ni	0.63827	0.21898	0.25	1.128
Mof_Ni	Ni	0.58071	0.36173	0.25	1.128
Mof_O 	O 	0.33333	0.66667	0.75	-0.569
Mof_O 	O 	0.66667	0.33333	0.25	-0.569
Mof_C 	C 	0.0708	0	0.5	0.067
Mof_C 	C 	0.1506	0	0.5	0.03
Mof_C 	C 	0.2932	0	0.5	-0.1
Mof_H 	H 	0.3417	0	0.5	0.064
Mof_C 	C 	-6.08936e-18	0.0708	0.5	0.067
Mof_C 	C 	-1.24795e-17	0.1506	0.5	0.03
Mof_C 	C 	1.30809e-17	0.2932	0.5	-0.1
Mof_H 	H 	-1.24795e-17	0.3417	0.5	0.064
Mof_C 	C 	0.9292	0.9292	0.5	0.066
Mof_C 	C 	0.8494	0.8494	0.5	0.031
Mof_C 	C 	0.7068	0.7068	0.5	-0.099
Mof_H 	H 	0.6583	0.6583	0.5	0.064
Mof_C 	C 	0.0708	0	-0	0.067
Mof_C 	C 	0.1506	0	-0	0.03
Mof_C 	C 	0.2932	0	-0	-0.1
Mof_H 	H 	0.3417	0	-0	0.064
Mof_C 	C 	-6.39009e-18	0.0708	-0	0.067
Mof_C 	C 	-1.27802e-17	0.1506	-0	0.03
Mof_C 	C 	-0	0.2932	-0	-0.1
Mof_H 	H 	-2.55604e-17	0.3417	-0	0.064
Mof_C 	C 	0.9292	0.9292	-0	0.066
Mof_C 	C 	0.8494	0.8494	-0	0.031
Mof_C 	C 	0.7068	0.7068	-0	-0.099
Mof_H 	H 	0.6583	0.6583	-0	0.064
Mof_C 	C 	-8.91605e-17	0.9276	0.5	-0.138
Mof_H 	H 	-3.80398e-17	0.8791	0.5	0.079
Mof_C 	C 	0.0724	0.0724	0.5	-0.14
Mof_H 	H 	0.1209	0.1209	0.5	0.079
Mof_C 	C 	0.9276	0	0.5	-0.138
Mof_H 	H 	0.8791	0	0.5	0.079
Mof_C 	C 	-0	0.9276	-0	-0.138
Mof_H 	H 	-0	0.8791	-0	0.079
Mof_C 	C 	0.0724	0.0724	-0	-0.14
Mof_H 	H 	0.1209	0.1209	-0	0.079
Mof_C 	C 	0.9276	0	-0	-0.138
Mof_H 	H 	0.8791	0	-0	0.079
_end
