data_functionalizedCrystal
_audit_creation_method	'EQeq! by Chris Wilmer'
_symmetry_space_group_name_H-M	'P1'
_symmetry_Int_Tables_number	1
_symmetry_cell_setting	triclinic
loop_
_symmetry_equiv_pos_as_xyz
  x,y,z
_cell_length_a	7.9539
_cell_length_b	7.9539
_cell_length_c	13.189
_cell_angle_alpha	90
_cell_angle_beta	90
_cell_angle_gamma	90
loop_
_atom_site_label
_atom_site_type_symbol
_atom_site_fract_x
_atom_site_fract_y
_atom_site_fract_z
_atom_site_charge
Mof_Mn	Mn	0.5351	0.13538	0.84223	0.889
Mof_Mn	Mn	0.4649	0.86462	0.34223	0.881
Mof_Mn	Mn	0.86462	0.5351	0.09223	0.843
Mof_Mn	Mn	0.13538	0.4649	0.59223	0.881
Mof_H 	H 	0.611	0.0845	0.6507	0.286
Mof_H 	H 	0.7084	0.846	0.635	-0.025
Mof_H 	H 	0.389	0.7522	0.7094	0.188
Mof_H 	H 	0.5232	0.616	0.6816	0.188
Mof_H 	H 	0.389	0.9155	0.1507	0.28
Mof_H 	H 	0.2916	0.154	0.135	-0.03
Mof_H 	H 	0.611	0.2478	0.2094	0.177
Mof_H 	H 	0.4768	0.384	0.1816	0.176
Mof_H 	H 	0.9155	0.611	0.9007	0.289
Mof_H 	H 	0.154	0.7084	0.885	-0.033
Mof_H 	H 	0.2478	0.389	0.9594	0.209
Mof_H 	H 	0.384	0.5232	0.9316	0.21
Mof_H 	H 	0.0845	0.389	0.4007	0.286
Mof_H 	H 	0.846	0.2916	0.385	-0.025
Mof_H 	H 	0.7522	0.611	0.4594	0.186
Mof_H 	H 	0.616	0.4768	0.4316	0.187
Mof_C 	C 	0.7074	0.8101	0.7904	0.228
Mof_C 	C 	0.6236	0.853	0.6887	0.222
Mof_C 	C 	0.4837	0.7282	0.6654	-0.516
Mof_C 	C 	0.4237	0.7299	0.5572	0.524
Mof_C 	C 	0.2926	0.1899	0.2904	0.233
Mof_C 	C 	0.3764	0.147	0.1887	0.206
Mof_C 	C 	0.5163	0.2718	0.1654	-0.485
Mof_C 	C 	0.5763	0.2701	0.0572	0.459
Mof_C 	C 	0.1899	0.7074	0.0404	0.184
Mof_C 	C 	0.147	0.6236	0.9387	0.267
Mof_C 	C 	0.2718	0.4837	0.9154	-0.548
Mof_C 	C 	0.2701	0.4237	0.8072	0.537
Mof_C 	C 	0.8101	0.2926	0.5404	0.228
Mof_C 	C 	0.853	0.3764	0.4387	0.22
Mof_C 	C 	0.7282	0.5163	0.4154	-0.514
Mof_C 	C 	0.7299	0.5763	0.3072	0.522
Mof_O 	O 	0.7919	0.6803	0.7916	-0.261
Mof_O 	O 	0.6826	0.9043	0.86432	-0.311
Mof_O 	O 	0.3216	0.6209	0.52941	-0.458
Mof_O 	O 	0.4837	0.8369	0.4994	-0.427
Mof_O 	O 	0.559	0.0204	0.69164	-0.499
Mof_O 	O 	0.2081	0.3197	0.2916	-0.27
Mof_O 	O 	0.3174	0.0957	0.36432	-0.324
Mof_O 	O 	0.6784	0.3791	0.02941	-0.458
Mof_O 	O 	0.5163	0.1631	0.9994	-0.374
Mof_O 	O 	0.441	0.9796	0.19164	-0.496
Mof_O 	O 	0.3197	0.7919	0.0416	-0.274
Mof_O 	O 	0.0957	0.6826	0.11432	-0.316
Mof_O 	O 	0.3791	0.3216	0.77941	-0.46
Mof_O 	O 	0.1631	0.4837	0.7494	-0.431
Mof_O 	O 	0.9796	0.559	0.94164	-0.483
Mof_O 	O 	0.6803	0.2081	0.5416	-0.267
Mof_O 	O 	0.9043	0.3174	0.61432	-0.32
Mof_O 	O 	0.6209	0.6784	0.27941	-0.458
Mof_O 	O 	0.8369	0.5163	0.2494	-0.425
Mof_O 	O 	0.0204	0.441	0.44164	-0.498
_end
