# CIF file generated by openbabel 3.1.0, see https://openbabel.org
data_I
_chemical_name_common 'image0'
_cell_length_a 27.631
_cell_length_b 27.631
_cell_length_c 22.827
_cell_angle_alpha 90
_cell_angle_beta 90
_cell_angle_gamma 120
_space_group_name_H-M_alt 'P 1'
_space_group_name_Hall 'P 1'
loop_
    _symmetry_equiv_pos_as_xyz
    x,y,z
loop_
    _atom_site_label
    _atom_site_type_symbol
    _atom_site_fract_x
    _atom_site_fract_y
    _atom_site_fract_z
    _atom_site_occupancy
    Zn1      Zn       0.88136    0.54866    0.46734    1.000
    Zn2      Zn       0.66734    0.54872    0.46718    1.000
    N1       N        0.60230    0.47970    0.49850    1.000
    N2       N        0.66560    0.53100    0.28790    1.000
    N3       N        0.51910    0.40240    0.49800    1.000
    N4       N        0.66530    0.53070    0.37960    1.000
    C1       C        0.55420    0.44440    0.46780    1.000
    C2       C        0.66480    0.48230    0.30030    1.000
    H1       H        0.66280    0.45470    0.27420    1.000
    C3       C        0.66720    0.55850    0.33390    1.000
    C4       C        0.52350    0.42610    0.55060    1.000
    C5       C        0.57330    0.47680    0.55360    1.000
    C6       C        0.59060    0.50510    0.60670    1.000
    H2       H        0.62460    0.53970    0.60880    1.000
    C7       C        0.55820    0.48270    0.65660    1.000
    C8       C        0.50840    0.43200    0.65360    1.000
    C9       C        0.49110    0.40370    0.60050    1.000
    H3       H        0.45700    0.36910    0.59840    1.000
    N5       N        0.81930    0.55520    0.49880    1.000
    C10      C        0.78400    0.51500    0.54000    1.000
    C11      C        0.72790    0.50820    0.54400    1.000
    N6       N        0.73660    0.55620    0.49920    1.000
    C12      C        0.66750    0.48350    0.35880    1.000
    H4       H        0.67040    0.45690    0.38270    1.000
    C13      C        0.66380    0.61530    0.33710    1.000
    H5       H        0.69640    0.64400    0.35830    1.000
    H6       H        0.62960    0.60780    0.35760    1.000
    H7       H        0.66340    0.62840    0.29730    1.000
    Br1      Br       0.60130    0.51760    0.73240    1.000
    C14      C        0.78270    0.55370    0.47140    1.000
    N7       N        0.04610    0.65970    0.50810    1.000
    N8       N        0.95490    0.61370    0.49020    1.000
    C15      C        0.00040    0.61190    0.49870    1.000
    Br2      Br       0.08530    0.86710    0.43350    1.000
    C16      C        0.03430    0.78240    0.46500    1.000
    C17      C        0.97640    0.75530    0.46100    1.000
    C18      C        0.94470    0.69810    0.47050    1.000
    C19      C        0.97090    0.66800    0.48500    1.000
    C20      C        0.02880    0.69510    0.49000    1.000
    C21      C        0.06050    0.75230    0.48030    1.000
    C22      C        0.82020    0.58600    0.55200    1.000
    C23      C        0.84210    0.58600    0.60690    1.000
    C24      C        0.82010    0.59700    0.65660    1.000
    C25      C        0.77620    0.60800    0.65150    1.000
    C26      C        0.75420    0.60800    0.59670    1.000
    C27      C        0.77600    0.59700    0.54690    1.000
    C28      C        0.53300    0.46400    0.42400    1.000
    H8       H        0.49320    0.44870    0.42990    1.000
    H9       H        0.54010    0.45270    0.38580    1.000
    H10      H        0.55240    0.50510    0.42610    1.000
    C29      C        0.60600    0.44170    0.54100    1.000
    H11      H        0.63800    0.45010    0.56340    1.000
    C30      C        0.56320    0.40000    0.54300    1.000
    H12      H        0.55570    0.36860    0.56700    1.000
    C31      C        0.75560    0.69890    0.47490    1.000
    C32      C        0.69820    0.66850    0.48380    1.000
    C33      C        0.66770    0.69600    0.48770    1.000
    C34      C        0.69470    0.75380    0.48270    1.000
    C35      C        0.75210    0.78420    0.47380    1.000
    C36      C        0.78260    0.75680    0.46990    1.000
    Br3      Br       0.79220    0.86010    0.46530    1.000
    Br4      Br       0.85730    0.80020    0.46280    1.000
    Br5      Br       0.85780    0.79620    0.51050    1.000
    Br6      Br       0.80030    0.86050    0.50800    1.000
    Br7      Br       0.47410    0.39970    0.72720    1.000
    Br8      Br       0.51240    0.39070    0.76350    1.000
    Br9      Br       0.87890    0.65310    0.63060    1.000
    Br10     Br       0.89600    0.67980    0.70320    1.000
    Zn3      Zn       0.54803    0.88199    0.80067    1.000
    Zn4      Zn       0.33401    0.88205    0.80051    1.000
    N9       N        0.26897    0.81303    0.83183    1.000
    N10      N        0.33227    0.86433    0.62123    1.000
    N11      N        0.18577    0.73573    0.83133    1.000
    N12      N        0.33197    0.86403    0.71293    1.000
    C37      C        0.22087    0.77773    0.80113    1.000
    C38      C        0.33147    0.81563    0.63363    1.000
    H13      H        0.32947    0.78803    0.60753    1.000
    C39      C        0.33387    0.89183    0.66723    1.000
    C40      C        0.19017    0.75943    0.88393    1.000
    C41      C        0.23997    0.81013    0.88693    1.000
    C42      C        0.25727    0.83843    0.94003    1.000
    H14      H        0.29127    0.87303    0.94213    1.000
    C43      C        0.22487    0.81603    0.98993    1.000
    C44      C        0.17507    0.76533    0.98693    1.000
    C45      C        0.15777    0.73703    0.93383    1.000
    H15      H        0.12367    0.70243    0.93173    1.000
    N13      N        0.48597    0.88853    0.83213    1.000
    C46      C        0.45067    0.84833    0.87333    1.000
    C47      C        0.39457    0.84153    0.87733    1.000
    N14      N        0.40327    0.88953    0.83253    1.000
    C48      C        0.33417    0.81683    0.69213    1.000
    H16      H        0.33707    0.79023    0.71603    1.000
    C49      C        0.33047    0.94863    0.67043    1.000
    H17      H        0.36307    0.97733    0.69163    1.000
    H18      H        0.29627    0.94113    0.69093    1.000
    H19      H        0.33007    0.96173    0.63063    1.000
    Br11     Br       0.26797    0.85093    0.06573    1.000
    C50      C        0.44937    0.88703    0.80473    1.000
    N15      N        0.71277    0.99303    0.84143    1.000
    N16      N        0.62157    0.94703    0.82353    1.000
    C51      C        0.66707    0.94523    0.83203    1.000
    Br12     Br       0.75197    0.20043    0.76683    1.000
    C52      C        0.70097    0.11573    0.79833    1.000
    C53      C        0.64307    0.08863    0.79433    1.000
    C54      C        0.61137    0.03143    0.80383    1.000
    C55      C        0.63757    0.00133    0.81833    1.000
    C56      C        0.69547    0.02843    0.82333    1.000
    C57      C        0.72717    0.08563    0.81363    1.000
    C58      C        0.48687    0.91933    0.88533    1.000
    C59      C        0.50877    0.91933    0.94023    1.000
    C60      C        0.48677    0.93033    0.98993    1.000
    C61      C        0.44287    0.94133    0.98483    1.000
    C62      C        0.42087    0.94133    0.93003    1.000
    C63      C        0.44267    0.93033    0.88023    1.000
    C64      C        0.19967    0.79733    0.75733    1.000
    H20      H        0.15987    0.78203    0.76323    1.000
    H21      H        0.20677    0.78603    0.71913    1.000
    H22      H        0.21907    0.83843    0.75943    1.000
    C65      C        0.27267    0.77503    0.87433    1.000
    H23      H        0.30467    0.78343    0.89673    1.000
    C66      C        0.22987    0.73333    0.87633    1.000
    H24      H        0.22237    0.70193    0.90033    1.000
    C67      C        0.42227    0.03223    0.80823    1.000
    C68      C        0.36487    0.00183    0.81713    1.000
    C69      C        0.33437    0.02933    0.82103    1.000
    C70      C        0.36137    0.08713    0.81603    1.000
    C71      C        0.41877    0.11753    0.80713    1.000
    C72      C        0.44927    0.09013    0.80323    1.000
    Br13     Br       0.45887    0.19343    0.79863    1.000
    Br14     Br       0.52397    0.13353    0.79613    1.000
    Br15     Br       0.52447    0.12953    0.84383    1.000
    Br16     Br       0.46697    0.19383    0.84133    1.000
    Br17     Br       0.14077    0.73303    0.06053    1.000
    Br18     Br       0.17907    0.72403    0.09683    1.000
    Br19     Br       0.54557    0.98643    0.96393    1.000
    Br20     Br       0.56267    0.01313    0.03653    1.000
    Zn5      Zn       0.21469    0.21533    0.13401    1.000
    Zn6      Zn       0.00067    0.21539    0.13385    1.000
    N17      N        0.93563    0.14637    0.16517    1.000
    N18      N        0.99893    0.19767    0.95457    1.000
    N19      N        0.85243    0.06907    0.16467    1.000
    N20      N        0.99863    0.19737    0.04627    1.000
    C73      C        0.88753    0.11107    0.13447    1.000
    C74      C        0.99813    0.14897    0.96697    1.000
    H25      H        0.99613    0.12137    0.94087    1.000
    C75      C        0.00053    0.22517    0.00057    1.000
    C76      C        0.85683    0.09277    0.21727    1.000
    C77      C        0.90663    0.14347    0.22027    1.000
    C78      C        0.92393    0.17177    0.27337    1.000
    H26      H        0.95793    0.20637    0.27547    1.000
    C79      C        0.89153    0.14937    0.32327    1.000
    C80      C        0.84173    0.09867    0.32027    1.000
    C81      C        0.82443    0.07037    0.26717    1.000
    H27      H        0.79033    0.03577    0.26507    1.000
    N21      N        0.15263    0.22187    0.16547    1.000
    C82      C        0.11733    0.18167    0.20667    1.000
    C83      C        0.06123    0.17487    0.21067    1.000
    N22      N        0.06993    0.22287    0.16587    1.000
    C84      C        0.00083    0.15017    0.02547    1.000
    H28      H        0.00373    0.12357    0.04937    1.000
    C85      C        0.99713    0.28197    0.00377    1.000
    H29      H        0.02973    0.31067    0.02497    1.000
    H30      H        0.96293    0.27447    0.02427    1.000
    H31      H        0.99673    0.29507    0.96397    1.000
    Br21     Br       0.93463    0.18427    0.39907    1.000
    C86      C        0.11603    0.22037    0.13807    1.000
    N23      N        0.37943    0.32637    0.17477    1.000
    N24      N        0.28823    0.28037    0.15687    1.000
    C87      C        0.33373    0.27857    0.16537    1.000
    Br22     Br       0.41863    0.53377    0.10017    1.000
    C88      C        0.36763    0.44907    0.13167    1.000
    C89      C        0.30973    0.42197    0.12767    1.000
    C90      C        0.27803    0.36477    0.13717    1.000
    C91      C        0.30423    0.33467    0.15167    1.000
    C92      C        0.36213    0.36177    0.15667    1.000
    C93      C        0.39383    0.41897    0.14697    1.000
    C94      C        0.15353    0.25267    0.21867    1.000
    C95      C        0.17543    0.25267    0.27357    1.000
    C96      C        0.15343    0.26367    0.32327    1.000
    C97      C        0.10953    0.27467    0.31817    1.000
    C98      C        0.08753    0.27467    0.26337    1.000
    C99      C        0.10933    0.26367    0.21357    1.000
    C100     C        0.86633    0.13067    0.09067    1.000
    H32      H        0.82653    0.11537    0.09657    1.000
    H33      H        0.87343    0.11937    0.05247    1.000
    H34      H        0.88573    0.17177    0.09277    1.000
    C101     C        0.93933    0.10837    0.20767    1.000
    H35      H        0.97133    0.11677    0.23007    1.000
    C102     C        0.89653    0.06667    0.20967    1.000
    H36      H        0.88903    0.03527    0.23367    1.000
    C103     C        0.08893    0.36557    0.14157    1.000
    C104     C        0.03153    0.33517    0.15047    1.000
    C105     C        0.00103    0.36267    0.15437    1.000
    C106     C        0.02803    0.42047    0.14937    1.000
    C107     C        0.08543    0.45087    0.14047    1.000
    C108     C        0.11593    0.42347    0.13657    1.000
    Br23     Br       0.12553    0.52677    0.13197    1.000
    Br24     Br       0.19063    0.46687    0.12947    1.000
    Br25     Br       0.19113    0.46287    0.17717    1.000
    Br26     Br       0.13363    0.52717    0.17467    1.000
    Br27     Br       0.80743    0.06637    0.39387    1.000
    Br28     Br       0.84573    0.05737    0.43017    1.000
    Br29     Br       0.21223    0.31977    0.29727    1.000
    Br30     Br       0.22933    0.34647    0.36987    1.000
    Zn7      Zn       0.45134    0.33270    0.46734    1.000
    Zn8      Zn       0.45128    0.11862    0.46718    1.000
    N25      N        0.52030    0.12260    0.49850    1.000
    N26      N        0.46900    0.13460    0.28790    1.000
    N27      N        0.59760    0.11670    0.49800    1.000
    N28      N        0.46930    0.13460    0.37960    1.000
    C109     C        0.55560    0.10980    0.46780    1.000
    C110     C        0.51770    0.18250    0.30030    1.000
    H37      H        0.54530    0.20810    0.27420    1.000
    C111     C        0.44150    0.10870    0.33390    1.000
    C112     C        0.57390    0.09740    0.55060    1.000
    C113     C        0.52320    0.09650    0.55360    1.000
    C114     C        0.49490    0.08550    0.60670    1.000
    H38      H        0.46030    0.08490    0.60880    1.000
    C115     C        0.51730    0.07550    0.65660    1.000
    C116     C        0.56800    0.07640    0.65360    1.000
    C117     C        0.59630    0.08740    0.60050    1.000
    H39      H        0.63090    0.08790    0.59840    1.000
    N29      N        0.44480    0.26410    0.49880    1.000
    C118     C        0.48500    0.26900    0.54000    1.000
    C119     C        0.49180    0.21970    0.54400    1.000
    N30      N        0.44380    0.18040    0.49920    1.000
    C120     C        0.51650    0.18400    0.35880    1.000
    H40      H        0.54310    0.21350    0.38270    1.000
    C121     C        0.38470    0.04850    0.33710    1.000
    H41      H        0.35600    0.05240    0.35830    1.000
    H42      H        0.39220    0.02180    0.35760    1.000
    H43      H        0.37160    0.03500    0.29730    1.000
    Br31     Br       0.48240    0.08370    0.73240    1.000
    C122     C        0.44630    0.22900    0.47140    1.000
    N31      N        0.34030    0.38640    0.50810    1.000
    N32      N        0.38630    0.34120    0.49020    1.000
    C123     C        0.38810    0.38850    0.49870    1.000
    Br32     Br       0.13290    0.21820    0.43350    1.000
    C124     C        0.21760    0.25190    0.46500    1.000
    C125     C        0.24470    0.22110    0.46100    1.000
    C126     C        0.30190    0.24660    0.47050    1.000
    C127     C        0.33200    0.30290    0.48500    1.000
    C128     C        0.30490    0.33370    0.49000    1.000
    C129     C        0.24770    0.30820    0.48030    1.000
    C130     C        0.41400    0.23420    0.55200    1.000
    C131     C        0.41400    0.25610    0.60690    1.000
    C132     C        0.40300    0.22310    0.65660    1.000
    C133     C        0.39200    0.16820    0.65150    1.000
    C134     C        0.39200    0.14620    0.59670    1.000
    C135     C        0.40300    0.17900    0.54690    1.000
    C136     C        0.53600    0.06900    0.42400    1.000
    H44      H        0.55130    0.04450    0.42990    1.000
    H45      H        0.54730    0.08740    0.38580    1.000
    H46      H        0.49490    0.04730    0.42610    1.000
    C137     C        0.55830    0.16430    0.54100    1.000
    H47      H        0.54990    0.18790    0.56340    1.000
    C138     C        0.60000    0.16320    0.54300    1.000
    H48      H        0.63140    0.18710    0.56700    1.000
    C139     C        0.30110    0.05670    0.47490    1.000
    C140     C        0.33150    0.02970    0.48380    1.000
    C141     C        0.30400    0.97170    0.48770    1.000
    C142     C        0.24620    0.94090    0.48270    1.000
    C143     C        0.21580    0.96790    0.47380    1.000
    C144     C        0.24320    0.02580    0.46990    1.000
    Br33     Br       0.13990    0.93210    0.46530    1.000
    Br34     Br       0.19980    0.05710    0.46280    1.000
    Br35     Br       0.20380    0.06160    0.51050    1.000
    Br36     Br       0.13950    0.93980    0.50800    1.000
    Br37     Br       0.60030    0.07440    0.72720    1.000
    Br38     Br       0.60930    0.12170    0.76350    1.000
    Br39     Br       0.34690    0.22580    0.63060    1.000
    Br40     Br       0.32020    0.21620    0.70320    1.000
    Zn9      Zn       0.11801    0.66603    0.80067    1.000
    Zn10     Zn       0.11795    0.45195    0.80051    1.000
    N33      N        0.18697    0.45593    0.83183    1.000
    N34      N        0.13567    0.46793    0.62123    1.000
    N35      N        0.26427    0.45003    0.83133    1.000
    N36      N        0.13597    0.46793    0.71293    1.000
    C145     C        0.22227    0.44313    0.80113    1.000
    C146     C        0.18437    0.51583    0.63363    1.000
    H49      H        0.21197    0.54143    0.60753    1.000
    C147     C        0.10817    0.44203    0.66723    1.000
    C148     C        0.24057    0.43073    0.88393    1.000
    C149     C        0.18987    0.42983    0.88693    1.000
    C150     C        0.16157    0.41883    0.94003    1.000
    H50      H        0.12697    0.41823    0.94213    1.000
    C151     C        0.18397    0.40883    0.98993    1.000
    C152     C        0.23467    0.40973    0.98693    1.000
    C153     C        0.26297    0.42073    0.93383    1.000
    H51      H        0.29757    0.42123    0.93173    1.000
    N37      N        0.11147    0.59743    0.83213    1.000
    C154     C        0.15167    0.60233    0.87333    1.000
    C155     C        0.15847    0.55303    0.87733    1.000
    N38      N        0.11047    0.51373    0.83253    1.000
    C156     C        0.18317    0.51733    0.69213    1.000
    H52      H        0.20977    0.54683    0.71603    1.000
    C157     C        0.05137    0.38183    0.67043    1.000
    H53      H        0.02267    0.38573    0.69163    1.000
    H54      H        0.05887    0.35513    0.69093    1.000
    H55      H        0.03827    0.36833    0.63063    1.000
    Br41     Br       0.14907    0.41703    0.06573    1.000
    C158     C        0.11297    0.56233    0.80473    1.000
    N39      N        0.00697    0.71973    0.84143    1.000
    N40      N        0.05297    0.67453    0.82353    1.000
    C159     C        0.05477    0.72183    0.83203    1.000
    Br42     Br       0.79957    0.55153    0.76683    1.000
    C160     C        0.88427    0.58523    0.79833    1.000
    C161     C        0.91137    0.55443    0.79433    1.000
    C162     C        0.96857    0.57993    0.80383    1.000
    C163     C        0.99867    0.63623    0.81833    1.000
    C164     C        0.97157    0.66703    0.82333    1.000
    C165     C        0.91437    0.64153    0.81363    1.000
    C166     C        0.08067    0.56753    0.88533    1.000
    C167     C        0.08067    0.58943    0.94023    1.000
    C168     C        0.06967    0.55643    0.98993    1.000
    C169     C        0.05867    0.50153    0.98483    1.000
    C170     C        0.05867    0.47953    0.93003    1.000
    C171     C        0.06967    0.51233    0.88023    1.000
    C172     C        0.20267    0.40233    0.75733    1.000
    H56      H        0.21797    0.37783    0.76323    1.000
    H57      H        0.21397    0.42073    0.71913    1.000
    H58      H        0.16157    0.38063    0.75943    1.000
    C173     C        0.22497    0.49763    0.87433    1.000
    H59      H        0.21657    0.52123    0.89673    1.000
    C174     C        0.26667    0.49653    0.87633    1.000
    H60      H        0.29807    0.52043    0.90033    1.000
    C175     C        0.96777    0.39003    0.80823    1.000
    C176     C        0.99817    0.36303    0.81713    1.000
    C177     C        0.97067    0.30503    0.82103    1.000
    C178     C        0.91287    0.27423    0.81603    1.000
    C179     C        0.88247    0.30123    0.80713    1.000
    C180     C        0.90987    0.35913    0.80323    1.000
    Br43     Br       0.80657    0.26543    0.79863    1.000
    Br44     Br       0.86647    0.39043    0.79613    1.000
    Br45     Br       0.87047    0.39493    0.84383    1.000
    Br46     Br       0.80617    0.27313    0.84133    1.000
    Br47     Br       0.26697    0.40773    0.06053    1.000
    Br48     Br       0.27597    0.45503    0.09683    1.000
    Br49     Br       0.01357    0.55913    0.96393    1.000
    Br50     Br       0.98687    0.54953    0.03653    1.000
    Zn11     Zn       0.78467    0.99937    0.13401    1.000
    Zn12     Zn       0.78461    0.78529    0.13385    1.000
    N41      N        0.85363    0.78927    0.16517    1.000
    N42      N        0.80233    0.80127    0.95457    1.000
    N43      N        0.93093    0.78337    0.16467    1.000
    N44      N        0.80263    0.80127    0.04627    1.000
    C181     C        0.88893    0.77647    0.13447    1.000
    C182     C        0.85103    0.84917    0.96697    1.000
    H61      H        0.87863    0.87477    0.94087    1.000
    C183     C        0.77483    0.77537    0.00057    1.000
    C184     C        0.90723    0.76407    0.21727    1.000
    C185     C        0.85653    0.76317    0.22027    1.000
    C186     C        0.82823    0.75217    0.27337    1.000
    H62      H        0.79363    0.75157    0.27547    1.000
    C187     C        0.85063    0.74217    0.32327    1.000
    C188     C        0.90133    0.74307    0.32027    1.000
    C189     C        0.92963    0.75407    0.26717    1.000
    H63      H        0.96423    0.75457    0.26507    1.000
    N45      N        0.77813    0.93077    0.16547    1.000
    C190     C        0.81833    0.93567    0.20667    1.000
    C191     C        0.82513    0.88637    0.21067    1.000
    N46      N        0.77713    0.84707    0.16587    1.000
    C192     C        0.84983    0.85067    0.02547    1.000
    H64      H        0.87643    0.88017    0.04937    1.000
    C193     C        0.71803    0.71517    0.00377    1.000
    H65      H        0.68933    0.71907    0.02497    1.000
    H66      H        0.72553    0.68847    0.02427    1.000
    H67      H        0.70493    0.70167    0.96397    1.000
    Br51     Br       0.81573    0.75037    0.39907    1.000
    C194     C        0.77963    0.89567    0.13807    1.000
    N47      N        0.67363    0.05307    0.17477    1.000
    N48      N        0.71963    0.00787    0.15687    1.000
    C195     C        0.72143    0.05517    0.16537    1.000
    Br52     Br       0.46623    0.88487    0.10017    1.000
    C196     C        0.55093    0.91857    0.13167    1.000
    C197     C        0.57803    0.88777    0.12767    1.000
    C198     C        0.63523    0.91327    0.13717    1.000
    C199     C        0.66533    0.96957    0.15167    1.000
    C200     C        0.63823    0.00037    0.15667    1.000
    C201     C        0.58103    0.97487    0.14697    1.000
    C202     C        0.74733    0.90087    0.21867    1.000
    C203     C        0.74733    0.92277    0.27357    1.000
    C204     C        0.73633    0.88977    0.32327    1.000
    C205     C        0.72533    0.83487    0.31817    1.000
    C206     C        0.72533    0.81287    0.26337    1.000
    C207     C        0.73633    0.84567    0.21357    1.000
    C208     C        0.86933    0.73567    0.09067    1.000
    H68      H        0.88463    0.71117    0.09657    1.000
    H69      H        0.88063    0.75407    0.05247    1.000
    H70      H        0.82823    0.71397    0.09277    1.000
    C209     C        0.89163    0.83097    0.20767    1.000
    H71      H        0.88323    0.85457    0.23007    1.000
    C210     C        0.93333    0.82987    0.20967    1.000
    H72      H        0.96473    0.85377    0.23367    1.000
    C211     C        0.63443    0.72337    0.14157    1.000
    C212     C        0.66483    0.69637    0.15047    1.000
    C213     C        0.63733    0.63837    0.15437    1.000
    C214     C        0.57953    0.60757    0.14937    1.000
    C215     C        0.54913    0.63457    0.14047    1.000
    C216     C        0.57653    0.69247    0.13657    1.000
    Br53     Br       0.47323    0.59877    0.13197    1.000
    Br54     Br       0.53313    0.72377    0.12947    1.000
    Br55     Br       0.53713    0.72827    0.17717    1.000
    Br56     Br       0.47283    0.60647    0.17467    1.000
    Br57     Br       0.93363    0.74107    0.39387    1.000
    Br58     Br       0.94263    0.78837    0.43017    1.000
    Br59     Br       0.68023    0.89247    0.29727    1.000
    Br60     Br       0.65353    0.88287    0.36987    1.000
    Zn13     Zn       0.66730    0.11864    0.46734    1.000
    Zn14     Zn       0.88138    0.33266    0.46718    1.000
    N49      N        0.87740    0.39770    0.49850    1.000
    N50      N        0.86540    0.33440    0.28790    1.000
    N51      N        0.88330    0.48090    0.49800    1.000
    N52      N        0.86540    0.33470    0.37960    1.000
    C217     C        0.89020    0.44580    0.46780    1.000
    C218     C        0.81750    0.33520    0.30030    1.000
    H73      H        0.79190    0.33720    0.27420    1.000
    C219     C        0.89130    0.33280    0.33390    1.000
    C220     C        0.90260    0.47650    0.55060    1.000
    C221     C        0.90350    0.42670    0.55360    1.000
    C222     C        0.91450    0.40940    0.60670    1.000
    H74      H        0.91510    0.37540    0.60880    1.000
    C223     C        0.92450    0.44180    0.65660    1.000
    C224     C        0.92360    0.49160    0.65360    1.000
    C225     C        0.91260    0.50890    0.60050    1.000
    H75      H        0.91210    0.54300    0.59840    1.000
    N53      N        0.73590    0.18070    0.49880    1.000
    C226     C        0.73100    0.21600    0.54000    1.000
    C227     C        0.78030    0.27210    0.54400    1.000
    N54      N        0.81960    0.26340    0.49920    1.000
    C228     C        0.81600    0.33250    0.35880    1.000
    H76      H        0.78650    0.32960    0.38270    1.000
    C229     C        0.95150    0.33620    0.33710    1.000
    H77      H        0.94760    0.30360    0.35830    1.000
    H78      H        0.97820    0.37040    0.35760    1.000
    H79      H        0.96500    0.33660    0.29730    1.000
    Br61     Br       0.91630    0.39870    0.73240    1.000
    C230     C        0.77100    0.21730    0.47140    1.000
    N55      N        0.61360    0.95390    0.50810    1.000
    N56      N        0.65880    0.04510    0.49020    1.000
    C231     C        0.61150    0.99960    0.49870    1.000
    Br62     Br       0.78180    0.91470    0.43350    1.000
    C232     C        0.74810    0.96570    0.46500    1.000
    C233     C        0.77890    0.02360    0.46100    1.000
    C234     C        0.75340    0.05530    0.47050    1.000
    C235     C        0.69710    0.02910    0.48500    1.000
    C236     C        0.66630    0.97120    0.49000    1.000
    C237     C        0.69180    0.93950    0.48030    1.000
    C238     C        0.76580    0.17980    0.55200    1.000
    C239     C        0.74390    0.15790    0.60690    1.000
    C240     C        0.77690    0.17990    0.65660    1.000
    C241     C        0.83180    0.22380    0.65150    1.000
    C242     C        0.85380    0.24580    0.59670    1.000
    C243     C        0.82100    0.22400    0.54690    1.000
    C244     C        0.93100    0.46700    0.42400    1.000
    H80      H        0.95550    0.50680    0.42990    1.000
    H81      H        0.91260    0.45990    0.38580    1.000
    H82      H        0.95270    0.44760    0.42610    1.000
    C245     C        0.83570    0.39400    0.54100    1.000
    H83      H        0.81210    0.36200    0.56340    1.000
    C246     C        0.83680    0.43680    0.54300    1.000
    H84      H        0.81290    0.44430    0.56700    1.000
    C247     C        0.94330    0.24440    0.47490    1.000
    C248     C        0.97030    0.30180    0.48380    1.000
    C249     C        0.02830    0.33230    0.48770    1.000
    C250     C        0.05910    0.30530    0.48270    1.000
    C251     C        0.03210    0.24790    0.47380    1.000
    C252     C        0.97420    0.21740    0.46990    1.000
    Br63     Br       0.06790    0.20780    0.46530    1.000
    Br64     Br       0.94290    0.14270    0.46280    1.000
    Br65     Br       0.93840    0.14220    0.51050    1.000
    Br66     Br       0.06020    0.19970    0.50800    1.000
    Br67     Br       0.92560    0.52590    0.72720    1.000
    Br68     Br       0.87830    0.48760    0.76350    1.000
    Br69     Br       0.77420    0.12110    0.63060    1.000
    Br70     Br       0.78380    0.10400    0.70320    1.000
    Zn15     Zn       0.33397    0.45197    0.80067    1.000
    Zn16     Zn       0.54805    0.66599    0.80051    1.000
    N57      N        0.54407    0.73103    0.83183    1.000
    N58      N        0.53207    0.66773    0.62123    1.000
    N59      N        0.54997    0.81423    0.83133    1.000
    N60      N        0.53207    0.66803    0.71293    1.000
    C253     C        0.55687    0.77913    0.80113    1.000
    C254     C        0.48417    0.66853    0.63363    1.000
    H85      H        0.45857    0.67053    0.60753    1.000
    C255     C        0.55797    0.66613    0.66723    1.000
    C256     C        0.56927    0.80983    0.88393    1.000
    C257     C        0.57017    0.76003    0.88693    1.000
    C258     C        0.58117    0.74273    0.94003    1.000
    H86      H        0.58177    0.70873    0.94213    1.000
    C259     C        0.59117    0.77513    0.98993    1.000
    C260     C        0.59027    0.82493    0.98693    1.000
    C261     C        0.57927    0.84223    0.93383    1.000
    H87      H        0.57877    0.87633    0.93173    1.000
    N61      N        0.40257    0.51403    0.83213    1.000
    C262     C        0.39767    0.54933    0.87333    1.000
    C263     C        0.44697    0.60543    0.87733    1.000
    N62      N        0.48627    0.59673    0.83253    1.000
    C264     C        0.48267    0.66583    0.69213    1.000
    H88      H        0.45317    0.66293    0.71603    1.000
    C265     C        0.61817    0.66953    0.67043    1.000
    H89      H        0.61427    0.63693    0.69163    1.000
    H90      H        0.64487    0.70373    0.69093    1.000
    H91      H        0.63167    0.66993    0.63063    1.000
    Br71     Br       0.58297    0.73203    0.06573    1.000
    C266     C        0.43767    0.55063    0.80473    1.000
    N63      N        0.28027    0.28723    0.84143    1.000
    N64      N        0.32547    0.37843    0.82353    1.000
    C267     C        0.27817    0.33293    0.83203    1.000
    Br72     Br       0.44847    0.24803    0.76683    1.000
    C268     C        0.41477    0.29903    0.79833    1.000
    C269     C        0.44557    0.35693    0.79433    1.000
    C270     C        0.42007    0.38863    0.80383    1.000
    C271     C        0.36377    0.36243    0.81833    1.000
    C272     C        0.33297    0.30453    0.82333    1.000
    C273     C        0.35847    0.27283    0.81363    1.000
    C274     C        0.43247    0.51313    0.88533    1.000
    C275     C        0.41057    0.49123    0.94023    1.000
    C276     C        0.44357    0.51323    0.98993    1.000
    C277     C        0.49847    0.55713    0.98483    1.000
    C278     C        0.52047    0.57913    0.93003    1.000
    C279     C        0.48767    0.55733    0.88023    1.000
    C280     C        0.59767    0.80033    0.75733    1.000
    H92      H        0.62217    0.84013    0.76323    1.000
    H93      H        0.57927    0.79323    0.71913    1.000
    H94      H        0.61937    0.78093    0.75943    1.000
    C281     C        0.50237    0.72733    0.87433    1.000
    H95      H        0.47877    0.69533    0.89673    1.000
    C282     C        0.50347    0.77013    0.87633    1.000
    H96      H        0.47957    0.77763    0.90033    1.000
    C283     C        0.60997    0.57773    0.80823    1.000
    C284     C        0.63697    0.63513    0.81713    1.000
    C285     C        0.69497    0.66563    0.82103    1.000
    C286     C        0.72577    0.63863    0.81603    1.000
    C287     C        0.69877    0.58123    0.80713    1.000
    C288     C        0.64087    0.55073    0.80323    1.000
    Br73     Br       0.73457    0.54113    0.79863    1.000
    Br74     Br       0.60957    0.47603    0.79613    1.000
    Br75     Br       0.60507    0.47553    0.84383    1.000
    Br76     Br       0.72687    0.53303    0.84133    1.000
    Br77     Br       0.59227    0.85923    0.06053    1.000
    Br78     Br       0.54497    0.82093    0.09683    1.000
    Br79     Br       0.44087    0.45443    0.96393    1.000
    Br80     Br       0.45047    0.43733    0.03653    1.000
    Zn17     Zn       0.00063    0.78531    0.13401    1.000
    Zn18     Zn       0.21471    0.99933    0.13385    1.000
    N65      N        0.21073    0.06437    0.16517    1.000
    N66      N        0.19873    0.00107    0.95457    1.000
    N67      N        0.21663    0.14757    0.16467    1.000
    N68      N        0.19873    0.00137    0.04627    1.000
    C289     C        0.22353    0.11247    0.13447    1.000
    C290     C        0.15083    0.00187    0.96697    1.000
    H97      H        0.12523    0.00387    0.94087    1.000
    C291     C        0.22463    0.99947    0.00057    1.000
    C292     C        0.23593    0.14317    0.21727    1.000
    C293     C        0.23683    0.09337    0.22027    1.000
    C294     C        0.24783    0.07607    0.27337    1.000
    H98      H        0.24843    0.04207    0.27547    1.000
    C295     C        0.25783    0.10847    0.32327    1.000
    C296     C        0.25693    0.15827    0.32027    1.000
    C297     C        0.24593    0.17557    0.26717    1.000
    H99      H        0.24543    0.20967    0.26507    1.000
    N69      N        0.06923    0.84737    0.16547    1.000
    C298     C        0.06433    0.88267    0.20667    1.000
    C299     C        0.11363    0.93877    0.21067    1.000
    N70      N        0.15293    0.93007    0.16587    1.000
    C300     C        0.14933    0.99917    0.02547    1.000
    H100     H        0.11983    0.99627    0.04937    1.000
    C301     C        0.28483    0.00287    0.00377    1.000
    H101     H        0.28093    0.97027    0.02497    1.000
    H102     H        0.31153    0.03707    0.02427    1.000
    H103     H        0.29833    0.00327    0.96397    1.000
    Br81     Br       0.24963    0.06537    0.39907    1.000
    C302     C        0.10433    0.88397    0.13807    1.000
    N71      N        0.94693    0.62057    0.17477    1.000
    N72      N        0.99213    0.71177    0.15687    1.000
    C303     C        0.94483    0.66627    0.16537    1.000
    Br82     Br       0.11513    0.58137    0.10017    1.000
    C304     C        0.08143    0.63237    0.13167    1.000
    C305     C        0.11223    0.69027    0.12767    1.000
    C306     C        0.08673    0.72197    0.13717    1.000
    C307     C        0.03043    0.69577    0.15167    1.000
    C308     C        0.99963    0.63787    0.15667    1.000
    C309     C        0.02513    0.60617    0.14697    1.000
    C310     C        0.09913    0.84647    0.21867    1.000
    C311     C        0.07723    0.82457    0.27357    1.000
    C312     C        0.11023    0.84657    0.32327    1.000
    C313     C        0.16513    0.89047    0.31817    1.000
    C314     C        0.18713    0.91247    0.26337    1.000
    C315     C        0.15433    0.89067    0.21357    1.000
    C316     C        0.26433    0.13367    0.09067    1.000
    H104     H        0.28883    0.17347    0.09657    1.000
    H105     H        0.24593    0.12657    0.05247    1.000
    H106     H        0.28603    0.11427    0.09277    1.000
    C317     C        0.16903    0.06067    0.20767    1.000
    H107     H        0.14543    0.02867    0.23007    1.000
    C318     C        0.17013    0.10347    0.20967    1.000
    H108     H        0.14623    0.11097    0.23367    1.000
    C319     C        0.27663    0.91107    0.14157    1.000
    C320     C        0.30363    0.96847    0.15047    1.000
    C321     C        0.36163    0.99897    0.15437    1.000
    C322     C        0.39243    0.97197    0.14937    1.000
    C323     C        0.36543    0.91457    0.14047    1.000
    C324     C        0.30753    0.88407    0.13657    1.000
    Br83     Br       0.40123    0.87447    0.13197    1.000
    Br84     Br       0.27623    0.80937    0.12947    1.000
    Br85     Br       0.27173    0.80887    0.17717    1.000
    Br86     Br       0.39353    0.86637    0.17467    1.000
    Br87     Br       0.25893    0.19257    0.39387    1.000
    Br88     Br       0.21163    0.15427    0.43017    1.000
    Br89     Br       0.10753    0.78777    0.29727    1.000
    Br90     Br       0.11713    0.77067    0.36987    1.000
    Zn19     Zn       0.11864    0.45134    0.53266    1.000
    Zn20     Zn       0.33266    0.45128    0.53282    1.000
    N73      N        0.39770    0.52030    0.50150    1.000
    N74      N        0.33440    0.46900    0.71210    1.000
    N75      N        0.48090    0.59760    0.50200    1.000
    N76      N        0.33470    0.46930    0.62040    1.000
    C325     C        0.44580    0.55560    0.53220    1.000
    C326     C        0.33520    0.51770    0.69970    1.000
    H109     H        0.33720    0.54530    0.72580    1.000
    C327     C        0.33280    0.44150    0.66610    1.000
    C328     C        0.47650    0.57390    0.44940    1.000
    C329     C        0.42670    0.52320    0.44640    1.000
    C330     C        0.40940    0.49490    0.39330    1.000
    H110     H        0.37540    0.46030    0.39120    1.000
    C331     C        0.44180    0.51730    0.34340    1.000
    C332     C        0.49160    0.56800    0.34640    1.000
    C333     C        0.50890    0.59630    0.39950    1.000
    H111     H        0.54300    0.63090    0.40160    1.000
    N77      N        0.18070    0.44480    0.50120    1.000
    C334     C        0.21600    0.48500    0.46000    1.000
    C335     C        0.27210    0.49180    0.45600    1.000
    N78      N        0.26340    0.44380    0.50080    1.000
    C336     C        0.33250    0.51650    0.64120    1.000
    H112     H        0.32960    0.54310    0.61730    1.000
    C337     C        0.33620    0.38470    0.66290    1.000
    H113     H        0.30360    0.35600    0.64170    1.000
    H114     H        0.37040    0.39220    0.64240    1.000
    H115     H        0.33660    0.37160    0.70270    1.000
    Br91     Br       0.39870    0.48240    0.26760    1.000
    C338     C        0.21730    0.44630    0.52860    1.000
    N79      N        0.95390    0.34030    0.49190    1.000
    N80      N        0.04510    0.38630    0.50980    1.000
    C339     C        0.99960    0.38810    0.50130    1.000
    Br92     Br       0.91470    0.13290    0.56650    1.000
    C340     C        0.96570    0.21760    0.53500    1.000
    C341     C        0.02360    0.24470    0.53900    1.000
    C342     C        0.05530    0.30190    0.52950    1.000
    C343     C        0.02910    0.33200    0.51500    1.000
    C344     C        0.97120    0.30490    0.51000    1.000
    C345     C        0.93950    0.24770    0.51970    1.000
    C346     C        0.17980    0.41400    0.44800    1.000
    C347     C        0.15790    0.41400    0.39310    1.000
    C348     C        0.17990    0.40300    0.34340    1.000
    C349     C        0.22380    0.39200    0.34850    1.000
    C350     C        0.24580    0.39200    0.40330    1.000
    C351     C        0.22400    0.40300    0.45310    1.000
    C352     C        0.46700    0.53600    0.57600    1.000
    H116     H        0.50680    0.55130    0.57010    1.000
    H117     H        0.45990    0.54730    0.61420    1.000
    H118     H        0.44760    0.49490    0.57390    1.000
    C353     C        0.39400    0.55830    0.45900    1.000
    H119     H        0.36200    0.54990    0.43660    1.000
    C354     C        0.43680    0.60000    0.45700    1.000
    H120     H        0.44430    0.63140    0.43300    1.000
    C355     C        0.24440    0.30110    0.52510    1.000
    C356     C        0.30180    0.33150    0.51620    1.000
    C357     C        0.33230    0.30400    0.51230    1.000
    C358     C        0.30530    0.24620    0.51730    1.000
    C359     C        0.24790    0.21580    0.52620    1.000
    C360     C        0.21740    0.24320    0.53010    1.000
    Br93     Br       0.20780    0.13990    0.53470    1.000
    Br94     Br       0.14270    0.19980    0.53720    1.000
    Br95     Br       0.14220    0.20380    0.48950    1.000
    Br96     Br       0.19970    0.13950    0.49200    1.000
    Br97     Br       0.52590    0.60030    0.27280    1.000
    Br98     Br       0.48760    0.60930    0.23650    1.000
    Br99     Br       0.12110    0.34690    0.36940    1.000
    Br100    Br       0.10400    0.32020    0.29680    1.000
    Zn21     Zn       0.78531    0.78467    0.86599    1.000
    Zn22     Zn       0.99933    0.78461    0.86615    1.000
    N81      N        0.06437    0.85363    0.83483    1.000
    N82      N        0.00107    0.80233    0.04543    1.000
    N83      N        0.14757    0.93093    0.83533    1.000
    N84      N        0.00137    0.80263    0.95373    1.000
    C361     C        0.11247    0.88893    0.86553    1.000
    C362     C        0.00187    0.85103    0.03303    1.000
    H121     H        0.00387    0.87863    0.05913    1.000
    C363     C        0.99947    0.77483    0.99943    1.000
    C364     C        0.14317    0.90723    0.78273    1.000
    C365     C        0.09337    0.85653    0.77973    1.000
    C366     C        0.07607    0.82823    0.72663    1.000
    H122     H        0.04207    0.79363    0.72453    1.000
    C367     C        0.10847    0.85063    0.67673    1.000
    C368     C        0.15827    0.90133    0.67973    1.000
    C369     C        0.17557    0.92963    0.73283    1.000
    H123     H        0.20967    0.96423    0.73493    1.000
    N85      N        0.84737    0.77813    0.83453    1.000
    C370     C        0.88267    0.81833    0.79333    1.000
    C371     C        0.93877    0.82513    0.78933    1.000
    N86      N        0.93007    0.77713    0.83413    1.000
    C372     C        0.99917    0.84983    0.97453    1.000
    H124     H        0.99627    0.87643    0.95063    1.000
    C373     C        0.00287    0.71803    0.99623    1.000
    H125     H        0.97027    0.68933    0.97503    1.000
    H126     H        0.03707    0.72553    0.97573    1.000
    H127     H        0.00327    0.70493    0.03603    1.000
    Br101    Br       0.06537    0.81573    0.60093    1.000
    C374     C        0.88397    0.77963    0.86193    1.000
    N87      N        0.62057    0.67363    0.82523    1.000
    N88      N        0.71177    0.71963    0.84313    1.000
    C375     C        0.66627    0.72143    0.83463    1.000
    Br102    Br       0.58137    0.46623    0.89983    1.000
    C376     C        0.63237    0.55093    0.86833    1.000
    C377     C        0.69027    0.57803    0.87233    1.000
    C378     C        0.72197    0.63523    0.86283    1.000
    C379     C        0.69577    0.66533    0.84833    1.000
    C380     C        0.63787    0.63823    0.84333    1.000
    C381     C        0.60617    0.58103    0.85303    1.000
    C382     C        0.84647    0.74733    0.78133    1.000
    C383     C        0.82457    0.74733    0.72643    1.000
    C384     C        0.84657    0.73633    0.67673    1.000
    C385     C        0.89047    0.72533    0.68183    1.000
    C386     C        0.91247    0.72533    0.73663    1.000
    C387     C        0.89067    0.73633    0.78643    1.000
    C388     C        0.13367    0.86933    0.90933    1.000
    H128     H        0.17347    0.88463    0.90343    1.000
    H129     H        0.12657    0.88063    0.94753    1.000
    H130     H        0.11427    0.82823    0.90723    1.000
    C389     C        0.06067    0.89163    0.79233    1.000
    H131     H        0.02867    0.88323    0.76993    1.000
    C390     C        0.10347    0.93333    0.79033    1.000
    H132     H        0.11097    0.96473    0.76633    1.000
    C391     C        0.91107    0.63443    0.85843    1.000
    C392     C        0.96847    0.66483    0.84953    1.000
    C393     C        0.99897    0.63733    0.84563    1.000
    C394     C        0.97197    0.57953    0.85063    1.000
    C395     C        0.91457    0.54913    0.85953    1.000
    C396     C        0.88407    0.57653    0.86343    1.000
    Br103    Br       0.87447    0.47323    0.86803    1.000
    Br104    Br       0.80937    0.53313    0.87053    1.000
    Br105    Br       0.80887    0.53713    0.82283    1.000
    Br106    Br       0.86637    0.47283    0.82533    1.000
    Br107    Br       0.19257    0.93363    0.60613    1.000
    Br108    Br       0.15427    0.94263    0.56983    1.000
    Br109    Br       0.78777    0.68023    0.70273    1.000
    Br110    Br       0.77067    0.65353    0.63013    1.000
    Zn23     Zn       0.45197    0.11801    0.19933    1.000
    Zn24     Zn       0.66599    0.11795    0.19949    1.000
    N89      N        0.73103    0.18697    0.16817    1.000
    N90      N        0.66773    0.13567    0.37877    1.000
    N91      N        0.81423    0.26427    0.16867    1.000
    N92      N        0.66803    0.13597    0.28707    1.000
    C397     C        0.77913    0.22227    0.19887    1.000
    C398     C        0.66853    0.18437    0.36637    1.000
    H133     H        0.67053    0.21197    0.39247    1.000
    C399     C        0.66613    0.10817    0.33277    1.000
    C400     C        0.80983    0.24057    0.11607    1.000
    C401     C        0.76003    0.18987    0.11307    1.000
    C402     C        0.74273    0.16157    0.05997    1.000
    H134     H        0.70873    0.12697    0.05787    1.000
    C403     C        0.77513    0.18397    0.01007    1.000
    C404     C        0.82493    0.23467    0.01307    1.000
    C405     C        0.84223    0.26297    0.06617    1.000
    H135     H        0.87633    0.29757    0.06827    1.000
    N93      N        0.51403    0.11147    0.16787    1.000
    C406     C        0.54933    0.15167    0.12667    1.000
    C407     C        0.60543    0.15847    0.12267    1.000
    N94      N        0.59673    0.11047    0.16747    1.000
    C408     C        0.66583    0.18317    0.30787    1.000
    H136     H        0.66293    0.20977    0.28397    1.000
    C409     C        0.66953    0.05137    0.32957    1.000
    H137     H        0.63693    0.02267    0.30837    1.000
    H138     H        0.70373    0.05887    0.30907    1.000
    H139     H        0.66993    0.03827    0.36937    1.000
    Br111    Br       0.73203    0.14907    0.93427    1.000
    C410     C        0.55063    0.11297    0.19527    1.000
    N95      N        0.28723    0.00697    0.15857    1.000
    N96      N        0.37843    0.05297    0.17647    1.000
    C411     C        0.33293    0.05477    0.16797    1.000
    Br112    Br       0.24803    0.79957    0.23317    1.000
    C412     C        0.29903    0.88427    0.20167    1.000
    C413     C        0.35693    0.91137    0.20567    1.000
    C414     C        0.38863    0.96857    0.19617    1.000
    C415     C        0.36243    0.99867    0.18167    1.000
    C416     C        0.30453    0.97157    0.17667    1.000
    C417     C        0.27283    0.91437    0.18637    1.000
    C418     C        0.51313    0.08067    0.11467    1.000
    C419     C        0.49123    0.08067    0.05977    1.000
    C420     C        0.51323    0.06967    0.01007    1.000
    C421     C        0.55713    0.05867    0.01517    1.000
    C422     C        0.57913    0.05867    0.06997    1.000
    C423     C        0.55733    0.06967    0.11977    1.000
    C424     C        0.80033    0.20267    0.24267    1.000
    H140     H        0.84013    0.21797    0.23677    1.000
    H141     H        0.79323    0.21397    0.28087    1.000
    H142     H        0.78093    0.16157    0.24057    1.000
    C425     C        0.72733    0.22497    0.12567    1.000
    H143     H        0.69533    0.21657    0.10327    1.000
    C426     C        0.77013    0.26667    0.12367    1.000
    H144     H        0.77763    0.29807    0.09967    1.000
    C427     C        0.57773    0.96777    0.19177    1.000
    C428     C        0.63513    0.99817    0.18287    1.000
    C429     C        0.66563    0.97067    0.17897    1.000
    C430     C        0.63863    0.91287    0.18397    1.000
    C431     C        0.58123    0.88247    0.19287    1.000
    C432     C        0.55073    0.90987    0.19677    1.000
    Br113    Br       0.54113    0.80657    0.20137    1.000
    Br114    Br       0.47603    0.86647    0.20387    1.000
    Br115    Br       0.47553    0.87047    0.15617    1.000
    Br116    Br       0.53303    0.80617    0.15867    1.000
    Br117    Br       0.85923    0.26697    0.93947    1.000
    Br118    Br       0.82093    0.27597    0.90317    1.000
    Br119    Br       0.45443    0.01357    0.03607    1.000
    Br120    Br       0.43733    0.98687    0.96347    1.000
    Zn25     Zn       0.54866    0.66730    0.53266    1.000
    Zn26     Zn       0.54872    0.88138    0.53282    1.000
    N97      N        0.47970    0.87740    0.50150    1.000
    N98      N        0.53100    0.86540    0.71210    1.000
    N99      N        0.40240    0.88330    0.50200    1.000
    N100     N        0.53070    0.86540    0.62040    1.000
    C433     C        0.44440    0.89020    0.53220    1.000
    C434     C        0.48230    0.81750    0.69970    1.000
    H145     H        0.45470    0.79190    0.72580    1.000
    C435     C        0.55850    0.89130    0.66610    1.000
    C436     C        0.42610    0.90260    0.44940    1.000
    C437     C        0.47680    0.90350    0.44640    1.000
    C438     C        0.50510    0.91450    0.39330    1.000
    H146     H        0.53970    0.91510    0.39120    1.000
    C439     C        0.48270    0.92450    0.34340    1.000
    C440     C        0.43200    0.92360    0.34640    1.000
    C441     C        0.40370    0.91260    0.39950    1.000
    H147     H        0.36910    0.91210    0.40160    1.000
    N101     N        0.55520    0.73590    0.50120    1.000
    C442     C        0.51500    0.73100    0.46000    1.000
    C443     C        0.50820    0.78030    0.45600    1.000
    N102     N        0.55620    0.81960    0.50080    1.000
    C444     C        0.48350    0.81600    0.64120    1.000
    H148     H        0.45690    0.78650    0.61730    1.000
    C445     C        0.61530    0.95150    0.66290    1.000
    H149     H        0.64400    0.94760    0.64170    1.000
    H150     H        0.60780    0.97820    0.64240    1.000
    H151     H        0.62840    0.96500    0.70270    1.000
    Br121    Br       0.51760    0.91630    0.26760    1.000
    C446     C        0.55370    0.77100    0.52860    1.000
    N103     N        0.65970    0.61360    0.49190    1.000
    N104     N        0.61370    0.65880    0.50980    1.000
    C447     C        0.61190    0.61150    0.50130    1.000
    Br122    Br       0.86710    0.78180    0.56650    1.000
    C448     C        0.78240    0.74810    0.53500    1.000
    C449     C        0.75530    0.77890    0.53900    1.000
    C450     C        0.69810    0.75340    0.52950    1.000
    C451     C        0.66800    0.69710    0.51500    1.000
    C452     C        0.69510    0.66630    0.51000    1.000
    C453     C        0.75230    0.69180    0.51970    1.000
    C454     C        0.58600    0.76580    0.44800    1.000
    C455     C        0.58600    0.74390    0.39310    1.000
    C456     C        0.59700    0.77690    0.34340    1.000
    C457     C        0.60800    0.83180    0.34850    1.000
    C458     C        0.60800    0.85380    0.40330    1.000
    C459     C        0.59700    0.82100    0.45310    1.000
    C460     C        0.46400    0.93100    0.57600    1.000
    H152     H        0.44870    0.95550    0.57010    1.000
    H153     H        0.45270    0.91260    0.61420    1.000
    H154     H        0.50510    0.95270    0.57390    1.000
    C461     C        0.44170    0.83570    0.45900    1.000
    H155     H        0.45010    0.81210    0.43660    1.000
    C462     C        0.40000    0.83680    0.45700    1.000
    H156     H        0.36860    0.81290    0.43300    1.000
    C463     C        0.69890    0.94330    0.52510    1.000
    C464     C        0.66850    0.97030    0.51620    1.000
    C465     C        0.69600    0.02830    0.51230    1.000
    C466     C        0.75380    0.05910    0.51730    1.000
    C467     C        0.78420    0.03210    0.52620    1.000
    C468     C        0.75680    0.97420    0.53010    1.000
    Br123    Br       0.86010    0.06790    0.53470    1.000
    Br124    Br       0.80020    0.94290    0.53720    1.000
    Br125    Br       0.79620    0.93840    0.48950    1.000
    Br126    Br       0.86050    0.06020    0.49200    1.000
    Br127    Br       0.39970    0.92560    0.27280    1.000
    Br128    Br       0.39070    0.87830    0.23650    1.000
    Br129    Br       0.65310    0.77420    0.36940    1.000
    Br130    Br       0.67980    0.78380    0.29680    1.000
    Zn27     Zn       0.21533    0.00063    0.86599    1.000
    Zn28     Zn       0.21539    0.21471    0.86615    1.000
    N105     N        0.14637    0.21073    0.83483    1.000
    N106     N        0.19767    0.19873    0.04543    1.000
    N107     N        0.06907    0.21663    0.83533    1.000
    N108     N        0.19737    0.19873    0.95373    1.000
    C469     C        0.11107    0.22353    0.86553    1.000
    C470     C        0.14897    0.15083    0.03303    1.000
    H157     H        0.12137    0.12523    0.05913    1.000
    C471     C        0.22517    0.22463    0.99943    1.000
    C472     C        0.09277    0.23593    0.78273    1.000
    C473     C        0.14347    0.23683    0.77973    1.000
    C474     C        0.17177    0.24783    0.72663    1.000
    H158     H        0.20637    0.24843    0.72453    1.000
    C475     C        0.14937    0.25783    0.67673    1.000
    C476     C        0.09867    0.25693    0.67973    1.000
    C477     C        0.07037    0.24593    0.73283    1.000
    H159     H        0.03577    0.24543    0.73493    1.000
    N109     N        0.22187    0.06923    0.83453    1.000
    C478     C        0.18167    0.06433    0.79333    1.000
    C479     C        0.17487    0.11363    0.78933    1.000
    N110     N        0.22287    0.15293    0.83413    1.000
    C480     C        0.15017    0.14933    0.97453    1.000
    H160     H        0.12357    0.11983    0.95063    1.000
    C481     C        0.28197    0.28483    0.99623    1.000
    H161     H        0.31067    0.28093    0.97503    1.000
    H162     H        0.27447    0.31153    0.97573    1.000
    H163     H        0.29507    0.29833    0.03603    1.000
    Br131    Br       0.18427    0.24963    0.60093    1.000
    C482     C        0.22037    0.10433    0.86193    1.000
    N111     N        0.32637    0.94693    0.82523    1.000
    N112     N        0.28037    0.99213    0.84313    1.000
    C483     C        0.27857    0.94483    0.83463    1.000
    Br132    Br       0.53377    0.11513    0.89983    1.000
    C484     C        0.44907    0.08143    0.86833    1.000
    C485     C        0.42197    0.11223    0.87233    1.000
    C486     C        0.36477    0.08673    0.86283    1.000
    C487     C        0.33467    0.03043    0.84833    1.000
    C488     C        0.36177    0.99963    0.84333    1.000
    C489     C        0.41897    0.02513    0.85303    1.000
    C490     C        0.25267    0.09913    0.78133    1.000
    C491     C        0.25267    0.07723    0.72643    1.000
    C492     C        0.26367    0.11023    0.67673    1.000
    C493     C        0.27467    0.16513    0.68183    1.000
    C494     C        0.27467    0.18713    0.73663    1.000
    C495     C        0.26367    0.15433    0.78643    1.000
    C496     C        0.13067    0.26433    0.90933    1.000
    H164     H        0.11537    0.28883    0.90343    1.000
    H165     H        0.11937    0.24593    0.94753    1.000
    H166     H        0.17177    0.28603    0.90723    1.000
    C497     C        0.10837    0.16903    0.79233    1.000
    H167     H        0.11677    0.14543    0.76993    1.000
    C498     C        0.06667    0.17013    0.79033    1.000
    H168     H        0.03527    0.14623    0.76633    1.000
    C499     C        0.36557    0.27663    0.85843    1.000
    C500     C        0.33517    0.30363    0.84953    1.000
    C501     C        0.36267    0.36163    0.84563    1.000
    C502     C        0.42047    0.39243    0.85063    1.000
    C503     C        0.45087    0.36543    0.85953    1.000
    C504     C        0.42347    0.30753    0.86343    1.000
    Br133    Br       0.52677    0.40123    0.86803    1.000
    Br134    Br       0.46687    0.27623    0.87053    1.000
    Br135    Br       0.46287    0.27173    0.82283    1.000
    Br136    Br       0.52717    0.39353    0.82533    1.000
    Br137    Br       0.06637    0.25893    0.60613    1.000
    Br138    Br       0.05737    0.21163    0.56983    1.000
    Br139    Br       0.31977    0.10753    0.70273    1.000
    Br140    Br       0.34647    0.11713    0.63013    1.000
    Zn29     Zn       0.88199    0.33397    0.19933    1.000
    Zn30     Zn       0.88205    0.54805    0.19949    1.000
    N113     N        0.81303    0.54407    0.16817    1.000
    N114     N        0.86433    0.53207    0.37877    1.000
    N115     N        0.73573    0.54997    0.16867    1.000
    N116     N        0.86403    0.53207    0.28707    1.000
    C505     C        0.77773    0.55687    0.19887    1.000
    C506     C        0.81563    0.48417    0.36637    1.000
    H169     H        0.78803    0.45857    0.39247    1.000
    C507     C        0.89183    0.55797    0.33277    1.000
    C508     C        0.75943    0.56927    0.11607    1.000
    C509     C        0.81013    0.57017    0.11307    1.000
    C510     C        0.83843    0.58117    0.05997    1.000
    H170     H        0.87303    0.58177    0.05787    1.000
    C511     C        0.81603    0.59117    0.01007    1.000
    C512     C        0.76533    0.59027    0.01307    1.000
    C513     C        0.73703    0.57927    0.06617    1.000
    H171     H        0.70243    0.57877    0.06827    1.000
    N117     N        0.88853    0.40257    0.16787    1.000
    C514     C        0.84833    0.39767    0.12667    1.000
    C515     C        0.84153    0.44697    0.12267    1.000
    N118     N        0.88953    0.48627    0.16747    1.000
    C516     C        0.81683    0.48267    0.30787    1.000
    H172     H        0.79023    0.45317    0.28397    1.000
    C517     C        0.94863    0.61817    0.32957    1.000
    H173     H        0.97733    0.61427    0.30837    1.000
    H174     H        0.94113    0.64487    0.30907    1.000
    H175     H        0.96173    0.63167    0.36937    1.000
    Br141    Br       0.85093    0.58297    0.93427    1.000
    C518     C        0.88703    0.43767    0.19527    1.000
    N119     N        0.99303    0.28027    0.15857    1.000
    N120     N        0.94703    0.32547    0.17647    1.000
    C519     C        0.94523    0.27817    0.16797    1.000
    Br142    Br       0.20043    0.44847    0.23317    1.000
    C520     C        0.11573    0.41477    0.20167    1.000
    C521     C        0.08863    0.44557    0.20567    1.000
    C522     C        0.03143    0.42007    0.19617    1.000
    C523     C        0.00133    0.36377    0.18167    1.000
    C524     C        0.02843    0.33297    0.17667    1.000
    C525     C        0.08563    0.35847    0.18637    1.000
    C526     C        0.91933    0.43247    0.11467    1.000
    C527     C        0.91933    0.41057    0.05977    1.000
    C528     C        0.93033    0.44357    0.01007    1.000
    C529     C        0.94133    0.49847    0.01517    1.000
    C530     C        0.94133    0.52047    0.06997    1.000
    C531     C        0.93033    0.48767    0.11977    1.000
    C532     C        0.79733    0.59767    0.24267    1.000
    H176     H        0.78203    0.62217    0.23677    1.000
    H177     H        0.78603    0.57927    0.28087    1.000
    H178     H        0.83843    0.61937    0.24057    1.000
    C533     C        0.77503    0.50237    0.12567    1.000
    H179     H        0.78343    0.47877    0.10327    1.000
    C534     C        0.73333    0.50347    0.12367    1.000
    H180     H        0.70193    0.47957    0.09967    1.000
    C535     C        0.03223    0.60997    0.19177    1.000
    C536     C        0.00183    0.63697    0.18287    1.000
    C537     C        0.02933    0.69497    0.17897    1.000
    C538     C        0.08713    0.72577    0.18397    1.000
    C539     C        0.11753    0.69877    0.19287    1.000
    C540     C        0.09013    0.64087    0.19677    1.000
    Br143    Br       0.19343    0.73457    0.20137    1.000
    Br144    Br       0.13353    0.60957    0.20387    1.000
    Br145    Br       0.12953    0.60507    0.15617    1.000
    Br146    Br       0.19383    0.72687    0.15867    1.000
    Br147    Br       0.73303    0.59227    0.93947    1.000
    Br148    Br       0.72403    0.54497    0.90317    1.000
    Br149    Br       0.98643    0.44087    0.03607    1.000
    Br150    Br       0.01313    0.45047    0.96347    1.000
    Zn31     Zn       0.33270    0.88136    0.53266    1.000
    Zn32     Zn       0.11862    0.66734    0.53282    1.000
    N121     N        0.12260    0.60230    0.50150    1.000
    N122     N        0.13460    0.66560    0.71210    1.000
    N123     N        0.11670    0.51910    0.50200    1.000
    N124     N        0.13460    0.66530    0.62040    1.000
    C541     C        0.10980    0.55420    0.53220    1.000
    C542     C        0.18250    0.66480    0.69970    1.000
    H181     H        0.20810    0.66280    0.72580    1.000
    C543     C        0.10870    0.66720    0.66610    1.000
    C544     C        0.09740    0.52350    0.44940    1.000
    C545     C        0.09650    0.57330    0.44640    1.000
    C546     C        0.08550    0.59060    0.39330    1.000
    H182     H        0.08490    0.62460    0.39120    1.000
    C547     C        0.07550    0.55820    0.34340    1.000
    C548     C        0.07640    0.50840    0.34640    1.000
    C549     C        0.08740    0.49110    0.39950    1.000
    H183     H        0.08790    0.45700    0.40160    1.000
    N125     N        0.26410    0.81930    0.50120    1.000
    C550     C        0.26900    0.78400    0.46000    1.000
    C551     C        0.21970    0.72790    0.45600    1.000
    N126     N        0.18040    0.73660    0.50080    1.000
    C552     C        0.18400    0.66750    0.64120    1.000
    H184     H        0.21350    0.67040    0.61730    1.000
    C553     C        0.04850    0.66380    0.66290    1.000
    H185     H        0.05240    0.69640    0.64170    1.000
    H186     H        0.02180    0.62960    0.64240    1.000
    H187     H        0.03500    0.66340    0.70270    1.000
    Br151    Br       0.08370    0.60130    0.26760    1.000
    C554     C        0.22900    0.78270    0.52860    1.000
    N127     N        0.38640    0.04610    0.49190    1.000
    N128     N        0.34120    0.95490    0.50980    1.000
    C555     C        0.38850    0.00040    0.50130    1.000
    Br152    Br       0.21820    0.08530    0.56650    1.000
    C556     C        0.25190    0.03430    0.53500    1.000
    C557     C        0.22110    0.97640    0.53900    1.000
    C558     C        0.24660    0.94470    0.52950    1.000
    C559     C        0.30290    0.97090    0.51500    1.000
    C560     C        0.33370    0.02880    0.51000    1.000
    C561     C        0.30820    0.06050    0.51970    1.000
    C562     C        0.23420    0.82020    0.44800    1.000
    C563     C        0.25610    0.84210    0.39310    1.000
    C564     C        0.22310    0.82010    0.34340    1.000
    C565     C        0.16820    0.77620    0.34850    1.000
    C566     C        0.14620    0.75420    0.40330    1.000
    C567     C        0.17900    0.77600    0.45310    1.000
    C568     C        0.06900    0.53300    0.57600    1.000
    H188     H        0.04450    0.49320    0.57010    1.000
    H189     H        0.08740    0.54010    0.61420    1.000
    H190     H        0.04730    0.55240    0.57390    1.000
    C569     C        0.16430    0.60600    0.45900    1.000
    H191     H        0.18790    0.63800    0.43660    1.000
    C570     C        0.16320    0.56320    0.45700    1.000
    H192     H        0.18710    0.55570    0.43300    1.000
    C571     C        0.05670    0.75560    0.52510    1.000
    C572     C        0.02970    0.69820    0.51620    1.000
    C573     C        0.97170    0.66770    0.51230    1.000
    C574     C        0.94090    0.69470    0.51730    1.000
    C575     C        0.96790    0.75210    0.52620    1.000
    C576     C        0.02580    0.78260    0.53010    1.000
    Br153    Br       0.93210    0.79220    0.53470    1.000
    Br154    Br       0.05710    0.85730    0.53720    1.000
    Br155    Br       0.06160    0.85780    0.48950    1.000
    Br156    Br       0.93980    0.80030    0.49200    1.000
    Br157    Br       0.07440    0.47410    0.27280    1.000
    Br158    Br       0.12170    0.51240    0.23650    1.000
    Br159    Br       0.22580    0.87890    0.36940    1.000
    Br160    Br       0.21620    0.89600    0.29680    1.000
    Zn33     Zn       0.99937    0.21469    0.86599    1.000
    Zn34     Zn       0.78529    0.00067    0.86615    1.000
    N129     N        0.78927    0.93563    0.83483    1.000
    N130     N        0.80127    0.99893    0.04543    1.000
    N131     N        0.78337    0.85243    0.83533    1.000
    N132     N        0.80127    0.99863    0.95373    1.000
    C577     C        0.77647    0.88753    0.86553    1.000
    C578     C        0.84917    0.99813    0.03303    1.000
    H193     H        0.87477    0.99613    0.05913    1.000
    C579     C        0.77537    0.00053    0.99943    1.000
    C580     C        0.76407    0.85683    0.78273    1.000
    C581     C        0.76317    0.90663    0.77973    1.000
    C582     C        0.75217    0.92393    0.72663    1.000
    H194     H        0.75157    0.95793    0.72453    1.000
    C583     C        0.74217    0.89153    0.67673    1.000
    C584     C        0.74307    0.84173    0.67973    1.000
    C585     C        0.75407    0.82443    0.73283    1.000
    H195     H        0.75457    0.79033    0.73493    1.000
    N133     N        0.93077    0.15263    0.83453    1.000
    C586     C        0.93567    0.11733    0.79333    1.000
    C587     C        0.88637    0.06123    0.78933    1.000
    N134     N        0.84707    0.06993    0.83413    1.000
    C588     C        0.85067    0.00083    0.97453    1.000
    H196     H        0.88017    0.00373    0.95063    1.000
    C589     C        0.71517    0.99713    0.99623    1.000
    H197     H        0.71907    0.02973    0.97503    1.000
    H198     H        0.68847    0.96293    0.97573    1.000
    H199     H        0.70167    0.99673    0.03603    1.000
    Br161    Br       0.75037    0.93463    0.60093    1.000
    C590     C        0.89567    0.11603    0.86193    1.000
    N135     N        0.05307    0.37943    0.82523    1.000
    N136     N        0.00787    0.28823    0.84313    1.000
    C591     C        0.05517    0.33373    0.83463    1.000
    Br162    Br       0.88487    0.41863    0.89983    1.000
    C592     C        0.91857    0.36763    0.86833    1.000
    C593     C        0.88777    0.30973    0.87233    1.000
    C594     C        0.91327    0.27803    0.86283    1.000
    C595     C        0.96957    0.30423    0.84833    1.000
    C596     C        0.00037    0.36213    0.84333    1.000
    C597     C        0.97487    0.39383    0.85303    1.000
    C598     C        0.90087    0.15353    0.78133    1.000
    C599     C        0.92277    0.17543    0.72643    1.000
    C600     C        0.88977    0.15343    0.67673    1.000
    C601     C        0.83487    0.10953    0.68183    1.000
    C602     C        0.81287    0.08753    0.73663    1.000
    C603     C        0.84567    0.10933    0.78643    1.000
    C604     C        0.73567    0.86633    0.90933    1.000
    H200     H        0.71117    0.82653    0.90343    1.000
    H201     H        0.75407    0.87343    0.94753    1.000
    H202     H        0.71397    0.88573    0.90723    1.000
    C605     C        0.83097    0.93933    0.79233    1.000
    H203     H        0.85457    0.97133    0.76993    1.000
    C606     C        0.82987    0.89653    0.79033    1.000
    H204     H        0.85377    0.88903    0.76633    1.000
    C607     C        0.72337    0.08893    0.85843    1.000
    C608     C        0.69637    0.03153    0.84953    1.000
    C609     C        0.63837    0.00103    0.84563    1.000
    C610     C        0.60757    0.02803    0.85063    1.000
    C611     C        0.63457    0.08543    0.85953    1.000
    C612     C        0.69247    0.11593    0.86343    1.000
    Br163    Br       0.59877    0.12553    0.86803    1.000
    Br164    Br       0.72377    0.19063    0.87053    1.000
    Br165    Br       0.72827    0.19113    0.82283    1.000
    Br166    Br       0.60647    0.13363    0.82533    1.000
    Br167    Br       0.74107    0.80743    0.60613    1.000
    Br168    Br       0.78837    0.84573    0.56983    1.000
    Br169    Br       0.89247    0.21223    0.70273    1.000
    Br170    Br       0.88287    0.22933    0.63013    1.000
    Zn35     Zn       0.66603    0.54803    0.19933    1.000
    Zn36     Zn       0.45195    0.33401    0.19949    1.000
    N137     N        0.45593    0.26897    0.16817    1.000
    N138     N        0.46793    0.33227    0.37877    1.000
    N139     N        0.45003    0.18577    0.16867    1.000
    N140     N        0.46793    0.33197    0.28707    1.000
    C613     C        0.44313    0.22087    0.19887    1.000
    C614     C        0.51583    0.33147    0.36637    1.000
    H205     H        0.54143    0.32947    0.39247    1.000
    C615     C        0.44203    0.33387    0.33277    1.000
    C616     C        0.43073    0.19017    0.11607    1.000
    C617     C        0.42983    0.23997    0.11307    1.000
    C618     C        0.41883    0.25727    0.05997    1.000
    H206     H        0.41823    0.29127    0.05787    1.000
    C619     C        0.40883    0.22487    0.01007    1.000
    C620     C        0.40973    0.17507    0.01307    1.000
    C621     C        0.42073    0.15777    0.06617    1.000
    H207     H        0.42123    0.12367    0.06827    1.000
    N141     N        0.59743    0.48597    0.16787    1.000
    C622     C        0.60233    0.45067    0.12667    1.000
    C623     C        0.55303    0.39457    0.12267    1.000
    N142     N        0.51373    0.40327    0.16747    1.000
    C624     C        0.51733    0.33417    0.30787    1.000
    H208     H        0.54683    0.33707    0.28397    1.000
    C625     C        0.38183    0.33047    0.32957    1.000
    H209     H        0.38573    0.36307    0.30837    1.000
    H210     H        0.35513    0.29627    0.30907    1.000
    H211     H        0.36833    0.33007    0.36937    1.000
    Br171    Br       0.41703    0.26797    0.93427    1.000
    C626     C        0.56233    0.44937    0.19527    1.000
    N143     N        0.71973    0.71277    0.15857    1.000
    N144     N        0.67453    0.62157    0.17647    1.000
    C627     C        0.72183    0.66707    0.16797    1.000
    Br172    Br       0.55153    0.75197    0.23317    1.000
    C628     C        0.58523    0.70097    0.20167    1.000
    C629     C        0.55443    0.64307    0.20567    1.000
    C630     C        0.57993    0.61137    0.19617    1.000
    C631     C        0.63623    0.63757    0.18167    1.000
    C632     C        0.66703    0.69547    0.17667    1.000
    C633     C        0.64153    0.72717    0.18637    1.000
    C634     C        0.56753    0.48687    0.11467    1.000
    C635     C        0.58943    0.50877    0.05977    1.000
    C636     C        0.55643    0.48677    0.01007    1.000
    C637     C        0.50153    0.44287    0.01517    1.000
    C638     C        0.47953    0.42087    0.06997    1.000
    C639     C        0.51233    0.44267    0.11977    1.000
    C640     C        0.40233    0.19967    0.24267    1.000
    H212     H        0.37783    0.15987    0.23677    1.000
    H213     H        0.42073    0.20677    0.28087    1.000
    H214     H        0.38063    0.21907    0.24057    1.000
    C641     C        0.49763    0.27267    0.12567    1.000
    H215     H        0.52123    0.30467    0.10327    1.000
    C642     C        0.49653    0.22987    0.12367    1.000
    H216     H        0.52043    0.22237    0.09967    1.000
    C643     C        0.39003    0.42227    0.19177    1.000
    C644     C        0.36303    0.36487    0.18287    1.000
    C645     C        0.30503    0.33437    0.17897    1.000
    C646     C        0.27423    0.36137    0.18397    1.000
    C647     C        0.30123    0.41877    0.19287    1.000
    C648     C        0.35913    0.44927    0.19677    1.000
    Br173    Br       0.26543    0.45887    0.20137    1.000
    Br174    Br       0.39043    0.52397    0.20387    1.000
    Br175    Br       0.39493    0.52447    0.15617    1.000
    Br176    Br       0.27313    0.46697    0.15867    1.000
    Br177    Br       0.40773    0.14077    0.93947    1.000
    Br178    Br       0.45503    0.17907    0.90317    1.000
    Br179    Br       0.55913    0.54557    0.03607    1.000
    Br180    Br       0.54953    0.56267    0.96347    1.000
