data_functionalizedCrystal
_audit_creation_method	'EQeq! by Chris Wilmer'
_symmetry_space_group_name_H-M	'P1'
_symmetry_Int_Tables_number	1
_symmetry_cell_setting	triclinic
loop_
_symmetry_equiv_pos_as_xyz
  x,y,z
_cell_length_a	23.627
_cell_length_b	23.627
_cell_length_c	23.627
_cell_angle_alpha	90
_cell_angle_beta	90
_cell_angle_gamma	90
loop_
_atom_site_label
_atom_site_type_symbol
_atom_site_fract_x
_atom_site_fract_y
_atom_site_fract_z
_atom_site_charge
Mof_Na	Na	0.5	0.75	-0	3
Mof_Na	Na	0.5	0.25	-0	2.988
Mof_Na	Na	-4.84365e-33	0.5	0.75	3
Mof_Na	Na	9.3735e-34	0.5	0.25	2.988
Mof_Na	Na	0.75	0	0.5	3
Mof_Na	Na	0.25	0	0.5	2.987
Mof_Fe	Fe	0.75	0.75	0.75	0.744
Mof_Fe	Fe	0.25	0.25	0.75	0.743
Mof_Fe	Fe	0.25	0.75	0.25	0.743
Mof_Fe	Fe	0.75	0.25	0.25	0.743
Mof_Fe	Fe	0.25	0.25	0.25	0.743
Mof_Fe	Fe	0.75	0.75	0.25	0.744
Mof_Fe	Fe	0.75	0.25	0.75	0.744
Mof_Fe	Fe	0.25	0.75	0.75	0.744
Mof_H 	H 	0.7589	0.8734	0.7971	-0.043
Mof_H 	H 	0.7205	0.9246	0.8632	0.069
Mof_H 	H 	0.6408	0.8885	0.9136	0.024
Mof_H 	H 	0.2411	0.1266	0.7971	-0.047
Mof_H 	H 	0.2795	0.0754	0.8632	0.039
Mof_H 	H 	0.3592	0.1115	0.9136	0.005
Mof_H 	H 	0.2411	0.8734	0.2029	-0.039
Mof_H 	H 	0.2795	0.9246	0.1368	0.065
Mof_H 	H 	0.3592	0.8885	0.0864	-0.003
Mof_H 	H 	0.7589	0.1266	0.2029	-0.048
Mof_H 	H 	0.7205	0.0754	0.1368	0.03
Mof_H 	H 	0.6408	0.1115	0.0864	-0.023
Mof_H 	H 	0.7971	0.7589	0.8734	-0.043
Mof_H 	H 	0.8632	0.7205	0.9246	0.069
Mof_H 	H 	0.9136	0.6408	0.8885	0.024
Mof_H 	H 	0.7971	0.2411	0.1266	-0.047
Mof_H 	H 	0.8632	0.2795	0.0754	0.039
Mof_H 	H 	0.9136	0.3592	0.1115	0.005
Mof_H 	H 	0.2029	0.2411	0.8734	-0.039
Mof_H 	H 	0.1368	0.2795	0.9246	0.065
Mof_H 	H 	0.0864	0.3592	0.8885	-0.003
Mof_H 	H 	0.2029	0.7589	0.1266	-0.048
Mof_H 	H 	0.1368	0.7205	0.0754	0.03
Mof_H 	H 	0.0864	0.6408	0.1115	-0.023
Mof_H 	H 	0.8734	0.7971	0.7589	-0.043
Mof_H 	H 	0.9246	0.8632	0.7205	0.069
Mof_H 	H 	0.8885	0.9136	0.6408	0.024
Mof_H 	H 	0.1266	0.7971	0.2411	-0.047
Mof_H 	H 	0.0754	0.8632	0.2795	0.039
Mof_H 	H 	0.1115	0.9136	0.3592	0.005
Mof_H 	H 	0.8734	0.2029	0.2411	-0.039
Mof_H 	H 	0.9246	0.1368	0.2795	0.065
Mof_H 	H 	0.8885	0.0864	0.3592	-0.003
Mof_H 	H 	0.1266	0.2029	0.7589	-0.048
Mof_H 	H 	0.0754	0.1368	0.7205	0.03
Mof_H 	H 	0.1115	0.0864	0.6408	-0.023
Mof_H 	H 	0.3734	0.2589	0.7029	-0.048
Mof_H 	H 	0.4246	0.2205	0.6368	0.046
Mof_H 	H 	0.3885	0.1408	0.5864	-0.008
Mof_H 	H 	0.6266	0.7411	0.7029	-0.047
Mof_H 	H 	0.5754	0.7795	0.6368	0.047
Mof_H 	H 	0.6115	0.8592	0.5864	0.007
Mof_H 	H 	0.3734	0.7411	0.2971	-0.047
Mof_H 	H 	0.4246	0.7795	0.3632	0.047
Mof_H 	H 	0.3885	0.8592	0.4136	0.007
Mof_H 	H 	0.6266	0.2589	0.2971	-0.048
Mof_H 	H 	0.5754	0.2205	0.3632	0.046
Mof_H 	H 	0.6115	0.1408	0.4136	-0.008
Mof_H 	H 	0.2589	0.2971	0.6266	-0.048
Mof_H 	H 	0.2205	0.3632	0.5754	0.046
Mof_H 	H 	0.1408	0.4136	0.6115	-0.008
Mof_H 	H 	0.7411	0.2971	0.3734	-0.047
Mof_H 	H 	0.7795	0.3632	0.4246	0.047
Mof_H 	H 	0.8592	0.4136	0.3885	0.007
Mof_H 	H 	0.7411	0.7029	0.6266	-0.047
Mof_H 	H 	0.7795	0.6368	0.5754	0.047
Mof_H 	H 	0.8592	0.5864	0.6115	0.007
Mof_H 	H 	0.2589	0.7029	0.3734	-0.048
Mof_H 	H 	0.2205	0.6368	0.4246	0.046
Mof_H 	H 	0.1408	0.5864	0.3885	-0.008
Mof_H 	H 	0.2971	0.3734	0.7411	-0.047
Mof_H 	H 	0.3632	0.4246	0.7795	0.047
Mof_H 	H 	0.4136	0.3885	0.8592	0.007
Mof_H 	H 	0.2971	0.6266	0.2589	-0.048
Mof_H 	H 	0.3632	0.5754	0.2205	0.046
Mof_H 	H 	0.4136	0.6115	0.1408	-0.008
Mof_H 	H 	0.7029	0.3734	0.2589	-0.048
Mof_H 	H 	0.6368	0.4246	0.2205	0.046
Mof_H 	H 	0.5864	0.3885	0.1408	-0.008
Mof_H 	H 	0.7029	0.6266	0.7411	-0.047
Mof_H 	H 	0.6368	0.5754	0.7795	0.047
Mof_H 	H 	0.5864	0.6115	0.8592	0.007
Mof_H 	H 	0.2411	0.1266	0.2029	-0.045
Mof_H 	H 	0.2795	0.0754	0.1368	0.033
Mof_H 	H 	0.3592	0.1115	0.0864	-0.023
Mof_H 	H 	0.7589	0.8734	0.2029	-0.041
Mof_H 	H 	0.7205	0.9246	0.1368	0.062
Mof_H 	H 	0.6408	0.8885	0.0864	-0.003
Mof_H 	H 	0.7589	0.1266	0.7971	-0.05
Mof_H 	H 	0.7205	0.0754	0.8632	0.036
Mof_H 	H 	0.6408	0.1115	0.9136	0.005
Mof_H 	H 	0.2411	0.8734	0.7971	-0.041
Mof_H 	H 	0.2795	0.9246	0.8632	0.072
Mof_H 	H 	0.3592	0.8885	0.9136	0.025
Mof_H 	H 	0.2029	0.2411	0.1266	-0.045
Mof_H 	H 	0.1368	0.2795	0.0754	0.033
Mof_H 	H 	0.0864	0.3592	0.1115	-0.023
Mof_H 	H 	0.2029	0.7589	0.8734	-0.041
Mof_H 	H 	0.1368	0.7205	0.9246	0.062
Mof_H 	H 	0.0864	0.6408	0.8885	-0.003
Mof_H 	H 	0.7971	0.7589	0.1266	-0.05
Mof_H 	H 	0.8632	0.7205	0.0754	0.036
Mof_H 	H 	0.9136	0.6408	0.1115	0.005
Mof_H 	H 	0.7971	0.2411	0.8734	-0.041
Mof_H 	H 	0.8632	0.2795	0.9246	0.072
Mof_H 	H 	0.9136	0.3592	0.8885	0.025
Mof_H 	H 	0.1266	0.2029	0.2411	-0.045
Mof_H 	H 	0.0754	0.1368	0.2795	0.033
Mof_H 	H 	0.1115	0.0864	0.3592	-0.023
Mof_H 	H 	0.8734	0.2029	0.7589	-0.041
Mof_H 	H 	0.9246	0.1368	0.7205	0.062
Mof_H 	H 	0.8885	0.0864	0.6408	-0.003
Mof_H 	H 	0.1266	0.7971	0.7589	-0.05
Mof_H 	H 	0.0754	0.8632	0.7205	0.036
Mof_H 	H 	0.1115	0.9136	0.6408	0.005
Mof_H 	H 	0.8734	0.7971	0.2411	-0.041
Mof_H 	H 	0.9246	0.8632	0.2795	0.072
Mof_H 	H 	0.8885	0.9136	0.3592	0.025
Mof_H 	H 	0.6266	0.7411	0.2971	-0.047
Mof_H 	H 	0.5754	0.7795	0.3632	0.047
Mof_H 	H 	0.6115	0.8592	0.4136	0.007
Mof_H 	H 	0.3734	0.2589	0.2971	-0.048
Mof_H 	H 	0.4246	0.2205	0.3632	0.046
Mof_H 	H 	0.3885	0.1408	0.4136	-0.008
Mof_H 	H 	0.6266	0.2589	0.7029	-0.048
Mof_H 	H 	0.5754	0.2205	0.6368	0.046
Mof_H 	H 	0.6115	0.1408	0.5864	-0.008
Mof_H 	H 	0.3734	0.7411	0.7029	-0.047
Mof_H 	H 	0.4246	0.7795	0.6368	0.047
Mof_H 	H 	0.3885	0.8592	0.5864	0.007
Mof_H 	H 	0.7411	0.7029	0.3734	-0.047
Mof_H 	H 	0.7795	0.6368	0.4246	0.047
Mof_H 	H 	0.8592	0.5864	0.3885	0.007
Mof_H 	H 	0.2589	0.7029	0.6266	-0.048
Mof_H 	H 	0.2205	0.6368	0.5754	0.046
Mof_H 	H 	0.1408	0.5864	0.6115	-0.008
Mof_H 	H 	0.2589	0.2971	0.3734	-0.048
Mof_H 	H 	0.2205	0.3632	0.4246	0.046
Mof_H 	H 	0.1408	0.4136	0.3885	-0.008
Mof_H 	H 	0.7411	0.2971	0.6266	-0.047
Mof_H 	H 	0.7795	0.3632	0.5754	0.047
Mof_H 	H 	0.8592	0.4136	0.6115	0.007
Mof_H 	H 	0.7029	0.6266	0.2589	-0.048
Mof_H 	H 	0.6368	0.5754	0.2205	0.046
Mof_H 	H 	0.5864	0.6115	0.1408	-0.008
Mof_H 	H 	0.7029	0.3734	0.7411	-0.047
Mof_H 	H 	0.6368	0.4246	0.7795	0.047
Mof_H 	H 	0.5864	0.3885	0.8592	0.007
Mof_H 	H 	0.2971	0.6266	0.7411	-0.047
Mof_H 	H 	0.3632	0.5754	0.7795	0.047
Mof_H 	H 	0.4136	0.6115	0.8592	0.007
Mof_H 	H 	0.2971	0.3734	0.2589	-0.048
Mof_H 	H 	0.3632	0.4246	0.2205	0.046
Mof_H 	H 	0.4136	0.3885	0.1408	-0.008
Mof_C 	C 	0.73021	0.85691	0.81848	0.119
Mof_C 	C 	0.7071	0.8882	0.85632	-0.182
Mof_C 	C 	0.66045	0.86622	0.88776	0.053
Mof_C 	C 	0.64504	0.80799	0.87777	-0.094
Mof_C 	C 	0.67475	0.78172	0.83616	0.075
Mof_C 	C 	0.60122	0.78337	0.90925	0.216
Mof_C 	C 	0.26979	0.14309	0.81848	0.114
Mof_C 	C 	0.2929	0.1118	0.85632	-0.183
Mof_C 	C 	0.33955	0.13378	0.88776	0.046
Mof_C 	C 	0.35496	0.19201	0.87777	-0.097
Mof_C 	C 	0.32525	0.21828	0.83616	0.074
Mof_C 	C 	0.39878	0.21663	0.90925	0.218
Mof_C 	C 	0.26979	0.85691	0.18152	0.121
Mof_C 	C 	0.2929	0.8882	0.14368	-0.193
Mof_C 	C 	0.33955	0.86622	0.11224	0.054
Mof_C 	C 	0.35496	0.80799	0.12223	-0.11
Mof_C 	C 	0.32525	0.78172	0.16384	0.076
Mof_C 	C 	0.39878	0.78337	0.09075	0.213
Mof_C 	C 	0.73021	0.14309	0.18152	0.114
Mof_C 	C 	0.7071	0.1118	0.14368	-0.194
Mof_C 	C 	0.66045	0.13378	0.11224	0.044
Mof_C 	C 	0.64504	0.19201	0.12223	-0.113
Mof_C 	C 	0.67475	0.21828	0.16384	0.075
Mof_C 	C 	0.60122	0.21663	0.09075	0.214
Mof_C 	C 	0.81848	0.73021	0.85691	0.119
Mof_C 	C 	0.85632	0.7071	0.8882	-0.182
Mof_C 	C 	0.88776	0.66045	0.86622	0.053
Mof_C 	C 	0.87777	0.64504	0.80799	-0.094
Mof_C 	C 	0.83616	0.67475	0.78172	0.075
Mof_C 	C 	0.90925	0.60122	0.78337	0.216
Mof_C 	C 	0.81848	0.26979	0.14309	0.114
Mof_C 	C 	0.85632	0.2929	0.1118	-0.183
Mof_C 	C 	0.88776	0.33955	0.13378	0.046
Mof_C 	C 	0.87777	0.35496	0.19201	-0.097
Mof_C 	C 	0.83616	0.32525	0.21828	0.074
Mof_C 	C 	0.90925	0.39878	0.21663	0.218
Mof_C 	C 	0.18152	0.26979	0.85691	0.121
Mof_C 	C 	0.14368	0.2929	0.8882	-0.193
Mof_C 	C 	0.11224	0.33955	0.86622	0.054
Mof_C 	C 	0.12223	0.35496	0.80799	-0.11
Mof_C 	C 	0.16384	0.32525	0.78172	0.076
Mof_C 	C 	0.09075	0.39878	0.78337	0.213
Mof_C 	C 	0.18152	0.73021	0.14309	0.114
Mof_C 	C 	0.14368	0.7071	0.1118	-0.194
Mof_C 	C 	0.11224	0.66045	0.13378	0.044
Mof_C 	C 	0.12223	0.64504	0.19201	-0.113
Mof_C 	C 	0.16384	0.67475	0.21828	0.075
Mof_C 	C 	0.09075	0.60122	0.21663	0.214
Mof_C 	C 	0.85691	0.81848	0.73021	0.119
Mof_C 	C 	0.8882	0.85632	0.7071	-0.182
Mof_C 	C 	0.86622	0.88776	0.66045	0.053
Mof_C 	C 	0.80799	0.87777	0.64504	-0.094
Mof_C 	C 	0.78172	0.83616	0.67475	0.075
Mof_C 	C 	0.78337	0.90925	0.60122	0.216
Mof_C 	C 	0.14309	0.81848	0.26979	0.114
Mof_C 	C 	0.1118	0.85632	0.2929	-0.183
Mof_C 	C 	0.13378	0.88776	0.33955	0.046
Mof_C 	C 	0.19201	0.87777	0.35496	-0.097
Mof_C 	C 	0.21828	0.83616	0.32525	0.074
Mof_C 	C 	0.21663	0.90925	0.39878	0.218
Mof_C 	C 	0.85691	0.18152	0.26979	0.121
Mof_C 	C 	0.8882	0.14368	0.2929	-0.193
Mof_C 	C 	0.86622	0.11224	0.33955	0.054
Mof_C 	C 	0.80799	0.12223	0.35496	-0.11
Mof_C 	C 	0.78172	0.16384	0.32525	0.076
Mof_C 	C 	0.78337	0.09075	0.39878	0.213
Mof_C 	C 	0.14309	0.18152	0.73021	0.114
Mof_C 	C 	0.1118	0.14368	0.7071	-0.194
Mof_C 	C 	0.13378	0.11224	0.66045	0.044
Mof_C 	C 	0.19201	0.12223	0.64504	-0.113
Mof_C 	C 	0.21828	0.16384	0.67475	0.075
Mof_C 	C 	0.21663	0.09075	0.60122	0.214
Mof_C 	C 	0.35691	0.23021	0.68152	0.117
Mof_C 	C 	0.3882	0.2071	0.64368	-0.193
Mof_C 	C 	0.36622	0.16045	0.61224	0.048
Mof_C 	C 	0.30799	0.14504	0.62223	-0.111
Mof_C 	C 	0.28172	0.17475	0.66384	0.074
Mof_C 	C 	0.28337	0.10122	0.59075	0.214
Mof_C 	C 	0.64309	0.76979	0.68152	0.115
Mof_C 	C 	0.6118	0.7929	0.64368	-0.185
Mof_C 	C 	0.63378	0.83955	0.61224	0.045
Mof_C 	C 	0.69201	0.85496	0.62223	-0.101
Mof_C 	C 	0.71828	0.82525	0.66384	0.074
Mof_C 	C 	0.71663	0.89878	0.59075	0.213
Mof_C 	C 	0.35691	0.76979	0.31848	0.115
Mof_C 	C 	0.3882	0.7929	0.35632	-0.185
Mof_C 	C 	0.36622	0.83955	0.38776	0.045
Mof_C 	C 	0.30799	0.85496	0.37777	-0.1
Mof_C 	C 	0.28172	0.82525	0.33616	0.074
Mof_C 	C 	0.28337	0.89878	0.40925	0.212
Mof_C 	C 	0.64309	0.23021	0.31848	0.117
Mof_C 	C 	0.6118	0.2071	0.35632	-0.193
Mof_C 	C 	0.63378	0.16045	0.38776	0.048
Mof_C 	C 	0.69201	0.14504	0.37777	-0.111
Mof_C 	C 	0.71828	0.17475	0.33616	0.075
Mof_C 	C 	0.71663	0.10122	0.40925	0.215
Mof_C 	C 	0.23021	0.31848	0.64309	0.117
Mof_C 	C 	0.2071	0.35632	0.6118	-0.193
Mof_C 	C 	0.16045	0.38776	0.63378	0.048
Mof_C 	C 	0.14504	0.37777	0.69201	-0.111
Mof_C 	C 	0.17475	0.33616	0.71828	0.075
Mof_C 	C 	0.10122	0.40925	0.71663	0.215
Mof_C 	C 	0.76979	0.31848	0.35691	0.115
Mof_C 	C 	0.7929	0.35632	0.3882	-0.185
Mof_C 	C 	0.83955	0.38776	0.36622	0.045
Mof_C 	C 	0.85496	0.37777	0.30799	-0.1
Mof_C 	C 	0.82525	0.33616	0.28172	0.074
Mof_C 	C 	0.89878	0.40925	0.28337	0.212
Mof_C 	C 	0.76979	0.68152	0.64309	0.115
Mof_C 	C 	0.7929	0.64368	0.6118	-0.185
Mof_C 	C 	0.83955	0.61224	0.63378	0.045
Mof_C 	C 	0.85496	0.62223	0.69201	-0.101
Mof_C 	C 	0.82525	0.66384	0.71828	0.074
Mof_C 	C 	0.89878	0.59075	0.71663	0.213
Mof_C 	C 	0.23021	0.68152	0.35691	0.117
Mof_C 	C 	0.2071	0.64368	0.3882	-0.193
Mof_C 	C 	0.16045	0.61224	0.36622	0.048
Mof_C 	C 	0.14504	0.62223	0.30799	-0.111
Mof_C 	C 	0.17475	0.66384	0.28172	0.074
Mof_C 	C 	0.10122	0.59075	0.28337	0.214
Mof_C 	C 	0.31848	0.35691	0.76979	0.115
Mof_C 	C 	0.35632	0.3882	0.7929	-0.185
Mof_C 	C 	0.38776	0.36622	0.83955	0.045
Mof_C 	C 	0.37777	0.30799	0.85496	-0.1
Mof_C 	C 	0.33616	0.28172	0.82525	0.074
Mof_C 	C 	0.40925	0.28337	0.89878	0.212
Mof_C 	C 	0.31848	0.64309	0.23021	0.117
Mof_C 	C 	0.35632	0.6118	0.2071	-0.193
Mof_C 	C 	0.38776	0.63378	0.16045	0.048
Mof_C 	C 	0.37777	0.69201	0.14504	-0.111
Mof_C 	C 	0.33616	0.71828	0.17475	0.075
Mof_C 	C 	0.40925	0.71663	0.10122	0.215
Mof_C 	C 	0.68152	0.35691	0.23021	0.117
Mof_C 	C 	0.64368	0.3882	0.2071	-0.193
Mof_C 	C 	0.61224	0.36622	0.16045	0.048
Mof_C 	C 	0.62223	0.30799	0.14504	-0.111
Mof_C 	C 	0.66384	0.28172	0.17475	0.074
Mof_C 	C 	0.59075	0.28337	0.10122	0.214
Mof_C 	C 	0.68152	0.64309	0.76979	0.115
Mof_C 	C 	0.64368	0.6118	0.7929	-0.185
Mof_C 	C 	0.61224	0.63378	0.83955	0.045
Mof_C 	C 	0.62223	0.69201	0.85496	-0.101
Mof_C 	C 	0.66384	0.71828	0.82525	0.074
Mof_C 	C 	0.59075	0.71663	0.89878	0.213
Mof_C 	C 	0.26979	0.14309	0.18152	0.116
Mof_C 	C 	0.2929	0.1118	0.14368	-0.194
Mof_C 	C 	0.33955	0.13378	0.11224	0.046
Mof_C 	C 	0.35496	0.19201	0.12223	-0.113
Mof_C 	C 	0.32525	0.21828	0.16384	0.075
Mof_C 	C 	0.39878	0.21663	0.09075	0.214
Mof_C 	C 	0.73021	0.85691	0.18152	0.12
Mof_C 	C 	0.7071	0.8882	0.14368	-0.194
Mof_C 	C 	0.66045	0.86622	0.11224	0.053
Mof_C 	C 	0.64504	0.80799	0.12223	-0.11
Mof_C 	C 	0.67475	0.78172	0.16384	0.076
Mof_C 	C 	0.60122	0.78337	0.09075	0.213
Mof_C 	C 	0.73021	0.14309	0.81848	0.113
Mof_C 	C 	0.7071	0.1118	0.85632	-0.183
Mof_C 	C 	0.66045	0.13378	0.88776	0.045
Mof_C 	C 	0.64504	0.19201	0.87777	-0.097
Mof_C 	C 	0.67475	0.21828	0.83616	0.074
Mof_C 	C 	0.60122	0.21663	0.90925	0.217
Mof_C 	C 	0.26979	0.85691	0.81848	0.12
Mof_C 	C 	0.2929	0.8882	0.85632	-0.182
Mof_C 	C 	0.33955	0.86622	0.88776	0.055
Mof_C 	C 	0.35496	0.80799	0.87777	-0.094
Mof_C 	C 	0.32525	0.78172	0.83616	0.075
Mof_C 	C 	0.39878	0.78337	0.90925	0.216
Mof_C 	C 	0.18152	0.26979	0.14309	0.116
Mof_C 	C 	0.14368	0.2929	0.1118	-0.194
Mof_C 	C 	0.11224	0.33955	0.13378	0.046
Mof_C 	C 	0.12223	0.35496	0.19201	-0.113
Mof_C 	C 	0.16384	0.32525	0.21828	0.075
Mof_C 	C 	0.09075	0.39878	0.21663	0.214
Mof_C 	C 	0.18152	0.73021	0.85691	0.12
Mof_C 	C 	0.14368	0.7071	0.8882	-0.194
Mof_C 	C 	0.11224	0.66045	0.86622	0.053
Mof_C 	C 	0.12223	0.64504	0.80799	-0.11
Mof_C 	C 	0.16384	0.67475	0.78172	0.076
Mof_C 	C 	0.09075	0.60122	0.78337	0.213
Mof_C 	C 	0.81848	0.73021	0.14309	0.113
Mof_C 	C 	0.85632	0.7071	0.1118	-0.183
Mof_C 	C 	0.88776	0.66045	0.13378	0.045
Mof_C 	C 	0.87777	0.64504	0.19201	-0.097
Mof_C 	C 	0.83616	0.67475	0.21828	0.074
Mof_C 	C 	0.90925	0.60122	0.21663	0.217
Mof_C 	C 	0.81848	0.26979	0.85691	0.12
Mof_C 	C 	0.85632	0.2929	0.8882	-0.182
Mof_C 	C 	0.88776	0.33955	0.86622	0.055
Mof_C 	C 	0.87777	0.35496	0.80799	-0.094
Mof_C 	C 	0.83616	0.32525	0.78172	0.075
Mof_C 	C 	0.90925	0.39878	0.78337	0.216
Mof_C 	C 	0.14309	0.18152	0.26979	0.116
Mof_C 	C 	0.1118	0.14368	0.2929	-0.194
Mof_C 	C 	0.13378	0.11224	0.33955	0.046
Mof_C 	C 	0.19201	0.12223	0.35496	-0.113
Mof_C 	C 	0.21828	0.16384	0.32525	0.075
Mof_C 	C 	0.21663	0.09075	0.39878	0.214
Mof_C 	C 	0.85691	0.18152	0.73021	0.12
Mof_C 	C 	0.8882	0.14368	0.7071	-0.194
Mof_C 	C 	0.86622	0.11224	0.66045	0.053
Mof_C 	C 	0.80799	0.12223	0.64504	-0.11
Mof_C 	C 	0.78172	0.16384	0.67475	0.076
Mof_C 	C 	0.78337	0.09075	0.60122	0.213
Mof_C 	C 	0.14309	0.81848	0.73021	0.113
Mof_C 	C 	0.1118	0.85632	0.7071	-0.183
Mof_C 	C 	0.13378	0.88776	0.66045	0.045
Mof_C 	C 	0.19201	0.87777	0.64504	-0.097
Mof_C 	C 	0.21828	0.83616	0.67475	0.074
Mof_C 	C 	0.21663	0.90925	0.60122	0.217
Mof_C 	C 	0.85691	0.81848	0.26979	0.12
Mof_C 	C 	0.8882	0.85632	0.2929	-0.182
Mof_C 	C 	0.86622	0.88776	0.33955	0.055
Mof_C 	C 	0.80799	0.87777	0.35496	-0.094
Mof_C 	C 	0.78172	0.83616	0.32525	0.075
Mof_C 	C 	0.78337	0.90925	0.39878	0.216
Mof_C 	C 	0.64309	0.76979	0.31848	0.115
Mof_C 	C 	0.6118	0.7929	0.35632	-0.185
Mof_C 	C 	0.63378	0.83955	0.38776	0.046
Mof_C 	C 	0.69201	0.85496	0.37777	-0.101
Mof_C 	C 	0.71828	0.82525	0.33616	0.075
Mof_C 	C 	0.71663	0.89878	0.40925	0.213
Mof_C 	C 	0.35691	0.23021	0.31848	0.117
Mof_C 	C 	0.3882	0.2071	0.35632	-0.193
Mof_C 	C 	0.36622	0.16045	0.38776	0.048
Mof_C 	C 	0.30799	0.14504	0.37777	-0.111
Mof_C 	C 	0.28172	0.17475	0.33616	0.074
Mof_C 	C 	0.28337	0.10122	0.40925	0.214
Mof_C 	C 	0.64309	0.23021	0.68152	0.117
Mof_C 	C 	0.6118	0.2071	0.64368	-0.193
Mof_C 	C 	0.63378	0.16045	0.61224	0.048
Mof_C 	C 	0.69201	0.14504	0.62223	-0.111
Mof_C 	C 	0.71828	0.17475	0.66384	0.074
Mof_C 	C 	0.71663	0.10122	0.59075	0.215
Mof_C 	C 	0.35691	0.76979	0.68152	0.115
Mof_C 	C 	0.3882	0.7929	0.64368	-0.185
Mof_C 	C 	0.36622	0.83955	0.61224	0.045
Mof_C 	C 	0.30799	0.85496	0.62223	-0.1
Mof_C 	C 	0.28172	0.82525	0.66384	0.074
Mof_C 	C 	0.28337	0.89878	0.59075	0.212
Mof_C 	C 	0.76979	0.68152	0.35691	0.115
Mof_C 	C 	0.7929	0.64368	0.3882	-0.185
Mof_C 	C 	0.83955	0.61224	0.36622	0.045
Mof_C 	C 	0.85496	0.62223	0.30799	-0.1
Mof_C 	C 	0.82525	0.66384	0.28172	0.074
Mof_C 	C 	0.89878	0.59075	0.28337	0.212
Mof_C 	C 	0.23021	0.68152	0.64309	0.117
Mof_C 	C 	0.2071	0.64368	0.6118	-0.193
Mof_C 	C 	0.16045	0.61224	0.63378	0.048
Mof_C 	C 	0.14504	0.62223	0.69201	-0.111
Mof_C 	C 	0.17475	0.66384	0.71828	0.074
Mof_C 	C 	0.10122	0.59075	0.71663	0.215
Mof_C 	C 	0.23021	0.31848	0.35691	0.117
Mof_C 	C 	0.2071	0.35632	0.3882	-0.193
Mof_C 	C 	0.16045	0.38776	0.36622	0.048
Mof_C 	C 	0.14504	0.37777	0.30799	-0.111
Mof_C 	C 	0.17475	0.33616	0.28172	0.074
Mof_C 	C 	0.10122	0.40925	0.28337	0.214
Mof_C 	C 	0.76979	0.31848	0.64309	0.115
Mof_C 	C 	0.7929	0.35632	0.6118	-0.185
Mof_C 	C 	0.83955	0.38776	0.63378	0.046
Mof_C 	C 	0.85496	0.37777	0.69201	-0.101
Mof_C 	C 	0.82525	0.33616	0.71828	0.075
Mof_C 	C 	0.89878	0.40925	0.71663	0.213
Mof_C 	C 	0.68152	0.64309	0.23021	0.117
Mof_C 	C 	0.64368	0.6118	0.2071	-0.193
Mof_C 	C 	0.61224	0.63378	0.16045	0.048
Mof_C 	C 	0.62223	0.69201	0.14504	-0.111
Mof_C 	C 	0.66384	0.71828	0.17475	0.074
Mof_C 	C 	0.59075	0.71663	0.10122	0.215
Mof_C 	C 	0.68152	0.35691	0.76979	0.115
Mof_C 	C 	0.64368	0.3882	0.7929	-0.185
Mof_C 	C 	0.61224	0.36622	0.83955	0.045
Mof_C 	C 	0.62223	0.30799	0.85496	-0.1
Mof_C 	C 	0.66384	0.28172	0.82525	0.074
Mof_C 	C 	0.59075	0.28337	0.89878	0.212
Mof_C 	C 	0.31848	0.64309	0.76979	0.115
Mof_C 	C 	0.35632	0.6118	0.7929	-0.185
Mof_C 	C 	0.38776	0.63378	0.83955	0.046
Mof_C 	C 	0.37777	0.69201	0.85496	-0.101
Mof_C 	C 	0.33616	0.71828	0.82525	0.075
Mof_C 	C 	0.40925	0.71663	0.89878	0.213
Mof_C 	C 	0.31848	0.35691	0.23021	0.117
Mof_C 	C 	0.35632	0.3882	0.2071	-0.193
Mof_C 	C 	0.38776	0.36622	0.16045	0.048
Mof_C 	C 	0.37777	0.30799	0.14504	-0.111
Mof_C 	C 	0.33616	0.28172	0.17475	0.074
Mof_C 	C 	0.40925	0.28337	0.10122	0.214
Mof_N 	N 	0.71755	0.80311	0.80641	-0.22
Mof_N 	N 	0.28245	0.19689	0.80641	-0.218
Mof_N 	N 	0.28245	0.80311	0.19359	-0.22
Mof_N 	N 	0.71755	0.19689	0.19359	-0.22
Mof_N 	N 	0.80641	0.71755	0.80311	-0.22
Mof_N 	N 	0.80641	0.28245	0.19689	-0.218
Mof_N 	N 	0.19359	0.28245	0.80311	-0.22
Mof_N 	N 	0.19359	0.71755	0.19689	-0.22
Mof_N 	N 	0.80311	0.80641	0.71755	-0.22
Mof_N 	N 	0.19689	0.80641	0.28245	-0.218
Mof_N 	N 	0.80311	0.19359	0.28245	-0.22
Mof_N 	N 	0.19689	0.19359	0.71755	-0.22
Mof_N 	N 	0.30311	0.21755	0.69359	-0.22
Mof_N 	N 	0.69689	0.78245	0.69359	-0.219
Mof_N 	N 	0.30311	0.78245	0.30641	-0.219
Mof_N 	N 	0.69689	0.21755	0.30641	-0.22
Mof_N 	N 	0.21755	0.30641	0.69689	-0.22
Mof_N 	N 	0.78245	0.30641	0.30311	-0.219
Mof_N 	N 	0.78245	0.69359	0.69689	-0.219
Mof_N 	N 	0.21755	0.69359	0.30311	-0.22
Mof_N 	N 	0.30641	0.30311	0.78245	-0.219
Mof_N 	N 	0.30641	0.69689	0.21755	-0.22
Mof_N 	N 	0.69359	0.30311	0.21755	-0.22
Mof_N 	N 	0.69359	0.69689	0.78245	-0.219
Mof_N 	N 	0.28245	0.19689	0.19359	-0.219
Mof_N 	N 	0.71755	0.80311	0.19359	-0.221
Mof_N 	N 	0.71755	0.19689	0.80641	-0.219
Mof_N 	N 	0.28245	0.80311	0.80641	-0.219
Mof_N 	N 	0.19359	0.28245	0.19689	-0.219
Mof_N 	N 	0.19359	0.71755	0.80311	-0.221
Mof_N 	N 	0.80641	0.71755	0.19689	-0.219
Mof_N 	N 	0.80641	0.28245	0.80311	-0.219
Mof_N 	N 	0.19689	0.19359	0.28245	-0.219
Mof_N 	N 	0.80311	0.19359	0.71755	-0.221
Mof_N 	N 	0.19689	0.80641	0.71755	-0.219
Mof_N 	N 	0.80311	0.80641	0.28245	-0.219
Mof_N 	N 	0.69689	0.78245	0.30641	-0.219
Mof_N 	N 	0.30311	0.21755	0.30641	-0.22
Mof_N 	N 	0.69689	0.21755	0.69359	-0.22
Mof_N 	N 	0.30311	0.78245	0.69359	-0.219
Mof_N 	N 	0.78245	0.69359	0.30311	-0.219
Mof_N 	N 	0.21755	0.69359	0.69689	-0.22
Mof_N 	N 	0.21755	0.30641	0.30311	-0.22
Mof_N 	N 	0.78245	0.30641	0.69689	-0.219
Mof_N 	N 	0.69359	0.69689	0.21755	-0.22
Mof_N 	N 	0.69359	0.30311	0.78245	-0.219
Mof_N 	N 	0.30641	0.69689	0.78245	-0.219
Mof_N 	N 	0.30641	0.30311	0.21755	-0.22
Mof_O 	O 	0.56795	0.80464	0.93996	-0.482
Mof_O 	O 	0.43205	0.19536	0.93996	-0.491
Mof_O 	O 	0.43205	0.80464	0.06004	-0.535
Mof_O 	O 	0.56795	0.19536	0.06004	-0.545
Mof_O 	O 	0.93996	0.56795	0.80464	-0.482
Mof_O 	O 	0.93996	0.43205	0.19536	-0.491
Mof_O 	O 	0.06004	0.43205	0.80464	-0.535
Mof_O 	O 	0.06004	0.56795	0.19536	-0.545
Mof_O 	O 	0.80464	0.93996	0.56795	-0.482
Mof_O 	O 	0.19536	0.93996	0.43205	-0.491
Mof_O 	O 	0.80464	0.06004	0.43205	-0.535
Mof_O 	O 	0.19536	0.06004	0.56795	-0.545
Mof_O 	O 	0.30464	0.06795	0.56004	-0.538
Mof_O 	O 	0.69536	0.93205	0.56004	-0.491
Mof_O 	O 	0.30464	0.93205	0.43996	-0.489
Mof_O 	O 	0.69536	0.06795	0.43996	-0.539
Mof_O 	O 	0.06795	0.43996	0.69536	-0.539
Mof_O 	O 	0.93205	0.43996	0.30464	-0.489
Mof_O 	O 	0.93205	0.56004	0.69536	-0.491
Mof_O 	O 	0.06795	0.56004	0.30464	-0.538
Mof_O 	O 	0.43996	0.30464	0.93205	-0.489
Mof_O 	O 	0.43996	0.69536	0.06795	-0.539
Mof_O 	O 	0.56004	0.30464	0.06795	-0.538
Mof_O 	O 	0.56004	0.69536	0.93205	-0.491
Mof_O 	O 	0.43205	0.19536	0.06004	-0.545
Mof_O 	O 	0.56795	0.80464	0.06004	-0.536
Mof_O 	O 	0.56795	0.19536	0.93996	-0.491
Mof_O 	O 	0.43205	0.80464	0.93996	-0.482
Mof_O 	O 	0.06004	0.43205	0.19536	-0.545
Mof_O 	O 	0.06004	0.56795	0.80464	-0.536
Mof_O 	O 	0.93996	0.56795	0.19536	-0.491
Mof_O 	O 	0.93996	0.43205	0.80464	-0.482
Mof_O 	O 	0.19536	0.06004	0.43205	-0.545
Mof_O 	O 	0.80464	0.06004	0.56795	-0.536
Mof_O 	O 	0.19536	0.93996	0.56795	-0.491
Mof_O 	O 	0.80464	0.93996	0.43205	-0.482
Mof_O 	O 	0.69536	0.93205	0.43996	-0.49
Mof_O 	O 	0.30464	0.06795	0.43996	-0.538
Mof_O 	O 	0.69536	0.06795	0.56004	-0.539
Mof_O 	O 	0.30464	0.93205	0.56004	-0.489
Mof_O 	O 	0.93205	0.56004	0.30464	-0.489
Mof_O 	O 	0.06795	0.56004	0.69536	-0.539
Mof_O 	O 	0.06795	0.43996	0.30464	-0.538
Mof_O 	O 	0.93205	0.43996	0.69536	-0.49
Mof_O 	O 	0.56004	0.69536	0.06795	-0.539
Mof_O 	O 	0.56004	0.30464	0.93205	-0.489
Mof_O 	O 	0.43996	0.69536	0.93205	-0.49
Mof_O 	O 	0.43996	0.30464	0.06795	-0.538
Mof_Na	Na	0.5	0	0.25	1.051
Mof_Na	Na	0.5	0	0.75	1.075
Mof_Na	Na	0.25	0.5	-0	1.051
Mof_Na	Na	0.75	0.5	-0	1.075
Mof_Na	Na	1.8747e-33	0.25	0.5	1.051
Mof_Na	Na	-5.781e-33	0.75	0.5	1.075
Mof_Na	Na	0.8799	0.8799	0.8799	0.919
Mof_Na	Na	0.1201	0.1201	0.8799	0.657
Mof_Na	Na	0.1201	0.8799	0.1201	0.657
Mof_Na	Na	0.8799	0.1201	0.1201	0.657
Mof_Na	Na	0.3799	0.3799	0.6201	0.703
Mof_Na	Na	0.6201	0.6201	0.6201	0.705
Mof_Na	Na	0.3799	0.6201	0.3799	0.703
Mof_Na	Na	0.6201	0.3799	0.3799	0.703
Mof_Na	Na	0.1201	0.1201	0.1201	0.526
Mof_Na	Na	0.8799	0.8799	0.1201	0.788
Mof_Na	Na	0.8799	0.1201	0.8799	0.788
Mof_Na	Na	0.1201	0.8799	0.8799	0.788
Mof_Na	Na	0.6201	0.6201	0.3799	0.704
Mof_Na	Na	0.3799	0.3799	0.3799	0.702
Mof_Na	Na	0.6201	0.3799	0.6201	0.704
Mof_Na	Na	0.3799	0.6201	0.6201	0.704
Mof_Cl	Cl	0.77701	0.5	0.77796	-0.196
Mof_O 	O 	0.78712	0.44922	0.81021	-0.079
Mof_O 	O 	0.78712	0.55078	0.81021	-0.079
Mof_O 	O 	0.7197	0.5	0.7591	-0.118
Mof_O 	O 	0.8148	0.5	0.7299	-0.082
Mof_Cl	Cl	0.22299	0.5	0.77796	-0.195
Mof_O 	O 	0.21288	0.55078	0.81021	-0.08
Mof_O 	O 	0.21288	0.44922	0.81021	-0.08
Mof_O 	O 	0.2803	0.5	0.7591	-0.118
Mof_O 	O 	0.1852	0.5	0.7299	-0.083
Mof_Cl	Cl	0.22299	0.5	0.22204	-0.194
Mof_O 	O 	0.21288	0.44922	0.18979	-0.093
Mof_O 	O 	0.21288	0.55078	0.18979	-0.093
Mof_O 	O 	0.2803	0.5	0.2409	-0.122
Mof_O 	O 	0.1852	0.5	0.2701	-0.083
Mof_Cl	Cl	0.77701	0.5	0.22204	-0.194
Mof_O 	O 	0.78712	0.55078	0.18979	-0.092
Mof_O 	O 	0.78712	0.44922	0.18979	-0.092
Mof_O 	O 	0.7197	0.5	0.2409	-0.122
Mof_O 	O 	0.8148	0.5	0.2701	-0.082
Mof_Cl	Cl	0.77796	0.77701	0.5	-0.196
Mof_O 	O 	0.81021	0.78712	0.44922	-0.079
Mof_O 	O 	0.81021	0.78712	0.55078	-0.079
Mof_O 	O 	0.7591	0.7197	0.5	-0.118
Mof_O 	O 	0.7299	0.8148	0.5	-0.082
Mof_Cl	Cl	0.77796	0.22299	0.5	-0.195
Mof_O 	O 	0.81021	0.21288	0.55078	-0.08
Mof_O 	O 	0.81021	0.21288	0.44922	-0.08
Mof_O 	O 	0.7591	0.2803	0.5	-0.118
Mof_O 	O 	0.7299	0.1852	0.5	-0.083
Mof_Cl	Cl	0.22204	0.22299	0.5	-0.194
Mof_O 	O 	0.18979	0.21288	0.44922	-0.093
Mof_O 	O 	0.18979	0.21288	0.55078	-0.093
Mof_O 	O 	0.2409	0.2803	0.5	-0.122
Mof_O 	O 	0.2701	0.1852	0.5	-0.083
Mof_Cl	Cl	0.22204	0.77701	0.5	-0.194
Mof_O 	O 	0.18979	0.78712	0.55078	-0.092
Mof_O 	O 	0.18979	0.78712	0.44922	-0.092
Mof_O 	O 	0.2409	0.7197	0.5	-0.122
Mof_O 	O 	0.2701	0.8148	0.5	-0.082
Mof_Cl	Cl	0.5	0.77796	0.77701	-0.196
Mof_O 	O 	0.44922	0.81021	0.78712	-0.079
Mof_O 	O 	0.55078	0.81021	0.78712	-0.079
Mof_O 	O 	0.5	0.7591	0.7197	-0.118
Mof_O 	O 	0.5	0.7299	0.8148	-0.082
Mof_Cl	Cl	0.5	0.77796	0.22299	-0.195
Mof_O 	O 	0.55078	0.81021	0.21288	-0.08
Mof_O 	O 	0.44922	0.81021	0.21288	-0.08
Mof_O 	O 	0.5	0.7591	0.2803	-0.118
Mof_O 	O 	0.5	0.7299	0.1852	-0.083
Mof_Cl	Cl	0.5	0.22204	0.22299	-0.194
Mof_O 	O 	0.44922	0.18979	0.21288	-0.093
Mof_O 	O 	0.55078	0.18979	0.21288	-0.093
Mof_O 	O 	0.5	0.2409	0.2803	-0.122
Mof_O 	O 	0.5	0.2701	0.1852	-0.083
Mof_Cl	Cl	0.5	0.22204	0.77701	-0.194
Mof_O 	O 	0.55078	0.18979	0.78712	-0.092
Mof_O 	O 	0.44922	0.18979	0.78712	-0.092
Mof_O 	O 	0.5	0.2409	0.7197	-0.122
Mof_O 	O 	0.5	0.2701	0.8148	-0.082
Mof_Cl	Cl	-4.94848e-33	0.27701	0.72204	-0.266
Mof_O 	O 	0.94922	0.28712	0.68979	-0.017
Mof_O 	O 	0.05078	0.28712	0.68979	-0.091
Mof_O 	O 	2.77793e-33	0.2197	0.7409	-0.146
Mof_O 	O 	2.88741e-33	0.3148	0.7701	-0.106
Mof_Cl	Cl	2.70722e-33	0.72299	0.72204	-0.266
Mof_O 	O 	0.05078	0.71288	0.68979	-0.09
Mof_O 	O 	0.94922	0.71288	0.68979	-0.017
Mof_O 	O 	-4.87777e-33	0.7803	0.7409	-0.145
Mof_O 	O 	1.81988e-32	0.6852	0.7701	-0.107
Mof_Cl	Cl	-2.78566e-33	0.72299	0.27796	-0.266
Mof_O 	O 	0.94922	0.71288	0.31021	-0.017
Mof_O 	O 	0.05078	0.71288	0.31021	-0.09
Mof_O 	O 	-6.68423e-33	0.7803	0.2591	-0.144
Mof_O 	O 	1.23455e-32	0.6852	0.2299	-0.11
Mof_Cl	Cl	4.87003e-33	0.27701	0.27796	-0.266
Mof_O 	O 	0.05078	0.28712	0.31021	-0.09
Mof_O 	O 	0.94922	0.28712	0.31021	-0.017
Mof_O 	O 	9.71469e-34	0.2197	0.2591	-0.144
Mof_O 	O 	4.68983e-33	0.3148	0.2299	-0.108
Mof_Cl	Cl	0.27701	0.27796	-0	-0.266
Mof_O 	O 	0.28712	0.31021	0.05078	-0.09
Mof_O 	O 	0.28712	0.31021	0.94922	-0.017
Mof_O 	O 	0.2197	0.2591	-0	-0.144
Mof_O 	O 	0.3148	0.2299	-0	-0.108
Mof_Cl	Cl	0.72299	0.27796	-0	-0.266
Mof_O 	O 	0.71288	0.31021	0.94922	-0.017
Mof_O 	O 	0.71288	0.31021	0.05078	-0.09
Mof_O 	O 	0.7803	0.2591	-0	-0.144
Mof_O 	O 	0.6852	0.2299	-0	-0.11
Mof_Cl	Cl	0.72299	0.72204	-0	-0.266
Mof_O 	O 	0.71288	0.68979	0.05078	-0.09
Mof_O 	O 	0.71288	0.68979	0.94922	-0.017
Mof_O 	O 	0.7803	0.7409	-0	-0.145
Mof_O 	O 	0.6852	0.7701	-0	-0.107
Mof_Cl	Cl	0.27701	0.72204	-0	-0.266
Mof_O 	O 	0.28712	0.68979	0.94922	-0.017
Mof_O 	O 	0.28712	0.68979	0.05078	-0.091
Mof_O 	O 	0.2197	0.7409	-0	-0.146
Mof_O 	O 	0.3148	0.7701	-0	-0.106
Mof_Cl	Cl	0.27796	0	0.72299	-0.266
Mof_O 	O 	0.31021	0.94922	0.71288	-0.017
Mof_O 	O 	0.31021	0.05078	0.71288	-0.09
Mof_O 	O 	0.2591	0	0.7803	-0.144
Mof_O 	O 	0.2299	7.6557e-33	0.6852	-0.11
Mof_Cl	Cl	0.27796	1.91392e-33	0.27701	-0.266
Mof_O 	O 	0.31021	0.05078	0.28712	-0.09
Mof_O 	O 	0.31021	0.94922	0.28712	-0.017
Mof_O 	O 	0.2591	-1.91392e-33	0.2197	-0.144
Mof_O 	O 	0.2299	0	0.3148	-0.108
Mof_Cl	Cl	0.72204	1.91392e-33	0.27701	-0.266
Mof_O 	O 	0.68979	0.94922	0.28712	-0.017
Mof_O 	O 	0.68979	0.05078	0.28712	-0.091
Mof_O 	O 	0.7409	-1.91392e-33	0.2197	-0.146
Mof_O 	O 	0.7701	0	0.3148	-0.106
Mof_Cl	Cl	0.72204	0	0.72299	-0.266
Mof_O 	O 	0.68979	0.05078	0.71288	-0.09
Mof_O 	O 	0.68979	0.94922	0.71288	-0.017
Mof_O 	O 	0.7409	0	0.7803	-0.145
Mof_O 	O 	0.7701	7.6557e-33	0.6852	-0.107
_end
