data_functionalizedCrystal
_audit_creation_method	'EQeq! by Chris Wilmer'
_symmetry_space_group_name_H-M	'P1'
_symmetry_Int_Tables_number	1
_symmetry_cell_setting	triclinic
loop_
_symmetry_equiv_pos_as_xyz
  x,y,z
_cell_length_a	17.6943
_cell_length_b	17.6943
_cell_length_c	13.2921
_cell_angle_alpha	90
_cell_angle_beta	90
_cell_angle_gamma	120
loop_
_atom_site_label
_atom_site_type_symbol
_atom_site_fract_x
_atom_site_fract_y
_atom_site_fract_z
_atom_site_charge
Mof_Cu	Cu	0.13309	0.57526	0.68047	0.912
Mof_Cu	Cu	0.13363	0.58025	0.43051	0.911
Mof_N 	N 	0.9029	0.5037	0.2932	-0.228
Mof_N 	N 	0.0993	0.5059	0.315	-0.228
Mof_O 	O 	0.17244	0.63846	0.5575	-0.817
Mof_H 	H 	0.178	0.685	0.559	0.36
Mof_O 	O 	0.9849	0.4336	0.2005	-0.327
Mof_O 	O 	0.6995	0.501	0.2774	-0.347
Mof_O 	O 	0.0146	0.5706	0.4117	-0.333
Mof_O 	O 	0.2962	0.4988	0.3336	-0.36
Mof_O 	O 	0.2367	0.5611	0.4255	-0.492
Mof_O 	O 	0.7625	0.441	0.1855	-0.487
Mof_C 	C 	0.0226	0.4824	0.2782	0.114
Mof_C 	C 	0.9762	0.5225	0.3352	0.127
Mof_C 	C 	0.1624	0.4848	0.2729	-0.003
Mof_H 	H 	0.1344	0.4203	0.2636	0.038
Mof_C 	C 	0.2377	0.5159	0.3506	0.314
Mof_C 	C 	0.199	0.5313	0.1711	-0.371
Mof_H 	H 	0.1507	0.5159	0.1242	0.144
Mof_H 	H 	0.2385	0.5129	0.1431	0.131
Mof_H 	H 	0.231	0.5946	0.1816	0.13
Mof_C 	C 	0.7624	0.4884	0.2591	0.301
Mof_C 	C 	0.887	0.6359	0.3088	-0.359
Mof_H 	H 	0.9387	0.6664	0.3518	0.138
Mof_H 	H 	0.8447	0.654	0.3267	0.129
Mof_H 	H 	0.9042	0.6504	0.2382	0.117
Mof_C 	C 	0.8447	0.535	0.3243	-0.013
Mof_H 	H 	0.8288	0.5202	0.3967	0.042
Mof_Cu	Cu	0.42474	0.55783	0.68047	0.911
Mof_Cu	Cu	0.41975	0.55338	0.43051	0.91
Mof_N 	N 	0.4963	0.3992	0.2932	-0.229
Mof_N 	N 	0.4941	0.5934	0.315	-0.229
Mof_O 	O 	0.36154	0.53398	0.5575	-0.818
Mof_H 	H 	0.315	0.493	0.559	0.359
Mof_O 	O 	0.5664	0.5513	0.2005	-0.328
Mof_O 	O 	0.499	0.1985	0.2774	-0.347
Mof_O 	O 	0.4294	0.444	0.4117	-0.332
Mof_O 	O 	0.5012	0.7974	0.3336	-0.36
Mof_O 	O 	0.4389	0.6756	0.4255	-0.491
Mof_O 	O 	0.559	0.3215	0.1855	-0.487
Mof_C 	C 	0.5176	0.5402	0.2782	0.114
Mof_C 	C 	0.4775	0.4537	0.3352	0.127
Mof_C 	C 	0.5152	0.6776	0.2729	-0.003
Mof_H 	H 	0.5797	0.7141	0.2636	0.038
Mof_C 	C 	0.4841	0.7218	0.3506	0.314
Mof_C 	C 	0.4687	0.6677	0.1711	-0.371
Mof_H 	H 	0.4841	0.6348	0.1242	0.144
Mof_H 	H 	0.4871	0.7256	0.1431	0.131
Mof_H 	H 	0.4054	0.6364	0.1816	0.13
Mof_C 	C 	0.5116	0.274	0.2591	0.301
Mof_C 	C 	0.3641	0.2511	0.3088	-0.359
Mof_H 	H 	0.3336	0.2723	0.3518	0.138
Mof_H 	H 	0.346	0.1907	0.3267	0.129
Mof_H 	H 	0.3496	0.2538	0.2382	0.117
Mof_C 	C 	0.465	0.3097	0.3243	-0.013
Mof_H 	H 	0.4798	0.3086	0.3967	0.042
Mof_Cu	Cu	0.44217	0.86691	0.68047	0.911
Mof_Cu	Cu	0.44662	0.86637	0.43051	0.91
Mof_N 	N 	0.6008	0.0971	0.2932	-0.229
Mof_N 	N 	0.4066	0.9007	0.315	-0.229
Mof_O 	O 	0.46602	0.82756	0.5575	-0.818
Mof_H 	H 	0.507	0.822	0.559	0.359
Mof_O 	O 	0.4487	0.0151	0.2005	-0.328
Mof_O 	O 	0.8015	0.3005	0.2774	-0.347
Mof_O 	O 	0.556	0.9854	0.4117	-0.333
Mof_O 	O 	0.2026	0.7038	0.3336	-0.36
Mof_O 	O 	0.3244	0.7633	0.4255	-0.492
Mof_O 	O 	0.6785	0.2375	0.1855	-0.487
Mof_C 	C 	0.4598	0.9774	0.2782	0.114
Mof_C 	C 	0.5463	0.0238	0.3352	0.127
Mof_C 	C 	0.3224	0.8376	0.2729	-0.003
Mof_H 	H 	0.2859	0.8656	0.2636	0.038
Mof_C 	C 	0.2782	0.7623	0.3506	0.314
Mof_C 	C 	0.3323	0.801	0.1711	-0.371
Mof_H 	H 	0.3652	0.8493	0.1242	0.144
Mof_H 	H 	0.2744	0.7615	0.1431	0.131
Mof_H 	H 	0.3636	0.769	0.1816	0.13
Mof_C 	C 	0.726	0.2376	0.2591	0.301
Mof_C 	C 	0.7489	0.113	0.3088	-0.359
Mof_H 	H 	0.7277	0.0613	0.3518	0.137
Mof_H 	H 	0.8093	0.1553	0.3267	0.129
Mof_H 	H 	0.7462	0.0958	0.2382	0.117
Mof_C 	C 	0.6903	0.1553	0.3243	-0.013
Mof_H 	H 	0.6914	0.1712	0.3967	0.042
Mof_Cu	Cu	0.86691	0.42474	0.18047	0.91
Mof_Cu	Cu	0.86637	0.41975	0.93051	0.911
Mof_N 	N 	0.0971	0.4963	0.7932	-0.229
Mof_N 	N 	0.9007	0.4941	0.815	-0.229
Mof_O 	O 	0.82756	0.36154	0.0575	-0.82
Mof_H 	H 	0.822	0.315	0.059	0.359
Mof_O 	O 	0.0151	0.5664	0.7005	-0.327
Mof_O 	O 	0.3005	0.499	0.7774	-0.346
Mof_O 	O 	0.9854	0.4294	0.9117	-0.331
Mof_O 	O 	0.7038	0.5012	0.8336	-0.359
Mof_O 	O 	0.7633	0.4389	0.9255	-0.488
Mof_O 	O 	0.2375	0.559	0.6855	-0.487
Mof_C 	C 	0.9774	0.5176	0.7782	0.115
Mof_C 	C 	0.0238	0.4775	0.8352	0.127
Mof_C 	C 	0.8376	0.5152	0.7729	-0.002
Mof_H 	H 	0.8656	0.5797	0.7636	0.038
Mof_C 	C 	0.7623	0.4841	0.8506	0.313
Mof_C 	C 	0.801	0.4687	0.6711	-0.373
Mof_H 	H 	0.8493	0.4841	0.6242	0.146
Mof_H 	H 	0.7615	0.4871	0.6431	0.133
Mof_H 	H 	0.769	0.4054	0.6816	0.131
Mof_C 	C 	0.2376	0.5116	0.7591	0.301
Mof_C 	C 	0.113	0.3641	0.8088	-0.361
Mof_H 	H 	0.0613	0.3336	0.8518	0.139
Mof_H 	H 	0.1553	0.346	0.8267	0.131
Mof_H 	H 	0.0958	0.3496	0.7382	0.118
Mof_C 	C 	0.1553	0.465	0.8243	-0.012
Mof_H 	H 	0.1712	0.4798	0.8967	0.043
Mof_Cu	Cu	0.57526	0.44217	0.18047	0.91
Mof_Cu	Cu	0.58025	0.44662	0.93051	0.911
Mof_N 	N 	0.5037	0.6008	0.7932	-0.229
Mof_N 	N 	0.5059	0.4066	0.815	-0.229
Mof_O 	O 	0.63846	0.46602	0.0575	-0.82
Mof_H 	H 	0.685	0.507	0.059	0.359
Mof_O 	O 	0.4336	0.4487	0.7005	-0.327
Mof_O 	O 	0.501	0.8015	0.7774	-0.346
Mof_O 	O 	0.5706	0.556	0.9117	-0.33
Mof_O 	O 	0.4988	0.2026	0.8336	-0.359
Mof_O 	O 	0.5611	0.3244	0.9255	-0.488
Mof_O 	O 	0.441	0.6785	0.6855	-0.487
Mof_C 	C 	0.4824	0.4598	0.7782	0.115
Mof_C 	C 	0.5225	0.5463	0.8352	0.127
Mof_C 	C 	0.4848	0.3224	0.7729	-0.002
Mof_H 	H 	0.4203	0.2859	0.7636	0.038
Mof_C 	C 	0.5159	0.2782	0.8506	0.313
Mof_C 	C 	0.5313	0.3323	0.6711	-0.373
Mof_H 	H 	0.5159	0.3652	0.6242	0.146
Mof_H 	H 	0.5129	0.2744	0.6431	0.133
Mof_H 	H 	0.5946	0.3636	0.6816	0.131
Mof_C 	C 	0.4884	0.726	0.7591	0.301
Mof_C 	C 	0.6359	0.7489	0.8088	-0.361
Mof_H 	H 	0.6664	0.7277	0.8518	0.139
Mof_H 	H 	0.654	0.8093	0.8267	0.131
Mof_H 	H 	0.6504	0.7462	0.7382	0.118
Mof_C 	C 	0.535	0.6903	0.8243	-0.012
Mof_H 	H 	0.5202	0.6914	0.8967	0.043
Mof_Cu	Cu	0.55783	0.13309	0.18047	0.91
Mof_Cu	Cu	0.55338	0.13363	0.93051	0.911
Mof_N 	N 	0.3992	0.9029	0.7932	-0.229
Mof_N 	N 	0.5934	0.0993	0.815	-0.229
Mof_O 	O 	0.53398	0.17244	0.0575	-0.82
Mof_H 	H 	0.493	0.178	0.059	0.359
Mof_O 	O 	0.5513	0.9849	0.7005	-0.327
Mof_O 	O 	0.1985	0.6995	0.7774	-0.346
Mof_O 	O 	0.444	0.0146	0.9117	-0.331
Mof_O 	O 	0.7974	0.2962	0.8336	-0.359
Mof_O 	O 	0.6756	0.2367	0.9255	-0.488
Mof_O 	O 	0.3215	0.7625	0.6855	-0.487
Mof_C 	C 	0.5402	0.0226	0.7782	0.115
Mof_C 	C 	0.4537	0.9762	0.8352	0.127
Mof_C 	C 	0.6776	0.1624	0.7729	-0.002
Mof_H 	H 	0.7141	0.1344	0.7636	0.038
Mof_C 	C 	0.7218	0.2377	0.8506	0.313
Mof_C 	C 	0.6677	0.199	0.6711	-0.373
Mof_H 	H 	0.6348	0.1507	0.6242	0.146
Mof_H 	H 	0.7256	0.2385	0.6431	0.133
Mof_H 	H 	0.6364	0.231	0.6816	0.131
Mof_C 	C 	0.274	0.7624	0.7591	0.301
Mof_C 	C 	0.2511	0.887	0.8088	-0.361
Mof_H 	H 	0.2723	0.9387	0.8518	0.139
Mof_H 	H 	0.1907	0.8447	0.8267	0.131
Mof_H 	H 	0.2538	0.9042	0.7382	0.118
Mof_C 	C 	0.3097	0.8447	0.8243	-0.012
Mof_H 	H 	0.3086	0.8288	0.8967	0.043
Mof_Ca	Ca	0.33333	0.66667	0.5563	1.369
Mof_Ca	Ca	0.66667	0.33333	0.0563	1.361
_end
