data_functionalizedCrystal
_audit_creation_method	'EQeq! by Chris Wilmer'
_symmetry_space_group_name_H-M	'P1'
_symmetry_Int_Tables_number	1
_symmetry_cell_setting	triclinic
loop_
_symmetry_equiv_pos_as_xyz
  x,y,z
_cell_length_a	10.883
_cell_length_b	10.9258
_cell_length_c	14.0658
_cell_angle_alpha	92.417
_cell_angle_beta	90.099
_cell_angle_gamma	101.723
loop_
_atom_site_label
_atom_site_type_symbol
_atom_site_fract_x
_atom_site_fract_y
_atom_site_fract_z
_atom_site_charge
Mof_Zn	Zn	0.26504	0.34438	0.89078	1.218
Mof_Zn	Zn	0.26209	0.33156	0.68186	1.218
Mof_H 	H 	0.6618	0.3568	0.9306	0.055
Mof_H 	H 	0.8737	0.3492	0.9298	0.053
Mof_H 	H 	0.654	0.3265	0.6439	0.053
Mof_H 	H 	0.2552	0.7174	0.6437	0.045
Mof_H 	H 	0.2652	0.7444	0.9271	0.044
Mof_H 	H 	0.2503	0.953	0.9242	0.058
Mof_H 	H 	0.2378	0.9274	0.6393	0.057
Mof_H 	H 	0.8657	0.3195	0.6433	0.051
Mof_H 	H 	0.0849	0.3195	0.5213	-0.01
Mof_H 	H 	0.0791	0.3148	0.3586	0.087
Mof_H 	H 	0.4479	0.3623	0.3595	0.092
Mof_H 	H 	0.4434	0.3585	0.5226	-0.008
Mof_H 	H 	0.075	0.3242	0.2122	0.072
Mof_H 	H 	0.4512	0.3533	0.2144	0.075
Mof_H 	H 	0.0819	0.3239	0.0496	0.008
Mof_H 	H 	0.4455	0.3512	0.0516	0.008
Mof_C 	C 	0.4997	0.3495	0.7876	0.385
Mof_C 	C 	0.6363	0.3429	0.7879	-0.076
Mof_C 	C 	0.7026	0.3492	0.8725	-0.015
Mof_C 	C 	0.8291	0.3446	0.872	-0.016
Mof_C 	C 	0.6985	0.3313	0.7018	-0.015
Mof_C 	C 	0.2793	0.5774	0.7876	0.393
Mof_C 	C 	0.2666	0.7116	0.786	-0.097
Mof_C 	C 	0.2556	0.7653	0.7008	-0.004
Mof_C 	C 	0.2618	0.7815	0.8683	-0.001
Mof_C 	C 	0.2424	0.0985	0.7782	0.372
Mof_C 	C 	0.2451	0.9612	0.782	-0.065
Mof_C 	C 	0.2521	0.9063	0.8667	-0.028
Mof_C 	C 	0.2449	0.8912	0.6979	-0.031
Mof_C 	C 	0.0279	0.3283	0.7872	0.388
Mof_C 	C 	0.8895	0.3331	0.7872	-0.076
Mof_C 	C 	0.8243	0.3268	0.7013	-0.016
Mof_C 	C 	0.1607	0.3259	0.4882	0.106
Mof_C 	C 	0.1569	0.3246	0.3902	-0.159
Mof_C 	C 	0.2634	0.3372	0.3388	0.091
Mof_C 	C 	0.3703	0.3512	0.3906	-0.159
Mof_C 	C 	0.3671	0.3493	0.489	0.106
Mof_C 	C 	0.2629	0.3376	0.2344	0.037
Mof_C 	C 	0.1523	0.3298	0.1812	-0.109
Mof_C 	C 	0.374	0.3469	0.1825	-0.111
Mof_C 	C 	0.1574	0.3305	0.0839	0.068
Mof_C 	C 	0.3699	0.3466	0.0848	0.077
Mof_N 	N 	0.2638	0.3353	0.537	-0.263
Mof_N 	N 	0.2651	0.3402	0.0348	-0.248
Mof_O 	O 	0.4497	0.3572	0.8669	-0.467
Mof_O 	O 	0.4468	0.345	0.7079	-0.467
Mof_O 	O 	0.2839	0.5317	0.8677	-0.459
Mof_O 	O 	0.2858	0.5211	0.7106	-0.469
Mof_O 	O 	0.2439	0.1572	0.8577	-0.455
Mof_O 	O 	0.2396	0.145	0.6988	-0.453
Mof_O 	O 	0.0805	0.3312	0.8659	-0.47
Mof_O 	O 	0.0787	0.3238	0.7074	-0.467
Mof_Zn	Zn	0.73496	0.65562	0.10922	1.217
Mof_Zn	Zn	0.73791	0.66844	0.31814	1.217
Mof_H 	H 	0.3382	0.6432	0.0694	0.054
Mof_H 	H 	0.1263	0.6508	0.0702	0.052
Mof_H 	H 	0.346	0.6735	0.3561	0.052
Mof_H 	H 	0.7448	0.2826	0.3563	0.044
Mof_H 	H 	0.7348	0.2556	0.0729	0.044
Mof_H 	H 	0.7497	0.047	0.0758	0.058
Mof_H 	H 	0.7622	0.0726	0.3607	0.057
Mof_H 	H 	0.1343	0.6805	0.3567	0.051
Mof_H 	H 	0.9151	0.6805	0.4787	-0.01
Mof_H 	H 	0.9209	0.6852	0.6414	0.087
Mof_H 	H 	0.5521	0.6377	0.6405	0.092
Mof_H 	H 	0.5566	0.6415	0.4774	-0.008
Mof_H 	H 	0.925	0.6758	0.7878	0.072
Mof_H 	H 	0.5488	0.6467	0.7856	0.075
Mof_H 	H 	0.9181	0.6761	0.9504	0.008
Mof_H 	H 	0.5545	0.6488	0.9484	0.008
Mof_C 	C 	0.5003	0.6505	0.2124	0.385
Mof_C 	C 	0.3637	0.6571	0.2121	-0.076
Mof_C 	C 	0.2974	0.6508	0.1275	-0.015
Mof_C 	C 	0.1709	0.6554	0.128	-0.016
Mof_C 	C 	0.3015	0.6687	0.2982	-0.015
Mof_C 	C 	0.7207	0.4226	0.2124	0.393
Mof_C 	C 	0.7334	0.2884	0.214	-0.097
Mof_C 	C 	0.7444	0.2347	0.2992	-0.004
Mof_C 	C 	0.7382	0.2185	0.1317	-0.001
Mof_C 	C 	0.7576	0.9015	0.2218	0.372
Mof_C 	C 	0.7549	0.0388	0.218	-0.065
Mof_C 	C 	0.7479	0.0937	0.1333	-0.028
Mof_C 	C 	0.7551	0.1088	0.3021	-0.031
Mof_C 	C 	0.9721	0.6717	0.2128	0.388
Mof_C 	C 	0.1105	0.6669	0.2128	-0.076
Mof_C 	C 	0.1757	0.6732	0.2987	-0.016
Mof_C 	C 	0.8393	0.6741	0.5118	0.106
Mof_C 	C 	0.8431	0.6754	0.6098	-0.159
Mof_C 	C 	0.7366	0.6628	0.6612	0.091
Mof_C 	C 	0.6297	0.6488	0.6094	-0.159
Mof_C 	C 	0.6329	0.6507	0.511	0.106
Mof_C 	C 	0.7371	0.6624	0.7656	0.037
Mof_C 	C 	0.8477	0.6702	0.8188	-0.109
Mof_C 	C 	0.626	0.6531	0.8175	-0.111
Mof_C 	C 	0.8426	0.6695	0.9161	0.068
Mof_C 	C 	0.6301	0.6534	0.9152	0.077
Mof_N 	N 	0.7362	0.6647	0.463	-0.263
Mof_N 	N 	0.7349	0.6598	0.9652	-0.248
Mof_O 	O 	0.5503	0.6428	0.1331	-0.467
Mof_O 	O 	0.5532	0.655	0.2921	-0.467
Mof_O 	O 	0.7161	0.4683	0.1323	-0.459
Mof_O 	O 	0.7142	0.4789	0.2894	-0.469
Mof_O 	O 	0.7561	0.8428	0.1423	-0.455
Mof_O 	O 	0.7604	0.855	0.3012	-0.453
Mof_O 	O 	0.9195	0.6688	0.1341	-0.47
Mof_O 	O 	0.9213	0.6762	0.2926	-0.467
_end
