data_functionalizedCrystal
_audit_creation_method	'EQeq! by Chris Wilmer'
_symmetry_space_group_name_H-M	'P1'
_symmetry_Int_Tables_number	1
_symmetry_cell_setting	triclinic
loop_
_symmetry_equiv_pos_as_xyz
  x,y,z
_cell_length_a	15.7345
_cell_length_b	15.7442
_cell_length_c	20.5801
_cell_angle_alpha	90
_cell_angle_beta	90
_cell_angle_gamma	112.118
loop_
_atom_site_label
_atom_site_type_symbol
_atom_site_fract_x
_atom_site_fract_y
_atom_site_fract_z
_atom_site_charge
Mof_Zn	Zn	0.79651	0.14395	0.9105	1.185
Mof_Zn	Zn	0.29651	0.64395	0.5895	1.185
Mof_Zn	Zn	0.64629	0.28787	0.90826	1.186
Mof_Zn	Zn	0.87237	0.86347	0.75519	1.094
Mof_Zn	Zn	0.37237	0.36347	0.74481	1.093
Mof_Zn	Zn	0.70349	0.35605	0.4105	1.184
Mof_Zn	Zn	0.62763	0.63653	0.25519	1.093
Mof_Zn	Zn	0.20349	0.85605	0.0895	1.184
Mof_Zn	Zn	0.35371	0.71213	0.09174	1.185
Mof_Zn	Zn	0.85371	0.21213	0.40826	1.185
Mof_Zn	Zn	0.14629	0.78787	0.59174	1.185
Mof_Zn	Zn	0.12763	0.13653	0.24481	1.093
Mof_H 	H 	0.8709	0.5243	0.7426	0.093
Mof_H 	H 	0.8741	0.3777	0.3462	0.009
Mof_H 	H 	0.9228	0.5189	0.4172	0.089
Mof_H 	H 	0.8224	0.3842	0.6714	0.101
Mof_H 	H 	0.3814	0.0396	0.8798	0.093
Mof_H 	H 	0.0772	0.4811	0.5828	0.089
Mof_H 	H 	0.8816	0.3882	0.2687	0.072
Mof_H 	H 	0.1184	0.6118	0.7313	0.072
Mof_H 	H 	0.3224	0.8842	0.8286	0.101
Mof_H 	H 	0.6184	0.1118	0.7687	0.072
Mof_H 	H 	0.5375	0.9479	0.2854	0.095
Mof_H 	H 	0.3709	0.0243	0.7574	0.092
Mof_H 	H 	0.1291	0.4757	0.2574	0.093
Mof_H 	H 	0.6186	0.9604	0.1202	0.093
Mof_H 	H 	0.4719	0.1347	0.237	0.092
Mof_H 	H 	0.1175	0.6785	0.3309	0.101
Mof_H 	H 	0.0281	0.3653	0.737	0.092
Mof_H 	H 	0.1776	0.6158	0.3286	0.101
Mof_H 	H 	0.1186	0.4604	0.3798	0.094
Mof_H 	H 	0.0375	0.4479	0.2146	0.095
Mof_H 	H 	0.4625	0.0521	0.7146	0.095
Mof_H 	H 	0.4228	0.0189	0.0828	0.088
Mof_H 	H 	0.9798	0.5778	0.5854	0.085
Mof_H 	H 	0.6175	0.1785	0.1691	0.101
Mof_H 	H 	0.8825	0.3215	0.6691	0.101
Mof_H 	H 	0.3825	0.8215	0.8309	0.101
Mof_H 	H 	0.5281	0.8653	0.763	0.092
Mof_H 	H 	0.9415	0.5454	0.2177	0.095
Mof_H 	H 	0.6776	0.1158	0.1714	0.101
Mof_H 	H 	0.4798	0.0778	0.9146	0.086
Mof_H 	H 	0.4606	0.1185	0.1156	0.094
Mof_H 	H 	0.9719	0.6347	0.263	0.092
Mof_H 	H 	0.3741	0.8777	0.1538	0.009
Mof_H 	H 	0.0585	0.4546	0.7823	0.095
Mof_H 	H 	0.8814	0.5396	0.6202	0.094
Mof_H 	H 	0.9625	0.5521	0.7854	0.095
Mof_H 	H 	0.4415	0.0454	0.2823	0.094
Mof_H 	H 	0.9606	0.6185	0.3844	0.094
Mof_H 	H 	0.5202	0.9222	0.0854	0.086
Mof_H 	H 	0.0202	0.4222	0.4146	0.085
Mof_H 	H 	0.1259	0.6223	0.6538	0.009
Mof_H 	H 	0.5394	0.8815	0.8844	0.094
Mof_H 	H 	0.5772	0.9811	0.9172	0.088
Mof_H 	H 	0.3816	0.8882	0.2313	0.072
Mof_H 	H 	0.0394	0.3815	0.6156	0.094
Mof_H 	H 	0.6259	0.1223	0.8462	0.009
Mof_H 	H 	0.6291	0.9757	0.2426	0.092
Mof_H 	H 	0.5585	0.9546	0.7177	0.094
Mof_C 	C 	0.0869	0.4869	0.68408	0.105
Mof_C 	C 	0.3974	0.9005	0.94657	0.058
Mof_C 	C 	0.066	0.4751	0.25639	-0.236
Mof_C 	C 	0.9131	0.5131	0.31592	0.105
Mof_C 	C 	0.1026	0.5995	0.44657	0.058
Mof_C 	C 	0.8857	0.3854	0.67293	-0.253
Mof_C 	C 	0.99	0.6778	0.69142	0.062
Mof_C 	C 	0.9445	0.5403	0.62213	-0.242
Mof_C 	C 	0.9591	0.5553	0.3805	-0.242
Mof_C 	C 	0.8168	0.5152	0.31424	0.065
Mof_C 	C 	0.6269	0.1321	0.29159	0.057
Mof_C 	C 	0.4109	0.9156	0.18979	-0.197
Mof_C 	C 	0.6143	0.1146	0.17293	-0.252
Mof_C 	C 	0.1832	0.4848	0.68576	0.065
Mof_C 	C 	0.4591	0.0553	0.1195	-0.241
Mof_C 	C 	0.6832	0.9848	0.81424	0.063
Mof_C 	C 	0.4131	0.0131	0.18408	0.103
Mof_C 	C 	0.6026	0.0995	0.05343	0.058
Mof_C 	C 	0.5692	0.0733	0.23825	0.135
Mof_C 	C 	0.51	0.8222	0.19142	0.063
Mof_C 	C 	0.4308	0.9267	0.76175	0.135
Mof_C 	C 	0.4416	0.9427	0.88403	0.14
Mof_C 	C 	0.5409	0.9447	0.8805	-0.241
Mof_C 	C 	0.5584	0.0573	0.11597	0.14
Mof_C 	C 	0.5555	0.9597	0.12213	-0.24
Mof_C 	C 	0.0296	0.4286	0.74034	-0.235
Mof_C 	C 	0.5869	0.9869	0.81592	0.103
Mof_C 	C 	0.9704	0.5714	0.25966	-0.235
Mof_C 	C 	0.566	0.9751	0.24361	-0.235
Mof_C 	C 	0.8974	0.4005	0.55343	0.058
Mof_C 	C 	0.9109	0.4156	0.31021	-0.198
Mof_C 	C 	0.4704	0.0714	0.24034	-0.234
Mof_C 	C 	0.01	0.3222	0.30858	0.062
Mof_C 	C 	0.5101	0.9168	0.18704	0.101
Mof_C 	C 	0.0409	0.4447	0.6195	-0.242
Mof_C 	C 	0.0555	0.4597	0.37787	-0.242
Mof_C 	C 	0.4445	0.0403	0.87787	-0.24
Mof_C 	C 	0.3857	0.8854	0.82707	-0.252
Mof_C 	C 	0.9308	0.4267	0.73825	0.136
Mof_C 	C 	0.1269	0.6321	0.20841	0.057
Mof_C 	C 	0.0692	0.5733	0.26175	0.136
Mof_C 	C 	0.0101	0.4168	0.31296	0.102
Mof_C 	C 	0.5296	0.9286	0.75966	-0.234
Mof_C 	C 	0.8731	0.3679	0.79159	0.057
Mof_C 	C 	0.0584	0.5573	0.38403	0.142
Mof_C 	C 	0.1143	0.6146	0.32707	-0.253
Mof_C 	C 	0.49	0.1778	0.80858	0.063
Mof_C 	C 	0.3168	0.0152	0.18576	0.063
Mof_C 	C 	0.934	0.5249	0.74361	-0.236
Mof_C 	C 	0.9416	0.4427	0.61597	0.142
Mof_C 	C 	0.5891	0.0844	0.81021	-0.197
Mof_C 	C 	0.3731	0.8679	0.70841	0.057
Mof_C 	C 	0.9899	0.5832	0.68704	0.102
Mof_C 	C 	0.4899	0.0832	0.81296	0.101
Mof_C 	C 	0.0891	0.5844	0.68979	-0.198
Mof_C 	C 	0.434	0.0249	0.75639	-0.235
Mof_N 	N 	0.1916	0.637	0.52743	-0.202
Mof_N 	N 	0.5808	0.1623	0.02101	-0.105
Mof_N 	N 	0.8612	0.3157	0.47055	-0.204
Mof_N 	N 	0.7959	0.3743	0.81501	-0.108
Mof_N 	N 	0.8266	0.0111	0.83391	-0.106
Mof_N 	N 	0.7568	0.0396	0.84743	-0.243
Mof_N 	N 	0.6709	0.0825	0.02415	-0.103
Mof_N 	N 	0.112	0.7029	0.18172	-0.107
Mof_N 	N 	0.7362	0.1933	0.35746	-0.206
Mof_N 	N 	0.6388	0.1843	0.97055	-0.204
Mof_N 	N 	0.3182	0.7603	0.64049	-0.209
Mof_N 	N 	0.2968	0.0776	0.21847	-0.127
Mof_N 	N 	0.5505	0.712	0.21437	-0.218
Mof_N 	N 	0.2638	0.8067	0.64254	-0.206
Mof_N 	N 	0.888	0.2971	0.81828	-0.107
Mof_N 	N 	0.0714	0.3016	0.27351	-0.128
Mof_N 	N 	0.1388	0.6843	0.52945	-0.204
Mof_N 	N 	0.4495	0.288	0.78563	-0.218
Mof_N 	N 	0.2932	0.4413	0.70518	-0.212
Mof_N 	N 	0.1818	0.7397	0.14049	-0.209
Mof_N 	N 	0.6818	0.2397	0.35951	-0.209
Mof_N 	N 	0.2068	0.0587	0.20518	-0.214
Mof_N 	N 	0.7638	0.3067	0.85746	-0.206
Mof_N 	N 	0.9286	0.6984	0.72649	-0.128
Mof_N 	N 	0.612	0.2029	0.31828	-0.107
Mof_N 	N 	0.3612	0.8157	0.02945	-0.204
Mof_N 	N 	0.0505	0.212	0.28563	-0.219
Mof_N 	N 	0.2568	0.5396	0.65257	-0.244
Mof_N 	N 	0.9827	0.1797	0.32612	-0.105
Mof_N 	N 	0.8291	0.4175	0.52415	-0.103
Mof_N 	N 	0.2432	0.9604	0.15257	-0.243
Mof_N 	N 	0.2041	0.6257	0.18499	-0.108
Mof_N 	N 	0.2959	0.8743	0.68499	-0.108
Mof_N 	N 	0.6734	0.4889	0.33391	-0.107
Mof_N 	N 	0.5173	0.3203	0.82612	-0.106
Mof_N 	N 	0.2362	0.6933	0.14254	-0.206
Mof_N 	N 	0.0445	0.7512	0.65764	-0.242
Mof_N 	N 	0.6916	0.137	0.97257	-0.202
Mof_N 	N 	0.0173	0.8203	0.67388	-0.105
Mof_N 	N 	0.8182	0.2603	0.85951	-0.209
Mof_N 	N 	0.7932	0.9413	0.79482	-0.214
Mof_N 	N 	0.7068	0.5587	0.29482	-0.212
Mof_N 	N 	0.388	0.7971	0.68172	-0.107
Mof_N 	N 	0.1734	0.9889	0.16609	-0.106
Mof_N 	N 	0.7041	0.1257	0.31501	-0.108
Mof_N 	N 	0.4192	0.8377	0.97899	-0.105
Mof_N 	N 	0.9495	0.788	0.71437	-0.219
Mof_N 	N 	0.9555	0.2488	0.34236	-0.242
Mof_N 	N 	0.3291	0.9175	0.97585	-0.103
Mof_N 	N 	0.7032	0.9224	0.78153	-0.127
Mof_N 	N 	0.5714	0.8016	0.22649	-0.128
Mof_N 	N 	0.9192	0.3377	0.52101	-0.104
Mof_N 	N 	0.4827	0.6797	0.17388	-0.106
Mof_N 	N 	0.3084	0.863	0.02743	-0.202
Mof_N 	N 	0.4555	0.7488	0.15764	-0.243
Mof_N 	N 	0.7432	0.4604	0.34743	-0.244
Mof_N 	N 	0.4286	0.1984	0.77351	-0.128
Mof_N 	N 	0.7968	0.5776	0.28153	-0.127
Mof_N 	N 	0.5445	0.2512	0.84236	-0.243
Mof_N 	N 	0.3266	0.5111	0.66609	-0.107
Mof_N 	N 	0.2032	0.4224	0.71847	-0.127
Mof_N 	N 	0.8084	0.363	0.47257	-0.202
Mof_N 	N 	0.0808	0.6623	0.47899	-0.104
Mof_N 	N 	0.1709	0.5825	0.47585	-0.103
Mof_Cl	Cl	0.41103	0.64891	0.52506	-0.585
Mof_Cl	Cl	0.33995	0.59744	0.02717	-0.591
Mof_Cl	Cl	0.91103	0.14891	0.97494	-0.584
Mof_Cl	Cl	0.83995	0.09744	0.47283	-0.589
Mof_Cl	Cl	0.58897	0.35109	0.47494	-0.585
Mof_Cl	Cl	0.08897	0.85109	0.02506	-0.584
Mof_Cl	Cl	0.16005	0.90256	0.52717	-0.589
Mof_Cl	Cl	0.66005	0.40256	0.97283	-0.591
_end
