# CIF file generated by openbabel 3.1.0, see https://openbabel.org
data_I
_chemical_name_common 'image0'
_cell_length_a 15.1014
_cell_length_b 10.9686
_cell_length_c 22.3338
_cell_angle_alpha 90
_cell_angle_beta 103.099
_cell_angle_gamma 90
_space_group_name_H-M_alt 'P 1'
_space_group_name_Hall 'P 1'
loop_
    _symmetry_equiv_pos_as_xyz
    x,y,z
loop_
    _atom_site_label
    _atom_site_type_symbol
    _atom_site_fract_x
    _atom_site_fract_y
    _atom_site_fract_z
    _atom_site_occupancy
    Mg1      Mg       0.48037    0.52588    0.56888    1.000
    Mg2      Mg       0.35481    0.97919    0.62141    1.000
    P1       P        0.38217    0.26051    0.57263    1.000
    O1       O        0.45352    0.35575    0.59081    1.000
    O2       O        0.39567    0.15167    0.61322    1.000
    O3       O        0.28861    0.32050    0.57308    1.000
    H1       H        0.24800    0.28330    0.54950    1.000
    O4       O        0.37244    0.22180    0.50333    1.000
    H2       H        0.42130    0.23100    0.49380    1.000
    O5       O        0.44018    0.97817    0.70376    1.000
    O6       O        0.44789    0.81710    0.78617    1.000
    H3       H        0.43480    0.75340    0.76700    1.000
    O7       O        0.49868    0.71672    0.55183    1.000
    O8       O        0.44511    0.89928    0.57289    1.000
    O9       O        0.38947    0.60680    0.61245    1.000
    O10      O        0.32852    0.78565    0.62815    1.000
    O11      O        0.58832    0.49040    0.52357    1.000
    O12      O        0.74054    0.48181    0.54412    1.000
    O13      O        0.59438    0.52987    0.64161    1.000
    O14      O        0.74560    0.51379    0.66293    1.000
    C1       C        0.44854    0.78680    0.57483    1.000
    C2       C        0.38303    0.72040    0.60843    1.000
    C3       C        0.66698    0.49410    0.55839    1.000
    C4       C        0.66945    0.51520    0.62757    1.000
    Mg3      Mg       0.98037    0.02588    0.56888    1.000
    Mg4      Mg       0.85481    0.47919    0.62141    1.000
    P2       P        0.88217    0.76051    0.57263    1.000
    O15      O        0.95352    0.85575    0.59081    1.000
    O16      O        0.89567    0.65167    0.61322    1.000
    O17      O        0.78861    0.82050    0.57308    1.000
    H4       H        0.74800    0.78330    0.54950    1.000
    O18      O        0.87244    0.72180    0.50333    1.000
    H5       H        0.92130    0.73100    0.49380    1.000
    O19      O        0.94018    0.47817    0.70376    1.000
    O20      O        0.94789    0.31710    0.78617    1.000
    H6       H        0.93480    0.25340    0.76700    1.000
    O21      O        0.99868    0.21672    0.55183    1.000
    O22      O        0.94511    0.39928    0.57289    1.000
    O23      O        0.88947    0.10680    0.61245    1.000
    O24      O        0.82852    0.28565    0.62815    1.000
    O25      O        0.08832    0.99040    0.52357    1.000
    O26      O        0.24054    0.98181    0.54412    1.000
    O27      O        0.09438    0.02987    0.64161    1.000
    O28      O        0.24560    0.01379    0.66293    1.000
    C5       C        0.94854    0.28680    0.57483    1.000
    C6       C        0.88303    0.22040    0.60843    1.000
    C7       C        0.16698    0.99410    0.55839    1.000
    C8       C        0.16945    0.01520    0.62757    1.000
    Mg5      Mg       0.51963    0.52588    0.93112    1.000
    Mg6      Mg       0.64519    0.97919    0.87859    1.000
    P3       P        0.61783    0.26051    0.92737    1.000
    O29      O        0.54648    0.35575    0.90919    1.000
    O30      O        0.60433    0.15167    0.88678    1.000
    O31      O        0.71139    0.32050    0.92692    1.000
    H7       H        0.75200    0.28330    0.95050    1.000
    O32      O        0.62756    0.22180    0.99667    1.000
    H8       H        0.57870    0.23100    0.00620    1.000
    O33      O        0.55982    0.97817    0.79624    1.000
    O34      O        0.55211    0.81710    0.71383    1.000
    H9       H        0.56520    0.75340    0.73300    1.000
    O35      O        0.50132    0.71672    0.94817    1.000
    O36      O        0.55489    0.89928    0.92711    1.000
    O37      O        0.61053    0.60680    0.88755    1.000
    O38      O        0.67148    0.78565    0.87185    1.000
    O39      O        0.41168    0.49040    0.97643    1.000
    O40      O        0.25946    0.48181    0.95588    1.000
    O41      O        0.40562    0.52987    0.85839    1.000
    O42      O        0.25440    0.51379    0.83707    1.000
    C9       C        0.55146    0.78680    0.92517    1.000
    C10      C        0.61697    0.72040    0.89157    1.000
    C11      C        0.33302    0.49410    0.94161    1.000
    C12      C        0.33055    0.51520    0.87243    1.000
    Mg7      Mg       0.01963    0.02588    0.93112    1.000
    Mg8      Mg       0.14519    0.47919    0.87859    1.000
    P4       P        0.11783    0.76051    0.92737    1.000
    O43      O        0.04648    0.85575    0.90919    1.000
    O44      O        0.10433    0.65167    0.88678    1.000
    O45      O        0.21139    0.82050    0.92692    1.000
    H10      H        0.25200    0.78330    0.95050    1.000
    O46      O        0.12756    0.72180    0.99667    1.000
    H11      H        0.07870    0.73100    0.00620    1.000
    O47      O        0.05982    0.47817    0.79624    1.000
    O48      O        0.05211    0.31710    0.71383    1.000
    H12      H        0.06520    0.25340    0.73300    1.000
    O49      O        0.00132    0.21672    0.94817    1.000
    O50      O        0.05489    0.39928    0.92711    1.000
    O51      O        0.11053    0.10680    0.88755    1.000
    O52      O        0.17148    0.28565    0.87185    1.000
    O53      O        0.91168    0.99040    0.97643    1.000
    O54      O        0.75946    0.98181    0.95588    1.000
    O55      O        0.90562    0.02987    0.85839    1.000
    O56      O        0.75440    0.01379    0.83707    1.000
    C13      C        0.05146    0.28680    0.92517    1.000
    C14      C        0.11697    0.22040    0.89157    1.000
    C15      C        0.83302    0.99410    0.94161    1.000
    C16      C        0.83055    0.01520    0.87243    1.000
    Mg9      Mg       0.51963    0.47412    0.43112    1.000
    Mg10     Mg       0.64519    0.02081    0.37859    1.000
    P5       P        0.61783    0.73949    0.42737    1.000
    O57      O        0.54648    0.64425    0.40919    1.000
    O58      O        0.60433    0.84833    0.38678    1.000
    O59      O        0.71139    0.67950    0.42692    1.000
    H13      H        0.75200    0.71670    0.45050    1.000
    O60      O        0.62756    0.77820    0.49667    1.000
    H14      H        0.57870    0.76900    0.50620    1.000
    O61      O        0.55982    0.02183    0.29624    1.000
    O62      O        0.55211    0.18290    0.21383    1.000
    H15      H        0.56520    0.24660    0.23300    1.000
    O63      O        0.50132    0.28328    0.44817    1.000
    O64      O        0.55489    0.10072    0.42711    1.000
    O65      O        0.61053    0.39320    0.38755    1.000
    O66      O        0.67148    0.21435    0.37185    1.000
    O67      O        0.41168    0.50960    0.47643    1.000
    O68      O        0.25946    0.51819    0.45588    1.000
    O69      O        0.40562    0.47013    0.35839    1.000
    O70      O        0.25440    0.48621    0.33707    1.000
    C17      C        0.55146    0.21320    0.42517    1.000
    C18      C        0.61697    0.27960    0.39157    1.000
    C19      C        0.33302    0.50590    0.44161    1.000
    C20      C        0.33055    0.48480    0.37243    1.000
    Mg11     Mg       0.01963    0.97412    0.43112    1.000
    Mg12     Mg       0.14519    0.52081    0.37859    1.000
    P6       P        0.11783    0.23949    0.42737    1.000
    O71      O        0.04648    0.14425    0.40919    1.000
    O72      O        0.10433    0.34833    0.38678    1.000
    O73      O        0.21139    0.17950    0.42692    1.000
    H16      H        0.25200    0.21670    0.45050    1.000
    O74      O        0.12756    0.27820    0.49667    1.000
    H17      H        0.07870    0.26900    0.50620    1.000
    O75      O        0.05982    0.52183    0.29624    1.000
    O76      O        0.05211    0.68290    0.21383    1.000
    H18      H        0.06520    0.74660    0.23300    1.000
    O77      O        0.00132    0.78328    0.44817    1.000
    O78      O        0.05489    0.60072    0.42711    1.000
    O79      O        0.11053    0.89320    0.38755    1.000
    O80      O        0.17148    0.71435    0.37185    1.000
    O81      O        0.91168    0.00960    0.47643    1.000
    O82      O        0.75946    0.01819    0.45588    1.000
    O83      O        0.90562    0.97013    0.35839    1.000
    O84      O        0.75440    0.98621    0.33707    1.000
    C21      C        0.05146    0.71320    0.42517    1.000
    C22      C        0.11697    0.77960    0.39157    1.000
    C23      C        0.83302    0.00590    0.44161    1.000
    C24      C        0.83055    0.98480    0.37243    1.000
    Mg13     Mg       0.48037    0.47412    0.06888    1.000
    Mg14     Mg       0.35481    0.02081    0.12141    1.000
    P7       P        0.38217    0.73949    0.07263    1.000
    O85      O        0.45352    0.64425    0.09081    1.000
    O86      O        0.39567    0.84833    0.11322    1.000
    O87      O        0.28861    0.67950    0.07308    1.000
    H19      H        0.24800    0.71670    0.04950    1.000
    O88      O        0.37244    0.77820    0.00333    1.000
    H20      H        0.42130    0.76900    0.99380    1.000
    O89      O        0.44018    0.02183    0.20376    1.000
    O90      O        0.44789    0.18290    0.28617    1.000
    H21      H        0.43480    0.24660    0.26700    1.000
    O91      O        0.49868    0.28328    0.05183    1.000
    O92      O        0.44511    0.10072    0.07289    1.000
    O93      O        0.38947    0.39320    0.11245    1.000
    O94      O        0.32852    0.21435    0.12815    1.000
    O95      O        0.58832    0.50960    0.02357    1.000
    O96      O        0.74054    0.51819    0.04412    1.000
    O97      O        0.59438    0.47013    0.14161    1.000
    O98      O        0.74560    0.48621    0.16293    1.000
    C25      C        0.44854    0.21320    0.07483    1.000
    C26      C        0.38303    0.27960    0.10843    1.000
    C27      C        0.66698    0.50590    0.05839    1.000
    C28      C        0.66945    0.48480    0.12757    1.000
    Mg15     Mg       0.98037    0.97412    0.06888    1.000
    Mg16     Mg       0.85481    0.52081    0.12141    1.000
    P8       P        0.88217    0.23949    0.07263    1.000
    O99      O        0.95352    0.14425    0.09081    1.000
    O100     O        0.89567    0.34833    0.11322    1.000
    O101     O        0.78861    0.17950    0.07308    1.000
    H22      H        0.74800    0.21670    0.04950    1.000
    O102     O        0.87244    0.27820    0.00333    1.000
    H23      H        0.92130    0.26900    0.99380    1.000
    O103     O        0.94018    0.52183    0.20376    1.000
    O104     O        0.94789    0.68290    0.28617    1.000
    H24      H        0.93480    0.74660    0.26700    1.000
    O105     O        0.99868    0.78328    0.05183    1.000
    O106     O        0.94511    0.60072    0.07289    1.000
    O107     O        0.88947    0.89320    0.11245    1.000
    O108     O        0.82852    0.71435    0.12815    1.000
    O109     O        0.08832    0.00960    0.02357    1.000
    O110     O        0.24054    0.01819    0.04412    1.000
    O111     O        0.09438    0.97013    0.14161    1.000
    O112     O        0.24560    0.98621    0.16293    1.000
    C29      C        0.94854    0.71320    0.07483    1.000
    C30      C        0.88303    0.77960    0.10843    1.000
    C31      C        0.16698    0.00590    0.05839    1.000
    C32      C        0.16945    0.98480    0.12757    1.000
    P9       P        0.50000    0.90285    0.75000    1.000
    P10      P        0.00000    0.40285    0.75000    1.000
    P11      P        0.50000    0.09715    0.25000    1.000
    P12      P        0.00000    0.59715    0.25000    1.000
