# CIF file generated by openbabel 3.1.0, see https://openbabel.org
data_I
_chemical_name_common 'image0'
_cell_length_a 10.7455
_cell_length_b 6.3469
_cell_length_c 20.48
_cell_angle_alpha 90
_cell_angle_beta 104.286
_cell_angle_gamma 90
_space_group_name_H-M_alt 'P 1'
_space_group_name_Hall 'P 1'
loop_
    _symmetry_equiv_pos_as_xyz
    x,y,z
loop_
    _atom_site_label
    _atom_site_type_symbol
    _atom_site_fract_x
    _atom_site_fract_y
    _atom_site_fract_z
    _atom_site_occupancy
    Ti1      Ti       0.89060    0.03510    0.20030    1.000
    Ti2      Ti       0.09670    0.54300    0.39350    1.000
    P1       P        0.17230    0.17160    0.17770    1.000
    P2       P        0.88380    0.53770    0.24300    1.000
    P3       P        0.02520    0.04880    0.36650    1.000
    P4       P        0.67980    0.08160    0.05320    1.000
    O1       O        0.88840    0.72960    0.19900    1.000
    O2       O        0.80220    0.02890    0.10560    1.000
    O3       O        0.88770    0.34290    0.20050    1.000
    O4       O        0.99710    0.03100    0.29150    1.000
    O5       O        0.76530    0.53800    0.27000    1.000
    O6       O        0.04970    0.04600    0.17100    1.000
    O7       O        0.00250    0.54030    0.30280    1.000
    O8       O        0.08650    0.84830    0.40120    1.000
    O9       O        0.68780    0.96810    0.98890    1.000
    O10      O        0.11380    0.23560    0.39190    1.000
    O11      O        0.24430    0.06990    0.12990    1.000
    O12      O        0.56560    0.01320    0.07820    1.000
    O13      O        0.25340    0.17570    0.25090    1.000
    O14      O        0.14580    0.40130    0.15720    1.000
    O15      O        0.89760    0.08450    0.38700    1.000
    O16      O        0.67550    0.31840    0.03690    1.000
    H1       H        0.31880    0.24470    0.25310    1.000
    H2       H        0.86380    0.19330    0.36950    1.000
    H3       H        0.64970    0.38340    0.06560    1.000
    Ti3      Ti       0.60940    0.53510    0.29970    1.000
    Ti4      Ti       0.40330    0.04300    0.10650    1.000
    P5       P        0.32770    0.67160    0.32230    1.000
    P6       P        0.61620    0.03770    0.25700    1.000
    P7       P        0.47480    0.54880    0.13350    1.000
    P8       P        0.82020    0.58160    0.44680    1.000
    O17      O        0.61160    0.22960    0.30100    1.000
    O18      O        0.69780    0.52890    0.39440    1.000
    O19      O        0.61230    0.84290    0.29950    1.000
    O20      O        0.50290    0.53100    0.20850    1.000
    O21      O        0.73470    0.03800    0.23000    1.000
    O22      O        0.45030    0.54600    0.32900    1.000
    O23      O        0.49750    0.04030    0.19720    1.000
    O24      O        0.41350    0.34830    0.09880    1.000
    O25      O        0.81220    0.46810    0.51110    1.000
    O26      O        0.38620    0.73560    0.10810    1.000
    O27      O        0.25570    0.56990    0.37010    1.000
    O28      O        0.93440    0.51320    0.42180    1.000
    O29      O        0.24660    0.67570    0.24910    1.000
    O30      O        0.35420    0.90130    0.34280    1.000
    O31      O        0.60240    0.58450    0.11300    1.000
    O32      O        0.82450    0.81840    0.46310    1.000
    H4       H        0.18120    0.74470    0.24690    1.000
    H5       H        0.63620    0.69330    0.13050    1.000
    H6       H        0.85030    0.88340    0.43440    1.000
    Ti5      Ti       0.10940    0.96490    0.79970    1.000
    Ti6      Ti       0.90330    0.45700    0.60650    1.000
    P9       P        0.82770    0.82840    0.82230    1.000
    P10      P        0.11620    0.46230    0.75700    1.000
    P11      P        0.97480    0.95120    0.63350    1.000
    P12      P        0.32020    0.91840    0.94680    1.000
    O33      O        0.11160    0.27040    0.80100    1.000
    O34      O        0.19780    0.97110    0.89440    1.000
    O35      O        0.11230    0.65710    0.79950    1.000
    O36      O        0.00290    0.96900    0.70850    1.000
    O37      O        0.23470    0.46200    0.73000    1.000
    O38      O        0.95030    0.95400    0.82900    1.000
    O39      O        0.99750    0.45970    0.69720    1.000
    O40      O        0.91350    0.15170    0.59880    1.000
    O41      O        0.31220    0.03190    0.01110    1.000
    O42      O        0.88620    0.76440    0.60810    1.000
    O43      O        0.75570    0.93010    0.87010    1.000
    O44      O        0.43440    0.98680    0.92180    1.000
    O45      O        0.74660    0.82430    0.74910    1.000
    O46      O        0.85420    0.59870    0.84280    1.000
    O47      O        0.10240    0.91550    0.61300    1.000
    O48      O        0.32450    0.68160    0.96310    1.000
    H7       H        0.68120    0.75530    0.74690    1.000
    H8       H        0.13620    0.80670    0.63050    1.000
    H9       H        0.35030    0.61660    0.93440    1.000
    Ti7      Ti       0.39060    0.46490    0.70030    1.000
    Ti8      Ti       0.59670    0.95700    0.89350    1.000
    P13      P        0.67230    0.32840    0.67770    1.000
    P14      P        0.38380    0.96230    0.74300    1.000
    P15      P        0.52520    0.45120    0.86650    1.000
    P16      P        0.17980    0.41840    0.55320    1.000
    O49      O        0.38840    0.77040    0.69900    1.000
    O50      O        0.30220    0.47110    0.60560    1.000
    O51      O        0.38770    0.15710    0.70050    1.000
    O52      O        0.49710    0.46900    0.79150    1.000
    O53      O        0.26530    0.96200    0.77000    1.000
    O54      O        0.54970    0.45400    0.67100    1.000
    O55      O        0.50250    0.95970    0.80280    1.000
    O56      O        0.58650    0.65170    0.90120    1.000
    O57      O        0.18780    0.53190    0.48890    1.000
    O58      O        0.61380    0.26440    0.89190    1.000
    O59      O        0.74430    0.43010    0.62990    1.000
    O60      O        0.06560    0.48680    0.57820    1.000
    O61      O        0.75340    0.32430    0.75090    1.000
    O62      O        0.64580    0.09870    0.65720    1.000
    O63      O        0.39760    0.41550    0.88700    1.000
    O64      O        0.17550    0.18160    0.53690    1.000
    H10      H        0.81880    0.25530    0.75310    1.000
    H11      H        0.36380    0.30670    0.86950    1.000
    H12      H        0.14970    0.11660    0.56560    1.000
