# CIF file generated by openbabel 3.1.0, see https://openbabel.org
data_I
_chemical_name_common 'image0'
_cell_length_a 10.7228
_cell_length_b 16.774
_cell_length_c 19.6191
_cell_angle_alpha 90
_cell_angle_beta 120.924
_cell_angle_gamma 90
_space_group_name_H-M_alt 'P 1'
_space_group_name_Hall 'P 1'
loop_
    _symmetry_equiv_pos_as_xyz
    x,y,z
loop_
    _atom_site_label
    _atom_site_type_symbol
    _atom_site_fract_x
    _atom_site_fract_y
    _atom_site_fract_z
    _atom_site_occupancy
    C1       C        0.63720    0.19210    0.26840    1.000
    H1       H        0.67330    0.24090    0.26380    1.000
    C2       C        0.51480    0.10370    0.28760    1.000
    H2       H        0.44800    0.07990    0.29790    1.000
    C3       C        0.61060    0.06410    0.27440    1.000
    H3       H        0.62250    0.00920    0.27480    1.000
    C4       C        0.81400    0.10720    0.25310    1.000
    H4       H        0.84350    0.05210    0.26730    1.000
    H5       H        0.89270    0.14030    0.29200    1.000
    C5       C        0.79770    0.12300    0.17150    1.000
    C6       C        0.66730    0.07730    0.10360    1.000
    H6       H        0.57930    0.09520    0.10150    1.000
    H7       H        0.65950    0.09210    0.05380    1.000
    C7       C        0.59970    0.94440    0.13300    1.000
    H8       H        0.53650    0.96390    0.14830    1.000
    C8       C        0.72410    0.86520    0.10550    1.000
    H9       H        0.76500    0.81890    0.09930    1.000
    C9       C        0.75020    0.93940    0.08980    1.000
    H10      H        0.80890    0.95340    0.06960    1.000
    C10      C        0.93930    0.09380    0.17660    1.000
    H11      H        0.94300    0.03610    0.18080    1.000
    H12      H        0.93480    0.10750    0.12740    1.000
    C11      C        0.15060    0.09820    0.31970    1.000
    H13      H        0.12310    0.05640    0.34040    1.000
    C12      C        0.15560    0.18520    0.23940    1.000
    H14      H        0.12960    0.21410    0.19350    1.000
    C13      C        0.76980    0.21300    0.15250    1.000
    H15      H        0.68920    0.22910    0.15860    1.000
    H16      H        0.85500    0.24220    0.19150    1.000
    C14      C        0.83080    0.26250    0.05010    1.000
    H17      H        0.93030    0.27070    0.08260    1.000
    C15      C        0.75040    0.27380    0.97110    1.000
    H18      H        0.78650    0.29130    0.93950    1.000
    C16      C        0.60330    0.23510    0.00750    1.000
    H19      H        0.51920    0.22130    0.00740    1.000
    Co1      Co       0.44620    0.27470    0.32310    1.000
    N1       N        0.53150    0.18400    0.28330    1.000
    N2       N        0.68680    0.12120    0.26040    1.000
    N3       N        0.07480    0.12640    0.24320    1.000
    C17      C        0.27520    0.19770    0.30760    1.000
    H20      H        0.34640    0.23550    0.31850    1.000
    N4       N        0.73720    0.23640    0.07320    1.000
    N5       N        0.60650    0.25580    0.94360    1.000
    N6       N        0.67280    0.99040    0.10940    1.000
    N7       N        0.62820    0.86820    0.13200    1.000
    N8       N        0.27390    0.14300    0.35980    1.000
    C18      C        0.36280    0.69210    0.23160    1.000
    H21      H        0.32670    0.74090    0.23620    1.000
    C19      C        0.48520    0.60370    0.21240    1.000
    H22      H        0.55200    0.57990    0.20210    1.000
    C20      C        0.38940    0.56410    0.22560    1.000
    H23      H        0.37750    0.50920    0.22520    1.000
    C21      C        0.18600    0.60720    0.24690    1.000
    H24      H        0.15650    0.55210    0.23270    1.000
    H25      H        0.10730    0.64030    0.20800    1.000
    C22      C        0.20230    0.62300    0.32850    1.000
    C23      C        0.33270    0.57730    0.39640    1.000
    H26      H        0.42070    0.59520    0.39850    1.000
    H27      H        0.34050    0.59210    0.44620    1.000
    C24      C        0.40030    0.44440    0.36700    1.000
    H28      H        0.46350    0.46390    0.35170    1.000
    C25      C        0.27590    0.36520    0.39450    1.000
    H29      H        0.23500    0.31890    0.40070    1.000
    C26      C        0.24980    0.43940    0.41020    1.000
    H30      H        0.19110    0.45340    0.43040    1.000
    C27      C        0.06070    0.59380    0.32340    1.000
    H31      H        0.05700    0.53610    0.31920    1.000
    H32      H        0.06520    0.60750    0.37260    1.000
    C28      C        0.84940    0.59820    0.18030    1.000
    H33      H        0.87690    0.55640    0.15960    1.000
    C29      C        0.84440    0.68520    0.26060    1.000
    H34      H        0.87040    0.71410    0.30650    1.000
    C30      C        0.23020    0.71300    0.34750    1.000
    H35      H        0.31080    0.72910    0.34140    1.000
    H36      H        0.14500    0.74220    0.30850    1.000
    C31      C        0.16920    0.76250    0.44990    1.000
    H37      H        0.06970    0.77070    0.41740    1.000
    C32      C        0.24960    0.77380    0.52890    1.000
    H38      H        0.21350    0.79130    0.56050    1.000
    C33      C        0.39670    0.73510    0.49250    1.000
    H39      H        0.48080    0.72130    0.49260    1.000
    Co2      Co       0.55380    0.77470    0.17690    1.000
    N9       N        0.46850    0.68400    0.21670    1.000
    N10      N        0.31320    0.62120    0.23960    1.000
    N11      N        0.92520    0.62640    0.25680    1.000
    C34      C        0.72480    0.69770    0.19240    1.000
    H40      H        0.65360    0.73550    0.18150    1.000
    N12      N        0.26280    0.73640    0.42680    1.000
    N13      N        0.39350    0.75580    0.55640    1.000
    N14      N        0.32720    0.49040    0.39060    1.000
    N15      N        0.37180    0.36820    0.36800    1.000
    N16      N        0.72610    0.64300    0.14020    1.000
    C35      C        0.36280    0.80790    0.73160    1.000
    H41      H        0.32670    0.75910    0.73620    1.000
    C36      C        0.48520    0.89630    0.71240    1.000
    H42      H        0.55200    0.92010    0.70210    1.000
    C37      C        0.38940    0.93590    0.72560    1.000
    H43      H        0.37750    0.99080    0.72520    1.000
    C38      C        0.18600    0.89280    0.74690    1.000
    H44      H        0.15650    0.94790    0.73270    1.000
    H45      H        0.10730    0.85970    0.70800    1.000
    C39      C        0.20230    0.87700    0.82850    1.000
    C40      C        0.33270    0.92270    0.89640    1.000
    H46      H        0.42070    0.90480    0.89850    1.000
    H47      H        0.34050    0.90790    0.94620    1.000
    C41      C        0.40030    0.05560    0.86700    1.000
    H48      H        0.46350    0.03610    0.85170    1.000
    C42      C        0.27590    0.13480    0.89450    1.000
    H49      H        0.23500    0.18110    0.90070    1.000
    C43      C        0.24980    0.06060    0.91020    1.000
    H50      H        0.19110    0.04660    0.93040    1.000
    C44      C        0.06070    0.90620    0.82340    1.000
    H51      H        0.05700    0.96390    0.81920    1.000
    H52      H        0.06520    0.89250    0.87260    1.000
    C45      C        0.84940    0.90180    0.68030    1.000
    H53      H        0.87690    0.94360    0.65960    1.000
    C46      C        0.84440    0.81480    0.76060    1.000
    H54      H        0.87040    0.78590    0.80650    1.000
    C47      C        0.23020    0.78700    0.84750    1.000
    H55      H        0.31080    0.77090    0.84140    1.000
    H56      H        0.14500    0.75780    0.80850    1.000
    C48      C        0.16920    0.73750    0.94990    1.000
    H57      H        0.06970    0.72930    0.91740    1.000
    C49      C        0.24960    0.72620    0.02890    1.000
    H58      H        0.21350    0.70870    0.06050    1.000
    C50      C        0.39670    0.76490    0.99250    1.000
    H59      H        0.48080    0.77870    0.99260    1.000
    Co3      Co       0.55380    0.72530    0.67690    1.000
    N17      N        0.46850    0.81600    0.71670    1.000
    N18      N        0.31320    0.87880    0.73960    1.000
    N19      N        0.92520    0.87360    0.75680    1.000
    C51      C        0.72480    0.80230    0.69240    1.000
    H60      H        0.65360    0.76450    0.68150    1.000
    N20      N        0.26280    0.76360    0.92680    1.000
    N21      N        0.39350    0.74420    0.05640    1.000
    N22      N        0.32720    0.00960    0.89060    1.000
    N23      N        0.37180    0.13180    0.86800    1.000
    N24      N        0.72610    0.85700    0.64020    1.000
    C52      C        0.63720    0.30790    0.76840    1.000
    H61      H        0.67330    0.25910    0.76380    1.000
    C53      C        0.51480    0.39630    0.78760    1.000
    H62      H        0.44800    0.42010    0.79790    1.000
    C54      C        0.61060    0.43590    0.77440    1.000
    H63      H        0.62250    0.49080    0.77480    1.000
    C55      C        0.81400    0.39280    0.75310    1.000
    H64      H        0.84350    0.44790    0.76730    1.000
    H65      H        0.89270    0.35970    0.79200    1.000
    C56      C        0.79770    0.37700    0.67150    1.000
    C57      C        0.66730    0.42270    0.60360    1.000
    H66      H        0.57930    0.40480    0.60150    1.000
    H67      H        0.65950    0.40790    0.55380    1.000
    C58      C        0.59970    0.55560    0.63300    1.000
    H68      H        0.53650    0.53610    0.64830    1.000
    C59      C        0.72410    0.63480    0.60550    1.000
    H69      H        0.76500    0.68110    0.59930    1.000
    C60      C        0.75020    0.56060    0.58980    1.000
    H70      H        0.80890    0.54660    0.56960    1.000
    C61      C        0.93930    0.40620    0.67660    1.000
    H71      H        0.94300    0.46390    0.68080    1.000
    H72      H        0.93480    0.39250    0.62740    1.000
    C62      C        0.15060    0.40180    0.81970    1.000
    H73      H        0.12310    0.44360    0.84040    1.000
    C63      C        0.15560    0.31480    0.73940    1.000
    H74      H        0.12960    0.28590    0.69350    1.000
    C64      C        0.76980    0.28700    0.65250    1.000
    H75      H        0.68920    0.27090    0.65860    1.000
    H76      H        0.85500    0.25780    0.69150    1.000
    C65      C        0.83080    0.23750    0.55010    1.000
    H77      H        0.93030    0.22930    0.58260    1.000
    C66      C        0.75040    0.22620    0.47110    1.000
    H78      H        0.78650    0.20870    0.43950    1.000
    C67      C        0.60330    0.26490    0.50750    1.000
    H79      H        0.51920    0.27870    0.50740    1.000
    Co4      Co       0.44620    0.22530    0.82310    1.000
    N25      N        0.53150    0.31600    0.78330    1.000
    N26      N        0.68680    0.37880    0.76040    1.000
    N27      N        0.07480    0.37360    0.74320    1.000
    C68      C        0.27520    0.30230    0.80760    1.000
    H80      H        0.34640    0.26450    0.81850    1.000
    N28      N        0.73720    0.26360    0.57320    1.000
    N29      N        0.60650    0.24420    0.44360    1.000
    N30      N        0.67280    0.50960    0.60940    1.000
    N31      N        0.62820    0.63180    0.63200    1.000
    N32      N        0.27390    0.35700    0.85980    1.000
