data_functionalizedCrystal
_audit_creation_method	'EQeq! by Chris Wilmer'
_symmetry_space_group_name_H-M	'P1'
_symmetry_Int_Tables_number	1
_symmetry_cell_setting	triclinic
loop_
_symmetry_equiv_pos_as_xyz
  x,y,z
_cell_length_a	16.2792
_cell_length_b	16.2792
_cell_length_c	16.2792
_cell_angle_alpha	90
_cell_angle_beta	90
_cell_angle_gamma	90
loop_
_atom_site_label
_atom_site_type_symbol
_atom_site_fract_x
_atom_site_fract_y
_atom_site_fract_z
_atom_site_charge
Mof_H 	H 	0.4194	0.2457	0.5928	-0.001
Mof_H 	H 	0.0806	0.2543	0.5928	-0.007
Mof_H 	H 	0.0806	0.2457	0.9072	-0.003
Mof_H 	H 	0.4194	0.2543	0.9072	0.007
Mof_H 	H 	0.5928	0.4194	0.2457	-0.001
Mof_H 	H 	0.5928	0.0806	0.2543	-0.007
Mof_H 	H 	0.9072	0.0806	0.2457	-0.003
Mof_H 	H 	0.9072	0.4194	0.2543	0.007
Mof_H 	H 	0.2457	0.5928	0.4194	-0.001
Mof_H 	H 	0.2543	0.5928	0.0806	-0.006
Mof_H 	H 	0.2457	0.9072	0.0806	-0.002
Mof_H 	H 	0.2543	0.9072	0.4194	0.008
Mof_H 	H 	0.7457	0.9194	0.4072	0.017
Mof_H 	H 	0.7543	0.5806	0.4072	0.005
Mof_H 	H 	0.7457	0.5806	0.0928	-0.002
Mof_H 	H 	0.7543	0.9194	0.0928	0.013
Mof_H 	H 	0.9194	0.0928	0.7543	0.013
Mof_H 	H 	0.5806	0.0928	0.7457	-0.002
Mof_H 	H 	0.5806	0.4072	0.7543	0.005
Mof_H 	H 	0.9194	0.4072	0.7457	0.017
Mof_H 	H 	0.0928	0.7457	0.5806	-0.002
Mof_H 	H 	0.0928	0.7543	0.9194	0.013
Mof_H 	H 	0.4072	0.7457	0.9194	0.017
Mof_H 	H 	0.4072	0.7543	0.5806	0.005
Mof_H 	H 	0.5806	0.7543	0.4072	0.005
Mof_H 	H 	0.9194	0.7457	0.4072	0.017
Mof_H 	H 	0.9194	0.7543	0.0928	0.013
Mof_H 	H 	0.5806	0.7457	0.0928	-0.002
Mof_H 	H 	0.4072	0.5806	0.7543	0.005
Mof_H 	H 	0.4072	0.9194	0.7457	0.017
Mof_H 	H 	0.0928	0.9194	0.7543	0.013
Mof_H 	H 	0.0928	0.5806	0.7457	-0.002
Mof_H 	H 	0.7543	0.4072	0.5806	0.005
Mof_H 	H 	0.7457	0.4072	0.9194	0.017
Mof_H 	H 	0.7543	0.0928	0.9194	0.013
Mof_H 	H 	0.7457	0.0928	0.5806	-0.002
Mof_H 	H 	0.2543	0.0806	0.5928	-0.006
Mof_H 	H 	0.2457	0.4194	0.5928	-0
Mof_H 	H 	0.2543	0.4194	0.9072	0.008
Mof_H 	H 	0.2457	0.0806	0.9072	-0.002
Mof_H 	H 	0.0806	0.9072	0.2457	-0.002
Mof_H 	H 	0.4194	0.9072	0.2543	0.008
Mof_H 	H 	0.4194	0.5928	0.2457	-0
Mof_H 	H 	0.0806	0.5928	0.2543	-0.006
Mof_H 	H 	0.9072	0.2543	0.4194	0.008
Mof_H 	H 	0.9072	0.2457	0.0806	-0.002
Mof_H 	H 	0.5928	0.2543	0.0806	-0.006
Mof_H 	H 	0.5928	0.2457	0.4194	-0
Mof_H 	H 	0.31116	0.31116	0.52856	0.083
Mof_H 	H 	0.18884	0.18884	0.52856	0.078
Mof_H 	H 	0.18884	0.31116	0.97144	0.091
Mof_H 	H 	0.31116	0.18884	0.97144	0.091
Mof_H 	H 	0.52856	0.31116	0.31116	0.083
Mof_H 	H 	0.52856	0.18884	0.18884	0.078
Mof_H 	H 	0.97144	0.18884	0.31116	0.091
Mof_H 	H 	0.97144	0.31116	0.18884	0.091
Mof_H 	H 	0.31116	0.52856	0.31116	0.083
Mof_H 	H 	0.18884	0.52856	0.18884	0.078
Mof_H 	H 	0.31116	0.97144	0.18884	0.091
Mof_H 	H 	0.18884	0.97144	0.31116	0.091
Mof_H 	H 	0.81116	0.81116	0.47144	0.096
Mof_H 	H 	0.68884	0.68884	0.47144	0.092
Mof_H 	H 	0.81116	0.68884	0.02856	0.083
Mof_H 	H 	0.68884	0.81116	0.02856	0.083
Mof_H 	H 	0.81116	0.02856	0.68884	0.083
Mof_H 	H 	0.68884	0.02856	0.81116	0.083
Mof_H 	H 	0.68884	0.47144	0.68884	0.092
Mof_H 	H 	0.81116	0.47144	0.81116	0.096
Mof_H 	H 	0.02856	0.81116	0.68884	0.083
Mof_H 	H 	0.02856	0.68884	0.81116	0.083
Mof_H 	H 	0.47144	0.81116	0.81116	0.096
Mof_H 	H 	0.47144	0.68884	0.68884	0.092
Mof_Pd	Pd	0.5	0.25	0.75	0.614
Mof_Pd	Pd	-3.03924e-33	0.25	0.75	0.551
Mof_Pd	Pd	0.75	0.5	0.25	0.614
Mof_Pd	Pd	0.75	0	0.25	0.551
Mof_Pd	Pd	0.25	0.75	0.5	0.614
Mof_Pd	Pd	0.25	0.75	-0	0.551
Mof_Pd	Pd	0.5	0.75	0.25	0.614
Mof_Pd	Pd	9.3735e-34	0.75	0.25	0.551
Mof_Pd	Pd	0.25	0.5	0.75	0.614
Mof_Pd	Pd	0.25	0	0.75	0.551
Mof_Pd	Pd	0.75	0.25	0.5	0.614
Mof_Pd	Pd	0.75	0.25	-0	0.551
Mof_C 	C 	0.39253	0.29033	0.61911	0.107
Mof_C 	C 	0.10747	0.20967	0.61911	0.099
Mof_C 	C 	0.10747	0.29033	0.88089	0.105
Mof_C 	C 	0.39253	0.20967	0.88089	0.107
Mof_C 	C 	0.61911	0.39253	0.29033	0.107
Mof_C 	C 	0.61911	0.10747	0.20967	0.099
Mof_C 	C 	0.88089	0.10747	0.29033	0.105
Mof_C 	C 	0.88089	0.39253	0.20967	0.107
Mof_C 	C 	0.29033	0.61911	0.39253	0.107
Mof_C 	C 	0.20967	0.61911	0.10747	0.099
Mof_C 	C 	0.29033	0.88089	0.10747	0.105
Mof_C 	C 	0.20967	0.88089	0.39253	0.107
Mof_C 	C 	0.79033	0.89253	0.38089	0.112
Mof_C 	C 	0.70967	0.60747	0.38089	0.108
Mof_C 	C 	0.79033	0.60747	0.11911	0.106
Mof_C 	C 	0.70967	0.89253	0.11911	0.107
Mof_C 	C 	0.89253	0.11911	0.70967	0.107
Mof_C 	C 	0.60747	0.11911	0.79033	0.106
Mof_C 	C 	0.60747	0.38089	0.70967	0.108
Mof_C 	C 	0.89253	0.38089	0.79033	0.112
Mof_C 	C 	0.11911	0.79033	0.60747	0.106
Mof_C 	C 	0.11911	0.70967	0.89253	0.107
Mof_C 	C 	0.38089	0.79033	0.89253	0.112
Mof_C 	C 	0.38089	0.70967	0.60747	0.108
Mof_C 	C 	0.60747	0.70967	0.38089	0.108
Mof_C 	C 	0.89253	0.79033	0.38089	0.112
Mof_C 	C 	0.89253	0.70967	0.11911	0.107
Mof_C 	C 	0.60747	0.79033	0.11911	0.106
Mof_C 	C 	0.38089	0.60747	0.70967	0.108
Mof_C 	C 	0.38089	0.89253	0.79033	0.112
Mof_C 	C 	0.11911	0.89253	0.70967	0.107
Mof_C 	C 	0.11911	0.60747	0.79033	0.106
Mof_C 	C 	0.70967	0.38089	0.60747	0.108
Mof_C 	C 	0.79033	0.38089	0.89253	0.112
Mof_C 	C 	0.70967	0.11911	0.89253	0.107
Mof_C 	C 	0.79033	0.11911	0.60747	0.106
Mof_C 	C 	0.20967	0.10747	0.61911	0.099
Mof_C 	C 	0.29033	0.39253	0.61911	0.107
Mof_C 	C 	0.20967	0.39253	0.88089	0.107
Mof_C 	C 	0.29033	0.10747	0.88089	0.105
Mof_C 	C 	0.10747	0.88089	0.29033	0.105
Mof_C 	C 	0.39253	0.88089	0.20967	0.107
Mof_C 	C 	0.39253	0.61911	0.29033	0.107
Mof_C 	C 	0.10747	0.61911	0.20967	0.099
Mof_C 	C 	0.88089	0.20967	0.39253	0.107
Mof_C 	C 	0.88089	0.29033	0.10747	0.105
Mof_C 	C 	0.61911	0.20967	0.10747	0.099
Mof_C 	C 	0.61911	0.29033	0.39253	0.107
Mof_C 	C 	0.37944	0.37944	0.73227	0.269
Mof_C 	C 	0.32884	0.32884	0.58129	-0.171
Mof_C 	C 	0.12056	0.12056	0.73227	0.263
Mof_C 	C 	0.17116	0.17116	0.58129	-0.173
Mof_C 	C 	0.12056	0.37944	0.76773	0.269
Mof_C 	C 	0.17116	0.32884	0.91871	-0.17
Mof_C 	C 	0.37944	0.12056	0.76773	0.269
Mof_C 	C 	0.32884	0.17116	0.91871	-0.17
Mof_C 	C 	0.73227	0.37944	0.37944	0.269
Mof_C 	C 	0.58129	0.32884	0.32884	-0.171
Mof_C 	C 	0.73227	0.12056	0.12056	0.263
Mof_C 	C 	0.58129	0.17116	0.17116	-0.173
Mof_C 	C 	0.76773	0.12056	0.37944	0.269
Mof_C 	C 	0.91871	0.17116	0.32884	-0.17
Mof_C 	C 	0.76773	0.37944	0.12056	0.269
Mof_C 	C 	0.91871	0.32884	0.17116	-0.17
Mof_C 	C 	0.37944	0.73227	0.37944	0.269
Mof_C 	C 	0.32884	0.58129	0.32884	-0.171
Mof_C 	C 	0.12056	0.73227	0.12056	0.263
Mof_C 	C 	0.17116	0.58129	0.17116	-0.173
Mof_C 	C 	0.37944	0.76773	0.12056	0.269
Mof_C 	C 	0.32884	0.91871	0.17116	-0.17
Mof_C 	C 	0.12056	0.76773	0.37944	0.269
Mof_C 	C 	0.17116	0.91871	0.32884	-0.17
Mof_C 	C 	0.87944	0.87944	0.26773	0.275
Mof_C 	C 	0.82884	0.82884	0.41871	-0.163
Mof_C 	C 	0.62056	0.62056	0.26773	0.271
Mof_C 	C 	0.67116	0.67116	0.41871	-0.17
Mof_C 	C 	0.87944	0.62056	0.23227	0.27
Mof_C 	C 	0.82884	0.67116	0.08129	-0.168
Mof_C 	C 	0.62056	0.87944	0.23227	0.27
Mof_C 	C 	0.67116	0.82884	0.08129	-0.168
Mof_C 	C 	0.87944	0.23227	0.62056	0.27
Mof_C 	C 	0.82884	0.08129	0.67116	-0.168
Mof_C 	C 	0.62056	0.23227	0.87944	0.27
Mof_C 	C 	0.67116	0.08129	0.82884	-0.168
Mof_C 	C 	0.62056	0.26773	0.62056	0.271
Mof_C 	C 	0.67116	0.41871	0.67116	-0.17
Mof_C 	C 	0.87944	0.26773	0.87944	0.275
Mof_C 	C 	0.82884	0.41871	0.82884	-0.163
Mof_C 	C 	0.23227	0.87944	0.62056	0.27
Mof_C 	C 	0.08129	0.82884	0.67116	-0.168
Mof_C 	C 	0.23227	0.62056	0.87944	0.27
Mof_C 	C 	0.08129	0.67116	0.82884	-0.168
Mof_C 	C 	0.26773	0.87944	0.87944	0.275
Mof_C 	C 	0.41871	0.82884	0.82884	-0.163
Mof_C 	C 	0.26773	0.62056	0.62056	0.271
Mof_C 	C 	0.41871	0.67116	0.67116	-0.17
Mof_N 	N 	0.41809	0.31561	0.69445	-0.226
Mof_N 	N 	0.08191	0.18439	0.69445	-0.227
Mof_N 	N 	0.08191	0.31561	0.80555	-0.226
Mof_N 	N 	0.41809	0.18439	0.80555	-0.227
Mof_N 	N 	0.69445	0.41809	0.31561	-0.226
Mof_N 	N 	0.69445	0.08191	0.18439	-0.227
Mof_N 	N 	0.80555	0.08191	0.31561	-0.226
Mof_N 	N 	0.80555	0.41809	0.18439	-0.227
Mof_N 	N 	0.31561	0.69445	0.41809	-0.226
Mof_N 	N 	0.18439	0.69445	0.08191	-0.227
Mof_N 	N 	0.31561	0.80555	0.08191	-0.226
Mof_N 	N 	0.18439	0.80555	0.41809	-0.227
Mof_N 	N 	0.81561	0.91809	0.30555	-0.207
Mof_N 	N 	0.68439	0.58191	0.30555	-0.227
Mof_N 	N 	0.81561	0.58191	0.19445	-0.226
Mof_N 	N 	0.68439	0.91809	0.19445	-0.208
Mof_N 	N 	0.91809	0.19445	0.68439	-0.208
Mof_N 	N 	0.58191	0.19445	0.81561	-0.226
Mof_N 	N 	0.58191	0.30555	0.68439	-0.227
Mof_N 	N 	0.91809	0.30555	0.81561	-0.207
Mof_N 	N 	0.19445	0.81561	0.58191	-0.226
Mof_N 	N 	0.19445	0.68439	0.91809	-0.208
Mof_N 	N 	0.30555	0.81561	0.91809	-0.207
Mof_N 	N 	0.30555	0.68439	0.58191	-0.227
Mof_N 	N 	0.58191	0.68439	0.30555	-0.227
Mof_N 	N 	0.91809	0.81561	0.30555	-0.207
Mof_N 	N 	0.91809	0.68439	0.19445	-0.208
Mof_N 	N 	0.58191	0.81561	0.19445	-0.226
Mof_N 	N 	0.30555	0.58191	0.68439	-0.227
Mof_N 	N 	0.30555	0.91809	0.81561	-0.207
Mof_N 	N 	0.19445	0.91809	0.68439	-0.208
Mof_N 	N 	0.19445	0.58191	0.81561	-0.226
Mof_N 	N 	0.68439	0.30555	0.58191	-0.227
Mof_N 	N 	0.81561	0.30555	0.91809	-0.207
Mof_N 	N 	0.68439	0.19445	0.91809	-0.208
Mof_N 	N 	0.81561	0.19445	0.58191	-0.226
Mof_N 	N 	0.18439	0.08191	0.69445	-0.227
Mof_N 	N 	0.31561	0.41809	0.69445	-0.226
Mof_N 	N 	0.18439	0.41809	0.80555	-0.227
Mof_N 	N 	0.31561	0.08191	0.80555	-0.226
Mof_N 	N 	0.08191	0.80555	0.31561	-0.226
Mof_N 	N 	0.41809	0.80555	0.18439	-0.227
Mof_N 	N 	0.41809	0.69445	0.31561	-0.226
Mof_N 	N 	0.08191	0.69445	0.18439	-0.227
Mof_N 	N 	0.80555	0.18439	0.41809	-0.227
Mof_N 	N 	0.80555	0.31561	0.08191	-0.226
Mof_N 	N 	0.69445	0.18439	0.08191	-0.227
Mof_N 	N 	0.69445	0.31561	0.41809	-0.226
Mof_O 	O 	0.4027	0.4027	0.80165	-0.255
Mof_O 	O 	0.0973	0.0973	0.80165	-0.272
Mof_O 	O 	0.0973	0.4027	0.69835	-0.268
Mof_O 	O 	0.4027	0.0973	0.69835	-0.268
Mof_O 	O 	0.80165	0.4027	0.4027	-0.255
Mof_O 	O 	0.80165	0.0973	0.0973	-0.272
Mof_O 	O 	0.69835	0.0973	0.4027	-0.268
Mof_O 	O 	0.69835	0.4027	0.0973	-0.268
Mof_O 	O 	0.4027	0.80165	0.4027	-0.255
Mof_O 	O 	0.0973	0.80165	0.0973	-0.272
Mof_O 	O 	0.4027	0.69835	0.0973	-0.268
Mof_O 	O 	0.0973	0.69835	0.4027	-0.268
Mof_O 	O 	0.9027	0.9027	0.19835	-0.233
Mof_O 	O 	0.5973	0.5973	0.19835	-0.263
Mof_O 	O 	0.9027	0.5973	0.30165	-0.244
Mof_O 	O 	0.5973	0.9027	0.30165	-0.244
Mof_O 	O 	0.9027	0.30165	0.5973	-0.244
Mof_O 	O 	0.5973	0.30165	0.9027	-0.244
Mof_O 	O 	0.5973	0.19835	0.5973	-0.263
Mof_O 	O 	0.9027	0.19835	0.9027	-0.233
Mof_O 	O 	0.30165	0.9027	0.5973	-0.244
Mof_O 	O 	0.30165	0.5973	0.9027	-0.244
Mof_O 	O 	0.19835	0.9027	0.9027	-0.233
Mof_O 	O 	0.19835	0.5973	0.5973	-0.263
_end
