data_functionalizedCrystal
_audit_creation_method	'EQeq! by Chris Wilmer'
_symmetry_space_group_name_H-M	'P1'
_symmetry_Int_Tables_number	1
_symmetry_cell_setting	triclinic
loop_
_symmetry_equiv_pos_as_xyz
  x,y,z
_cell_length_a	10.833
_cell_length_b	13.245
_cell_length_c	14.298
_cell_angle_alpha	90
_cell_angle_beta	90
_cell_angle_gamma	90.193
loop_
_atom_site_label
_atom_site_type_symbol
_atom_site_fract_x
_atom_site_fract_y
_atom_site_fract_z
_atom_site_charge
Mof_Tb	Tb	0.2444	0.71439	0.78203	2.369
Mof_Tb	Tb	0.49448	0.86768	0.63836	1.983
Mof_Tb	Tb	0.2556	0.78561	0.28203	2.368
Mof_Tb	Tb	0.00552	0.63232	0.13836	1.976
Mof_Tb	Tb	0.7556	0.28561	0.21797	2.37
Mof_Tb	Tb	0.50552	0.13232	0.36164	1.984
Mof_Tb	Tb	0.7444	0.21439	0.71797	2.369
Mof_Tb	Tb	0.99448	0.36768	0.86164	1.977
Mof_H 	H 	0.9407	0.9171	0.6347	0.025
Mof_H 	H 	0.1219	0.6335	0.5457	0.029
Mof_H 	H 	0.964	0.9335	0.8537	0.034
Mof_H 	H 	0.5593	0.5829	0.1347	0.027
Mof_H 	H 	0.3781	0.8665	0.0457	0.03
Mof_H 	H 	0.536	0.5665	0.3537	0.036
Mof_H 	H 	0.0593	0.0829	0.3653	0.025
Mof_H 	H 	0.8781	0.3665	0.4543	0.029
Mof_H 	H 	0.036	0.0665	0.1463	0.034
Mof_H 	H 	0.4407	0.4171	0.8653	0.027
Mof_H 	H 	0.6219	0.1335	0.9543	0.03
Mof_H 	H 	0.464	0.4335	0.6463	0.036
Mof_C 	C 	0.1808	0.8857	0.6108	0.47
Mof_C 	C 	0.2538	0.9955	0.4336	0.472
Mof_C 	C 	0.0883	0.945	0.5529	-0.094
Mof_C 	C 	0.965	0.9504	0.5805	0.044
Mof_C 	C 	0.1234	0.996	0.4704	-0.106
Mof_C 	C 	0.0881	0.5211	0.6899	0.493
Mof_C 	C 	0.9138	0.346	0.6298	0.351
Mof_C 	C 	0.041	0.5056	0.5921	-0.118
Mof_C 	C 	0.9633	0.4269	0.5667	-0.067
Mof_C 	C 	0.0738	0.579	0.5266	0.03
Mof_C 	C 	0.0421	0.7894	0.9537	0.535
Mof_C 	C 	0.0935	0.8788	0.1531	0.324
Mof_C 	C 	0.0231	0.8973	0.9833	-0.132
Mof_C 	C 	0.0457	0.9375	0.0721	-0.077
Mof_C 	C 	0.9783	0.9605	0.9127	0.029
Mof_C 	C 	0.3192	0.6143	0.1108	0.469
Mof_C 	C 	0.2462	0.5045	0.9336	0.473
Mof_C 	C 	0.4117	0.555	0.0529	-0.092
Mof_C 	C 	0.535	0.5496	0.0805	0.034
Mof_C 	C 	0.3766	0.504	0.9704	-0.101
Mof_C 	C 	0.4119	0.9789	0.1899	0.49
Mof_C 	C 	0.5862	0.154	0.1298	0.349
Mof_C 	C 	0.459	0.9944	0.0921	-0.122
Mof_C 	C 	0.5367	0.0731	0.0667	-0.061
Mof_C 	C 	0.4262	0.921	0.0266	0.025
Mof_C 	C 	0.4579	0.7106	0.4537	0.533
Mof_C 	C 	0.4065	0.6212	0.6531	0.321
Mof_C 	C 	0.4769	0.6027	0.4833	-0.137
Mof_C 	C 	0.4543	0.5625	0.5721	-0.064
Mof_C 	C 	0.5217	0.5395	0.4127	0.021
Mof_C 	C 	0.8192	0.1143	0.3892	0.47
Mof_C 	C 	0.7462	0.0045	0.5664	0.472
Mof_C 	C 	0.9117	0.055	0.4471	-0.094
Mof_C 	C 	0.035	0.0496	0.4195	0.044
Mof_C 	C 	0.8766	0.004	0.5296	-0.106
Mof_C 	C 	0.9119	0.4789	0.3101	0.493
Mof_C 	C 	0.0862	0.654	0.3702	0.351
Mof_C 	C 	0.959	0.4944	0.4079	-0.118
Mof_C 	C 	0.0367	0.5731	0.4333	-0.067
Mof_C 	C 	0.9262	0.421	0.4734	0.03
Mof_C 	C 	0.9579	0.2106	0.0463	0.535
Mof_C 	C 	0.9065	0.1212	0.8469	0.324
Mof_C 	C 	0.9769	0.1027	0.0167	-0.132
Mof_C 	C 	0.9543	0.0625	0.9279	-0.077
Mof_C 	C 	0.0217	0.0395	0.0873	0.029
Mof_C 	C 	0.6808	0.3857	0.8892	0.469
Mof_C 	C 	0.7538	0.4955	0.0664	0.473
Mof_C 	C 	0.5883	0.445	0.9471	-0.092
Mof_C 	C 	0.465	0.4504	0.9195	0.034
Mof_C 	C 	0.6234	0.496	0.0296	-0.101
Mof_C 	C 	0.5881	0.0211	0.8101	0.49
Mof_C 	C 	0.4138	0.846	0.8702	0.349
Mof_C 	C 	0.541	0.0056	0.9079	-0.122
Mof_C 	C 	0.4633	0.9269	0.9333	-0.061
Mof_C 	C 	0.5738	0.079	0.9734	0.025
Mof_C 	C 	0.5421	0.2894	0.5463	0.533
Mof_C 	C 	0.5935	0.3788	0.3469	0.321
Mof_C 	C 	0.5231	0.3973	0.5167	-0.137
Mof_C 	C 	0.5457	0.4375	0.4279	-0.064
Mof_C 	C 	0.4783	0.4605	0.5873	0.021
Mof_O 	O 	0.2925	0.9056	0.5939	-0.54
Mof_O 	O 	0.143	0.8295	0.6753	-0.512
Mof_O 	O 	0.2869	0.9148	0.3913	-0.54
Mof_O 	O 	0.32	0.0722	0.4407	-0.511
Mof_O 	O 	0.1091	0.6116	0.712	-0.592
Mof_O 	O 	0.1083	0.445	0.7399	-0.54
Mof_O 	O 	0.8925	0.2609	0.5978	-0.487
Mof_O 	O 	0.8807	0.3667	0.7149	-0.632
Mof_O 	O 	0.992	0.718	0.9964	-0.55
Mof_O 	O 	0.1019	0.7788	0.879	-0.595
Mof_O 	O 	0.1334	0.7875	0.1395	-0.625
Mof_O 	O 	0.1127	0.9203	0.2296	-0.465
Mof_O 	O 	0.2075	0.5944	0.0939	-0.54
Mof_O 	O 	0.357	0.6705	0.1753	-0.512
Mof_O 	O 	0.2131	0.5852	0.8913	-0.539
Mof_O 	O 	0.18	0.4278	0.9407	-0.511
Mof_O 	O 	0.3909	0.8884	0.212	-0.592
Mof_O 	O 	0.3917	0.055	0.2399	-0.54
Mof_O 	O 	0.6075	0.2391	0.0978	-0.486
Mof_O 	O 	0.6193	0.1333	0.2149	-0.632
Mof_O 	O 	0.508	0.782	0.4964	-0.549
Mof_O 	O 	0.3981	0.7212	0.379	-0.595
Mof_O 	O 	0.3666	0.7125	0.6395	-0.624
Mof_O 	O 	0.3873	0.5797	0.7296	-0.462
Mof_O 	O 	0.7075	0.0944	0.4061	-0.54
Mof_O 	O 	0.857	0.1705	0.3247	-0.512
Mof_O 	O 	0.7131	0.0852	0.6087	-0.54
Mof_O 	O 	0.68	0.9278	0.5593	-0.511
Mof_O 	O 	0.8909	0.3884	0.288	-0.592
Mof_O 	O 	0.8917	0.555	0.2601	-0.54
Mof_O 	O 	0.1075	0.7391	0.4022	-0.487
Mof_O 	O 	0.1193	0.6333	0.2851	-0.632
Mof_O 	O 	0.008	0.282	0.0036	-0.55
Mof_O 	O 	0.8981	0.2212	0.121	-0.595
Mof_O 	O 	0.8666	0.2125	0.8605	-0.625
Mof_O 	O 	0.8873	0.0797	0.7704	-0.465
Mof_O 	O 	0.7925	0.4056	0.9061	-0.54
Mof_O 	O 	0.643	0.3295	0.8247	-0.512
Mof_O 	O 	0.7869	0.4148	0.1087	-0.539
Mof_O 	O 	0.82	0.5722	0.0593	-0.511
Mof_O 	O 	0.6091	0.1116	0.788	-0.592
Mof_O 	O 	0.6083	0.945	0.7601	-0.54
Mof_O 	O 	0.3925	0.7609	0.9022	-0.486
Mof_O 	O 	0.3807	0.8667	0.7851	-0.632
Mof_O 	O 	0.492	0.218	0.5036	-0.549
Mof_O 	O 	0.6019	0.2788	0.621	-0.595
Mof_O 	O 	0.6334	0.2875	0.3605	-0.624
Mof_O 	O 	0.6127	0.4203	0.2704	-0.462
_end
