data_functionalizedCrystal
_audit_creation_method	'EQeq! by Chris Wilmer'
_symmetry_space_group_name_H-M	'P1'
_symmetry_Int_Tables_number	1
_symmetry_cell_setting	triclinic
loop_
_symmetry_equiv_pos_as_xyz
  x,y,z
_cell_length_a	10.0117
_cell_length_b	11.3457
_cell_length_c	14.82
_cell_angle_alpha	91.372
_cell_angle_beta	90
_cell_angle_gamma	90
loop_
_atom_site_label
_atom_site_type_symbol
_atom_site_fract_x
_atom_site_fract_y
_atom_site_fract_z
_atom_site_charge
Mof_Co	Co	0.57237	0.75491	0.63408	1.196
Mof_Co	Co	0.37737	0.73945	0.80462	1.206
Mof_Co	Co	0.07237	0.74509	0.86592	1.148
Mof_Co	Co	0.87737	0.76055	0.69538	1.227
Mof_Co	Co	0.42763	0.24509	0.36592	1.191
Mof_Co	Co	0.62263	0.26055	0.19538	1.202
Mof_Co	Co	0.92763	0.25491	0.13408	1.244
Mof_Co	Co	0.12263	0.23945	0.30462	1.18
Mof_Co	Co	0.5	0.5	0.5	1.212
Mof_Co	Co	-0	0	-0	1.084
Mof_Co	Co	0.5	2.11104e-18	0.5	1.188
Mof_Co	Co	-0	0.5	-0	1.117
Mof_H 	H 	0.3509	0.6965	0.4269	-0.115
Mof_H 	H 	0.4477	0.4772	0.7566	-0.11
Mof_H 	H 	0.8714	0.559	0.5511	-0.072
Mof_H 	H 	0.2792	0.964	0.7125	-0.169
Mof_H 	H 	0.783	0.0028	0.5317	-0.168
Mof_H 	H 	0.7252	0.8466	0.8701	-0.081
Mof_H 	H 	0.8509	0.8035	0.0731	-0.026
Mof_H 	H 	0.9477	0.0228	0.7434	-0.183
Mof_H 	H 	0.3714	0.941	0.9489	-0.058
Mof_H 	H 	0.7792	0.536	0.7875	-0.109
Mof_H 	H 	0.283	0.4972	0.9683	-0.071
Mof_H 	H 	0.2252	0.6534	0.6299	-0.128
Mof_H 	H 	0.6491	0.3035	0.5731	-0.106
Mof_H 	H 	0.5523	0.5228	0.2434	-0.115
Mof_H 	H 	0.1286	0.441	0.4489	-0.144
Mof_H 	H 	0.7208	0.036	0.2875	-0.091
Mof_H 	H 	0.217	0.9972	0.4683	-0.029
Mof_H 	H 	0.2748	0.1534	0.1299	-0.151
Mof_H 	H 	0.1491	0.1965	0.9269	-0.185
Mof_H 	H 	0.0523	0.9772	0.2566	-0.005
Mof_H 	H 	0.6286	0.059	0.0511	-0.154
Mof_H 	H 	0.2208	0.464	0.2125	-0.148
Mof_H 	H 	0.717	0.5028	0.0317	-0.128
Mof_H 	H 	0.7748	0.3466	0.3701	-0.105
Mof_C 	C 	0.405	0.7414	0.4655	0.514
Mof_C 	C 	0.4721	0.5179	0.7054	0.521
Mof_C 	C 	0.7809	0.5763	0.5561	0.5
Mof_C 	C 	0.3488	0.9417	0.6742	0.641
Mof_C 	C 	0.7665	0.9376	0.567	0.62
Mof_C 	C 	0.6574	0.8212	0.8314	0.491
Mof_C 	C 	0.905	0.7586	0.0345	0.307
Mof_C 	C 	0.9721	0.9821	0.7946	0.699
Mof_C 	C 	0.2809	0.9237	0.9439	0.472
Mof_C 	C 	0.8488	0.5583	0.8258	0.499
Mof_C 	C 	0.2665	0.5624	0.933	0.5
Mof_C 	C 	0.1574	0.6788	0.6686	0.511
Mof_C 	C 	0.595	0.2586	0.5345	0.521
Mof_C 	C 	0.5279	0.4821	0.2946	0.525
Mof_C 	C 	0.2191	0.4237	0.4439	0.518
Mof_C 	C 	0.6512	0.0583	0.3258	0.405
Mof_C 	C 	0.2335	0.0624	0.433	0.375
Mof_C 	C 	0.3426	0.1788	0.1686	0.505
Mof_C 	C 	0.095	0.2414	0.9655	0.715
Mof_C 	C 	0.0279	0.0179	0.2054	0.268
Mof_C 	C 	0.7191	0.0763	0.0561	0.531
Mof_C 	C 	0.1512	0.4417	0.1742	0.538
Mof_C 	C 	0.7335	0.4376	0.067	0.501
Mof_C 	C 	0.8426	0.3212	0.3314	0.486
Mof_O 	O 	0.4735	0.6857	0.5229	-0.555
Mof_O 	O 	0.4033	0.8482	0.4561	-0.432
Mof_O 	O 	0.4901	0.4587	0.6362	-0.444
Mof_O 	O 	0.4833	0.6284	0.7146	-0.562
Mof_O 	O 	0.7051	0.5187	0.5067	-0.425
Mof_O 	O 	0.749	0.6568	0.6132	-0.545
Mof_O 	O 	0.3723	0.0066	0.6108	-0.532
Mof_O 	O 	0.41	0.8476	0.6924	-0.591
Mof_O 	O 	0.6475	0.9016	0.5688	-0.565
Mof_O 	O 	0.8638	0.8964	0.6066	-0.419
Mof_O 	O 	0.6884	0.8051	0.7488	-0.544
Mof_O 	O 	0.546	0.8064	0.8653	-0.405
Mof_O 	O 	0.9735	0.8143	0.9771	-0.345
Mof_O 	O 	0.9033	0.6518	0.0439	-0.375
Mof_O 	O 	0.9901	0.0413	0.8638	-0.428
Mof_O 	O 	0.9833	0.8716	0.7854	-0.548
Mof_O 	O 	0.2051	0.9813	0.9933	-0.351
Mof_O 	O 	0.249	0.8432	0.8868	-0.552
Mof_O 	O 	0.8723	0.4934	0.8892	-0.344
Mof_O 	O 	0.91	0.6524	0.8076	-0.506
Mof_O 	O 	0.1475	0.5984	0.9312	-0.551
Mof_O 	O 	0.3638	0.6036	0.8934	-0.418
Mof_O 	O 	0.1884	0.6949	0.7512	-0.581
Mof_O 	O 	0.046	0.6936	0.6347	-0.507
Mof_O 	O 	0.5265	0.3143	0.4771	-0.56
Mof_O 	O 	0.5967	0.1518	0.5439	-0.455
Mof_O 	O 	0.5099	0.5413	0.3638	-0.442
Mof_O 	O 	0.5167	0.3716	0.2854	-0.567
Mof_O 	O 	0.2949	0.4813	0.4933	-0.452
Mof_O 	O 	0.251	0.3432	0.3868	-0.575
Mof_O 	O 	0.6277	0.9934	0.3892	-0.343
Mof_O 	O 	0.59	0.1524	0.3076	-0.541
Mof_O 	O 	0.3525	0.0984	0.4312	-0.542
Mof_O 	O 	0.1362	0.1036	0.3934	-0.455
Mof_O 	O 	0.3116	0.1949	0.2512	-0.566
Mof_O 	O 	0.454	0.1936	0.1347	-0.468
Mof_O 	O 	0.0265	0.1857	0.0229	-0.737
Mof_O 	O 	0.0967	0.3482	0.9561	-0.488
Mof_O 	O 	0.0099	0.9587	0.1362	-0.384
Mof_O 	O 	0.0167	0.1284	0.2146	-0.559
Mof_O 	O 	0.7949	0.0187	0.0067	-0.484
Mof_O 	O 	0.751	0.1568	0.1132	-0.558
Mof_O 	O 	0.1277	0.5066	0.1108	-0.505
Mof_O 	O 	0.09	0.3476	0.1924	-0.622
Mof_O 	O 	0.8525	0.4016	0.0688	-0.536
Mof_O 	O 	0.6362	0.3964	0.1066	-0.452
Mof_O 	O 	0.8116	0.3051	0.2488	-0.529
Mof_O 	O 	0.954	0.3064	0.3653	-0.362
_end
