# CIF file generated by openbabel 3.1.0, see https://openbabel.org
data_I
_chemical_name_common 'image0'
_cell_length_a 7.9878
_cell_length_b 33.9352
_cell_length_c 39.1992
_cell_angle_alpha 90
_cell_angle_beta 90
_cell_angle_gamma 90
_space_group_name_H-M_alt 'P 1'
_space_group_name_Hall 'P 1'
loop_
    _symmetry_equiv_pos_as_xyz
    x,y,z
loop_
    _atom_site_label
    _atom_site_type_symbol
    _atom_site_fract_x
    _atom_site_fract_y
    _atom_site_fract_z
    _atom_site_occupancy
    Cu1      Cu       0.20497    0.40618    0.35066    1.000
    C1       C        0.79190    0.58100    0.16421    1.000
    C2       C        0.64250    0.51880    0.18090    1.000
    H1       H        0.65900    0.50880    0.15910    1.000
    C3       C        0.55840    0.49620    0.20530    1.000
    H2       H        0.51830    0.47140    0.19960    1.000
    C4       C        0.53410    0.51090    0.23826    1.000
    C5       C        0.59750    0.54820    0.24656    1.000
    H3       H        0.58440    0.55800    0.26860    1.000
    C6       C        0.68020    0.57090    0.22200    1.000
    H4       H        0.72050    0.59580    0.22760    1.000
    C7       C        0.70190    0.55630    0.18950    1.000
    C8       C        0.30760    0.42790    0.28257    1.000
    H5       H        0.26660    0.40300    0.27730    1.000
    C9       C        0.38620    0.44900    0.25740    1.000
    H6       H        0.39950    0.43820    0.23570    1.000
    C10      C        0.44610    0.48680    0.26439    1.000
    C11      C        0.41960    0.50170    0.29750    1.000
    H7       H        0.45440    0.52710    0.30310    1.000
    C12      C        0.34180    0.47850    0.32140    1.000
    H8       H        0.32630    0.48850    0.34320    1.000
    N1       N        0.28690    0.44167    0.31451    1.000
    O1       O        0.82810    0.61582    0.17318    1.000
    O2       O        0.83040    0.56559    0.13569    1.000
    Cu2      Cu       0.20497    0.90618    0.85066    1.000
    C13      C        0.79190    0.08100    0.66421    1.000
    C14      C        0.64250    0.01880    0.68090    1.000
    H9       H        0.65900    0.00880    0.65910    1.000
    C15      C        0.55840    0.99620    0.70530    1.000
    H10      H        0.51830    0.97140    0.69960    1.000
    C16      C        0.53410    0.01090    0.73826    1.000
    C17      C        0.59750    0.04820    0.74656    1.000
    H11      H        0.58440    0.05800    0.76860    1.000
    C18      C        0.68020    0.07090    0.72200    1.000
    H12      H        0.72050    0.09580    0.72760    1.000
    C19      C        0.70190    0.05630    0.68950    1.000
    C20      C        0.30760    0.92790    0.78257    1.000
    H13      H        0.26660    0.90300    0.77730    1.000
    C21      C        0.38620    0.94900    0.75740    1.000
    H14      H        0.39950    0.93820    0.73570    1.000
    C22      C        0.44610    0.98680    0.76439    1.000
    C23      C        0.41960    0.00170    0.79750    1.000
    H15      H        0.45440    0.02710    0.80310    1.000
    C24      C        0.34180    0.97850    0.82140    1.000
    H16      H        0.32630    0.98850    0.84320    1.000
    N2       N        0.28690    0.94167    0.81451    1.000
    O3       O        0.82810    0.11582    0.67318    1.000
    O4       O        0.83040    0.06559    0.63569    1.000
    Cu3      Cu       0.70497    0.40618    0.85066    1.000
    C25      C        0.29190    0.58100    0.66421    1.000
    C26      C        0.14250    0.51880    0.68090    1.000
    H17      H        0.15900    0.50880    0.65910    1.000
    C27      C        0.05840    0.49620    0.70530    1.000
    H18      H        0.01830    0.47140    0.69960    1.000
    C28      C        0.03410    0.51090    0.73826    1.000
    C29      C        0.09750    0.54820    0.74656    1.000
    H19      H        0.08440    0.55800    0.76860    1.000
    C30      C        0.18020    0.57090    0.72200    1.000
    H20      H        0.22050    0.59580    0.72760    1.000
    C31      C        0.20190    0.55630    0.68950    1.000
    C32      C        0.80760    0.42790    0.78257    1.000
    H21      H        0.76660    0.40300    0.77730    1.000
    C33      C        0.88620    0.44900    0.75740    1.000
    H22      H        0.89950    0.43820    0.73570    1.000
    C34      C        0.94610    0.48680    0.76439    1.000
    C35      C        0.91960    0.50170    0.79750    1.000
    H23      H        0.95440    0.52710    0.80310    1.000
    C36      C        0.84180    0.47850    0.82140    1.000
    H24      H        0.82630    0.48850    0.84320    1.000
    N3       N        0.78690    0.44167    0.81451    1.000
    O5       O        0.32810    0.61582    0.67318    1.000
    O6       O        0.33040    0.56559    0.63569    1.000
    Cu4      Cu       0.70497    0.90618    0.35066    1.000
    C37      C        0.29190    0.08100    0.16421    1.000
    C38      C        0.14250    0.01880    0.18090    1.000
    H25      H        0.15900    0.00880    0.15910    1.000
    C39      C        0.05840    0.99620    0.20530    1.000
    H26      H        0.01830    0.97140    0.19960    1.000
    C40      C        0.03410    0.01090    0.23826    1.000
    C41      C        0.09750    0.04820    0.24656    1.000
    H27      H        0.08440    0.05800    0.26860    1.000
    C42      C        0.18020    0.07090    0.22200    1.000
    H28      H        0.22050    0.09580    0.22760    1.000
    C43      C        0.20190    0.05630    0.18950    1.000
    C44      C        0.80760    0.92790    0.28257    1.000
    H29      H        0.76660    0.90300    0.27730    1.000
    C45      C        0.88620    0.94900    0.25740    1.000
    H30      H        0.89950    0.93820    0.23570    1.000
    C46      C        0.94610    0.98680    0.26439    1.000
    C47      C        0.91960    0.00170    0.29750    1.000
    H31      H        0.95440    0.02710    0.30310    1.000
    C48      C        0.84180    0.97850    0.32140    1.000
    H32      H        0.82630    0.98850    0.34320    1.000
    N4       N        0.78690    0.94167    0.31451    1.000
    O7       O        0.32810    0.11582    0.17318    1.000
    O8       O        0.33040    0.06559    0.13569    1.000
    Cu5      Cu       0.54503    0.34382    0.35066    1.000
    C49      C        0.95810    0.16900    0.16421    1.000
    C50      C        0.10750    0.23120    0.18090    1.000
    H33      H        0.09100    0.24120    0.15910    1.000
    C51      C        0.19160    0.25380    0.20530    1.000
    H34      H        0.23170    0.27860    0.19960    1.000
    C52      C        0.21590    0.23910    0.23826    1.000
    C53      C        0.15250    0.20180    0.24656    1.000
    H35      H        0.16560    0.19200    0.26860    1.000
    C54      C        0.06980    0.17910    0.22200    1.000
    H36      H        0.02950    0.15420    0.22760    1.000
    C55      C        0.04810    0.19370    0.18950    1.000
    C56      C        0.44240    0.32210    0.28257    1.000
    H37      H        0.48340    0.34700    0.27730    1.000
    C57      C        0.36380    0.30100    0.25740    1.000
    H38      H        0.35050    0.31180    0.23570    1.000
    C58      C        0.30390    0.26320    0.26439    1.000
    C59      C        0.33040    0.24830    0.29750    1.000
    H39      H        0.29560    0.22290    0.30310    1.000
    C60      C        0.40820    0.27150    0.32140    1.000
    H40      H        0.42370    0.26150    0.34320    1.000
    N5       N        0.46310    0.30833    0.31451    1.000
    O9       O        0.92190    0.13418    0.17318    1.000
    O10      O        0.91960    0.18441    0.13569    1.000
    Cu6      Cu       0.54503    0.84382    0.85066    1.000
    C61      C        0.95810    0.66900    0.66421    1.000
    C62      C        0.10750    0.73120    0.68090    1.000
    H41      H        0.09100    0.74120    0.65910    1.000
    C63      C        0.19160    0.75380    0.70530    1.000
    H42      H        0.23170    0.77860    0.69960    1.000
    C64      C        0.21590    0.73910    0.73826    1.000
    C65      C        0.15250    0.70180    0.74656    1.000
    H43      H        0.16560    0.69200    0.76860    1.000
    C66      C        0.06980    0.67910    0.72200    1.000
    H44      H        0.02950    0.65420    0.72760    1.000
    C67      C        0.04810    0.69370    0.68950    1.000
    C68      C        0.44240    0.82210    0.78257    1.000
    H45      H        0.48340    0.84700    0.77730    1.000
    C69      C        0.36380    0.80100    0.75740    1.000
    H46      H        0.35050    0.81180    0.73570    1.000
    C70      C        0.30390    0.76320    0.76439    1.000
    C71      C        0.33040    0.74830    0.79750    1.000
    H47      H        0.29560    0.72290    0.80310    1.000
    C72      C        0.40820    0.77150    0.82140    1.000
    H48      H        0.42370    0.76150    0.84320    1.000
    N6       N        0.46310    0.80833    0.81451    1.000
    O11      O        0.92190    0.63418    0.67318    1.000
    O12      O        0.91960    0.68441    0.63569    1.000
    Cu7      Cu       0.04503    0.34382    0.85066    1.000
    C73      C        0.45810    0.16900    0.66421    1.000
    C74      C        0.60750    0.23120    0.68090    1.000
    H49      H        0.59100    0.24120    0.65910    1.000
    C75      C        0.69160    0.25380    0.70530    1.000
    H50      H        0.73170    0.27860    0.69960    1.000
    C76      C        0.71590    0.23910    0.73826    1.000
    C77      C        0.65250    0.20180    0.74656    1.000
    H51      H        0.66560    0.19200    0.76860    1.000
    C78      C        0.56980    0.17910    0.72200    1.000
    H52      H        0.52950    0.15420    0.72760    1.000
    C79      C        0.54810    0.19370    0.68950    1.000
    C80      C        0.94240    0.32210    0.78257    1.000
    H53      H        0.98340    0.34700    0.77730    1.000
    C81      C        0.86380    0.30100    0.75740    1.000
    H54      H        0.85050    0.31180    0.73570    1.000
    C82      C        0.80390    0.26320    0.76439    1.000
    C83      C        0.83040    0.24830    0.79750    1.000
    H55      H        0.79560    0.22290    0.80310    1.000
    C84      C        0.90820    0.27150    0.82140    1.000
    H56      H        0.92370    0.26150    0.84320    1.000
    N7       N        0.96310    0.30833    0.81451    1.000
    O13      O        0.42190    0.13418    0.67318    1.000
    O14      O        0.41960    0.18441    0.63569    1.000
    Cu8      Cu       0.04503    0.84382    0.35066    1.000
    C85      C        0.45810    0.66900    0.16421    1.000
    C86      C        0.60750    0.73120    0.18090    1.000
    H57      H        0.59100    0.74120    0.15910    1.000
    C87      C        0.69160    0.75380    0.20530    1.000
    H58      H        0.73170    0.77860    0.19960    1.000
    C88      C        0.71590    0.73910    0.23826    1.000
    C89      C        0.65250    0.70180    0.24656    1.000
    H59      H        0.66560    0.69200    0.26860    1.000
    C90      C        0.56980    0.67910    0.22200    1.000
    H60      H        0.52950    0.65420    0.22760    1.000
    C91      C        0.54810    0.69370    0.18950    1.000
    C92      C        0.94240    0.82210    0.28257    1.000
    H61      H        0.98340    0.84700    0.27730    1.000
    C93      C        0.86380    0.80100    0.25740    1.000
    H62      H        0.85050    0.81180    0.23570    1.000
    C94      C        0.80390    0.76320    0.26439    1.000
    C95      C        0.83040    0.74830    0.29750    1.000
    H63      H        0.79560    0.72290    0.30310    1.000
    C96      C        0.90820    0.77150    0.32140    1.000
    H64      H        0.92370    0.76150    0.34320    1.000
    N8       N        0.96310    0.80833    0.31451    1.000
    O15      O        0.42190    0.63418    0.17318    1.000
    O16      O        0.41960    0.68441    0.13569    1.000
    Cu9      Cu       0.54503    0.40618    0.39934    1.000
    C97      C        0.95810    0.58100    0.58579    1.000
    C98      C        0.10750    0.51880    0.56910    1.000
    H65      H        0.09100    0.50880    0.59090    1.000
    C99      C        0.19160    0.49620    0.54470    1.000
    H66      H        0.23170    0.47140    0.55040    1.000
    C100     C        0.21590    0.51090    0.51174    1.000
    C101     C        0.15250    0.54820    0.50344    1.000
    H67      H        0.16560    0.55800    0.48140    1.000
    C102     C        0.06980    0.57090    0.52800    1.000
    H68      H        0.02950    0.59580    0.52240    1.000
    C103     C        0.04810    0.55630    0.56050    1.000
    C104     C        0.44240    0.42790    0.46743    1.000
    H69      H        0.48340    0.40300    0.47270    1.000
    C105     C        0.36380    0.44900    0.49260    1.000
    H70      H        0.35050    0.43820    0.51430    1.000
    C106     C        0.30390    0.48680    0.48561    1.000
    C107     C        0.33040    0.50170    0.45250    1.000
    H71      H        0.29560    0.52710    0.44690    1.000
    C108     C        0.40820    0.47850    0.42860    1.000
    H72      H        0.42370    0.48850    0.40680    1.000
    N9       N        0.46310    0.44167    0.43549    1.000
    O17      O        0.92190    0.61582    0.57682    1.000
    O18      O        0.91960    0.56559    0.61431    1.000
    Cu10     Cu       0.54503    0.90618    0.89934    1.000
    C109     C        0.95810    0.08100    0.08579    1.000
    C110     C        0.10750    0.01880    0.06910    1.000
    H73      H        0.09100    0.00880    0.09090    1.000
    C111     C        0.19160    0.99620    0.04470    1.000
    H74      H        0.23170    0.97140    0.05040    1.000
    C112     C        0.21590    0.01090    0.01174    1.000
    C113     C        0.15250    0.04820    0.00344    1.000
    H75      H        0.16560    0.05800    0.98140    1.000
    C114     C        0.06980    0.07090    0.02800    1.000
    H76      H        0.02950    0.09580    0.02240    1.000
    C115     C        0.04810    0.05630    0.06050    1.000
    C116     C        0.44240    0.92790    0.96743    1.000
    H77      H        0.48340    0.90300    0.97270    1.000
    C117     C        0.36380    0.94900    0.99260    1.000
    H78      H        0.35050    0.93820    0.01430    1.000
    C118     C        0.30390    0.98680    0.98561    1.000
    C119     C        0.33040    0.00170    0.95250    1.000
    H79      H        0.29560    0.02710    0.94690    1.000
    C120     C        0.40820    0.97850    0.92860    1.000
    H80      H        0.42370    0.98850    0.90680    1.000
    N10      N        0.46310    0.94167    0.93549    1.000
    O19      O        0.92190    0.11582    0.07682    1.000
    O20      O        0.91960    0.06559    0.11431    1.000
    Cu11     Cu       0.04503    0.40618    0.89934    1.000
    C121     C        0.45810    0.58100    0.08579    1.000
    C122     C        0.60750    0.51880    0.06910    1.000
    H81      H        0.59100    0.50880    0.09090    1.000
    C123     C        0.69160    0.49620    0.04470    1.000
    H82      H        0.73170    0.47140    0.05040    1.000
    C124     C        0.71590    0.51090    0.01174    1.000
    C125     C        0.65250    0.54820    0.00344    1.000
    H83      H        0.66560    0.55800    0.98140    1.000
    C126     C        0.56980    0.57090    0.02800    1.000
    H84      H        0.52950    0.59580    0.02240    1.000
    C127     C        0.54810    0.55630    0.06050    1.000
    C128     C        0.94240    0.42790    0.96743    1.000
    H85      H        0.98340    0.40300    0.97270    1.000
    C129     C        0.86380    0.44900    0.99260    1.000
    H86      H        0.85050    0.43820    0.01430    1.000
    C130     C        0.80390    0.48680    0.98561    1.000
    C131     C        0.83040    0.50170    0.95250    1.000
    H87      H        0.79560    0.52710    0.94690    1.000
    C132     C        0.90820    0.47850    0.92860    1.000
    H88      H        0.92370    0.48850    0.90680    1.000
    N11      N        0.96310    0.44167    0.93549    1.000
    O21      O        0.42190    0.61582    0.07682    1.000
    O22      O        0.41960    0.56559    0.11431    1.000
    Cu12     Cu       0.04503    0.90618    0.39934    1.000
    C133     C        0.45810    0.08100    0.58579    1.000
    C134     C        0.60750    0.01880    0.56910    1.000
    H89      H        0.59100    0.00880    0.59090    1.000
    C135     C        0.69160    0.99620    0.54470    1.000
    H90      H        0.73170    0.97140    0.55040    1.000
    C136     C        0.71590    0.01090    0.51174    1.000
    C137     C        0.65250    0.04820    0.50344    1.000
    H91      H        0.66560    0.05800    0.48140    1.000
    C138     C        0.56980    0.07090    0.52800    1.000
    H92      H        0.52950    0.09580    0.52240    1.000
    C139     C        0.54810    0.05630    0.56050    1.000
    C140     C        0.94240    0.92790    0.46743    1.000
    H93      H        0.98340    0.90300    0.47270    1.000
    C141     C        0.86380    0.94900    0.49260    1.000
    H94      H        0.85050    0.93820    0.51430    1.000
    C142     C        0.80390    0.98680    0.48561    1.000
    C143     C        0.83040    0.00170    0.45250    1.000
    H95      H        0.79560    0.02710    0.44690    1.000
    C144     C        0.90820    0.97850    0.42860    1.000
    H96      H        0.92370    0.98850    0.40680    1.000
    N12      N        0.96310    0.94167    0.43549    1.000
    O23      O        0.42190    0.11582    0.57682    1.000
    O24      O        0.41960    0.06559    0.61431    1.000
    Cu13     Cu       0.20497    0.34382    0.39934    1.000
    C145     C        0.79190    0.16900    0.58579    1.000
    C146     C        0.64250    0.23120    0.56910    1.000
    H97      H        0.65900    0.24120    0.59090    1.000
    C147     C        0.55840    0.25380    0.54470    1.000
    H98      H        0.51830    0.27860    0.55040    1.000
    C148     C        0.53410    0.23910    0.51174    1.000
    C149     C        0.59750    0.20180    0.50344    1.000
    H99      H        0.58440    0.19200    0.48140    1.000
    C150     C        0.68020    0.17910    0.52800    1.000
    H100     H        0.72050    0.15420    0.52240    1.000
    C151     C        0.70190    0.19370    0.56050    1.000
    C152     C        0.30760    0.32210    0.46743    1.000
    H101     H        0.26660    0.34700    0.47270    1.000
    C153     C        0.38620    0.30100    0.49260    1.000
    H102     H        0.39950    0.31180    0.51430    1.000
    C154     C        0.44610    0.26320    0.48561    1.000
    C155     C        0.41960    0.24830    0.45250    1.000
    H103     H        0.45440    0.22290    0.44690    1.000
    C156     C        0.34180    0.27150    0.42860    1.000
    H104     H        0.32630    0.26150    0.40680    1.000
    N13      N        0.28690    0.30833    0.43549    1.000
    O25      O        0.82810    0.13418    0.57682    1.000
    O26      O        0.83040    0.18441    0.61431    1.000
    Cu14     Cu       0.20497    0.84382    0.89934    1.000
    C157     C        0.79190    0.66900    0.08579    1.000
    C158     C        0.64250    0.73120    0.06910    1.000
    H105     H        0.65900    0.74120    0.09090    1.000
    C159     C        0.55840    0.75380    0.04470    1.000
    H106     H        0.51830    0.77860    0.05040    1.000
    C160     C        0.53410    0.73910    0.01174    1.000
    C161     C        0.59750    0.70180    0.00344    1.000
    H107     H        0.58440    0.69200    0.98140    1.000
    C162     C        0.68020    0.67910    0.02800    1.000
    H108     H        0.72050    0.65420    0.02240    1.000
    C163     C        0.70190    0.69370    0.06050    1.000
    C164     C        0.30760    0.82210    0.96743    1.000
    H109     H        0.26660    0.84700    0.97270    1.000
    C165     C        0.38620    0.80100    0.99260    1.000
    H110     H        0.39950    0.81180    0.01430    1.000
    C166     C        0.44610    0.76320    0.98561    1.000
    C167     C        0.41960    0.74830    0.95250    1.000
    H111     H        0.45440    0.72290    0.94690    1.000
    C168     C        0.34180    0.77150    0.92860    1.000
    H112     H        0.32630    0.76150    0.90680    1.000
    N14      N        0.28690    0.80833    0.93549    1.000
    O27      O        0.82810    0.63418    0.07682    1.000
    O28      O        0.83040    0.68441    0.11431    1.000
    Cu15     Cu       0.70497    0.34382    0.89934    1.000
    C169     C        0.29190    0.16900    0.08579    1.000
    C170     C        0.14250    0.23120    0.06910    1.000
    H113     H        0.15900    0.24120    0.09090    1.000
    C171     C        0.05840    0.25380    0.04470    1.000
    H114     H        0.01830    0.27860    0.05040    1.000
    C172     C        0.03410    0.23910    0.01174    1.000
    C173     C        0.09750    0.20180    0.00344    1.000
    H115     H        0.08440    0.19200    0.98140    1.000
    C174     C        0.18020    0.17910    0.02800    1.000
    H116     H        0.22050    0.15420    0.02240    1.000
    C175     C        0.20190    0.19370    0.06050    1.000
    C176     C        0.80760    0.32210    0.96743    1.000
    H117     H        0.76660    0.34700    0.97270    1.000
    C177     C        0.88620    0.30100    0.99260    1.000
    H118     H        0.89950    0.31180    0.01430    1.000
    C178     C        0.94610    0.26320    0.98561    1.000
    C179     C        0.91960    0.24830    0.95250    1.000
    H119     H        0.95440    0.22290    0.94690    1.000
    C180     C        0.84180    0.27150    0.92860    1.000
    H120     H        0.82630    0.26150    0.90680    1.000
    N15      N        0.78690    0.30833    0.93549    1.000
    O29      O        0.32810    0.13418    0.07682    1.000
    O30      O        0.33040    0.18441    0.11431    1.000
    Cu16     Cu       0.70497    0.84382    0.39934    1.000
    C181     C        0.29190    0.66900    0.58579    1.000
    C182     C        0.14250    0.73120    0.56910    1.000
    H121     H        0.15900    0.74120    0.59090    1.000
    C183     C        0.05840    0.75380    0.54470    1.000
    H122     H        0.01830    0.77860    0.55040    1.000
    C184     C        0.03410    0.73910    0.51174    1.000
    C185     C        0.09750    0.70180    0.50344    1.000
    H123     H        0.08440    0.69200    0.48140    1.000
    C186     C        0.18020    0.67910    0.52800    1.000
    H124     H        0.22050    0.65420    0.52240    1.000
    C187     C        0.20190    0.69370    0.56050    1.000
    C188     C        0.80760    0.82210    0.46743    1.000
    H125     H        0.76660    0.84700    0.47270    1.000
    C189     C        0.88620    0.80100    0.49260    1.000
    H126     H        0.89950    0.81180    0.51430    1.000
    C190     C        0.94610    0.76320    0.48561    1.000
    C191     C        0.91960    0.74830    0.45250    1.000
    H127     H        0.95440    0.72290    0.44690    1.000
    C192     C        0.84180    0.77150    0.42860    1.000
    H128     H        0.82630    0.76150    0.40680    1.000
    N16      N        0.78690    0.80833    0.43549    1.000
    O31      O        0.32810    0.63418    0.57682    1.000
    O32      O        0.33040    0.68441    0.61431    1.000
    Cu17     Cu       0.79503    0.59382    0.64934    1.000
    C193     C        0.20810    0.41900    0.83579    1.000
    C194     C        0.35750    0.48120    0.81910    1.000
    H129     H        0.34100    0.49120    0.84090    1.000
    C195     C        0.44160    0.50380    0.79470    1.000
    H130     H        0.48170    0.52860    0.80040    1.000
    C196     C        0.46590    0.48910    0.76174    1.000
    C197     C        0.40250    0.45180    0.75344    1.000
    H131     H        0.41560    0.44200    0.73140    1.000
    C198     C        0.31980    0.42910    0.77800    1.000
    H132     H        0.27950    0.40420    0.77240    1.000
    C199     C        0.29810    0.44370    0.81050    1.000
    C200     C        0.69240    0.57210    0.71743    1.000
    H133     H        0.73340    0.59700    0.72270    1.000
    C201     C        0.61380    0.55100    0.74260    1.000
    H134     H        0.60050    0.56180    0.76430    1.000
    C202     C        0.55390    0.51320    0.73561    1.000
    C203     C        0.58040    0.49830    0.70250    1.000
    H135     H        0.54560    0.47290    0.69690    1.000
    C204     C        0.65820    0.52150    0.67860    1.000
    H136     H        0.67370    0.51150    0.65680    1.000
    N17      N        0.71310    0.55833    0.68549    1.000
    O33      O        0.17190    0.38418    0.82682    1.000
    O34      O        0.16960    0.43441    0.86431    1.000
    Cu18     Cu       0.79503    0.09382    0.14934    1.000
    C205     C        0.20810    0.91900    0.33579    1.000
    C206     C        0.35750    0.98120    0.31910    1.000
    H137     H        0.34100    0.99120    0.34090    1.000
    C207     C        0.44160    0.00380    0.29470    1.000
    H138     H        0.48170    0.02860    0.30040    1.000
    C208     C        0.46590    0.98910    0.26174    1.000
    C209     C        0.40250    0.95180    0.25344    1.000
    H139     H        0.41560    0.94200    0.23140    1.000
    C210     C        0.31980    0.92910    0.27800    1.000
    H140     H        0.27950    0.90420    0.27240    1.000
    C211     C        0.29810    0.94370    0.31050    1.000
    C212     C        0.69240    0.07210    0.21743    1.000
    H141     H        0.73340    0.09700    0.22270    1.000
    C213     C        0.61380    0.05100    0.24260    1.000
    H142     H        0.60050    0.06180    0.26430    1.000
    C214     C        0.55390    0.01320    0.23561    1.000
    C215     C        0.58040    0.99830    0.20250    1.000
    H143     H        0.54560    0.97290    0.19690    1.000
    C216     C        0.65820    0.02150    0.17860    1.000
    H144     H        0.67370    0.01150    0.15680    1.000
    N18      N        0.71310    0.05833    0.18549    1.000
    O35      O        0.17190    0.88418    0.32682    1.000
    O36      O        0.16960    0.93441    0.36431    1.000
    Cu19     Cu       0.29503    0.59382    0.14934    1.000
    C217     C        0.70810    0.41900    0.33579    1.000
    C218     C        0.85750    0.48120    0.31910    1.000
    H145     H        0.84100    0.49120    0.34090    1.000
    C219     C        0.94160    0.50380    0.29470    1.000
    H146     H        0.98170    0.52860    0.30040    1.000
    C220     C        0.96590    0.48910    0.26174    1.000
    C221     C        0.90250    0.45180    0.25344    1.000
    H147     H        0.91560    0.44200    0.23140    1.000
    C222     C        0.81980    0.42910    0.27800    1.000
    H148     H        0.77950    0.40420    0.27240    1.000
    C223     C        0.79810    0.44370    0.31050    1.000
    C224     C        0.19240    0.57210    0.21743    1.000
    H149     H        0.23340    0.59700    0.22270    1.000
    C225     C        0.11380    0.55100    0.24260    1.000
    H150     H        0.10050    0.56180    0.26430    1.000
    C226     C        0.05390    0.51320    0.23561    1.000
    C227     C        0.08040    0.49830    0.20250    1.000
    H151     H        0.04560    0.47290    0.19690    1.000
    C228     C        0.15820    0.52150    0.17860    1.000
    H152     H        0.17370    0.51150    0.15680    1.000
    N19      N        0.21310    0.55833    0.18549    1.000
    O37      O        0.67190    0.38418    0.32682    1.000
    O38      O        0.66960    0.43441    0.36431    1.000
    Cu20     Cu       0.29503    0.09382    0.64934    1.000
    C229     C        0.70810    0.91900    0.83579    1.000
    C230     C        0.85750    0.98120    0.81910    1.000
    H153     H        0.84100    0.99120    0.84090    1.000
    C231     C        0.94160    0.00380    0.79470    1.000
    H154     H        0.98170    0.02860    0.80040    1.000
    C232     C        0.96590    0.98910    0.76174    1.000
    C233     C        0.90250    0.95180    0.75344    1.000
    H155     H        0.91560    0.94200    0.73140    1.000
    C234     C        0.81980    0.92910    0.77800    1.000
    H156     H        0.77950    0.90420    0.77240    1.000
    C235     C        0.79810    0.94370    0.81050    1.000
    C236     C        0.19240    0.07210    0.71743    1.000
    H157     H        0.23340    0.09700    0.72270    1.000
    C237     C        0.11380    0.05100    0.74260    1.000
    H158     H        0.10050    0.06180    0.76430    1.000
    C238     C        0.05390    0.01320    0.73561    1.000
    C239     C        0.08040    0.99830    0.70250    1.000
    H159     H        0.04560    0.97290    0.69690    1.000
    C240     C        0.15820    0.02150    0.67860    1.000
    H160     H        0.17370    0.01150    0.65680    1.000
    N20      N        0.21310    0.05833    0.68549    1.000
    O39      O        0.67190    0.88418    0.82682    1.000
    O40      O        0.66960    0.93441    0.86431    1.000
    Cu21     Cu       0.45497    0.65618    0.64934    1.000
    C241     C        0.04190    0.83100    0.83579    1.000
    C242     C        0.89250    0.76880    0.81910    1.000
    H161     H        0.90900    0.75880    0.84090    1.000
    C243     C        0.80840    0.74620    0.79470    1.000
    H162     H        0.76830    0.72140    0.80040    1.000
    C244     C        0.78410    0.76090    0.76174    1.000
    C245     C        0.84750    0.79820    0.75344    1.000
    H163     H        0.83440    0.80800    0.73140    1.000
    C246     C        0.93020    0.82090    0.77800    1.000
    H164     H        0.97050    0.84580    0.77240    1.000
    C247     C        0.95190    0.80630    0.81050    1.000
    C248     C        0.55760    0.67790    0.71743    1.000
    H165     H        0.51660    0.65300    0.72270    1.000
    C249     C        0.63620    0.69900    0.74260    1.000
    H166     H        0.64950    0.68820    0.76430    1.000
    C250     C        0.69610    0.73680    0.73561    1.000
    C251     C        0.66960    0.75170    0.70250    1.000
    H167     H        0.70440    0.77710    0.69690    1.000
    C252     C        0.59180    0.72850    0.67860    1.000
    H168     H        0.57630    0.73850    0.65680    1.000
    N21      N        0.53690    0.69167    0.68549    1.000
    O41      O        0.07810    0.86582    0.82682    1.000
    O42      O        0.08040    0.81559    0.86431    1.000
    Cu22     Cu       0.45497    0.15618    0.14934    1.000
    C253     C        0.04190    0.33100    0.33579    1.000
    C254     C        0.89250    0.26880    0.31910    1.000
    H169     H        0.90900    0.25880    0.34090    1.000
    C255     C        0.80840    0.24620    0.29470    1.000
    H170     H        0.76830    0.22140    0.30040    1.000
    C256     C        0.78410    0.26090    0.26174    1.000
    C257     C        0.84750    0.29820    0.25344    1.000
    H171     H        0.83440    0.30800    0.23140    1.000
    C258     C        0.93020    0.32090    0.27800    1.000
    H172     H        0.97050    0.34580    0.27240    1.000
    C259     C        0.95190    0.30630    0.31050    1.000
    C260     C        0.55760    0.17790    0.21743    1.000
    H173     H        0.51660    0.15300    0.22270    1.000
    C261     C        0.63620    0.19900    0.24260    1.000
    H174     H        0.64950    0.18820    0.26430    1.000
    C262     C        0.69610    0.23680    0.23561    1.000
    C263     C        0.66960    0.25170    0.20250    1.000
    H175     H        0.70440    0.27710    0.19690    1.000
    C264     C        0.59180    0.22850    0.17860    1.000
    H176     H        0.57630    0.23850    0.15680    1.000
    N22      N        0.53690    0.19167    0.18549    1.000
    O43      O        0.07810    0.36582    0.32682    1.000
    O44      O        0.08040    0.31559    0.36431    1.000
    Cu23     Cu       0.95497    0.65618    0.14934    1.000
    C265     C        0.54190    0.83100    0.33579    1.000
    C266     C        0.39250    0.76880    0.31910    1.000
    H177     H        0.40900    0.75880    0.34090    1.000
    C267     C        0.30840    0.74620    0.29470    1.000
    H178     H        0.26830    0.72140    0.30040    1.000
    C268     C        0.28410    0.76090    0.26174    1.000
    C269     C        0.34750    0.79820    0.25344    1.000
    H179     H        0.33440    0.80800    0.23140    1.000
    C270     C        0.43020    0.82090    0.27800    1.000
    H180     H        0.47050    0.84580    0.27240    1.000
    C271     C        0.45190    0.80630    0.31050    1.000
    C272     C        0.05760    0.67790    0.21743    1.000
    H181     H        0.01660    0.65300    0.22270    1.000
    C273     C        0.13620    0.69900    0.24260    1.000
    H182     H        0.14950    0.68820    0.26430    1.000
    C274     C        0.19610    0.73680    0.23561    1.000
    C275     C        0.16960    0.75170    0.20250    1.000
    H183     H        0.20440    0.77710    0.19690    1.000
    C276     C        0.09180    0.72850    0.17860    1.000
    H184     H        0.07630    0.73850    0.15680    1.000
    N23      N        0.03690    0.69167    0.18549    1.000
    O45      O        0.57810    0.86582    0.32682    1.000
    O46      O        0.58040    0.81559    0.36431    1.000
    Cu24     Cu       0.95497    0.15618    0.64934    1.000
    C277     C        0.54190    0.33100    0.83579    1.000
    C278     C        0.39250    0.26880    0.81910    1.000
    H185     H        0.40900    0.25880    0.84090    1.000
    C279     C        0.30840    0.24620    0.79470    1.000
    H186     H        0.26830    0.22140    0.80040    1.000
    C280     C        0.28410    0.26090    0.76174    1.000
    C281     C        0.34750    0.29820    0.75344    1.000
    H187     H        0.33440    0.30800    0.73140    1.000
    C282     C        0.43020    0.32090    0.77800    1.000
    H188     H        0.47050    0.34580    0.77240    1.000
    C283     C        0.45190    0.30630    0.81050    1.000
    C284     C        0.05760    0.17790    0.71743    1.000
    H189     H        0.01660    0.15300    0.72270    1.000
    C285     C        0.13620    0.19900    0.74260    1.000
    H190     H        0.14950    0.18820    0.76430    1.000
    C286     C        0.19610    0.23680    0.73561    1.000
    C287     C        0.16960    0.25170    0.70250    1.000
    H191     H        0.20440    0.27710    0.69690    1.000
    C288     C        0.09180    0.22850    0.67860    1.000
    H192     H        0.07630    0.23850    0.65680    1.000
    N24      N        0.03690    0.19167    0.68549    1.000
    O47      O        0.57810    0.36582    0.82682    1.000
    O48      O        0.58040    0.31559    0.86431    1.000
    Cu25     Cu       0.45497    0.59382    0.60066    1.000
    C289     C        0.04190    0.41900    0.41421    1.000
    C290     C        0.89250    0.48120    0.43090    1.000
    H193     H        0.90900    0.49120    0.40910    1.000
    C291     C        0.80840    0.50380    0.45530    1.000
    H194     H        0.76830    0.52860    0.44960    1.000
    C292     C        0.78410    0.48910    0.48826    1.000
    C293     C        0.84750    0.45180    0.49656    1.000
    H195     H        0.83440    0.44200    0.51860    1.000
    C294     C        0.93020    0.42910    0.47200    1.000
    H196     H        0.97050    0.40420    0.47760    1.000
    C295     C        0.95190    0.44370    0.43950    1.000
    C296     C        0.55760    0.57210    0.53257    1.000
    H197     H        0.51660    0.59700    0.52730    1.000
    C297     C        0.63620    0.55100    0.50740    1.000
    H198     H        0.64950    0.56180    0.48570    1.000
    C298     C        0.69610    0.51320    0.51439    1.000
    C299     C        0.66960    0.49830    0.54750    1.000
    H199     H        0.70440    0.47290    0.55310    1.000
    C300     C        0.59180    0.52150    0.57140    1.000
    H200     H        0.57630    0.51150    0.59320    1.000
    N25      N        0.53690    0.55833    0.56451    1.000
    O49      O        0.07810    0.38418    0.42318    1.000
    O50      O        0.08040    0.43441    0.38569    1.000
    Cu26     Cu       0.45497    0.09382    0.10066    1.000
    C301     C        0.04190    0.91900    0.91421    1.000
    C302     C        0.89250    0.98120    0.93090    1.000
    H201     H        0.90900    0.99120    0.90910    1.000
    C303     C        0.80840    0.00380    0.95530    1.000
    H202     H        0.76830    0.02860    0.94960    1.000
    C304     C        0.78410    0.98910    0.98826    1.000
    C305     C        0.84750    0.95180    0.99656    1.000
    H203     H        0.83440    0.94200    0.01860    1.000
    C306     C        0.93020    0.92910    0.97200    1.000
    H204     H        0.97050    0.90420    0.97760    1.000
    C307     C        0.95190    0.94370    0.93950    1.000
    C308     C        0.55760    0.07210    0.03257    1.000
    H205     H        0.51660    0.09700    0.02730    1.000
    C309     C        0.63620    0.05100    0.00740    1.000
    H206     H        0.64950    0.06180    0.98570    1.000
    C310     C        0.69610    0.01320    0.01439    1.000
    C311     C        0.66960    0.99830    0.04750    1.000
    H207     H        0.70440    0.97290    0.05310    1.000
    C312     C        0.59180    0.02150    0.07140    1.000
    H208     H        0.57630    0.01150    0.09320    1.000
    N26      N        0.53690    0.05833    0.06451    1.000
    O51      O        0.07810    0.88418    0.92318    1.000
    O52      O        0.08040    0.93441    0.88569    1.000
    Cu27     Cu       0.95497    0.59382    0.10066    1.000
    C313     C        0.54190    0.41900    0.91421    1.000
    C314     C        0.39250    0.48120    0.93090    1.000
    H209     H        0.40900    0.49120    0.90910    1.000
    C315     C        0.30840    0.50380    0.95530    1.000
    H210     H        0.26830    0.52860    0.94960    1.000
    C316     C        0.28410    0.48910    0.98826    1.000
    C317     C        0.34750    0.45180    0.99656    1.000
    H211     H        0.33440    0.44200    0.01860    1.000
    C318     C        0.43020    0.42910    0.97200    1.000
    H212     H        0.47050    0.40420    0.97760    1.000
    C319     C        0.45190    0.44370    0.93950    1.000
    C320     C        0.05760    0.57210    0.03257    1.000
    H213     H        0.01660    0.59700    0.02730    1.000
    C321     C        0.13620    0.55100    0.00740    1.000
    H214     H        0.14950    0.56180    0.98570    1.000
    C322     C        0.19610    0.51320    0.01439    1.000
    C323     C        0.16960    0.49830    0.04750    1.000
    H215     H        0.20440    0.47290    0.05310    1.000
    C324     C        0.09180    0.52150    0.07140    1.000
    H216     H        0.07630    0.51150    0.09320    1.000
    N27      N        0.03690    0.55833    0.06451    1.000
    O53      O        0.57810    0.38418    0.92318    1.000
    O54      O        0.58040    0.43441    0.88569    1.000
    Cu28     Cu       0.95497    0.09382    0.60066    1.000
    C325     C        0.54190    0.91900    0.41421    1.000
    C326     C        0.39250    0.98120    0.43090    1.000
    H217     H        0.40900    0.99120    0.40910    1.000
    C327     C        0.30840    0.00380    0.45530    1.000
    H218     H        0.26830    0.02860    0.44960    1.000
    C328     C        0.28410    0.98910    0.48826    1.000
    C329     C        0.34750    0.95180    0.49656    1.000
    H219     H        0.33440    0.94200    0.51860    1.000
    C330     C        0.43020    0.92910    0.47200    1.000
    H220     H        0.47050    0.90420    0.47760    1.000
    C331     C        0.45190    0.94370    0.43950    1.000
    C332     C        0.05760    0.07210    0.53257    1.000
    H221     H        0.01660    0.09700    0.52730    1.000
    C333     C        0.13620    0.05100    0.50740    1.000
    H222     H        0.14950    0.06180    0.48570    1.000
    C334     C        0.19610    0.01320    0.51439    1.000
    C335     C        0.16960    0.99830    0.54750    1.000
    H223     H        0.20440    0.97290    0.55310    1.000
    C336     C        0.09180    0.02150    0.57140    1.000
    H224     H        0.07630    0.01150    0.59320    1.000
    N28      N        0.03690    0.05833    0.56451    1.000
    O55      O        0.57810    0.88418    0.42318    1.000
    O56      O        0.58040    0.93441    0.38569    1.000
    Cu29     Cu       0.79503    0.65618    0.60066    1.000
    C337     C        0.20810    0.83100    0.41421    1.000
    C338     C        0.35750    0.76880    0.43090    1.000
    H225     H        0.34100    0.75880    0.40910    1.000
    C339     C        0.44160    0.74620    0.45530    1.000
    H226     H        0.48170    0.72140    0.44960    1.000
    C340     C        0.46590    0.76090    0.48826    1.000
    C341     C        0.40250    0.79820    0.49656    1.000
    H227     H        0.41560    0.80800    0.51860    1.000
    C342     C        0.31980    0.82090    0.47200    1.000
    H228     H        0.27950    0.84580    0.47760    1.000
    C343     C        0.29810    0.80630    0.43950    1.000
    C344     C        0.69240    0.67790    0.53257    1.000
    H229     H        0.73340    0.65300    0.52730    1.000
    C345     C        0.61380    0.69900    0.50740    1.000
    H230     H        0.60050    0.68820    0.48570    1.000
    C346     C        0.55390    0.73680    0.51439    1.000
    C347     C        0.58040    0.75170    0.54750    1.000
    H231     H        0.54560    0.77710    0.55310    1.000
    C348     C        0.65820    0.72850    0.57140    1.000
    H232     H        0.67370    0.73850    0.59320    1.000
    N29      N        0.71310    0.69167    0.56451    1.000
    O57      O        0.17190    0.86582    0.42318    1.000
    O58      O        0.16960    0.81559    0.38569    1.000
    Cu30     Cu       0.79503    0.15618    0.10066    1.000
    C349     C        0.20810    0.33100    0.91421    1.000
    C350     C        0.35750    0.26880    0.93090    1.000
    H233     H        0.34100    0.25880    0.90910    1.000
    C351     C        0.44160    0.24620    0.95530    1.000
    H234     H        0.48170    0.22140    0.94960    1.000
    C352     C        0.46590    0.26090    0.98826    1.000
    C353     C        0.40250    0.29820    0.99656    1.000
    H235     H        0.41560    0.30800    0.01860    1.000
    C354     C        0.31980    0.32090    0.97200    1.000
    H236     H        0.27950    0.34580    0.97760    1.000
    C355     C        0.29810    0.30630    0.93950    1.000
    C356     C        0.69240    0.17790    0.03257    1.000
    H237     H        0.73340    0.15300    0.02730    1.000
    C357     C        0.61380    0.19900    0.00740    1.000
    H238     H        0.60050    0.18820    0.98570    1.000
    C358     C        0.55390    0.23680    0.01439    1.000
    C359     C        0.58040    0.25170    0.04750    1.000
    H239     H        0.54560    0.27710    0.05310    1.000
    C360     C        0.65820    0.22850    0.07140    1.000
    H240     H        0.67370    0.23850    0.09320    1.000
    N30      N        0.71310    0.19167    0.06451    1.000
    O59      O        0.17190    0.36582    0.92318    1.000
    O60      O        0.16960    0.31559    0.88569    1.000
    Cu31     Cu       0.29503    0.65618    0.10066    1.000
    C361     C        0.70810    0.83100    0.91421    1.000
    C362     C        0.85750    0.76880    0.93090    1.000
    H241     H        0.84100    0.75880    0.90910    1.000
    C363     C        0.94160    0.74620    0.95530    1.000
    H242     H        0.98170    0.72140    0.94960    1.000
    C364     C        0.96590    0.76090    0.98826    1.000
    C365     C        0.90250    0.79820    0.99656    1.000
    H243     H        0.91560    0.80800    0.01860    1.000
    C366     C        0.81980    0.82090    0.97200    1.000
    H244     H        0.77950    0.84580    0.97760    1.000
    C367     C        0.79810    0.80630    0.93950    1.000
    C368     C        0.19240    0.67790    0.03257    1.000
    H245     H        0.23340    0.65300    0.02730    1.000
    C369     C        0.11380    0.69900    0.00740    1.000
    H246     H        0.10050    0.68820    0.98570    1.000
    C370     C        0.05390    0.73680    0.01439    1.000
    C371     C        0.08040    0.75170    0.04750    1.000
    H247     H        0.04560    0.77710    0.05310    1.000
    C372     C        0.15820    0.72850    0.07140    1.000
    H248     H        0.17370    0.73850    0.09320    1.000
    N31      N        0.21310    0.69167    0.06451    1.000
    O61      O        0.67190    0.86582    0.92318    1.000
    O62      O        0.66960    0.81559    0.88569    1.000
    Cu32     Cu       0.29503    0.15618    0.60066    1.000
    C373     C        0.70810    0.33100    0.41421    1.000
    C374     C        0.85750    0.26880    0.43090    1.000
    H249     H        0.84100    0.25880    0.40910    1.000
    C375     C        0.94160    0.24620    0.45530    1.000
    H250     H        0.98170    0.22140    0.44960    1.000
    C376     C        0.96590    0.26090    0.48826    1.000
    C377     C        0.90250    0.29820    0.49656    1.000
    H251     H        0.91560    0.30800    0.51860    1.000
    C378     C        0.81980    0.32090    0.47200    1.000
    H252     H        0.77950    0.34580    0.47760    1.000
    C379     C        0.79810    0.30630    0.43950    1.000
    C380     C        0.19240    0.17790    0.53257    1.000
    H253     H        0.23340    0.15300    0.52730    1.000
    C381     C        0.11380    0.19900    0.50740    1.000
    H254     H        0.10050    0.18820    0.48570    1.000
    C382     C        0.05390    0.23680    0.51439    1.000
    C383     C        0.08040    0.25170    0.54750    1.000
    H255     H        0.04560    0.27710    0.55310    1.000
    C384     C        0.15820    0.22850    0.57140    1.000
    H256     H        0.17370    0.23850    0.59320    1.000
    N32      N        0.21310    0.19167    0.56451    1.000
    O63      O        0.67190    0.36582    0.42318    1.000
    O64      O        0.66960    0.31559    0.38569    1.000
    O65      O        0.37500    0.37500    0.37500    1.000
    O66      O        0.37500    0.87500    0.87500    1.000
    O67      O        0.87500    0.37500    0.87500    1.000
    O68      O        0.87500    0.87500    0.37500    1.000
    O69      O        0.62500    0.62500    0.62500    1.000
    O70      O        0.62500    0.12500    0.12500    1.000
    O71      O        0.12500    0.62500    0.12500    1.000
    O72      O        0.12500    0.12500    0.62500    1.000
