data_functionalizedCrystal
_audit_creation_method	'EQeq! by Chris Wilmer'
_symmetry_space_group_name_H-M	'P1'
_symmetry_Int_Tables_number	1
_symmetry_cell_setting	triclinic
loop_
_symmetry_equiv_pos_as_xyz
  x,y,z
_cell_length_a	9.6767
_cell_length_b	9.6767
_cell_length_c	20.172
_cell_angle_alpha	90
_cell_angle_beta	90
_cell_angle_gamma	120
loop_
_atom_site_label
_atom_site_type_symbol
_atom_site_fract_x
_atom_site_fract_y
_atom_site_fract_z
_atom_site_charge
Mof_Zn	Zn	0.93515	0.50554	0.41626	1.179
Mof_N 	N 	0.3477	0.8311	0.51312	-0.279
Mof_N 	N 	0.4075	0.8144	0.45271	-0.152
Mof_N 	N 	0.1413	0.6825	0.44879	-0.319
Mof_N 	N 	0.0865	0.7456	0.55654	-0.284
Mof_H 	H 	0.9892	0.6508	0.5629	0.095
Mof_H 	H 	0.1196	0.791	0.5971	0.103
Mof_N 	N 	0.2161	0.4211	0.28851	-0.327
Mof_N 	N 	0.031	0.4281	0.3496	-0.274
Mof_N 	N 	0.9612	0.2748	0.32264	-0.142
Mof_N 	N 	0.061	0.1515	0.2492	-0.271
Mof_H 	H 	0.9562	0.0665	0.2464	0.101
Mof_H 	H 	0.0909	0.1637	0.2066	0.094
Mof_C 	C 	0.1887	0.7512	0.5088	0.167
Mof_C 	C 	0.2812	0.7254	0.4172	0.164
Mof_C 	C 	0.2926	0.6795	0.3458	-0.36
Mof_H 	H 	0.2728	0.7483	0.3156	0.104
Mof_H 	H 	0.4028	0.7017	0.3377	0.089
Mof_C 	C 	0.1793	0.5092	0.32891	0.154
Mof_C 	C 	0.0772	0.28	0.2856	0.165
Mof_Zn	Zn	0.49446	0.42961	0.74959	1.179
Mof_N 	N 	0.1689	0.5166	0.84645	-0.281
Mof_N 	N 	0.1856	0.5931	0.78604	-0.153
Mof_N 	N 	0.3175	0.4588	0.78212	-0.321
Mof_N 	N 	0.2544	0.3409	0.88987	-0.285
Mof_H 	H 	0.3492	0.3384	0.89623	0.095
Mof_H 	H 	0.209	0.3286	0.93043	0.103
Mof_N 	N 	0.5789	0.795	0.62184	-0.327
Mof_N 	N 	0.5719	0.6029	0.68293	-0.275
Mof_N 	N 	0.7252	0.6864	0.65597	-0.14
Mof_N 	N 	0.8485	0.9095	0.58253	-0.273
Mof_H 	H 	0.9335	0.8897	0.57973	0.103
Mof_H 	H 	0.8363	0.9272	0.53993	0.094
Mof_C 	C 	0.2488	0.4375	0.84213	0.167
Mof_C 	C 	0.2746	0.5558	0.75053	0.164
Mof_C 	C 	0.3205	0.6131	0.67913	-0.36
Mof_H 	H 	0.2517	0.5245	0.64893	0.103
Mof_H 	H 	0.2983	0.7011	0.67103	0.088
Mof_C 	C 	0.4908	0.6701	0.66224	0.154
Mof_C 	C 	0.72	0.7972	0.61893	0.163
Mof_Zn	Zn	0.57039	0.06485	0.08293	1.177
Mof_N 	N 	0.4834	0.6523	0.17979	-0.28
Mof_N 	N 	0.4069	0.5925	0.11938	-0.152
Mof_N 	N 	0.5412	0.8587	0.11546	-0.319
Mof_N 	N 	0.6591	0.9135	0.22321	-0.283
Mof_H 	H 	0.6616	0.0108	0.22957	0.092
Mof_H 	H 	0.6714	0.8804	0.26377	0.103
Mof_N 	N 	0.205	0.7839	0.95518	-0.326
Mof_N 	N 	0.3971	0.969	0.01627	-0.27
Mof_N 	N 	0.3136	0.0388	0.98931	-0.139
Mof_N 	N 	0.0905	0.939	0.91587	-0.274
Mof_H 	H 	0.1103	0.0438	0.91307	0.104
Mof_H 	H 	0.0728	0.9091	0.87327	0.093
Mof_C 	C 	0.5625	0.8113	0.17547	0.168
Mof_C 	C 	0.4442	0.7188	0.08387	0.162
Mof_C 	C 	0.3869	0.7074	0.01247	-0.35
Mof_H 	H 	0.4755	0.7272	0.98227	0.099
Mof_H 	H 	0.2989	0.5972	0.00437	0.086
Mof_C 	C 	0.3299	0.8207	0.99558	0.146
Mof_C 	C 	0.2028	0.9228	0.95227	0.161
Mof_Zn	Zn	0.50554	0.93515	0.58374	1.178
Mof_N 	N 	0.8311	0.3477	0.48688	-0.28
Mof_N 	N 	0.8144	0.4075	0.54729	-0.153
Mof_N 	N 	0.6825	0.1413	0.55121	-0.32
Mof_N 	N 	0.7456	0.0865	0.44346	-0.285
Mof_H 	H 	0.6508	0.9892	0.4371	0.094
Mof_H 	H 	0.791	0.1196	0.4029	0.103
Mof_N 	N 	0.4211	0.2161	0.71149	-0.327
Mof_N 	N 	0.4281	0.031	0.6504	-0.274
Mof_N 	N 	0.2748	0.9612	0.67736	-0.142
Mof_N 	N 	0.1515	0.061	0.7508	-0.271
Mof_H 	H 	0.0665	0.9562	0.7536	0.101
Mof_H 	H 	0.1637	0.0909	0.7934	0.094
Mof_C 	C 	0.7512	0.1887	0.4912	0.167
Mof_C 	C 	0.7254	0.2812	0.5828	0.164
Mof_C 	C 	0.6795	0.2926	0.6542	-0.36
Mof_H 	H 	0.7483	0.2728	0.6844	0.104
Mof_H 	H 	0.7017	0.4028	0.6623	0.089
Mof_C 	C 	0.5092	0.1793	0.67109	0.154
Mof_C 	C 	0.28	0.0772	0.7144	0.165
Mof_Zn	Zn	0.42961	0.49446	0.25041	1.179
Mof_N 	N 	0.5166	0.1689	0.15355	-0.281
Mof_N 	N 	0.5931	0.1856	0.21396	-0.153
Mof_N 	N 	0.4588	0.3175	0.21788	-0.321
Mof_N 	N 	0.3409	0.2544	0.11013	-0.285
Mof_H 	H 	0.3384	0.3492	0.10377	0.095
Mof_H 	H 	0.3286	0.209	0.06957	0.103
Mof_N 	N 	0.795	0.5789	0.37816	-0.327
Mof_N 	N 	0.6029	0.5719	0.31707	-0.275
Mof_N 	N 	0.6864	0.7252	0.34403	-0.14
Mof_N 	N 	0.9095	0.8485	0.41747	-0.273
Mof_H 	H 	0.8897	0.9335	0.42027	0.103
Mof_H 	H 	0.9272	0.8363	0.46007	0.094
Mof_C 	C 	0.4375	0.2488	0.15787	0.167
Mof_C 	C 	0.5558	0.2746	0.24947	0.164
Mof_C 	C 	0.6131	0.3205	0.32087	-0.36
Mof_H 	H 	0.5245	0.2517	0.35107	0.103
Mof_H 	H 	0.7011	0.2983	0.32897	0.088
Mof_C 	C 	0.6701	0.4908	0.33776	0.154
Mof_C 	C 	0.7972	0.72	0.38107	0.163
Mof_Zn	Zn	0.06485	0.57039	0.91707	1.177
Mof_N 	N 	0.6523	0.4834	0.82021	-0.28
Mof_N 	N 	0.5925	0.4069	0.88062	-0.152
Mof_N 	N 	0.8587	0.5412	0.88454	-0.319
Mof_N 	N 	0.9135	0.6591	0.77679	-0.283
Mof_H 	H 	0.0108	0.6616	0.77043	0.092
Mof_H 	H 	0.8804	0.6714	0.73623	0.103
Mof_N 	N 	0.7839	0.205	0.04482	-0.326
Mof_N 	N 	0.969	0.3971	0.98373	-0.27
Mof_N 	N 	0.0388	0.3136	0.01069	-0.139
Mof_N 	N 	0.939	0.0905	0.08413	-0.274
Mof_H 	H 	0.0438	0.1103	0.08693	0.104
Mof_H 	H 	0.9091	0.0728	0.12673	0.093
Mof_C 	C 	0.8113	0.5625	0.82453	0.168
Mof_C 	C 	0.7188	0.4442	0.91613	0.162
Mof_C 	C 	0.7074	0.3869	0.98753	-0.35
Mof_H 	H 	0.7272	0.4755	0.01773	0.099
Mof_H 	H 	0.5972	0.2989	0.99563	0.086
Mof_C 	C 	0.8207	0.3299	0.00442	0.146
Mof_C 	C 	0.9228	0.2028	0.04773	0.161
_end
