data_functionalizedCrystal
_audit_creation_method	'EQeq! by Chris Wilmer'
_symmetry_space_group_name_H-M	'P1'
_symmetry_Int_Tables_number	1
_symmetry_cell_setting	triclinic
loop_
_symmetry_equiv_pos_as_xyz
  x,y,z
_cell_length_a	19.663
_cell_length_b	19.663
_cell_length_c	19.663
_cell_angle_alpha	90
_cell_angle_beta	90
_cell_angle_gamma	90
loop_
_atom_site_label
_atom_site_type_symbol
_atom_site_fract_x
_atom_site_fract_y
_atom_site_fract_z
_atom_site_charge
Mof_C 	C 	0.5552	0.0449	0.0102	0.017
Mof_C 	C 	0.6141	0.0938	0.023	-0.095
Mof_H 	H 	0.6519	0.0693	0.0431	0.072
Mof_H 	H 	0.6292	0.1131	0.9802	0.069
Mof_C 	C 	0.6155	0.1635	0.1291	0.079
Mof_H 	H 	0.6515	0.1423	0.1513	-0.026
Mof_C 	C 	0.5357	0.2286	0.1049	0.114
Mof_H 	H 	0.5048	0.2644	0.1073	-0.021
Mof_N 	N 	0.5787	0.2149	0.1539	-0.274
Mof_N 	N 	0.5924	0.1477	0.0683	-0.085
Mof_N 	N 	0.5395	0.1891	0.0536	-0.104
Mof_C 	C 	0.9448	0.4551	0.0102	0.017
Mof_C 	C 	0.8859	0.4062	0.023	-0.095
Mof_H 	H 	0.8481	0.4307	0.0431	0.072
Mof_H 	H 	0.8708	0.3869	0.9802	0.069
Mof_C 	C 	0.8845	0.3365	0.1291	0.079
Mof_H 	H 	0.8485	0.3577	0.1513	-0.026
Mof_C 	C 	0.9643	0.2714	0.1049	0.114
Mof_H 	H 	0.9952	0.2356	0.1073	-0.021
Mof_N 	N 	0.9213	0.2851	0.1539	-0.274
Mof_N 	N 	0.9076	0.3523	0.0683	-0.085
Mof_N 	N 	0.9605	0.3109	0.0536	-0.104
Mof_C 	C 	0.9448	0.0449	0.4898	0.017
Mof_C 	C 	0.8859	0.0938	0.477	-0.095
Mof_H 	H 	0.8481	0.0693	0.4569	0.072
Mof_H 	H 	0.8708	0.1131	0.5198	0.069
Mof_C 	C 	0.8845	0.1635	0.3709	0.079
Mof_H 	H 	0.8485	0.1423	0.3487	-0.026
Mof_C 	C 	0.9643	0.2286	0.3951	0.114
Mof_H 	H 	0.9952	0.2644	0.3927	-0.021
Mof_N 	N 	0.9213	0.2149	0.3461	-0.274
Mof_N 	N 	0.9076	0.1477	0.4317	-0.085
Mof_N 	N 	0.9605	0.1891	0.4464	-0.104
Mof_C 	C 	0.5552	0.4551	0.4898	0.017
Mof_C 	C 	0.6141	0.4062	0.477	-0.095
Mof_H 	H 	0.6519	0.4307	0.4569	0.072
Mof_H 	H 	0.6292	0.3869	0.5198	0.069
Mof_C 	C 	0.6155	0.3365	0.3709	0.079
Mof_H 	H 	0.6515	0.3577	0.3487	-0.026
Mof_C 	C 	0.5357	0.2714	0.3951	0.114
Mof_H 	H 	0.5048	0.2356	0.3927	-0.021
Mof_N 	N 	0.5787	0.2851	0.3461	-0.274
Mof_N 	N 	0.5924	0.3523	0.4317	-0.085
Mof_N 	N 	0.5395	0.3109	0.4464	-0.104
Mof_C 	C 	0.0102	0.5552	0.0449	0.017
Mof_C 	C 	0.023	0.6141	0.0938	-0.095
Mof_H 	H 	0.0431	0.6519	0.0693	0.072
Mof_H 	H 	0.9802	0.6292	0.1131	0.069
Mof_C 	C 	0.1291	0.6155	0.1635	0.079
Mof_H 	H 	0.1513	0.6515	0.1423	-0.026
Mof_C 	C 	0.1049	0.5357	0.2286	0.114
Mof_H 	H 	0.1073	0.5048	0.2644	-0.021
Mof_N 	N 	0.1539	0.5787	0.2149	-0.274
Mof_N 	N 	0.0683	0.5924	0.1477	-0.085
Mof_N 	N 	0.0536	0.5395	0.1891	-0.104
Mof_C 	C 	0.0102	0.9448	0.4551	0.017
Mof_C 	C 	0.023	0.8859	0.4062	-0.095
Mof_H 	H 	0.0431	0.8481	0.4307	0.072
Mof_H 	H 	0.9802	0.8708	0.3869	0.069
Mof_C 	C 	0.1291	0.8845	0.3365	0.079
Mof_H 	H 	0.1513	0.8485	0.3577	-0.026
Mof_C 	C 	0.1049	0.9643	0.2714	0.114
Mof_H 	H 	0.1073	0.9952	0.2356	-0.021
Mof_N 	N 	0.1539	0.9213	0.2851	-0.274
Mof_N 	N 	0.0683	0.9076	0.3523	-0.085
Mof_N 	N 	0.0536	0.9605	0.3109	-0.104
Mof_C 	C 	0.4898	0.9448	0.0449	0.017
Mof_C 	C 	0.477	0.8859	0.0938	-0.095
Mof_H 	H 	0.4569	0.8481	0.0693	0.072
Mof_H 	H 	0.5198	0.8708	0.1131	0.069
Mof_C 	C 	0.3709	0.8845	0.1635	0.079
Mof_H 	H 	0.3487	0.8485	0.1423	-0.026
Mof_C 	C 	0.3951	0.9643	0.2286	0.113
Mof_H 	H 	0.3927	0.9952	0.2644	-0.022
Mof_N 	N 	0.3461	0.9213	0.2149	-0.275
Mof_N 	N 	0.4317	0.9076	0.1477	-0.086
Mof_N 	N 	0.4464	0.9605	0.1891	-0.105
Mof_C 	C 	0.4898	0.5552	0.4551	0.016
Mof_C 	C 	0.477	0.6141	0.4062	-0.096
Mof_H 	H 	0.4569	0.6519	0.4307	0.071
Mof_H 	H 	0.5198	0.6292	0.3869	0.068
Mof_C 	C 	0.3709	0.6155	0.3365	0.078
Mof_H 	H 	0.3487	0.6515	0.3577	-0.027
Mof_C 	C 	0.3951	0.5357	0.2714	0.113
Mof_H 	H 	0.3927	0.5048	0.2356	-0.022
Mof_N 	N 	0.3461	0.5787	0.2851	-0.275
Mof_N 	N 	0.4317	0.5924	0.3523	-0.086
Mof_N 	N 	0.4464	0.5395	0.3109	-0.105
Mof_C 	C 	0.0449	0.0102	0.5552	0.016
Mof_C 	C 	0.0938	0.023	0.6141	-0.096
Mof_H 	H 	0.0693	0.0431	0.6519	0.071
Mof_H 	H 	0.1131	0.9802	0.6292	0.068
Mof_C 	C 	0.1635	0.1291	0.6155	0.078
Mof_H 	H 	0.1423	0.1513	0.6515	-0.027
Mof_C 	C 	0.2286	0.1049	0.5357	0.113
Mof_H 	H 	0.2644	0.1073	0.5048	-0.022
Mof_N 	N 	0.2149	0.1539	0.5787	-0.275
Mof_N 	N 	0.1477	0.0683	0.5924	-0.086
Mof_N 	N 	0.1891	0.0536	0.5395	-0.105
Mof_C 	C 	0.4551	0.0102	0.9448	0.016
Mof_C 	C 	0.4062	0.023	0.8859	-0.096
Mof_H 	H 	0.4307	0.0431	0.8481	0.071
Mof_H 	H 	0.3869	0.9802	0.8708	0.068
Mof_C 	C 	0.3365	0.1291	0.8845	0.078
Mof_H 	H 	0.3577	0.1513	0.8485	-0.027
Mof_C 	C 	0.2714	0.1049	0.9643	0.113
Mof_H 	H 	0.2356	0.1073	0.9952	-0.022
Mof_N 	N 	0.2851	0.1539	0.9213	-0.275
Mof_N 	N 	0.3523	0.0683	0.9076	-0.086
Mof_N 	N 	0.3109	0.0536	0.9605	-0.105
Mof_C 	C 	0.0449	0.4898	0.9448	0.016
Mof_C 	C 	0.0938	0.477	0.8859	-0.096
Mof_H 	H 	0.0693	0.4569	0.8481	0.071
Mof_H 	H 	0.1131	0.5198	0.8708	0.068
Mof_C 	C 	0.1635	0.3709	0.8845	0.078
Mof_H 	H 	0.1423	0.3487	0.8485	-0.027
Mof_C 	C 	0.2286	0.3951	0.9643	0.113
Mof_H 	H 	0.2644	0.3927	0.9952	-0.022
Mof_N 	N 	0.2149	0.3461	0.9213	-0.275
Mof_N 	N 	0.1477	0.4317	0.9076	-0.086
Mof_N 	N 	0.1891	0.4464	0.9605	-0.105
Mof_C 	C 	0.4551	0.4898	0.5552	0.016
Mof_C 	C 	0.4062	0.477	0.6141	-0.096
Mof_H 	H 	0.4307	0.4569	0.6519	0.071
Mof_H 	H 	0.3869	0.5198	0.6292	0.068
Mof_C 	C 	0.3365	0.3709	0.6155	0.078
Mof_H 	H 	0.3577	0.3487	0.6515	-0.027
Mof_C 	C 	0.2714	0.3951	0.5357	0.113
Mof_H 	H 	0.2356	0.3927	0.5048	-0.022
Mof_N 	N 	0.2851	0.3461	0.5787	-0.275
Mof_N 	N 	0.3523	0.4317	0.5924	-0.086
Mof_N 	N 	0.3109	0.4464	0.5395	-0.105
Mof_C 	C 	0.0449	0.5552	0.4898	0.016
Mof_C 	C 	0.0938	0.6141	0.477	-0.096
Mof_H 	H 	0.0693	0.6519	0.4569	0.071
Mof_H 	H 	0.1131	0.6292	0.5198	0.068
Mof_C 	C 	0.1635	0.6155	0.3709	0.078
Mof_H 	H 	0.1423	0.6515	0.3487	-0.027
Mof_C 	C 	0.2286	0.5357	0.3951	0.113
Mof_H 	H 	0.2644	0.5048	0.3927	-0.022
Mof_N 	N 	0.2149	0.5787	0.3461	-0.275
Mof_N 	N 	0.1477	0.5924	0.4317	-0.086
Mof_N 	N 	0.1891	0.5395	0.4464	-0.105
Mof_C 	C 	0.4551	0.9448	0.4898	0.016
Mof_C 	C 	0.4062	0.8859	0.477	-0.096
Mof_H 	H 	0.4307	0.8481	0.4569	0.071
Mof_H 	H 	0.3869	0.8708	0.5198	0.068
Mof_C 	C 	0.3365	0.8845	0.3709	0.078
Mof_H 	H 	0.3577	0.8485	0.3487	-0.027
Mof_C 	C 	0.2714	0.9643	0.3951	0.113
Mof_H 	H 	0.2356	0.9952	0.3927	-0.022
Mof_N 	N 	0.2851	0.9213	0.3461	-0.275
Mof_N 	N 	0.3523	0.9076	0.4317	-0.086
Mof_N 	N 	0.3109	0.9605	0.4464	-0.105
Mof_C 	C 	0.0449	0.9448	0.0102	0.016
Mof_C 	C 	0.0938	0.8859	0.023	-0.096
Mof_H 	H 	0.0693	0.8481	0.0431	0.071
Mof_H 	H 	0.1131	0.8708	0.9802	0.068
Mof_C 	C 	0.1635	0.8845	0.1291	0.078
Mof_H 	H 	0.1423	0.8485	0.1513	-0.027
Mof_C 	C 	0.2286	0.9643	0.1049	0.113
Mof_H 	H 	0.2644	0.9952	0.1073	-0.022
Mof_N 	N 	0.2149	0.9213	0.1539	-0.275
Mof_N 	N 	0.1477	0.9076	0.0683	-0.086
Mof_N 	N 	0.1891	0.9605	0.0536	-0.105
Mof_C 	C 	0.4551	0.5552	0.0102	0.016
Mof_C 	C 	0.4062	0.6141	0.023	-0.096
Mof_H 	H 	0.4307	0.6519	0.0431	0.071
Mof_H 	H 	0.3869	0.6292	0.9802	0.068
Mof_C 	C 	0.3365	0.6155	0.1291	0.078
Mof_H 	H 	0.3577	0.6515	0.1513	-0.027
Mof_C 	C 	0.2714	0.5357	0.1049	0.113
Mof_H 	H 	0.2356	0.5048	0.1073	-0.022
Mof_N 	N 	0.2851	0.5787	0.1539	-0.275
Mof_N 	N 	0.3523	0.5924	0.0683	-0.086
Mof_N 	N 	0.3109	0.5395	0.0536	-0.105
Mof_C 	C 	0.5552	0.0102	0.4551	0.016
Mof_C 	C 	0.6141	0.023	0.4062	-0.096
Mof_H 	H 	0.6519	0.0431	0.4307	0.071
Mof_H 	H 	0.6292	0.9802	0.3869	0.068
Mof_C 	C 	0.6155	0.1291	0.3365	0.078
Mof_H 	H 	0.6515	0.1513	0.3577	-0.027
Mof_C 	C 	0.5357	0.1049	0.2714	0.113
Mof_H 	H 	0.5048	0.1073	0.2356	-0.022
Mof_N 	N 	0.5787	0.1539	0.2851	-0.275
Mof_N 	N 	0.5924	0.0683	0.3523	-0.086
Mof_N 	N 	0.5395	0.0536	0.3109	-0.105
Mof_C 	C 	0.9448	0.0102	0.0449	0.016
Mof_C 	C 	0.8859	0.023	0.0938	-0.096
Mof_H 	H 	0.8481	0.0431	0.0693	0.071
Mof_H 	H 	0.8708	0.9802	0.1131	0.068
Mof_C 	C 	0.8845	0.1291	0.1635	0.078
Mof_H 	H 	0.8485	0.1513	0.1423	-0.027
Mof_C 	C 	0.9643	0.1049	0.2286	0.113
Mof_H 	H 	0.9952	0.1073	0.2644	-0.022
Mof_N 	N 	0.9213	0.1539	0.2149	-0.275
Mof_N 	N 	0.9076	0.0683	0.1477	-0.086
Mof_N 	N 	0.9605	0.0536	0.1891	-0.105
Mof_C 	C 	0.9448	0.4898	0.4551	0.016
Mof_C 	C 	0.8859	0.477	0.4062	-0.096
Mof_H 	H 	0.8481	0.4569	0.4307	0.071
Mof_H 	H 	0.8708	0.5198	0.3869	0.068
Mof_C 	C 	0.8845	0.3709	0.3365	0.078
Mof_H 	H 	0.8485	0.3487	0.3577	-0.027
Mof_C 	C 	0.9643	0.3951	0.2714	0.113
Mof_H 	H 	0.9952	0.3927	0.2356	-0.022
Mof_N 	N 	0.9213	0.3461	0.2851	-0.275
Mof_N 	N 	0.9076	0.4317	0.3523	-0.086
Mof_N 	N 	0.9605	0.4464	0.3109	-0.105
Mof_C 	C 	0.5552	0.4898	0.0449	0.016
Mof_C 	C 	0.6141	0.477	0.0938	-0.096
Mof_H 	H 	0.6519	0.4569	0.0693	0.071
Mof_H 	H 	0.6292	0.5198	0.1131	0.068
Mof_C 	C 	0.6155	0.3709	0.1635	0.078
Mof_H 	H 	0.6515	0.3487	0.1423	-0.027
Mof_C 	C 	0.5357	0.3951	0.2286	0.113
Mof_H 	H 	0.5048	0.3927	0.2644	-0.022
Mof_N 	N 	0.5787	0.3461	0.2149	-0.275
Mof_N 	N 	0.5924	0.4317	0.1477	-0.086
Mof_N 	N 	0.5395	0.4464	0.1891	-0.105
Mof_C 	C 	0.0102	0.0449	0.9448	0.016
Mof_C 	C 	0.023	0.0938	0.8859	-0.096
Mof_H 	H 	0.0431	0.0693	0.8481	0.071
Mof_H 	H 	0.9802	0.1131	0.8708	0.068
Mof_C 	C 	0.1291	0.1635	0.8845	0.078
Mof_H 	H 	0.1513	0.1423	0.8485	-0.027
Mof_C 	C 	0.1049	0.2286	0.9643	0.113
Mof_H 	H 	0.1073	0.2644	0.9952	-0.022
Mof_N 	N 	0.1539	0.2149	0.9213	-0.275
Mof_N 	N 	0.0683	0.1477	0.9076	-0.086
Mof_N 	N 	0.0536	0.1891	0.9605	-0.105
Mof_C 	C 	0.0102	0.4551	0.5552	0.016
Mof_C 	C 	0.023	0.4062	0.6141	-0.096
Mof_H 	H 	0.0431	0.4307	0.6519	0.071
Mof_H 	H 	0.9802	0.3869	0.6292	0.068
Mof_C 	C 	0.1291	0.3365	0.6155	0.078
Mof_H 	H 	0.1513	0.3577	0.6515	-0.027
Mof_C 	C 	0.1049	0.2714	0.5357	0.113
Mof_H 	H 	0.1073	0.2356	0.5048	-0.022
Mof_N 	N 	0.1539	0.2851	0.5787	-0.275
Mof_N 	N 	0.0683	0.3523	0.5924	-0.086
Mof_N 	N 	0.0536	0.3109	0.5395	-0.105
Mof_C 	C 	0.4898	0.0449	0.5552	0.016
Mof_C 	C 	0.477	0.0938	0.6141	-0.096
Mof_H 	H 	0.4569	0.0693	0.6519	0.071
Mof_H 	H 	0.5198	0.1131	0.6292	0.068
Mof_C 	C 	0.3709	0.1635	0.6155	0.078
Mof_H 	H 	0.3487	0.1423	0.6515	-0.027
Mof_C 	C 	0.3951	0.2286	0.5357	0.113
Mof_H 	H 	0.3927	0.2644	0.5048	-0.022
Mof_N 	N 	0.3461	0.2149	0.5787	-0.275
Mof_N 	N 	0.4317	0.1477	0.5924	-0.086
Mof_N 	N 	0.4464	0.1891	0.5395	-0.105
Mof_C 	C 	0.4898	0.4551	0.9448	0.016
Mof_C 	C 	0.477	0.4062	0.8859	-0.096
Mof_H 	H 	0.4569	0.4307	0.8481	0.071
Mof_H 	H 	0.5198	0.3869	0.8708	0.068
Mof_C 	C 	0.3709	0.3365	0.8845	0.078
Mof_H 	H 	0.3487	0.3577	0.8485	-0.027
Mof_C 	C 	0.3951	0.2714	0.9643	0.113
Mof_H 	H 	0.3927	0.2356	0.9952	-0.022
Mof_N 	N 	0.3461	0.2851	0.9213	-0.275
Mof_N 	N 	0.4317	0.3523	0.9076	-0.086
Mof_N 	N 	0.4464	0.3109	0.9605	-0.105
Mof_C 	C 	0.4448	0.9551	0.9898	0.016
Mof_C 	C 	0.3859	0.9062	0.977	-0.096
Mof_H 	H 	0.3481	0.9307	0.9569	0.071
Mof_H 	H 	0.3708	0.8869	0.0198	0.068
Mof_C 	C 	0.3845	0.8365	0.8709	0.078
Mof_H 	H 	0.3485	0.8577	0.8487	-0.027
Mof_C 	C 	0.4643	0.7714	0.8951	0.113
Mof_H 	H 	0.4952	0.7356	0.8927	-0.022
Mof_N 	N 	0.4213	0.7851	0.8461	-0.275
Mof_N 	N 	0.4076	0.8523	0.9317	-0.086
Mof_N 	N 	0.4605	0.8109	0.9464	-0.105
Mof_C 	C 	0.0552	0.5449	0.9898	0.016
Mof_C 	C 	0.1141	0.5938	0.977	-0.096
Mof_H 	H 	0.1519	0.5693	0.9569	0.071
Mof_H 	H 	0.1292	0.6131	0.0198	0.068
Mof_C 	C 	0.1155	0.6635	0.8709	0.078
Mof_H 	H 	0.1515	0.6423	0.8487	-0.027
Mof_C 	C 	0.0357	0.7286	0.8951	0.113
Mof_H 	H 	0.0048	0.7644	0.8927	-0.022
Mof_N 	N 	0.0787	0.7149	0.8461	-0.275
Mof_N 	N 	0.0924	0.6477	0.9317	-0.086
Mof_N 	N 	0.0395	0.6891	0.9464	-0.105
Mof_C 	C 	0.0552	0.9551	0.5102	0.016
Mof_C 	C 	0.1141	0.9062	0.523	-0.096
Mof_H 	H 	0.1519	0.9307	0.5431	0.071
Mof_H 	H 	0.1292	0.8869	0.4802	0.068
Mof_C 	C 	0.1155	0.8365	0.6291	0.078
Mof_H 	H 	0.1515	0.8577	0.6513	-0.027
Mof_C 	C 	0.0357	0.7714	0.6049	0.113
Mof_H 	H 	0.0048	0.7356	0.6073	-0.022
Mof_N 	N 	0.0787	0.7851	0.6539	-0.275
Mof_N 	N 	0.0924	0.8523	0.5683	-0.086
Mof_N 	N 	0.0395	0.8109	0.5536	-0.105
Mof_C 	C 	0.4448	0.5449	0.5102	0.016
Mof_C 	C 	0.3859	0.5938	0.523	-0.096
Mof_H 	H 	0.3481	0.5693	0.5431	0.071
Mof_H 	H 	0.3708	0.6131	0.4802	0.068
Mof_C 	C 	0.3845	0.6635	0.6291	0.078
Mof_H 	H 	0.3485	0.6423	0.6513	-0.027
Mof_C 	C 	0.4643	0.7286	0.6049	0.113
Mof_H 	H 	0.4952	0.7644	0.6073	-0.022
Mof_N 	N 	0.4213	0.7149	0.6539	-0.275
Mof_N 	N 	0.4076	0.6477	0.5683	-0.086
Mof_N 	N 	0.4605	0.6891	0.5536	-0.105
Mof_C 	C 	0.9898	0.4448	0.9551	0.016
Mof_C 	C 	0.977	0.3859	0.9062	-0.096
Mof_H 	H 	0.9569	0.3481	0.9307	0.071
Mof_H 	H 	0.0198	0.3708	0.8869	0.068
Mof_C 	C 	0.8709	0.3845	0.8365	0.078
Mof_H 	H 	0.8487	0.3485	0.8577	-0.027
Mof_C 	C 	0.8951	0.4643	0.7714	0.113
Mof_H 	H 	0.8927	0.4952	0.7356	-0.022
Mof_N 	N 	0.8461	0.4213	0.7851	-0.275
Mof_N 	N 	0.9317	0.4076	0.8523	-0.086
Mof_N 	N 	0.9464	0.4605	0.8109	-0.105
Mof_C 	C 	0.9898	0.0552	0.5449	0.016
Mof_C 	C 	0.977	0.1141	0.5938	-0.096
Mof_H 	H 	0.9569	0.1519	0.5693	0.071
Mof_H 	H 	0.0198	0.1292	0.6131	0.068
Mof_C 	C 	0.8709	0.1155	0.6635	0.078
Mof_H 	H 	0.8487	0.1515	0.6423	-0.027
Mof_C 	C 	0.8951	0.0357	0.7286	0.113
Mof_H 	H 	0.8927	0.0048	0.7644	-0.022
Mof_N 	N 	0.8461	0.0787	0.7149	-0.275
Mof_N 	N 	0.9317	0.0924	0.6477	-0.086
Mof_N 	N 	0.9464	0.0395	0.6891	-0.105
Mof_C 	C 	0.5102	0.0552	0.9551	0.016
Mof_C 	C 	0.523	0.1141	0.9062	-0.096
Mof_H 	H 	0.5431	0.1519	0.9307	0.071
Mof_H 	H 	0.4802	0.1292	0.8869	0.068
Mof_C 	C 	0.6291	0.1155	0.8365	0.078
Mof_H 	H 	0.6513	0.1515	0.8577	-0.027
Mof_C 	C 	0.6049	0.0357	0.7714	0.113
Mof_H 	H 	0.6073	0.0048	0.7356	-0.022
Mof_N 	N 	0.6539	0.0787	0.7851	-0.275
Mof_N 	N 	0.5683	0.0924	0.8523	-0.086
Mof_N 	N 	0.5536	0.0395	0.8109	-0.105
Mof_C 	C 	0.5102	0.4448	0.5449	0.016
Mof_C 	C 	0.523	0.3859	0.5938	-0.096
Mof_H 	H 	0.5431	0.3481	0.5693	0.071
Mof_H 	H 	0.4802	0.3708	0.6131	0.068
Mof_C 	C 	0.6291	0.3845	0.6635	0.078
Mof_H 	H 	0.6513	0.3485	0.6423	-0.027
Mof_C 	C 	0.6049	0.4643	0.7286	0.113
Mof_H 	H 	0.6073	0.4952	0.7644	-0.022
Mof_N 	N 	0.6539	0.4213	0.7149	-0.275
Mof_N 	N 	0.5683	0.4076	0.6477	-0.086
Mof_N 	N 	0.5536	0.4605	0.6891	-0.105
Mof_C 	C 	0.9551	0.9898	0.4448	0.016
Mof_C 	C 	0.9062	0.977	0.3859	-0.096
Mof_H 	H 	0.9307	0.9569	0.3481	0.071
Mof_H 	H 	0.8869	0.0198	0.3708	0.068
Mof_C 	C 	0.8365	0.8709	0.3845	0.078
Mof_H 	H 	0.8577	0.8487	0.3485	-0.027
Mof_C 	C 	0.7714	0.8951	0.4643	0.113
Mof_H 	H 	0.7356	0.8927	0.4952	-0.022
Mof_N 	N 	0.7851	0.8461	0.4213	-0.275
Mof_N 	N 	0.8523	0.9317	0.4076	-0.086
Mof_N 	N 	0.8109	0.9464	0.4605	-0.105
Mof_C 	C 	0.5449	0.9898	0.0552	0.016
Mof_C 	C 	0.5938	0.977	0.1141	-0.096
Mof_H 	H 	0.5693	0.9569	0.1519	0.071
Mof_H 	H 	0.6131	0.0198	0.1292	0.068
Mof_C 	C 	0.6635	0.8709	0.1155	0.078
Mof_H 	H 	0.6423	0.8487	0.1515	-0.027
Mof_C 	C 	0.7286	0.8951	0.0357	0.113
Mof_H 	H 	0.7644	0.8927	0.0048	-0.022
Mof_N 	N 	0.7149	0.8461	0.0787	-0.275
Mof_N 	N 	0.6477	0.9317	0.0924	-0.086
Mof_N 	N 	0.6891	0.9464	0.0395	-0.105
Mof_C 	C 	0.9551	0.5102	0.0552	0.016
Mof_C 	C 	0.9062	0.523	0.1141	-0.096
Mof_H 	H 	0.9307	0.5431	0.1519	0.071
Mof_H 	H 	0.8869	0.4802	0.1292	0.068
Mof_C 	C 	0.8365	0.6291	0.1155	0.078
Mof_H 	H 	0.8577	0.6513	0.1515	-0.027
Mof_C 	C 	0.7714	0.6049	0.0357	0.113
Mof_H 	H 	0.7356	0.6073	0.0048	-0.022
Mof_N 	N 	0.7851	0.6539	0.0787	-0.275
Mof_N 	N 	0.8523	0.5683	0.0924	-0.086
Mof_N 	N 	0.8109	0.5536	0.0395	-0.105
Mof_C 	C 	0.5449	0.5102	0.4448	0.016
Mof_C 	C 	0.5938	0.523	0.3859	-0.096
Mof_H 	H 	0.5693	0.5431	0.3481	0.071
Mof_H 	H 	0.6131	0.4802	0.3708	0.068
Mof_C 	C 	0.6635	0.6291	0.3845	0.078
Mof_H 	H 	0.6423	0.6513	0.3485	-0.027
Mof_C 	C 	0.7286	0.6049	0.4643	0.113
Mof_H 	H 	0.7644	0.6073	0.4952	-0.022
Mof_N 	N 	0.7149	0.6539	0.4213	-0.275
Mof_N 	N 	0.6477	0.5683	0.4076	-0.086
Mof_N 	N 	0.6891	0.5536	0.4605	-0.105
Mof_C 	C 	0.9551	0.4448	0.5102	0.016
Mof_C 	C 	0.9062	0.3859	0.523	-0.096
Mof_H 	H 	0.9307	0.3481	0.5431	0.071
Mof_H 	H 	0.8869	0.3708	0.4802	0.068
Mof_C 	C 	0.8365	0.3845	0.6291	0.078
Mof_H 	H 	0.8577	0.3485	0.6513	-0.027
Mof_C 	C 	0.7714	0.4643	0.6049	0.113
Mof_H 	H 	0.7356	0.4952	0.6073	-0.022
Mof_N 	N 	0.7851	0.4213	0.6539	-0.275
Mof_N 	N 	0.8523	0.4076	0.5683	-0.086
Mof_N 	N 	0.8109	0.4605	0.5536	-0.105
Mof_C 	C 	0.5449	0.0552	0.5102	0.016
Mof_C 	C 	0.5938	0.1141	0.523	-0.096
Mof_H 	H 	0.5693	0.1519	0.5431	0.071
Mof_H 	H 	0.6131	0.1292	0.4802	0.068
Mof_C 	C 	0.6635	0.1155	0.6291	0.078
Mof_H 	H 	0.6423	0.1515	0.6513	-0.027
Mof_C 	C 	0.7286	0.0357	0.6049	0.113
Mof_H 	H 	0.7644	0.0048	0.6073	-0.022
Mof_N 	N 	0.7149	0.0787	0.6539	-0.275
Mof_N 	N 	0.6477	0.0924	0.5683	-0.086
Mof_N 	N 	0.6891	0.0395	0.5536	-0.105
Mof_C 	C 	0.9551	0.0552	0.9898	0.016
Mof_C 	C 	0.9062	0.1141	0.977	-0.096
Mof_H 	H 	0.9307	0.1519	0.9569	0.071
Mof_H 	H 	0.8869	0.1292	0.0198	0.068
Mof_C 	C 	0.8365	0.1155	0.8709	0.078
Mof_H 	H 	0.8577	0.1515	0.8487	-0.027
Mof_C 	C 	0.7714	0.0357	0.8951	0.113
Mof_H 	H 	0.7356	0.0048	0.8927	-0.022
Mof_N 	N 	0.7851	0.0787	0.8461	-0.275
Mof_N 	N 	0.8523	0.0924	0.9317	-0.086
Mof_N 	N 	0.8109	0.0395	0.9464	-0.105
Mof_C 	C 	0.5449	0.4448	0.9898	0.016
Mof_C 	C 	0.5938	0.3859	0.977	-0.096
Mof_H 	H 	0.5693	0.3481	0.9569	0.071
Mof_H 	H 	0.6131	0.3708	0.0198	0.068
Mof_C 	C 	0.6635	0.3845	0.8709	0.078
Mof_H 	H 	0.6423	0.3485	0.8487	-0.027
Mof_C 	C 	0.7286	0.4643	0.8951	0.113
Mof_H 	H 	0.7644	0.4952	0.8927	-0.022
Mof_N 	N 	0.7149	0.4213	0.8461	-0.275
Mof_N 	N 	0.6477	0.4076	0.9317	-0.086
Mof_N 	N 	0.6891	0.4605	0.9464	-0.105
Mof_C 	C 	0.4448	0.9898	0.5449	0.016
Mof_C 	C 	0.3859	0.977	0.5938	-0.096
Mof_H 	H 	0.3481	0.9569	0.5693	0.071
Mof_H 	H 	0.3708	0.0198	0.6131	0.068
Mof_C 	C 	0.3845	0.8709	0.6635	0.078
Mof_H 	H 	0.3485	0.8487	0.6423	-0.027
Mof_C 	C 	0.4643	0.8951	0.7286	0.113
Mof_H 	H 	0.4952	0.8927	0.7644	-0.022
Mof_N 	N 	0.4213	0.8461	0.7149	-0.275
Mof_N 	N 	0.4076	0.9317	0.6477	-0.086
Mof_N 	N 	0.4605	0.9464	0.6891	-0.105
Mof_C 	C 	0.0552	0.9898	0.9551	0.016
Mof_C 	C 	0.1141	0.977	0.9062	-0.096
Mof_H 	H 	0.1519	0.9569	0.9307	0.071
Mof_H 	H 	0.1292	0.0198	0.8869	0.068
Mof_C 	C 	0.1155	0.8709	0.8365	0.078
Mof_H 	H 	0.1515	0.8487	0.8577	-0.027
Mof_C 	C 	0.0357	0.8951	0.7714	0.113
Mof_H 	H 	0.0048	0.8927	0.7356	-0.022
Mof_N 	N 	0.0787	0.8461	0.7851	-0.275
Mof_N 	N 	0.0924	0.9317	0.8523	-0.086
Mof_N 	N 	0.0395	0.9464	0.8109	-0.105
Mof_C 	C 	0.0552	0.5102	0.5449	0.016
Mof_C 	C 	0.1141	0.523	0.5938	-0.096
Mof_H 	H 	0.1519	0.5431	0.5693	0.071
Mof_H 	H 	0.1292	0.4802	0.6131	0.068
Mof_C 	C 	0.1155	0.6291	0.6635	0.078
Mof_H 	H 	0.1515	0.6513	0.6423	-0.027
Mof_C 	C 	0.0357	0.6049	0.7286	0.113
Mof_H 	H 	0.0048	0.6073	0.7644	-0.022
Mof_N 	N 	0.0787	0.6539	0.7149	-0.275
Mof_N 	N 	0.0924	0.5683	0.6477	-0.086
Mof_N 	N 	0.0395	0.5536	0.6891	-0.105
Mof_C 	C 	0.4448	0.5102	0.9551	0.016
Mof_C 	C 	0.3859	0.523	0.9062	-0.096
Mof_H 	H 	0.3481	0.5431	0.9307	0.071
Mof_H 	H 	0.3708	0.4802	0.8869	0.068
Mof_C 	C 	0.3845	0.6291	0.8365	0.078
Mof_H 	H 	0.3485	0.6513	0.8577	-0.027
Mof_C 	C 	0.4643	0.6049	0.7714	0.113
Mof_H 	H 	0.4952	0.6073	0.7356	-0.022
Mof_N 	N 	0.4213	0.6539	0.7851	-0.275
Mof_N 	N 	0.4076	0.5683	0.8523	-0.086
Mof_N 	N 	0.4605	0.5536	0.8109	-0.105
Mof_C 	C 	0.9898	0.9551	0.0552	0.016
Mof_C 	C 	0.977	0.9062	0.1141	-0.096
Mof_H 	H 	0.9569	0.9307	0.1519	0.071
Mof_H 	H 	0.0198	0.8869	0.1292	0.068
Mof_C 	C 	0.8709	0.8365	0.1155	0.078
Mof_H 	H 	0.8487	0.8577	0.1515	-0.027
Mof_C 	C 	0.8951	0.7714	0.0357	0.113
Mof_H 	H 	0.8927	0.7356	0.0048	-0.022
Mof_N 	N 	0.8461	0.7851	0.0787	-0.275
Mof_N 	N 	0.9317	0.8523	0.0924	-0.086
Mof_N 	N 	0.9464	0.8109	0.0395	-0.105
Mof_C 	C 	0.9898	0.5449	0.4448	0.016
Mof_C 	C 	0.977	0.5938	0.3859	-0.096
Mof_H 	H 	0.9569	0.5693	0.3481	0.071
Mof_H 	H 	0.0198	0.6131	0.3708	0.068
Mof_C 	C 	0.8709	0.6635	0.3845	0.078
Mof_H 	H 	0.8487	0.6423	0.3485	-0.027
Mof_C 	C 	0.8951	0.7286	0.4643	0.113
Mof_H 	H 	0.8927	0.7644	0.4952	-0.022
Mof_N 	N 	0.8461	0.7149	0.4213	-0.275
Mof_N 	N 	0.9317	0.6477	0.4076	-0.086
Mof_N 	N 	0.9464	0.6891	0.4605	-0.105
Mof_C 	C 	0.5102	0.9551	0.4448	0.016
Mof_C 	C 	0.523	0.9062	0.3859	-0.096
Mof_H 	H 	0.5431	0.9307	0.3481	0.071
Mof_H 	H 	0.4802	0.8869	0.3708	0.068
Mof_C 	C 	0.6291	0.8365	0.3845	0.078
Mof_H 	H 	0.6513	0.8577	0.3485	-0.027
Mof_C 	C 	0.6049	0.7714	0.4643	0.113
Mof_H 	H 	0.6073	0.7356	0.4952	-0.022
Mof_N 	N 	0.6539	0.7851	0.4213	-0.275
Mof_N 	N 	0.5683	0.8523	0.4076	-0.086
Mof_N 	N 	0.5536	0.8109	0.4605	-0.105
Mof_C 	C 	0.5102	0.5449	0.0552	0.016
Mof_C 	C 	0.523	0.5938	0.1141	-0.096
Mof_H 	H 	0.5431	0.5693	0.1519	0.071
Mof_H 	H 	0.4802	0.6131	0.1292	0.068
Mof_C 	C 	0.6291	0.6635	0.1155	0.078
Mof_H 	H 	0.6513	0.6423	0.1515	-0.027
Mof_C 	C 	0.6049	0.7286	0.0357	0.113
Mof_H 	H 	0.6073	0.7644	0.0048	-0.022
Mof_N 	N 	0.6539	0.7149	0.0787	-0.275
Mof_N 	N 	0.5683	0.6477	0.0924	-0.086
Mof_N 	N 	0.5536	0.6891	0.0395	-0.105
Mof_Cu	Cu	0.5674	0.25	0.25	0.539
Mof_Cu	Cu	0.6066	0.25	0.25	0.515
Mof_Cu	Cu	0.9326	0.25	0.25	0.539
Mof_Cu	Cu	0.8934	0.25	0.25	0.515
Mof_Cu	Cu	0.25	0.5674	0.25	0.539
Mof_Cu	Cu	0.25	0.6066	0.25	0.515
Mof_Cu	Cu	0.25	0.9326	0.25	0.539
Mof_Cu	Cu	0.25	0.8934	0.25	0.515
Mof_Cu	Cu	0.25	0.25	0.5674	0.539
Mof_Cu	Cu	0.25	0.25	0.6066	0.515
Mof_Cu	Cu	0.25	0.25	0.9326	0.539
Mof_Cu	Cu	0.25	0.25	0.8934	0.515
Mof_Cu	Cu	0.4326	0.75	0.75	0.539
Mof_Cu	Cu	0.3934	0.75	0.75	0.515
Mof_Cu	Cu	0.0674	0.75	0.75	0.539
Mof_Cu	Cu	0.1066	0.75	0.75	0.515
Mof_Cu	Cu	0.75	0.4326	0.75	0.539
Mof_Cu	Cu	0.75	0.3934	0.75	0.515
Mof_Cu	Cu	0.75	0.0674	0.75	0.539
Mof_Cu	Cu	0.75	0.1066	0.75	0.515
Mof_Cu	Cu	0.75	0.75	0.4326	0.539
Mof_Cu	Cu	0.75	0.75	0.3934	0.515
Mof_Cu	Cu	0.75	0.75	0.0674	0.539
Mof_Cu	Cu	0.75	0.75	0.1066	0.515
_end
