data_functionalizedCrystal
_audit_creation_method	'EQeq! by Chris Wilmer'
_symmetry_space_group_name_H-M	'P1'
_symmetry_Int_Tables_number	1
_symmetry_cell_setting	triclinic
loop_
_symmetry_equiv_pos_as_xyz
  x,y,z
_cell_length_a	30.0968
_cell_length_b	30.0968
_cell_length_c	30.0968
_cell_angle_alpha	90
_cell_angle_beta	90
_cell_angle_gamma	90
loop_
_atom_site_label
_atom_site_type_symbol
_atom_site_fract_x
_atom_site_fract_y
_atom_site_fract_z
_atom_site_charge
Mof_Cu	Cu	0.04574	0.57552	0.48487	0.86
Mof_Cl	Cl	0.0558	0.62062	0.42425	-0.458
Mof_N 	N 	0.98833	0.60654	0.49803	-0.209
Mof_N 	N 	0.09649	0.53712	0.46616	-0.211
Mof_N 	N 	0.93347	0.65205	0.50507	-0.085
Mof_C 	C 	0.96877	0.64021	0.4794	0.09
Mof_H 	H 	0.9776	0.6543	0.4522	0.047
Mof_C 	C 	0.1241	0.54077	0.43268	0.088
Mof_H 	H 	0.1245	0.5644	0.4113	0.075
Mof_Cu	Cu	0.20426	0.17448	0.98487	0.86
Mof_Cl	Cl	0.1942	0.12938	0.92425	-0.458
Mof_N 	N 	0.26167	0.14346	0.99803	-0.209
Mof_N 	N 	0.15351	0.21288	0.96616	-0.211
Mof_N 	N 	0.31653	0.09795	0.00507	-0.084
Mof_C 	C 	0.28123	0.10979	0.9794	0.089
Mof_H 	H 	0.2724	0.0957	0.9522	0.047
Mof_C 	C 	0.1259	0.20923	0.93268	0.088
Mof_H 	H 	0.1255	0.1856	0.9113	0.075
Mof_Cu	Cu	0.70426	0.07552	0.76513	0.86
Mof_Cl	Cl	0.6942	0.12062	0.82575	-0.458
Mof_N 	N 	0.76167	0.10654	0.75197	-0.209
Mof_N 	N 	0.65351	0.03712	0.78384	-0.211
Mof_N 	N 	0.81653	0.15205	0.74493	-0.085
Mof_C 	C 	0.78123	0.14021	0.7706	0.09
Mof_H 	H 	0.7724	0.1543	0.7978	0.046
Mof_C 	C 	0.6259	0.04077	0.81732	0.087
Mof_H 	H 	0.6255	0.0644	0.8387	0.074
Mof_Cu	Cu	0.54574	0.67448	0.26513	0.859
Mof_Cl	Cl	0.5558	0.62938	0.32575	-0.459
Mof_N 	N 	0.48833	0.64346	0.25197	-0.21
Mof_N 	N 	0.59649	0.71288	0.28384	-0.212
Mof_N 	N 	0.43347	0.59795	0.24493	-0.086
Mof_C 	C 	0.46877	0.60979	0.2706	0.089
Mof_H 	H 	0.4776	0.5957	0.2978	0.046
Mof_C 	C 	0.6241	0.70923	0.31732	0.087
Mof_H 	H 	0.6245	0.6856	0.3387	0.074
Mof_Cu	Cu	0.98487	0.54574	0.57552	0.859
Mof_Cl	Cl	0.92425	0.5558	0.62062	-0.459
Mof_N 	N 	0.99803	0.48833	0.60654	-0.21
Mof_N 	N 	0.96616	0.59649	0.53712	-0.212
Mof_N 	N 	0.00507	0.43347	0.65205	-0.086
Mof_C 	C 	0.9794	0.46877	0.64021	0.089
Mof_H 	H 	0.9522	0.4776	0.6543	0.046
Mof_C 	C 	0.93268	0.6241	0.54077	0.087
Mof_H 	H 	0.9113	0.6245	0.5644	0.074
Mof_Cu	Cu	0.48487	0.70426	0.17448	0.859
Mof_Cl	Cl	0.42425	0.6942	0.12938	-0.459
Mof_N 	N 	0.49803	0.76167	0.14346	-0.21
Mof_N 	N 	0.46616	0.65351	0.21288	-0.212
Mof_N 	N 	0.50507	0.81653	0.09795	-0.086
Mof_C 	C 	0.4794	0.78123	0.10979	0.089
Mof_H 	H 	0.4522	0.7724	0.0957	0.046
Mof_C 	C 	0.43268	0.6259	0.20923	0.087
Mof_H 	H 	0.4113	0.6255	0.1856	0.074
Mof_Cu	Cu	0.26513	0.20426	0.07552	0.859
Mof_Cl	Cl	0.32575	0.1942	0.12062	-0.459
Mof_N 	N 	0.25197	0.26167	0.10654	-0.21
Mof_N 	N 	0.28384	0.15351	0.03712	-0.211
Mof_N 	N 	0.24493	0.31653	0.15205	-0.086
Mof_C 	C 	0.2706	0.28123	0.14021	0.089
Mof_H 	H 	0.2978	0.2724	0.1543	0.046
Mof_C 	C 	0.31732	0.1259	0.04077	0.087
Mof_H 	H 	0.3387	0.1255	0.0644	0.074
Mof_Cu	Cu	0.76513	0.04574	0.67448	0.859
Mof_Cl	Cl	0.82575	0.0558	0.62938	-0.459
Mof_N 	N 	0.75197	0.98833	0.64346	-0.21
Mof_N 	N 	0.78384	0.09649	0.71288	-0.212
Mof_N 	N 	0.74493	0.93347	0.59795	-0.086
Mof_C 	C 	0.7706	0.96877	0.60979	0.089
Mof_H 	H 	0.7978	0.9776	0.5957	0.046
Mof_C 	C 	0.81732	0.1241	0.70923	0.087
Mof_H 	H 	0.8387	0.1245	0.6856	0.074
Mof_Cu	Cu	0.07552	0.48487	0.54574	0.859
Mof_Cl	Cl	0.12062	0.42425	0.5558	-0.459
Mof_N 	N 	0.10654	0.49803	0.48833	-0.21
Mof_N 	N 	0.03712	0.46616	0.59649	-0.212
Mof_N 	N 	0.15205	0.50507	0.43347	-0.086
Mof_C 	C 	0.14021	0.4794	0.46877	0.089
Mof_H 	H 	0.1543	0.4522	0.4776	0.046
Mof_C 	C 	0.04077	0.43268	0.6241	0.087
Mof_H 	H 	0.0644	0.4113	0.6245	0.074
Mof_Cu	Cu	0.67448	0.98487	0.70426	0.859
Mof_Cl	Cl	0.62938	0.92425	0.6942	-0.459
Mof_N 	N 	0.64346	0.99803	0.76167	-0.21
Mof_N 	N 	0.71288	0.96616	0.65351	-0.212
Mof_N 	N 	0.59795	0.00507	0.81653	-0.086
Mof_C 	C 	0.60979	0.9794	0.78123	0.089
Mof_H 	H 	0.5957	0.9522	0.7724	0.046
Mof_C 	C 	0.70923	0.93268	0.6259	0.087
Mof_H 	H 	0.6856	0.9113	0.6255	0.074
Mof_Cu	Cu	0.57552	0.76513	0.20426	0.859
Mof_Cl	Cl	0.62062	0.82575	0.1942	-0.459
Mof_N 	N 	0.60654	0.75197	0.26167	-0.21
Mof_N 	N 	0.53712	0.78384	0.15351	-0.212
Mof_N 	N 	0.65205	0.74493	0.31653	-0.086
Mof_C 	C 	0.64021	0.7706	0.28123	0.089
Mof_H 	H 	0.6543	0.7978	0.2724	0.046
Mof_C 	C 	0.54077	0.81732	0.1259	0.087
Mof_H 	H 	0.5644	0.8387	0.1255	0.074
Mof_Cu	Cu	0.17448	0.26513	0.04574	0.859
Mof_Cl	Cl	0.12938	0.32575	0.0558	-0.458
Mof_N 	N 	0.14346	0.25197	0.98833	-0.21
Mof_N 	N 	0.21288	0.28384	0.09649	-0.212
Mof_N 	N 	0.09795	0.24493	0.93347	-0.086
Mof_C 	C 	0.10979	0.2706	0.96877	0.089
Mof_H 	H 	0.0957	0.2978	0.9776	0.046
Mof_C 	C 	0.20923	0.31732	0.1241	0.087
Mof_H 	H 	0.1856	0.3387	0.1245	0.074
Mof_Cu	Cu	0.82552	0.79574	0.51513	0.859
Mof_Cl	Cl	0.87062	0.8058	0.57575	-0.459
Mof_N 	N 	0.85654	0.73833	0.50197	-0.21
Mof_N 	N 	0.78712	0.84649	0.53384	-0.212
Mof_N 	N 	0.90205	0.68347	0.49493	-0.086
Mof_C 	C 	0.89021	0.71877	0.5206	0.089
Mof_H 	H 	0.9043	0.7276	0.5478	0.046
Mof_C 	C 	0.79077	0.8741	0.56732	0.087
Mof_H 	H 	0.8144	0.8745	0.5887	0.074
Mof_Cu	Cu	0.42448	0.95426	0.01513	0.858
Mof_Cl	Cl	0.37938	0.9442	0.07575	-0.459
Mof_N 	N 	0.39346	0.01167	0.00197	-0.21
Mof_N 	N 	0.46288	0.90351	0.03384	-0.212
Mof_N 	N 	0.34795	0.06653	0.99493	-0.086
Mof_C 	C 	0.35979	0.03123	0.0206	0.09
Mof_H 	H 	0.3457	0.0224	0.0478	0.046
Mof_C 	C 	0.45923	0.8759	0.06732	0.087
Mof_H 	H 	0.4356	0.8755	0.0887	0.074
Mof_Cu	Cu	0.32552	0.45426	0.23487	0.859
Mof_Cl	Cl	0.37062	0.4442	0.17425	-0.459
Mof_N 	N 	0.35654	0.51167	0.24803	-0.21
Mof_N 	N 	0.28712	0.40351	0.21616	-0.212
Mof_N 	N 	0.40205	0.56653	0.25507	-0.086
Mof_C 	C 	0.39021	0.53123	0.2294	0.089
Mof_H 	H 	0.4043	0.5224	0.2022	0.046
Mof_C 	C 	0.29077	0.3759	0.18268	0.087
Mof_H 	H 	0.3144	0.3755	0.1613	0.074
Mof_Cu	Cu	0.92448	0.29574	0.73487	0.859
Mof_Cl	Cl	0.87938	0.3058	0.67425	-0.459
Mof_N 	N 	0.89346	0.23833	0.74803	-0.21
Mof_N 	N 	0.96288	0.34649	0.71616	-0.212
Mof_N 	N 	0.84795	0.18347	0.75507	-0.086
Mof_C 	C 	0.85979	0.21877	0.7294	0.089
Mof_H 	H 	0.8457	0.2276	0.7022	0.046
Mof_C 	C 	0.95923	0.3741	0.68268	0.087
Mof_H 	H 	0.9356	0.3745	0.6613	0.074
Mof_Cu	Cu	0.79574	0.73487	0.42448	0.859
Mof_Cl	Cl	0.8058	0.67425	0.37938	-0.459
Mof_N 	N 	0.73833	0.74803	0.39346	-0.21
Mof_N 	N 	0.84649	0.71616	0.46288	-0.212
Mof_N 	N 	0.68347	0.75507	0.34795	-0.086
Mof_C 	C 	0.71877	0.7294	0.35979	0.089
Mof_H 	H 	0.7276	0.7022	0.3457	0.046
Mof_C 	C 	0.8741	0.68268	0.45923	0.087
Mof_H 	H 	0.8745	0.6613	0.4356	0.074
Mof_Cu	Cu	0.95426	0.23487	0.82552	0.859
Mof_Cl	Cl	0.9442	0.17425	0.87062	-0.459
Mof_N 	N 	0.01167	0.24803	0.85654	-0.21
Mof_N 	N 	0.90351	0.21616	0.78712	-0.212
Mof_N 	N 	0.06653	0.25507	0.90205	-0.086
Mof_C 	C 	0.03123	0.2294	0.89021	0.089
Mof_H 	H 	0.0224	0.2022	0.9043	0.046
Mof_C 	C 	0.8759	0.18268	0.79077	0.087
Mof_H 	H 	0.8755	0.1613	0.8144	0.074
Mof_Cu	Cu	0.45426	0.01513	0.92448	0.859
Mof_Cl	Cl	0.4442	0.07575	0.87938	-0.459
Mof_N 	N 	0.51167	0.00197	0.89346	-0.21
Mof_N 	N 	0.40351	0.03384	0.96288	-0.212
Mof_N 	N 	0.56653	0.99493	0.84795	-0.085
Mof_C 	C 	0.53123	0.0206	0.85979	0.089
Mof_H 	H 	0.5224	0.0478	0.8457	0.046
Mof_C 	C 	0.3759	0.06732	0.95923	0.087
Mof_H 	H 	0.3755	0.0887	0.9356	0.074
Mof_Cu	Cu	0.29574	0.51513	0.32552	0.859
Mof_Cl	Cl	0.3058	0.57575	0.37062	-0.459
Mof_N 	N 	0.23833	0.50197	0.35654	-0.21
Mof_N 	N 	0.34649	0.53384	0.28712	-0.212
Mof_N 	N 	0.18347	0.49493	0.40205	-0.086
Mof_C 	C 	0.21877	0.5206	0.39021	0.089
Mof_H 	H 	0.2276	0.5478	0.4043	0.046
Mof_C 	C 	0.3741	0.56732	0.29077	0.087
Mof_H 	H 	0.3745	0.5887	0.3144	0.074
Mof_Cu	Cu	0.73487	0.82552	0.45426	0.859
Mof_Cl	Cl	0.67425	0.87062	0.4442	-0.459
Mof_N 	N 	0.74803	0.85654	0.51167	-0.21
Mof_N 	N 	0.71616	0.78712	0.40351	-0.212
Mof_N 	N 	0.75507	0.90205	0.56653	-0.086
Mof_C 	C 	0.7294	0.89021	0.53123	0.089
Mof_H 	H 	0.7022	0.9043	0.5224	0.046
Mof_C 	C 	0.68268	0.79077	0.3759	0.087
Mof_H 	H 	0.6613	0.8144	0.3755	0.074
Mof_Cu	Cu	0.23487	0.42448	0.29574	0.859
Mof_Cl	Cl	0.17425	0.37938	0.3058	-0.459
Mof_N 	N 	0.24803	0.39346	0.23833	-0.21
Mof_N 	N 	0.21616	0.46288	0.34649	-0.212
Mof_N 	N 	0.25507	0.34795	0.18347	-0.086
Mof_C 	C 	0.2294	0.35979	0.21877	0.089
Mof_H 	H 	0.2022	0.3457	0.2276	0.046
Mof_C 	C 	0.18268	0.45923	0.3741	0.087
Mof_H 	H 	0.1613	0.4356	0.3745	0.074
Mof_Cu	Cu	0.01513	0.32552	0.79574	0.859
Mof_Cl	Cl	0.07575	0.37062	0.8058	-0.459
Mof_N 	N 	0.00197	0.35654	0.73833	-0.21
Mof_N 	N 	0.03384	0.28712	0.84649	-0.212
Mof_N 	N 	0.99493	0.40205	0.68347	-0.086
Mof_C 	C 	0.0206	0.39021	0.71877	0.089
Mof_H 	H 	0.0478	0.4043	0.7276	0.046
Mof_C 	C 	0.06732	0.29077	0.8741	0.087
Mof_H 	H 	0.0887	0.3144	0.8745	0.074
Mof_Cu	Cu	0.51513	0.92448	0.95426	0.859
Mof_Cl	Cl	0.57575	0.87938	0.9442	-0.458
Mof_N 	N 	0.50197	0.89346	0.01167	-0.21
Mof_N 	N 	0.53384	0.96288	0.90351	-0.212
Mof_N 	N 	0.49493	0.84795	0.06653	-0.086
Mof_C 	C 	0.5206	0.85979	0.03123	0.089
Mof_H 	H 	0.5478	0.8457	0.0224	0.046
Mof_C 	C 	0.56732	0.95923	0.8759	0.087
Mof_H 	H 	0.5887	0.9356	0.8755	0.074
Mof_O 	O 	0.02604	0.52604	0.52604	-0.723
Mof_H 	H 	0.0097	0.5097	0.5097	0.159
Mof_O 	O 	0.22396	0.22396	0.02604	-0.723
Mof_H 	H 	0.2403	0.2403	0.0097	0.159
Mof_O 	O 	0.72396	0.02604	0.72396	-0.723
Mof_H 	H 	0.7403	0.0097	0.7403	0.158
Mof_O 	O 	0.52604	0.72396	0.22396	-0.723
Mof_H 	H 	0.5097	0.7403	0.2403	0.158
Mof_O 	O 	0.97396	0.27604	0.77604	-0.723
Mof_H 	H 	0.9903	0.2597	0.7597	0.158
Mof_O 	O 	0.77604	0.77604	0.47396	-0.723
Mof_H 	H 	0.7597	0.7597	0.4903	0.158
Mof_O 	O 	0.47396	0.97396	0.97396	-0.723
Mof_H 	H 	0.4903	0.9903	0.9903	0.159
Mof_O 	O 	0.27604	0.47396	0.27604	-0.723
Mof_H 	H 	0.2597	0.4903	0.2597	0.158
Mof_Cu	Cu	0.04574	0.07552	0.98487	0.858
Mof_Cl	Cl	0.0558	0.12062	0.92425	-0.459
Mof_N 	N 	0.98833	0.10654	0.99803	-0.21
Mof_N 	N 	0.09649	0.03712	0.96616	-0.212
Mof_N 	N 	0.93347	0.15205	0.00507	-0.086
Mof_C 	C 	0.96877	0.14021	0.9794	0.089
Mof_H 	H 	0.9776	0.1543	0.9522	0.046
Mof_C 	C 	0.1241	0.04077	0.93268	0.087
Mof_H 	H 	0.1245	0.0644	0.9113	0.074
Mof_Cu	Cu	0.20426	0.67448	0.48487	0.859
Mof_Cl	Cl	0.1942	0.62938	0.42425	-0.459
Mof_N 	N 	0.26167	0.64346	0.49803	-0.21
Mof_N 	N 	0.15351	0.71288	0.46616	-0.212
Mof_N 	N 	0.31653	0.59795	0.50507	-0.086
Mof_C 	C 	0.28123	0.60979	0.4794	0.089
Mof_H 	H 	0.2724	0.5957	0.4522	0.046
Mof_C 	C 	0.1259	0.70923	0.43268	0.087
Mof_H 	H 	0.1255	0.6856	0.4113	0.074
Mof_Cu	Cu	0.70426	0.57552	0.26513	0.859
Mof_Cl	Cl	0.6942	0.62062	0.32575	-0.459
Mof_N 	N 	0.76167	0.60654	0.25197	-0.21
Mof_N 	N 	0.65351	0.53712	0.28384	-0.212
Mof_N 	N 	0.81653	0.65205	0.24493	-0.086
Mof_C 	C 	0.78123	0.64021	0.2706	0.089
Mof_H 	H 	0.7724	0.6543	0.2978	0.046
Mof_C 	C 	0.6259	0.54077	0.31732	0.087
Mof_H 	H 	0.6255	0.5644	0.3387	0.074
Mof_Cu	Cu	0.54574	0.17448	0.76513	0.859
Mof_Cl	Cl	0.5558	0.12938	0.82575	-0.459
Mof_N 	N 	0.48833	0.14346	0.75197	-0.21
Mof_N 	N 	0.59649	0.21288	0.78384	-0.212
Mof_N 	N 	0.43347	0.09795	0.74493	-0.086
Mof_C 	C 	0.46877	0.10979	0.7706	0.089
Mof_H 	H 	0.4776	0.0957	0.7978	0.046
Mof_C 	C 	0.6241	0.20923	0.81732	0.087
Mof_H 	H 	0.6245	0.1856	0.8387	0.074
Mof_Cu	Cu	0.98487	0.04574	0.07552	0.858
Mof_Cl	Cl	0.92425	0.0558	0.12062	-0.459
Mof_N 	N 	0.99803	0.98833	0.10654	-0.21
Mof_N 	N 	0.96616	0.09649	0.03712	-0.212
Mof_N 	N 	0.00507	0.93347	0.15205	-0.086
Mof_C 	C 	0.9794	0.96877	0.14021	0.089
Mof_H 	H 	0.9522	0.9776	0.1543	0.046
Mof_C 	C 	0.93268	0.1241	0.04077	0.087
Mof_H 	H 	0.9113	0.1245	0.0644	0.074
Mof_Cu	Cu	0.48487	0.20426	0.67448	0.859
Mof_Cl	Cl	0.42425	0.1942	0.62938	-0.459
Mof_N 	N 	0.49803	0.26167	0.64346	-0.21
Mof_N 	N 	0.46616	0.15351	0.71288	-0.212
Mof_N 	N 	0.50507	0.31653	0.59795	-0.086
Mof_C 	C 	0.4794	0.28123	0.60979	0.089
Mof_H 	H 	0.4522	0.2724	0.5957	0.046
Mof_C 	C 	0.43268	0.1259	0.70923	0.087
Mof_H 	H 	0.4113	0.1255	0.6856	0.074
Mof_Cu	Cu	0.26513	0.70426	0.57552	0.859
Mof_Cl	Cl	0.32575	0.6942	0.62062	-0.459
Mof_N 	N 	0.25197	0.76167	0.60654	-0.21
Mof_N 	N 	0.28384	0.65351	0.53712	-0.212
Mof_N 	N 	0.24493	0.81653	0.65205	-0.086
Mof_C 	C 	0.2706	0.78123	0.64021	0.089
Mof_H 	H 	0.2978	0.7724	0.6543	0.046
Mof_C 	C 	0.31732	0.6259	0.54077	0.087
Mof_H 	H 	0.3387	0.6255	0.5644	0.074
Mof_Cu	Cu	0.76513	0.54574	0.17448	0.859
Mof_Cl	Cl	0.82575	0.5558	0.12938	-0.459
Mof_N 	N 	0.75197	0.48833	0.14346	-0.21
Mof_N 	N 	0.78384	0.59649	0.21288	-0.212
Mof_N 	N 	0.74493	0.43347	0.09795	-0.086
Mof_C 	C 	0.7706	0.46877	0.10979	0.089
Mof_H 	H 	0.7978	0.4776	0.0957	0.046
Mof_C 	C 	0.81732	0.6241	0.20923	0.087
Mof_H 	H 	0.8387	0.6245	0.1856	0.074
Mof_Cu	Cu	0.07552	0.98487	0.04574	0.858
Mof_Cl	Cl	0.12062	0.92425	0.0558	-0.459
Mof_N 	N 	0.10654	0.99803	0.98833	-0.21
Mof_N 	N 	0.03712	0.96616	0.09649	-0.212
Mof_N 	N 	0.15205	0.00507	0.93347	-0.086
Mof_C 	C 	0.14021	0.9794	0.96877	0.089
Mof_H 	H 	0.1543	0.9522	0.9776	0.046
Mof_C 	C 	0.04077	0.93268	0.1241	0.087
Mof_H 	H 	0.0644	0.9113	0.1245	0.074
Mof_Cu	Cu	0.67448	0.48487	0.20426	0.859
Mof_Cl	Cl	0.62938	0.42425	0.1942	-0.459
Mof_N 	N 	0.64346	0.49803	0.26167	-0.21
Mof_N 	N 	0.71288	0.46616	0.15351	-0.212
Mof_N 	N 	0.59795	0.50507	0.31653	-0.086
Mof_C 	C 	0.60979	0.4794	0.28123	0.089
Mof_H 	H 	0.5957	0.4522	0.2724	0.046
Mof_C 	C 	0.70923	0.43268	0.1259	0.087
Mof_H 	H 	0.6856	0.4113	0.1255	0.074
Mof_Cu	Cu	0.57552	0.26513	0.70426	0.859
Mof_Cl	Cl	0.62062	0.32575	0.6942	-0.459
Mof_N 	N 	0.60654	0.25197	0.76167	-0.21
Mof_N 	N 	0.53712	0.28384	0.65351	-0.212
Mof_N 	N 	0.65205	0.24493	0.81653	-0.086
Mof_C 	C 	0.64021	0.2706	0.78123	0.089
Mof_H 	H 	0.6543	0.2978	0.7724	0.046
Mof_C 	C 	0.54077	0.31732	0.6259	0.087
Mof_H 	H 	0.5644	0.3387	0.6255	0.074
Mof_Cu	Cu	0.17448	0.76513	0.54574	0.859
Mof_Cl	Cl	0.12938	0.82575	0.5558	-0.459
Mof_N 	N 	0.14346	0.75197	0.48833	-0.21
Mof_N 	N 	0.21288	0.78384	0.59649	-0.212
Mof_N 	N 	0.09795	0.74493	0.43347	-0.086
Mof_C 	C 	0.10979	0.7706	0.46877	0.089
Mof_H 	H 	0.0957	0.7978	0.4776	0.046
Mof_C 	C 	0.20923	0.81732	0.6241	0.087
Mof_H 	H 	0.1856	0.8387	0.6245	0.074
Mof_Cu	Cu	0.82552	0.29574	0.01513	0.859
Mof_Cl	Cl	0.87062	0.3058	0.07575	-0.459
Mof_N 	N 	0.85654	0.23833	0.00197	-0.21
Mof_N 	N 	0.78712	0.34649	0.03384	-0.212
Mof_N 	N 	0.90205	0.18347	0.99493	-0.086
Mof_C 	C 	0.89021	0.21877	0.0206	0.089
Mof_H 	H 	0.9043	0.2276	0.0478	0.046
Mof_C 	C 	0.79077	0.3741	0.06732	0.087
Mof_H 	H 	0.8144	0.3745	0.0887	0.074
Mof_Cu	Cu	0.42448	0.45426	0.51513	0.859
Mof_Cl	Cl	0.37938	0.4442	0.57575	-0.459
Mof_N 	N 	0.39346	0.51167	0.50197	-0.21
Mof_N 	N 	0.46288	0.40351	0.53384	-0.212
Mof_N 	N 	0.34795	0.56653	0.49493	-0.086
Mof_C 	C 	0.35979	0.53123	0.5206	0.089
Mof_H 	H 	0.3457	0.5224	0.5478	0.046
Mof_C 	C 	0.45923	0.3759	0.56732	0.087
Mof_H 	H 	0.4356	0.3755	0.5887	0.074
Mof_Cu	Cu	0.32552	0.95426	0.73487	0.859
Mof_Cl	Cl	0.37062	0.9442	0.67425	-0.459
Mof_N 	N 	0.35654	0.01167	0.74803	-0.21
Mof_N 	N 	0.28712	0.90351	0.71616	-0.212
Mof_N 	N 	0.40205	0.06653	0.75507	-0.086
Mof_C 	C 	0.39021	0.03123	0.7294	0.089
Mof_H 	H 	0.4043	0.0224	0.7022	0.046
Mof_C 	C 	0.29077	0.8759	0.68268	0.087
Mof_H 	H 	0.3144	0.8755	0.6613	0.074
Mof_Cu	Cu	0.92448	0.79574	0.23487	0.859
Mof_Cl	Cl	0.87938	0.8058	0.17425	-0.459
Mof_N 	N 	0.89346	0.73833	0.24803	-0.21
Mof_N 	N 	0.96288	0.84649	0.21616	-0.212
Mof_N 	N 	0.84795	0.68347	0.25507	-0.086
Mof_C 	C 	0.85979	0.71877	0.2294	0.089
Mof_H 	H 	0.8457	0.7276	0.2022	0.046
Mof_C 	C 	0.95923	0.8741	0.18268	0.087
Mof_H 	H 	0.9356	0.8745	0.1613	0.074
Mof_Cu	Cu	0.79574	0.23487	0.92448	0.859
Mof_Cl	Cl	0.8058	0.17425	0.87938	-0.459
Mof_N 	N 	0.73833	0.24803	0.89346	-0.21
Mof_N 	N 	0.84649	0.21616	0.96288	-0.212
Mof_N 	N 	0.68347	0.25507	0.84795	-0.086
Mof_C 	C 	0.71877	0.2294	0.85979	0.089
Mof_H 	H 	0.7276	0.2022	0.8457	0.046
Mof_C 	C 	0.8741	0.18268	0.95923	0.087
Mof_H 	H 	0.8745	0.1613	0.9356	0.074
Mof_Cu	Cu	0.95426	0.73487	0.32552	0.859
Mof_Cl	Cl	0.9442	0.67425	0.37062	-0.459
Mof_N 	N 	0.01167	0.74803	0.35654	-0.21
Mof_N 	N 	0.90351	0.71616	0.28712	-0.212
Mof_N 	N 	0.06653	0.75507	0.40205	-0.086
Mof_C 	C 	0.03123	0.7294	0.39021	0.089
Mof_H 	H 	0.0224	0.7022	0.4043	0.046
Mof_C 	C 	0.8759	0.68268	0.29077	0.087
Mof_H 	H 	0.8755	0.6613	0.3144	0.074
Mof_Cu	Cu	0.45426	0.51513	0.42448	0.859
Mof_Cl	Cl	0.4442	0.57575	0.37938	-0.459
Mof_N 	N 	0.51167	0.50197	0.39346	-0.21
Mof_N 	N 	0.40351	0.53384	0.46288	-0.212
Mof_N 	N 	0.56653	0.49493	0.34795	-0.086
Mof_C 	C 	0.53123	0.5206	0.35979	0.089
Mof_H 	H 	0.5224	0.5478	0.3457	0.046
Mof_C 	C 	0.3759	0.56732	0.45923	0.087
Mof_H 	H 	0.3755	0.5887	0.4356	0.074
Mof_Cu	Cu	0.29574	0.01513	0.82552	0.859
Mof_Cl	Cl	0.3058	0.07575	0.87062	-0.459
Mof_N 	N 	0.23833	0.00197	0.85654	-0.21
Mof_N 	N 	0.34649	0.03384	0.78712	-0.212
Mof_N 	N 	0.18347	0.99493	0.90205	-0.086
Mof_C 	C 	0.21877	0.0206	0.89021	0.089
Mof_H 	H 	0.2276	0.0478	0.9043	0.046
Mof_C 	C 	0.3741	0.06732	0.79077	0.087
Mof_H 	H 	0.3745	0.0887	0.8144	0.074
Mof_Cu	Cu	0.73487	0.32552	0.95426	0.859
Mof_Cl	Cl	0.67425	0.37062	0.9442	-0.459
Mof_N 	N 	0.74803	0.35654	0.01167	-0.21
Mof_N 	N 	0.71616	0.28712	0.90351	-0.212
Mof_N 	N 	0.75507	0.40205	0.06653	-0.086
Mof_C 	C 	0.7294	0.39021	0.03123	0.089
Mof_H 	H 	0.7022	0.4043	0.0224	0.046
Mof_C 	C 	0.68268	0.29077	0.8759	0.087
Mof_H 	H 	0.6613	0.3144	0.8755	0.074
Mof_Cu	Cu	0.23487	0.92448	0.79574	0.859
Mof_Cl	Cl	0.17425	0.87938	0.8058	-0.459
Mof_N 	N 	0.24803	0.89346	0.73833	-0.21
Mof_N 	N 	0.21616	0.96288	0.84649	-0.212
Mof_N 	N 	0.25507	0.84795	0.68347	-0.086
Mof_C 	C 	0.2294	0.85979	0.71877	0.089
Mof_H 	H 	0.2022	0.8457	0.7276	0.046
Mof_C 	C 	0.18268	0.95923	0.8741	0.087
Mof_H 	H 	0.1613	0.9356	0.8745	0.074
Mof_Cu	Cu	0.01513	0.82552	0.29574	0.859
Mof_Cl	Cl	0.07575	0.87062	0.3058	-0.459
Mof_N 	N 	0.00197	0.85654	0.23833	-0.21
Mof_N 	N 	0.03384	0.78712	0.34649	-0.212
Mof_N 	N 	0.99493	0.90205	0.18347	-0.086
Mof_C 	C 	0.0206	0.89021	0.21877	0.089
Mof_H 	H 	0.0478	0.9043	0.2276	0.046
Mof_C 	C 	0.06732	0.79077	0.3741	0.087
Mof_H 	H 	0.0887	0.8144	0.3745	0.074
Mof_Cu	Cu	0.51513	0.42448	0.45426	0.859
Mof_Cl	Cl	0.57575	0.37938	0.4442	-0.459
Mof_N 	N 	0.50197	0.39346	0.51167	-0.21
Mof_N 	N 	0.53384	0.46288	0.40351	-0.212
Mof_N 	N 	0.49493	0.34795	0.56653	-0.086
Mof_C 	C 	0.5206	0.35979	0.53123	0.089
Mof_H 	H 	0.5478	0.3457	0.5224	0.046
Mof_C 	C 	0.56732	0.45923	0.3759	0.087
Mof_H 	H 	0.5887	0.4356	0.3755	0.074
Mof_O 	O 	0.02604	0.02604	0.02604	-0.722
Mof_H 	H 	0.0097	0.0097	0.0097	0.159
Mof_O 	O 	0.22396	0.72396	0.52604	-0.723
Mof_H 	H 	0.2403	0.7403	0.5097	0.158
Mof_O 	O 	0.72396	0.52604	0.22396	-0.723
Mof_H 	H 	0.7403	0.5097	0.2403	0.158
Mof_O 	O 	0.52604	0.22396	0.72396	-0.723
Mof_H 	H 	0.5097	0.2403	0.7403	0.158
Mof_O 	O 	0.47396	0.47396	0.47396	-0.723
Mof_H 	H 	0.4903	0.4903	0.4903	0.158
Mof_O 	O 	0.77604	0.27604	0.97396	-0.723
Mof_H 	H 	0.7597	0.2597	0.9903	0.158
Mof_O 	O 	0.97396	0.77604	0.27604	-0.723
Mof_H 	H 	0.9903	0.7597	0.2597	0.158
Mof_O 	O 	0.27604	0.97396	0.77604	-0.723
Mof_H 	H 	0.2597	0.9903	0.7597	0.158
Mof_Cu	Cu	0.54574	0.57552	0.98487	0.859
Mof_Cl	Cl	0.5558	0.62062	0.92425	-0.459
Mof_N 	N 	0.48833	0.60654	0.99803	-0.21
Mof_N 	N 	0.59649	0.53712	0.96616	-0.212
Mof_N 	N 	0.43347	0.65205	0.00507	-0.086
Mof_C 	C 	0.46877	0.64021	0.9794	0.089
Mof_H 	H 	0.4776	0.6543	0.9522	0.046
Mof_C 	C 	0.6241	0.54077	0.93268	0.087
Mof_H 	H 	0.6245	0.5644	0.9113	0.074
Mof_Cu	Cu	0.70426	0.17448	0.48487	0.859
Mof_Cl	Cl	0.6942	0.12938	0.42425	-0.459
Mof_N 	N 	0.76167	0.14346	0.49803	-0.21
Mof_N 	N 	0.65351	0.21288	0.46616	-0.212
Mof_N 	N 	0.81653	0.09795	0.50507	-0.086
Mof_C 	C 	0.78123	0.10979	0.4794	0.089
Mof_H 	H 	0.7724	0.0957	0.4522	0.046
Mof_C 	C 	0.6259	0.20923	0.43268	0.087
Mof_H 	H 	0.6255	0.1856	0.4113	0.074
Mof_Cu	Cu	0.20426	0.07552	0.26513	0.859
Mof_Cl	Cl	0.1942	0.12062	0.32575	-0.459
Mof_N 	N 	0.26167	0.10654	0.25197	-0.21
Mof_N 	N 	0.15351	0.03712	0.28384	-0.211
Mof_N 	N 	0.31653	0.15205	0.24493	-0.086
Mof_C 	C 	0.28123	0.14021	0.2706	0.089
Mof_H 	H 	0.2724	0.1543	0.2978	0.046
Mof_C 	C 	0.1259	0.04077	0.31732	0.087
Mof_H 	H 	0.1255	0.0644	0.3387	0.074
Mof_Cu	Cu	0.04574	0.67448	0.76513	0.859
Mof_Cl	Cl	0.0558	0.62938	0.82575	-0.459
Mof_N 	N 	0.98833	0.64346	0.75197	-0.21
Mof_N 	N 	0.09649	0.71288	0.78384	-0.212
Mof_N 	N 	0.93347	0.59795	0.74493	-0.086
Mof_C 	C 	0.96877	0.60979	0.7706	0.089
Mof_H 	H 	0.9776	0.5957	0.7978	0.046
Mof_C 	C 	0.1241	0.70923	0.81732	0.087
Mof_H 	H 	0.1245	0.6856	0.8387	0.074
Mof_Cu	Cu	0.48487	0.54574	0.07552	0.859
Mof_Cl	Cl	0.42425	0.5558	0.12062	-0.459
Mof_N 	N 	0.49803	0.48833	0.10654	-0.21
Mof_N 	N 	0.46616	0.59649	0.03712	-0.212
Mof_N 	N 	0.50507	0.43347	0.15205	-0.086
Mof_C 	C 	0.4794	0.46877	0.14021	0.089
Mof_H 	H 	0.4522	0.4776	0.1543	0.046
Mof_C 	C 	0.43268	0.6241	0.04077	0.087
Mof_H 	H 	0.4113	0.6245	0.0644	0.074
Mof_Cu	Cu	0.98487	0.70426	0.67448	0.859
Mof_Cl	Cl	0.92425	0.6942	0.62938	-0.459
Mof_N 	N 	0.99803	0.76167	0.64346	-0.21
Mof_N 	N 	0.96616	0.65351	0.71288	-0.212
Mof_N 	N 	0.00507	0.81653	0.59795	-0.086
Mof_C 	C 	0.9794	0.78123	0.60979	0.089
Mof_H 	H 	0.9522	0.7724	0.5957	0.046
Mof_C 	C 	0.93268	0.6259	0.70923	0.087
Mof_H 	H 	0.9113	0.6255	0.6856	0.074
Mof_Cu	Cu	0.76513	0.20426	0.57552	0.859
Mof_Cl	Cl	0.82575	0.1942	0.62062	-0.459
Mof_N 	N 	0.75197	0.26167	0.60654	-0.21
Mof_N 	N 	0.78384	0.15351	0.53712	-0.212
Mof_N 	N 	0.74493	0.31653	0.65205	-0.086
Mof_C 	C 	0.7706	0.28123	0.64021	0.089
Mof_H 	H 	0.7978	0.2724	0.6543	0.046
Mof_C 	C 	0.81732	0.1259	0.54077	0.087
Mof_H 	H 	0.8387	0.1255	0.5644	0.074
Mof_Cu	Cu	0.26513	0.04574	0.17448	0.859
Mof_Cl	Cl	0.32575	0.0558	0.12938	-0.458
Mof_N 	N 	0.25197	0.98833	0.14346	-0.21
Mof_N 	N 	0.28384	0.09649	0.21288	-0.212
Mof_N 	N 	0.24493	0.93347	0.09795	-0.086
Mof_C 	C 	0.2706	0.96877	0.10979	0.089
Mof_H 	H 	0.2978	0.9776	0.0957	0.046
Mof_C 	C 	0.31732	0.1241	0.20923	0.087
Mof_H 	H 	0.3387	0.1245	0.1856	0.074
Mof_Cu	Cu	0.57552	0.48487	0.04574	0.859
Mof_Cl	Cl	0.62062	0.42425	0.0558	-0.459
Mof_N 	N 	0.60654	0.49803	0.98833	-0.21
Mof_N 	N 	0.53712	0.46616	0.09649	-0.212
Mof_N 	N 	0.65205	0.50507	0.93347	-0.086
Mof_C 	C 	0.64021	0.4794	0.96877	0.089
Mof_H 	H 	0.6543	0.4522	0.9776	0.046
Mof_C 	C 	0.54077	0.43268	0.1241	0.087
Mof_H 	H 	0.5644	0.4113	0.1245	0.074
Mof_Cu	Cu	0.17448	0.98487	0.20426	0.859
Mof_Cl	Cl	0.12938	0.92425	0.1942	-0.459
Mof_N 	N 	0.14346	0.99803	0.26167	-0.21
Mof_N 	N 	0.21288	0.96616	0.15351	-0.212
Mof_N 	N 	0.09795	0.00507	0.31653	-0.085
Mof_C 	C 	0.10979	0.9794	0.28123	0.088
Mof_H 	H 	0.0957	0.9522	0.2724	0.046
Mof_C 	C 	0.20923	0.93268	0.1259	0.087
Mof_H 	H 	0.1856	0.9113	0.1255	0.074
Mof_Cu	Cu	0.07552	0.76513	0.70426	0.859
Mof_Cl	Cl	0.12062	0.82575	0.6942	-0.459
Mof_N 	N 	0.10654	0.75197	0.76167	-0.21
Mof_N 	N 	0.03712	0.78384	0.65351	-0.212
Mof_N 	N 	0.15205	0.74493	0.81653	-0.086
Mof_C 	C 	0.14021	0.7706	0.78123	0.089
Mof_H 	H 	0.1543	0.7978	0.7724	0.046
Mof_C 	C 	0.04077	0.81732	0.6259	0.087
Mof_H 	H 	0.0644	0.8387	0.6255	0.074
Mof_Cu	Cu	0.67448	0.26513	0.54574	0.859
Mof_Cl	Cl	0.62938	0.32575	0.5558	-0.459
Mof_N 	N 	0.64346	0.25197	0.48833	-0.21
Mof_N 	N 	0.71288	0.28384	0.59649	-0.212
Mof_N 	N 	0.59795	0.24493	0.43347	-0.086
Mof_C 	C 	0.60979	0.2706	0.46877	0.089
Mof_H 	H 	0.5957	0.2978	0.4776	0.046
Mof_C 	C 	0.70923	0.31732	0.6241	0.087
Mof_H 	H 	0.6856	0.3387	0.6245	0.074
Mof_Cu	Cu	0.32552	0.79574	0.01513	0.859
Mof_Cl	Cl	0.37062	0.8058	0.07575	-0.459
Mof_N 	N 	0.35654	0.73833	0.00197	-0.21
Mof_N 	N 	0.28712	0.84649	0.03384	-0.212
Mof_N 	N 	0.40205	0.68347	0.99493	-0.086
Mof_C 	C 	0.39021	0.71877	0.0206	0.089
Mof_H 	H 	0.4043	0.7276	0.0478	0.046
Mof_C 	C 	0.29077	0.8741	0.06732	0.087
Mof_H 	H 	0.3144	0.8745	0.0887	0.074
Mof_Cu	Cu	0.92448	0.95426	0.51513	0.859
Mof_Cl	Cl	0.87938	0.9442	0.57575	-0.458
Mof_N 	N 	0.89346	0.01167	0.50197	-0.21
Mof_N 	N 	0.96288	0.90351	0.53384	-0.212
Mof_N 	N 	0.84795	0.06653	0.49493	-0.086
Mof_C 	C 	0.85979	0.03123	0.5206	0.089
Mof_H 	H 	0.8457	0.0224	0.5478	0.046
Mof_C 	C 	0.95923	0.8759	0.56732	0.087
Mof_H 	H 	0.9356	0.8755	0.5887	0.074
Mof_Cu	Cu	0.82552	0.45426	0.73487	0.859
Mof_Cl	Cl	0.87062	0.4442	0.67425	-0.459
Mof_N 	N 	0.85654	0.51167	0.74803	-0.21
Mof_N 	N 	0.78712	0.40351	0.71616	-0.212
Mof_N 	N 	0.90205	0.56653	0.75507	-0.086
Mof_C 	C 	0.89021	0.53123	0.7294	0.089
Mof_H 	H 	0.9043	0.5224	0.7022	0.046
Mof_C 	C 	0.79077	0.3759	0.68268	0.087
Mof_H 	H 	0.8144	0.3755	0.6613	0.074
Mof_Cu	Cu	0.42448	0.29574	0.23487	0.859
Mof_Cl	Cl	0.37938	0.3058	0.17425	-0.459
Mof_N 	N 	0.39346	0.23833	0.24803	-0.21
Mof_N 	N 	0.46288	0.34649	0.21616	-0.212
Mof_N 	N 	0.34795	0.18347	0.25507	-0.086
Mof_C 	C 	0.35979	0.21877	0.2294	0.089
Mof_H 	H 	0.3457	0.2276	0.2022	0.046
Mof_C 	C 	0.45923	0.3741	0.18268	0.087
Mof_H 	H 	0.4356	0.3745	0.1613	0.074
Mof_Cu	Cu	0.29574	0.73487	0.92448	0.859
Mof_Cl	Cl	0.3058	0.67425	0.87938	-0.459
Mof_N 	N 	0.23833	0.74803	0.89346	-0.21
Mof_N 	N 	0.34649	0.71616	0.96288	-0.212
Mof_N 	N 	0.18347	0.75507	0.84795	-0.086
Mof_C 	C 	0.21877	0.7294	0.85979	0.089
Mof_H 	H 	0.2276	0.7022	0.8457	0.046
Mof_C 	C 	0.3741	0.68268	0.95923	0.087
Mof_H 	H 	0.3745	0.6613	0.9356	0.074
Mof_Cu	Cu	0.45426	0.23487	0.32552	0.859
Mof_Cl	Cl	0.4442	0.17425	0.37062	-0.459
Mof_N 	N 	0.51167	0.24803	0.35654	-0.21
Mof_N 	N 	0.40351	0.21616	0.28712	-0.212
Mof_N 	N 	0.56653	0.25507	0.40205	-0.086
Mof_C 	C 	0.53123	0.2294	0.39021	0.089
Mof_H 	H 	0.5224	0.2022	0.4043	0.046
Mof_C 	C 	0.3759	0.18268	0.29077	0.087
Mof_H 	H 	0.3755	0.1613	0.3144	0.074
Mof_Cu	Cu	0.95426	0.01513	0.42448	0.858
Mof_Cl	Cl	0.9442	0.07575	0.37938	-0.459
Mof_N 	N 	0.01167	0.00197	0.39346	-0.21
Mof_N 	N 	0.90351	0.03384	0.46288	-0.212
Mof_N 	N 	0.06653	0.99493	0.34795	-0.086
Mof_C 	C 	0.03123	0.0206	0.35979	0.09
Mof_H 	H 	0.0224	0.0478	0.3457	0.046
Mof_C 	C 	0.8759	0.06732	0.45923	0.087
Mof_H 	H 	0.8755	0.0887	0.4356	0.074
Mof_Cu	Cu	0.79574	0.51513	0.82552	0.859
Mof_Cl	Cl	0.8058	0.57575	0.87062	-0.459
Mof_N 	N 	0.73833	0.50197	0.85654	-0.21
Mof_N 	N 	0.84649	0.53384	0.78712	-0.212
Mof_N 	N 	0.68347	0.49493	0.90205	-0.086
Mof_C 	C 	0.71877	0.5206	0.89021	0.089
Mof_H 	H 	0.7276	0.5478	0.9043	0.046
Mof_C 	C 	0.8741	0.56732	0.79077	0.087
Mof_H 	H 	0.8745	0.5887	0.8144	0.074
Mof_Cu	Cu	0.23487	0.82552	0.95426	0.859
Mof_Cl	Cl	0.17425	0.87062	0.9442	-0.459
Mof_N 	N 	0.24803	0.85654	0.01167	-0.21
Mof_N 	N 	0.21616	0.78712	0.90351	-0.212
Mof_N 	N 	0.25507	0.90205	0.06653	-0.086
Mof_C 	C 	0.2294	0.89021	0.03123	0.089
Mof_H 	H 	0.2022	0.9043	0.0224	0.046
Mof_C 	C 	0.18268	0.79077	0.8759	0.087
Mof_H 	H 	0.1613	0.8144	0.8755	0.074
Mof_Cu	Cu	0.73487	0.42448	0.79574	0.859
Mof_Cl	Cl	0.67425	0.37938	0.8058	-0.459
Mof_N 	N 	0.74803	0.39346	0.73833	-0.21
Mof_N 	N 	0.71616	0.46288	0.84649	-0.212
Mof_N 	N 	0.75507	0.34795	0.68347	-0.086
Mof_C 	C 	0.7294	0.35979	0.71877	0.089
Mof_H 	H 	0.7022	0.3457	0.7276	0.046
Mof_C 	C 	0.68268	0.45923	0.8741	0.087
Mof_H 	H 	0.6613	0.4356	0.8745	0.074
Mof_Cu	Cu	0.51513	0.32552	0.29574	0.859
Mof_Cl	Cl	0.57575	0.37062	0.3058	-0.459
Mof_N 	N 	0.50197	0.35654	0.23833	-0.21
Mof_N 	N 	0.53384	0.28712	0.34649	-0.212
Mof_N 	N 	0.49493	0.40205	0.18347	-0.086
Mof_C 	C 	0.5206	0.39021	0.21877	0.089
Mof_H 	H 	0.5478	0.4043	0.2276	0.046
Mof_C 	C 	0.56732	0.29077	0.3741	0.087
Mof_H 	H 	0.5887	0.3144	0.3745	0.074
Mof_Cu	Cu	0.01513	0.92448	0.45426	0.859
Mof_Cl	Cl	0.07575	0.87938	0.4442	-0.459
Mof_N 	N 	0.00197	0.89346	0.51167	-0.21
Mof_N 	N 	0.03384	0.96288	0.40351	-0.212
Mof_N 	N 	0.99493	0.84795	0.56653	-0.085
Mof_C 	C 	0.0206	0.85979	0.53123	0.089
Mof_H 	H 	0.0478	0.8457	0.5224	0.046
Mof_C 	C 	0.06732	0.95923	0.3759	0.087
Mof_H 	H 	0.0887	0.9356	0.3755	0.074
Mof_O 	O 	0.02604	0.72396	0.72396	-0.723
Mof_H 	H 	0.0097	0.7403	0.7403	0.158
Mof_O 	O 	0.22396	0.02604	0.22396	-0.723
Mof_H 	H 	0.2403	0.0097	0.2403	0.159
Mof_O 	O 	0.52604	0.52604	0.02604	-0.723
Mof_H 	H 	0.5097	0.5097	0.0097	0.159
Mof_O 	O 	0.72396	0.22396	0.52604	-0.723
Mof_H 	H 	0.7403	0.2403	0.5097	0.158
Mof_O 	O 	0.27604	0.77604	0.97396	-0.723
Mof_H 	H 	0.2597	0.7597	0.9903	0.158
Mof_O 	O 	0.77604	0.47396	0.77604	-0.723
Mof_H 	H 	0.7597	0.4903	0.7597	0.158
Mof_O 	O 	0.47396	0.27604	0.27604	-0.723
Mof_H 	H 	0.4903	0.2597	0.2597	0.158
Mof_O 	O 	0.97396	0.97396	0.47396	-0.723
Mof_H 	H 	0.9903	0.9903	0.4903	0.159
Mof_Cu	Cu	0.54574	0.07552	0.48487	0.859
Mof_Cl	Cl	0.5558	0.12062	0.42425	-0.459
Mof_N 	N 	0.48833	0.10654	0.49803	-0.21
Mof_N 	N 	0.59649	0.03712	0.46616	-0.212
Mof_N 	N 	0.43347	0.15205	0.50507	-0.086
Mof_C 	C 	0.46877	0.14021	0.4794	0.089
Mof_H 	H 	0.4776	0.1543	0.4522	0.046
Mof_C 	C 	0.6241	0.04077	0.43268	0.087
Mof_H 	H 	0.6245	0.0644	0.4113	0.074
Mof_Cu	Cu	0.70426	0.67448	0.98487	0.859
Mof_Cl	Cl	0.6942	0.62938	0.92425	-0.459
Mof_N 	N 	0.76167	0.64346	0.99803	-0.21
Mof_N 	N 	0.65351	0.71288	0.96616	-0.212
Mof_N 	N 	0.81653	0.59795	0.00507	-0.086
Mof_C 	C 	0.78123	0.60979	0.9794	0.089
Mof_H 	H 	0.7724	0.5957	0.9522	0.046
Mof_C 	C 	0.6259	0.70923	0.93268	0.087
Mof_H 	H 	0.6255	0.6856	0.9113	0.074
Mof_Cu	Cu	0.20426	0.57552	0.76513	0.859
Mof_Cl	Cl	0.1942	0.62062	0.82575	-0.459
Mof_N 	N 	0.26167	0.60654	0.75197	-0.21
Mof_N 	N 	0.15351	0.53712	0.78384	-0.212
Mof_N 	N 	0.31653	0.65205	0.74493	-0.086
Mof_C 	C 	0.28123	0.64021	0.7706	0.089
Mof_H 	H 	0.2724	0.6543	0.7978	0.046
Mof_C 	C 	0.1259	0.54077	0.81732	0.087
Mof_H 	H 	0.1255	0.5644	0.8387	0.074
Mof_Cu	Cu	0.04574	0.17448	0.26513	0.859
Mof_Cl	Cl	0.0558	0.12938	0.32575	-0.458
Mof_N 	N 	0.98833	0.14346	0.25197	-0.21
Mof_N 	N 	0.09649	0.21288	0.28384	-0.212
Mof_N 	N 	0.93347	0.09795	0.24493	-0.086
Mof_C 	C 	0.96877	0.10979	0.2706	0.089
Mof_H 	H 	0.9776	0.0957	0.2978	0.046
Mof_C 	C 	0.1241	0.20923	0.31732	0.087
Mof_H 	H 	0.1245	0.1856	0.3387	0.074
Mof_Cu	Cu	0.48487	0.04574	0.57552	0.859
Mof_Cl	Cl	0.42425	0.0558	0.62062	-0.459
Mof_N 	N 	0.49803	0.98833	0.60654	-0.21
Mof_N 	N 	0.46616	0.09649	0.53712	-0.212
Mof_N 	N 	0.50507	0.93347	0.65205	-0.086
Mof_C 	C 	0.4794	0.96877	0.64021	0.089
Mof_H 	H 	0.4522	0.9776	0.6543	0.046
Mof_C 	C 	0.43268	0.1241	0.54077	0.087
Mof_H 	H 	0.4113	0.1245	0.5644	0.074
Mof_Cu	Cu	0.98487	0.20426	0.17448	0.859
Mof_Cl	Cl	0.92425	0.1942	0.12938	-0.459
Mof_N 	N 	0.99803	0.26167	0.14346	-0.21
Mof_N 	N 	0.96616	0.15351	0.21288	-0.212
Mof_N 	N 	0.00507	0.31653	0.09795	-0.085
Mof_C 	C 	0.9794	0.28123	0.10979	0.088
Mof_H 	H 	0.9522	0.2724	0.0957	0.046
Mof_C 	C 	0.93268	0.1259	0.20923	0.087
Mof_H 	H 	0.9113	0.1255	0.1856	0.074
Mof_Cu	Cu	0.76513	0.70426	0.07552	0.859
Mof_Cl	Cl	0.82575	0.6942	0.12062	-0.459
Mof_N 	N 	0.75197	0.76167	0.10654	-0.21
Mof_N 	N 	0.78384	0.65351	0.03712	-0.212
Mof_N 	N 	0.74493	0.81653	0.15205	-0.086
Mof_C 	C 	0.7706	0.78123	0.14021	0.089
Mof_H 	H 	0.7978	0.7724	0.1543	0.046
Mof_C 	C 	0.81732	0.6259	0.04077	0.087
Mof_H 	H 	0.8387	0.6255	0.0644	0.074
Mof_Cu	Cu	0.26513	0.54574	0.67448	0.859
Mof_Cl	Cl	0.32575	0.5558	0.62938	-0.459
Mof_N 	N 	0.25197	0.48833	0.64346	-0.21
Mof_N 	N 	0.28384	0.59649	0.71288	-0.212
Mof_N 	N 	0.24493	0.43347	0.59795	-0.086
Mof_C 	C 	0.2706	0.46877	0.60979	0.089
Mof_H 	H 	0.2978	0.4776	0.5957	0.046
Mof_C 	C 	0.31732	0.6241	0.70923	0.087
Mof_H 	H 	0.3387	0.6245	0.6856	0.074
Mof_Cu	Cu	0.57552	0.98487	0.54574	0.859
Mof_Cl	Cl	0.62062	0.92425	0.5558	-0.459
Mof_N 	N 	0.60654	0.99803	0.48833	-0.21
Mof_N 	N 	0.53712	0.96616	0.59649	-0.212
Mof_N 	N 	0.65205	0.00507	0.43347	-0.086
Mof_C 	C 	0.64021	0.9794	0.46877	0.089
Mof_H 	H 	0.6543	0.9522	0.4776	0.046
Mof_C 	C 	0.54077	0.93268	0.6241	0.087
Mof_H 	H 	0.5644	0.9113	0.6245	0.074
Mof_Cu	Cu	0.17448	0.48487	0.70426	0.859
Mof_Cl	Cl	0.12938	0.42425	0.6942	-0.459
Mof_N 	N 	0.14346	0.49803	0.76167	-0.21
Mof_N 	N 	0.21288	0.46616	0.65351	-0.212
Mof_N 	N 	0.09795	0.50507	0.81653	-0.086
Mof_C 	C 	0.10979	0.4794	0.78123	0.089
Mof_H 	H 	0.0957	0.4522	0.7724	0.046
Mof_C 	C 	0.20923	0.43268	0.6259	0.087
Mof_H 	H 	0.1856	0.4113	0.6255	0.074
Mof_Cu	Cu	0.07552	0.26513	0.20426	0.859
Mof_Cl	Cl	0.12062	0.32575	0.1942	-0.459
Mof_N 	N 	0.10654	0.25197	0.26167	-0.21
Mof_N 	N 	0.03712	0.28384	0.15351	-0.211
Mof_N 	N 	0.15205	0.24493	0.31653	-0.086
Mof_C 	C 	0.14021	0.2706	0.28123	0.089
Mof_H 	H 	0.1543	0.2978	0.2724	0.046
Mof_C 	C 	0.04077	0.31732	0.1259	0.087
Mof_H 	H 	0.0644	0.3387	0.1255	0.074
Mof_Cu	Cu	0.67448	0.76513	0.04574	0.859
Mof_Cl	Cl	0.62938	0.82575	0.0558	-0.459
Mof_N 	N 	0.64346	0.75197	0.98833	-0.21
Mof_N 	N 	0.71288	0.78384	0.09649	-0.212
Mof_N 	N 	0.59795	0.74493	0.93347	-0.086
Mof_C 	C 	0.60979	0.7706	0.96877	0.089
Mof_H 	H 	0.5957	0.7978	0.9776	0.046
Mof_C 	C 	0.70923	0.81732	0.1241	0.087
Mof_H 	H 	0.6856	0.8387	0.1245	0.074
Mof_Cu	Cu	0.32552	0.29574	0.51513	0.859
Mof_Cl	Cl	0.37062	0.3058	0.57575	-0.459
Mof_N 	N 	0.35654	0.23833	0.50197	-0.21
Mof_N 	N 	0.28712	0.34649	0.53384	-0.212
Mof_N 	N 	0.40205	0.18347	0.49493	-0.086
Mof_C 	C 	0.39021	0.21877	0.5206	0.089
Mof_H 	H 	0.4043	0.2276	0.5478	0.046
Mof_C 	C 	0.29077	0.3741	0.56732	0.087
Mof_H 	H 	0.3144	0.3745	0.5887	0.074
Mof_Cu	Cu	0.92448	0.45426	0.01513	0.859
Mof_Cl	Cl	0.87938	0.4442	0.07575	-0.459
Mof_N 	N 	0.89346	0.51167	0.00197	-0.21
Mof_N 	N 	0.96288	0.40351	0.03384	-0.212
Mof_N 	N 	0.84795	0.56653	0.99493	-0.085
Mof_C 	C 	0.85979	0.53123	0.0206	0.089
Mof_H 	H 	0.8457	0.5224	0.0478	0.046
Mof_C 	C 	0.95923	0.3759	0.06732	0.087
Mof_H 	H 	0.9356	0.3755	0.0887	0.074
Mof_Cu	Cu	0.82552	0.95426	0.23487	0.859
Mof_Cl	Cl	0.87062	0.9442	0.17425	-0.459
Mof_N 	N 	0.85654	0.01167	0.24803	-0.21
Mof_N 	N 	0.78712	0.90351	0.21616	-0.212
Mof_N 	N 	0.90205	0.06653	0.25507	-0.086
Mof_C 	C 	0.89021	0.03123	0.2294	0.089
Mof_H 	H 	0.9043	0.0224	0.2022	0.046
Mof_C 	C 	0.79077	0.8759	0.18268	0.087
Mof_H 	H 	0.8144	0.8755	0.1613	0.074
Mof_Cu	Cu	0.42448	0.79574	0.73487	0.859
Mof_Cl	Cl	0.37938	0.8058	0.67425	-0.459
Mof_N 	N 	0.39346	0.73833	0.74803	-0.21
Mof_N 	N 	0.46288	0.84649	0.71616	-0.212
Mof_N 	N 	0.34795	0.68347	0.75507	-0.086
Mof_C 	C 	0.35979	0.71877	0.7294	0.089
Mof_H 	H 	0.3457	0.7276	0.7022	0.046
Mof_C 	C 	0.45923	0.8741	0.68268	0.087
Mof_H 	H 	0.4356	0.8745	0.6613	0.074
Mof_Cu	Cu	0.29574	0.23487	0.42448	0.859
Mof_Cl	Cl	0.3058	0.17425	0.37938	-0.459
Mof_N 	N 	0.23833	0.24803	0.39346	-0.21
Mof_N 	N 	0.34649	0.21616	0.46288	-0.212
Mof_N 	N 	0.18347	0.25507	0.34795	-0.086
Mof_C 	C 	0.21877	0.2294	0.35979	0.089
Mof_H 	H 	0.2276	0.2022	0.3457	0.046
Mof_C 	C 	0.3741	0.18268	0.45923	0.087
Mof_H 	H 	0.3745	0.1613	0.4356	0.074
Mof_Cu	Cu	0.45426	0.73487	0.82552	0.859
Mof_Cl	Cl	0.4442	0.67425	0.87062	-0.459
Mof_N 	N 	0.51167	0.74803	0.85654	-0.21
Mof_N 	N 	0.40351	0.71616	0.78712	-0.212
Mof_N 	N 	0.56653	0.75507	0.90205	-0.086
Mof_C 	C 	0.53123	0.7294	0.89021	0.089
Mof_H 	H 	0.5224	0.7022	0.9043	0.046
Mof_C 	C 	0.3759	0.68268	0.79077	0.087
Mof_H 	H 	0.3755	0.6613	0.8144	0.074
Mof_Cu	Cu	0.95426	0.51513	0.92448	0.859
Mof_Cl	Cl	0.9442	0.57575	0.87938	-0.458
Mof_N 	N 	0.01167	0.50197	0.89346	-0.21
Mof_N 	N 	0.90351	0.53384	0.96288	-0.212
Mof_N 	N 	0.06653	0.49493	0.84795	-0.086
Mof_C 	C 	0.03123	0.5206	0.85979	0.089
Mof_H 	H 	0.0224	0.5478	0.8457	0.046
Mof_C 	C 	0.8759	0.56732	0.95923	0.087
Mof_H 	H 	0.8755	0.5887	0.9356	0.074
Mof_Cu	Cu	0.79574	0.01513	0.32552	0.859
Mof_Cl	Cl	0.8058	0.07575	0.37062	-0.459
Mof_N 	N 	0.73833	0.00197	0.35654	-0.21
Mof_N 	N 	0.84649	0.03384	0.28712	-0.212
Mof_N 	N 	0.68347	0.99493	0.40205	-0.086
Mof_C 	C 	0.71877	0.0206	0.39021	0.089
Mof_H 	H 	0.7276	0.0478	0.4043	0.046
Mof_C 	C 	0.8741	0.06732	0.29077	0.087
Mof_H 	H 	0.8745	0.0887	0.3144	0.074
Mof_Cu	Cu	0.23487	0.32552	0.45426	0.859
Mof_Cl	Cl	0.17425	0.37062	0.4442	-0.459
Mof_N 	N 	0.24803	0.35654	0.51167	-0.21
Mof_N 	N 	0.21616	0.28712	0.40351	-0.212
Mof_N 	N 	0.25507	0.40205	0.56653	-0.086
Mof_C 	C 	0.2294	0.39021	0.53123	0.089
Mof_H 	H 	0.2022	0.4043	0.5224	0.046
Mof_C 	C 	0.18268	0.29077	0.3759	0.087
Mof_H 	H 	0.1613	0.3144	0.3755	0.074
Mof_Cu	Cu	0.73487	0.92448	0.29574	0.859
Mof_Cl	Cl	0.67425	0.87938	0.3058	-0.459
Mof_N 	N 	0.74803	0.89346	0.23833	-0.21
Mof_N 	N 	0.71616	0.96288	0.34649	-0.212
Mof_N 	N 	0.75507	0.84795	0.18347	-0.086
Mof_C 	C 	0.7294	0.85979	0.21877	0.089
Mof_H 	H 	0.7022	0.8457	0.2276	0.046
Mof_C 	C 	0.68268	0.95923	0.3741	0.087
Mof_H 	H 	0.6613	0.9356	0.3745	0.074
Mof_Cu	Cu	0.51513	0.82552	0.79574	0.859
Mof_Cl	Cl	0.57575	0.87062	0.8058	-0.459
Mof_N 	N 	0.50197	0.85654	0.73833	-0.21
Mof_N 	N 	0.53384	0.78712	0.84649	-0.212
Mof_N 	N 	0.49493	0.90205	0.68347	-0.086
Mof_C 	C 	0.5206	0.89021	0.71877	0.089
Mof_H 	H 	0.5478	0.9043	0.7276	0.046
Mof_C 	C 	0.56732	0.79077	0.8741	0.087
Mof_H 	H 	0.5887	0.8144	0.8745	0.074
Mof_Cu	Cu	0.01513	0.42448	0.95426	0.858
Mof_Cl	Cl	0.07575	0.37938	0.9442	-0.459
Mof_N 	N 	0.00197	0.39346	0.01167	-0.21
Mof_N 	N 	0.03384	0.46288	0.90351	-0.212
Mof_N 	N 	0.99493	0.34795	0.06653	-0.086
Mof_C 	C 	0.0206	0.35979	0.03123	0.09
Mof_H 	H 	0.0478	0.3457	0.0224	0.046
Mof_C 	C 	0.06732	0.45923	0.8759	0.087
Mof_H 	H 	0.0887	0.4356	0.8755	0.074
Mof_O 	O 	0.02604	0.22396	0.22396	-0.723
Mof_H 	H 	0.0097	0.2403	0.2403	0.159
Mof_O 	O 	0.52604	0.02604	0.52604	-0.723
Mof_H 	H 	0.5097	0.0097	0.5097	0.159
Mof_O 	O 	0.72396	0.72396	0.02604	-0.723
Mof_H 	H 	0.7403	0.7403	0.0097	0.158
Mof_O 	O 	0.22396	0.52604	0.72396	-0.723
Mof_H 	H 	0.2403	0.5097	0.7403	0.158
Mof_O 	O 	0.27604	0.27604	0.47396	-0.723
Mof_H 	H 	0.2597	0.2597	0.4903	0.158
Mof_O 	O 	0.97396	0.47396	0.97396	-0.723
Mof_H 	H 	0.9903	0.4903	0.9903	0.159
Mof_O 	O 	0.77604	0.97396	0.27604	-0.723
Mof_H 	H 	0.7597	0.9903	0.2597	0.158
Mof_O 	O 	0.47396	0.77604	0.77604	-0.723
Mof_H 	H 	0.4903	0.7597	0.7597	0.158
Mof_Cu	Cu	0.95426	0.42448	0.51513	0.859
Mof_Cl	Cl	0.9442	0.37938	0.57575	-0.459
Mof_N 	N 	0.01167	0.39346	0.50197	-0.21
Mof_N 	N 	0.90351	0.46288	0.53384	-0.212
Mof_N 	N 	0.06653	0.34795	0.49493	-0.086
Mof_C 	C 	0.03123	0.35979	0.5206	0.089
Mof_H 	H 	0.0224	0.3457	0.5478	0.046
Mof_C 	C 	0.8759	0.45923	0.56732	0.087
Mof_H 	H 	0.8755	0.4356	0.5887	0.074
Mof_Cu	Cu	0.79574	0.82552	0.01513	0.859
Mof_Cl	Cl	0.8058	0.87062	0.07575	-0.459
Mof_N 	N 	0.73833	0.85654	0.00197	-0.21
Mof_N 	N 	0.84649	0.78712	0.03384	-0.212
Mof_N 	N 	0.68347	0.90205	0.99493	-0.085
Mof_C 	C 	0.71877	0.89021	0.0206	0.088
Mof_H 	H 	0.7276	0.9043	0.0478	0.046
Mof_C 	C 	0.8741	0.79077	0.06732	0.087
Mof_H 	H 	0.8745	0.8144	0.0887	0.074
Mof_Cu	Cu	0.29574	0.92448	0.23487	0.859
Mof_Cl	Cl	0.3058	0.87938	0.17425	-0.459
Mof_N 	N 	0.23833	0.89346	0.24803	-0.21
Mof_N 	N 	0.34649	0.96288	0.21616	-0.212
Mof_N 	N 	0.18347	0.84795	0.25507	-0.086
Mof_C 	C 	0.21877	0.85979	0.2294	0.089
Mof_H 	H 	0.2276	0.8457	0.2022	0.046
Mof_C 	C 	0.3741	0.95923	0.18268	0.087
Mof_H 	H 	0.3745	0.9356	0.1613	0.074
Mof_Cu	Cu	0.45426	0.32552	0.73487	0.859
Mof_Cl	Cl	0.4442	0.37062	0.67425	-0.459
Mof_N 	N 	0.51167	0.35654	0.74803	-0.21
Mof_N 	N 	0.40351	0.28712	0.71616	-0.212
Mof_N 	N 	0.56653	0.40205	0.75507	-0.086
Mof_C 	C 	0.53123	0.39021	0.7294	0.089
Mof_H 	H 	0.5224	0.4043	0.7022	0.046
Mof_C 	C 	0.3759	0.29077	0.68268	0.087
Mof_H 	H 	0.3755	0.3144	0.6613	0.074
Mof_Cu	Cu	0.01513	0.45426	0.42448	0.859
Mof_Cl	Cl	0.07575	0.4442	0.37938	-0.459
Mof_N 	N 	0.00197	0.51167	0.39346	-0.21
Mof_N 	N 	0.03384	0.40351	0.46288	-0.212
Mof_N 	N 	0.99493	0.56653	0.34795	-0.086
Mof_C 	C 	0.0206	0.53123	0.35979	0.089
Mof_H 	H 	0.0478	0.5224	0.3457	0.046
Mof_C 	C 	0.06732	0.3759	0.45923	0.087
Mof_H 	H 	0.0887	0.3755	0.4356	0.074
Mof_Cu	Cu	0.51513	0.29574	0.82552	0.859
Mof_Cl	Cl	0.57575	0.3058	0.87062	-0.459
Mof_N 	N 	0.50197	0.23833	0.85654	-0.21
Mof_N 	N 	0.53384	0.34649	0.78712	-0.212
Mof_N 	N 	0.49493	0.18347	0.90205	-0.086
Mof_C 	C 	0.5206	0.21877	0.89021	0.089
Mof_H 	H 	0.5478	0.2276	0.9043	0.046
Mof_C 	C 	0.56732	0.3741	0.79077	0.087
Mof_H 	H 	0.5887	0.3745	0.8144	0.074
Mof_Cu	Cu	0.73487	0.79574	0.92448	0.859
Mof_Cl	Cl	0.67425	0.8058	0.87938	-0.459
Mof_N 	N 	0.74803	0.73833	0.89346	-0.21
Mof_N 	N 	0.71616	0.84649	0.96288	-0.211
Mof_N 	N 	0.75507	0.68347	0.84795	-0.086
Mof_C 	C 	0.7294	0.71877	0.85979	0.089
Mof_H 	H 	0.7022	0.7276	0.8457	0.046
Mof_C 	C 	0.68268	0.8741	0.95923	0.087
Mof_H 	H 	0.6613	0.8745	0.9356	0.074
Mof_Cu	Cu	0.23487	0.95426	0.32552	0.859
Mof_Cl	Cl	0.17425	0.9442	0.37062	-0.459
Mof_N 	N 	0.24803	0.01167	0.35654	-0.21
Mof_N 	N 	0.21616	0.90351	0.28712	-0.212
Mof_N 	N 	0.25507	0.06653	0.40205	-0.086
Mof_C 	C 	0.2294	0.03123	0.39021	0.089
Mof_H 	H 	0.2022	0.0224	0.4043	0.046
Mof_C 	C 	0.18268	0.8759	0.29077	0.087
Mof_H 	H 	0.1613	0.8755	0.3144	0.074
Mof_Cu	Cu	0.92448	0.51513	0.45426	0.859
Mof_Cl	Cl	0.87938	0.57575	0.4442	-0.459
Mof_N 	N 	0.89346	0.50197	0.51167	-0.21
Mof_N 	N 	0.96288	0.53384	0.40351	-0.212
Mof_N 	N 	0.84795	0.49493	0.56653	-0.086
Mof_C 	C 	0.85979	0.5206	0.53123	0.089
Mof_H 	H 	0.8457	0.5478	0.5224	0.046
Mof_C 	C 	0.95923	0.56732	0.3759	0.087
Mof_H 	H 	0.9356	0.5887	0.3755	0.074
Mof_Cu	Cu	0.32552	0.01513	0.29574	0.859
Mof_Cl	Cl	0.37062	0.07575	0.3058	-0.459
Mof_N 	N 	0.35654	0.00197	0.23833	-0.21
Mof_N 	N 	0.28712	0.03384	0.34649	-0.212
Mof_N 	N 	0.40205	0.99493	0.18347	-0.086
Mof_C 	C 	0.39021	0.0206	0.21877	0.089
Mof_H 	H 	0.4043	0.0478	0.2276	0.046
Mof_C 	C 	0.29077	0.06732	0.3741	0.087
Mof_H 	H 	0.3144	0.0887	0.3745	0.074
Mof_Cu	Cu	0.42448	0.23487	0.79574	0.859
Mof_Cl	Cl	0.37938	0.17425	0.8058	-0.459
Mof_N 	N 	0.39346	0.24803	0.73833	-0.21
Mof_N 	N 	0.46288	0.21616	0.84649	-0.212
Mof_N 	N 	0.34795	0.25507	0.68347	-0.086
Mof_C 	C 	0.35979	0.2294	0.71877	0.089
Mof_H 	H 	0.3457	0.2022	0.7276	0.046
Mof_C 	C 	0.45923	0.18268	0.8741	0.087
Mof_H 	H 	0.4356	0.1613	0.8745	0.074
Mof_Cu	Cu	0.82552	0.73487	0.95426	0.859
Mof_Cl	Cl	0.87062	0.67425	0.9442	-0.458
Mof_N 	N 	0.85654	0.74803	0.01167	-0.21
Mof_N 	N 	0.78712	0.71616	0.90351	-0.212
Mof_N 	N 	0.90205	0.75507	0.06653	-0.086
Mof_C 	C 	0.89021	0.7294	0.03123	0.089
Mof_H 	H 	0.9043	0.7022	0.0224	0.046
Mof_C 	C 	0.79077	0.68268	0.8759	0.087
Mof_H 	H 	0.8144	0.6613	0.8755	0.074
Mof_Cu	Cu	0.17448	0.20426	0.48487	0.859
Mof_Cl	Cl	0.12938	0.1942	0.42425	-0.459
Mof_N 	N 	0.14346	0.26167	0.49803	-0.21
Mof_N 	N 	0.21288	0.15351	0.46616	-0.212
Mof_N 	N 	0.09795	0.31653	0.50507	-0.086
Mof_C 	C 	0.10979	0.28123	0.4794	0.089
Mof_H 	H 	0.0957	0.2724	0.4522	0.046
Mof_C 	C 	0.20923	0.1259	0.43268	0.087
Mof_H 	H 	0.1856	0.1255	0.4113	0.074
Mof_Cu	Cu	0.57552	0.04574	0.98487	0.858
Mof_Cl	Cl	0.62062	0.0558	0.92425	-0.459
Mof_N 	N 	0.60654	0.98833	0.99803	-0.21
Mof_N 	N 	0.53712	0.09649	0.96616	-0.212
Mof_N 	N 	0.65205	0.93347	0.00507	-0.086
Mof_C 	C 	0.64021	0.96877	0.9794	0.09
Mof_H 	H 	0.6543	0.9776	0.9522	0.046
Mof_C 	C 	0.54077	0.1241	0.93268	0.087
Mof_H 	H 	0.5644	0.1245	0.9113	0.074
Mof_Cu	Cu	0.67448	0.54574	0.76513	0.859
Mof_Cl	Cl	0.62938	0.5558	0.82575	-0.459
Mof_N 	N 	0.64346	0.48833	0.75197	-0.21
Mof_N 	N 	0.71288	0.59649	0.78384	-0.212
Mof_N 	N 	0.59795	0.43347	0.74493	-0.086
Mof_C 	C 	0.60979	0.46877	0.7706	0.089
Mof_H 	H 	0.5957	0.4776	0.7978	0.046
Mof_C 	C 	0.70923	0.6241	0.81732	0.087
Mof_H 	H 	0.6856	0.6245	0.8387	0.074
Mof_Cu	Cu	0.07552	0.70426	0.26513	0.859
Mof_Cl	Cl	0.12062	0.6942	0.32575	-0.459
Mof_N 	N 	0.10654	0.76167	0.25197	-0.21
Mof_N 	N 	0.03712	0.65351	0.28384	-0.212
Mof_N 	N 	0.15205	0.81653	0.24493	-0.086
Mof_C 	C 	0.14021	0.78123	0.2706	0.089
Mof_H 	H 	0.1543	0.7724	0.2978	0.046
Mof_C 	C 	0.04077	0.6259	0.31732	0.087
Mof_H 	H 	0.0644	0.6255	0.3387	0.074
Mof_Cu	Cu	0.20426	0.26513	0.57552	0.859
Mof_Cl	Cl	0.1942	0.32575	0.62062	-0.459
Mof_N 	N 	0.26167	0.25197	0.60654	-0.21
Mof_N 	N 	0.15351	0.28384	0.53712	-0.212
Mof_N 	N 	0.31653	0.24493	0.65205	-0.086
Mof_C 	C 	0.28123	0.2706	0.64021	0.089
Mof_H 	H 	0.2724	0.2978	0.6543	0.046
Mof_C 	C 	0.1259	0.31732	0.54077	0.087
Mof_H 	H 	0.1255	0.3387	0.5644	0.074
Mof_Cu	Cu	0.04574	0.76513	0.17448	0.859
Mof_Cl	Cl	0.0558	0.82575	0.12938	-0.459
Mof_N 	N 	0.98833	0.75197	0.14346	-0.21
Mof_N 	N 	0.09649	0.78384	0.21288	-0.212
Mof_N 	N 	0.93347	0.74493	0.09795	-0.086
Mof_C 	C 	0.96877	0.7706	0.10979	0.089
Mof_H 	H 	0.9776	0.7978	0.0957	0.046
Mof_C 	C 	0.1241	0.81732	0.20923	0.087
Mof_H 	H 	0.1245	0.8387	0.1856	0.074
Mof_Cu	Cu	0.54574	0.98487	0.07552	0.859
Mof_Cl	Cl	0.5558	0.92425	0.12062	-0.459
Mof_N 	N 	0.48833	0.99803	0.10654	-0.21
Mof_N 	N 	0.59649	0.96616	0.03712	-0.212
Mof_N 	N 	0.43347	0.00507	0.15205	-0.085
Mof_C 	C 	0.46877	0.9794	0.14021	0.089
Mof_H 	H 	0.4776	0.9522	0.1543	0.046
Mof_C 	C 	0.6241	0.93268	0.04077	0.087
Mof_H 	H 	0.6245	0.9113	0.0644	0.074
Mof_Cu	Cu	0.70426	0.48487	0.67448	0.859
Mof_Cl	Cl	0.6942	0.42425	0.62938	-0.459
Mof_N 	N 	0.76167	0.49803	0.64346	-0.21
Mof_N 	N 	0.65351	0.46616	0.71288	-0.212
Mof_N 	N 	0.81653	0.50507	0.59795	-0.086
Mof_C 	C 	0.78123	0.4794	0.60979	0.089
Mof_H 	H 	0.7724	0.4522	0.5957	0.046
Mof_C 	C 	0.6259	0.43268	0.70923	0.087
Mof_H 	H 	0.6255	0.4113	0.6856	0.074
Mof_Cu	Cu	0.26513	0.17448	0.54574	0.859
Mof_Cl	Cl	0.32575	0.12938	0.5558	-0.459
Mof_N 	N 	0.25197	0.14346	0.48833	-0.21
Mof_N 	N 	0.28384	0.21288	0.59649	-0.212
Mof_N 	N 	0.24493	0.09795	0.43347	-0.086
Mof_C 	C 	0.2706	0.10979	0.46877	0.089
Mof_H 	H 	0.2978	0.0957	0.4776	0.046
Mof_C 	C 	0.31732	0.20923	0.6241	0.087
Mof_H 	H 	0.3387	0.1856	0.6245	0.074
Mof_Cu	Cu	0.76513	0.57552	0.70426	0.859
Mof_Cl	Cl	0.82575	0.62062	0.6942	-0.459
Mof_N 	N 	0.75197	0.60654	0.76167	-0.21
Mof_N 	N 	0.78384	0.53712	0.65351	-0.212
Mof_N 	N 	0.74493	0.65205	0.81653	-0.086
Mof_C 	C 	0.7706	0.64021	0.78123	0.089
Mof_H 	H 	0.7978	0.6543	0.7724	0.046
Mof_C 	C 	0.81732	0.54077	0.6259	0.087
Mof_H 	H 	0.8387	0.5644	0.6255	0.074
Mof_Cu	Cu	0.98487	0.67448	0.20426	0.859
Mof_Cl	Cl	0.92425	0.62938	0.1942	-0.459
Mof_N 	N 	0.99803	0.64346	0.26167	-0.21
Mof_N 	N 	0.96616	0.71288	0.15351	-0.212
Mof_N 	N 	0.00507	0.59795	0.31653	-0.086
Mof_C 	C 	0.9794	0.60979	0.28123	0.089
Mof_H 	H 	0.9522	0.5957	0.2724	0.046
Mof_C 	C 	0.93268	0.70923	0.1259	0.087
Mof_H 	H 	0.9113	0.6856	0.1255	0.074
Mof_Cu	Cu	0.48487	0.07552	0.04574	0.859
Mof_Cl	Cl	0.42425	0.12062	0.0558	-0.458
Mof_N 	N 	0.49803	0.10654	0.98833	-0.21
Mof_N 	N 	0.46616	0.03712	0.09649	-0.212
Mof_N 	N 	0.50507	0.15205	0.93347	-0.086
Mof_C 	C 	0.4794	0.14021	0.96877	0.089
Mof_H 	H 	0.4522	0.1543	0.9776	0.046
Mof_C 	C 	0.43268	0.04077	0.1241	0.087
Mof_H 	H 	0.4113	0.0644	0.1245	0.074
Mof_O 	O 	0.97396	0.47396	0.47396	-0.723
Mof_H 	H 	0.9903	0.4903	0.4903	0.159
Mof_O 	O 	0.77604	0.77604	0.97396	-0.723
Mof_H 	H 	0.7597	0.7597	0.9903	0.159
Mof_O 	O 	0.27604	0.97396	0.27604	-0.723
Mof_H 	H 	0.2597	0.9903	0.2597	0.158
Mof_O 	O 	0.47396	0.27604	0.77604	-0.723
Mof_H 	H 	0.4903	0.2597	0.7597	0.158
Mof_O 	O 	0.72396	0.52604	0.72396	-0.723
Mof_H 	H 	0.7403	0.5097	0.7403	0.158
Mof_O 	O 	0.22396	0.22396	0.52604	-0.723
Mof_H 	H 	0.2403	0.2403	0.5097	0.158
Mof_O 	O 	0.02604	0.72396	0.22396	-0.723
Mof_H 	H 	0.0097	0.7403	0.2403	0.158
Mof_O 	O 	0.52604	0.02604	0.02604	-0.723
Mof_H 	H 	0.5097	0.0097	0.0097	0.159
Mof_Cu	Cu	0.95426	0.92448	0.01513	0.858
Mof_Cl	Cl	0.9442	0.87938	0.07575	-0.459
Mof_N 	N 	0.01167	0.89346	0.00197	-0.21
Mof_N 	N 	0.90351	0.96288	0.03384	-0.212
Mof_N 	N 	0.06653	0.84795	0.99493	-0.086
Mof_C 	C 	0.03123	0.85979	0.0206	0.089
Mof_H 	H 	0.0224	0.8457	0.0478	0.046
Mof_C 	C 	0.8759	0.95923	0.06732	0.087
Mof_H 	H 	0.8755	0.9356	0.0887	0.074
Mof_Cu	Cu	0.79574	0.32552	0.51513	0.859
Mof_Cl	Cl	0.8058	0.37062	0.57575	-0.459
Mof_N 	N 	0.73833	0.35654	0.50197	-0.21
Mof_N 	N 	0.84649	0.28712	0.53384	-0.212
Mof_N 	N 	0.68347	0.40205	0.49493	-0.086
Mof_C 	C 	0.71877	0.39021	0.5206	0.089
Mof_H 	H 	0.7276	0.4043	0.5478	0.046
Mof_C 	C 	0.8741	0.29077	0.56732	0.087
Mof_H 	H 	0.8745	0.3144	0.5887	0.074
Mof_Cu	Cu	0.29574	0.42448	0.73487	0.859
Mof_Cl	Cl	0.3058	0.37938	0.67425	-0.459
Mof_N 	N 	0.23833	0.39346	0.74803	-0.21
Mof_N 	N 	0.34649	0.46288	0.71616	-0.212
Mof_N 	N 	0.18347	0.34795	0.75507	-0.086
Mof_C 	C 	0.21877	0.35979	0.7294	0.089
Mof_H 	H 	0.2276	0.3457	0.7022	0.046
Mof_C 	C 	0.3741	0.45923	0.68268	0.087
Mof_H 	H 	0.3745	0.4356	0.6613	0.074
Mof_Cu	Cu	0.45426	0.82552	0.23487	0.859
Mof_Cl	Cl	0.4442	0.87062	0.17425	-0.459
Mof_N 	N 	0.51167	0.85654	0.24803	-0.21
Mof_N 	N 	0.40351	0.78712	0.21616	-0.212
Mof_N 	N 	0.56653	0.90205	0.25507	-0.086
Mof_C 	C 	0.53123	0.89021	0.2294	0.089
Mof_H 	H 	0.5224	0.9043	0.2022	0.046
Mof_C 	C 	0.3759	0.79077	0.18268	0.087
Mof_H 	H 	0.3755	0.8144	0.1613	0.074
Mof_Cu	Cu	0.01513	0.95426	0.92448	0.858
Mof_Cl	Cl	0.07575	0.9442	0.87938	-0.459
Mof_N 	N 	0.00197	0.01167	0.89346	-0.21
Mof_N 	N 	0.03384	0.90351	0.96288	-0.212
Mof_N 	N 	0.99493	0.06653	0.84795	-0.086
Mof_C 	C 	0.0206	0.03123	0.85979	0.089
Mof_H 	H 	0.0478	0.0224	0.8457	0.046
Mof_C 	C 	0.06732	0.8759	0.95923	0.087
Mof_H 	H 	0.0887	0.8755	0.9356	0.074
Mof_Cu	Cu	0.51513	0.79574	0.32552	0.859
Mof_Cl	Cl	0.57575	0.8058	0.37062	-0.459
Mof_N 	N 	0.50197	0.73833	0.35654	-0.21
Mof_N 	N 	0.53384	0.84649	0.28712	-0.212
Mof_N 	N 	0.49493	0.68347	0.40205	-0.086
Mof_C 	C 	0.5206	0.71877	0.39021	0.089
Mof_H 	H 	0.5478	0.7276	0.4043	0.046
Mof_C 	C 	0.56732	0.8741	0.29077	0.087
Mof_H 	H 	0.5887	0.8745	0.3144	0.074
Mof_Cu	Cu	0.73487	0.29574	0.42448	0.859
Mof_Cl	Cl	0.67425	0.3058	0.37938	-0.459
Mof_N 	N 	0.74803	0.23833	0.39346	-0.21
Mof_N 	N 	0.71616	0.34649	0.46288	-0.212
Mof_N 	N 	0.75507	0.18347	0.34795	-0.086
Mof_C 	C 	0.7294	0.21877	0.35979	0.089
Mof_H 	H 	0.7022	0.2276	0.3457	0.046
Mof_C 	C 	0.68268	0.3741	0.45923	0.087
Mof_H 	H 	0.6613	0.3745	0.4356	0.074
Mof_Cu	Cu	0.23487	0.45426	0.82552	0.859
Mof_Cl	Cl	0.17425	0.4442	0.87062	-0.459
Mof_N 	N 	0.24803	0.51167	0.85654	-0.21
Mof_N 	N 	0.21616	0.40351	0.78712	-0.212
Mof_N 	N 	0.25507	0.56653	0.90205	-0.086
Mof_C 	C 	0.2294	0.53123	0.89021	0.089
Mof_H 	H 	0.2022	0.5224	0.9043	0.046
Mof_C 	C 	0.18268	0.3759	0.79077	0.087
Mof_H 	H 	0.1613	0.3755	0.8144	0.074
Mof_Cu	Cu	0.92448	0.01513	0.95426	0.858
Mof_Cl	Cl	0.87938	0.07575	0.9442	-0.459
Mof_N 	N 	0.89346	0.00197	0.01167	-0.21
Mof_N 	N 	0.96288	0.03384	0.90351	-0.212
Mof_N 	N 	0.84795	0.99493	0.06653	-0.086
Mof_C 	C 	0.85979	0.0206	0.03123	0.089
Mof_H 	H 	0.8457	0.0478	0.0224	0.046
Mof_C 	C 	0.95923	0.06732	0.8759	0.087
Mof_H 	H 	0.9356	0.0887	0.8755	0.074
Mof_Cu	Cu	0.32552	0.51513	0.79574	0.859
Mof_Cl	Cl	0.37062	0.57575	0.8058	-0.459
Mof_N 	N 	0.35654	0.50197	0.73833	-0.21
Mof_N 	N 	0.28712	0.53384	0.84649	-0.212
Mof_N 	N 	0.40205	0.49493	0.68347	-0.086
Mof_C 	C 	0.39021	0.5206	0.71877	0.089
Mof_H 	H 	0.4043	0.5478	0.7276	0.046
Mof_C 	C 	0.29077	0.56732	0.8741	0.087
Mof_H 	H 	0.3144	0.5887	0.8745	0.074
Mof_Cu	Cu	0.42448	0.73487	0.29574	0.859
Mof_Cl	Cl	0.37938	0.67425	0.3058	-0.459
Mof_N 	N 	0.39346	0.74803	0.23833	-0.21
Mof_N 	N 	0.46288	0.71616	0.34649	-0.212
Mof_N 	N 	0.34795	0.75507	0.18347	-0.086
Mof_C 	C 	0.35979	0.7294	0.21877	0.089
Mof_H 	H 	0.3457	0.7022	0.2276	0.046
Mof_C 	C 	0.45923	0.68268	0.3741	0.087
Mof_H 	H 	0.4356	0.6613	0.3745	0.074
Mof_Cu	Cu	0.82552	0.23487	0.45426	0.859
Mof_Cl	Cl	0.87062	0.17425	0.4442	-0.459
Mof_N 	N 	0.85654	0.24803	0.51167	-0.21
Mof_N 	N 	0.78712	0.21616	0.40351	-0.212
Mof_N 	N 	0.90205	0.25507	0.56653	-0.086
Mof_C 	C 	0.89021	0.2294	0.53123	0.089
Mof_H 	H 	0.9043	0.2022	0.5224	0.046
Mof_C 	C 	0.79077	0.18268	0.3759	0.087
Mof_H 	H 	0.8144	0.1613	0.3755	0.074
Mof_Cu	Cu	0.17448	0.70426	0.98487	0.859
Mof_Cl	Cl	0.12938	0.6942	0.92425	-0.459
Mof_N 	N 	0.14346	0.76167	0.99803	-0.21
Mof_N 	N 	0.21288	0.65351	0.96616	-0.212
Mof_N 	N 	0.09795	0.81653	0.00507	-0.086
Mof_C 	C 	0.10979	0.78123	0.9794	0.089
Mof_H 	H 	0.0957	0.7724	0.9522	0.046
Mof_C 	C 	0.20923	0.6259	0.93268	0.087
Mof_H 	H 	0.1856	0.6255	0.9113	0.074
Mof_Cu	Cu	0.57552	0.54574	0.48487	0.859
Mof_Cl	Cl	0.62062	0.5558	0.42425	-0.459
Mof_N 	N 	0.60654	0.48833	0.49803	-0.21
Mof_N 	N 	0.53712	0.59649	0.46616	-0.212
Mof_N 	N 	0.65205	0.43347	0.50507	-0.086
Mof_C 	C 	0.64021	0.46877	0.4794	0.089
Mof_H 	H 	0.6543	0.4776	0.4522	0.046
Mof_C 	C 	0.54077	0.6241	0.43268	0.087
Mof_H 	H 	0.5644	0.6245	0.4113	0.074
Mof_Cu	Cu	0.67448	0.04574	0.26513	0.859
Mof_Cl	Cl	0.62938	0.0558	0.32575	-0.459
Mof_N 	N 	0.64346	0.98833	0.25197	-0.21
Mof_N 	N 	0.71288	0.09649	0.28384	-0.212
Mof_N 	N 	0.59795	0.93347	0.24493	-0.086
Mof_C 	C 	0.60979	0.96877	0.2706	0.089
Mof_H 	H 	0.5957	0.9776	0.2978	0.046
Mof_C 	C 	0.70923	0.1241	0.31732	0.087
Mof_H 	H 	0.6856	0.1245	0.3387	0.074
Mof_Cu	Cu	0.07552	0.20426	0.76513	0.859
Mof_Cl	Cl	0.12062	0.1942	0.82575	-0.459
Mof_N 	N 	0.10654	0.26167	0.75197	-0.21
Mof_N 	N 	0.03712	0.15351	0.78384	-0.212
Mof_N 	N 	0.15205	0.31653	0.74493	-0.086
Mof_C 	C 	0.14021	0.28123	0.7706	0.089
Mof_H 	H 	0.1543	0.2724	0.7978	0.046
Mof_C 	C 	0.04077	0.1259	0.81732	0.087
Mof_H 	H 	0.0644	0.1255	0.8387	0.074
Mof_Cu	Cu	0.20426	0.76513	0.07552	0.859
Mof_Cl	Cl	0.1942	0.82575	0.12062	-0.459
Mof_N 	N 	0.26167	0.75197	0.10654	-0.21
Mof_N 	N 	0.15351	0.78384	0.03712	-0.212
Mof_N 	N 	0.31653	0.74493	0.15205	-0.086
Mof_C 	C 	0.28123	0.7706	0.14021	0.089
Mof_H 	H 	0.2724	0.7978	0.1543	0.046
Mof_C 	C 	0.1259	0.81732	0.04077	0.087
Mof_H 	H 	0.1255	0.8387	0.0644	0.074
Mof_Cu	Cu	0.04574	0.26513	0.67448	0.859
Mof_Cl	Cl	0.0558	0.32575	0.62938	-0.459
Mof_N 	N 	0.98833	0.25197	0.64346	-0.21
Mof_N 	N 	0.09649	0.28384	0.71288	-0.212
Mof_N 	N 	0.93347	0.24493	0.59795	-0.086
Mof_C 	C 	0.96877	0.2706	0.60979	0.089
Mof_H 	H 	0.9776	0.2978	0.5957	0.046
Mof_C 	C 	0.1241	0.31732	0.70923	0.087
Mof_H 	H 	0.1245	0.3387	0.6856	0.074
Mof_Cu	Cu	0.54574	0.48487	0.57552	0.859
Mof_Cl	Cl	0.5558	0.42425	0.62062	-0.459
Mof_N 	N 	0.48833	0.49803	0.60654	-0.21
Mof_N 	N 	0.59649	0.46616	0.53712	-0.212
Mof_N 	N 	0.43347	0.50507	0.65205	-0.086
Mof_C 	C 	0.46877	0.4794	0.64021	0.089
Mof_H 	H 	0.4776	0.4522	0.6543	0.046
Mof_C 	C 	0.6241	0.43268	0.54077	0.087
Mof_H 	H 	0.6245	0.4113	0.5644	0.074
Mof_Cu	Cu	0.70426	0.98487	0.17448	0.859
Mof_Cl	Cl	0.6942	0.92425	0.12938	-0.459
Mof_N 	N 	0.76167	0.99803	0.14346	-0.21
Mof_N 	N 	0.65351	0.96616	0.21288	-0.212
Mof_N 	N 	0.81653	0.00507	0.09795	-0.086
Mof_C 	C 	0.78123	0.9794	0.10979	0.089
Mof_H 	H 	0.7724	0.9522	0.0957	0.046
Mof_C 	C 	0.6259	0.93268	0.20923	0.087
Mof_H 	H 	0.6255	0.9113	0.1856	0.074
Mof_Cu	Cu	0.26513	0.67448	0.04574	0.859
Mof_Cl	Cl	0.32575	0.62938	0.0558	-0.459
Mof_N 	N 	0.25197	0.64346	0.98833	-0.21
Mof_N 	N 	0.28384	0.71288	0.09649	-0.212
Mof_N 	N 	0.24493	0.59795	0.93347	-0.086
Mof_C 	C 	0.2706	0.60979	0.96877	0.089
Mof_H 	H 	0.2978	0.5957	0.9776	0.046
Mof_C 	C 	0.31732	0.70923	0.1241	0.087
Mof_H 	H 	0.3387	0.6856	0.1245	0.074
Mof_Cu	Cu	0.76513	0.07552	0.20426	0.859
Mof_Cl	Cl	0.82575	0.12062	0.1942	-0.459
Mof_N 	N 	0.75197	0.10654	0.26167	-0.21
Mof_N 	N 	0.78384	0.03712	0.15351	-0.212
Mof_N 	N 	0.74493	0.15205	0.31653	-0.086
Mof_C 	C 	0.7706	0.14021	0.28123	0.089
Mof_H 	H 	0.7978	0.1543	0.2724	0.046
Mof_C 	C 	0.81732	0.04077	0.1259	0.087
Mof_H 	H 	0.8387	0.0644	0.1255	0.074
Mof_Cu	Cu	0.98487	0.17448	0.70426	0.859
Mof_Cl	Cl	0.92425	0.12938	0.6942	-0.459
Mof_N 	N 	0.99803	0.14346	0.76167	-0.21
Mof_N 	N 	0.96616	0.21288	0.65351	-0.212
Mof_N 	N 	0.00507	0.09795	0.81653	-0.086
Mof_C 	C 	0.9794	0.10979	0.78123	0.089
Mof_H 	H 	0.9522	0.0957	0.7724	0.046
Mof_C 	C 	0.93268	0.20923	0.6259	0.087
Mof_H 	H 	0.9113	0.1856	0.6255	0.074
Mof_Cu	Cu	0.48487	0.57552	0.54574	0.859
Mof_Cl	Cl	0.42425	0.62062	0.5558	-0.459
Mof_N 	N 	0.49803	0.60654	0.48833	-0.21
Mof_N 	N 	0.46616	0.53712	0.59649	-0.212
Mof_N 	N 	0.50507	0.65205	0.43347	-0.086
Mof_C 	C 	0.4794	0.64021	0.46877	0.089
Mof_H 	H 	0.4522	0.6543	0.4776	0.046
Mof_C 	C 	0.43268	0.54077	0.6241	0.087
Mof_H 	H 	0.4113	0.5644	0.6245	0.074
Mof_O 	O 	0.97396	0.97396	0.97396	-0.722
Mof_H 	H 	0.9903	0.9903	0.9903	0.159
Mof_O 	O 	0.77604	0.27604	0.47396	-0.723
Mof_H 	H 	0.7597	0.2597	0.4903	0.158
Mof_O 	O 	0.27604	0.47396	0.77604	-0.723
Mof_H 	H 	0.2597	0.4903	0.7597	0.158
Mof_O 	O 	0.47396	0.77604	0.27604	-0.723
Mof_H 	H 	0.4903	0.7597	0.2597	0.158
Mof_O 	O 	0.22396	0.72396	0.02604	-0.723
Mof_H 	H 	0.2403	0.7403	0.0097	0.158
Mof_O 	O 	0.02604	0.22396	0.72396	-0.723
Mof_H 	H 	0.0097	0.2403	0.7403	0.158
Mof_O 	O 	0.52604	0.52604	0.52604	-0.723
Mof_H 	H 	0.5097	0.5097	0.5097	0.158
Mof_O 	O 	0.72396	0.02604	0.22396	-0.723
Mof_H 	H 	0.7403	0.0097	0.2403	0.158
Mof_Cu	Cu	0.45426	0.42448	0.01513	0.859
Mof_Cl	Cl	0.4442	0.37938	0.07575	-0.459
Mof_N 	N 	0.51167	0.39346	0.00197	-0.21
Mof_N 	N 	0.40351	0.46288	0.03384	-0.212
Mof_N 	N 	0.56653	0.34795	0.99493	-0.086
Mof_C 	C 	0.53123	0.35979	0.0206	0.089
Mof_H 	H 	0.5224	0.3457	0.0478	0.046
Mof_C 	C 	0.3759	0.45923	0.06732	0.087
Mof_H 	H 	0.3755	0.4356	0.0887	0.074
Mof_Cu	Cu	0.29574	0.82552	0.51513	0.859
Mof_Cl	Cl	0.3058	0.87062	0.57575	-0.459
Mof_N 	N 	0.23833	0.85654	0.50197	-0.21
Mof_N 	N 	0.34649	0.78712	0.53384	-0.212
Mof_N 	N 	0.18347	0.90205	0.49493	-0.086
Mof_C 	C 	0.21877	0.89021	0.5206	0.089
Mof_H 	H 	0.2276	0.9043	0.5478	0.046
Mof_C 	C 	0.3741	0.79077	0.56732	0.087
Mof_H 	H 	0.3745	0.8144	0.5887	0.074
Mof_Cu	Cu	0.79574	0.92448	0.73487	0.859
Mof_Cl	Cl	0.8058	0.87938	0.67425	-0.459
Mof_N 	N 	0.73833	0.89346	0.74803	-0.21
Mof_N 	N 	0.84649	0.96288	0.71616	-0.211
Mof_N 	N 	0.68347	0.84795	0.75507	-0.086
Mof_C 	C 	0.71877	0.85979	0.7294	0.089
Mof_H 	H 	0.7276	0.8457	0.7022	0.046
Mof_C 	C 	0.8741	0.95923	0.68268	0.087
Mof_H 	H 	0.8745	0.9356	0.6613	0.074
Mof_Cu	Cu	0.95426	0.32552	0.23487	0.859
Mof_Cl	Cl	0.9442	0.37062	0.17425	-0.459
Mof_N 	N 	0.01167	0.35654	0.24803	-0.21
Mof_N 	N 	0.90351	0.28712	0.21616	-0.212
Mof_N 	N 	0.06653	0.40205	0.25507	-0.086
Mof_C 	C 	0.03123	0.39021	0.2294	0.089
Mof_H 	H 	0.0224	0.4043	0.2022	0.046
Mof_C 	C 	0.8759	0.29077	0.18268	0.087
Mof_H 	H 	0.8755	0.3144	0.1613	0.074
Mof_Cu	Cu	0.51513	0.45426	0.92448	0.859
Mof_Cl	Cl	0.57575	0.4442	0.87938	-0.459
Mof_N 	N 	0.50197	0.51167	0.89346	-0.21
Mof_N 	N 	0.53384	0.40351	0.96288	-0.212
Mof_N 	N 	0.49493	0.56653	0.84795	-0.086
Mof_C 	C 	0.5206	0.53123	0.85979	0.089
Mof_H 	H 	0.5478	0.5224	0.8457	0.046
Mof_C 	C 	0.56732	0.3759	0.95923	0.087
Mof_H 	H 	0.5887	0.3755	0.9356	0.074
Mof_Cu	Cu	0.01513	0.29574	0.32552	0.859
Mof_Cl	Cl	0.07575	0.3058	0.37062	-0.459
Mof_N 	N 	0.00197	0.23833	0.35654	-0.21
Mof_N 	N 	0.03384	0.34649	0.28712	-0.212
Mof_N 	N 	0.99493	0.18347	0.40205	-0.086
Mof_C 	C 	0.0206	0.21877	0.39021	0.089
Mof_H 	H 	0.0478	0.2276	0.4043	0.046
Mof_C 	C 	0.06732	0.3741	0.29077	0.087
Mof_H 	H 	0.0887	0.3745	0.3144	0.074
Mof_Cu	Cu	0.23487	0.79574	0.42448	0.859
Mof_Cl	Cl	0.17425	0.8058	0.37938	-0.459
Mof_N 	N 	0.24803	0.73833	0.39346	-0.21
Mof_N 	N 	0.21616	0.84649	0.46288	-0.212
Mof_N 	N 	0.25507	0.68347	0.34795	-0.086
Mof_C 	C 	0.2294	0.71877	0.35979	0.089
Mof_H 	H 	0.2022	0.7276	0.3457	0.046
Mof_C 	C 	0.18268	0.8741	0.45923	0.087
Mof_H 	H 	0.1613	0.8745	0.4356	0.074
Mof_Cu	Cu	0.73487	0.95426	0.82552	0.859
Mof_Cl	Cl	0.67425	0.9442	0.87062	-0.458
Mof_N 	N 	0.74803	0.01167	0.85654	-0.21
Mof_N 	N 	0.71616	0.90351	0.78712	-0.212
Mof_N 	N 	0.75507	0.06653	0.90205	-0.086
Mof_C 	C 	0.7294	0.03123	0.89021	0.089
Mof_H 	H 	0.7022	0.0224	0.9043	0.046
Mof_C 	C 	0.68268	0.8759	0.79077	0.087
Mof_H 	H 	0.6613	0.8755	0.8144	0.074
Mof_Cu	Cu	0.42448	0.51513	0.95426	0.859
Mof_Cl	Cl	0.37938	0.57575	0.9442	-0.459
Mof_N 	N 	0.39346	0.50197	0.01167	-0.21
Mof_N 	N 	0.46288	0.53384	0.90351	-0.212
Mof_N 	N 	0.34795	0.49493	0.06653	-0.086
Mof_C 	C 	0.35979	0.5206	0.03123	0.089
Mof_H 	H 	0.3457	0.5478	0.0224	0.046
Mof_C 	C 	0.45923	0.56732	0.8759	0.087
Mof_H 	H 	0.4356	0.5887	0.8755	0.074
Mof_Cu	Cu	0.82552	0.01513	0.79574	0.859
Mof_Cl	Cl	0.87062	0.07575	0.8058	-0.459
Mof_N 	N 	0.85654	0.00197	0.73833	-0.21
Mof_N 	N 	0.78712	0.03384	0.84649	-0.212
Mof_N 	N 	0.90205	0.99493	0.68347	-0.085
Mof_C 	C 	0.89021	0.0206	0.71877	0.088
Mof_H 	H 	0.9043	0.0478	0.7276	0.046
Mof_C 	C 	0.79077	0.06732	0.8741	0.087
Mof_H 	H 	0.8144	0.0887	0.8745	0.074
Mof_Cu	Cu	0.92448	0.23487	0.29574	0.859
Mof_Cl	Cl	0.87938	0.17425	0.3058	-0.459
Mof_N 	N 	0.89346	0.24803	0.23833	-0.21
Mof_N 	N 	0.96288	0.21616	0.34649	-0.212
Mof_N 	N 	0.84795	0.25507	0.18347	-0.086
Mof_C 	C 	0.85979	0.2294	0.21877	0.089
Mof_H 	H 	0.8457	0.2022	0.2276	0.046
Mof_C 	C 	0.95923	0.18268	0.3741	0.087
Mof_H 	H 	0.9356	0.1613	0.3745	0.074
Mof_Cu	Cu	0.32552	0.73487	0.45426	0.859
Mof_Cl	Cl	0.37062	0.67425	0.4442	-0.459
Mof_N 	N 	0.35654	0.74803	0.51167	-0.21
Mof_N 	N 	0.28712	0.71616	0.40351	-0.212
Mof_N 	N 	0.40205	0.75507	0.56653	-0.086
Mof_C 	C 	0.39021	0.7294	0.53123	0.089
Mof_H 	H 	0.4043	0.7022	0.5224	0.046
Mof_C 	C 	0.29077	0.68268	0.3759	0.087
Mof_H 	H 	0.3144	0.6613	0.3755	0.074
Mof_Cu	Cu	0.67448	0.20426	0.98487	0.859
Mof_Cl	Cl	0.62938	0.1942	0.92425	-0.459
Mof_N 	N 	0.64346	0.26167	0.99803	-0.21
Mof_N 	N 	0.71288	0.15351	0.96616	-0.212
Mof_N 	N 	0.59795	0.31653	0.00507	-0.086
Mof_C 	C 	0.60979	0.28123	0.9794	0.089
Mof_H 	H 	0.5957	0.2724	0.9522	0.046
Mof_C 	C 	0.70923	0.1259	0.93268	0.087
Mof_H 	H 	0.6856	0.1255	0.9113	0.074
Mof_Cu	Cu	0.07552	0.04574	0.48487	0.859
Mof_Cl	Cl	0.12062	0.0558	0.42425	-0.458
Mof_N 	N 	0.10654	0.98833	0.49803	-0.21
Mof_N 	N 	0.03712	0.09649	0.46616	-0.212
Mof_N 	N 	0.15205	0.93347	0.50507	-0.086
Mof_C 	C 	0.14021	0.96877	0.4794	0.089
Mof_H 	H 	0.1543	0.9776	0.4522	0.046
Mof_C 	C 	0.04077	0.1241	0.43268	0.087
Mof_H 	H 	0.0644	0.1245	0.4113	0.074
Mof_Cu	Cu	0.17448	0.54574	0.26513	0.859
Mof_Cl	Cl	0.12938	0.5558	0.32575	-0.459
Mof_N 	N 	0.14346	0.48833	0.25197	-0.21
Mof_N 	N 	0.21288	0.59649	0.28384	-0.212
Mof_N 	N 	0.09795	0.43347	0.24493	-0.086
Mof_C 	C 	0.10979	0.46877	0.2706	0.089
Mof_H 	H 	0.0957	0.4776	0.2978	0.046
Mof_C 	C 	0.20923	0.6241	0.31732	0.087
Mof_H 	H 	0.1856	0.6245	0.3387	0.074
Mof_Cu	Cu	0.57552	0.70426	0.76513	0.859
Mof_Cl	Cl	0.62062	0.6942	0.82575	-0.459
Mof_N 	N 	0.60654	0.76167	0.75197	-0.21
Mof_N 	N 	0.53712	0.65351	0.78384	-0.212
Mof_N 	N 	0.65205	0.81653	0.74493	-0.086
Mof_C 	C 	0.64021	0.78123	0.7706	0.089
Mof_H 	H 	0.6543	0.7724	0.7978	0.046
Mof_C 	C 	0.54077	0.6259	0.81732	0.087
Mof_H 	H 	0.5644	0.6255	0.8387	0.074
Mof_Cu	Cu	0.70426	0.26513	0.07552	0.859
Mof_Cl	Cl	0.6942	0.32575	0.12062	-0.459
Mof_N 	N 	0.76167	0.25197	0.10654	-0.21
Mof_N 	N 	0.65351	0.28384	0.03712	-0.212
Mof_N 	N 	0.81653	0.24493	0.15205	-0.086
Mof_C 	C 	0.78123	0.2706	0.14021	0.089
Mof_H 	H 	0.7724	0.2978	0.1543	0.046
Mof_C 	C 	0.6259	0.31732	0.04077	0.087
Mof_H 	H 	0.6255	0.3387	0.0644	0.074
Mof_Cu	Cu	0.54574	0.76513	0.67448	0.859
Mof_Cl	Cl	0.5558	0.82575	0.62938	-0.459
Mof_N 	N 	0.48833	0.75197	0.64346	-0.21
Mof_N 	N 	0.59649	0.78384	0.71288	-0.212
Mof_N 	N 	0.43347	0.74493	0.59795	-0.086
Mof_C 	C 	0.46877	0.7706	0.60979	0.089
Mof_H 	H 	0.4776	0.7978	0.5957	0.046
Mof_C 	C 	0.6241	0.81732	0.70923	0.087
Mof_H 	H 	0.6245	0.8387	0.6856	0.074
Mof_Cu	Cu	0.04574	0.98487	0.57552	0.858
Mof_Cl	Cl	0.0558	0.92425	0.62062	-0.459
Mof_N 	N 	0.98833	0.99803	0.60654	-0.21
Mof_N 	N 	0.09649	0.96616	0.53712	-0.212
Mof_N 	N 	0.93347	0.00507	0.65205	-0.086
Mof_C 	C 	0.96877	0.9794	0.64021	0.09
Mof_H 	H 	0.9776	0.9522	0.6543	0.046
Mof_C 	C 	0.1241	0.93268	0.54077	0.087
Mof_H 	H 	0.1245	0.9113	0.5644	0.074
Mof_Cu	Cu	0.20426	0.48487	0.17448	0.859
Mof_Cl	Cl	0.1942	0.42425	0.12938	-0.459
Mof_N 	N 	0.26167	0.49803	0.14346	-0.21
Mof_N 	N 	0.15351	0.46616	0.21288	-0.212
Mof_N 	N 	0.31653	0.50507	0.09795	-0.086
Mof_C 	C 	0.28123	0.4794	0.10979	0.089
Mof_H 	H 	0.2724	0.4522	0.0957	0.046
Mof_C 	C 	0.1259	0.43268	0.20923	0.087
Mof_H 	H 	0.1255	0.4113	0.1856	0.074
Mof_Cu	Cu	0.76513	0.17448	0.04574	0.859
Mof_Cl	Cl	0.82575	0.12938	0.0558	-0.459
Mof_N 	N 	0.75197	0.14346	0.98833	-0.21
Mof_N 	N 	0.78384	0.21288	0.09649	-0.212
Mof_N 	N 	0.74493	0.09795	0.93347	-0.086
Mof_C 	C 	0.7706	0.10979	0.96877	0.089
Mof_H 	H 	0.7978	0.0957	0.9776	0.046
Mof_C 	C 	0.81732	0.20923	0.1241	0.087
Mof_H 	H 	0.8387	0.1856	0.1245	0.074
Mof_Cu	Cu	0.26513	0.57552	0.20426	0.859
Mof_Cl	Cl	0.32575	0.62062	0.1942	-0.459
Mof_N 	N 	0.25197	0.60654	0.26167	-0.21
Mof_N 	N 	0.28384	0.53712	0.15351	-0.212
Mof_N 	N 	0.24493	0.65205	0.31653	-0.086
Mof_C 	C 	0.2706	0.64021	0.28123	0.089
Mof_H 	H 	0.2978	0.6543	0.2724	0.046
Mof_C 	C 	0.31732	0.54077	0.1259	0.087
Mof_H 	H 	0.3387	0.5644	0.1255	0.074
Mof_Cu	Cu	0.48487	0.67448	0.70426	0.859
Mof_Cl	Cl	0.42425	0.62938	0.6942	-0.459
Mof_N 	N 	0.49803	0.64346	0.76167	-0.21
Mof_N 	N 	0.46616	0.71288	0.65351	-0.212
Mof_N 	N 	0.50507	0.59795	0.81653	-0.086
Mof_C 	C 	0.4794	0.60979	0.78123	0.089
Mof_H 	H 	0.4522	0.5957	0.7724	0.046
Mof_C 	C 	0.43268	0.70923	0.6259	0.087
Mof_H 	H 	0.4113	0.6856	0.6255	0.074
Mof_Cu	Cu	0.98487	0.07552	0.54574	0.859
Mof_Cl	Cl	0.92425	0.12062	0.5558	-0.459
Mof_N 	N 	0.99803	0.10654	0.48833	-0.21
Mof_N 	N 	0.96616	0.03712	0.59649	-0.212
Mof_N 	N 	0.00507	0.15205	0.43347	-0.085
Mof_C 	C 	0.9794	0.14021	0.46877	0.089
Mof_H 	H 	0.9522	0.1543	0.4776	0.046
Mof_C 	C 	0.93268	0.04077	0.6241	0.087
Mof_H 	H 	0.9113	0.0644	0.6245	0.074
Mof_O 	O 	0.27604	0.77604	0.47396	-0.723
Mof_H 	H 	0.2597	0.7597	0.4903	0.158
Mof_O 	O 	0.47396	0.47396	0.97396	-0.723
Mof_H 	H 	0.4903	0.4903	0.9903	0.159
Mof_O 	O 	0.77604	0.97396	0.77604	-0.723
Mof_H 	H 	0.7597	0.9903	0.7597	0.159
Mof_O 	O 	0.97396	0.27604	0.27604	-0.723
Mof_H 	H 	0.9903	0.2597	0.2597	0.158
Mof_O 	O 	0.22396	0.52604	0.22396	-0.723
Mof_H 	H 	0.2403	0.5097	0.2403	0.158
Mof_O 	O 	0.52604	0.72396	0.72396	-0.723
Mof_H 	H 	0.5097	0.7403	0.7403	0.158
Mof_O 	O 	0.72396	0.22396	0.02604	-0.723
Mof_H 	H 	0.7403	0.2403	0.0097	0.158
Mof_O 	O 	0.02604	0.02604	0.52604	-0.723
Mof_H 	H 	0.0097	0.0097	0.5097	0.159
Mof_Cu	Cu	0.45426	0.92448	0.51513	0.859
Mof_Cl	Cl	0.4442	0.87938	0.57575	-0.459
Mof_N 	N 	0.51167	0.89346	0.50197	-0.21
Mof_N 	N 	0.40351	0.96288	0.53384	-0.212
Mof_N 	N 	0.56653	0.84795	0.49493	-0.086
Mof_C 	C 	0.53123	0.85979	0.5206	0.089
Mof_H 	H 	0.5224	0.8457	0.5478	0.046
Mof_C 	C 	0.3759	0.95923	0.56732	0.087
Mof_H 	H 	0.3755	0.9356	0.5887	0.074
Mof_Cu	Cu	0.29574	0.32552	0.01513	0.859
Mof_Cl	Cl	0.3058	0.37062	0.07575	-0.459
Mof_N 	N 	0.23833	0.35654	0.00197	-0.21
Mof_N 	N 	0.34649	0.28712	0.03384	-0.212
Mof_N 	N 	0.18347	0.40205	0.99493	-0.086
Mof_C 	C 	0.21877	0.39021	0.0206	0.089
Mof_H 	H 	0.2276	0.4043	0.0478	0.046
Mof_C 	C 	0.3741	0.29077	0.06732	0.087
Mof_H 	H 	0.3745	0.3144	0.0887	0.074
Mof_Cu	Cu	0.79574	0.42448	0.23487	0.859
Mof_Cl	Cl	0.8058	0.37938	0.17425	-0.459
Mof_N 	N 	0.73833	0.39346	0.24803	-0.21
Mof_N 	N 	0.84649	0.46288	0.21616	-0.212
Mof_N 	N 	0.68347	0.34795	0.25507	-0.086
Mof_C 	C 	0.71877	0.35979	0.2294	0.089
Mof_H 	H 	0.7276	0.3457	0.2022	0.046
Mof_C 	C 	0.8741	0.45923	0.18268	0.087
Mof_H 	H 	0.8745	0.4356	0.1613	0.074
Mof_Cu	Cu	0.95426	0.82552	0.73487	0.859
Mof_Cl	Cl	0.9442	0.87062	0.67425	-0.458
Mof_N 	N 	0.01167	0.85654	0.74803	-0.21
Mof_N 	N 	0.90351	0.78712	0.71616	-0.212
Mof_N 	N 	0.06653	0.90205	0.75507	-0.086
Mof_C 	C 	0.03123	0.89021	0.7294	0.089
Mof_H 	H 	0.0224	0.9043	0.7022	0.046
Mof_C 	C 	0.8759	0.79077	0.68268	0.087
Mof_H 	H 	0.8755	0.8144	0.6613	0.074
Mof_Cu	Cu	0.51513	0.95426	0.42448	0.859
Mof_Cl	Cl	0.57575	0.9442	0.37938	-0.459
Mof_N 	N 	0.50197	0.01167	0.39346	-0.21
Mof_N 	N 	0.53384	0.90351	0.46288	-0.212
Mof_N 	N 	0.49493	0.06653	0.34795	-0.086
Mof_C 	C 	0.5206	0.03123	0.35979	0.089
Mof_H 	H 	0.5478	0.0224	0.3457	0.046
Mof_C 	C 	0.56732	0.8759	0.45923	0.087
Mof_H 	H 	0.5887	0.8755	0.4356	0.074
Mof_Cu	Cu	0.01513	0.79574	0.82552	0.859
Mof_Cl	Cl	0.07575	0.8058	0.87062	-0.459
Mof_N 	N 	0.00197	0.73833	0.85654	-0.21
Mof_N 	N 	0.03384	0.84649	0.78712	-0.212
Mof_N 	N 	0.99493	0.68347	0.90205	-0.085
Mof_C 	C 	0.0206	0.71877	0.89021	0.088
Mof_H 	H 	0.0478	0.7276	0.9043	0.046
Mof_C 	C 	0.06732	0.8741	0.79077	0.087
Mof_H 	H 	0.0887	0.8745	0.8144	0.074
Mof_Cu	Cu	0.23487	0.29574	0.92448	0.859
Mof_Cl	Cl	0.17425	0.3058	0.87938	-0.459
Mof_N 	N 	0.24803	0.23833	0.89346	-0.21
Mof_N 	N 	0.21616	0.34649	0.96288	-0.212
Mof_N 	N 	0.25507	0.18347	0.84795	-0.086
Mof_C 	C 	0.2294	0.21877	0.85979	0.089
Mof_H 	H 	0.2022	0.2276	0.8457	0.046
Mof_C 	C 	0.18268	0.3741	0.95923	0.087
Mof_H 	H 	0.1613	0.3745	0.9356	0.074
Mof_Cu	Cu	0.73487	0.45426	0.32552	0.859
Mof_Cl	Cl	0.67425	0.4442	0.37062	-0.459
Mof_N 	N 	0.74803	0.51167	0.35654	-0.21
Mof_N 	N 	0.71616	0.40351	0.28712	-0.212
Mof_N 	N 	0.75507	0.56653	0.40205	-0.086
Mof_C 	C 	0.7294	0.53123	0.39021	0.089
Mof_H 	H 	0.7022	0.5224	0.4043	0.046
Mof_C 	C 	0.68268	0.3759	0.29077	0.087
Mof_H 	H 	0.6613	0.3755	0.3144	0.074
Mof_Cu	Cu	0.42448	0.01513	0.45426	0.859
Mof_Cl	Cl	0.37938	0.07575	0.4442	-0.459
Mof_N 	N 	0.39346	0.00197	0.51167	-0.21
Mof_N 	N 	0.46288	0.03384	0.40351	-0.212
Mof_N 	N 	0.34795	0.99493	0.56653	-0.086
Mof_C 	C 	0.35979	0.0206	0.53123	0.089
Mof_H 	H 	0.3457	0.0478	0.5224	0.046
Mof_C 	C 	0.45923	0.06732	0.3759	0.087
Mof_H 	H 	0.4356	0.0887	0.3755	0.074
Mof_Cu	Cu	0.82552	0.51513	0.29574	0.859
Mof_Cl	Cl	0.87062	0.57575	0.3058	-0.459
Mof_N 	N 	0.85654	0.50197	0.23833	-0.21
Mof_N 	N 	0.78712	0.53384	0.34649	-0.212
Mof_N 	N 	0.90205	0.49493	0.18347	-0.086
Mof_C 	C 	0.89021	0.5206	0.21877	0.089
Mof_H 	H 	0.9043	0.5478	0.2276	0.046
Mof_C 	C 	0.79077	0.56732	0.3741	0.087
Mof_H 	H 	0.8144	0.5887	0.3745	0.074
Mof_Cu	Cu	0.92448	0.73487	0.79574	0.859
Mof_Cl	Cl	0.87938	0.67425	0.8058	-0.459
Mof_N 	N 	0.89346	0.74803	0.73833	-0.21
Mof_N 	N 	0.96288	0.71616	0.84649	-0.211
Mof_N 	N 	0.84795	0.75507	0.68347	-0.086
Mof_C 	C 	0.85979	0.7294	0.71877	0.089
Mof_H 	H 	0.8457	0.7022	0.7276	0.046
Mof_C 	C 	0.95923	0.68268	0.8741	0.087
Mof_H 	H 	0.9356	0.6613	0.8745	0.074
Mof_Cu	Cu	0.32552	0.23487	0.95426	0.859
Mof_Cl	Cl	0.37062	0.17425	0.9442	-0.459
Mof_N 	N 	0.35654	0.24803	0.01167	-0.21
Mof_N 	N 	0.28712	0.21616	0.90351	-0.212
Mof_N 	N 	0.40205	0.25507	0.06653	-0.086
Mof_C 	C 	0.39021	0.2294	0.03123	0.089
Mof_H 	H 	0.4043	0.2022	0.0224	0.046
Mof_C 	C 	0.29077	0.18268	0.8759	0.087
Mof_H 	H 	0.3144	0.1613	0.8755	0.074
Mof_Cu	Cu	0.67448	0.70426	0.48487	0.859
Mof_Cl	Cl	0.62938	0.6942	0.42425	-0.459
Mof_N 	N 	0.64346	0.76167	0.49803	-0.21
Mof_N 	N 	0.71288	0.65351	0.46616	-0.212
Mof_N 	N 	0.59795	0.81653	0.50507	-0.086
Mof_C 	C 	0.60979	0.78123	0.4794	0.089
Mof_H 	H 	0.5957	0.7724	0.4522	0.046
Mof_C 	C 	0.70923	0.6259	0.43268	0.087
Mof_H 	H 	0.6856	0.6255	0.4113	0.074
Mof_Cu	Cu	0.07552	0.54574	0.98487	0.859
Mof_Cl	Cl	0.12062	0.5558	0.92425	-0.459
Mof_N 	N 	0.10654	0.48833	0.99803	-0.21
Mof_N 	N 	0.03712	0.59649	0.96616	-0.212
Mof_N 	N 	0.15205	0.43347	0.00507	-0.085
Mof_C 	C 	0.14021	0.46877	0.9794	0.089
Mof_H 	H 	0.1543	0.4776	0.9522	0.046
Mof_C 	C 	0.04077	0.6241	0.93268	0.087
Mof_H 	H 	0.0644	0.6245	0.9113	0.074
Mof_Cu	Cu	0.17448	0.04574	0.76513	0.859
Mof_Cl	Cl	0.12938	0.0558	0.82575	-0.459
Mof_N 	N 	0.14346	0.98833	0.75197	-0.21
Mof_N 	N 	0.21288	0.09649	0.78384	-0.212
Mof_N 	N 	0.09795	0.93347	0.74493	-0.086
Mof_C 	C 	0.10979	0.96877	0.7706	0.089
Mof_H 	H 	0.0957	0.9776	0.7978	0.046
Mof_C 	C 	0.20923	0.1241	0.81732	0.087
Mof_H 	H 	0.1856	0.1245	0.8387	0.074
Mof_Cu	Cu	0.57552	0.20426	0.26513	0.859
Mof_Cl	Cl	0.62062	0.1942	0.32575	-0.459
Mof_N 	N 	0.60654	0.26167	0.25197	-0.21
Mof_N 	N 	0.53712	0.15351	0.28384	-0.212
Mof_N 	N 	0.65205	0.31653	0.24493	-0.086
Mof_C 	C 	0.64021	0.28123	0.2706	0.089
Mof_H 	H 	0.6543	0.2724	0.2978	0.046
Mof_C 	C 	0.54077	0.1259	0.31732	0.087
Mof_H 	H 	0.5644	0.1255	0.3387	0.074
Mof_Cu	Cu	0.70426	0.76513	0.57552	0.859
Mof_Cl	Cl	0.6942	0.82575	0.62062	-0.459
Mof_N 	N 	0.76167	0.75197	0.60654	-0.21
Mof_N 	N 	0.65351	0.78384	0.53712	-0.212
Mof_N 	N 	0.81653	0.74493	0.65205	-0.086
Mof_C 	C 	0.78123	0.7706	0.64021	0.089
Mof_H 	H 	0.7724	0.7978	0.6543	0.046
Mof_C 	C 	0.6259	0.81732	0.54077	0.087
Mof_H 	H 	0.6255	0.8387	0.5644	0.074
Mof_Cu	Cu	0.54574	0.26513	0.17448	0.859
Mof_Cl	Cl	0.5558	0.32575	0.12938	-0.459
Mof_N 	N 	0.48833	0.25197	0.14346	-0.21
Mof_N 	N 	0.59649	0.28384	0.21288	-0.212
Mof_N 	N 	0.43347	0.24493	0.09795	-0.086
Mof_C 	C 	0.46877	0.2706	0.10979	0.089
Mof_H 	H 	0.4776	0.2978	0.0957	0.046
Mof_C 	C 	0.6241	0.31732	0.20923	0.087
Mof_H 	H 	0.6245	0.3387	0.1856	0.074
Mof_Cu	Cu	0.04574	0.48487	0.07552	0.859
Mof_Cl	Cl	0.0558	0.42425	0.12062	-0.458
Mof_N 	N 	0.98833	0.49803	0.10654	-0.21
Mof_N 	N 	0.09649	0.46616	0.03712	-0.212
Mof_N 	N 	0.93347	0.50507	0.15205	-0.086
Mof_C 	C 	0.96877	0.4794	0.14021	0.089
Mof_H 	H 	0.9776	0.4522	0.1543	0.046
Mof_C 	C 	0.1241	0.43268	0.04077	0.087
Mof_H 	H 	0.1245	0.4113	0.0644	0.074
Mof_Cu	Cu	0.20426	0.98487	0.67448	0.859
Mof_Cl	Cl	0.1942	0.92425	0.62938	-0.459
Mof_N 	N 	0.26167	0.99803	0.64346	-0.21
Mof_N 	N 	0.15351	0.96616	0.71288	-0.212
Mof_N 	N 	0.31653	0.00507	0.59795	-0.086
Mof_C 	C 	0.28123	0.9794	0.60979	0.089
Mof_H 	H 	0.2724	0.9522	0.5957	0.046
Mof_C 	C 	0.1259	0.93268	0.70923	0.087
Mof_H 	H 	0.1255	0.9113	0.6856	0.074
Mof_Cu	Cu	0.76513	0.67448	0.54574	0.859
Mof_Cl	Cl	0.82575	0.62938	0.5558	-0.459
Mof_N 	N 	0.75197	0.64346	0.48833	-0.21
Mof_N 	N 	0.78384	0.71288	0.59649	-0.212
Mof_N 	N 	0.74493	0.59795	0.43347	-0.086
Mof_C 	C 	0.7706	0.60979	0.46877	0.089
Mof_H 	H 	0.7978	0.5957	0.4776	0.046
Mof_C 	C 	0.81732	0.70923	0.6241	0.087
Mof_H 	H 	0.8387	0.6856	0.6245	0.074
Mof_Cu	Cu	0.26513	0.07552	0.70426	0.859
Mof_Cl	Cl	0.32575	0.12062	0.6942	-0.459
Mof_N 	N 	0.25197	0.10654	0.76167	-0.21
Mof_N 	N 	0.28384	0.03712	0.65351	-0.212
Mof_N 	N 	0.24493	0.15205	0.81653	-0.086
Mof_C 	C 	0.2706	0.14021	0.78123	0.089
Mof_H 	H 	0.2978	0.1543	0.7724	0.046
Mof_C 	C 	0.31732	0.04077	0.6259	0.087
Mof_H 	H 	0.3387	0.0644	0.6255	0.074
Mof_Cu	Cu	0.48487	0.17448	0.20426	0.859
Mof_Cl	Cl	0.42425	0.12938	0.1942	-0.459
Mof_N 	N 	0.49803	0.14346	0.26167	-0.21
Mof_N 	N 	0.46616	0.21288	0.15351	-0.212
Mof_N 	N 	0.50507	0.09795	0.31653	-0.086
Mof_C 	C 	0.4794	0.10979	0.28123	0.089
Mof_H 	H 	0.4522	0.0957	0.2724	0.046
Mof_C 	C 	0.43268	0.20923	0.1259	0.087
Mof_H 	H 	0.4113	0.1856	0.1255	0.074
Mof_Cu	Cu	0.98487	0.57552	0.04574	0.858
Mof_Cl	Cl	0.92425	0.62062	0.0558	-0.459
Mof_N 	N 	0.99803	0.60654	0.98833	-0.21
Mof_N 	N 	0.96616	0.53712	0.09649	-0.212
Mof_N 	N 	0.00507	0.65205	0.93347	-0.086
Mof_C 	C 	0.9794	0.64021	0.96877	0.09
Mof_H 	H 	0.9522	0.6543	0.9776	0.046
Mof_C 	C 	0.93268	0.54077	0.1241	0.087
Mof_H 	H 	0.9113	0.5644	0.1245	0.074
Mof_O 	O 	0.77604	0.47396	0.27604	-0.723
Mof_H 	H 	0.7597	0.4903	0.2597	0.158
Mof_O 	O 	0.47396	0.97396	0.47396	-0.723
Mof_H 	H 	0.4903	0.9903	0.4903	0.159
Mof_O 	O 	0.97396	0.77604	0.77604	-0.723
Mof_H 	H 	0.9903	0.7597	0.7597	0.159
Mof_O 	O 	0.27604	0.27604	0.97396	-0.723
Mof_H 	H 	0.2597	0.2597	0.9903	0.158
Mof_O 	O 	0.72396	0.72396	0.52604	-0.723
Mof_H 	H 	0.7403	0.7403	0.5097	0.158
Mof_O 	O 	0.02604	0.52604	0.02604	-0.723
Mof_H 	H 	0.0097	0.5097	0.0097	0.159
Mof_O 	O 	0.22396	0.02604	0.72396	-0.723
Mof_H 	H 	0.2403	0.0097	0.7403	0.158
Mof_O 	O 	0.52604	0.22396	0.22396	-0.723
Mof_H 	H 	0.5097	0.2403	0.2403	0.158
_end
