# CIF file generated by openbabel 3.1.0, see https://openbabel.org
data_I
_chemical_name_common 'Cell_Modified_BOYCEY'
_cell_length_a 18.3411
_cell_length_b 18.3411
_cell_length_c 52.6041
_cell_angle_alpha 90
_cell_angle_beta 90
_cell_angle_gamma 120
_space_group_name_H-M_alt 'P 1'
_space_group_name_Hall 'P 1'
loop_
    _symmetry_equiv_pos_as_xyz
    x,y,z
loop_
    _atom_site_label
    _atom_site_type_symbol
    _atom_site_fract_x
    _atom_site_fract_y
    _atom_site_fract_z
    _atom_site_occupancy
    C1       C        0.26388    0.13422    0.21220    1.000
    C2       C        0.25170    0.06201    0.22529    1.000
    C3       C        0.22563    0.04840    0.25085    1.000
    C4       C        0.21332    0.10892    0.26344    1.000
    C5       C        0.22475    0.18132    0.25078    1.000
    C6       C        0.25072    0.19378    0.22520    1.000
    H7       H        0.25893    0.01453    0.21519    1.000
    H8       H        0.19179    0.09814    0.28298    1.000
    H9       H        0.25937    0.24921    0.21522    1.000
    C10      C        0.92708    0.46433    0.54504    1.000
    C11      C        0.91645    0.39310    0.55835    1.000
    C12      C        0.89393    0.38151    0.58419    1.000
    C13      C        0.88415    0.44338    0.59691    1.000
    C14      C        0.89464    0.51523    0.58409    1.000
    C15      C        0.91700    0.52561    0.55818    1.000
    H16      H        0.92359    0.34544    0.54833    1.000
    H17      H        0.86516    0.43401    0.61669    1.000
    H18      H        0.92233    0.57920    0.54787    1.000
    C19      C        0.59899    0.79738    0.87898    1.000
    C20      C        0.58606    0.72482    0.89202    1.000
    C21      C        0.56007    0.71135    0.91759    1.000
    C22      C        0.54841    0.77223    0.93022    1.000
    C23      C        0.56051    0.84494    0.91759    1.000
    C24      C        0.58658    0.85734    0.89203    1.000
    H25      H        0.59489    0.67809    0.88207    1.000
    H26      H        0.52687    0.76152    0.94976    1.000
    H27      H        0.59365    0.91193    0.88191    1.000
    C28      C        0.84913    0.13143    0.21212    1.000
    C29      C        0.78935    0.05903    0.22516    1.000
    C30      C        0.80129    0.04609    0.25082    1.000
    C31      C        0.87344    0.10731    0.26353    1.000
    C32      C        0.93419    0.17991    0.25089    1.000
    C33      C        0.92106    0.19182    0.22523    1.000
    H34      H        0.73416    0.01201    0.21514    1.000
    H35      H        0.88384    0.09696    0.28314    1.000
    H36      H        0.96867    0.24633    0.21510    1.000
    C37      C        0.52338    0.46682    0.54501    1.000
    C38      C        0.46230    0.39506    0.55804    1.000
    C39      C        0.47280    0.38255    0.58389    1.000
    C40      C        0.54457    0.44374    0.59678    1.000
    C41      C        0.60632    0.51577    0.58417    1.000
    C42      C        0.59465    0.52721    0.55837    1.000
    H43      H        0.40871    0.34695    0.54770    1.000
    H44      H        0.55399    0.43374    0.61652    1.000
    H45      H        0.64220    0.58228    0.54843    1.000
    C46      C        0.18429    0.79836    0.87884    1.000
    C47      C        0.25666    0.85810    0.89192    1.000
    C48      C        0.27012    0.84548    0.91749    1.000
    C49      C        0.20923    0.77287    0.93008    1.000
    C50      C        0.13662    0.71225    0.91741    1.000
    C51      C        0.12438    0.72585    0.89182    1.000
    H52      H        0.30434    0.91265    0.88182    1.000
    H53      H        0.21986    0.76203    0.94962    1.000
    H54      H        0.06885    0.67929    0.88183    1.000
    C55      C        0.84971    0.71958    0.21207    1.000
    C56      C        0.92212    0.73218    0.22513    1.000
    C57      C        0.93545    0.75779    0.25073    1.000
    C58      C        0.87442    0.76912    0.26339    1.000
    C59      C        0.80179    0.75717    0.25075    1.000
    C60      C        0.78966    0.73179    0.22512    1.000
    H61      H        0.96989    0.72558    0.21498    1.000
    H62      H        0.88495    0.79024    0.28297    1.000
    H63      H        0.73410    0.72283    0.21515    1.000
    C64      C        0.52128    0.05934    0.54488    1.000
    C65      C        0.46087    0.07012    0.55824    1.000
    C66      C        0.47220    0.09305    0.58404    1.000
    C67      C        0.54405    0.10306    0.59669    1.000
    C68      C        0.60524    0.09243    0.58381    1.000
    C69      C        0.59288    0.06968    0.55793    1.000
    H70      H        0.40588    0.06275    0.54829    1.000
    H71      H        0.55395    0.12235    0.61644    1.000
    H72      H        0.64098    0.06420    0.54758    1.000
    C73      C        0.18718    0.39085    0.87818    1.000
    C74      C        0.12652    0.40134    0.89150    1.000
    C75      C        0.13729    0.42349    0.91736    1.000
    C76      C        0.20888    0.43313    0.93009    1.000
    C77      C        0.27032    0.42282    0.91725    1.000
    C78      C        0.25847    0.40076    0.89131    1.000
    H79      H        0.07178    0.39434    0.88147    1.000
    H80      H        0.21838    0.45186    0.94989    1.000
    H81      H        0.30676    0.39552    0.88100    1.000
    C82      C        0.12880    0.27282    0.68926    1.000
    C83      C        0.18875    0.26052    0.67619    1.000
    C84      C        0.17647    0.23492    0.65059    1.000
    C85      C        0.10382    0.22300    0.63797    1.000
    C86      C        0.04290    0.23453    0.65063    1.000
    C87      C        0.05638    0.26030    0.67623    1.000
    H88      H        0.24432    0.26944    0.68615    1.000
    H89      H        0.09316    0.20170    0.61841    1.000
    H90      H        0.00868    0.26698    0.68639    1.000
    C91      C        0.79146    0.59765    0.02334    1.000
    C92      C        0.85198    0.58692    0.01001    1.000
    C93      C        0.84055    0.56356    0.98423    1.000
    C94      C        0.76838    0.55286    0.97161    1.000
    C95      C        0.70704    0.56327    0.98447    1.000
    C96      C        0.71957    0.58660    0.01030    1.000
    H97      H        0.90716    0.59474    0.01995    1.000
    H98      H        0.75837    0.53323    0.95189    1.000
    H99      H        0.67140    0.59202    0.02063    1.000
    C100     C        0.45896    0.93753    0.35612    1.000
    C101     C        0.38679    0.92564    0.34306    1.000
    C102     C        0.37324    0.89993    0.31746    1.000
    C103     C        0.43374    0.88766    0.30483    1.000
    C104     C        0.50606    0.89886    0.31748    1.000
    C105     C        0.51850    0.92455    0.34307    1.000
    H106     H        0.33935    0.93282    0.35319    1.000
    H107     H        0.42302    0.86637    0.28527    1.000
    H108     H        0.57394    0.93309    0.35302    1.000
    C109     C        0.12737    0.86277    0.69008    1.000
    C110     C        0.18768    0.93412    0.67674    1.000
    C111     C        0.17635    0.94569    0.65092    1.000
    C112     C        0.10450    0.88378    0.63828    1.000
    C113     C        0.04337    0.81193    0.65116    1.000
    C114     C        0.05581    0.80151    0.67702    1.000
    H115     H        0.24261    0.98179    0.68670    1.000
    H116     H        0.09457    0.89314    0.61853    1.000
    H117     H        0.00776    0.74785    0.68735    1.000
    C118     C        0.79185    0.19170    0.02318    1.000
    C119     C        0.85220    0.26300    0.00984    1.000
    C120     C        0.84083    0.27467    0.98404    1.000
    C121     C        0.76893    0.21285    0.97140    1.000
    C122     C        0.70779    0.14099    0.98427    1.000
    C123     C        0.72025    0.13048    0.01013    1.000
    H124     H        0.90715    0.31063    0.01981    1.000
    H125     H        0.75897    0.22230    0.95166    1.000
    H126     H        0.67220    0.07685    0.02048    1.000
    C127     C        0.45807    0.52290    0.35620    1.000
    C128     C        0.51812    0.59502    0.34308    1.000
    C129     C        0.50564    0.60851    0.31751    1.000
    C130     C        0.43276    0.54798    0.30495    1.000
    C131     C        0.37177    0.47568    0.31764    1.000
    C132     C        0.38530    0.46333    0.34323    1.000
    H133     H        0.57286    0.64252    0.35316    1.000
    H134     H        0.42202    0.55868    0.28540    1.000
    H135     H        0.33850    0.40796    0.35323    1.000
    C136     C        0.72004    0.86164    0.69016    1.000
    C137     C        0.73097    0.80076    0.67711    1.000
    C138     C        0.75389    0.81135    0.65124    1.000
    C139     C        0.76408    0.88299    0.63837    1.000
    C140     C        0.75351    0.94452    0.65100    1.000
    C141     C        0.73051    0.93277    0.67681    1.000
    H142     H        0.72580    0.74728    0.68744    1.000
    H143     H        0.78343    0.89247    0.61862    1.000
    H144     H        0.72277    0.98016    0.68676    1.000
    C145     C        0.38452    0.18987    0.02336    1.000
    C146     C        0.39550    0.12946    0.01006    1.000
    C147     C        0.41854    0.14071    0.98425    1.000
    C148     C        0.42859    0.21254    0.97157    1.000
    C149     C        0.41786    0.27373    0.98440    1.000
    C150     C        0.39494    0.26141    0.01026    1.000
    H151     H        0.38814    0.07453    0.02005    1.000
    H152     H        0.44797    0.22241    0.95183    1.000
    H153     H        0.38939    0.30956    0.02056    1.000
    C154     C        0.04461    0.52472    0.35607    1.000
    C155     C        0.05744    0.59721    0.34302    1.000
    C156     C        0.08298    0.61043    0.31742    1.000
    C157     C        0.09420    0.54933    0.30475    1.000
    C158     C        0.08209    0.47663    0.31739    1.000
    C159     C        0.05650    0.46448    0.34299    1.000
    H160     H        0.04896    0.64410    0.35300    1.000
    H161     H        0.11541    0.55988    0.28518    1.000
    H162     H        0.04947    0.40993    0.35313    1.000
    O163     O        0.88163    0.51036    0.94900    1.000
    O164     O        0.01376    0.43569    0.91884    1.000
    O165     O        0.88159    0.36911    0.94885    1.000
    O166     O        0.01320    0.57624    0.91872    1.000
    O167     O        0.09560    0.61738    0.95245    1.000
    O168     O        0.96405    0.41057    0.98257    1.000
    O169     O        0.09611    0.47655    0.95258    1.000
    O170     O        0.96411    0.55138    0.98271    1.000
    Cu171    Cu       0.93912    0.46863    0.93053    1.000
    Cu172    Cu       0.03837    0.51819    0.97090    1.000
    C173     C        0.89902    0.54191    0.97121    1.000
    C174     C        0.07878    0.44509    0.93037    1.000
    C175     C        0.89907    0.35491    0.97104    1.000
    C176     C        0.07822    0.63175    0.93026    1.000
    O177     O        0.54659    0.84453    0.28242    1.000
    O178     O        0.67815    0.76932    0.25216    1.000
    O179     O        0.54651    0.70329    0.28243    1.000
    O180     O        0.67807    0.91005    0.25219    1.000
    O181     O        0.76045    0.95141    0.28592    1.000
    O182     O        0.62895    0.74458    0.31615    1.000
    O183     O        0.76054    0.81043    0.28589    1.000
    O184     O        0.62899    0.88554    0.31615    1.000
    Cu185    Cu       0.60385    0.80253    0.26399    1.000
    Cu186    Cu       0.70314    0.85216    0.30435    1.000
    C187     C        0.56408    0.87629    0.30461    1.000
    C188     C        0.74324    0.77890    0.26368    1.000
    C189     C        0.56393    0.68899    0.30462    1.000
    C190     C        0.74305    0.96565    0.26372    1.000
    O191     O        0.34897    0.10567    0.58551    1.000
    O192     O        0.21749    0.18116    0.61553    1.000
    O193     O        0.34912    0.24659    0.58525    1.000
    O194     O        0.21718    0.03985    0.61564    1.000
    O195     O        0.29974    0.08149    0.64934    1.000
    O196     O        0.43139    0.28796    0.61901    1.000
    O197     O        0.29985    0.22234    0.64927    1.000
    O198     O        0.43151    0.14684    0.61921    1.000
    Cu199    Cu       0.27476    0.13909    0.59716    1.000
    Cu200    Cu       0.37405    0.18891    0.63752    1.000
    C201     C        0.41398    0.11506    0.59704    1.000
    C202     C        0.23485    0.21287    0.63771    1.000
    C203     C        0.41415    0.30218    0.59678    1.000
    C204     C        0.23466    0.02580    0.63786    1.000
    O205     O        0.54699    0.57516    0.91897    1.000
    O206     O        0.47111    0.36828    0.94925    1.000
    O207     O        0.40598    0.43455    0.91880    1.000
    O208     O        0.61236    0.50945    0.94936    1.000
    O209     O        0.57091    0.55053    0.98306    1.000
    O210     O        0.36441    0.47536    0.95253    1.000
    O211     O        0.43006    0.40961    0.98298    1.000
    O212     O        0.50567    0.61645    0.95265    1.000
    Cu213    Cu       0.51331    0.46757    0.93080    1.000
    Cu214    Cu       0.46345    0.51715    0.97111    1.000
    C215     C        0.53758    0.63078    0.93048    1.000
    C216     C        0.43954    0.35403    0.97146    1.000
    C217     C        0.35038    0.44408    0.93028    1.000
    C218     C        0.62657    0.54114    0.97156    1.000
    O219     O        0.23721    0.88739    0.31610    1.000
    O220     O        0.03040    0.81220    0.28579    1.000
    O221     O        0.09616    0.74664    0.31609    1.000
    O222     O        0.17156    0.95349    0.28589    1.000
    O223     O        0.21269    0.91224    0.25216    1.000
    O224     O        0.13722    0.70529    0.28236    1.000
    O225     O        0.07179    0.77118    0.25206    1.000
    O226     O        0.27848    0.84630    0.28237    1.000
    Cu227    Cu       0.12963    0.85417    0.30428    1.000
    Cu228    Cu       0.17929    0.80458    0.26392    1.000
    C229     C        0.29277    0.87791    0.30457    1.000
    C230     C        0.01611    0.78043    0.26360    1.000
    C231     C        0.10546    0.69099    0.30454    1.000
    C232     C        0.20330    0.96783    0.26371    1.000
    O233     O        0.69973    0.14552    0.61899    1.000
    O234     O        0.90651    0.22109    0.64934    1.000
    O235     O        0.84047    0.28705    0.61934    1.000
    O236     O        0.76559    0.08020    0.64946    1.000
    O237     O        0.80652    0.03871    0.61574    1.000
    O238     O        0.88151    0.24566    0.58562    1.000
    O239     O        0.94781    0.17992    0.61563    1.000
    O240     O        0.74107    0.10450    0.58525    1.000
    Cu241    Cu       0.79877    0.18757    0.63760    1.000
    Cu242    Cu       0.84845    0.13796    0.59725    1.000
    C243     C        0.68552    0.11402    0.59676    1.000
    C244     C        0.96218    0.21181    0.63779    1.000
    C245     C        0.87211    0.30128    0.59715    1.000
    C246     C        0.77505    0.02459    0.63796    1.000
    O247     O        0.43106    0.01736    0.98276    1.000
    O248     O        0.50633    0.88577    0.95261    1.000
    O249     O        0.57186    0.01734    0.98290    1.000
    O250     O        0.36509    0.88583    0.95253    1.000
    O251     O        0.40649    0.96835    0.91883    1.000
    O252     O        0.61319    0.09962    0.94915    1.000
    O253     O        0.54739    0.96809    0.91887    1.000
    O254     O        0.47216    0.09988    0.94906    1.000
    Cu255    Cu       0.46434    0.94310    0.97101    1.000
    Cu256    Cu       0.51405    0.04238    0.93066    1.000
    C257     C        0.44048    0.08241    0.97125    1.000
    C258     C        0.53807    0.90315    0.93043    1.000
    C259     C        0.62744    0.08236    0.97137    1.000
    C260     C        0.35079    0.90340    0.93036    1.000
    O261     O        0.17033    0.22183    0.28582    1.000
    O262     O        0.09485    0.35327    0.31608    1.000
    O263     O        0.02882    0.22112    0.28601    1.000
    O264     O        0.23549    0.35268    0.31632    1.000
    O265     O        0.27686    0.43510    0.28259    1.000
    O266     O        0.07013    0.30345    0.25227    1.000
    O267     O        0.13592    0.43559    0.28233    1.000
    O268     O        0.21143    0.30428    0.25210    1.000
    Cu269    Cu       0.12811    0.27879    0.30437    1.000
    Cu270    Cu       0.17777    0.37805    0.26401    1.000
    C271     C        0.20215    0.23934    0.26364    1.000
    C272     C        0.10425    0.41826    0.30452    1.000
    C273     C        0.01457    0.23840    0.26380    1.000
    C274     C        0.29115    0.41762    0.30478    1.000
    O275     O        0.76649    0.68790    0.64982    1.000
    O276     O        0.84185    0.55666    0.61934    1.000
    O277     O        0.90751    0.68814    0.64977    1.000
    O278     O        0.70056    0.55651    0.61944    1.000
    O279     O        0.74210    0.63920    0.58577    1.000
    O280     O        0.94879    0.77046    0.61603    1.000
    O281     O        0.88277    0.63909    0.58562    1.000
    O282     O        0.80760    0.77042    0.61612    1.000
    Cu283    Cu       0.79993    0.61383    0.63790    1.000
    Cu284    Cu       0.84957    0.71327    0.59759    1.000
    C285     C        0.77592    0.75296    0.63832    1.000
    C286     C        0.87324    0.57396    0.59710    1.000
    C287     C        0.96306    0.75320    0.63824    1.000
    C288     C        0.68645    0.57407    0.59724    1.000
    C289     C        0.16270    0.34774    0.79666    1.000
    C290     C        0.19029    0.30355    0.81259    1.000
    C291     C        0.19817    0.31779    0.83901    1.000
    C292     C        0.17867    0.37536    0.85022    1.000
    C293     C        0.15186    0.41929    0.83454    1.000
    C294     C        0.14398    0.40598    0.80829    1.000
    C295     C        0.15489    0.33152    0.76987    1.000
    C296     C        0.12750    0.37205    0.75258    1.000
    C297     C        0.11981    0.35337    0.72661    1.000
    C298     C        0.13938    0.29412    0.71686    1.000
    C299     C        0.16720    0.25371    0.73368    1.000
    C300     C        0.17493    0.27161    0.75987    1.000
    C301     C        0.20961    0.24511    0.80209    1.000
    C302     C        0.20201    0.22934    0.77608    1.000
    H303     H        0.23062    0.21117    0.81409    1.000
    H304     H        0.21728    0.18352    0.76860    1.000
    H305     H        0.21849    0.28308    0.85095    1.000
    H306     H        0.13798    0.46538    0.84257    1.000
    H307     H        0.09893    0.38603    0.71403    1.000
    H308     H        0.18124    0.20672    0.72645    1.000
    H309     H        0.12327    0.44250    0.79766    1.000
    H310     H        0.11129    0.41838    0.75851    1.000
    C311     C        0.49473    0.01423    0.46345    1.000
    C312     C        0.52298    0.97061    0.47938    1.000
    C313     C        0.53158    0.98551    0.50577    1.000
    C314     C        0.51214    0.04318    0.51695    1.000
    C315     C        0.48469    0.08653    0.50126    1.000
    C316     C        0.47607    0.07256    0.47505    1.000
    C317     C        0.48629    0.99743    0.43668    1.000
    C318     C        0.45837    0.03750    0.41940    1.000
    C319     C        0.45025    0.01840    0.39345    1.000
    C320     C        0.46979    0.95910    0.38372    1.000
    C321     C        0.49801    0.91907    0.40056    1.000
    C322     C        0.50629    0.93749    0.42672    1.000
    C323     C        0.54224    0.91211    0.46891    1.000
    C324     C        0.53398    0.89575    0.44293    1.000
    H325     H        0.56377    0.87860    0.48091    1.000
    H326     H        0.54928    0.84993    0.43547    1.000
    H327     H        0.55239    0.95122    0.51771    1.000
    H328     H        0.47084    0.13268    0.50926    1.000
    H329     H        0.42910    0.05085    0.38087    1.000
    H330     H        0.51203    0.87203    0.39336    1.000
    H331     H        0.45485    0.10863    0.46441    1.000
    H332     H        0.44215    0.08384    0.42531    1.000
    C333     C        0.81670    0.64335    0.10474    1.000
    C334     C        0.78873    0.68689    0.08867    1.000
    C335     C        0.78077    0.67196    0.06227    1.000
    C336     C        0.80060    0.61436    0.05124    1.000
    C337     C        0.82803    0.57130    0.06705    1.000
    C338     C        0.83599    0.58528    0.09327    1.000
    C339     C        0.82424    0.65995    0.13152    1.000
    C340     C        0.85170    0.61982    0.14892    1.000
    C341     C        0.85908    0.63877    0.17487    1.000
    C342     C        0.83917    0.69794    0.18449    1.000
    C343     C        0.81118    0.73790    0.16754    1.000
    C344     C        0.80374    0.71970    0.14136    1.000
    C345     C        0.76902    0.74525    0.09902    1.000
    C346     C        0.77646    0.76146    0.12500    1.000
    H347     H        0.74777    0.77877    0.08691    1.000
    H348     H        0.76081    0.80714    0.13237    1.000
    H349     H        0.76000    0.70606    0.05023    1.000
    H350     H        0.84223    0.52526    0.05916    1.000
    H351     H        0.88002    0.60638    0.18754    1.000
    H352     H        0.79681    0.78478    0.17466    1.000
    H353     H        0.85718    0.54937    0.10401    1.000
    H354     H        0.86816    0.57357    0.14312    1.000
    C355     C        0.15927    0.83309    0.79830    1.000
    C356     C        0.13891    0.75283    0.80811    1.000
    C357     C        0.14615    0.74191    0.83428    1.000
    C358     C        0.17380    0.80969    0.85127    1.000
    C359     C        0.19356    0.88879    0.84170    1.000
    C360     C        0.18636    0.90052    0.81575    1.000
    C361     C        0.15200    0.84228    0.77152    1.000
    C362     C        0.17119    0.91964    0.76005    1.000
    C363     C        0.16348    0.92574    0.73382    1.000
    C364     C        0.13641    0.85531    0.71799    1.000
    C365     C        0.11675    0.77794    0.72902    1.000
    C366     C        0.12442    0.77090    0.75542    1.000
    C367     C        0.11200    0.68392    0.79172    1.000
    C368     C        0.10480    0.69283    0.76574    1.000
    H369     H        0.09648    0.62259    0.79906    1.000
    H370     H        0.08382    0.63816    0.75360    1.000
    H371     H        0.13193    0.68067    0.84136    1.000
    H372     H        0.21428    0.94201    0.85441    1.000
    H373     H        0.17758    0.98595    0.72593    1.000
    H374     H        0.09630    0.72315    0.71697    1.000
    H375     H        0.20268    0.96322    0.80997    1.000
    H376     H        0.19209    0.97666    0.77082    1.000
    C377     C        0.50251    0.49123    0.46356    1.000
    C378     C        0.43110    0.46324    0.47967    1.000
    C379     C        0.43827    0.45571    0.50607    1.000
    C380     C        0.51581    0.47593    0.51710    1.000
    C381     C        0.58628    0.50352    0.50125    1.000
    C382     C        0.58005    0.51110    0.47502    1.000
    C383     C        0.49316    0.49825    0.43677    1.000
    C384     C        0.56055    0.52548    0.41930    1.000
    C385     C        0.54867    0.53245    0.39335    1.000
    C386     C        0.46946    0.51238    0.38378    1.000
    C387     C        0.40170    0.48450    0.40079    1.000
    C388     C        0.41276    0.47739    0.42697    1.000
    C389     C        0.35286    0.44304    0.46935    1.000
    C390     C        0.34383    0.45010    0.44337    1.000
    H391     H        0.29816    0.42172    0.48149    1.000
    H392     H        0.28238    0.43414    0.43604    1.000
    H393     H        0.38342    0.43489    0.51812    1.000
    H394     H        0.64664    0.51808    0.50913    1.000
    H395     H        0.60189    0.55326    0.38063    1.000
    H396     H        0.34036    0.47000    0.39373    1.000
    H397     H        0.63713    0.53247    0.46425    1.000
    H398     H        0.62333    0.54206    0.42507    1.000
    C399     C        0.81672    0.17268    0.10465    1.000
    C400     C        0.78956    0.10106    0.08867    1.000
    C401     C        0.78166    0.10753    0.06226    1.000
    C402     C        0.80080    0.18459    0.05110    1.000
    C403     C        0.82741    0.25519    0.06681    1.000
    C404     C        0.83528    0.24965    0.09305    1.000
    C405     C        0.82420    0.16414    0.13145    1.000
    C406     C        0.85087    0.23188    0.14876    1.000
    C407     C        0.85812    0.22079    0.17474    1.000
    C408     C        0.83889    0.14206    0.18449    1.000
    C409     C        0.81178    0.07399    0.16763    1.000
    C410     C        0.80444    0.08425    0.14142    1.000
    C411     C        0.77059    0.02336    0.09915    1.000
    C412     C        0.77798    0.01508    0.12517    1.000
    H413     H        0.74996    0.96850    0.08712    1.000
    H414     H        0.76291    0.95404    0.13263    1.000
    H415     H        0.76150    0.05260    0.05029    1.000
    H416     H        0.84106    0.31515    0.05882    1.000
    H417     H        0.87841    0.27421    0.18734    1.000
    H418     H        0.79797    0.01302    0.17486    1.000
    H419     H        0.85583    0.30681    0.10371    1.000
    H420     H        0.86677    0.29434    0.14285    1.000
    C421     C        0.67518    0.84109    0.77163    1.000
    C422     C        0.63195    0.76952    0.75557    1.000
    C423     C        0.64656    0.77656    0.72916    1.000
    C424     C        0.70358    0.85411    0.71808    1.000
    C425     C        0.74635    0.92471    0.73388    1.000
    C426     C        0.73264    0.91862    0.76012    1.000
    C427     C        0.65884    0.83192    0.79842    1.000
    C428     C        0.69877    0.89949    0.81584    1.000
    C429     C        0.67989    0.88779    0.84179    1.000
    C430     C        0.62094    0.80860    0.85141    1.000
    C431     C        0.58132    0.74065    0.83445    1.000
    C432     C        0.59951    0.75152    0.80827    1.000
    C433     C        0.57416    0.69128    0.76593    1.000
    C434     C        0.55810    0.68242    0.79193    1.000
    H435     H        0.54094    0.63646    0.75383    1.000
    H436     H        0.51278    0.62096    0.79930    1.000
    H437     H        0.61265    0.72161    0.71714    1.000
    H438     H        0.79194    0.98509    0.72597    1.000
    H439     H        0.71212    0.94115    0.85447    1.000
    H440     H        0.53463    0.67930    0.84155    1.000
    H441     H        0.76823    0.97580    0.77085    1.000
    H442     H        0.74480    0.96228    0.81003    1.000
    C443     C        0.97026    0.48331    0.46352    1.000
    C444     C        0.01428    0.55508    0.47947    1.000
    C445     C        0.00009    0.54861    0.50589    1.000
    C446     C        0.94274    0.47143    0.51709    1.000
    C447     C        0.89905    0.40069    0.50140    1.000
    C448     C        0.91233    0.40622    0.47515    1.000
    C449     C        0.98629    0.49185    0.43671    1.000
    C450     C        0.94574    0.42399    0.41942    1.000
    C451     C        0.96422    0.43510    0.39344    1.000
    C452     C        0.02335    0.51398    0.38368    1.000
    C453     C        0.06373    0.58216    0.40053    1.000
    C454     C        0.04596    0.57188    0.42672    1.000
    C455     C        0.07245    0.63293    0.46896    1.000
    C456     C        0.08811    0.64121    0.44295    1.000
    H457     H        0.10626    0.68789    0.48097    1.000
    H458     H        0.13371    0.70238    0.43547    1.000
    H459     H        0.03465    0.60366    0.51783    1.000
    H460     H        0.85314    0.34063    0.50942    1.000
    H461     H        0.93150    0.38158    0.38085    1.000
    H462     H        0.11062    0.64325    0.39331    1.000
    H463     H        0.87604    0.34896    0.46451    1.000
    H464     H        0.89951    0.36141    0.42534    1.000
    C465     C        0.32355    0.15905    0.13164    1.000
    C466     C        0.26400    0.17987    0.14146    1.000
    C467     C        0.24588    0.17273    0.16763    1.000
    C468     C        0.28580    0.14484    0.18463    1.000
    C469     C        0.34497    0.12485    0.17505    1.000
    C470     C        0.36379    0.13186    0.14909    1.000
    C471     C        0.33982    0.16603    0.10484    1.000
    C472     C        0.39751    0.14622    0.09337    1.000
    C473     C        0.41116    0.15367    0.06713    1.000
    C474     C        0.36808    0.18104    0.05129    1.000
    C475     C        0.31079    0.20126    0.06233    1.000
    C476     C        0.29625    0.19388    0.08874    1.000
    C477     C        0.22226    0.20708    0.12507    1.000
    C478     C        0.23823    0.21407    0.09907    1.000
    H479     H        0.17676    0.22301    0.13242    1.000
    H480     H        0.20476    0.23530    0.08694    1.000
    H481     H        0.19902    0.18718    0.17471    1.000
    H482     H        0.37741    0.10404    0.18775    1.000
    H483     H        0.45697    0.13914    0.05924    1.000
    H484     H        0.27662    0.22193    0.05028    1.000
    H485     H        0.41000    0.11532    0.14331    1.000
    H486     H        0.43337    0.12501    0.10413    1.000
