data_functionalizedCrystal
_audit_creation_method	'EQeq! by Chris Wilmer'
_symmetry_space_group_name_H-M	'P1'
_symmetry_Int_Tables_number	1
_symmetry_cell_setting	triclinic
loop_
_symmetry_equiv_pos_as_xyz
  x,y,z
_cell_length_a	12.3342
_cell_length_b	12.3731
_cell_length_c	8.8709
_cell_angle_alpha	75.4778
_cell_angle_beta	78.9579
_cell_angle_gamma	63.3879
loop_
_atom_site_label
_atom_site_type_symbol
_atom_site_fract_x
_atom_site_fract_y
_atom_site_fract_z
_atom_site_charge
Mof_C 	C 	0.97498	0.38904	0.39648	-0.011
Mof_C 	C 	0.01109	0.56772	0.30254	0.021
Mof_C 	C 	0.86204	0.54411	0.19693	0.015
Mof_C 	C 	0.04002	0.45413	0.39728	-0.037
Mof_H 	H 	0.11846	0.41311	0.46366	0.054
Mof_C 	C 	0.92313	0.61282	0.20017	-0.064
Mof_H 	H 	0.90067	0.70232	0.12563	0.048
Mof_C 	C 	0.88298	0.43672	0.30213	-0.055
Mof_H 	H 	0.83202	0.38447	0.30503	0.081
Mof_C 	C 	0.13948	0.68915	0.29613	-0.106
Mof_C 	C 	0.07997	0.63401	0.30113	0.05
Mof_C 	C 	0.6501	0.64433	0.09637	-0.111
Mof_C 	C 	0.75459	0.59666	0.12006	0.048
Mof_C 	C 	0.08784	0.15471	0.42316	-0.125
Mof_C 	C 	0.03153	0.25998	0.43262	0.092
Mof_O 	O 	0.24749	0.95908	0.46253	-0.444
Mof_O 	O 	0.17249	0.04302	0.22336	-0.37
Mof_C 	C 	0.16478	0.04312	0.37314	0.41
Mof_O 	O 	0.48237	0.90692	0.33274	-0.354
Mof_O 	O 	0.40033	0.01915	0.10298	-0.29
Mof_C 	C 	0.47563	0.99202	0.20651	0.174
Mof_Cu	Cu	0.37634	0.81896	0.38958	0.906
Mof_Cu	Cu	0.30621	0.92857	0.10832	0.886
Mof_O 	O 	0.49303	0.6926	0.28205	-0.392
Mof_O 	O 	0.4586	0.8034	0.03534	-0.391
Mof_O 	O 	0.26283	0.74696	0.40287	-0.381
Mof_O 	O 	0.22458	0.82174	0.14617	-0.397
Mof_C 	C 	0.52377	0.70549	0.13155	0.336
Mof_C 	C 	0.21079	0.75523	0.28217	0.329
Mof_C 	C 	0.80625	0.2661	0.15493	0.089
Mof_C 	C 	0.80291	0.26576	0.88381	0.077
Mof_C 	C 	0.69849	0.16868	0.08674	0.08
Mof_C 	C 	0.84084	0.29941	0.99677	-0.102
Mof_H 	H 	0.89585	0.35083	0.96224	0.067
Mof_C 	C 	0.73195	0.20071	0.93099	-0.099
Mof_H 	H 	0.70177	0.17523	0.84413	0.074
Mof_C 	C 	0.73573	0.20127	0.19704	-0.102
Mof_H 	H 	0.70838	0.17664	0.31927	0.077
Mof_C 	C 	0.8446	0.30681	0.5742	0.019
Mof_C 	C 	0.83199	0.29436	0.71603	-0.035
Mof_C 	C 	0.55613	0.05181	0.17288	0.024
Mof_C 	C 	0.62198	0.10423	0.13507	-0.011
Mof_C 	C 	0.8465	0.30785	0.41211	-0.02
Mof_C 	C 	0.83616	0.2954	0.28489	-0.06
_end
