data_functionalizedCrystal
_audit_creation_method	'EQeq! by Chris Wilmer'
_symmetry_space_group_name_H-M	'P1'
_symmetry_Int_Tables_number	1
_symmetry_cell_setting	triclinic
loop_
_symmetry_equiv_pos_as_xyz
  x,y,z
_cell_length_a	31.5201
_cell_length_b	39.6365
_cell_length_c	13.9957
_cell_angle_alpha	90
_cell_angle_beta	90
_cell_angle_gamma	90
loop_
_atom_site_label
_atom_site_type_symbol
_atom_site_fract_x
_atom_site_fract_y
_atom_site_fract_z
_atom_site_charge
Mof_Ag	Ag	0.27481	6e-05	0.76211	0.492
Mof_P 	P 	0.31158	0.03864	0.6539	0.024
Mof_P 	P 	0.18834	0.03808	0.37183	0.024
Mof_N 	N 	0.2211	0.9612	0.7048	-0.174
Mof_N 	N 	0.0287	0.78763	0.5654	-0.221
Mof_C 	C 	0.222	0.0644	0.4478	-0.195
Mof_H 	H 	0.239	0.0798	0.4073	0.076
Mof_H 	H 	0.2039	0.0784	0.49	0.082
Mof_C 	C 	0.2503	0.04379	0.506	0.006
Mof_H 	H 	0.2695	0.031	0.4632	0.014
Mof_H 	H 	0.2332	0.0272	0.5422	0.015
Mof_C 	C 	0.2784	0.0651	0.5797	-0.196
Mof_H 	H 	0.2594	0.0785	0.6211	0.075
Mof_H 	H 	0.2966	0.0809	0.5436	0.083
Mof_C 	C 	0.1852	0.957	0.7632	0.055
Mof_H 	H 	0.1796	0.9711	0.8164	0.005
Mof_C 	C 	0.1583	0.9303	0.7372	-0.138
Mof_H 	H 	0.1329	0.9271	0.7726	0.066
Mof_C 	C 	0.1669	0.909	0.6637	0.09
Mof_H 	H 	0.1478	0.8914	0.6474	-0.073
Mof_C 	C 	0.2059	0.9139	0.611	-0.148
Mof_H 	H 	0.2135	0.8987	0.5613	0.068
Mof_C 	C 	0.2316	0.9404	0.633	0.074
Mof_H 	H 	0.2569	0.9441	0.5976	-0.012
Mof_C 	C 	0.0639	0.7943	0.5262	0.15
Mof_H 	H 	0.0728	0.7795	0.4767	-0.024
Mof_C 	C 	0.0914	0.8214	0.5479	-0.267
Mof_H 	H 	0.1169	0.8248	0.513	0.117
Mof_C 	C 	0.0798	0.8435	0.624	0.289
Mof_C 	C 	0.0435	0.8368	0.6651	-0.319
Mof_H 	H 	0.033	0.8509	0.7145	0.13
Mof_C 	C 	0.0214	0.8099	0.637	0.168
Mof_H 	H 	0.9965	0.8057	0.6731	-0.041
Mof_C 	C 	0.1037	0.8726	0.6504	-0.384
Mof_H 	H 	0.0935	0.8895	0.6925	0.153
Mof_C 	C 	0.1363	0.8733	0.616	0.238
Mof_H 	H 	0.1462	0.8577	0.5695	-0.064
Mof_C 	C 	0.156	0.06897	0.3052	-0.009
Mof_C 	C 	0.1765	0.093	0.2495	-0.073
Mof_H 	H 	0.2066	0.0946	0.2507	0.042
Mof_C 	C 	0.153	0.1147	0.1922	-0.017
Mof_H 	H 	0.167	0.1311	0.1542	0.023
Mof_C 	C 	0.109	0.1124	0.1905	-0.065
Mof_H 	H 	0.093	0.1273	0.1514	0.042
Mof_C 	C 	0.0885	0.0884	0.2462	-0.017
Mof_H 	H 	0.0584	0.0868	0.245	0.028
Mof_C 	C 	0.112	0.0667	0.3035	-0.069
Mof_H 	H 	0.0979	0.0502	0.3415	0.05
Mof_C 	C 	0.3487	0.0201	0.5664	-0.012
Mof_C 	C 	0.3705	0.03876	0.498	-0.064
Mof_H 	H 	0.367	0.0625	0.4951	0.047
Mof_C 	C 	0.3975	0.0226	0.4341	-0.023
Mof_H 	H 	0.4124	0.0354	0.3874	0.028
Mof_C 	C 	0.4026	0.9878	0.4385	-0.053
Mof_H 	H 	0.421	0.9768	0.3948	0.042
Mof_C 	C 	0.3808	0.96917	0.5068	-0.025
Mof_H 	H 	0.3844	0.9454	0.5098	0.038
Mof_C 	C 	0.3539	0.9853	0.5707	-0.058
Mof_H 	H 	0.339	0.9726	0.6174	0.026
Mof_C 	C 	0.34325	0.06831	0.7217	-0.011
Mof_C 	C 	0.38697	0.0643	0.7279	-0.068
Mof_H 	H 	0.4007	0.0473	0.6913	0.05
Mof_C 	C 	0.41058	0.0851	0.7875	-0.016
Mof_H 	H 	0.4405	0.0824	0.7917	0.031
Mof_C 	C 	0.3905	0.1099	0.8411	-0.062
Mof_H 	H 	0.4066	0.1242	0.8818	0.047
Mof_C 	C 	0.3467	0.11396	0.8349	-0.018
Mof_H 	H 	0.333	0.1309	0.8715	0.03
Mof_C 	C 	0.32314	0.0931	0.7753	-0.07
Mof_H 	H 	0.2933	0.0959	0.7711	0.042
Mof_C 	C 	0.152	0.0197	0.4537	-0.014
Mof_C 	C 	0.1307	0.0398	0.5192	-0.062
Mof_H 	H 	0.1352	0.0635	0.5196	0.047
Mof_C 	C 	0.1028	0.0253	0.5843	-0.024
Mof_H 	H 	0.0882	0.0391	0.6291	0.03
Mof_C 	C 	0.0962	0.9907	0.5838	-0.052
Mof_H 	H 	0.0771	0.9808	0.6282	0.041
Mof_C 	C 	0.1175	0.9705	0.5182	-0.025
Mof_H 	H 	0.1129	0.9468	0.5178	0.037
Mof_C 	C 	0.1453	0.985	0.4531	-0.058
Mof_H 	H 	0.1599	0.9712	0.4083	0.028
Mof_Ag	Ag	0.27481	0.50006	0.26211	0.488
Mof_P 	P 	0.31158	0.53864	0.1539	0.024
Mof_P 	P 	0.18834	0.53808	0.87183	0.018
Mof_N 	N 	0.2211	0.4612	0.2048	-0.176
Mof_N 	N 	0.0287	0.28763	0.0654	-0.217
Mof_C 	C 	0.222	0.5644	0.9478	-0.16
Mof_H 	H 	0.239	0.5798	0.9073	0.067
Mof_H 	H 	0.2039	0.5784	0.99	0.077
Mof_C 	C 	0.2503	0.54379	0.006	-0.053
Mof_H 	H 	0.2695	0.531	0.9632	0.038
Mof_H 	H 	0.2332	0.5272	0.0422	0.026
Mof_C 	C 	0.2784	0.5651	0.0797	-0.177
Mof_H 	H 	0.2594	0.5785	0.1211	0.067
Mof_H 	H 	0.2966	0.5809	0.0436	0.072
Mof_C 	C 	0.1852	0.457	0.2632	0.056
Mof_H 	H 	0.1796	0.4711	0.3164	0.004
Mof_C 	C 	0.1583	0.4303	0.2372	-0.144
Mof_H 	H 	0.1329	0.4271	0.2726	0.067
Mof_C 	C 	0.1669	0.409	0.1637	0.097
Mof_H 	H 	0.1478	0.3914	0.1474	-0.083
Mof_C 	C 	0.2059	0.4139	0.111	-0.154
Mof_H 	H 	0.2135	0.3987	0.0613	0.066
Mof_C 	C 	0.2316	0.4404	0.133	0.075
Mof_H 	H 	0.2569	0.4441	0.0976	-0.015
Mof_C 	C 	0.0639	0.2943	0.0262	0.119
Mof_H 	H 	0.0728	0.2795	0.9767	-0.004
Mof_C 	C 	0.0914	0.3214	0.0479	-0.256
Mof_H 	H 	0.1169	0.3248	0.013	0.109
Mof_C 	C 	0.0798	0.3435	0.124	0.288
Mof_C 	C 	0.0435	0.3368	0.1651	-0.318
Mof_H 	H 	0.033	0.3509	0.2145	0.129
Mof_C 	C 	0.0214	0.3099	0.137	0.165
Mof_H 	H 	0.9965	0.3057	0.1731	-0.04
Mof_C 	C 	0.1037	0.3726	0.1504	-0.397
Mof_H 	H 	0.0935	0.3895	0.1925	0.157
Mof_C 	C 	0.1363	0.3733	0.116	0.258
Mof_H 	H 	0.1462	0.3577	0.0695	-0.073
Mof_C 	C 	0.156	0.56897	0.8052	-0.006
Mof_C 	C 	0.1765	0.593	0.7495	-0.074
Mof_H 	H 	0.2066	0.5946	0.7507	0.043
Mof_C 	C 	0.153	0.6147	0.6922	-0.014
Mof_H 	H 	0.167	0.6311	0.6542	0.025
Mof_C 	C 	0.109	0.6124	0.6905	-0.066
Mof_H 	H 	0.093	0.6273	0.6514	0.045
Mof_C 	C 	0.0885	0.5884	0.7462	-0.014
Mof_H 	H 	0.0584	0.5868	0.745	0.029
Mof_C 	C 	0.112	0.5667	0.8035	-0.07
Mof_H 	H 	0.0979	0.5502	0.8415	0.053
Mof_C 	C 	0.3487	0.5201	0.0664	-0.048
Mof_C 	C 	0.3705	0.53876	0.998	-0.016
Mof_H 	H 	0.367	0.5625	0.9951	0.036
Mof_C 	C 	0.3975	0.5226	0.9341	-0.064
Mof_H 	H 	0.4124	0.5354	0.8874	0.043
Mof_C 	C 	0.4026	0.4878	0.9385	0.001
Mof_H 	H 	0.421	0.4768	0.8948	0.026
Mof_C 	C 	0.3808	0.46917	0.0068	-0.079
Mof_H 	H 	0.3844	0.4454	0.0098	0.051
Mof_C 	C 	0.3539	0.4853	0.0707	-0.024
Mof_H 	H 	0.339	0.4726	0.1174	0.014
Mof_C 	C 	0.34325	0.56831	0.2217	-0.013
Mof_C 	C 	0.38697	0.5643	0.2279	-0.068
Mof_H 	H 	0.4007	0.5473	0.1913	0.048
Mof_C 	C 	0.41058	0.5851	0.2875	-0.019
Mof_H 	H 	0.4405	0.5824	0.2917	0.029
Mof_C 	C 	0.3905	0.6099	0.3411	-0.063
Mof_H 	H 	0.4066	0.6242	0.3818	0.044
Mof_C 	C 	0.3467	0.61396	0.3349	-0.019
Mof_H 	H 	0.333	0.6309	0.3715	0.027
Mof_C 	C 	0.32314	0.5931	0.2753	-0.07
Mof_H 	H 	0.2933	0.5959	0.2711	0.041
Mof_C 	C 	0.152	0.5197	0.9537	-0.003
Mof_C 	C 	0.1307	0.5398	0.0192	-0.079
Mof_H 	H 	0.1352	0.5635	0.0196	0.048
Mof_C 	C 	0.1028	0.5253	0.0843	-0.023
Mof_H 	H 	0.0882	0.5391	0.1291	0.028
Mof_C 	C 	0.0962	0.4907	0.0838	-0.047
Mof_H 	H 	0.0771	0.4808	0.1282	0.038
Mof_C 	C 	0.1175	0.4705	0.0182	-0.047
Mof_H 	H 	0.1129	0.4468	0.0178	0.041
Mof_C 	C 	0.1453	0.485	0.9531	-0.039
Mof_H 	H 	0.1599	0.4712	0.9083	0.024
Mof_Ag	Ag	0.77481	6e-05	0.26211	0.488
Mof_P 	P 	0.81158	0.03864	0.1539	0.024
Mof_P 	P 	0.68834	0.03808	0.87183	0.018
Mof_N 	N 	0.7211	0.9612	0.2048	-0.176
Mof_N 	N 	0.5287	0.78763	0.0654	-0.217
Mof_C 	C 	0.722	0.0644	0.9478	-0.16
Mof_H 	H 	0.739	0.0798	0.9073	0.067
Mof_H 	H 	0.7039	0.0784	0.99	0.077
Mof_C 	C 	0.7503	0.04379	0.006	-0.053
Mof_H 	H 	0.7695	0.031	0.9632	0.038
Mof_H 	H 	0.7332	0.0272	0.0422	0.026
Mof_C 	C 	0.7784	0.0651	0.0797	-0.177
Mof_H 	H 	0.7594	0.0785	0.1211	0.067
Mof_H 	H 	0.7966	0.0809	0.0436	0.072
Mof_C 	C 	0.6852	0.957	0.2632	0.056
Mof_H 	H 	0.6796	0.9711	0.3164	0.004
Mof_C 	C 	0.6583	0.9303	0.2372	-0.144
Mof_H 	H 	0.6329	0.9271	0.2726	0.067
Mof_C 	C 	0.6669	0.909	0.1637	0.097
Mof_H 	H 	0.6478	0.8914	0.1474	-0.083
Mof_C 	C 	0.7059	0.9139	0.111	-0.154
Mof_H 	H 	0.7135	0.8987	0.0613	0.066
Mof_C 	C 	0.7316	0.9404	0.133	0.075
Mof_H 	H 	0.7569	0.9441	0.0976	-0.015
Mof_C 	C 	0.5639	0.7943	0.0262	0.119
Mof_H 	H 	0.5728	0.7795	0.9767	-0.004
Mof_C 	C 	0.5914	0.8214	0.0479	-0.256
Mof_H 	H 	0.6169	0.8248	0.013	0.109
Mof_C 	C 	0.5798	0.8435	0.124	0.288
Mof_C 	C 	0.5435	0.8368	0.1651	-0.318
Mof_H 	H 	0.533	0.8509	0.2145	0.129
Mof_C 	C 	0.5214	0.8099	0.137	0.165
Mof_H 	H 	0.4965	0.8057	0.1731	-0.04
Mof_C 	C 	0.6037	0.8726	0.1504	-0.398
Mof_H 	H 	0.5935	0.8895	0.1925	0.158
Mof_C 	C 	0.6363	0.8733	0.116	0.258
Mof_H 	H 	0.6462	0.8577	0.0695	-0.073
Mof_C 	C 	0.656	0.06897	0.8052	-0.006
Mof_C 	C 	0.6765	0.093	0.7495	-0.074
Mof_H 	H 	0.7066	0.0946	0.7507	0.043
Mof_C 	C 	0.653	0.1147	0.6922	-0.014
Mof_H 	H 	0.667	0.1311	0.6542	0.025
Mof_C 	C 	0.609	0.1124	0.6905	-0.066
Mof_H 	H 	0.593	0.1273	0.6514	0.045
Mof_C 	C 	0.5885	0.0884	0.7462	-0.014
Mof_H 	H 	0.5584	0.0868	0.745	0.029
Mof_C 	C 	0.612	0.0667	0.8035	-0.07
Mof_H 	H 	0.5979	0.0502	0.8415	0.053
Mof_C 	C 	0.8487	0.0201	0.0664	-0.048
Mof_C 	C 	0.8705	0.03876	0.998	-0.016
Mof_H 	H 	0.867	0.0625	0.9951	0.036
Mof_C 	C 	0.8975	0.0226	0.9341	-0.064
Mof_H 	H 	0.9124	0.0354	0.8874	0.043
Mof_C 	C 	0.9026	0.9878	0.9385	0.001
Mof_H 	H 	0.921	0.9768	0.8948	0.026
Mof_C 	C 	0.8808	0.96917	0.0068	-0.079
Mof_H 	H 	0.8844	0.9454	0.0098	0.051
Mof_C 	C 	0.8539	0.9853	0.0707	-0.024
Mof_H 	H 	0.839	0.9726	0.1174	0.014
Mof_C 	C 	0.84325	0.06831	0.2217	-0.013
Mof_C 	C 	0.88697	0.0643	0.2279	-0.068
Mof_H 	H 	0.9007	0.0473	0.1913	0.048
Mof_C 	C 	0.91058	0.0851	0.2875	-0.019
Mof_H 	H 	0.9405	0.0824	0.2917	0.029
Mof_C 	C 	0.8905	0.1099	0.3411	-0.063
Mof_H 	H 	0.9066	0.1242	0.3818	0.044
Mof_C 	C 	0.8467	0.11396	0.3349	-0.019
Mof_H 	H 	0.833	0.1309	0.3715	0.027
Mof_C 	C 	0.82314	0.0931	0.2753	-0.07
Mof_H 	H 	0.7933	0.0959	0.2711	0.041
Mof_C 	C 	0.652	0.0197	0.9537	-0.003
Mof_C 	C 	0.6307	0.0398	0.0192	-0.079
Mof_H 	H 	0.6352	0.0635	0.0196	0.048
Mof_C 	C 	0.6028	0.0253	0.0843	-0.023
Mof_H 	H 	0.5882	0.0391	0.1291	0.028
Mof_C 	C 	0.5962	0.9907	0.0838	-0.047
Mof_H 	H 	0.5771	0.9808	0.1282	0.038
Mof_C 	C 	0.6175	0.9705	0.0182	-0.047
Mof_H 	H 	0.6129	0.9468	0.0178	0.041
Mof_C 	C 	0.6453	0.985	0.9531	-0.039
Mof_H 	H 	0.6599	0.9712	0.9083	0.024
Mof_Ag	Ag	0.77481	0.50006	0.76211	0.491
Mof_P 	P 	0.81158	0.53864	0.6539	0.023
Mof_P 	P 	0.68834	0.53808	0.37183	0.023
Mof_N 	N 	0.7211	0.4612	0.7048	-0.175
Mof_N 	N 	0.5287	0.28763	0.5654	-0.222
Mof_C 	C 	0.722	0.5644	0.4478	-0.196
Mof_H 	H 	0.739	0.5798	0.4073	0.075
Mof_H 	H 	0.7039	0.5784	0.49	0.081
Mof_C 	C 	0.7503	0.54379	0.506	0.005
Mof_H 	H 	0.7695	0.531	0.4632	0.013
Mof_H 	H 	0.7332	0.5272	0.5422	0.014
Mof_C 	C 	0.7784	0.5651	0.5797	-0.197
Mof_H 	H 	0.7594	0.5785	0.6211	0.074
Mof_H 	H 	0.7966	0.5809	0.5436	0.082
Mof_C 	C 	0.6852	0.457	0.7632	0.055
Mof_H 	H 	0.6796	0.4711	0.8164	0.005
Mof_C 	C 	0.6583	0.4303	0.7372	-0.138
Mof_H 	H 	0.6329	0.4271	0.7726	0.066
Mof_C 	C 	0.6669	0.409	0.6637	0.09
Mof_H 	H 	0.6478	0.3914	0.6474	-0.073
Mof_C 	C 	0.7059	0.4139	0.611	-0.148
Mof_H 	H 	0.7135	0.3987	0.5613	0.068
Mof_C 	C 	0.7316	0.4404	0.633	0.074
Mof_H 	H 	0.7569	0.4441	0.5976	-0.012
Mof_C 	C 	0.5639	0.2943	0.5262	0.15
Mof_H 	H 	0.5728	0.2795	0.4767	-0.024
Mof_C 	C 	0.5914	0.3214	0.5479	-0.267
Mof_H 	H 	0.6169	0.3248	0.513	0.117
Mof_C 	C 	0.5798	0.3435	0.624	0.289
Mof_C 	C 	0.5435	0.3368	0.6651	-0.319
Mof_H 	H 	0.533	0.3509	0.7145	0.13
Mof_C 	C 	0.5214	0.3099	0.637	0.168
Mof_H 	H 	0.4965	0.3057	0.6731	-0.041
Mof_C 	C 	0.6037	0.3726	0.6504	-0.384
Mof_H 	H 	0.5935	0.3895	0.6925	0.153
Mof_C 	C 	0.6363	0.3733	0.616	0.238
Mof_H 	H 	0.6462	0.3577	0.5695	-0.064
Mof_C 	C 	0.656	0.56897	0.3052	-0.009
Mof_C 	C 	0.6765	0.593	0.2495	-0.073
Mof_H 	H 	0.7066	0.5946	0.2507	0.042
Mof_C 	C 	0.653	0.6147	0.1922	-0.017
Mof_H 	H 	0.667	0.6311	0.1542	0.023
Mof_C 	C 	0.609	0.6124	0.1905	-0.065
Mof_H 	H 	0.593	0.6273	0.1514	0.042
Mof_C 	C 	0.5885	0.5884	0.2462	-0.017
Mof_H 	H 	0.5584	0.5868	0.245	0.028
Mof_C 	C 	0.612	0.5667	0.3035	-0.069
Mof_H 	H 	0.5979	0.5502	0.3415	0.05
Mof_C 	C 	0.8487	0.5201	0.5664	-0.012
Mof_C 	C 	0.8705	0.53876	0.498	-0.064
Mof_H 	H 	0.867	0.5625	0.4951	0.047
Mof_C 	C 	0.8975	0.5226	0.4341	-0.023
Mof_H 	H 	0.9124	0.5354	0.3874	0.028
Mof_C 	C 	0.9026	0.4878	0.4385	-0.053
Mof_H 	H 	0.921	0.4768	0.3948	0.042
Mof_C 	C 	0.8808	0.46917	0.5068	-0.025
Mof_H 	H 	0.8844	0.4454	0.5098	0.038
Mof_C 	C 	0.8539	0.4853	0.5707	-0.058
Mof_H 	H 	0.839	0.4726	0.6174	0.026
Mof_C 	C 	0.84325	0.56831	0.7217	-0.011
Mof_C 	C 	0.88697	0.5643	0.7279	-0.068
Mof_H 	H 	0.9007	0.5473	0.6913	0.05
Mof_C 	C 	0.91058	0.5851	0.7875	-0.016
Mof_H 	H 	0.9405	0.5824	0.7917	0.031
Mof_C 	C 	0.8905	0.6099	0.8411	-0.062
Mof_H 	H 	0.9066	0.6242	0.8818	0.047
Mof_C 	C 	0.8467	0.61396	0.8349	-0.018
Mof_H 	H 	0.833	0.6309	0.8715	0.03
Mof_C 	C 	0.82314	0.5931	0.7753	-0.07
Mof_H 	H 	0.7933	0.5959	0.7711	0.042
Mof_C 	C 	0.652	0.5197	0.4537	-0.014
Mof_C 	C 	0.6307	0.5398	0.5192	-0.062
Mof_H 	H 	0.6352	0.5635	0.5196	0.047
Mof_C 	C 	0.6028	0.5253	0.5843	-0.024
Mof_H 	H 	0.5882	0.5391	0.6291	0.03
Mof_C 	C 	0.5962	0.4907	0.5838	-0.052
Mof_H 	H 	0.5771	0.4808	0.6282	0.041
Mof_C 	C 	0.6175	0.4705	0.5182	-0.025
Mof_H 	H 	0.6129	0.4468	0.5178	0.037
Mof_C 	C 	0.6453	0.485	0.4531	-0.058
Mof_H 	H 	0.6599	0.4712	0.4083	0.028
Mof_Ag	Ag	0.72519	0.99994	0.76211	0.491
Mof_P 	P 	0.68842	0.96136	0.6539	0.023
Mof_P 	P 	0.81166	0.96192	0.37183	0.023
Mof_N 	N 	0.7789	0.0388	0.7048	-0.175
Mof_N 	N 	0.9713	0.21237	0.5654	-0.222
Mof_C 	C 	0.778	0.9356	0.4478	-0.196
Mof_H 	H 	0.761	0.9202	0.4073	0.075
Mof_H 	H 	0.7961	0.9216	0.49	0.081
Mof_C 	C 	0.7497	0.95621	0.506	0.005
Mof_H 	H 	0.7305	0.969	0.4632	0.013
Mof_H 	H 	0.7668	0.9728	0.5422	0.014
Mof_C 	C 	0.7216	0.9349	0.5797	-0.197
Mof_H 	H 	0.7406	0.9215	0.6211	0.074
Mof_H 	H 	0.7034	0.9191	0.5436	0.082
Mof_C 	C 	0.8148	0.043	0.7632	0.055
Mof_H 	H 	0.8204	0.0289	0.8164	0.005
Mof_C 	C 	0.8417	0.0697	0.7372	-0.138
Mof_H 	H 	0.8671	0.0729	0.7726	0.066
Mof_C 	C 	0.8331	0.091	0.6637	0.09
Mof_H 	H 	0.8522	0.1086	0.6474	-0.073
Mof_C 	C 	0.7941	0.0861	0.611	-0.148
Mof_H 	H 	0.7865	0.1013	0.5613	0.068
Mof_C 	C 	0.7684	0.0596	0.633	0.074
Mof_H 	H 	0.7431	0.0559	0.5976	-0.012
Mof_C 	C 	0.9361	0.2057	0.5262	0.15
Mof_H 	H 	0.9272	0.2205	0.4767	-0.024
Mof_C 	C 	0.9086	0.1786	0.5479	-0.267
Mof_H 	H 	0.8831	0.1752	0.513	0.117
Mof_C 	C 	0.9202	0.1565	0.624	0.289
Mof_C 	C 	0.9565	0.1632	0.6651	-0.319
Mof_H 	H 	0.967	0.1491	0.7145	0.13
Mof_C 	C 	0.9786	0.1901	0.637	0.168
Mof_H 	H 	0.0035	0.1943	0.6731	-0.041
Mof_C 	C 	0.8963	0.1274	0.6504	-0.384
Mof_H 	H 	0.9065	0.1105	0.6925	0.153
Mof_C 	C 	0.8637	0.1267	0.616	0.238
Mof_H 	H 	0.8538	0.1423	0.5695	-0.064
Mof_C 	C 	0.844	0.93103	0.3052	-0.009
Mof_C 	C 	0.8235	0.907	0.2495	-0.073
Mof_H 	H 	0.7934	0.9054	0.2507	0.042
Mof_C 	C 	0.847	0.8853	0.1922	-0.017
Mof_H 	H 	0.833	0.8689	0.1542	0.023
Mof_C 	C 	0.891	0.8876	0.1905	-0.065
Mof_H 	H 	0.907	0.8727	0.1514	0.042
Mof_C 	C 	0.9115	0.9116	0.2462	-0.017
Mof_H 	H 	0.9416	0.9132	0.245	0.028
Mof_C 	C 	0.888	0.9333	0.3035	-0.069
Mof_H 	H 	0.9021	0.9498	0.3415	0.05
Mof_C 	C 	0.6513	0.9799	0.5664	-0.012
Mof_C 	C 	0.6295	0.96124	0.498	-0.064
Mof_H 	H 	0.633	0.9375	0.4951	0.047
Mof_C 	C 	0.6025	0.9774	0.4341	-0.023
Mof_H 	H 	0.5876	0.9646	0.3874	0.028
Mof_C 	C 	0.5974	0.0122	0.4385	-0.053
Mof_H 	H 	0.579	0.0232	0.3948	0.042
Mof_C 	C 	0.6192	0.03083	0.5068	-0.025
Mof_H 	H 	0.6156	0.0546	0.5098	0.038
Mof_C 	C 	0.6461	0.0147	0.5707	-0.058
Mof_H 	H 	0.661	0.0274	0.6174	0.026
Mof_C 	C 	0.65675	0.93169	0.7217	-0.011
Mof_C 	C 	0.61303	0.9357	0.7279	-0.068
Mof_H 	H 	0.5993	0.9527	0.6913	0.05
Mof_C 	C 	0.58942	0.9149	0.7875	-0.016
Mof_H 	H 	0.5595	0.9176	0.7917	0.031
Mof_C 	C 	0.6095	0.8901	0.8411	-0.062
Mof_H 	H 	0.5934	0.8758	0.8818	0.047
Mof_C 	C 	0.6533	0.88604	0.8349	-0.018
Mof_H 	H 	0.667	0.8691	0.8715	0.03
Mof_C 	C 	0.67686	0.9069	0.7753	-0.07
Mof_H 	H 	0.7067	0.9041	0.7711	0.042
Mof_C 	C 	0.848	0.9803	0.4537	-0.014
Mof_C 	C 	0.8693	0.9602	0.5192	-0.062
Mof_H 	H 	0.8648	0.9365	0.5196	0.047
Mof_C 	C 	0.8972	0.9747	0.5843	-0.024
Mof_H 	H 	0.9118	0.9609	0.6291	0.03
Mof_C 	C 	0.9038	0.0093	0.5838	-0.052
Mof_H 	H 	0.9229	0.0192	0.6282	0.041
Mof_C 	C 	0.8825	0.0295	0.5182	-0.025
Mof_H 	H 	0.8871	0.0532	0.5178	0.037
Mof_C 	C 	0.8547	0.015	0.4531	-0.058
Mof_H 	H 	0.8401	0.0288	0.4083	0.028
Mof_Ag	Ag	0.72519	0.49994	0.26211	0.488
Mof_P 	P 	0.68842	0.46136	0.1539	0.024
Mof_P 	P 	0.81166	0.46192	0.87183	0.018
Mof_N 	N 	0.7789	0.5388	0.2048	-0.176
Mof_N 	N 	0.9713	0.71237	0.0654	-0.217
Mof_C 	C 	0.778	0.4356	0.9478	-0.16
Mof_H 	H 	0.761	0.4202	0.9073	0.067
Mof_H 	H 	0.7961	0.4216	0.99	0.077
Mof_C 	C 	0.7497	0.45621	0.006	-0.053
Mof_H 	H 	0.7305	0.469	0.9632	0.038
Mof_H 	H 	0.7668	0.4728	0.0422	0.026
Mof_C 	C 	0.7216	0.4349	0.0797	-0.177
Mof_H 	H 	0.7406	0.4215	0.1211	0.067
Mof_H 	H 	0.7034	0.4191	0.0436	0.072
Mof_C 	C 	0.8148	0.543	0.2632	0.056
Mof_H 	H 	0.8204	0.5289	0.3164	0.004
Mof_C 	C 	0.8417	0.5697	0.2372	-0.144
Mof_H 	H 	0.8671	0.5729	0.2726	0.067
Mof_C 	C 	0.8331	0.591	0.1637	0.097
Mof_H 	H 	0.8522	0.6086	0.1474	-0.083
Mof_C 	C 	0.7941	0.5861	0.111	-0.154
Mof_H 	H 	0.7865	0.6013	0.0613	0.066
Mof_C 	C 	0.7684	0.5596	0.133	0.075
Mof_H 	H 	0.7431	0.5559	0.0976	-0.015
Mof_C 	C 	0.9361	0.7057	0.0262	0.119
Mof_H 	H 	0.9272	0.7205	0.9767	-0.004
Mof_C 	C 	0.9086	0.6786	0.0479	-0.256
Mof_H 	H 	0.8831	0.6752	0.013	0.109
Mof_C 	C 	0.9202	0.6565	0.124	0.288
Mof_C 	C 	0.9565	0.6632	0.1651	-0.318
Mof_H 	H 	0.967	0.6491	0.2145	0.129
Mof_C 	C 	0.9786	0.6901	0.137	0.165
Mof_H 	H 	0.0035	0.6943	0.1731	-0.04
Mof_C 	C 	0.8963	0.6274	0.1504	-0.397
Mof_H 	H 	0.9065	0.6105	0.1925	0.157
Mof_C 	C 	0.8637	0.6267	0.116	0.258
Mof_H 	H 	0.8538	0.6423	0.0695	-0.073
Mof_C 	C 	0.844	0.43103	0.8052	-0.006
Mof_C 	C 	0.8235	0.407	0.7495	-0.074
Mof_H 	H 	0.7934	0.4054	0.7507	0.043
Mof_C 	C 	0.847	0.3853	0.6922	-0.014
Mof_H 	H 	0.833	0.3689	0.6542	0.025
Mof_C 	C 	0.891	0.3876	0.6905	-0.066
Mof_H 	H 	0.907	0.3727	0.6514	0.045
Mof_C 	C 	0.9115	0.4116	0.7462	-0.014
Mof_H 	H 	0.9416	0.4132	0.745	0.029
Mof_C 	C 	0.888	0.4333	0.8035	-0.07
Mof_H 	H 	0.9021	0.4498	0.8415	0.053
Mof_C 	C 	0.6513	0.4799	0.0664	-0.048
Mof_C 	C 	0.6295	0.46124	0.998	-0.016
Mof_H 	H 	0.633	0.4375	0.9951	0.036
Mof_C 	C 	0.6025	0.4774	0.9341	-0.064
Mof_H 	H 	0.5876	0.4646	0.8874	0.043
Mof_C 	C 	0.5974	0.5122	0.9385	0.001
Mof_H 	H 	0.579	0.5232	0.8948	0.026
Mof_C 	C 	0.6192	0.53083	0.0068	-0.079
Mof_H 	H 	0.6156	0.5546	0.0098	0.051
Mof_C 	C 	0.6461	0.5147	0.0707	-0.024
Mof_H 	H 	0.661	0.5274	0.1174	0.014
Mof_C 	C 	0.65675	0.43169	0.2217	-0.013
Mof_C 	C 	0.61303	0.4357	0.2279	-0.068
Mof_H 	H 	0.5993	0.4527	0.1913	0.048
Mof_C 	C 	0.58942	0.4149	0.2875	-0.019
Mof_H 	H 	0.5595	0.4176	0.2917	0.029
Mof_C 	C 	0.6095	0.3901	0.3411	-0.063
Mof_H 	H 	0.5934	0.3758	0.3818	0.044
Mof_C 	C 	0.6533	0.38604	0.3349	-0.019
Mof_H 	H 	0.667	0.3691	0.3715	0.027
Mof_C 	C 	0.67686	0.4069	0.2753	-0.07
Mof_H 	H 	0.7067	0.4041	0.2711	0.041
Mof_C 	C 	0.848	0.4803	0.9537	-0.003
Mof_C 	C 	0.8693	0.4602	0.0192	-0.079
Mof_H 	H 	0.8648	0.4365	0.0196	0.048
Mof_C 	C 	0.8972	0.4747	0.0843	-0.023
Mof_H 	H 	0.9118	0.4609	0.1291	0.028
Mof_C 	C 	0.9038	0.5093	0.0838	-0.047
Mof_H 	H 	0.9229	0.5192	0.1282	0.038
Mof_C 	C 	0.8825	0.5295	0.0182	-0.047
Mof_H 	H 	0.8871	0.5532	0.0178	0.041
Mof_C 	C 	0.8547	0.515	0.9531	-0.039
Mof_H 	H 	0.8401	0.5288	0.9083	0.024
Mof_Ag	Ag	0.22519	0.99994	0.26211	0.488
Mof_P 	P 	0.18842	0.96136	0.1539	0.024
Mof_P 	P 	0.31166	0.96192	0.87183	0.018
Mof_N 	N 	0.2789	0.0388	0.2048	-0.176
Mof_N 	N 	0.4713	0.21237	0.0654	-0.217
Mof_C 	C 	0.278	0.9356	0.9478	-0.16
Mof_H 	H 	0.261	0.9202	0.9073	0.067
Mof_H 	H 	0.2961	0.9216	0.99	0.077
Mof_C 	C 	0.2497	0.95621	0.006	-0.053
Mof_H 	H 	0.2305	0.969	0.9632	0.038
Mof_H 	H 	0.2668	0.9728	0.0422	0.026
Mof_C 	C 	0.2216	0.9349	0.0797	-0.177
Mof_H 	H 	0.2406	0.9215	0.1211	0.067
Mof_H 	H 	0.2034	0.9191	0.0436	0.072
Mof_C 	C 	0.3148	0.043	0.2632	0.056
Mof_H 	H 	0.3204	0.0289	0.3164	0.004
Mof_C 	C 	0.3417	0.0697	0.2372	-0.144
Mof_H 	H 	0.3671	0.0729	0.2726	0.067
Mof_C 	C 	0.3331	0.091	0.1637	0.097
Mof_H 	H 	0.3522	0.1086	0.1474	-0.083
Mof_C 	C 	0.2941	0.0861	0.111	-0.154
Mof_H 	H 	0.2865	0.1013	0.0613	0.066
Mof_C 	C 	0.2684	0.0596	0.133	0.075
Mof_H 	H 	0.2431	0.0559	0.0976	-0.015
Mof_C 	C 	0.4361	0.2057	0.0262	0.119
Mof_H 	H 	0.4272	0.2205	0.9767	-0.004
Mof_C 	C 	0.4086	0.1786	0.0479	-0.256
Mof_H 	H 	0.3831	0.1752	0.013	0.109
Mof_C 	C 	0.4202	0.1565	0.124	0.288
Mof_C 	C 	0.4565	0.1632	0.1651	-0.318
Mof_H 	H 	0.467	0.1491	0.2145	0.129
Mof_C 	C 	0.4786	0.1901	0.137	0.165
Mof_H 	H 	0.5035	0.1943	0.1731	-0.04
Mof_C 	C 	0.3963	0.1274	0.1504	-0.398
Mof_H 	H 	0.4065	0.1105	0.1925	0.158
Mof_C 	C 	0.3637	0.1267	0.116	0.258
Mof_H 	H 	0.3538	0.1423	0.0695	-0.073
Mof_C 	C 	0.344	0.93103	0.8052	-0.006
Mof_C 	C 	0.3235	0.907	0.7495	-0.074
Mof_H 	H 	0.2934	0.9054	0.7507	0.043
Mof_C 	C 	0.347	0.8853	0.6922	-0.014
Mof_H 	H 	0.333	0.8689	0.6542	0.025
Mof_C 	C 	0.391	0.8876	0.6905	-0.066
Mof_H 	H 	0.407	0.8727	0.6514	0.045
Mof_C 	C 	0.4115	0.9116	0.7462	-0.014
Mof_H 	H 	0.4416	0.9132	0.745	0.029
Mof_C 	C 	0.388	0.9333	0.8035	-0.07
Mof_H 	H 	0.4021	0.9498	0.8415	0.053
Mof_C 	C 	0.1513	0.9799	0.0664	-0.048
Mof_C 	C 	0.1295	0.96124	0.998	-0.016
Mof_H 	H 	0.133	0.9375	0.9951	0.036
Mof_C 	C 	0.1025	0.9774	0.9341	-0.064
Mof_H 	H 	0.0876	0.9646	0.8874	0.043
Mof_C 	C 	0.0974	0.0122	0.9385	0.001
Mof_H 	H 	0.079	0.0232	0.8948	0.026
Mof_C 	C 	0.1192	0.03083	0.0068	-0.079
Mof_H 	H 	0.1156	0.0546	0.0098	0.051
Mof_C 	C 	0.1461	0.0147	0.0707	-0.024
Mof_H 	H 	0.161	0.0274	0.1174	0.014
Mof_C 	C 	0.15675	0.93169	0.2217	-0.013
Mof_C 	C 	0.11303	0.9357	0.2279	-0.068
Mof_H 	H 	0.0993	0.9527	0.1913	0.048
Mof_C 	C 	0.08942	0.9149	0.2875	-0.019
Mof_H 	H 	0.0595	0.9176	0.2917	0.029
Mof_C 	C 	0.1095	0.8901	0.3411	-0.063
Mof_H 	H 	0.0934	0.8758	0.3818	0.044
Mof_C 	C 	0.1533	0.88604	0.3349	-0.019
Mof_H 	H 	0.167	0.8691	0.3715	0.027
Mof_C 	C 	0.17686	0.9069	0.2753	-0.07
Mof_H 	H 	0.2067	0.9041	0.2711	0.041
Mof_C 	C 	0.348	0.9803	0.9537	-0.003
Mof_C 	C 	0.3693	0.9602	0.0192	-0.079
Mof_H 	H 	0.3648	0.9365	0.0196	0.048
Mof_C 	C 	0.3972	0.9747	0.0843	-0.023
Mof_H 	H 	0.4118	0.9609	0.1291	0.028
Mof_C 	C 	0.4038	0.0093	0.0838	-0.047
Mof_H 	H 	0.4229	0.0192	0.1282	0.038
Mof_C 	C 	0.3825	0.0295	0.0182	-0.047
Mof_H 	H 	0.3871	0.0532	0.0178	0.041
Mof_C 	C 	0.3547	0.015	0.9531	-0.039
Mof_H 	H 	0.3401	0.0288	0.9083	0.024
Mof_Ag	Ag	0.22519	0.49994	0.76211	0.491
Mof_P 	P 	0.18842	0.46136	0.6539	0.023
Mof_P 	P 	0.31166	0.46192	0.37183	0.023
Mof_N 	N 	0.2789	0.5388	0.7048	-0.175
Mof_N 	N 	0.4713	0.71237	0.5654	-0.222
Mof_C 	C 	0.278	0.4356	0.4478	-0.196
Mof_H 	H 	0.261	0.4202	0.4073	0.075
Mof_H 	H 	0.2961	0.4216	0.49	0.081
Mof_C 	C 	0.2497	0.45621	0.506	0.005
Mof_H 	H 	0.2305	0.469	0.4632	0.013
Mof_H 	H 	0.2668	0.4728	0.5422	0.014
Mof_C 	C 	0.2216	0.4349	0.5797	-0.197
Mof_H 	H 	0.2406	0.4215	0.6211	0.074
Mof_H 	H 	0.2034	0.4191	0.5436	0.082
Mof_C 	C 	0.3148	0.543	0.7632	0.055
Mof_H 	H 	0.3204	0.5289	0.8164	0.005
Mof_C 	C 	0.3417	0.5697	0.7372	-0.138
Mof_H 	H 	0.3671	0.5729	0.7726	0.066
Mof_C 	C 	0.3331	0.591	0.6637	0.09
Mof_H 	H 	0.3522	0.6086	0.6474	-0.073
Mof_C 	C 	0.2941	0.5861	0.611	-0.148
Mof_H 	H 	0.2865	0.6013	0.5613	0.068
Mof_C 	C 	0.2684	0.5596	0.633	0.074
Mof_H 	H 	0.2431	0.5559	0.5976	-0.012
Mof_C 	C 	0.4361	0.7057	0.5262	0.15
Mof_H 	H 	0.4272	0.7205	0.4767	-0.024
Mof_C 	C 	0.4086	0.6786	0.5479	-0.267
Mof_H 	H 	0.3831	0.6752	0.513	0.117
Mof_C 	C 	0.4202	0.6565	0.624	0.289
Mof_C 	C 	0.4565	0.6632	0.6651	-0.319
Mof_H 	H 	0.467	0.6491	0.7145	0.13
Mof_C 	C 	0.4786	0.6901	0.637	0.168
Mof_H 	H 	0.5035	0.6943	0.6731	-0.041
Mof_C 	C 	0.3963	0.6274	0.6504	-0.384
Mof_H 	H 	0.4065	0.6105	0.6925	0.153
Mof_C 	C 	0.3637	0.6267	0.616	0.238
Mof_H 	H 	0.3538	0.6423	0.5695	-0.064
Mof_C 	C 	0.344	0.43103	0.3052	-0.009
Mof_C 	C 	0.3235	0.407	0.2495	-0.073
Mof_H 	H 	0.2934	0.4054	0.2507	0.042
Mof_C 	C 	0.347	0.3853	0.1922	-0.017
Mof_H 	H 	0.333	0.3689	0.1542	0.023
Mof_C 	C 	0.391	0.3876	0.1905	-0.065
Mof_H 	H 	0.407	0.3727	0.1514	0.042
Mof_C 	C 	0.4115	0.4116	0.2462	-0.017
Mof_H 	H 	0.4416	0.4132	0.245	0.028
Mof_C 	C 	0.388	0.4333	0.3035	-0.069
Mof_H 	H 	0.4021	0.4498	0.3415	0.05
Mof_C 	C 	0.1513	0.4799	0.5664	-0.012
Mof_C 	C 	0.1295	0.46124	0.498	-0.064
Mof_H 	H 	0.133	0.4375	0.4951	0.047
Mof_C 	C 	0.1025	0.4774	0.4341	-0.023
Mof_H 	H 	0.0876	0.4646	0.3874	0.028
Mof_C 	C 	0.0974	0.5122	0.4385	-0.053
Mof_H 	H 	0.079	0.5232	0.3948	0.042
Mof_C 	C 	0.1192	0.53083	0.5068	-0.025
Mof_H 	H 	0.1156	0.5546	0.5098	0.038
Mof_C 	C 	0.1461	0.5147	0.5707	-0.058
Mof_H 	H 	0.161	0.5274	0.6174	0.026
Mof_C 	C 	0.15675	0.43169	0.7217	-0.011
Mof_C 	C 	0.11303	0.4357	0.7279	-0.068
Mof_H 	H 	0.0993	0.4527	0.6913	0.05
Mof_C 	C 	0.08942	0.4149	0.7875	-0.016
Mof_H 	H 	0.0595	0.4176	0.7917	0.031
Mof_C 	C 	0.1095	0.3901	0.8411	-0.062
Mof_H 	H 	0.0934	0.3758	0.8818	0.047
Mof_C 	C 	0.1533	0.38604	0.8349	-0.018
Mof_H 	H 	0.167	0.3691	0.8715	0.03
Mof_C 	C 	0.17686	0.4069	0.7753	-0.07
Mof_H 	H 	0.2067	0.4041	0.7711	0.042
Mof_C 	C 	0.348	0.4803	0.4537	-0.014
Mof_C 	C 	0.3693	0.4602	0.5192	-0.062
Mof_H 	H 	0.3648	0.4365	0.5196	0.047
Mof_C 	C 	0.3972	0.4747	0.5843	-0.024
Mof_H 	H 	0.4118	0.4609	0.6291	0.03
Mof_C 	C 	0.4038	0.5093	0.5838	-0.052
Mof_H 	H 	0.4229	0.5192	0.6282	0.041
Mof_C 	C 	0.3825	0.5295	0.5182	-0.025
Mof_H 	H 	0.3871	0.5532	0.5178	0.037
Mof_C 	C 	0.3547	0.515	0.4531	-0.058
Mof_H 	H 	0.3401	0.5288	0.4083	0.028
Mof_Ag	Ag	0.52481	0.24994	0.01211	0.466
Mof_P 	P 	0.56158	0.21136	0.9039	0.031
Mof_P 	P 	0.43834	0.21192	0.62183	0.023
Mof_N 	N 	0.4711	0.2888	0.9548	-0.157
Mof_N 	N 	0.2787	0.46237	0.8154	-0.226
Mof_C 	C 	0.472	0.1856	0.6978	-0.197
Mof_H 	H 	0.489	0.1702	0.6573	0.075
Mof_H 	H 	0.4539	0.1716	0.74	0.082
Mof_C 	C 	0.5003	0.20621	0.756	0.006
Mof_H 	H 	0.5195	0.219	0.7132	0.013
Mof_H 	H 	0.4832	0.2228	0.7922	0.015
Mof_C 	C 	0.5284	0.1849	0.8297	-0.199
Mof_H 	H 	0.5094	0.1715	0.8711	0.078
Mof_H 	H 	0.5466	0.1691	0.7936	0.083
Mof_C 	C 	0.4352	0.293	0.0132	0.003
Mof_H 	H 	0.4296	0.2789	0.0664	0.02
Mof_C 	C 	0.4083	0.3197	0.9872	-0.077
Mof_H 	H 	0.3829	0.3229	0.0226	0.036
Mof_C 	C 	0.4169	0.341	0.9137	0.075
Mof_H 	H 	0.3978	0.3586	0.8974	-0.089
Mof_C 	C 	0.4559	0.3361	0.861	-0.136
Mof_H 	H 	0.4635	0.3513	0.8113	0.065
Mof_C 	C 	0.4816	0.3096	0.883	0.067
Mof_H 	H 	0.5069	0.3059	0.8476	-0.008
Mof_C 	C 	0.3139	0.4557	0.7762	0.16
Mof_H 	H 	0.3228	0.4705	0.7267	-0.027
Mof_C 	C 	0.3414	0.4286	0.7979	-0.285
Mof_H 	H 	0.3669	0.4252	0.763	0.124
Mof_C 	C 	0.3298	0.4065	0.874	0.323
Mof_C 	C 	0.2935	0.4132	0.9151	-0.341
Mof_H 	H 	0.283	0.3991	0.9645	0.142
Mof_C 	C 	0.2714	0.4401	0.887	0.181
Mof_H 	H 	0.2465	0.4443	0.9231	-0.042
Mof_C 	C 	0.3537	0.3774	0.9004	-0.443
Mof_H 	H 	0.3435	0.3605	0.9425	0.178
Mof_C 	C 	0.3863	0.3767	0.866	0.306
Mof_H 	H 	0.3962	0.3923	0.8195	-0.087
Mof_C 	C 	0.406	0.18103	0.5552	-0.009
Mof_C 	C 	0.4265	0.157	0.4995	-0.072
Mof_H 	H 	0.4566	0.1554	0.5007	0.042
Mof_C 	C 	0.403	0.1353	0.4422	-0.016
Mof_H 	H 	0.417	0.1189	0.4042	0.025
Mof_C 	C 	0.359	0.1376	0.4405	-0.064
Mof_H 	H 	0.343	0.1227	0.4014	0.044
Mof_C 	C 	0.3385	0.1616	0.4962	-0.016
Mof_H 	H 	0.3084	0.1632	0.495	0.029
Mof_C 	C 	0.362	0.1833	0.5535	-0.069
Mof_H 	H 	0.3479	0.1998	0.5915	0.05
Mof_C 	C 	0.5987	0.2299	0.8164	-0.011
Mof_C 	C 	0.6205	0.21124	0.748	-0.063
Mof_H 	H 	0.617	0.1875	0.7451	0.047
Mof_C 	C 	0.6475	0.2274	0.6841	-0.023
Mof_H 	H 	0.6624	0.2146	0.6374	0.029
Mof_C 	C 	0.6526	0.2622	0.6885	-0.053
Mof_H 	H 	0.671	0.2732	0.6448	0.042
Mof_C 	C 	0.6308	0.28083	0.7568	-0.024
Mof_H 	H 	0.6344	0.3046	0.7598	0.039
Mof_C 	C 	0.6039	0.2647	0.8207	-0.058
Mof_H 	H 	0.589	0.2774	0.8674	0.029
Mof_C 	C 	0.59325	0.18169	0.9717	-0.002
Mof_C 	C 	0.63697	0.1857	0.9779	-0.048
Mof_H 	H 	0.6507	0.2027	0.9413	0.046
Mof_C 	C 	0.66058	0.1649	0.0375	-0.04
Mof_H 	H 	0.6905	0.1676	0.0417	0.033
Mof_C 	C 	0.6405	0.1401	0.0911	-0.057
Mof_H 	H 	0.6566	0.1258	0.1318	0.041
Mof_C 	C 	0.5967	0.13604	0.0849	-0.018
Mof_H 	H 	0.583	0.1191	0.1215	0.026
Mof_C 	C 	0.57314	0.1569	0.0253	-0.086
Mof_H 	H 	0.5433	0.1541	0.0211	0.043
Mof_C 	C 	0.402	0.2303	0.7037	-0.014
Mof_C 	C 	0.3807	0.2102	0.7692	-0.061
Mof_H 	H 	0.3852	0.1865	0.7696	0.047
Mof_C 	C 	0.3528	0.2247	0.8343	-0.024
Mof_H 	H 	0.3382	0.2109	0.8791	0.032
Mof_C 	C 	0.3462	0.2593	0.8338	-0.051
Mof_H 	H 	0.3271	0.2692	0.8782	0.043
Mof_C 	C 	0.3675	0.2795	0.7682	-0.024
Mof_H 	H 	0.3629	0.3032	0.7678	0.037
Mof_C 	C 	0.3953	0.265	0.7031	-0.058
Mof_H 	H 	0.4099	0.2788	0.6583	0.028
Mof_Ag	Ag	0.52481	0.74994	0.51211	0.489
Mof_P 	P 	0.56158	0.71136	0.4039	0.023
Mof_P 	P 	0.43834	0.71192	0.12183	0.027
Mof_N 	N 	0.4711	0.7888	0.4548	-0.175
Mof_N 	N 	0.2787	0.96237	0.3154	-0.222
Mof_C 	C 	0.472	0.6856	0.1978	-0.197
Mof_H 	H 	0.489	0.6702	0.1573	0.074
Mof_H 	H 	0.4539	0.6716	0.24	0.081
Mof_C 	C 	0.5003	0.70621	0.256	0.005
Mof_H 	H 	0.5195	0.719	0.2132	0.013
Mof_H 	H 	0.4832	0.7228	0.2922	0.014
Mof_C 	C 	0.5284	0.6849	0.3297	-0.197
Mof_H 	H 	0.5094	0.6715	0.3711	0.074
Mof_H 	H 	0.5466	0.6691	0.2936	0.082
Mof_C 	C 	0.4352	0.793	0.5132	0.054
Mof_H 	H 	0.4296	0.7789	0.5664	0.005
Mof_C 	C 	0.4083	0.8197	0.4872	-0.138
Mof_H 	H 	0.3829	0.8229	0.5226	0.066
Mof_C 	C 	0.4169	0.841	0.4137	0.09
Mof_H 	H 	0.3978	0.8586	0.3974	-0.073
Mof_C 	C 	0.4559	0.8361	0.361	-0.148
Mof_H 	H 	0.4635	0.8513	0.3113	0.068
Mof_C 	C 	0.4816	0.8096	0.383	0.074
Mof_H 	H 	0.5069	0.8059	0.3476	-0.012
Mof_C 	C 	0.3139	0.9557	0.2762	0.15
Mof_H 	H 	0.3228	0.9705	0.2267	-0.025
Mof_C 	C 	0.3414	0.9286	0.2979	-0.267
Mof_H 	H 	0.3669	0.9252	0.263	0.117
Mof_C 	C 	0.3298	0.9065	0.374	0.289
Mof_C 	C 	0.2935	0.9132	0.4151	-0.319
Mof_H 	H 	0.283	0.8991	0.4645	0.13
Mof_C 	C 	0.2714	0.9401	0.387	0.168
Mof_H 	H 	0.2465	0.9443	0.4231	-0.041
Mof_C 	C 	0.3537	0.8774	0.4004	-0.384
Mof_H 	H 	0.3435	0.8605	0.4425	0.153
Mof_C 	C 	0.3863	0.8767	0.366	0.239
Mof_H 	H 	0.3962	0.8923	0.3195	-0.064
Mof_C 	C 	0.406	0.68103	0.0552	-0.037
Mof_C 	C 	0.4265	0.657	0.9995	-0.015
Mof_H 	H 	0.4566	0.6554	0.0007	0.013
Mof_C 	C 	0.403	0.6353	0.9422	-0.043
Mof_H 	H 	0.417	0.6189	0.9042	0.036
Mof_C 	C 	0.359	0.6376	0.9405	-0.051
Mof_H 	H 	0.343	0.6227	0.9014	0.041
Mof_C 	C 	0.3385	0.6616	0.9962	-0.009
Mof_H 	H 	0.3084	0.6632	0.995	0.031
Mof_C 	C 	0.362	0.6833	0.0535	-0.074
Mof_H 	H 	0.3479	0.6998	0.0915	0.049
Mof_C 	C 	0.5987	0.7299	0.3164	-0.012
Mof_C 	C 	0.6205	0.71124	0.248	-0.064
Mof_H 	H 	0.617	0.6875	0.2451	0.047
Mof_C 	C 	0.6475	0.7274	0.1841	-0.024
Mof_H 	H 	0.6624	0.7146	0.1374	0.027
Mof_C 	C 	0.6526	0.7622	0.1885	-0.053
Mof_H 	H 	0.671	0.7732	0.1448	0.04
Mof_C 	C 	0.6308	0.78083	0.2568	-0.025
Mof_H 	H 	0.6344	0.8046	0.2598	0.038
Mof_C 	C 	0.6039	0.7647	0.3207	-0.058
Mof_H 	H 	0.589	0.7774	0.3674	0.026
Mof_C 	C 	0.59325	0.68169	0.4717	-0.012
Mof_C 	C 	0.63697	0.6857	0.4779	-0.069
Mof_H 	H 	0.6507	0.7027	0.4413	0.049
Mof_C 	C 	0.66058	0.6649	0.5375	-0.018
Mof_H 	H 	0.6905	0.6676	0.5417	0.03
Mof_C 	C 	0.6405	0.6401	0.5911	-0.063
Mof_H 	H 	0.6566	0.6258	0.6318	0.044
Mof_C 	C 	0.5967	0.63604	0.5849	-0.019
Mof_H 	H 	0.583	0.6191	0.6215	0.027
Mof_C 	C 	0.57314	0.6569	0.5253	-0.07
Mof_H 	H 	0.5433	0.6541	0.5211	0.042
Mof_C 	C 	0.402	0.7303	0.2037	-0.016
Mof_C 	C 	0.3807	0.7102	0.2692	-0.061
Mof_H 	H 	0.3852	0.6865	0.2696	0.046
Mof_C 	C 	0.3528	0.7247	0.3343	-0.025
Mof_H 	H 	0.3382	0.7109	0.3791	0.03
Mof_C 	C 	0.3462	0.7593	0.3338	-0.051
Mof_H 	H 	0.3271	0.7692	0.3782	0.04
Mof_C 	C 	0.3675	0.7795	0.2682	-0.026
Mof_H 	H 	0.3629	0.8032	0.2678	0.037
Mof_C 	C 	0.3953	0.765	0.2031	-0.057
Mof_H 	H 	0.4099	0.7788	0.1583	0.027
Mof_Ag	Ag	0.02481	0.24994	0.51211	0.489
Mof_P 	P 	0.06158	0.21136	0.4039	0.023
Mof_P 	P 	0.93834	0.21192	0.12183	0.027
Mof_N 	N 	0.9711	0.2888	0.4548	-0.175
Mof_N 	N 	0.7787	0.46237	0.3154	-0.222
Mof_C 	C 	0.972	0.1856	0.1978	-0.197
Mof_H 	H 	0.989	0.1702	0.1573	0.074
Mof_H 	H 	0.9539	0.1716	0.24	0.081
Mof_C 	C 	0.0003	0.20621	0.256	0.005
Mof_H 	H 	0.0195	0.219	0.2132	0.013
Mof_H 	H 	0.9832	0.2228	0.2922	0.014
Mof_C 	C 	0.0284	0.1849	0.3297	-0.197
Mof_H 	H 	0.0094	0.1715	0.3711	0.074
Mof_H 	H 	0.0466	0.1691	0.2936	0.082
Mof_C 	C 	0.9352	0.293	0.5132	0.054
Mof_H 	H 	0.9296	0.2789	0.5664	0.005
Mof_C 	C 	0.9083	0.3197	0.4872	-0.138
Mof_H 	H 	0.8829	0.3229	0.5226	0.066
Mof_C 	C 	0.9169	0.341	0.4137	0.09
Mof_H 	H 	0.8978	0.3586	0.3974	-0.073
Mof_C 	C 	0.9559	0.3361	0.361	-0.148
Mof_H 	H 	0.9635	0.3513	0.3113	0.068
Mof_C 	C 	0.9816	0.3096	0.383	0.074
Mof_H 	H 	0.0069	0.3059	0.3476	-0.012
Mof_C 	C 	0.8139	0.4557	0.2762	0.15
Mof_H 	H 	0.8228	0.4705	0.2267	-0.025
Mof_C 	C 	0.8414	0.4286	0.2979	-0.267
Mof_H 	H 	0.8669	0.4252	0.263	0.117
Mof_C 	C 	0.8298	0.4065	0.374	0.289
Mof_C 	C 	0.7935	0.4132	0.4151	-0.319
Mof_H 	H 	0.783	0.3991	0.4645	0.13
Mof_C 	C 	0.7714	0.4401	0.387	0.168
Mof_H 	H 	0.7465	0.4443	0.4231	-0.041
Mof_C 	C 	0.8537	0.3774	0.4004	-0.384
Mof_H 	H 	0.8435	0.3605	0.4425	0.153
Mof_C 	C 	0.8863	0.3767	0.366	0.239
Mof_H 	H 	0.8962	0.3923	0.3195	-0.064
Mof_C 	C 	0.906	0.18103	0.0552	-0.037
Mof_C 	C 	0.9265	0.157	0.9995	-0.015
Mof_H 	H 	0.9566	0.1554	0.0007	0.013
Mof_C 	C 	0.903	0.1353	0.9422	-0.043
Mof_H 	H 	0.917	0.1189	0.9042	0.036
Mof_C 	C 	0.859	0.1376	0.9405	-0.051
Mof_H 	H 	0.843	0.1227	0.9014	0.041
Mof_C 	C 	0.8385	0.1616	0.9962	-0.009
Mof_H 	H 	0.8084	0.1632	0.995	0.031
Mof_C 	C 	0.862	0.1833	0.0535	-0.074
Mof_H 	H 	0.8479	0.1998	0.0915	0.049
Mof_C 	C 	0.0987	0.2299	0.3164	-0.012
Mof_C 	C 	0.1205	0.21124	0.248	-0.064
Mof_H 	H 	0.117	0.1875	0.2451	0.047
Mof_C 	C 	0.1475	0.2274	0.1841	-0.024
Mof_H 	H 	0.1624	0.2146	0.1374	0.027
Mof_C 	C 	0.1526	0.2622	0.1885	-0.053
Mof_H 	H 	0.171	0.2732	0.1448	0.04
Mof_C 	C 	0.1308	0.28083	0.2568	-0.025
Mof_H 	H 	0.1344	0.3046	0.2598	0.038
Mof_C 	C 	0.1039	0.2647	0.3207	-0.058
Mof_H 	H 	0.089	0.2774	0.3674	0.026
Mof_C 	C 	0.09325	0.18169	0.4717	-0.012
Mof_C 	C 	0.13697	0.1857	0.4779	-0.069
Mof_H 	H 	0.1507	0.2027	0.4413	0.049
Mof_C 	C 	0.16058	0.1649	0.5375	-0.018
Mof_H 	H 	0.1905	0.1676	0.5417	0.03
Mof_C 	C 	0.1405	0.1401	0.5911	-0.063
Mof_H 	H 	0.1566	0.1258	0.6318	0.044
Mof_C 	C 	0.0967	0.13604	0.5849	-0.019
Mof_H 	H 	0.083	0.1191	0.6215	0.027
Mof_C 	C 	0.07314	0.1569	0.5253	-0.07
Mof_H 	H 	0.0433	0.1541	0.5211	0.042
Mof_C 	C 	0.902	0.2303	0.2037	-0.016
Mof_C 	C 	0.8807	0.2102	0.2692	-0.061
Mof_H 	H 	0.8852	0.1865	0.2696	0.046
Mof_C 	C 	0.8528	0.2247	0.3343	-0.025
Mof_H 	H 	0.8382	0.2109	0.3791	0.03
Mof_C 	C 	0.8462	0.2593	0.3338	-0.051
Mof_H 	H 	0.8271	0.2692	0.3782	0.04
Mof_C 	C 	0.8675	0.2795	0.2682	-0.026
Mof_H 	H 	0.8629	0.3032	0.2678	0.037
Mof_C 	C 	0.8953	0.265	0.2031	-0.057
Mof_H 	H 	0.9099	0.2788	0.1583	0.027
Mof_Ag	Ag	0.02481	0.74994	0.01211	0.466
Mof_P 	P 	0.06158	0.71136	0.9039	0.031
Mof_P 	P 	0.93834	0.71192	0.62183	0.023
Mof_N 	N 	0.9711	0.7888	0.9548	-0.158
Mof_N 	N 	0.7787	0.96237	0.8154	-0.226
Mof_C 	C 	0.972	0.6856	0.6978	-0.197
Mof_H 	H 	0.989	0.6702	0.6573	0.075
Mof_H 	H 	0.9539	0.6716	0.74	0.082
Mof_C 	C 	0.0003	0.70621	0.756	0.006
Mof_H 	H 	0.0195	0.719	0.7132	0.013
Mof_H 	H 	0.9832	0.7228	0.7922	0.015
Mof_C 	C 	0.0284	0.6849	0.8297	-0.199
Mof_H 	H 	0.0094	0.6715	0.8711	0.078
Mof_H 	H 	0.0466	0.6691	0.7936	0.083
Mof_C 	C 	0.9352	0.793	0.0132	0.003
Mof_H 	H 	0.9296	0.7789	0.0664	0.02
Mof_C 	C 	0.9083	0.8197	0.9872	-0.077
Mof_H 	H 	0.8829	0.8229	0.0226	0.036
Mof_C 	C 	0.9169	0.841	0.9137	0.075
Mof_H 	H 	0.8978	0.8586	0.8974	-0.089
Mof_C 	C 	0.9559	0.8361	0.861	-0.136
Mof_H 	H 	0.9635	0.8513	0.8113	0.065
Mof_C 	C 	0.9816	0.8096	0.883	0.067
Mof_H 	H 	0.0069	0.8059	0.8476	-0.008
Mof_C 	C 	0.8139	0.9557	0.7762	0.16
Mof_H 	H 	0.8228	0.9705	0.7267	-0.027
Mof_C 	C 	0.8414	0.9286	0.7979	-0.285
Mof_H 	H 	0.8669	0.9252	0.763	0.124
Mof_C 	C 	0.8298	0.9065	0.874	0.323
Mof_C 	C 	0.7935	0.9132	0.9151	-0.341
Mof_H 	H 	0.783	0.8991	0.9645	0.142
Mof_C 	C 	0.7714	0.9401	0.887	0.181
Mof_H 	H 	0.7465	0.9443	0.9231	-0.042
Mof_C 	C 	0.8537	0.8774	0.9004	-0.443
Mof_H 	H 	0.8435	0.8605	0.9425	0.178
Mof_C 	C 	0.8863	0.8767	0.866	0.305
Mof_H 	H 	0.8962	0.8923	0.8195	-0.086
Mof_C 	C 	0.906	0.68103	0.5552	-0.009
Mof_C 	C 	0.9265	0.657	0.4995	-0.072
Mof_H 	H 	0.9566	0.6554	0.5007	0.042
Mof_C 	C 	0.903	0.6353	0.4422	-0.016
Mof_H 	H 	0.917	0.6189	0.4042	0.025
Mof_C 	C 	0.859	0.6376	0.4405	-0.064
Mof_H 	H 	0.843	0.6227	0.4014	0.044
Mof_C 	C 	0.8385	0.6616	0.4962	-0.016
Mof_H 	H 	0.8084	0.6632	0.495	0.029
Mof_C 	C 	0.862	0.6833	0.5535	-0.069
Mof_H 	H 	0.8479	0.6998	0.5915	0.05
Mof_C 	C 	0.0987	0.7299	0.8164	-0.011
Mof_C 	C 	0.1205	0.71124	0.748	-0.063
Mof_H 	H 	0.117	0.6875	0.7451	0.047
Mof_C 	C 	0.1475	0.7274	0.6841	-0.023
Mof_H 	H 	0.1624	0.7146	0.6374	0.029
Mof_C 	C 	0.1526	0.7622	0.6885	-0.053
Mof_H 	H 	0.171	0.7732	0.6448	0.042
Mof_C 	C 	0.1308	0.78083	0.7568	-0.024
Mof_H 	H 	0.1344	0.8046	0.7598	0.039
Mof_C 	C 	0.1039	0.7647	0.8207	-0.058
Mof_H 	H 	0.089	0.7774	0.8674	0.029
Mof_C 	C 	0.09325	0.68169	0.9717	-0.002
Mof_C 	C 	0.13697	0.6857	0.9779	-0.048
Mof_H 	H 	0.1507	0.7027	0.9413	0.046
Mof_C 	C 	0.16058	0.6649	0.0375	-0.04
Mof_H 	H 	0.1905	0.6676	0.0417	0.033
Mof_C 	C 	0.1405	0.6401	0.0911	-0.057
Mof_H 	H 	0.1566	0.6258	0.1318	0.041
Mof_C 	C 	0.0967	0.63604	0.0849	-0.018
Mof_H 	H 	0.083	0.6191	0.1215	0.026
Mof_C 	C 	0.07314	0.6569	0.0253	-0.086
Mof_H 	H 	0.0433	0.6541	0.0211	0.043
Mof_C 	C 	0.902	0.7303	0.7037	-0.014
Mof_C 	C 	0.8807	0.7102	0.7692	-0.061
Mof_H 	H 	0.8852	0.6865	0.7696	0.047
Mof_C 	C 	0.8528	0.7247	0.8343	-0.024
Mof_H 	H 	0.8382	0.7109	0.8791	0.032
Mof_C 	C 	0.8462	0.7593	0.8338	-0.051
Mof_H 	H 	0.8271	0.7692	0.8782	0.043
Mof_C 	C 	0.8675	0.7795	0.7682	-0.024
Mof_H 	H 	0.8629	0.8032	0.7678	0.037
Mof_C 	C 	0.8953	0.765	0.7031	-0.058
Mof_H 	H 	0.9099	0.7788	0.6583	0.028
Mof_Ag	Ag	0.97519	0.25006	0.01211	0.466
Mof_P 	P 	0.93842	0.28864	0.9039	0.031
Mof_P 	P 	0.06166	0.28808	0.62183	0.023
Mof_N 	N 	0.0289	0.2112	0.9548	-0.158
Mof_N 	N 	0.2213	0.03763	0.8154	-0.226
Mof_C 	C 	0.028	0.3144	0.6978	-0.197
Mof_H 	H 	0.011	0.3298	0.6573	0.075
Mof_H 	H 	0.0461	0.3284	0.74	0.082
Mof_C 	C 	0.9997	0.29379	0.756	0.006
Mof_H 	H 	0.9805	0.281	0.7132	0.013
Mof_H 	H 	0.0168	0.2772	0.7922	0.015
Mof_C 	C 	0.9716	0.3151	0.8297	-0.199
Mof_H 	H 	0.9906	0.3285	0.8711	0.078
Mof_H 	H 	0.9534	0.3309	0.7936	0.083
Mof_C 	C 	0.0648	0.207	0.0132	0.003
Mof_H 	H 	0.0704	0.2211	0.0664	0.02
Mof_C 	C 	0.0917	0.1803	0.9872	-0.077
Mof_H 	H 	0.1171	0.1771	0.0226	0.036
Mof_C 	C 	0.0831	0.159	0.9137	0.075
Mof_H 	H 	0.1022	0.1414	0.8974	-0.089
Mof_C 	C 	0.0441	0.1639	0.861	-0.136
Mof_H 	H 	0.0365	0.1487	0.8113	0.065
Mof_C 	C 	0.0184	0.1904	0.883	0.067
Mof_H 	H 	0.9931	0.1941	0.8476	-0.008
Mof_C 	C 	0.1861	0.0443	0.7762	0.16
Mof_H 	H 	0.1772	0.0295	0.7267	-0.027
Mof_C 	C 	0.1586	0.0714	0.7979	-0.285
Mof_H 	H 	0.1331	0.0748	0.763	0.124
Mof_C 	C 	0.1702	0.0935	0.874	0.323
Mof_C 	C 	0.2065	0.0868	0.9151	-0.341
Mof_H 	H 	0.217	0.1009	0.9645	0.142
Mof_C 	C 	0.2286	0.0599	0.887	0.181
Mof_H 	H 	0.2535	0.0557	0.9231	-0.042
Mof_C 	C 	0.1463	0.1226	0.9004	-0.443
Mof_H 	H 	0.1565	0.1395	0.9425	0.178
Mof_C 	C 	0.1137	0.1233	0.866	0.305
Mof_H 	H 	0.1038	0.1077	0.8195	-0.086
Mof_C 	C 	0.094	0.31897	0.5552	-0.009
Mof_C 	C 	0.0735	0.343	0.4995	-0.072
Mof_H 	H 	0.0434	0.3446	0.5007	0.042
Mof_C 	C 	0.097	0.3647	0.4422	-0.016
Mof_H 	H 	0.083	0.3811	0.4042	0.025
Mof_C 	C 	0.141	0.3624	0.4405	-0.064
Mof_H 	H 	0.157	0.3773	0.4014	0.044
Mof_C 	C 	0.1615	0.3384	0.4962	-0.016
Mof_H 	H 	0.1916	0.3368	0.495	0.029
Mof_C 	C 	0.138	0.3167	0.5535	-0.069
Mof_H 	H 	0.1521	0.3002	0.5915	0.05
Mof_C 	C 	0.9013	0.2701	0.8164	-0.011
Mof_C 	C 	0.8795	0.28876	0.748	-0.063
Mof_H 	H 	0.883	0.3125	0.7451	0.047
Mof_C 	C 	0.8525	0.2726	0.6841	-0.023
Mof_H 	H 	0.8376	0.2854	0.6374	0.029
Mof_C 	C 	0.8474	0.2378	0.6885	-0.053
Mof_H 	H 	0.829	0.2268	0.6448	0.042
Mof_C 	C 	0.8692	0.21917	0.7568	-0.024
Mof_H 	H 	0.8656	0.1954	0.7598	0.039
Mof_C 	C 	0.8961	0.2353	0.8207	-0.058
Mof_H 	H 	0.911	0.2226	0.8674	0.029
Mof_C 	C 	0.90675	0.31831	0.9717	-0.002
Mof_C 	C 	0.86303	0.3143	0.9779	-0.048
Mof_H 	H 	0.8493	0.2973	0.9413	0.046
Mof_C 	C 	0.83942	0.3351	0.0375	-0.04
Mof_H 	H 	0.8095	0.3324	0.0417	0.033
Mof_C 	C 	0.8595	0.3599	0.0911	-0.057
Mof_H 	H 	0.8434	0.3742	0.1318	0.041
Mof_C 	C 	0.9033	0.36396	0.0849	-0.018
Mof_H 	H 	0.917	0.3809	0.1215	0.026
Mof_C 	C 	0.92686	0.3431	0.0253	-0.086
Mof_H 	H 	0.9567	0.3459	0.0211	0.043
Mof_C 	C 	0.098	0.2697	0.7037	-0.014
Mof_C 	C 	0.1193	0.2898	0.7692	-0.061
Mof_H 	H 	0.1148	0.3135	0.7696	0.047
Mof_C 	C 	0.1472	0.2753	0.8343	-0.024
Mof_H 	H 	0.1618	0.2891	0.8791	0.032
Mof_C 	C 	0.1538	0.2407	0.8338	-0.051
Mof_H 	H 	0.1729	0.2308	0.8782	0.043
Mof_C 	C 	0.1325	0.2205	0.7682	-0.024
Mof_H 	H 	0.1371	0.1968	0.7678	0.037
Mof_C 	C 	0.1047	0.235	0.7031	-0.058
Mof_H 	H 	0.0901	0.2212	0.6583	0.028
Mof_Ag	Ag	0.97519	0.75005	0.51211	0.489
Mof_P 	P 	0.93842	0.78864	0.4039	0.023
Mof_P 	P 	0.06166	0.78808	0.12183	0.027
Mof_N 	N 	0.0289	0.7112	0.4548	-0.175
Mof_N 	N 	0.2213	0.53763	0.3154	-0.222
Mof_C 	C 	0.028	0.8144	0.1978	-0.197
Mof_H 	H 	0.011	0.8298	0.1573	0.074
Mof_H 	H 	0.0461	0.8284	0.24	0.081
Mof_C 	C 	0.9997	0.79379	0.256	0.005
Mof_H 	H 	0.9805	0.781	0.2132	0.013
Mof_H 	H 	0.0168	0.7772	0.2922	0.014
Mof_C 	C 	0.9716	0.8151	0.3297	-0.197
Mof_H 	H 	0.9906	0.8285	0.3711	0.074
Mof_H 	H 	0.9534	0.8309	0.2936	0.082
Mof_C 	C 	0.0648	0.707	0.5132	0.054
Mof_H 	H 	0.0704	0.7211	0.5664	0.005
Mof_C 	C 	0.0917	0.6803	0.4872	-0.138
Mof_H 	H 	0.1171	0.6771	0.5226	0.066
Mof_C 	C 	0.0831	0.659	0.4137	0.09
Mof_H 	H 	0.1022	0.6414	0.3974	-0.073
Mof_C 	C 	0.0441	0.6639	0.361	-0.148
Mof_H 	H 	0.0365	0.6487	0.3113	0.068
Mof_C 	C 	0.0184	0.6904	0.383	0.074
Mof_H 	H 	0.9931	0.6941	0.3476	-0.012
Mof_C 	C 	0.1861	0.5443	0.2762	0.15
Mof_H 	H 	0.1772	0.5295	0.2267	-0.025
Mof_C 	C 	0.1586	0.5714	0.2979	-0.267
Mof_H 	H 	0.1331	0.5748	0.263	0.117
Mof_C 	C 	0.1702	0.5935	0.374	0.289
Mof_C 	C 	0.2065	0.5868	0.4151	-0.319
Mof_H 	H 	0.217	0.6009	0.4645	0.13
Mof_C 	C 	0.2286	0.5599	0.387	0.168
Mof_H 	H 	0.2535	0.5557	0.4231	-0.041
Mof_C 	C 	0.1463	0.6226	0.4004	-0.384
Mof_H 	H 	0.1565	0.6395	0.4425	0.153
Mof_C 	C 	0.1137	0.6233	0.366	0.239
Mof_H 	H 	0.1038	0.6077	0.3195	-0.064
Mof_C 	C 	0.094	0.81897	0.0552	-0.037
Mof_C 	C 	0.0735	0.843	0.9995	-0.015
Mof_H 	H 	0.0434	0.8446	0.0007	0.013
Mof_C 	C 	0.097	0.8647	0.9422	-0.043
Mof_H 	H 	0.083	0.8811	0.9042	0.036
Mof_C 	C 	0.141	0.8624	0.9405	-0.051
Mof_H 	H 	0.157	0.8773	0.9014	0.041
Mof_C 	C 	0.1615	0.8384	0.9962	-0.009
Mof_H 	H 	0.1916	0.8368	0.995	0.031
Mof_C 	C 	0.138	0.8167	0.0535	-0.074
Mof_H 	H 	0.1521	0.8002	0.0915	0.049
Mof_C 	C 	0.9013	0.7701	0.3164	-0.012
Mof_C 	C 	0.8795	0.78876	0.248	-0.064
Mof_H 	H 	0.883	0.8125	0.2451	0.047
Mof_C 	C 	0.8525	0.7726	0.1841	-0.024
Mof_H 	H 	0.8376	0.7854	0.1374	0.027
Mof_C 	C 	0.8474	0.7378	0.1885	-0.053
Mof_H 	H 	0.829	0.7268	0.1448	0.04
Mof_C 	C 	0.8692	0.71917	0.2568	-0.025
Mof_H 	H 	0.8656	0.6954	0.2598	0.038
Mof_C 	C 	0.8961	0.7353	0.3207	-0.058
Mof_H 	H 	0.911	0.7226	0.3674	0.026
Mof_C 	C 	0.90675	0.81831	0.4717	-0.012
Mof_C 	C 	0.86303	0.8143	0.4779	-0.069
Mof_H 	H 	0.8493	0.7973	0.4413	0.049
Mof_C 	C 	0.83942	0.8351	0.5375	-0.018
Mof_H 	H 	0.8095	0.8324	0.5417	0.03
Mof_C 	C 	0.8595	0.8599	0.5911	-0.063
Mof_H 	H 	0.8434	0.8742	0.6318	0.044
Mof_C 	C 	0.9033	0.86396	0.5849	-0.019
Mof_H 	H 	0.917	0.8809	0.6215	0.027
Mof_C 	C 	0.92686	0.8431	0.5253	-0.07
Mof_H 	H 	0.9567	0.8459	0.5211	0.042
Mof_C 	C 	0.098	0.7697	0.2037	-0.016
Mof_C 	C 	0.1193	0.7898	0.2692	-0.061
Mof_H 	H 	0.1148	0.8135	0.2696	0.046
Mof_C 	C 	0.1472	0.7753	0.3343	-0.025
Mof_H 	H 	0.1618	0.7891	0.3791	0.03
Mof_C 	C 	0.1538	0.7407	0.3338	-0.051
Mof_H 	H 	0.1729	0.7308	0.3782	0.04
Mof_C 	C 	0.1325	0.7205	0.2682	-0.026
Mof_H 	H 	0.1371	0.6968	0.2678	0.037
Mof_C 	C 	0.1047	0.735	0.2031	-0.057
Mof_H 	H 	0.0901	0.7212	0.1583	0.027
Mof_Ag	Ag	0.47519	0.25006	0.51211	0.489
Mof_P 	P 	0.43842	0.28864	0.4039	0.023
Mof_P 	P 	0.56166	0.28808	0.12183	0.027
Mof_N 	N 	0.5289	0.2112	0.4548	-0.175
Mof_N 	N 	0.7213	0.03763	0.3154	-0.222
Mof_C 	C 	0.528	0.3144	0.1978	-0.197
Mof_H 	H 	0.511	0.3298	0.1573	0.074
Mof_H 	H 	0.5461	0.3284	0.24	0.081
Mof_C 	C 	0.4997	0.29379	0.256	0.005
Mof_H 	H 	0.4805	0.281	0.2132	0.013
Mof_H 	H 	0.5168	0.2772	0.2922	0.014
Mof_C 	C 	0.4716	0.3151	0.3297	-0.197
Mof_H 	H 	0.4906	0.3285	0.3711	0.074
Mof_H 	H 	0.4534	0.3309	0.2936	0.082
Mof_C 	C 	0.5648	0.207	0.5132	0.054
Mof_H 	H 	0.5704	0.2211	0.5664	0.005
Mof_C 	C 	0.5917	0.1803	0.4872	-0.138
Mof_H 	H 	0.6171	0.1771	0.5226	0.066
Mof_C 	C 	0.5831	0.159	0.4137	0.09
Mof_H 	H 	0.6022	0.1414	0.3974	-0.073
Mof_C 	C 	0.5441	0.1639	0.361	-0.148
Mof_H 	H 	0.5365	0.1487	0.3113	0.068
Mof_C 	C 	0.5184	0.1904	0.383	0.074
Mof_H 	H 	0.4931	0.1941	0.3476	-0.012
Mof_C 	C 	0.6861	0.0443	0.2762	0.15
Mof_H 	H 	0.6772	0.0295	0.2267	-0.025
Mof_C 	C 	0.6586	0.0714	0.2979	-0.267
Mof_H 	H 	0.6331	0.0748	0.263	0.117
Mof_C 	C 	0.6702	0.0935	0.374	0.289
Mof_C 	C 	0.7065	0.0868	0.4151	-0.319
Mof_H 	H 	0.717	0.1009	0.4645	0.13
Mof_C 	C 	0.7286	0.0599	0.387	0.168
Mof_H 	H 	0.7535	0.0557	0.4231	-0.041
Mof_C 	C 	0.6463	0.1226	0.4004	-0.384
Mof_H 	H 	0.6565	0.1395	0.4425	0.153
Mof_C 	C 	0.6137	0.1233	0.366	0.239
Mof_H 	H 	0.6038	0.1077	0.3195	-0.064
Mof_C 	C 	0.594	0.31897	0.0552	-0.037
Mof_C 	C 	0.5735	0.343	0.9995	-0.015
Mof_H 	H 	0.5434	0.3446	0.0007	0.013
Mof_C 	C 	0.597	0.3647	0.9422	-0.043
Mof_H 	H 	0.583	0.3811	0.9042	0.036
Mof_C 	C 	0.641	0.3624	0.9405	-0.051
Mof_H 	H 	0.657	0.3773	0.9014	0.041
Mof_C 	C 	0.6615	0.3384	0.9962	-0.009
Mof_H 	H 	0.6916	0.3368	0.995	0.031
Mof_C 	C 	0.638	0.3167	0.0535	-0.074
Mof_H 	H 	0.6521	0.3002	0.0915	0.049
Mof_C 	C 	0.4013	0.2701	0.3164	-0.012
Mof_C 	C 	0.3795	0.28876	0.248	-0.064
Mof_H 	H 	0.383	0.3125	0.2451	0.047
Mof_C 	C 	0.3525	0.2726	0.1841	-0.024
Mof_H 	H 	0.3376	0.2854	0.1374	0.027
Mof_C 	C 	0.3474	0.2378	0.1885	-0.053
Mof_H 	H 	0.329	0.2268	0.1448	0.04
Mof_C 	C 	0.3692	0.21917	0.2568	-0.025
Mof_H 	H 	0.3656	0.1954	0.2598	0.038
Mof_C 	C 	0.3961	0.2353	0.3207	-0.058
Mof_H 	H 	0.411	0.2226	0.3674	0.026
Mof_C 	C 	0.40675	0.31831	0.4717	-0.012
Mof_C 	C 	0.36303	0.3143	0.4779	-0.069
Mof_H 	H 	0.3493	0.2973	0.4413	0.049
Mof_C 	C 	0.33942	0.3351	0.5375	-0.018
Mof_H 	H 	0.3095	0.3324	0.5417	0.03
Mof_C 	C 	0.3595	0.3599	0.5911	-0.063
Mof_H 	H 	0.3434	0.3742	0.6318	0.044
Mof_C 	C 	0.4033	0.36396	0.5849	-0.019
Mof_H 	H 	0.417	0.3809	0.6215	0.027
Mof_C 	C 	0.42686	0.3431	0.5253	-0.07
Mof_H 	H 	0.4567	0.3459	0.5211	0.042
Mof_C 	C 	0.598	0.2697	0.2037	-0.016
Mof_C 	C 	0.6193	0.2898	0.2692	-0.061
Mof_H 	H 	0.6148	0.3135	0.2696	0.046
Mof_C 	C 	0.6472	0.2753	0.3343	-0.025
Mof_H 	H 	0.6618	0.2891	0.3791	0.03
Mof_C 	C 	0.6538	0.2407	0.3338	-0.051
Mof_H 	H 	0.6729	0.2308	0.3782	0.04
Mof_C 	C 	0.6325	0.2205	0.2682	-0.026
Mof_H 	H 	0.6371	0.1968	0.2678	0.037
Mof_C 	C 	0.6047	0.235	0.2031	-0.057
Mof_H 	H 	0.5901	0.2212	0.1583	0.027
Mof_Ag	Ag	0.47519	0.75005	0.01211	0.466
Mof_P 	P 	0.43842	0.78864	0.9039	0.031
Mof_P 	P 	0.56166	0.78808	0.62183	0.023
Mof_N 	N 	0.5289	0.7112	0.9548	-0.157
Mof_N 	N 	0.7213	0.53763	0.8154	-0.226
Mof_C 	C 	0.528	0.8144	0.6978	-0.197
Mof_H 	H 	0.511	0.8298	0.6573	0.075
Mof_H 	H 	0.5461	0.8284	0.74	0.082
Mof_C 	C 	0.4997	0.79379	0.756	0.006
Mof_H 	H 	0.4805	0.781	0.7132	0.013
Mof_H 	H 	0.5168	0.7772	0.7922	0.015
Mof_C 	C 	0.4716	0.8151	0.8297	-0.199
Mof_H 	H 	0.4906	0.8285	0.8711	0.078
Mof_H 	H 	0.4534	0.8309	0.7936	0.083
Mof_C 	C 	0.5648	0.707	0.0132	0.003
Mof_H 	H 	0.5704	0.7211	0.0664	0.02
Mof_C 	C 	0.5917	0.6803	0.9872	-0.077
Mof_H 	H 	0.6171	0.6771	0.0226	0.036
Mof_C 	C 	0.5831	0.659	0.9137	0.075
Mof_H 	H 	0.6022	0.6414	0.8974	-0.089
Mof_C 	C 	0.5441	0.6639	0.861	-0.136
Mof_H 	H 	0.5365	0.6487	0.8113	0.065
Mof_C 	C 	0.5184	0.6904	0.883	0.067
Mof_H 	H 	0.4931	0.6941	0.8476	-0.008
Mof_C 	C 	0.6861	0.5443	0.7762	0.16
Mof_H 	H 	0.6772	0.5295	0.7267	-0.027
Mof_C 	C 	0.6586	0.5714	0.7979	-0.285
Mof_H 	H 	0.6331	0.5748	0.763	0.124
Mof_C 	C 	0.6702	0.5935	0.874	0.323
Mof_C 	C 	0.7065	0.5868	0.9151	-0.341
Mof_H 	H 	0.717	0.6009	0.9645	0.142
Mof_C 	C 	0.7286	0.5599	0.887	0.181
Mof_H 	H 	0.7535	0.5557	0.9231	-0.042
Mof_C 	C 	0.6463	0.6226	0.9004	-0.443
Mof_H 	H 	0.6565	0.6395	0.9425	0.178
Mof_C 	C 	0.6137	0.6233	0.866	0.306
Mof_H 	H 	0.6038	0.6077	0.8195	-0.087
Mof_C 	C 	0.594	0.81897	0.5552	-0.009
Mof_C 	C 	0.5735	0.843	0.4995	-0.072
Mof_H 	H 	0.5434	0.8446	0.5007	0.042
Mof_C 	C 	0.597	0.8647	0.4422	-0.016
Mof_H 	H 	0.583	0.8811	0.4042	0.025
Mof_C 	C 	0.641	0.8624	0.4405	-0.064
Mof_H 	H 	0.657	0.8773	0.4014	0.044
Mof_C 	C 	0.6615	0.8384	0.4962	-0.016
Mof_H 	H 	0.6916	0.8368	0.495	0.029
Mof_C 	C 	0.638	0.8167	0.5535	-0.069
Mof_H 	H 	0.6521	0.8002	0.5915	0.05
Mof_C 	C 	0.4013	0.7701	0.8164	-0.011
Mof_C 	C 	0.3795	0.78876	0.748	-0.063
Mof_H 	H 	0.383	0.8125	0.7451	0.047
Mof_C 	C 	0.3525	0.7726	0.6841	-0.023
Mof_H 	H 	0.3376	0.7854	0.6374	0.029
Mof_C 	C 	0.3474	0.7378	0.6885	-0.053
Mof_H 	H 	0.329	0.7268	0.6448	0.042
Mof_C 	C 	0.3692	0.71917	0.7568	-0.024
Mof_H 	H 	0.3656	0.6954	0.7598	0.039
Mof_C 	C 	0.3961	0.7353	0.8207	-0.058
Mof_H 	H 	0.411	0.7226	0.8674	0.029
Mof_C 	C 	0.40675	0.81831	0.9717	-0.002
Mof_C 	C 	0.36303	0.8143	0.9779	-0.048
Mof_H 	H 	0.3493	0.7973	0.9413	0.046
Mof_C 	C 	0.33942	0.8351	0.0375	-0.04
Mof_H 	H 	0.3095	0.8324	0.0417	0.033
Mof_C 	C 	0.3595	0.8599	0.0911	-0.057
Mof_H 	H 	0.3434	0.8742	0.1318	0.041
Mof_C 	C 	0.4033	0.86396	0.0849	-0.018
Mof_H 	H 	0.417	0.8809	0.1215	0.026
Mof_C 	C 	0.42686	0.8431	0.0253	-0.086
Mof_H 	H 	0.4567	0.8459	0.0211	0.043
Mof_C 	C 	0.598	0.7697	0.7037	-0.014
Mof_C 	C 	0.6193	0.7898	0.7692	-0.061
Mof_H 	H 	0.6148	0.8135	0.7696	0.047
Mof_C 	C 	0.6472	0.7753	0.8343	-0.024
Mof_H 	H 	0.6618	0.7891	0.8791	0.032
Mof_C 	C 	0.6538	0.7407	0.8338	-0.051
Mof_H 	H 	0.6729	0.7308	0.8782	0.043
Mof_C 	C 	0.6325	0.7205	0.7682	-0.024
Mof_H 	H 	0.6371	0.6968	0.7678	0.037
Mof_C 	C 	0.6047	0.735	0.7031	-0.058
Mof_H 	H 	0.5901	0.7212	0.6583	0.028
_end
