data_functionalizedCrystal
_audit_creation_method	'EQeq! by Chris Wilmer'
_symmetry_space_group_name_H-M	'P1'
_symmetry_Int_Tables_number	1
_symmetry_cell_setting	triclinic
loop_
_symmetry_equiv_pos_as_xyz
  x,y,z
_cell_length_a	12.1467
_cell_length_b	18.1091
_cell_length_c	24.1338
_cell_angle_alpha	107.541
_cell_angle_beta	98.67
_cell_angle_gamma	91.332
loop_
_atom_site_label
_atom_site_type_symbol
_atom_site_fract_x
_atom_site_fract_y
_atom_site_fract_z
_atom_site_charge
Mof_C 	C 	0.8555	0.9512	0.7781	-0.09
Mof_H 	H 	0.8921	0.9329	0.7449	0.091
Mof_C 	C 	0.7467	0.9245	0.77549	0.135
Mof_C 	C 	0.6918	0.9508	0.8239	-0.086
Mof_H 	H 	0.6181	0.9307	0.8223	0.082
Mof_C 	C 	0.6205	0.8974	0.68266	0.217
Mof_C 	C 	0.577	0.8432	0.62361	-0.059
Mof_C 	C 	0.607	0.7643	0.60935	0.035
Mof_C 	C 	0.6721	0.7369	0.65075	-0.056
Mof_C 	C 	0.717	0.7909	0.71002	0.217
Mof_C 	C 	0.6969	0.6602	0.63613	-0.019
Mof_H 	H 	0.7393	0.6415	0.6648	0.058
Mof_C 	C 	0.6601	0.6099	0.5795	-0.021
Mof_H 	H 	0.6788	0.5574	0.5696	0.063
Mof_C 	C 	0.5965	0.6361	0.53752	-0.043
Mof_C 	C 	0.5692	0.7144	0.55186	0.029
Mof_C 	C 	0.5062	0.7422	0.50966	-0.047
Mof_C 	C 	0.4755	0.8181	0.52587	-0.027
Mof_H 	H 	0.4313	0.8366	0.4976	0.062
Mof_C 	C 	0.5085	0.8673	0.58296	-0.017
Mof_H 	H 	0.4833	0.9182	0.5939	0.053
Mof_C 	C 	0.4738	0.6911	0.44862	0.207
Mof_C 	C 	0.5567	0.5816	0.47796	0.216
Mof_C 	C 	0.4424	0.5606	0.38001	0.142
Mof_C 	C 	0.3295	0.5608	0.36153	-0.1
Mof_H 	H 	0.2858	0.5945	0.3863	0.098
Mof_C 	C 	0.2797	0.5123	0.30725	-0.018
Mof_C 	C 	0.3448	0.4617	0.2714	-0.028
Mof_H 	H 	0.3111	0.4275	0.2341	0.069
Mof_C 	C 	0.4587	0.4616	0.29052	-0.032
Mof_C 	C 	0.5086	0.5119	0.34471	-0.091
Mof_H 	H 	0.5867	0.513	0.3575	0.105
Mof_C 	C 	0.5274	0.4072	0.25285	0.333
Mof_C 	C 	0.211	0.3797	0.70428	0.336
Mof_C 	C 	0.1571	0.5148	0.28452	0.284
Mof_C 	C 	0.7599	0.4048	0.18107	0.076
Mof_H 	H 	0.7271	0.4331	0.2137	-0.02
Mof_C 	C 	0.7807	0.3191	0.10077	0.098
Mof_C 	C 	0.8767	0.3691	0.12242	-0.039
Mof_C 	C 	0.9668	0.3553	0.09083	0.142
Mof_C 	C 	0.8563	0.2527	0.02243	0.083
Mof_H 	H 	0.8499	0.2123	0.986	0.001
Mof_C 	C 	0.5449	0.2088	0.22319	0.101
Mof_H 	H 	0.5075	0.2529	0.2416	-0.002
Mof_C 	C 	0.6233	0.13997	0.14594	0.11
Mof_C 	C 	0.7025	0.0507	0.09042	0.095
Mof_H 	H 	0.7343	0.0219	0.0576	-0.037
Mof_C 	C 	0.3437	0.3294	0.08052	0.093
Mof_H 	H 	0.3508	0.3723	0.1155	-0.005
Mof_C 	C 	0.228	0.255	0.99515	0.147
Mof_C 	C 	0.3198	0.2105	0.98201	-0.033
Mof_C 	C 	0.4188	0.23	0.02145	0.101
Mof_C 	C 	0.4374	0.1299	0.94953	0.082
Mof_H 	H 	0.4699	0.0875	0.9252	-0.021
Mof_C 	C 	0.6835	0.036	0.92594	0.33
Mof_C 	C 	0.746	0.00651	0.87428	-0.038
Mof_C 	C 	0.8551	0.0341	0.87732	-0.017
Mof_H 	H 	0.8914	0.0727	0.9119	0.063
Mof_C 	C 	0.6458	0.0839	0.17349	-0.037
Mof_C 	C 	0.6154	0.0938	0.22924	0.161
Mof_C 	C 	0.0308	0.0306	0.8326	0.296
Mof_C 	C 	0.9116	0.0055	0.83006	-0.028
Mof_C 	C 	0.2529	0.168	0.79624	0.287
Mof_C 	C 	0.2753	0.2004	0.74859	-0.025
Mof_C 	C 	0.2389	0.2729	0.74858	-0.018
Mof_H 	H 	0.2022	0.3019	0.7794	0.06
Mof_C 	C 	0.2559	0.3026	0.70404	-0.037
Mof_C 	C 	0.3074	0.26	0.65806	-0.081
Mof_H 	H 	0.3182	0.2798	0.6269	0.094
Mof_C 	C 	0.3426	0.1879	0.65868	0.139
Mof_C 	C 	0.3266	0.1579	0.70323	-0.088
Mof_H 	H 	0.3507	0.1082	0.7027	0.089
Mof_C 	C 	0.3182	0.1036	0.55721	0.216
Mof_C 	C 	0.3667	0.0465	0.51074	-0.054
Mof_C 	C 	0.3025	0.0112	0.45734	-0.023
Mof_H 	H 	0.2276	0.0244	0.4501	0.063
Mof_C 	C 	0.4774	0.0279	0.52181	0.024
Mof_C 	C 	0.5477	0.0655	0.57662	-0.052
Mof_C 	C 	0.5029	0.1235	0.62359	0.218
Mof_C 	C 	0.6549	0.0443	0.58718	-0.022
Mof_H 	H 	0.7001	0.0671	0.6246	0.067
Mof_N 	N 	0.692	0.8684	0.72134	-0.181
Mof_N 	N 	0.4906	0.61265	0.43742	-0.177
Mof_N 	N 	0.8616	0.42397	0.17415	-0.253
Mof_N 	N 	0.7058	0.34215	0.13848	-0.312
Mof_N 	N 	0.7676	0.2577	0.05078	-0.301
Mof_N 	N 	0.9517	0.29727	0.03914	-0.152
Mof_N 	N 	0.0658	0.39507	0.10799	-0.297
Mof_H 	H 	0.1183	0.3832	0.0859	0.158
Mof_H 	H 	0.0789	0.4333	0.1414	0.128
Mof_N 	N 	0.6601	0.11936	0.09292	-0.31
Mof_N 	N 	0.5712	0.20616	0.16962	-0.302
Mof_N 	N 	0.4343	0.28882	0.07257	-0.302
Mof_N 	N 	0.2456	0.31684	0.04548	-0.153
Mof_N 	N 	0.1252	0.23931	0.96344	-0.301
Mof_H 	H 	0.071	0.2685	0.9752	0.16
Mof_H 	H 	0.1117	0.1998	0.9308	0.151
Mof_N 	N 	0.4952	0.17866	6e-05	-0.309
Mof_N 	N 	0.3325	0.14523	0.93611	-0.247
Mof_N 	N 	0.6974	0.02537	0.13628	-0.247
Mof_N 	N 	0.6362	0.0456	0.26002	-0.309
Mof_H 	H 	0.6171	0.0559	0.2952	0.169
Mof_H 	H 	0.6693	0.003	0.2455	0.16
Mof_N 	N 	0.5638	0.15971	0.25269	-0.145
Mof_N 	N 	0.3917	0.13996	0.61014	-0.177
Mof_O 	O 	0.777	0.7711	0.74697	-0.223
Mof_O 	O 	0.5991	0.96462	0.69739	-0.222
Mof_O 	O 	0.4323	0.71671	0.40902	-0.206
Mof_O 	O 	0.5778	0.51389	0.46334	-0.21
Mof_O 	O 	0.48174	0.37522	0.19981	-0.469
Mof_O 	O 	0.6213	0.39518	0.27422	-0.296
Mof_O 	O 	0.1588	0.41006	0.7465	-0.466
Mof_O 	O 	0.2272	0.40798	0.66502	-0.27
Mof_O 	O 	0.107	0.57044	0.30931	-0.374
Mof_O 	O 	0.11028	0.45994	0.2405	-0.417
Mof_O 	O 	0.72375	0.10193	0.96247	-0.469
Mof_O 	O 	0.6013	0.99816	0.92879	-0.308
Mof_O 	O 	0.1958	0.20156	0.83399	-0.318
Mof_O 	O 	0.2957	0.10315	0.79685	-0.43
Mof_O 	O 	0.0769	0.00679	0.78882	-0.334
Mof_O 	O 	0.08294	0.07439	0.88149	-0.433
Mof_O 	O 	0.5575	0.15697	0.67169	-0.204
Mof_O 	O 	0.2226	0.1198	0.55065	-0.215
Mof_Zn	Zn	0.55578	0.30174	0.14322	1.178
Mof_Zn	Zn	0.65469	0.16436	0.02706	1.178
Mof_Zn	Zn	0.95569	0.51242	0.24024	1.185
Mof_Zn	Zn	0.23687	0.07623	0.86112	1.211
Mof_C 	C 	0.1445	0.0488	0.2219	-0.089
Mof_H 	H 	0.1079	0.0671	0.2551	0.092
Mof_C 	C 	0.2533	0.0755	0.22451	0.136
Mof_C 	C 	0.3082	0.0492	0.1761	-0.085
Mof_H 	H 	0.3819	0.0693	0.1777	0.083
Mof_C 	C 	0.3795	0.1026	0.31734	0.218
Mof_C 	C 	0.423	0.1568	0.37639	-0.058
Mof_C 	C 	0.393	0.2357	0.39065	0.036
Mof_C 	C 	0.3279	0.2631	0.34925	-0.056
Mof_C 	C 	0.283	0.2091	0.28998	0.217
Mof_C 	C 	0.3031	0.3398	0.36387	-0.019
Mof_H 	H 	0.2607	0.3585	0.3352	0.058
Mof_C 	C 	0.3399	0.3901	0.4205	-0.021
Mof_H 	H 	0.3212	0.4426	0.4304	0.063
Mof_C 	C 	0.4035	0.3639	0.46248	-0.043
Mof_C 	C 	0.4308	0.2856	0.44814	0.029
Mof_C 	C 	0.4938	0.2578	0.49034	-0.047
Mof_C 	C 	0.5245	0.1819	0.47413	-0.027
Mof_H 	H 	0.5687	0.1634	0.5024	0.062
Mof_C 	C 	0.4915	0.1327	0.41704	-0.017
Mof_H 	H 	0.5167	0.0818	0.4061	0.053
Mof_C 	C 	0.5262	0.3089	0.55138	0.207
Mof_C 	C 	0.4433	0.4184	0.52204	0.216
Mof_C 	C 	0.5576	0.4394	0.61999	0.142
Mof_C 	C 	0.6705	0.4392	0.63847	-0.1
Mof_H 	H 	0.7142	0.4055	0.6137	0.098
Mof_C 	C 	0.7203	0.4877	0.69275	-0.018
Mof_C 	C 	0.6552	0.5383	0.7286	-0.028
Mof_H 	H 	0.6889	0.5725	0.7659	0.069
Mof_C 	C 	0.5413	0.5384	0.70948	-0.032
Mof_C 	C 	0.4914	0.4881	0.65529	-0.091
Mof_H 	H 	0.4133	0.487	0.6425	0.105
Mof_C 	C 	0.4726	0.5928	0.74715	0.333
Mof_C 	C 	0.789	0.6203	0.29572	0.336
Mof_C 	C 	0.8429	0.4852	0.71548	0.284
Mof_C 	C 	0.2401	0.5952	0.81893	0.076
Mof_H 	H 	0.2729	0.5669	0.7863	-0.02
Mof_C 	C 	0.2193	0.6809	0.89923	0.098
Mof_C 	C 	0.1233	0.6309	0.87758	-0.039
Mof_C 	C 	0.0332	0.6447	0.90917	0.142
Mof_C 	C 	0.1437	0.7473	0.97757	0.083
Mof_H 	H 	0.1501	0.7877	0.014	0.001
Mof_C 	C 	0.4551	0.7912	0.77681	0.101
Mof_H 	H 	0.4925	0.7471	0.7584	-0.002
Mof_C 	C 	0.3767	0.86003	0.85406	0.11
Mof_C 	C 	0.2975	0.9493	0.90958	0.095
Mof_H 	H 	0.2657	0.9781	0.9424	-0.037
Mof_C 	C 	0.6563	0.6706	0.91948	0.093
Mof_H 	H 	0.6492	0.6277	0.8845	-0.005
Mof_C 	C 	0.772	0.745	0.00485	0.147
Mof_C 	C 	0.6802	0.7895	0.01799	-0.033
Mof_C 	C 	0.5812	0.77	0.97855	0.101
Mof_C 	C 	0.5626	0.8701	0.05047	0.082
Mof_H 	H 	0.5301	0.9125	0.0748	-0.021
Mof_C 	C 	0.3165	0.964	0.07406	0.33
Mof_C 	C 	0.254	0.99349	0.12572	-0.038
Mof_C 	C 	0.1449	0.9659	0.12268	-0.017
Mof_H 	H 	0.1086	0.9273	0.0881	0.063
Mof_C 	C 	0.3542	0.9161	0.82651	-0.037
Mof_C 	C 	0.3846	0.9062	0.77076	0.161
Mof_C 	C 	0.9692	0.9694	0.1674	0.296
Mof_C 	C 	0.0884	0.9945	0.16994	-0.028
Mof_C 	C 	0.7471	0.832	0.20376	0.287
Mof_C 	C 	0.7247	0.7996	0.25141	-0.025
Mof_C 	C 	0.7611	0.7271	0.25142	-0.018
Mof_H 	H 	0.7978	0.6981	0.2206	0.06
Mof_C 	C 	0.7441	0.6974	0.29596	-0.037
Mof_C 	C 	0.6926	0.74	0.34194	-0.081
Mof_H 	H 	0.6818	0.7202	0.3731	0.094
Mof_C 	C 	0.6574	0.8121	0.34132	0.139
Mof_C 	C 	0.6734	0.8421	0.29677	-0.088
Mof_H 	H 	0.6493	0.8918	0.2973	0.089
Mof_C 	C 	0.6818	0.8964	0.44279	0.216
Mof_C 	C 	0.6333	0.9535	0.48926	-0.054
Mof_C 	C 	0.6975	0.9888	0.54266	-0.023
Mof_H 	H 	0.7724	0.9756	0.5499	0.063
Mof_C 	C 	0.5226	0.9721	0.47819	0.024
Mof_C 	C 	0.4523	0.9345	0.42338	-0.052
Mof_C 	C 	0.4971	0.8765	0.37641	0.218
Mof_C 	C 	0.3451	0.9557	0.41282	-0.022
Mof_H 	H 	0.2999	0.9329	0.3754	0.067
Mof_N 	N 	0.308	0.1316	0.27866	-0.181
Mof_N 	N 	0.5094	0.38735	0.56258	-0.177
Mof_N 	N 	0.1384	0.57603	0.82585	-0.253
Mof_N 	N 	0.2942	0.65785	0.86152	-0.312
Mof_N 	N 	0.2324	0.7423	0.94922	-0.301
Mof_N 	N 	0.0483	0.70273	0.96086	-0.152
Mof_N 	N 	0.9342	0.60493	0.89201	-0.297
Mof_H 	H 	0.8817	0.6168	0.9141	0.158
Mof_H 	H 	0.9211	0.5667	0.8586	0.128
Mof_N 	N 	0.3399	0.88064	0.90708	-0.31
Mof_N 	N 	0.4288	0.79384	0.83038	-0.302
Mof_N 	N 	0.5657	0.71118	0.92743	-0.302
Mof_N 	N 	0.7544	0.68316	0.95452	-0.153
Mof_N 	N 	0.8748	0.76069	0.03656	-0.301
Mof_H 	H 	0.929	0.7315	0.0248	0.16
Mof_H 	H 	0.8883	0.8002	0.0692	0.151
Mof_N 	N 	0.5048	0.82134	0.99994	-0.309
Mof_N 	N 	0.6675	0.85477	0.06389	-0.247
Mof_N 	N 	0.3026	0.97463	0.86372	-0.247
Mof_N 	N 	0.3638	0.9544	0.73998	-0.309
Mof_H 	H 	0.3829	0.9441	0.7048	0.169
Mof_H 	H 	0.3307	0.997	0.7545	0.16
Mof_N 	N 	0.4362	0.84029	0.74731	-0.145
Mof_N 	N 	0.6083	0.86004	0.38986	-0.177
Mof_O 	O 	0.223	0.2289	0.25303	-0.223
Mof_O 	O 	0.4009	0.03538	0.30261	-0.222
Mof_O 	O 	0.5677	0.28329	0.59098	-0.206
Mof_O 	O 	0.4222	0.48611	0.53666	-0.21
Mof_O 	O 	0.51826	0.62478	0.80019	-0.469
Mof_O 	O 	0.3787	0.60482	0.72578	-0.296
Mof_O 	O 	0.8412	0.58994	0.2535	-0.466
Mof_O 	O 	0.7728	0.59202	0.33498	-0.27
Mof_O 	O 	0.893	0.42956	0.69069	-0.374
Mof_O 	O 	0.88972	0.54006	0.7595	-0.417
Mof_O 	O 	0.27625	0.89807	0.03753	-0.469
Mof_O 	O 	0.3987	0.00184	0.07121	-0.308
Mof_O 	O 	0.8042	0.79844	0.16601	-0.318
Mof_O 	O 	0.7043	0.89685	0.20315	-0.43
Mof_O 	O 	0.9231	0.99321	0.21118	-0.334
Mof_O 	O 	0.91706	0.92561	0.11851	-0.433
Mof_O 	O 	0.4425	0.84303	0.32831	-0.204
Mof_O 	O 	0.7774	0.8802	0.44935	-0.215
Mof_Zn	Zn	0.44422	0.69826	0.85678	1.178
Mof_Zn	Zn	0.34531	0.83564	0.97294	1.178
Mof_Zn	Zn	0.04431	0.48758	0.75976	1.185
Mof_Zn	Zn	0.76313	0.92377	0.13888	1.211
_end
