data_functionalizedCrystal
_audit_creation_method	'EQeq! by Chris Wilmer'
_symmetry_space_group_name_H-M	'P1'
_symmetry_Int_Tables_number	1
_symmetry_cell_setting	triclinic
loop_
_symmetry_equiv_pos_as_xyz
  x,y,z
_cell_length_a	12.4122
_cell_length_b	13.937
_cell_length_c	24.949
_cell_angle_alpha	89.9546
_cell_angle_beta	89.898
_cell_angle_gamma	63.5578
loop_
_atom_site_label
_atom_site_type_symbol
_atom_site_fract_x
_atom_site_fract_y
_atom_site_fract_z
_atom_site_charge
Mof_V 	V 	0.88438	0.90864	0.17271	1.844
Mof_V 	V 	0.94778	0.80104	0.29691	1.836
Mof_V 	V 	0.66781	0.79598	0.30554	1.849
Mof_V 	V 	0.51669	0.73582	0.21318	1.825
Mof_V 	V 	0.59715	0.5023	0.15538	1.849
Mof_V 	V 	0.31337	0.50446	0.16136	1.842
Mof_V 	V 	0.19888	0.33624	0.13268	1.837
Mof_V 	V 	0.24108	0.19984	0.01965	1.836
Mof_V 	V 	0.96363	0.19694	0.01634	1.817
Mof_V 	V 	0.9383	0.1088	0.1498	1.816
Mof_V 	V 	0.79302	0.09136	0.67271	1.844
Mof_V 	V 	0.74882	0.19896	0.79691	1.842
Mof_V 	V 	0.46379	0.20402	0.80554	1.849
Mof_V 	V 	0.25251	0.26418	0.71318	1.826
Mof_V 	V 	0.09945	0.4977	0.65538	1.856
Mof_V 	V 	0.81783	0.49554	0.66136	1.84
Mof_V 	V 	0.53512	0.66376	0.63268	1.836
Mof_V 	V 	0.44092	0.80016	0.51965	1.851
Mof_V 	V 	0.16057	0.80306	0.51634	1.841
Mof_V 	V 	0.0471	0.8912	0.6498	1.831
Mof_Co	Co	0.18947	0.5341	0.2947	1.196
Mof_Co	Co	0.4228	0.066	0.30095	1.19
Mof_Co	Co	0.48234	0.93926	0.03349	1.165
Mof_Co	Co	0.1885	0.53372	0.5263	1.2
Mof_Co	Co	0.79467	0.30826	0.24904	1.189
Mof_Co	Co	0.92657	0.04266	0.9095	1.191
Mof_Co	Co	0.09409	0.70922	0.07698	1.208
Mof_Co	Co	0.63028	0.64464	0.41565	1.194
Mof_Co	Co	0.72357	0.4659	0.7947	1.194
Mof_Co	Co	0.4888	0.934	0.80095	1.189
Mof_Co	Co	0.4216	0.06074	0.53349	1.186
Mof_Co	Co	0.72222	0.46628	0.0263	1.184
Mof_Co	Co	0.10293	0.69174	0.74904	1.196
Mof_Co	Co	0.96923	0.95734	0.4095	1.19
Mof_Co	Co	0.80331	0.29078	0.57698	1.194
Mof_Co	Co	0.27492	0.35536	0.91565	1.195
Mof_H 	H 	0.9232	0.6032	0.2442	0.008
Mof_H 	H 	0.7983	0.526	0.2362	-0.009
Mof_H 	H 	0.0565	0.251	0.2821	0.029
Mof_H 	H 	0.2415	0.9632	0.262	0.049
Mof_H 	H 	0.0773	0.9564	0.2971	0.024
Mof_H 	H 	0.1786	0.006	0.4392	0.026
Mof_H 	H 	0.2129	0.0098	0.0801	0.014
Mof_H 	H 	0.0871	0.93	0.0793	-0.012
Mof_H 	H 	0.3547	0.6524	0.0529	-0.009
Mof_H 	H 	0.9095	0.6356	0.5654	0.013
Mof_H 	H 	0.7315	0.6562	0.5282	-0.006
Mof_H 	H 	0.8855	0.6014	0.3857	-0.005
Mof_H 	H 	0.5569	0.2996	0.195	-0.004
Mof_H 	H 	0.4301	0.2314	0.2244	0.014
Mof_H 	H 	0.6654	0.058	0.3294	0.004
Mof_H 	H 	0.6356	0.1506	0.9143	-0.005
Mof_H 	H 	0.4942	0.1082	0.957	0.034
Mof_H 	H 	0.7511	0.8734	0.0302	0.064
Mof_H 	H 	0.5648	0.2956	0.6283	0.007
Mof_H 	H 	0.363	0.3784	0.6092	0.02
Mof_H 	H 	0.4246	0.5382	0.4945	0.004
Mof_H 	H 	0.3368	0.7602	0.4032	0.012
Mof_H 	H 	0.2007	0.7054	0.3673	0.015
Mof_H 	H 	0.4648	0.461	0.2988	0.013
Mof_H 	H 	0.5264	0.3968	0.7442	-0.004
Mof_H 	H 	0.3243	0.474	0.7362	-0
Mof_H 	H 	0.3075	0.749	0.7821	0.035
Mof_H 	H 	0.2047	0.0368	0.762	0.048
Mof_H 	H 	0.0337	0.0436	0.7971	0.027
Mof_H 	H 	0.1846	0.994	0.9392	0.024
Mof_H 	H 	0.2227	0.9902	0.5801	0.002
Mof_H 	H 	0.0171	0.07	0.5793	-0.015
Mof_H 	H 	0.0071	0.3476	0.5529	-0.006
Mof_H 	H 	0.5451	0.3644	0.0654	-0.005
Mof_H 	H 	0.3877	0.3438	0.0282	0.019
Mof_H 	H 	0.4869	0.3986	0.8857	0.018
Mof_H 	H 	0.8565	0.7004	0.695	-0.009
Mof_H 	H 	0.6615	0.7686	0.7244	0.014
Mof_H 	H 	0.7234	0.942	0.8294	0.005
Mof_H 	H 	0.7862	0.8494	0.4143	-0.002
Mof_H 	H 	0.6024	0.8918	0.457	0.021
Mof_H 	H 	0.6245	0.1266	0.5302	0.016
Mof_H 	H 	0.8604	0.7044	0.1283	-0.003
Mof_H 	H 	0.7414	0.6216	0.1092	0.028
Mof_H 	H 	0.9628	0.4618	0.9945	0.117
Mof_H 	H 	0.097	0.2398	0.9032	0.002
Mof_H 	H 	0.9061	0.2946	0.8673	0.029
Mof_H 	H 	0.9258	0.539	0.7988	0.027
Mof_C 	C 	0.9525	0.5306	0.252	-0.037
Mof_C 	C 	0.8775	0.4834	0.2464	0.052
Mof_C 	C 	0.0285	0.323	0.2731	0.087
Mof_C 	C 	0.1032	0.3736	0.2781	-0.076
Mof_C 	C 	0.2319	0.309	0.2972	0.364
Mof_C 	C 	0.2263	0.9768	0.2985	-0
Mof_C 	C 	0.1306	0.9678	0.3193	0.032
Mof_C 	C 	0.1895	0.9986	0.4023	0.035
Mof_C 	C 	0.2842	0.012	0.3784	-0.056
Mof_C 	C 	0.3595	0.052	0.4102	0.355
Mof_C 	C 	0.2428	0.9372	0.072	-0.017
Mof_C 	C 	0.1691	0.8888	0.0737	0.022
Mof_C 	C 	0.3233	0.7264	0.0561	0.077
Mof_C 	C 	0.4006	0.7756	0.0481	-0.087
Mof_C 	C 	0.5264	0.7192	0.0299	0.338
Mof_C 	C 	0.9072	0.6256	0.5287	-0.04
Mof_C 	C 	0.7978	0.641	0.5063	0.026
Mof_C 	C 	0.8882	0.6074	0.4227	0.078
Mof_C 	C 	0.9992	0.5882	0.4481	-0.141
Mof_C 	C 	0.1131	0.549	0.4163	0.397
Mof_C 	C 	0.5784	0.2542	0.2245	-0.004
Mof_C 	C 	0.5044	0.2092	0.241	0.034
Mof_C 	C 	0.6397	0.1106	0.3029	0.053
Mof_C 	C 	0.7114	0.1608	0.2891	-0.077
Mof_C 	C 	0.83	0.132	0.3192	0.372
Mof_C 	C 	0.6618	0.0932	0.938	0.046
Mof_C 	C 	0.5756	0.067	0.9641	0.003
Mof_C 	C 	0.7244	0.9308	0.0065	-0.113
Mof_C 	C 	0.809	0.9556	0.9812	0.026
Mof_C 	C 	0.9435	0.8896	0.9894	0.38
Mof_C 	C 	0.5375	0.3456	0.6007	0.032
Mof_C 	C 	0.4159	0.3934	0.5884	0.012
Mof_C 	C 	0.4516	0.4868	0.5214	0.067
Mof_C 	C 	0.5718	0.4388	0.5347	-0.081
Mof_C 	C 	0.6631	0.4618	0.5028	0.361
Mof_C 	C 	0.3641	0.6974	0.3834	-0.005
Mof_C 	C 	0.2826	0.6654	0.3606	0.022
Mof_C 	C 	0.4376	0.5202	0.3213	0.067
Mof_C 	C 	0.5204	0.5472	0.3462	-0.068
Mof_C 	C 	0.657	0.4796	0.3407	0.358
Mof_C 	C 	0.4831	0.4694	0.752	0.021
Mof_C 	C 	0.3609	0.5166	0.7464	0.033
Mof_C 	C 	0.3515	0.677	0.7731	0.041
Mof_C 	C 	0.4768	0.6264	0.7781	-0.064
Mof_C 	C 	0.5409	0.691	0.7972	0.36
Mof_C 	C 	0.2031	0.0232	0.7985	0.009
Mof_C 	C 	0.0984	0.0322	0.8193	0.03
Mof_C 	C 	0.1881	0.0014	0.9023	0.062
Mof_C 	C 	0.2962	0.988	0.8784	-0.067
Mof_C 	C 	0.4115	0.948	0.9102	0.353
Mof_C 	C 	0.18	0.0628	0.572	-0.004
Mof_C 	C 	0.0579	0.1112	0.5737	0.06
Mof_C 	C 	0.0497	0.2736	0.5561	0.129
Mof_C 	C 	0.1762	0.2244	0.5481	-0.089
Mof_C 	C 	0.2456	0.2808	0.5299	0.345
Mof_C 	C 	0.5328	0.3744	0.0287	0.029
Mof_C 	C 	0.4388	0.359	0.0063	-0.082
Mof_C 	C 	0.4956	0.3926	0.9227	0.035
Mof_C 	C 	0.5874	0.4118	0.9481	0.001
Mof_C 	C 	0.6621	0.451	0.9163	0.335
Mof_C 	C 	0.8326	0.7458	0.7245	-0.005
Mof_C 	C 	0.7136	0.7908	0.741	0.033
Mof_C 	C 	0.7503	0.8894	0.8029	0.049
Mof_C 	C 	0.8722	0.8392	0.7891	-0.07
Mof_C 	C 	0.962	0.868	0.8192	0.33
Mof_C 	C 	0.755	0.9068	0.438	0.017
Mof_C 	C 	0.6426	0.933	0.4641	0.003
Mof_C 	C 	0.6552	0.0692	0.5065	0.065
Mof_C 	C 	0.7646	0.0444	0.4812	-0.079
Mof_C 	C 	0.8331	0.1104	0.4894	0.362
Mof_C 	C 	0.8831	0.6544	0.1007	0.048
Mof_C 	C 	0.8093	0.6066	0.0884	-0.014
Mof_C 	C 	0.9384	0.5132	0.0214	-0.157
Mof_C 	C 	0.0106	0.5612	0.0347	0.063
Mof_C 	C 	0.1249	0.5382	0.0028	0.235
Mof_C 	C 	0.0615	0.3026	0.8834	0.063
Mof_C 	C 	0.948	0.3346	0.8606	-0.043
Mof_C 	C 	0.9578	0.4798	0.8213	0.005
Mof_C 	C 	0.0676	0.4528	0.8462	-0.013
Mof_C 	C 	0.1366	0.5204	0.8407	0.344
Mof_N 	N 	0.0634	0.4776	0.2678	-0.161
Mof_N 	N 	0.9112	0.3822	0.2545	-0.231
Mof_N 	N 	0.3003	0.0038	0.326	-0.179
Mof_N 	N 	0.114	0.9752	0.3724	-0.193
Mof_N 	N 	0.3628	0.8782	0.0582	-0.175
Mof_N 	N 	0.2139	0.7794	0.0674	-0.212
Mof_N 	N 	0.0095	0.5972	0.5009	-0.148
Mof_N 	N 	0.7884	0.6336	0.4518	-0.216
Mof_N 	N 	0.6822	0.2328	0.251	-0.189
Mof_N 	N 	0.5339	0.1376	0.2783	-0.208
Mof_N 	N 	0.7765	0.0378	0.9472	-0.205
Mof_N 	N 	0.608	0.986	0.9981	-0.136
Mof_N 	N 	0.6145	0.3684	0.5751	-0.194
Mof_N 	N 	0.3737	0.461	0.5465	-0.201
Mof_N 	N 	0.4863	0.634	0.376	-0.183
Mof_N 	N 	0.32	0.5776	0.329	-0.195
Mof_N 	N 	0.541	0.5224	0.7678	-0.189
Mof_N 	N 	0.2934	0.6178	0.7545	-0.205
Mof_N 	N 	0.3041	0.9962	0.826	-0.184
Mof_N 	N 	0.0892	0.0248	0.8724	-0.193
Mof_N 	N 	0.241	0.1218	0.5582	-0.167
Mof_N 	N 	0.9933	0.2206	0.5674	-0.253
Mof_N 	N 	0.6067	0.4028	0.0009	-0.239
Mof_N 	N 	0.422	0.3664	0.9518	-0.164
Mof_N 	N 	0.915	0.7672	0.751	-0.201
Mof_N 	N 	0.6715	0.8624	0.7783	-0.207
Mof_N 	N 	0.8143	0.9622	0.4472	-0.191
Mof_N 	N 	0.594	0.014	0.4981	-0.207
Mof_N 	N 	0.9829	0.6316	0.0751	-0.242
Mof_N 	N 	0.8347	0.539	0.0465	-0.168
Mof_N 	N 	0.1203	0.366	0.876	-0.199
Mof_N 	N 	0.8976	0.4224	0.829	-0.178
Mof_O 	O 	0.2863	0.3666	0.3076	-0.388
Mof_O 	O 	0.56	0.9222	0.1086	-0.264
Mof_O 	O 	0.2667	0.2142	0.3016	-0.399
Mof_O 	O 	0.3879	0.0542	0.2198	-0.243
Mof_O 	O 	0.429	0.0772	0.3842	-0.395
Mof_O 	O 	0.3498	0.0484	0.4603	-0.414
Mof_O 	O 	0.584	0.7716	0.0203	-0.397
Mof_O 	O 	0.5707	0.6164	0.0252	-0.407
Mof_O 	O 	0.2088	0.518	0.442	-0.398
Mof_O 	O 	0.1017	0.5518	0.3659	-0.418
Mof_O 	O 	0.8883	0.1808	0.3024	-0.414
Mof_O 	O 	0.855	0.068	0.3558	-0.431
Mof_O 	O 	0.0128	0.9188	0.9647	-0.356
Mof_O 	O 	0.9737	0.8118	0.0188	-0.472
Mof_O 	O 	0.7717	0.4072	0.5163	-0.402
Mof_O 	O 	0.6236	0.5286	0.4666	-0.418
Mof_O 	O 	0.7196	0.5184	0.3601	-0.406
Mof_O 	O 	0.6934	0.3908	0.3185	-0.378
Mof_O 	O 	0.9966	0.8164	0.1388	-0.713
Mof_O 	O 	0.7641	0.8944	0.1633	-0.569
Mof_O 	O 	0.9195	0.8966	0.242	-0.805
Mof_O 	O 	0.8474	0.0418	0.1523	-0.809
Mof_O 	O 	0.8249	0.154	0.8523	-0.695
Mof_O 	O 	0.0666	0.6896	0.2782	-0.663
Mof_O 	O 	0.8208	0.7742	0.3042	-0.817
Mof_O 	O 	0.6419	0.7538	0.3635	-0.684
Mof_O 	O 	0.5713	0.9252	0.3009	-0.709
Mof_O 	O 	0.6405	0.7238	0.2539	-0.816
Mof_O 	O 	0.4477	0.8554	0.1846	-0.511
Mof_O 	O 	0.4194	0.7184	0.2517	-0.576
Mof_O 	O 	0.5719	0.6384	0.1591	-0.785
Mof_O 	O 	0.6651	0.4386	0.2093	-0.715
Mof_O 	O 	0.6844	0.45	0.1036	-0.706
Mof_O 	O 	0.4599	0.4914	0.147	-0.807
Mof_O 	O 	0.2861	0.5148	0.2262	-0.706
Mof_O 	O 	0.2088	0.6156	0.1304	-0.686
Mof_O 	O 	0.3085	0.3876	0.1369	-0.804
Mof_O 	O 	0.2443	0.2268	0.1681	-0.549
Mof_O 	O 	0.0663	0.4226	0.1503	-0.571
Mof_O 	O 	0.1978	0.307	0.0618	-0.837
Mof_O 	O 	0.2871	0.2312	0.9621	-0.64
Mof_O 	O 	0.3539	0.0954	0.0471	-0.698
Mof_O 	O 	0.1175	0.1712	0.0086	-0.829
Mof_O 	O 	0.8746	0.326	0.0229	-0.742
Mof_O 	O 	0.9229	0.151	0.9619	-0.665
Mof_O 	O 	0.9504	0.127	0.0748	-0.793
Mof_O 	O 	0.878	0.2214	0.1818	-0.742
Mof_O 	O 	0.0675	0.0188	0.1789	-0.521
Mof_O 	O 	0.6529	0.6334	0.8076	-0.385
Mof_O 	O 	0.4822	0.0778	0.6086	-0.258
Mof_O 	O 	0.4809	0.7858	0.8016	-0.398
Mof_O 	O 	0.4421	0.9458	0.7198	-0.248
Mof_O 	O 	0.5062	0.9228	0.8842	-0.389
Mof_O 	O 	0.3982	0.9516	0.9603	-0.382
Mof_O 	O 	0.3556	0.2284	0.5203	-0.377
Mof_O 	O 	0.1871	0.3836	0.5252	-0.386
Mof_O 	O 	0.7268	0.482	0.942	-0.355
Mof_O 	O 	0.6535	0.4482	0.8659	-0.412
Mof_O 	O 	0.0691	0.8192	0.8024	-0.37
Mof_O 	O 	0.923	0.932	0.8558	-0.425
Mof_O 	O 	0.9316	0.0812	0.4647	-0.416
Mof_O 	O 	0.7855	0.1882	0.5188	-0.411
Mof_O 	O 	0.1789	0.5928	0.0163	-0.376
Mof_O 	O 	0.1522	0.4714	0.9666	-0.33
Mof_O 	O 	0.238	0.4816	0.8601	-0.394
Mof_O 	O 	0.0842	0.6092	0.8185	-0.357
Mof_O 	O 	0.813	0.1836	0.6388	-0.699
Mof_O 	O 	0.6585	0.1056	0.6633	-0.565
Mof_O 	O 	0.8161	0.1034	0.742	-0.801
Mof_O 	O 	0.8892	0.9582	0.6523	-0.818
Mof_O 	O 	0.9789	0.846	0.3523	-0.706
Mof_O 	O 	0.7562	0.3104	0.7782	-0.688
Mof_O 	O 	0.595	0.2258	0.8042	-0.812
Mof_O 	O 	0.3957	0.2462	0.8635	-0.683
Mof_O 	O 	0.4965	0.0748	0.8009	-0.706
Mof_O 	O 	0.3643	0.2762	0.7539	-0.815
Mof_O 	O 	0.3031	0.1446	0.6846	-0.508
Mof_O 	O 	0.1378	0.2816	0.7517	-0.567
Mof_O 	O 	0.2103	0.3616	0.6591	-0.781
Mof_O 	O 	0.1037	0.5614	0.7093	-0.705
Mof_O 	O 	0.1344	0.55	0.6036	-0.696
Mof_O 	O 	0.9513	0.5086	0.647	-0.826
Mof_O 	O 	0.8009	0.4852	0.7262	-0.712
Mof_O 	O 	0.8244	0.3844	0.6304	-0.698
Mof_O 	O 	0.6961	0.6124	0.6369	-0.803
Mof_O 	O 	0.4711	0.7732	0.6681	-0.553
Mof_O 	O 	0.4889	0.5774	0.6503	-0.59
Mof_O 	O 	0.5048	0.693	0.5618	-0.829
Mof_O 	O 	0.5183	0.7688	0.4621	-0.673
Mof_O 	O 	0.4493	0.9046	0.5471	-0.683
Mof_O 	O 	0.2887	0.8288	0.5086	-0.818
Mof_O 	O 	0.2006	0.674	0.5229	-0.708
Mof_O 	O 	0.0739	0.849	0.4619	-0.67
Mof_O 	O 	0.0774	0.873	0.5748	-0.759
Mof_O 	O 	0.0994	0.7786	0.6818	-0.725
Mof_O 	O 	0.0863	0.9812	0.6789	-0.541
_end
