data_functionalizedCrystal
_audit_creation_method	'EQeq! by Chris Wilmer'
_symmetry_space_group_name_H-M	'P1'
_symmetry_Int_Tables_number	1
_symmetry_cell_setting	triclinic
loop_
_symmetry_equiv_pos_as_xyz
  x,y,z
_cell_length_a	8.787
_cell_length_b	17.783
_cell_length_c	9.204
_cell_angle_alpha	90
_cell_angle_beta	109.56
_cell_angle_gamma	90
loop_
_atom_site_label
_atom_site_type_symbol
_atom_site_fract_x
_atom_site_fract_y
_atom_site_fract_z
_atom_site_charge
Mof_Ga	Ga	0.0679	0.2949	0.3036	4.697
Mof_Ga	Ga	0.1355	0.11	0.1658	4.581
Mof_Ga	Ga	0.5135	0.3291	0.1962	4.424
Mof_P 	P 	0.3412	0.4294	0.3698	1.232
Mof_P 	P 	0.8027	0.2887	0.4831	1.2
Mof_P 	P 	0.2483	0.1613	0.5089	1.089
Mof_O 	O 	0.0349	0.2095	0.1783	-1.956
Mof_O 	O 	0.1949	0.3782	0.3146	-1.335
Mof_O 	O 	0.242	0.2442	0.462	-1.297
Mof_O 	O 	0.9502	0.3032	0.4391	-1.356
Mof_O 	O 	0.4033	0.1468	0.6425	-1.098
Mof_O 	O 	0.4584	0.4125	0.2802	-1.402
Mof_O 	O 	0.8292	0.2207	0.5926	-1.379
Mof_O 	O 	0.1012	0.1384	0.5555	-1.356
Mof_O 	O 	0.654	0.2696	0.3428	-1.39
Mof_O 	O 	0.2447	0.1088	0.3762	-1.238
Mof_O 	O 	0.429	0.419	0.5426	-1.321
Mof_O 	O 	0.2782	0.5092	0.3356	-1.091
Mof_O 	O 	0.7732	0.3593	0.5627	-1.324
Mof_H 	H 	0.921	0.211	0.095	0.328
Mof_Ga	Ga	0.4321	0.7949	0.1964	4.732
Mof_Ga	Ga	0.3645	0.61	0.3342	4.628
Mof_Ga	Ga	0.9865	0.8291	0.3038	4.33
Mof_P 	P 	0.1588	0.9294	0.1302	1.224
Mof_P 	P 	0.6973	0.7887	0.0169	1.19
Mof_P 	P 	0.2517	0.6613	0.9911	1.097
Mof_O 	O 	0.4651	0.7095	0.3217	-1.955
Mof_O 	O 	0.3051	0.8782	0.1854	-1.337
Mof_O 	O 	0.258	0.7442	0.038	-1.305
Mof_O 	O 	0.5498	0.8032	0.0609	-1.376
Mof_O 	O 	0.0967	0.6468	0.8575	-1.087
Mof_O 	O 	0.0416	0.9125	0.2198	-1.368
Mof_O 	O 	0.6708	0.7207	0.9074	-1.402
Mof_O 	O 	0.3988	0.6384	0.9445	-1.369
Mof_O 	O 	0.846	0.7696	0.1572	-1.378
Mof_O 	O 	0.2553	0.6088	0.1238	-1.247
Mof_O 	O 	0.071	0.919	0.9574	-1.294
Mof_O 	O 	0.2218	0.0092	0.1644	-1.09
Mof_O 	O 	0.7268	0.8593	0.9373	-1.313
Mof_H 	H 	0.579	0.711	0.405	0.314
Mof_Ga	Ga	0.9321	0.7051	0.6964	4.696
Mof_Ga	Ga	0.8645	0.89	0.8342	4.58
Mof_Ga	Ga	0.4865	0.6709	0.8038	4.423
Mof_P 	P 	0.6588	0.5706	0.6302	1.231
Mof_P 	P 	0.1973	0.7113	0.5169	1.2
Mof_P 	P 	0.7517	0.8387	0.4911	1.089
Mof_O 	O 	0.9651	0.7905	0.8217	-1.956
Mof_O 	O 	0.8051	0.6218	0.6854	-1.335
Mof_O 	O 	0.758	0.7558	0.538	-1.297
Mof_O 	O 	0.0498	0.6968	0.5609	-1.356
Mof_O 	O 	0.5967	0.8532	0.3575	-1.098
Mof_O 	O 	0.5416	0.5875	0.7198	-1.402
Mof_O 	O 	0.1708	0.7793	0.4074	-1.379
Mof_O 	O 	0.8988	0.8616	0.4445	-1.356
Mof_O 	O 	0.346	0.7304	0.6572	-1.39
Mof_O 	O 	0.7553	0.8912	0.6238	-1.238
Mof_O 	O 	0.571	0.581	0.4574	-1.321
Mof_O 	O 	0.7218	0.4908	0.6644	-1.091
Mof_O 	O 	0.2268	0.6407	0.4373	-1.324
Mof_H 	H 	0.079	0.789	0.905	0.328
Mof_Ga	Ga	0.5679	0.2051	0.8036	4.732
Mof_Ga	Ga	0.6355	0.39	0.6658	4.628
Mof_Ga	Ga	0.0135	0.1709	0.6962	4.33
Mof_P 	P 	0.8412	0.0706	0.8698	1.224
Mof_P 	P 	0.3027	0.2113	0.9831	1.19
Mof_P 	P 	0.7483	0.3387	0.0089	1.097
Mof_O 	O 	0.5349	0.2905	0.6783	-1.955
Mof_O 	O 	0.6949	0.1218	0.8146	-1.337
Mof_O 	O 	0.742	0.2558	0.962	-1.305
Mof_O 	O 	0.4502	0.1968	0.9391	-1.376
Mof_O 	O 	0.9033	0.3532	0.1425	-1.087
Mof_O 	O 	0.9584	0.0875	0.7802	-1.368
Mof_O 	O 	0.3292	0.2793	0.0926	-1.402
Mof_O 	O 	0.6012	0.3616	0.0555	-1.369
Mof_O 	O 	0.154	0.2304	0.8428	-1.378
Mof_O 	O 	0.7447	0.3912	0.8762	-1.247
Mof_O 	O 	0.929	0.081	0.0426	-1.294
Mof_O 	O 	0.7782	0.9908	0.8356	-1.09
Mof_O 	O 	0.2732	0.1407	0.0627	-1.313
Mof_H 	H 	0.421	0.289	0.595	0.314
_end
