data_functionalizedCrystal
_audit_creation_method	'EQeq! by Chris Wilmer'
_symmetry_space_group_name_H-M	'P1'
_symmetry_Int_Tables_number	1
_symmetry_cell_setting	triclinic
loop_
_symmetry_equiv_pos_as_xyz
  x,y,z
_cell_length_a	13.9318
_cell_length_b	13.9318
_cell_length_c	17.7461
_cell_angle_alpha	113.112
_cell_angle_beta	113.112
_cell_angle_gamma	90
loop_
_atom_site_label
_atom_site_type_symbol
_atom_site_fract_x
_atom_site_fract_y
_atom_site_fract_z
_atom_site_charge
Mof_Ni	Ni	0.74782	0.48278	0.82342	1.053
Mof_Ni	Ni	0.5756	0.34064	0.82342	1.053
Mof_Ni	Ni	0.9244	0.01722	0.17658	1.051
Mof_Ni	Ni	0.75218	0.15936	0.17658	1.053
Mof_Ni	Ni	0.51722	0.4244	0.67658	1.053
Mof_Ni	Ni	0.65936	0.25218	0.67658	1.053
Mof_Ni	Ni	0.84064	0.0756	0.32342	1.052
Mof_Ni	Ni	0.98278	0.24782	0.32342	1.052
Mof_H 	H 	0.6099	0.5833	0.934	-0.017
Mof_H 	H 	0.4996	0.568	0.8546	-0.021
Mof_H 	H 	0.6001	0.6353	0.868	-0.025
Mof_H 	H 	0.8241	0.3507	0.934	-0.016
Mof_H 	H 	0.855	0.2866	0.8546	-0.021
Mof_H 	H 	0.7679	0.2327	0.868	-0.024
Mof_H 	H 	0.6759	0.9167	0.066	-0.018
Mof_H 	H 	0.645	0.932	0.1454	-0.023
Mof_H 	H 	0.7321	0.8647	0.132	-0.027
Mof_H 	H 	0.8901	0.1493	0.066	-0.014
Mof_H 	H 	0.0004	0.2134	0.1454	-0.012
Mof_H 	H 	0.8999	0.2673	0.132	-0.02
Mof_H 	H 	0.4167	0.1759	0.566	-0.015
Mof_H 	H 	0.432	0.145	0.6454	-0.019
Mof_H 	H 	0.3647	0.2321	0.632	-0.023
Mof_H 	H 	0.6493	0.3901	0.566	-0.016
Mof_H 	H 	0.7134	0.5004	0.6454	-0.02
Mof_H 	H 	0.7673	0.3999	0.632	-0.024
Mof_H 	H 	0.8507	0.3241	0.434	-0.016
Mof_H 	H 	0.7866	0.355	0.3546	-0.02
Mof_H 	H 	0.7327	0.2679	0.368	-0.024
Mof_H 	H 	0.0833	0.1099	0.434	-0.023
Mof_H 	H 	0.068	0.9996	0.3546	-0.032
Mof_H 	H 	0.1353	0.1001	0.368	-0.032
Mof_C 	C 	0.86982	0.61715	0.03564	0.152
Mof_C 	C 	0.57475	0.57458	0.8725	0.071
Mof_C 	C 	0.93312	0.77985	0.14888	0.157
Mof_C 	C 	0.66582	0.41849	0.03564	0.15
Mof_C 	C 	0.79775	0.29792	0.8725	0.07
Mof_C 	C 	0.71576	0.36903	0.14888	0.155
Mof_C 	C 	0.83418	0.88285	0.96436	0.149
Mof_C 	C 	0.70225	0.92542	0.1275	0.082
Mof_C 	C 	0.78424	0.72015	0.85112	0.155
Mof_C 	C 	0.63018	0.08151	0.96436	0.157
Mof_C 	C 	0.92525	0.20208	0.1275	0.053
Mof_C 	C 	0.56688	0.13097	0.85112	0.156
Mof_C 	C 	0.38285	0.33418	0.46436	0.153
Mof_C 	C 	0.42542	0.20225	0.6275	0.068
Mof_C 	C 	0.22015	0.28424	0.35112	0.156
Mof_C 	C 	0.58151	0.13018	0.46436	0.153
Mof_C 	C 	0.70208	0.42525	0.6275	0.07
Mof_C 	C 	0.63097	0.06688	0.35112	0.155
Mof_C 	C 	0.91849	0.16582	0.53564	0.152
Mof_C 	C 	0.79792	0.29775	0.3725	0.07
Mof_C 	C 	0.86903	0.21576	0.64888	0.155
Mof_C 	C 	0.11715	0.36982	0.53564	0.153
Mof_C 	C 	0.07458	0.07475	0.3725	0.1
Mof_C 	C 	0.27985	0.43312	0.64888	0.156
Mof_N 	N 	0.82363	0.55706	0.96254	-0.284
Mof_N 	N 	0.94472	0.86983	0.17922	-0.283
Mof_N 	N 	0.92746	0.67796	0.12152	-0.191
Mof_N 	N 	0.63891	0.40548	0.96254	-0.284
Mof_N 	N 	0.7345	0.30939	0.17922	-0.286
Mof_N 	N 	0.69406	0.44356	0.12152	-0.19
Mof_N 	N 	0.86109	0.94294	0.03746	-0.28
Mof_N 	N 	0.7655	0.63017	0.82078	-0.286
Mof_N 	N 	0.80594	0.82204	0.87848	-0.19
Mof_N 	N 	0.67637	0.09452	0.03746	-0.289
Mof_N 	N 	0.55528	0.19061	0.82078	-0.286
Mof_N 	N 	0.57254	0.05644	0.87848	-0.191
Mof_N 	N 	0.44294	0.36109	0.53746	-0.284
Mof_N 	N 	0.13017	0.2655	0.32078	-0.285
Mof_N 	N 	0.32204	0.30594	0.37848	-0.191
Mof_N 	N 	0.59452	0.17637	0.53746	-0.284
Mof_N 	N 	0.69061	0.05528	0.32078	-0.286
Mof_N 	N 	0.55644	0.07254	0.37848	-0.191
Mof_N 	N 	0.90548	0.13891	0.46254	-0.285
Mof_N 	N 	0.80939	0.2345	0.67922	-0.286
Mof_N 	N 	0.94356	0.19406	0.62152	-0.191
Mof_N 	N 	0.05706	0.32363	0.46254	-0.283
Mof_N 	N 	0.36983	0.44472	0.67922	-0.286
Mof_N 	N 	0.17796	0.42746	0.62152	-0.191
Mof_O 	O 	0.59653	0.4816	0.81476	-0.609
Mof_O 	O 	0.71823	0.33316	0.81476	-0.609
Mof_O 	O 	0.78177	0.0184	0.18524	-0.614
Mof_O 	O 	0.90347	0.16684	0.18524	-0.607
Mof_O 	O 	0.5184	0.28177	0.68524	-0.608
Mof_O 	O 	0.66684	0.40347	0.68524	-0.608
Mof_O 	O 	0.83316	0.21823	0.31476	-0.608
Mof_O 	O 	0.9816	0.09653	0.31476	-0.617
Mof_Ni	Ni	0.48278	0.5756	0.32342	1.052
Mof_Ni	Ni	0.34064	0.74782	0.32342	1.052
Mof_Ni	Ni	0.15936	0.9244	0.67658	1.052
Mof_Ni	Ni	0.01722	0.75218	0.67658	1.052
Mof_Ni	Ni	0.25218	0.51722	0.17658	1.052
Mof_Ni	Ni	0.4244	0.65936	0.17658	1.052
Mof_Ni	Ni	0.0756	0.98278	0.82342	1.05
Mof_Ni	Ni	0.24782	0.84064	0.82342	1.052
Mof_H 	H 	0.5833	0.8241	0.434	-0.015
Mof_H 	H 	0.568	0.855	0.3546	-0.019
Mof_H 	H 	0.6353	0.7679	0.368	-0.023
Mof_H 	H 	0.3507	0.6099	0.434	-0.016
Mof_H 	H 	0.2866	0.4996	0.3546	-0.02
Mof_H 	H 	0.2327	0.6001	0.368	-0.024
Mof_H 	H 	0.1493	0.6759	0.566	-0.016
Mof_H 	H 	0.2134	0.645	0.6454	-0.02
Mof_H 	H 	0.2673	0.7321	0.632	-0.024
Mof_H 	H 	0.9167	0.8901	0.566	-0.023
Mof_H 	H 	0.932	0.0004	0.6454	-0.032
Mof_H 	H 	0.8647	0.8999	0.632	-0.032
Mof_H 	H 	0.3901	0.4167	0.066	-0.017
Mof_H 	H 	0.5004	0.432	0.1454	-0.021
Mof_H 	H 	0.3999	0.3647	0.132	-0.025
Mof_H 	H 	0.1759	0.6493	0.066	-0.016
Mof_H 	H 	0.145	0.7134	0.1454	-0.021
Mof_H 	H 	0.2321	0.7673	0.132	-0.024
Mof_H 	H 	0.3241	0.0833	0.934	-0.018
Mof_H 	H 	0.355	0.068	0.8546	-0.023
Mof_H 	H 	0.2679	0.1353	0.868	-0.027
Mof_H 	H 	0.1099	0.8507	0.934	-0.014
Mof_H 	H 	0.9996	0.7866	0.8546	-0.012
Mof_H 	H 	0.1001	0.7327	0.868	-0.02
Mof_C 	C 	0.61715	0.66582	0.53564	0.153
Mof_C 	C 	0.57458	0.79775	0.3725	0.068
Mof_C 	C 	0.77985	0.71576	0.64888	0.156
Mof_C 	C 	0.41849	0.86982	0.53564	0.153
Mof_C 	C 	0.29792	0.57475	0.3725	0.07
Mof_C 	C 	0.36903	0.93312	0.64888	0.155
Mof_C 	C 	0.08151	0.83418	0.46436	0.152
Mof_C 	C 	0.20208	0.70225	0.6275	0.07
Mof_C 	C 	0.13097	0.78424	0.35112	0.155
Mof_C 	C 	0.88285	0.63018	0.46436	0.153
Mof_C 	C 	0.92542	0.92525	0.6275	0.1
Mof_C 	C 	0.72015	0.56688	0.35112	0.156
Mof_C 	C 	0.13018	0.38285	0.96436	0.152
Mof_C 	C 	0.42525	0.42542	0.1275	0.071
Mof_C 	C 	0.06688	0.22015	0.85112	0.157
Mof_C 	C 	0.33418	0.58151	0.96436	0.15
Mof_C 	C 	0.20225	0.70208	0.1275	0.07
Mof_C 	C 	0.28424	0.63097	0.85112	0.155
Mof_C 	C 	0.16582	0.11715	0.03564	0.149
Mof_C 	C 	0.29775	0.07458	0.8725	0.082
Mof_C 	C 	0.21576	0.27985	0.14888	0.155
Mof_C 	C 	0.36982	0.91849	0.03564	0.157
Mof_C 	C 	0.07475	0.79792	0.8725	0.053
Mof_C 	C 	0.43312	0.86903	0.14888	0.156
Mof_N 	N 	0.55706	0.63891	0.46254	-0.284
Mof_N 	N 	0.86983	0.7345	0.67922	-0.285
Mof_N 	N 	0.67796	0.69406	0.62152	-0.191
Mof_N 	N 	0.40548	0.82363	0.46254	-0.284
Mof_N 	N 	0.30939	0.94472	0.67922	-0.286
Mof_N 	N 	0.44356	0.92746	0.62152	-0.191
Mof_N 	N 	0.09452	0.86109	0.53746	-0.285
Mof_N 	N 	0.19061	0.7655	0.32078	-0.286
Mof_N 	N 	0.05644	0.80594	0.37848	-0.191
Mof_N 	N 	0.94294	0.67637	0.53746	-0.283
Mof_N 	N 	0.63017	0.55528	0.32078	-0.286
Mof_N 	N 	0.82204	0.57254	0.37848	-0.191
Mof_N 	N 	0.17637	0.44294	0.03746	-0.284
Mof_N 	N 	0.05528	0.13017	0.82078	-0.283
Mof_N 	N 	0.07254	0.32204	0.87848	-0.191
Mof_N 	N 	0.36109	0.59452	0.03746	-0.284
Mof_N 	N 	0.2655	0.69061	0.82078	-0.286
Mof_N 	N 	0.30594	0.55644	0.87848	-0.19
Mof_N 	N 	0.13891	0.05706	0.96254	-0.28
Mof_N 	N 	0.2345	0.36983	0.17922	-0.286
Mof_N 	N 	0.19406	0.17796	0.12152	-0.19
Mof_N 	N 	0.32363	0.90548	0.96254	-0.289
Mof_N 	N 	0.44472	0.80939	0.17922	-0.286
Mof_N 	N 	0.42746	0.94356	0.12152	-0.191
Mof_O 	O 	0.4816	0.71823	0.31476	-0.608
Mof_O 	O 	0.33316	0.59653	0.31476	-0.608
Mof_O 	O 	0.16684	0.78177	0.68524	-0.608
Mof_O 	O 	0.0184	0.90347	0.68524	-0.617
Mof_O 	O 	0.40347	0.5184	0.18524	-0.609
Mof_O 	O 	0.28177	0.66684	0.18524	-0.609
Mof_O 	O 	0.21823	0.9816	0.81476	-0.614
Mof_O 	O 	0.09653	0.83316	0.81476	-0.607
_end
