# CIF file generated by openbabel 3.1.0, see https://openbabel.org
data_I
_chemical_name_common 'LUFNAC02_clean'
_cell_length_a 11.876
_cell_length_b 11.876
_cell_length_c 16.341
_cell_angle_alpha 73.3607
_cell_angle_beta 73.3607
_cell_angle_gamma 78.3813
_space_group_name_H-M_alt 'P 1'
_space_group_name_Hall 'P 1'
loop_
    _symmetry_equiv_pos_as_xyz
    x,y,z
loop_
    _atom_site_label
    _atom_site_type_symbol
    _atom_site_fract_x
    _atom_site_fract_y
    _atom_site_fract_z
    _atom_site_occupancy
    Mn1      Mn       0.83244    0.61596    0.54676    1.000
    Mn2      Mn       0.38404    0.16756    0.95324    1.000
    Mn3      Mn       0.16756    0.38404    0.45324    1.000
    Mn4      Mn       0.61596    0.83244    0.04676    1.000
    H1       H        0.45300    0.16700    0.53700    1.000
    H2       H        0.66280    0.81340    0.77340    1.000
    H3       H        0.57330    0.98210    0.54700    1.000
    H4       H        0.48670    0.14370    0.74470    1.000
    H5       H        0.37800    0.26700    0.67260    1.000
    H6       H        0.36120    0.32840    0.57760    1.000
    H7       H        0.63350    0.29350    0.50180    1.000
    H8       H        0.42300    0.45960    0.68040    1.000
    H9       H        0.56350    0.57830    0.65180    1.000
    H10      H        0.77520    0.41280    0.48410    1.000
    H11      H        0.83300    0.54700    0.96300    1.000
    H12      H        0.18660    0.33720    0.72660    1.000
    H13      H        0.01790    0.42670    0.95300    1.000
    H14      H        0.85630    0.51330    0.75530    1.000
    H15      H        0.73300    0.62200    0.82740    1.000
    H16      H        0.67160    0.63880    0.92240    1.000
    H17      H        0.70650    0.36650    0.99820    1.000
    H18      H        0.54040    0.57700    0.81960    1.000
    H19      H        0.42170    0.43650    0.84820    1.000
    H20      H        0.58720    0.22480    0.01590    1.000
    H21      H        0.54700    0.83300    0.46300    1.000
    H22      H        0.33720    0.18660    0.22660    1.000
    H23      H        0.42670    0.01790    0.45300    1.000
    H24      H        0.51330    0.85630    0.25530    1.000
    H25      H        0.62200    0.73300    0.32740    1.000
    H26      H        0.63880    0.67160    0.42240    1.000
    H27      H        0.36650    0.70650    0.49820    1.000
    H28      H        0.57700    0.54040    0.31960    1.000
    H29      H        0.43650    0.42170    0.34820    1.000
    H30      H        0.22480    0.58720    0.51590    1.000
    H31      H        0.16700    0.45300    0.03700    1.000
    H32      H        0.81340    0.66280    0.27340    1.000
    H33      H        0.98210    0.57330    0.04700    1.000
    H34      H        0.14370    0.48670    0.24470    1.000
    H35      H        0.26700    0.37800    0.17260    1.000
    H36      H        0.32840    0.36120    0.07760    1.000
    H37      H        0.29350    0.63350    0.00180    1.000
    H38      H        0.45960    0.42300    0.18040    1.000
    H39      H        0.57830    0.56350    0.15180    1.000
    H40      H        0.41280    0.77520    0.98410    1.000
    C1       C        0.51760    0.07920    0.63740    1.000
    C2       C        0.57290    0.97670    0.77450    1.000
    C3       C        0.62550    0.88150    0.65460    1.000
    C4       C        0.62630    0.87970    0.73960    1.000
    C5       C        0.69000    0.77820    0.61640    1.000
    C6       C        0.57240    0.98100    0.60440    1.000
    C7       C        0.52020    0.07740    0.72230    1.000
    C8       C        0.51350    0.35970    0.59580    1.000
    C9       C        0.57270    0.97570    0.86640    1.000
    C10      C        0.41870    0.28390    0.61060    1.000
    C11      C        0.61810    0.34870    0.53540    1.000
    C12      C        0.49440    0.44780    0.63970    1.000
    C13      C        0.58040    0.51740    0.62300    1.000
    C14      C        0.70310    0.42250    0.52470    1.000
    C15      C        0.92080    0.48240    0.86260    1.000
    C16      C        0.02330    0.42710    0.72550    1.000
    C17      C        0.11850    0.37450    0.84540    1.000
    C18      C        0.12030    0.37370    0.76040    1.000
    C19      C        0.22180    0.31000    0.88360    1.000
    C20      C        0.01900    0.42760    0.89560    1.000
    C21      C        0.92260    0.47980    0.77770    1.000
    C22      C        0.64030    0.48650    0.90420    1.000
    C23      C        0.02430    0.42730    0.63360    1.000
    C24      C        0.71610    0.58130    0.88940    1.000
    C25      C        0.65130    0.38190    0.96460    1.000
    C26      C        0.55220    0.50560    0.86030    1.000
    C27      C        0.48260    0.41960    0.87700    1.000
    C28      C        0.57750    0.29690    0.97530    1.000
    C29      C        0.48240    0.92080    0.36260    1.000
    C30      C        0.42710    0.02330    0.22550    1.000
    C31      C        0.37450    0.11850    0.34540    1.000
    C32      C        0.37370    0.12030    0.26040    1.000
    C33      C        0.31000    0.22180    0.38360    1.000
    C34      C        0.42760    0.01900    0.39560    1.000
    C35      C        0.47980    0.92260    0.27770    1.000
    C36      C        0.48650    0.64030    0.40420    1.000
    C37      C        0.42730    0.02430    0.13360    1.000
    C38      C        0.58130    0.71610    0.38940    1.000
    C39      C        0.38190    0.65130    0.46460    1.000
    C40      C        0.50560    0.55220    0.36030    1.000
    C41      C        0.41960    0.48260    0.37700    1.000
    C42      C        0.29690    0.57750    0.47530    1.000
    C43      C        0.07920    0.51760    0.13740    1.000
    C44      C        0.97670    0.57290    0.27450    1.000
    C45      C        0.88150    0.62550    0.15460    1.000
    C46      C        0.87970    0.62630    0.23960    1.000
    C47      C        0.77820    0.69000    0.11640    1.000
    C48      C        0.98100    0.57240    0.10440    1.000
    C49      C        0.07740    0.52020    0.22230    1.000
    C50      C        0.35970    0.51350    0.09580    1.000
    C51      C        0.97570    0.57270    0.36640    1.000
    C52      C        0.28390    0.41870    0.11060    1.000
    C53      C        0.34870    0.61810    0.03540    1.000
    C54      C        0.44780    0.49440    0.13970    1.000
    C55      C        0.51740    0.58040    0.12300    1.000
    C56      C        0.42250    0.70310    0.02470    1.000
    N1       N        0.46200    0.17400    0.58560    1.000
    N2       N        0.68720    0.50460    0.56830    1.000
    N3       N        0.82600    0.53800    0.91440    1.000
    N4       N        0.49540    0.31280    0.93170    1.000
    N5       N        0.53800    0.82600    0.41440    1.000
    N6       N        0.31280    0.49540    0.43170    1.000
    N7       N        0.17400    0.46200    0.08560    1.000
    N8       N        0.50460    0.68720    0.06830    1.000
    O1       O        0.73690    0.68930    0.66420    1.000
    O2       O        0.69620    0.78520    0.53650    1.000
    O3       O        0.53630    0.07010    0.89170    1.000
    O4       O        0.61460    0.87980    0.91190    1.000
    O5       O        0.31070    0.26310    0.83580    1.000
    O6       O        0.21480    0.30380    0.96350    1.000
    O7       O        0.92990    0.46370    0.60830    1.000
    O8       O        0.12020    0.38540    0.58810    1.000
    O9       O        0.26310    0.31070    0.33580    1.000
    O10      O        0.30380    0.21480    0.46350    1.000
    O11      O        0.46370    0.92990    0.10830    1.000
    O12      O        0.38540    0.12020    0.08810    1.000
    O13      O        0.68930    0.73690    0.16420    1.000
    O14      O        0.78520    0.69620    0.03650    1.000
    O15      O        0.07010    0.53630    0.39170    1.000
    O16      O        0.87980    0.61460    0.41190    1.000
