# CIF file generated by openbabel 3.1.0, see https://openbabel.org
data_I
_chemical_name_common 'image0'
_cell_length_a 15.637
_cell_length_b 15.691
_cell_length_c 16.291
_cell_angle_alpha 90.097
_cell_angle_beta 90.067
_cell_angle_gamma 90.015
_space_group_name_H-M_alt 'P 1'
_space_group_name_Hall 'P 1'
loop_
    _symmetry_equiv_pos_as_xyz
    x,y,z
loop_
    _atom_site_label
    _atom_site_type_symbol
    _atom_site_fract_x
    _atom_site_fract_y
    _atom_site_fract_z
    _atom_site_occupancy
    Zn1      Zn       0.12529    0.00007    0.46407    1.000
    Zn2      Zn       0.37470    0.99988    0.96416    1.000
    O1       O        0.37360    0.99890    0.08886    1.000
    O2       O        0.12640    0.00040    0.58781    1.000
    O3       O        0.24000    0.99930    0.95880    1.000
    O4       O        0.26040    0.99960    0.45930    1.000
    O5       O        0.19750    0.00080    0.33946    1.000
    O6       O        0.30254    0.00050    0.83900    1.000
    C1       C        0.06710    0.99970    0.72000    1.000
    C2       C        0.43410    0.99850    0.21980    1.000
    O7       O        0.98710    0.99950    0.59675    1.000
    O8       O        0.51210    0.00070    0.09745    1.000
    C3       C        0.35500    0.00030    0.25690    1.000
    H1       H        0.30550    0.00190    0.22520    1.000
    C4       C        0.44170    0.00120    0.12830    1.000
    C5       C        0.14510    0.99840    0.75860    1.000
    H2       H        0.19470    0.99580    0.72730    1.000
    C6       C        0.07750    0.99940    0.89000    1.000
    H3       H        0.08150    0.99780    0.94690    1.000
    C7       C        0.42190    0.00080    0.38950    1.000
    H4       H        0.41820    0.00170    0.44650    1.000
    O9       O        0.92870    0.00420    0.90230    1.000
    C8       C        0.05910    0.99910    0.62840    1.000
    O10      O        0.57090    0.00020    0.40270    1.000
    C9       C        0.26280    0.00000    0.38400    1.000
    C10      C        0.23680    0.99910    0.88440    1.000
    C11      C        0.99040    0.00080    0.76650    1.000
    H5       H        0.93720    0.00170    0.74090    1.000
    C12      C        0.15120    0.00070    0.84170    1.000
    C13      C        0.34970    0.99980    0.34290    1.000
    C14      C        0.50910    0.99900    0.26510    1.000
    H6       H        0.56220    0.99840    0.23940    1.000
    C15      C        0.50260    0.00030    0.35070    1.000
    C16      C        0.99760    0.00060    0.85150    1.000
    N1       N        0.38080    0.13180    0.96140    1.000
    N2       N        0.11910    0.87050    0.46080    1.000
    N3       N        0.37920    0.86630    0.96060    1.000
    N4       N        0.11990    0.13120    0.46190    1.000
    C17      C        0.11770    0.68210    0.45970    1.000
    C18      C        0.38350    0.68440    0.95980    1.000
    C19      C        0.11720    0.58980    0.45940    1.000
    C20      C        0.38210    0.59370    0.95970    1.000
    C21      C        0.35250    0.81280    0.02480    1.000
    H7       H        0.33260    0.83970    0.07200    1.000
    C22      C        0.35230    0.18380    0.02510    1.000
    H8       H        0.33170    0.15640    0.07170    1.000
    C23      C        0.35270    0.72750    0.02570    1.000
    H9       H        0.33190    0.69810    0.07100    1.000
    C24      C        0.14990    0.81260    0.52290    1.000
    H10      H        0.17590    0.83780    0.56810    1.000
    C25      C        0.14600    0.72720    0.52390    1.000
    H11      H        0.16360    0.69840    0.57090    1.000
    C26      C        0.14830    0.18290    0.52360    1.000
    H12      H        0.16990    0.15590    0.57000    1.000
    C27      C        0.14830    0.27110    0.52490    1.000
    H13      H        0.16950    0.30000    0.57050    1.000
    C28      C        0.08600    0.17960    0.39930    1.000
    H14      H        0.06190    0.15050    0.35520    1.000
    C29      C        0.41450    0.81890    0.89780    1.000
    H15      H        0.43910    0.84760    0.85380    1.000
    C30      C        0.08760    0.73810    0.39590    1.000
    H16      H        0.06410    0.71260    0.34950    1.000
    C31      C        0.09020    0.82720    0.39690    1.000
    H17      H        0.07100    0.85690    0.35120    1.000
    C32      C        0.41530    0.73100    0.89690    1.000
    H18      H        0.43820    0.70290    0.85170    1.000
    C33      C        0.41160    0.18430    0.89840    1.000
    H19      H        0.42820    0.15630    0.85070    1.000
    C34      C        0.11780    0.31540    0.46040    1.000
    C35      C        0.38280    0.31860    0.95930    1.000
    C36      C        0.38240    0.40990    0.95870    1.000
    C37      C        0.11840    0.40840    0.45940    1.000
    C38      C        0.35130    0.26900    0.02630    1.000
    H20      H        0.32950    0.29680    0.07220    1.000
    C39      C        0.42000    0.26630    0.89740    1.000
    H21      H        0.45110    0.29160    0.85530    1.000
    C40      C        0.08460    0.26750    0.39630    1.000
    H22      H        0.06120    0.29480    0.35090    1.000
    C41      C        0.36970    0.45500    0.02620    1.000
    H23      H        0.36220    0.42570    0.07520    1.000
    C42      C        0.40140    0.46360    0.89250    1.000
    H24      H        0.40810    0.43850    0.84120    1.000
    C43      C        0.09810    0.54100    0.39340    1.000
    H25      H        0.08170    0.56870    0.34550    1.000
    C44      C        0.10100    0.45620    0.39170    1.000
    H26      H        0.09070    0.42850    0.34220    1.000
    C45      C        0.41030    0.54600    0.89750    1.000
    H27      H        0.43820    0.57360    0.85470    1.000
    C46      C        0.13120    0.45780    0.52580    1.000
    H28      H        0.13750    0.43090    0.57620    1.000
    C47      C        0.36670    0.54310    0.02860    1.000
    H29      H        0.35400    0.56980    0.07810    1.000
    C48      C        0.13540    0.53820    0.52450    1.000
    C49      C        0.65090    0.05940    0.37050    1.000
    H30      H        0.69670    0.04810    0.40930    1.000
    H31      H        0.66860    0.03280    0.31950    1.000
    C50      C        0.73060    0.18420    0.30880    1.000
    H32      H        0.76950    0.14250    0.29290    1.000
    C51      C        0.65780    0.16150    0.35260    1.000
    C52      C        0.59960    0.22370    0.37640    1.000
    H33      H        0.55090    0.20860    0.40570    1.000
    C53      C        0.61420    0.30860    0.35660    1.000
    H34      H        0.57530    0.35020    0.37250    1.000
    C54      C        0.68700    0.33130    0.31280    1.000
    H35      H        0.69680    0.38800    0.29950    1.000
    C55      C        0.74520    0.26900    0.28900    1.000
    H36      H        0.79390    0.28420    0.25970    1.000
    Zn3      Zn       0.87471    0.99993    0.53593    1.000
    Zn4      Zn       0.62530    0.00012    0.03584    1.000
    O11      O        0.62640    0.00110    0.91114    1.000
    O12      O        0.87360    0.99960    0.41219    1.000
    O13      O        0.76000    0.00070    0.04120    1.000
    O14      O        0.73960    0.00040    0.54070    1.000
    O15      O        0.80250    0.99920    0.66054    1.000
    O16      O        0.69746    0.99950    0.16100    1.000
    C56      C        0.93290    0.00030    0.28000    1.000
    C57      C        0.56590    0.00150    0.78020    1.000
    O17      O        0.01290    0.00050    0.40325    1.000
    O18      O        0.48790    0.99930    0.90255    1.000
    C58      C        0.64500    0.99970    0.74310    1.000
    H37      H        0.69450    0.99810    0.77480    1.000
    C59      C        0.55830    0.99880    0.87170    1.000
    C60      C        0.85490    0.00160    0.24140    1.000
    H38      H        0.80530    0.00420    0.27270    1.000
    C61      C        0.92250    0.00060    0.11000    1.000
    H39      H        0.91850    0.00220    0.05310    1.000
    C62      C        0.57810    0.99920    0.61050    1.000
    H40      H        0.58180    0.99830    0.55350    1.000
    O19      O        0.07130    0.99580    0.09770    1.000
    C63      C        0.94090    0.00090    0.37160    1.000
    O20      O        0.42910    0.99980    0.59730    1.000
    C64      C        0.73720    0.00000    0.61600    1.000
    C65      C        0.76320    0.00090    0.11560    1.000
    C66      C        0.00960    0.99920    0.23350    1.000
    H41      H        0.06280    0.99830    0.25910    1.000
    C67      C        0.84880    0.99930    0.15830    1.000
    C68      C        0.65030    0.00020    0.65710    1.000
    C69      C        0.49090    0.00100    0.73490    1.000
    H42      H        0.43780    0.00160    0.76060    1.000
    C70      C        0.49740    0.99970    0.64930    1.000
    C71      C        0.00240    0.99940    0.14850    1.000
    N5       N        0.61920    0.86820    0.03860    1.000
    N6       N        0.88090    0.12950    0.53920    1.000
    N7       N        0.62080    0.13370    0.03940    1.000
    N8       N        0.88010    0.86880    0.53810    1.000
    C72      C        0.88230    0.31790    0.54030    1.000
    C73      C        0.61650    0.31560    0.04020    1.000
    C74      C        0.88280    0.41020    0.54060    1.000
    C75      C        0.61790    0.40630    0.04030    1.000
    C76      C        0.64750    0.18720    0.97520    1.000
    H43      H        0.66740    0.16030    0.92800    1.000
    C77      C        0.64770    0.81620    0.97490    1.000
    H44      H        0.66830    0.84360    0.92830    1.000
    C78      C        0.64730    0.27250    0.97430    1.000
    H45      H        0.66810    0.30190    0.92900    1.000
    C79      C        0.85010    0.18740    0.47710    1.000
    H46      H        0.82410    0.16220    0.43190    1.000
    C80      C        0.85400    0.27280    0.47610    1.000
    H47      H        0.83640    0.30160    0.42910    1.000
    C81      C        0.85170    0.81710    0.47640    1.000
    H48      H        0.83010    0.84410    0.43000    1.000
    C82      C        0.85170    0.72890    0.47510    1.000
    H49      H        0.83050    0.70000    0.42950    1.000
    C83      C        0.91400    0.82040    0.60070    1.000
    H50      H        0.93810    0.84950    0.64480    1.000
    C84      C        0.58550    0.18110    0.10220    1.000
    H51      H        0.56090    0.15240    0.14620    1.000
    C85      C        0.91240    0.26190    0.60410    1.000
    H52      H        0.93590    0.28740    0.65050    1.000
    C86      C        0.90980    0.17280    0.60310    1.000
    H53      H        0.92900    0.14310    0.64880    1.000
    C87      C        0.58470    0.26900    0.10310    1.000
    H54      H        0.56180    0.29710    0.14830    1.000
    C88      C        0.58840    0.81570    0.10160    1.000
    H55      H        0.57180    0.84370    0.14930    1.000
    C89      C        0.88220    0.68460    0.53960    1.000
    C90      C        0.61720    0.68140    0.04070    1.000
    C91      C        0.61760    0.59010    0.04130    1.000
    C92      C        0.88160    0.59160    0.54060    1.000
    C93      C        0.64870    0.73100    0.97370    1.000
    H56      H        0.67050    0.70320    0.92780    1.000
    C94      C        0.58000    0.73370    0.10260    1.000
    H57      H        0.54890    0.70840    0.14470    1.000
    C95      C        0.91540    0.73250    0.60370    1.000
    H58      H        0.93880    0.70520    0.64910    1.000
    C96      C        0.63030    0.54500    0.97380    1.000
    H59      H        0.63780    0.57430    0.92480    1.000
    C97      C        0.59860    0.53640    0.10750    1.000
    H60      H        0.59190    0.56150    0.15880    1.000
    C98      C        0.90190    0.45900    0.60660    1.000
    H61      H        0.91830    0.43130    0.65450    1.000
    C99      C        0.89900    0.54380    0.60830    1.000
    H62      H        0.90930    0.57150    0.65780    1.000
    C100     C        0.58970    0.45400    0.10250    1.000
    H63      H        0.56180    0.42640    0.14530    1.000
    C101     C        0.86880    0.54220    0.47420    1.000
    H64      H        0.86250    0.56910    0.42380    1.000
    C102     C        0.63330    0.45690    0.97140    1.000
    H65      H        0.64600    0.43020    0.92190    1.000
    C103     C        0.86460    0.46180    0.47550    1.000
    C104     C        0.34910    0.94060    0.62950    1.000
    H66      H        0.30330    0.95190    0.59070    1.000
    H67      H        0.33140    0.96720    0.68050    1.000
    C105     C        0.26940    0.81580    0.69120    1.000
    H68      H        0.23050    0.85750    0.70710    1.000
    C106     C        0.34220    0.83850    0.64740    1.000
    C107     C        0.40040    0.77630    0.62360    1.000
    H69      H        0.44910    0.79140    0.59430    1.000
    C108     C        0.38580    0.69140    0.64340    1.000
    H70      H        0.42470    0.64980    0.62750    1.000
    C109     C        0.31300    0.66870    0.68720    1.000
    H71      H        0.30320    0.61200    0.70050    1.000
    C110     C        0.25480    0.73100    0.71100    1.000
    H72      H        0.20610    0.71580    0.74030    1.000
