data_functionalizedCrystal
_audit_creation_method	'EQeq! by Chris Wilmer'
_symmetry_space_group_name_H-M	'P1'
_symmetry_Int_Tables_number	1
_symmetry_cell_setting	triclinic
loop_
_symmetry_equiv_pos_as_xyz
  x,y,z
_cell_length_a	8.92
_cell_length_b	9.1767
_cell_length_c	9.1767
_cell_angle_alpha	76.3371
_cell_angle_beta	60.9211
_cell_angle_gamma	60.9212
loop_
_atom_site_label
_atom_site_type_symbol
_atom_site_fract_x
_atom_site_fract_y
_atom_site_fract_z
_atom_site_charge
Mof_K 	K 	0.5	0	-0	-0.108
Mof_K 	K 	0.25	0.5	0.5	2.646
Mof_Ca	Ca	0.75	0.5	0.5	1.584
Mof_Zr	Zr	-0	0	-0	3.076
Mof_C 	C 	0.8024	0.2182	0.778	0.183
Mof_C 	C 	0.9576	0.2714	0.7382	0.562
Mof_C 	C 	0.7986	0.7818	0.222	0.18
Mof_C 	C 	0.9672	0.7286	0.2618	0.564
Mof_C 	C 	0.4196	0.778	0.7818	0.201
Mof_C 	C 	0.3042	0.7382	0.7286	0.36
Mof_C 	C 	0.9794	0.222	0.2182	0.837
Mof_C 	C 	0.771	0.2618	0.2714	0.125
Mof_O 	O 	0.7964	0.1044	0.886	-0.495
Mof_O 	O 	0.0581	0.1892	0.8182	-0.911
Mof_O 	O 	0.7005	0.2883	0.7037	-0.398
Mof_O 	O 	0.9712	0.3845	0.6373	-0.628
Mof_O 	O 	0.7868	0.8956	0.114	-0.48
Mof_O 	O 	0.0655	0.8108	0.1818	-0.924
Mof_O 	O 	0.6925	0.7117	0.2963	-0.393
Mof_O 	O 	0.993	0.6155	0.3627	-0.633
Mof_O 	O 	0.3176	0.886	0.8956	-0.216
Mof_O 	O 	0.1237	0.8182	0.8108	-0.582
Mof_O 	O 	0.5958	0.7037	0.7117	-0.3
Mof_O 	O 	0.3915	0.6373	0.6155	-0.654
Mof_O 	O 	0.0992	0.114	0.1044	-1.211
Mof_O 	O 	0.7527	0.1818	0.1892	-0.832
Mof_O 	O 	0.0112	0.2963	0.2883	-0.917
Mof_O 	O 	0.6443	0.3627	0.3845	-0.636
_end
