data_functionalizedCrystal
_audit_creation_method	'EQeq! by Chris Wilmer'
_symmetry_space_group_name_H-M	'P1'
_symmetry_Int_Tables_number	1
_symmetry_cell_setting	triclinic
loop_
_symmetry_equiv_pos_as_xyz
  x,y,z
_cell_length_a	8.887
_cell_length_b	32.456
_cell_length_c	10.6584
_cell_angle_alpha	90
_cell_angle_beta	112.051
_cell_angle_gamma	90
loop_
_atom_site_label
_atom_site_type_symbol
_atom_site_fract_x
_atom_site_fract_y
_atom_site_fract_z
_atom_site_charge
Mof_Sc	Sc	0.2699	0.61437	0.2554	1.985
Mof_Sc	Sc	0.7719	0.6374	0.2556	2
Mof_O 	O 	0.36	0.6433	0.128	-0.589
Mof_O 	O 	0.399	0.5641	0.239	-0.594
Mof_O 	O 	0.457	0.6392	0.423	-0.542
Mof_O 	O 	0.635	0.5844	0.238	-0.562
Mof_O 	O 	0.918	0.8111	0.788	-0.584
Mof_O 	O 	0.182	0.5844	0.381	-0.61
Mof_O 	O 	0.576	0.6676	0.104	-0.616
Mof_C 	C 	0.44	0.6688	0.081	0.604
Mof_C 	C 	0.511	0.5597	0.202	0.546
Mof_O 	O 	0.959	0.6078	0.404	-0.568
Mof_O 	O 	0.843	0.6132	0.114	-0.576
Mof_O 	O 	0.133	0.8348	0.756	-0.573
Mof_O 	O 	0.69	0.6574	0.4	-0.568
Mof_C 	C 	0.611	0.645	0.469	0.503
Mof_O 	O 	0.073	0.597	0.079	-0.524
Mof_C 	C 	0.936	0.6196	0.807	0.015
Mof_H 	H 	0.0469	0.6139	0.8425	0.034
Mof_C 	C 	0.86	0.6295	0.67	-0.011
Mof_H 	H 	0.9197	0.6304	0.615	0.049
Mof_C 	C 	0.695	0.6379	0.6167	-0.128
Mof_C 	C 	0.605	0.6365	0.699	-0.004
Mof_H 	H 	0.4947	0.6422	0.6636	0.045
Mof_C 	C 	0.682	0.6267	0.836	0.002
Mof_H 	H 	0.6219	0.6257	0.891	0.04
Mof_C 	C 	0.847	0.6182	0.8893	-0.132
Mof_C 	C 	0.927	0.6094	0.037	0.483
Mof_C 	C 	0.155	0.7695	0.851	-0.126
Mof_C 	C 	0.0752	0.7389	0.893	-0.048
Mof_H 	H 	0.9641	0.7409	0.8729	0.069
Mof_C 	C 	0.161	0.7053	0.966	0.048
Mof_H 	H 	0.1079	0.6849	0.9946	0.015
Mof_C 	C 	0.327	0.7023	0.997	-0.17
Mof_C 	C 	0.4074	0.7329	0.955	0.009
Mof_H 	H 	0.5185	0.7308	0.9753	0.043
Mof_C 	C 	0.321	0.7664	0.882	0.003
Mof_H 	H 	0.3747	0.7869	0.8536	0.038
Mof_C 	C 	0.051	0.8063	0.79	0.54
Mof_C 	C 	0.505	0.5289	0.096	-0.144
Mof_C 	C 	0.03	0.5386	0.457	-0.145
Mof_C 	C 	0.144	0.5068	0.477	-0.001
Mof_H 	H 	0.2409	0.512	0.4655	0.044
Mof_C 	C 	0.07	0.5805	0.417	0.56
Mof_C 	C 	0.114	0.4675	0.516	0.01
Mof_H 	H 	0.1853	0.4459	0.5229	0.035
Mof_C 	C 	0.628	0.5263	0.046	0.012
Mof_H 	H 	0.7174	0.5435	0.0839	0.04
Mof_C 	C 	0.626	0.4998	0.942	-0.006
Mof_H 	H 	0.7031	0.5006	0.9023	0.047
Mof_Sc	Sc	0.7301	0.11437	0.2446	1.985
Mof_Sc	Sc	0.2281	0.1374	0.2444	2.001
Mof_O 	O 	0.64	0.1433	0.372	-0.588
Mof_O 	O 	0.601	0.0641	0.261	-0.593
Mof_O 	O 	0.543	0.1392	0.077	-0.542
Mof_O 	O 	0.365	0.0844	0.262	-0.562
Mof_O 	O 	0.082	0.3111	0.712	-0.588
Mof_O 	O 	0.818	0.0844	0.119	-0.61
Mof_O 	O 	0.424	0.1676	0.396	-0.615
Mof_C 	C 	0.56	0.1688	0.419	0.602
Mof_C 	C 	0.489	0.0597	0.298	0.546
Mof_O 	O 	0.041	0.1078	0.096	-0.565
Mof_O 	O 	0.157	0.1132	0.386	-0.576
Mof_O 	O 	0.867	0.3348	0.744	-0.573
Mof_O 	O 	0.31	0.1574	0.1	-0.568
Mof_C 	C 	0.389	0.145	0.031	0.505
Mof_O 	O 	0.927	0.097	0.421	-0.527
Mof_C 	C 	0.064	0.1196	0.693	0.009
Mof_H 	H 	0.9531	0.1139	0.6575	0.038
Mof_C 	C 	0.14	0.1295	0.83	-0.008
Mof_H 	H 	0.0803	0.1304	0.885	0.047
Mof_C 	C 	0.305	0.1379	0.8833	-0.131
Mof_C 	C 	0.395	0.1365	0.801	-0.002
Mof_H 	H 	0.5053	0.1422	0.8364	0.045
Mof_C 	C 	0.318	0.1267	0.664	0.001
Mof_H 	H 	0.3781	0.1257	0.609	0.039
Mof_C 	C 	0.153	0.1182	0.6107	-0.133
Mof_C 	C 	0.073	0.1094	0.463	0.488
Mof_C 	C 	0.845	0.2695	0.649	-0.131
Mof_C 	C 	0.9248	0.2389	0.607	-0.038
Mof_H 	H 	0.0359	0.2409	0.6271	0.064
Mof_C 	C 	0.839	0.2053	0.534	0.042
Mof_H 	H 	0.8921	0.1849	0.5054	0.018
Mof_C 	C 	0.673	0.2023	0.503	-0.166
Mof_C 	C 	0.5926	0.2329	0.545	0.005
Mof_H 	H 	0.4815	0.2308	0.5247	0.044
Mof_C 	C 	0.679	0.2664	0.618	0.007
Mof_H 	H 	0.6253	0.2869	0.6464	0.036
Mof_C 	C 	0.949	0.3063	0.71	0.545
Mof_C 	C 	0.495	0.0289	0.404	-0.144
Mof_C 	C 	0.97	0.0386	0.043	-0.147
Mof_C 	C 	0.856	0.0068	0.023	-0.005
Mof_H 	H 	0.7591	0.012	0.0345	0.046
Mof_C 	C 	0.93	0.0805	0.083	0.557
Mof_C 	C 	0.886	0.9675	0.984	0.016
Mof_H 	H 	0.8147	0.9459	0.9771	0.033
Mof_C 	C 	0.372	0.0263	0.454	0.013
Mof_H 	H 	0.2826	0.0435	0.4161	0.04
Mof_C 	C 	0.374	0.9998	0.558	-0.007
Mof_H 	H 	0.2969	0.0006	0.5977	0.047
Mof_Sc	Sc	0.7301	0.38563	0.7446	1.986
Mof_Sc	Sc	0.2281	0.3626	0.7444	2.001
Mof_O 	O 	0.64	0.3567	0.872	-0.588
Mof_O 	O 	0.601	0.4359	0.761	-0.593
Mof_O 	O 	0.543	0.3608	0.577	-0.542
Mof_O 	O 	0.365	0.4156	0.762	-0.562
Mof_O 	O 	0.082	0.1889	0.212	-0.584
Mof_O 	O 	0.818	0.4156	0.619	-0.61
Mof_O 	O 	0.424	0.3324	0.896	-0.616
Mof_C 	C 	0.56	0.3312	0.919	0.604
Mof_C 	C 	0.489	0.4403	0.798	0.546
Mof_O 	O 	0.041	0.3922	0.596	-0.568
Mof_O 	O 	0.157	0.3868	0.886	-0.576
Mof_O 	O 	0.867	0.1652	0.244	-0.573
Mof_O 	O 	0.31	0.3426	0.6	-0.568
Mof_C 	C 	0.389	0.355	0.531	0.503
Mof_O 	O 	0.927	0.403	0.921	-0.524
Mof_C 	C 	0.064	0.3804	0.193	0.015
Mof_H 	H 	0.9531	0.3861	0.1575	0.034
Mof_C 	C 	0.14	0.3705	0.33	-0.011
Mof_H 	H 	0.0803	0.3696	0.385	0.049
Mof_C 	C 	0.305	0.3621	0.3833	-0.128
Mof_C 	C 	0.395	0.3635	0.301	-0.004
Mof_H 	H 	0.5053	0.3578	0.3364	0.045
Mof_C 	C 	0.318	0.3733	0.164	0.002
Mof_H 	H 	0.3781	0.3743	0.109	0.04
Mof_C 	C 	0.153	0.3818	0.1107	-0.132
Mof_C 	C 	0.073	0.3906	0.963	0.483
Mof_C 	C 	0.845	0.2305	0.149	-0.126
Mof_C 	C 	0.9248	0.2611	0.107	-0.048
Mof_H 	H 	0.0359	0.2591	0.1271	0.069
Mof_C 	C 	0.839	0.2947	0.034	0.048
Mof_H 	H 	0.8921	0.3151	0.0054	0.015
Mof_C 	C 	0.673	0.2977	0.003	-0.17
Mof_C 	C 	0.5926	0.2671	0.045	0.009
Mof_H 	H 	0.4815	0.2692	0.0247	0.043
Mof_C 	C 	0.679	0.2336	0.118	0.003
Mof_H 	H 	0.6253	0.2131	0.1464	0.038
Mof_C 	C 	0.949	0.1937	0.21	0.54
Mof_C 	C 	0.495	0.4711	0.904	-0.144
Mof_C 	C 	0.97	0.4614	0.543	-0.145
Mof_C 	C 	0.856	0.4932	0.523	-0.001
Mof_H 	H 	0.7591	0.488	0.5345	0.044
Mof_C 	C 	0.93	0.4195	0.583	0.56
Mof_C 	C 	0.886	0.5325	0.484	0.01
Mof_H 	H 	0.8147	0.5541	0.4771	0.035
Mof_C 	C 	0.372	0.4737	0.954	0.012
Mof_H 	H 	0.2826	0.4565	0.9161	0.04
Mof_C 	C 	0.374	0.5002	0.058	-0.006
Mof_H 	H 	0.2969	0.4994	0.0977	0.047
Mof_Sc	Sc	0.2699	0.88563	0.7554	1.985
Mof_Sc	Sc	0.7719	0.8626	0.7556	2.001
Mof_O 	O 	0.36	0.8567	0.628	-0.588
Mof_O 	O 	0.399	0.9359	0.739	-0.593
Mof_O 	O 	0.457	0.8608	0.923	-0.542
Mof_O 	O 	0.635	0.9156	0.738	-0.562
Mof_O 	O 	0.918	0.6889	0.288	-0.588
Mof_O 	O 	0.182	0.9156	0.881	-0.61
Mof_O 	O 	0.576	0.8324	0.604	-0.615
Mof_C 	C 	0.44	0.8312	0.581	0.602
Mof_C 	C 	0.511	0.9403	0.702	0.546
Mof_O 	O 	0.959	0.8922	0.904	-0.565
Mof_O 	O 	0.843	0.8868	0.614	-0.576
Mof_O 	O 	0.133	0.6652	0.256	-0.573
Mof_O 	O 	0.69	0.8426	0.9	-0.568
Mof_C 	C 	0.611	0.855	0.969	0.505
Mof_O 	O 	0.073	0.903	0.579	-0.527
Mof_C 	C 	0.936	0.8804	0.307	0.009
Mof_H 	H 	0.0469	0.8861	0.3425	0.038
Mof_C 	C 	0.86	0.8705	0.17	-0.008
Mof_H 	H 	0.9197	0.8696	0.115	0.047
Mof_C 	C 	0.695	0.8621	0.1167	-0.131
Mof_C 	C 	0.605	0.8635	0.199	-0.002
Mof_H 	H 	0.4947	0.8578	0.1636	0.045
Mof_C 	C 	0.682	0.8733	0.336	0.001
Mof_H 	H 	0.6219	0.8743	0.391	0.039
Mof_C 	C 	0.847	0.8818	0.3893	-0.133
Mof_C 	C 	0.927	0.8906	0.537	0.488
Mof_C 	C 	0.155	0.7305	0.351	-0.131
Mof_C 	C 	0.0752	0.7611	0.393	-0.038
Mof_H 	H 	0.9641	0.7591	0.3729	0.064
Mof_C 	C 	0.161	0.7947	0.466	0.042
Mof_H 	H 	0.1079	0.8151	0.4946	0.018
Mof_C 	C 	0.327	0.7977	0.497	-0.166
Mof_C 	C 	0.4074	0.7671	0.455	0.005
Mof_H 	H 	0.5185	0.7692	0.4753	0.044
Mof_C 	C 	0.321	0.7336	0.382	0.007
Mof_H 	H 	0.3747	0.7131	0.3536	0.036
Mof_C 	C 	0.051	0.6937	0.29	0.545
Mof_C 	C 	0.505	0.9711	0.596	-0.144
Mof_C 	C 	0.03	0.9614	0.957	-0.147
Mof_C 	C 	0.144	0.9932	0.977	-0.005
Mof_H 	H 	0.2409	0.988	0.9655	0.046
Mof_C 	C 	0.07	0.9195	0.917	0.557
Mof_C 	C 	0.114	0.0325	0.016	0.016
Mof_H 	H 	0.1853	0.0541	0.0229	0.033
Mof_C 	C 	0.628	0.9737	0.546	0.013
Mof_H 	H 	0.7174	0.9565	0.5839	0.04
Mof_C 	C 	0.626	0.0002	0.442	-0.007
Mof_H 	H 	0.7031	0.9994	0.4023	0.047
_end
