data_functionalizedCrystal
_audit_creation_method	'EQeq! by Chris Wilmer'
_symmetry_space_group_name_H-M	'P1'
_symmetry_Int_Tables_number	1
_symmetry_cell_setting	triclinic
loop_
_symmetry_equiv_pos_as_xyz
  x,y,z
_cell_length_a	13.9411
_cell_length_b	17.0817
_cell_length_c	7.668
_cell_angle_alpha	90
_cell_angle_beta	91.974
_cell_angle_gamma	90
loop_
_atom_site_label
_atom_site_type_symbol
_atom_site_fract_x
_atom_site_fract_y
_atom_site_fract_z
_atom_site_charge
Mof_Cd	Cd	0.12674	0.52202	0.35893	0.503
Mof_O 	O 	0.0862	0.4716	0.6247	-0.261
Mof_O 	O 	0.9769	0.3817	0.6732	-0.251
Mof_O 	O 	0.0733	0.1024	0.7502	-0.24
Mof_O 	O 	0.2237	0.0706	0.7314	-0.267
Mof_O 	O 	0.7596	0.382	0.7113	-0.241
Mof_O 	O 	0.7262	0.4436	0.4667	-0.251
Mof_C 	C 	0.0639	0.4023	0.6511	0.301
Mof_C 	C 	0.1601	0.1208	0.7205	0.285
Mof_C 	C 	0.1388	0.3402	0.6542	-0.045
Mof_C 	C 	0.1139	0.2619	0.6805	-0.009
Mof_H 	H 	0.05	0.2484	0.6945	0.076
Mof_C 	C 	0.1846	0.2039	0.6858	-0.046
Mof_C 	C 	0.2795	0.2252	0.6627	-0.038
Mof_H 	H 	0.3266	0.1866	0.6636	0.06
Mof_C 	C 	0.3059	0.3032	0.6382	0.001
Mof_C 	C 	0.2338	0.3597	0.6342	-0.039
Mof_H 	H 	0.2502	0.4118	0.6177	0.074
Mof_C 	C 	0.7014	0.4004	0.5871	0.304
Mof_C 	C 	0.6011	0.3707	0.5932	-0.088
Mof_C 	C 	0.5295	0.4054	0.4913	0.034
Mof_H 	H 	0.5462	0.4446	0.4138	0.04
Mof_C 	C 	0.4336	0.3842	0.5	-0.119
Mof_H 	H 	0.3867	0.4085	0.4298	0.092
Mof_C 	C 	0.4093	0.3248	0.6181	0.065
Mof_C 	C 	0.4809	0.2873	0.7166	-0.113
Mof_H 	H 	0.4651	0.2461	0.7895	0.079
Mof_C 	C 	0.5755	0.3108	0.707	0.035
Mof_H 	H 	0.6225	0.2866	0.7769	0.046
Mof_Cd	Cd	0.87326	0.02202	0.14107	0.505
Mof_O 	O 	0.9138	0.9716	0.8753	-0.261
Mof_O 	O 	0.0231	0.8817	0.8268	-0.253
Mof_O 	O 	0.9267	0.6024	0.7498	-0.24
Mof_O 	O 	0.7763	0.5706	0.7686	-0.268
Mof_O 	O 	0.2404	0.882	0.7887	-0.238
Mof_O 	O 	0.2738	0.9436	0.0333	-0.242
Mof_C 	C 	0.9361	0.9023	0.8489	0.302
Mof_C 	C 	0.8399	0.6208	0.7795	0.285
Mof_C 	C 	0.8612	0.8402	0.8458	-0.045
Mof_C 	C 	0.8861	0.7619	0.8195	-0.009
Mof_H 	H 	0.95	0.7484	0.8055	0.076
Mof_C 	C 	0.8154	0.7039	0.8142	-0.046
Mof_C 	C 	0.7205	0.7252	0.8373	-0.039
Mof_H 	H 	0.6734	0.6866	0.8364	0.06
Mof_C 	C 	0.6941	0.8032	0.8618	0.003
Mof_C 	C 	0.7662	0.8597	0.8658	-0.04
Mof_H 	H 	0.7498	0.9118	0.8823	0.073
Mof_C 	C 	0.2986	0.9004	0.9129	0.295
Mof_C 	C 	0.3989	0.8707	0.9068	-0.094
Mof_C 	C 	0.4705	0.9054	0.0087	0.042
Mof_H 	H 	0.4538	0.9446	0.0862	0.039
Mof_C 	C 	0.5664	0.8842	-0	-0.111
Mof_H 	H 	0.6133	0.9085	0.0702	0.091
Mof_C 	C 	0.5907	0.8248	0.8819	0.056
Mof_C 	C 	0.5191	0.7873	0.7834	-0.11
Mof_H 	H 	0.5349	0.7461	0.7105	0.079
Mof_C 	C 	0.4245	0.8108	0.793	0.034
Mof_H 	H 	0.3775	0.7866	0.7231	0.047
Mof_Cd	Cd	0.87326	0.47798	0.64107	0.503
Mof_O 	O 	0.9138	0.5284	0.3753	-0.259
Mof_O 	O 	0.0231	0.6183	0.3268	-0.249
Mof_O 	O 	0.9267	0.8976	0.2498	-0.237
Mof_O 	O 	0.7763	0.9294	0.2686	-0.265
Mof_O 	O 	0.2404	0.618	0.2887	-0.238
Mof_O 	O 	0.2738	0.5564	0.5333	-0.252
Mof_C 	C 	0.9361	0.5977	0.3489	0.302
Mof_C 	C 	0.8399	0.8792	0.2795	0.286
Mof_C 	C 	0.8612	0.6598	0.3458	-0.043
Mof_C 	C 	0.8861	0.7381	0.3195	-0.009
Mof_H 	H 	0.95	0.7516	0.3055	0.077
Mof_C 	C 	0.8154	0.7961	0.3142	-0.044
Mof_C 	C 	0.7205	0.7748	0.3373	-0.037
Mof_H 	H 	0.6734	0.8134	0.3364	0.061
Mof_C 	C 	0.6941	0.6968	0.3618	0.003
Mof_C 	C 	0.7662	0.6403	0.3658	-0.038
Mof_H 	H 	0.7498	0.5882	0.3823	0.075
Mof_C 	C 	0.2986	0.5996	0.4129	0.304
Mof_C 	C 	0.3989	0.6293	0.4068	-0.088
Mof_C 	C 	0.4705	0.5946	0.5087	0.035
Mof_H 	H 	0.4538	0.5554	0.5862	0.039
Mof_C 	C 	0.5664	0.6158	0.5	-0.12
Mof_H 	H 	0.6133	0.5915	0.5702	0.091
Mof_C 	C 	0.5907	0.6752	0.3819	0.066
Mof_C 	C 	0.5191	0.7127	0.2834	-0.112
Mof_H 	H 	0.5349	0.7539	0.2105	0.081
Mof_C 	C 	0.4245	0.6892	0.293	0.035
Mof_H 	H 	0.3775	0.7134	0.2231	0.048
Mof_Cd	Cd	0.12674	0.97798	0.85893	0.498
Mof_O 	O 	0.0862	0.0284	0.1247	-0.257
Mof_O 	O 	0.9769	0.1183	0.1732	-0.25
Mof_O 	O 	0.0733	0.3976	0.2502	-0.238
Mof_O 	O 	0.2237	0.4294	0.2314	-0.265
Mof_O 	O 	0.7596	0.118	0.2113	-0.239
Mof_O 	O 	0.7262	0.0564	0.9667	-0.254
Mof_C 	C 	0.0639	0.0977	0.1511	0.302
Mof_C 	C 	0.1601	0.3792	0.2205	0.285
Mof_C 	C 	0.1388	0.1598	0.1542	-0.04
Mof_C 	C 	0.1139	0.2381	0.1805	-0.011
Mof_H 	H 	0.05	0.2516	0.1945	0.078
Mof_C 	C 	0.1846	0.2961	0.1858	-0.041
Mof_C 	C 	0.2795	0.2748	0.1627	-0.043
Mof_H 	H 	0.3266	0.3134	0.1636	0.063
Mof_C 	C 	0.3059	0.1968	0.1382	0.012
Mof_C 	C 	0.2338	0.1403	0.1342	-0.043
Mof_H 	H 	0.2502	0.0882	0.1177	0.077
Mof_C 	C 	0.7014	0.0996	0.0871	0.302
Mof_C 	C 	0.6011	0.1293	0.0932	-0.067
Mof_C 	C 	0.5295	0.0946	0.9913	-0.001
Mof_H 	H 	0.5462	0.0554	0.9138	0.05
Mof_C 	C 	0.4336	0.1158	-0	-0.083
Mof_H 	H 	0.3867	0.0915	0.9298	0.075
Mof_C 	C 	0.4093	0.1752	0.1181	0.047
Mof_C 	C 	0.4809	0.2127	0.2166	-0.095
Mof_H 	H 	0.4651	0.2539	0.2895	0.074
Mof_C 	C 	0.5755	0.1892	0.207	0.018
Mof_H 	H 	0.6225	0.2134	0.2769	0.053
_end
