data_functionalizedCrystal
_audit_creation_method	'EQeq! by Chris Wilmer'
_symmetry_space_group_name_H-M	'P1'
_symmetry_Int_Tables_number	1
_symmetry_cell_setting	triclinic
loop_
_symmetry_equiv_pos_as_xyz
  x,y,z
_cell_length_a	14.8127
_cell_length_b	14.8127
_cell_length_c	15.613
_cell_angle_alpha	90
_cell_angle_beta	90
_cell_angle_gamma	120
loop_
_atom_site_label
_atom_site_type_symbol
_atom_site_fract_x
_atom_site_fract_y
_atom_site_fract_z
_atom_site_charge
Mof_Sm	Sm	0.66667	0.33334	0.75	2.518
Mof_Sm	Sm	0.33333	0.66666	0.75	2.518
Mof_Sm	Sm	0.33333	0.66666	0.25	2.494
Mof_Sm	Sm	0.66667	0.33334	0.25	2.494
Mof_Zn	Zn	0.5	0.5	-0	1.169
Mof_Zn	Zn	-0	0.5	-0	1.139
Mof_Zn	Zn	0.5	0	-0	1.138
Mof_Zn	Zn	1.20993e-17	0.5	0.5	1.19
Mof_Zn	Zn	0.5	0.5	0.5	1.221
Mof_Zn	Zn	0.5	0	0.5	1.19
Mof_H 	H 	0.7195	0.63	0.7697	0.112
Mof_H 	H 	0.7973	0.6324	0.8391	0.143
Mof_H 	H 	0.9105	0.2805	0.7697	0.12
Mof_H 	H 	0.8351	0.2027	0.8391	0.113
Mof_H 	H 	0.37	0.0895	0.7697	0.059
Mof_H 	H 	0.3676	0.1649	0.8391	0.094
Mof_H 	H 	0.2805	0.37	0.7697	0.082
Mof_H 	H 	0.2027	0.3676	0.8391	0.091
Mof_H 	H 	0.0895	0.7195	0.7697	0.073
Mof_H 	H 	0.1649	0.7973	0.8391	0.119
Mof_H 	H 	0.63	0.9105	0.7697	0.135
Mof_H 	H 	0.6324	0.8351	0.8391	0.14
Mof_H 	H 	0.0895	0.37	0.7303	0.06
Mof_H 	H 	0.1649	0.3676	0.6609	0.073
Mof_H 	H 	0.63	0.7195	0.7303	0.113
Mof_H 	H 	0.6324	0.7973	0.6609	0.124
Mof_H 	H 	0.2805	0.9105	0.7303	0.121
Mof_H 	H 	0.2027	0.8351	0.6609	0.093
Mof_H 	H 	0.9105	0.63	0.7303	0.136
Mof_H 	H 	0.8351	0.6324	0.6609	0.12
Mof_H 	H 	0.37	0.2805	0.7303	0.083
Mof_H 	H 	0.3676	0.2027	0.6609	0.07
Mof_H 	H 	0.7195	0.0895	0.7303	0.075
Mof_H 	H 	0.7973	0.1649	0.6609	0.1
Mof_H 	H 	0.2805	0.37	0.2303	0.07
Mof_H 	H 	0.2027	0.3676	0.1609	0.044
Mof_H 	H 	0.0895	0.7195	0.2303	0.061
Mof_H 	H 	0.1649	0.7973	0.1609	0.074
Mof_H 	H 	0.63	0.9105	0.2303	0.124
Mof_H 	H 	0.6324	0.8351	0.1609	0.094
Mof_H 	H 	0.7195	0.63	0.2303	0.1
Mof_H 	H 	0.7973	0.6324	0.1609	0.098
Mof_H 	H 	0.9105	0.2805	0.2303	0.109
Mof_H 	H 	0.8351	0.2027	0.1609	0.068
Mof_H 	H 	0.37	0.0895	0.2303	0.046
Mof_H 	H 	0.3676	0.1649	0.1609	0.047
Mof_H 	H 	0.9105	0.63	0.2697	0.124
Mof_H 	H 	0.8351	0.6324	0.3391	0.114
Mof_H 	H 	0.37	0.2805	0.2697	0.07
Mof_H 	H 	0.3676	0.2027	0.3391	0.063
Mof_H 	H 	0.7195	0.0895	0.2697	0.061
Mof_H 	H 	0.7973	0.1649	0.3391	0.093
Mof_H 	H 	0.0895	0.37	0.2697	0.046
Mof_H 	H 	0.1649	0.3676	0.3391	0.066
Mof_H 	H 	0.63	0.7195	0.2697	0.1
Mof_H 	H 	0.6324	0.7973	0.3391	0.117
Mof_H 	H 	0.2805	0.9105	0.2697	0.109
Mof_H 	H 	0.2027	0.8351	0.3391	0.087
Mof_C 	C 	0.6484	0.5171	0.8597	0.456
Mof_C 	C 	0.7379	0.5868	0.8038	-0.233
Mof_C 	C 	0.8687	0.3516	0.8597	0.446
Mof_C 	C 	0.8489	0.2621	0.8038	-0.213
Mof_C 	C 	0.4829	0.1313	0.8597	0.431
Mof_C 	C 	0.4132	0.1511	0.8038	-0.182
Mof_C 	C 	0.3516	0.4829	0.8597	0.435
Mof_C 	C 	0.2621	0.4132	0.8038	-0.188
Mof_C 	C 	0.1313	0.6484	0.8597	0.442
Mof_C 	C 	0.1511	0.7379	0.8038	-0.205
Mof_C 	C 	0.5171	0.8687	0.8597	0.457
Mof_C 	C 	0.5868	0.8489	0.8038	-0.236
Mof_C 	C 	0.1313	0.4829	0.6403	0.434
Mof_C 	C 	0.1511	0.4132	0.6962	-0.184
Mof_C 	C 	0.5171	0.6484	0.6403	0.459
Mof_C 	C 	0.5868	0.7379	0.6962	-0.235
Mof_C 	C 	0.3516	0.8687	0.6403	0.448
Mof_C 	C 	0.2621	0.8489	0.6962	-0.215
Mof_C 	C 	0.8687	0.5171	0.6403	0.459
Mof_C 	C 	0.8489	0.5868	0.6962	-0.238
Mof_C 	C 	0.4829	0.3516	0.6403	0.437
Mof_C 	C 	0.4132	0.2621	0.6962	-0.189
Mof_C 	C 	0.6484	0.1313	0.6403	0.445
Mof_C 	C 	0.7379	0.1511	0.6962	-0.207
Mof_C 	C 	0.3516	0.4829	0.1403	0.429
Mof_C 	C 	0.2621	0.4132	0.1962	-0.176
Mof_C 	C 	0.1313	0.6484	0.1403	0.437
Mof_C 	C 	0.1511	0.7379	0.1962	-0.194
Mof_C 	C 	0.5171	0.8687	0.1403	0.451
Mof_C 	C 	0.5868	0.8489	0.1962	-0.226
Mof_C 	C 	0.6484	0.5171	0.1403	0.451
Mof_C 	C 	0.7379	0.5868	0.1962	-0.223
Mof_C 	C 	0.8687	0.3516	0.1403	0.44
Mof_C 	C 	0.8489	0.2621	0.1962	-0.203
Mof_C 	C 	0.4829	0.1313	0.1403	0.425
Mof_C 	C 	0.4132	0.1511	0.1962	-0.171
Mof_C 	C 	0.8687	0.5171	0.3597	0.454
Mof_C 	C 	0.8489	0.5868	0.3038	-0.227
Mof_C 	C 	0.4829	0.3516	0.3597	0.432
Mof_C 	C 	0.4132	0.2621	0.3038	-0.177
Mof_C 	C 	0.6484	0.1313	0.3597	0.439
Mof_C 	C 	0.7379	0.1511	0.3038	-0.195
Mof_C 	C 	0.1313	0.4829	0.3597	0.428
Mof_C 	C 	0.1511	0.4132	0.3038	-0.172
Mof_C 	C 	0.5171	0.6484	0.3597	0.454
Mof_C 	C 	0.5868	0.7379	0.3038	-0.224
Mof_C 	C 	0.3516	0.8687	0.3597	0.443
Mof_C 	C 	0.2621	0.8489	0.3038	-0.204
Mof_O 	O 	0.615	0.4202	0.8554	-0.503
Mof_O 	O 	0.6147	0.5603	0.9076	-0.402
Mof_O 	O 	0.8052	0.385	0.8554	-0.489
Mof_O 	O 	0.9456	0.3853	0.9076	-0.364
Mof_O 	O 	0.5798	0.1948	0.8554	-0.508
Mof_O 	O 	0.4397	0.0544	0.9076	-0.441
Mof_O 	O 	0.385	0.5798	0.8554	-0.499
Mof_O 	O 	0.3853	0.4397	0.9076	-0.409
Mof_O 	O 	0.1948	0.615	0.8554	-0.51
Mof_O 	O 	0.0544	0.6147	0.9076	-0.438
Mof_O 	O 	0.4202	0.8052	0.8554	-0.492
Mof_O 	O 	0.5603	0.9456	0.9076	-0.361
Mof_O 	O 	0.1948	0.5798	0.6446	-0.539
Mof_O 	O 	0.0544	0.4397	0.5924	-0.509
Mof_O 	O 	0.4202	0.615	0.6446	-0.535
Mof_O 	O 	0.5603	0.6147	0.5924	-0.47
Mof_O 	O 	0.385	0.8052	0.6446	-0.52
Mof_O 	O 	0.3853	0.9456	0.5924	-0.429
Mof_O 	O 	0.8052	0.4202	0.6446	-0.523
Mof_O 	O 	0.9456	0.5603	0.5924	-0.426
Mof_O 	O 	0.5798	0.385	0.6446	-0.53
Mof_O 	O 	0.4397	0.3853	0.5924	-0.477
Mof_O 	O 	0.615	0.1948	0.6446	-0.541
Mof_O 	O 	0.6147	0.0544	0.5924	-0.506
Mof_O 	O 	0.385	0.5798	0.1446	-0.551
Mof_O 	O 	0.3853	0.4397	0.0924	-0.522
Mof_O 	O 	0.1948	0.615	0.1446	-0.562
Mof_O 	O 	0.0544	0.6147	0.0924	-0.55
Mof_O 	O 	0.4202	0.8052	0.1446	-0.543
Mof_O 	O 	0.5603	0.9456	0.0924	-0.469
Mof_O 	O 	0.615	0.4202	0.1446	-0.556
Mof_O 	O 	0.6147	0.5603	0.0924	-0.514
Mof_O 	O 	0.8052	0.385	0.1446	-0.541
Mof_O 	O 	0.9456	0.3853	0.0924	-0.473
Mof_O 	O 	0.5798	0.1948	0.1446	-0.56
Mof_O 	O 	0.4397	0.0544	0.0924	-0.554
Mof_O 	O 	0.8052	0.4202	0.3554	-0.519
Mof_O 	O 	0.9456	0.5603	0.4076	-0.424
Mof_O 	O 	0.5798	0.385	0.3554	-0.526
Mof_O 	O 	0.4397	0.3853	0.4076	-0.476
Mof_O 	O 	0.615	0.1948	0.3554	-0.538
Mof_O 	O 	0.6147	0.0544	0.4076	-0.505
Mof_O 	O 	0.1948	0.5798	0.3554	-0.535
Mof_O 	O 	0.0544	0.4397	0.4076	-0.508
Mof_O 	O 	0.4202	0.615	0.3554	-0.531
Mof_O 	O 	0.5603	0.6147	0.4076	-0.469
Mof_O 	O 	0.385	0.8052	0.3554	-0.516
Mof_O 	O 	0.3853	0.9456	0.4076	-0.428
Mof_O 	O 	0.7646	0.5292	0.75	-0.265
Mof_O 	O 	0.7646	0.2354	0.75	-0.281
Mof_O 	O 	0.4708	0.2354	0.75	-0.297
Mof_O 	O 	0.2354	0.4708	0.75	-0.297
Mof_O 	O 	0.2354	0.7646	0.75	-0.282
Mof_O 	O 	0.5292	0.7646	0.75	-0.265
Mof_O 	O 	0.2354	0.4708	0.25	-0.307
Mof_O 	O 	0.2354	0.7646	0.25	-0.29
Mof_O 	O 	0.5292	0.7646	0.25	-0.274
Mof_O 	O 	0.7646	0.5292	0.25	-0.274
Mof_O 	O 	0.7646	0.2354	0.25	-0.29
Mof_O 	O 	0.4708	0.2354	0.25	-0.307
_end
