data_functionalizedCrystal
_audit_creation_method	'EQeq! by Chris Wilmer'
_symmetry_space_group_name_H-M	'P1'
_symmetry_Int_Tables_number	1
_symmetry_cell_setting	triclinic
loop_
_symmetry_equiv_pos_as_xyz
  x,y,z
_cell_length_a	18.216
_cell_length_b	18.216
_cell_length_c	16.483
_cell_angle_alpha	90
_cell_angle_beta	90
_cell_angle_gamma	90
loop_
_atom_site_label
_atom_site_type_symbol
_atom_site_fract_x
_atom_site_fract_y
_atom_site_fract_z
_atom_site_charge
Mof_C 	C 	0.5356	0.3554	0.0114	-0.119
Mof_H 	H 	0.5554	0.3063	0.0051	0.046
Mof_H 	H 	0.4962	0.3531	0.0509	0.047
Mof_C 	C 	0.506	0.3814	0.9321	0.004
Mof_H 	H 	0.4832	0.4291	0.9392	0.046
Mof_H 	H 	0.4687	0.3475	0.9131	0.041
Mof_C 	C 	0.7981	0.5452	0.6986	0.085
Mof_H 	H 	0.7842	0.5907	0.7191	0.023
Mof_C 	C 	0.8447	0.5416	0.6345	-0.192
Mof_H 	H 	0.8616	0.5846	0.6104	0.099
Mof_C 	C 	0.5668	0.3871	0.8691	-0.159
Mof_H 	H 	0.5464	0.4065	0.8192	0.081
Mof_H 	H 	0.5855	0.3383	0.8578	0.093
Mof_C 	C 	0.5959	0.4067	0.0425	-0.244
Mof_H 	H 	0.615	0.3884	0.0935	0.103
Mof_H 	H 	0.5757	0.4552	0.0518	0.107
Mof_C 	C 	0.8421	0.4084	0.6387	-0.296
Mof_H 	H 	0.8578	0.3637	0.6177	0.131
Mof_C 	C 	0.8676	0.4732	0.6043	0.143
Mof_H 	H 	0.9001	0.4713	0.5609	-0.023
Mof_C 	C 	0.7933	0.409	0.704	0.333
Mof_C 	C 	0.6307	0.4363	0.8964	0.012
Mof_H 	H 	0.6139	0.4873	0.9001	0.069
Mof_C 	C 	0.6588	0.4111	0.9787	0.164
Mof_H 	H 	0.6808	0.3623	0.9728	0.036
Mof_C 	C 	0.8325	0.4827	0.0724	-0.211
Mof_C 	C 	0.7757	0.4388	0.0383	0.138
Mof_H 	H 	0.7833	0.3883	0.0382	-0.014
Mof_C 	C 	0.7706	0.4802	0.7346	-0.172
Mof_C 	C 	0.7203	0.4857	0.7991	0.121
Mof_H 	H 	0.7088	0.5325	0.8177	0.013
Mof_C 	C 	0.8854	0.5999	0.1116	-0.344
Mof_H 	H 	0.8843	0.6509	0.1144	0.15
Mof_C 	C 	0.8275	0.5624	0.0738	0.348
Mof_C 	C 	0.8949	0.449	0.1072	0.144
Mof_H 	H 	0.8986	0.3981	0.1056	-0.024
Mof_C 	C 	0.9484	0.487	0.1422	-0.267
Mof_H 	H 	0.9887	0.4631	0.1648	0.12
Mof_C 	C 	0.9434	0.5626	0.1444	0.206
Mof_H 	H 	0.9808	0.5891	0.1691	-0.043
Mof_N 	N 	0.7146	0.4617	0.0076	-0.266
Mof_H 	H 	0.7068	0.5082	0.0041	0.158
Mof_N 	N 	0.6887	0.4305	0.8346	-0.214
Mof_H 	H 	0.7028	0.3872	0.821	0.153
Mof_N 	N 	0.7637	0.2233	0.9338	0.105
Mof_O 	O 	0.7515	0.2259	0.0075	-0.183
Mof_O 	O 	0.7763	0.1637	0.898	-0.332
Mof_O 	O 	0.7655	0.34874	0.735	-0.531
Mof_O 	O 	0.7591	0.2803	0.8919	-0.319
Mof_O 	O 	0.7712	0.5959	0.0405	-0.508
Mof_Cl	Cl	0.8996	0.1107	0.7422	-0.262
Mof_C 	C 	0.4644	0.6446	0.5114	-0.053
Mof_H 	H 	0.4446	0.6937	0.5051	0.052
Mof_H 	H 	0.5038	0.6469	0.5509	0.042
Mof_C 	C 	0.494	0.6186	0.4321	-0.081
Mof_H 	H 	0.5168	0.5709	0.4392	0.054
Mof_H 	H 	0.5313	0.6525	0.4131	0.054
Mof_C 	C 	0.2019	0.4548	0.1986	0.083
Mof_H 	H 	0.2158	0.4093	0.2191	0.02
Mof_C 	C 	0.1553	0.4584	0.1345	-0.197
Mof_H 	H 	0.1384	0.4154	0.1104	0.089
Mof_C 	C 	0.4332	0.6129	0.3691	-0.141
Mof_H 	H 	0.4536	0.5935	0.3192	0.074
Mof_H 	H 	0.4145	0.6617	0.3578	0.082
Mof_C 	C 	0.4041	0.5933	0.5425	-0.175
Mof_H 	H 	0.385	0.6116	0.5935	0.09
Mof_H 	H 	0.4243	0.5448	0.5518	0.102
Mof_C 	C 	0.1579	0.5916	0.1387	-0.301
Mof_H 	H 	0.1422	0.6363	0.1177	0.122
Mof_C 	C 	0.1324	0.5268	0.1043	0.14
Mof_H 	H 	0.0999	0.5287	0.0609	-0.039
Mof_C 	C 	0.2067	0.591	0.204	0.333
Mof_C 	C 	0.3693	0.5637	0.3964	0.03
Mof_H 	H 	0.3861	0.5127	0.4001	0.046
Mof_C 	C 	0.3412	0.5889	0.4787	0.057
Mof_H 	H 	0.3192	0.6377	0.4728	0.043
Mof_C 	C 	0.1675	0.5173	0.5724	-0.199
Mof_C 	C 	0.2243	0.5612	0.5383	0.139
Mof_H 	H 	0.2167	0.6117	0.5382	0.003
Mof_C 	C 	0.2294	0.5198	0.2346	-0.175
Mof_C 	C 	0.2797	0.5143	0.2991	0.121
Mof_H 	H 	0.2912	0.4675	0.3177	0.005
Mof_C 	C 	0.1146	0.4001	0.6116	-0.34
Mof_H 	H 	0.1157	0.3491	0.6144	0.155
Mof_C 	C 	0.1725	0.4376	0.5738	0.359
Mof_C 	C 	0.1051	0.551	0.6072	0.147
Mof_H 	H 	0.1014	0.6019	0.6056	-0.016
Mof_C 	C 	0.0516	0.513	0.6422	-0.261
Mof_H 	H 	0.0113	0.5369	0.6648	0.121
Mof_C 	C 	0.0566	0.4374	0.6444	0.21
Mof_H 	H 	0.0192	0.4109	0.6691	-0.042
Mof_N 	N 	0.2854	0.5383	0.5076	-0.226
Mof_H 	H 	0.2932	0.4918	0.5041	0.161
Mof_N 	N 	0.3113	0.5695	0.3346	-0.221
Mof_H 	H 	0.2972	0.6128	0.321	0.153
Mof_N 	N 	0.2363	0.7767	0.4338	0.073
Mof_O 	O 	0.2485	0.7741	0.5075	-0.133
Mof_O 	O 	0.2237	0.8363	0.398	-0.345
Mof_O 	O 	0.2345	0.65126	0.235	-0.531
Mof_O 	O 	0.2409	0.7197	0.3919	-0.327
Mof_O 	O 	0.2288	0.4041	0.5405	-0.514
Mof_Cl	Cl	0.1004	0.8893	0.2422	-0.266
Mof_C 	C 	0.1446	0.0356	0.7614	-0.055
Mof_H 	H 	0.1937	0.0554	0.7551	0.055
Mof_H 	H 	0.1469	0.9962	0.8009	0.047
Mof_C 	C 	0.1186	0.006	0.6821	-0.073
Mof_H 	H 	0.0709	0.9832	0.6892	0.051
Mof_H 	H 	0.1525	0.9687	0.6631	0.051
Mof_C 	C 	0.9548	0.2981	0.4486	0.085
Mof_H 	H 	0.9093	0.2842	0.4691	0.021
Mof_C 	C 	0.9584	0.3447	0.3845	-0.193
Mof_H 	H 	0.9154	0.3616	0.3604	0.098
Mof_C 	C 	0.1129	0.0668	0.6191	-0.145
Mof_H 	H 	0.0935	0.0464	0.5692	0.076
Mof_H 	H 	0.1617	0.0855	0.6078	0.083
Mof_C 	C 	0.0933	0.0959	0.7925	-0.178
Mof_H 	H 	0.1116	0.115	0.8435	0.098
Mof_H 	H 	0.0448	0.0757	0.8018	0.107
Mof_C 	C 	0.0916	0.3421	0.3887	-0.297
Mof_H 	H 	0.1363	0.3578	0.3677	0.131
Mof_C 	C 	0.0268	0.3676	0.3543	0.143
Mof_H 	H 	0.0287	0.4001	0.3109	-0.024
Mof_C 	C 	0.091	0.2933	0.454	0.334
Mof_C 	C 	0.0637	0.1307	0.6464	0.031
Mof_H 	H 	0.0127	0.1139	0.6501	0.046
Mof_C 	C 	0.0889	0.1588	0.7287	0.059
Mof_H 	H 	0.1377	0.1808	0.7228	0.043
Mof_C 	C 	0.0173	0.3325	0.8224	-0.198
Mof_C 	C 	0.0612	0.2757	0.7883	0.142
Mof_H 	H 	0.1117	0.2833	0.7882	0.005
Mof_C 	C 	0.0198	0.2706	0.4846	-0.175
Mof_C 	C 	0.0143	0.2203	0.5491	0.121
Mof_H 	H 	0.9675	0.2088	0.5677	0.005
Mof_C 	C 	0.9001	0.3854	0.8616	-0.336
Mof_H 	H 	0.8491	0.3843	0.8644	0.162
Mof_C 	C 	0.9376	0.3275	0.8238	0.364
Mof_C 	C 	0.051	0.3949	0.8572	0.153
Mof_H 	H 	0.1019	0.3986	0.8556	-0.011
Mof_C 	C 	0.013	0.4484	0.8922	-0.26
Mof_H 	H 	0.0369	0.4887	0.9148	0.134
Mof_C 	C 	0.9374	0.4434	0.8944	0.218
Mof_H 	H 	0.9109	0.4808	0.9191	-0.028
Mof_N 	N 	0.0383	0.2146	0.7576	-0.226
Mof_H 	H 	0.9918	0.2068	0.7541	0.162
Mof_N 	N 	0.0695	0.1887	0.5846	-0.221
Mof_H 	H 	0.1128	0.2028	0.571	0.152
Mof_N 	N 	0.2767	0.2637	0.6838	0.073
Mof_O 	O 	0.2741	0.2515	0.7575	-0.128
Mof_O 	O 	0.3363	0.2763	0.648	-0.345
Mof_O 	O 	0.15126	0.2655	0.485	-0.531
Mof_O 	O 	0.2197	0.2591	0.6419	-0.327
Mof_O 	O 	0.9041	0.2712	0.7905	-0.512
Mof_Cl	Cl	0.3893	0.3996	0.4922	-0.266
Mof_C 	C 	0.8554	0.9644	0.2614	-0.039
Mof_H 	H 	0.8063	0.9446	0.2551	0.048
Mof_H 	H 	0.8531	0.0038	0.3009	0.037
Mof_C 	C 	0.8814	0.994	0.1821	-0.099
Mof_H 	H 	0.9291	0.0168	0.1892	0.057
Mof_H 	H 	0.8475	0.0313	0.1631	0.056
Mof_C 	C 	0.0452	0.7019	0.9486	-0.001
Mof_H 	H 	0.0907	0.7158	0.9691	0.069
Mof_C 	C 	0.0416	0.6553	0.8845	-0.118
Mof_H 	H 	0.0846	0.6384	0.8604	0.077
Mof_C 	C 	0.8871	0.9332	0.1191	-0.117
Mof_H 	H 	0.9065	0.9536	0.0692	0.05
Mof_H 	H 	0.8383	0.9145	0.1078	0.07
Mof_C 	C 	0.9067	0.9041	0.2925	-0.186
Mof_H 	H 	0.8884	0.885	0.3435	0.092
Mof_H 	H 	0.9552	0.9243	0.3018	0.105
Mof_C 	C 	0.9084	0.6579	0.8887	-0.233
Mof_H 	H 	0.8637	0.6422	0.8677	0.118
Mof_C 	C 	0.9732	0.6324	0.8543	0.087
Mof_H 	H 	0.9713	0.5999	0.8109	-0.002
Mof_C 	C 	0.909	0.7067	0.954	0.274
Mof_C 	C 	0.9363	0.8693	0.1464	0.01
Mof_H 	H 	0.9873	0.8861	0.1501	0.049
Mof_C 	C 	0.9111	0.8412	0.2287	0.067
Mof_H 	H 	0.8623	0.8192	0.2228	0.04
Mof_C 	C 	0.9827	0.6675	0.3224	-0.196
Mof_C 	C 	0.9388	0.7243	0.2883	0.137
Mof_H 	H 	0.8883	0.7167	0.2882	0.003
Mof_C 	C 	0.9802	0.7294	0.9846	-0.036
Mof_C 	C 	0.9857	0.7797	0.0491	-0.012
Mof_H 	H 	0.0325	0.7912	0.0677	0.035
Mof_C 	C 	0.0999	0.6146	0.3616	-0.337
Mof_H 	H 	0.1509	0.6157	0.3644	0.154
Mof_C 	C 	0.0624	0.6725	0.3238	0.356
Mof_C 	C 	0.949	0.6051	0.3572	0.143
Mof_H 	H 	0.8981	0.6014	0.3556	-0.015
Mof_C 	C 	0.987	0.5516	0.3922	-0.256
Mof_H 	H 	0.9631	0.5113	0.4148	0.12
Mof_C 	C 	0.0626	0.5566	0.3944	0.205
Mof_H 	H 	0.0891	0.5192	0.4191	-0.04
Mof_N 	N 	0.9617	0.7854	0.2576	-0.225
Mof_H 	H 	0.0082	0.7932	0.2541	0.159
Mof_N 	N 	0.9305	0.8113	0.0846	-0.191
Mof_H 	H 	0.8872	0.7972	0.071	0.127
Mof_N 	N 	0.7233	0.7363	0.1838	0.073
Mof_O 	O 	0.7259	0.7485	0.2575	-0.134
Mof_O 	O 	0.6637	0.7237	0.148	-0.34
Mof_O 	O 	0.84874	0.7345	0.985	-0.45
Mof_O 	O 	0.7803	0.7409	0.1419	-0.318
Mof_O 	O 	0.0959	0.7288	0.2905	-0.513
Mof_Cl	Cl	0.6107	0.6004	0.9922	-0.522
Mof_C 	C 	0.9644	0.8554	0.7386	-0.073
Mof_H 	H 	0.9446	0.8063	0.7449	0.058
Mof_H 	H 	0.0038	0.8531	0.6991	0.046
Mof_C 	C 	0.994	0.8814	0.8179	-0.045
Mof_H 	H 	0.0168	0.9291	0.8108	0.045
Mof_H 	H 	0.0313	0.8475	0.8369	0.045
Mof_C 	C 	0.7019	0.0452	0.0514	0.163
Mof_H 	H 	0.7158	0.0907	0.0309	-0.023
Mof_C 	C 	0.6553	0.0416	0.1155	-0.258
Mof_H 	H 	0.6384	0.0846	0.1396	0.117
Mof_C 	C 	0.9332	0.8871	0.8809	-0.177
Mof_H 	H 	0.9536	0.9065	0.9308	0.104
Mof_H 	H 	0.9145	0.8383	0.8922	0.099
Mof_C 	C 	0.9041	0.9067	0.7075	-0.16
Mof_H 	H 	0.885	0.8884	0.6565	0.084
Mof_H 	H 	0.9243	0.9552	0.6982	0.098
Mof_C 	C 	0.6579	0.9084	0.1113	-0.345
Mof_H 	H 	0.6422	0.8637	0.1323	0.146
Mof_C 	C 	0.6324	0.9732	0.1457	0.19
Mof_H 	H 	0.5999	0.9713	0.1891	-0.04
Mof_C 	C 	0.7067	0.909	0.046	0.373
Mof_C 	C 	0.8693	0.9363	0.8536	0.056
Mof_H 	H 	0.8861	0.9873	0.8499	0.043
Mof_C 	C 	0.8412	0.9111	0.7713	0.044
Mof_H 	H 	0.8192	0.8623	0.7772	0.047
Mof_C 	C 	0.6675	0.9827	0.6776	-0.198
Mof_C 	C 	0.7243	0.9388	0.7117	0.137
Mof_H 	H 	0.7167	0.8883	0.7118	0.003
Mof_C 	C 	0.7294	0.9802	0.0154	-0.303
Mof_C 	C 	0.7797	0.9857	0.9509	0.255
Mof_H 	H 	0.7912	0.0325	0.9323	-0.026
Mof_C 	C 	0.6146	0.0999	0.6384	-0.339
Mof_H 	H 	0.6157	0.1509	0.6356	0.155
Mof_C 	C 	0.6725	0.0624	0.6762	0.358
Mof_C 	C 	0.6051	0.949	0.6428	0.145
Mof_H 	H 	0.6014	0.8981	0.6444	-0.016
Mof_C 	C 	0.5516	0.987	0.6078	-0.26
Mof_H 	H 	0.5113	0.9631	0.5852	0.121
Mof_C 	C 	0.5566	0.0626	0.6056	0.209
Mof_H 	H 	0.5192	0.0891	0.5809	-0.041
Mof_N 	N 	0.7854	0.9617	0.7424	-0.223
Mof_H 	H 	0.7932	0.0082	0.7459	0.159
Mof_N 	N 	0.8113	0.9305	0.9154	-0.252
Mof_H 	H 	0.7972	0.8872	0.929	0.181
Mof_N 	N 	0.7363	0.7233	0.8162	0.069
Mof_O 	O 	0.7485	0.7259	0.7425	-0.133
Mof_O 	O 	0.7237	0.6637	0.852	-0.31
Mof_O 	O 	0.7345	0.84874	0.015	-0.555
Mof_O 	O 	0.7409	0.7803	0.8581	-0.301
Mof_O 	O 	0.7288	0.0959	0.7095	-0.514
Mof_Cl	Cl	0.6004	0.6107	0.0078	0.012
Mof_C 	C 	0.0356	0.1446	0.2386	-0.056
Mof_H 	H 	0.0554	0.1937	0.2449	0.05
Mof_H 	H 	0.9962	0.1469	0.1991	0.036
Mof_C 	C 	0.006	0.1186	0.3179	-0.075
Mof_H 	H 	0.9832	0.0709	0.3108	0.052
Mof_H 	H 	0.9687	0.1525	0.3369	0.051
Mof_C 	C 	0.2981	0.9548	0.5514	0.085
Mof_H 	H 	0.2842	0.9093	0.5309	0.022
Mof_C 	C 	0.3447	0.9584	0.6155	-0.194
Mof_H 	H 	0.3616	0.9154	0.6396	0.1
Mof_C 	C 	0.0668	0.1129	0.3809	-0.145
Mof_H 	H 	0.0464	0.0935	0.4308	0.076
Mof_H 	H 	0.0855	0.1617	0.3922	0.083
Mof_C 	C 	0.0959	0.0933	0.2075	-0.168
Mof_H 	H 	0.115	0.1116	0.1565	0.078
Mof_H 	H 	0.0757	0.0448	0.1982	0.096
Mof_C 	C 	0.3421	0.0916	0.6113	-0.297
Mof_H 	H 	0.3578	0.1363	0.6323	0.132
Mof_C 	C 	0.3676	0.0268	0.6457	0.145
Mof_H 	H 	0.4001	0.0287	0.6891	-0.023
Mof_C 	C 	0.2933	0.091	0.546	0.334
Mof_C 	C 	0.1307	0.0637	0.3536	0.033
Mof_H 	H 	0.1139	0.0127	0.3499	0.046
Mof_C 	C 	0.1588	0.0889	0.2713	0.053
Mof_H 	H 	0.1808	0.1377	0.2772	0.043
Mof_C 	C 	0.3325	0.0173	0.1776	-0.197
Mof_C 	C 	0.2757	0.0612	0.2117	0.132
Mof_H 	H 	0.2833	0.1117	0.2118	0.001
Mof_C 	C 	0.2706	0.0198	0.5154	-0.175
Mof_C 	C 	0.2203	0.0143	0.4509	0.124
Mof_H 	H 	0.2088	0.9675	0.4323	0.003
Mof_C 	C 	0.3854	0.9001	0.1384	-0.34
Mof_H 	H 	0.3843	0.8491	0.1356	0.148
Mof_C 	C 	0.3275	0.9376	0.1762	0.35
Mof_C 	C 	0.3949	0.051	0.1428	0.136
Mof_H 	H 	0.3986	0.1019	0.1444	-0.02
Mof_C 	C 	0.4484	0.013	0.1078	-0.257
Mof_H 	H 	0.4887	0.0369	0.0852	0.108
Mof_C 	C 	0.4434	0.9374	0.1056	0.196
Mof_H 	H 	0.4808	0.9109	0.0809	-0.053
Mof_N 	N 	0.2146	0.0383	0.2424	-0.223
Mof_H 	H 	0.2068	0.9918	0.2459	0.157
Mof_N 	N 	0.1887	0.0695	0.4154	-0.222
Mof_H 	H 	0.2028	0.1128	0.429	0.153
Mof_N 	N 	0.2637	0.2767	0.3162	0.074
Mof_O 	O 	0.2515	0.2741	0.2425	-0.14
Mof_O 	O 	0.2763	0.3363	0.352	-0.347
Mof_O 	O 	0.2655	0.15126	0.515	-0.531
Mof_O 	O 	0.2591	0.2197	0.3581	-0.329
Mof_O 	O 	0.2712	0.9041	0.2095	-0.515
Mof_Cl	Cl	0.3996	0.3893	0.5078	-0.266
Mof_C 	C 	0.3554	0.5356	0.9886	0.012
Mof_H 	H 	0.3063	0.5554	0.9949	0.056
Mof_H 	H 	0.3531	0.4962	0.9491	0.035
Mof_C 	C 	0.3814	0.506	0.0679	-0.165
Mof_H 	H 	0.4291	0.4832	0.0608	0.063
Mof_H 	H 	0.3475	0.4687	0.0869	0.067
Mof_C 	C 	0.5452	0.7981	0.3014	0.086
Mof_H 	H 	0.5907	0.7842	0.2809	0.021
Mof_C 	C 	0.5416	0.8447	0.3655	-0.193
Mof_H 	H 	0.5846	0.8616	0.3896	0.099
Mof_C 	C 	0.3871	0.5668	0.1309	-0.123
Mof_H 	H 	0.4065	0.5464	0.1808	0.068
Mof_H 	H 	0.3383	0.5855	0.1422	0.071
Mof_C 	C 	0.4067	0.5959	0.9575	-0.105
Mof_H 	H 	0.3884	0.615	0.9065	0.074
Mof_H 	H 	0.4552	0.5757	0.9482	0.096
Mof_C 	C 	0.4084	0.8421	0.3613	-0.297
Mof_H 	H 	0.3637	0.8578	0.3823	0.131
Mof_C 	C 	0.4732	0.8676	0.3957	0.144
Mof_H 	H 	0.4713	0.9001	0.4391	-0.023
Mof_C 	C 	0.409	0.7933	0.296	0.334
Mof_C 	C 	0.4363	0.6307	0.1036	0.049
Mof_H 	H 	0.4873	0.6139	0.0999	0.024
Mof_C 	C 	0.4111	0.6588	0.0213	-0.05
Mof_H 	H 	0.3623	0.6808	0.0272	0.05
Mof_C 	C 	0.4827	0.8325	0.9276	-0.174
Mof_C 	C 	0.4388	0.7757	0.9617	0.133
Mof_H 	H 	0.3883	0.7833	0.9618	0.022
Mof_C 	C 	0.4802	0.7706	0.2654	-0.176
Mof_C 	C 	0.4857	0.7203	0.2009	0.12
Mof_H 	H 	0.5325	0.7088	0.1823	-0
Mof_C 	C 	0.5999	0.8854	0.8884	-0.315
Mof_H 	H 	0.6509	0.8843	0.8856	0.158
Mof_C 	C 	0.5624	0.8275	0.9262	0.347
Mof_C 	C 	0.449	0.8949	0.8928	0.135
Mof_H 	H 	0.3981	0.8986	0.8944	-0.003
Mof_C 	C 	0.487	0.9484	0.8578	-0.239
Mof_H 	H 	0.4631	0.9887	0.8352	0.118
Mof_C 	C 	0.5626	0.9434	0.8556	0.198
Mof_H 	H 	0.5891	0.9808	0.8309	-0.034
Mof_N 	N 	0.4617	0.7146	0.9924	-0.185
Mof_H 	H 	0.5082	0.7068	0.9959	0.166
Mof_N 	N 	0.4305	0.6887	0.1654	-0.227
Mof_H 	H 	0.3872	0.7028	0.179	0.152
Mof_N 	N 	0.2233	0.7637	0.0662	0.041
Mof_O 	O 	0.2259	0.7515	0.9925	-0.084
Mof_O 	O 	0.1637	0.7763	0.102	-0.36
Mof_O 	O 	0.34874	0.7655	0.265	-0.531
Mof_O 	O 	0.2803	0.7591	0.1081	-0.337
Mof_O 	O 	0.5959	0.7712	0.9595	-0.462
Mof_Cl	Cl	0.1107	0.8996	0.2578	-0.271
Mof_C 	C 	0.6446	0.4644	0.4886	-0.054
Mof_H 	H 	0.6937	0.4446	0.4949	0.052
Mof_H 	H 	0.6469	0.5038	0.4491	0.041
Mof_C 	C 	0.6186	0.494	0.5679	-0.08
Mof_H 	H 	0.5709	0.5168	0.5608	0.054
Mof_H 	H 	0.6525	0.5313	0.5869	0.054
Mof_C 	C 	0.4548	0.2019	0.8014	0.088
Mof_H 	H 	0.4093	0.2158	0.7809	0.023
Mof_C 	C 	0.4584	0.1553	0.8655	-0.188
Mof_H 	H 	0.4154	0.1384	0.8896	0.108
Mof_C 	C 	0.6129	0.4332	0.6309	-0.142
Mof_H 	H 	0.5935	0.4536	0.6808	0.076
Mof_H 	H 	0.6617	0.4145	0.6422	0.082
Mof_C 	C 	0.5933	0.4041	0.4575	-0.174
Mof_H 	H 	0.6116	0.385	0.4065	0.087
Mof_H 	H 	0.5448	0.4243	0.4482	0.101
Mof_C 	C 	0.5916	0.1579	0.8613	-0.292
Mof_H 	H 	0.6363	0.1422	0.8823	0.14
Mof_C 	C 	0.5268	0.1324	0.8957	0.147
Mof_H 	H 	0.5287	0.0999	0.9391	-0.006
Mof_C 	C 	0.591	0.2067	0.796	0.335
Mof_C 	C 	0.5637	0.3693	0.6036	0.031
Mof_H 	H 	0.5127	0.3861	0.5999	0.046
Mof_C 	C 	0.5889	0.3412	0.5213	0.056
Mof_H 	H 	0.6377	0.3192	0.5272	0.043
Mof_C 	C 	0.5173	0.1675	0.4276	-0.2
Mof_C 	C 	0.5612	0.2243	0.4617	0.138
Mof_H 	H 	0.6117	0.2167	0.4618	0.002
Mof_C 	C 	0.5198	0.2294	0.7654	-0.174
Mof_C 	C 	0.5143	0.2797	0.7009	0.121
Mof_H 	H 	0.4675	0.2912	0.6823	0.006
Mof_C 	C 	0.4001	0.1146	0.3884	-0.34
Mof_H 	H 	0.3491	0.1157	0.3856	0.155
Mof_C 	C 	0.4376	0.1725	0.4262	0.359
Mof_C 	C 	0.551	0.1051	0.3928	0.146
Mof_H 	H 	0.6019	0.1014	0.3944	-0.016
Mof_C 	C 	0.513	0.0516	0.3578	-0.261
Mof_H 	H 	0.5369	0.0113	0.3352	0.122
Mof_C 	C 	0.4374	0.0566	0.3556	0.21
Mof_H 	H 	0.4109	0.0192	0.3309	-0.041
Mof_N 	N 	0.5383	0.2854	0.4924	-0.226
Mof_H 	H 	0.4918	0.2932	0.4959	0.16
Mof_N 	N 	0.5695	0.3113	0.6654	-0.221
Mof_H 	H 	0.6128	0.2972	0.679	0.152
Mof_N 	N 	0.7767	0.2363	0.5662	0.073
Mof_O 	O 	0.7741	0.2485	0.4925	-0.134
Mof_O 	O 	0.8363	0.2237	0.602	-0.346
Mof_O 	O 	0.65126	0.2345	0.765	-0.531
Mof_O 	O 	0.7197	0.2409	0.6081	-0.328
Mof_O 	O 	0.4041	0.2288	0.4595	-0.514
Mof_Cl	Cl	0.8893	0.1004	0.7578	-0.266
Mof_Ce	Ce	0.78334	0.21666	0.75	2.757
Mof_Ce	Ce	0.21666	0.78334	0.25	2.747
Mof_Ce	Ce	0.28334	0.28334	0.5	2.752
Mof_Ce	Ce	0.71666	0.71666	-0	2.528
_end
