# CIF file generated by openbabel 3.1.0, see https://openbabel.org
data_I
_chemical_name_common 'image0'
_cell_length_a 39.074
_cell_length_b 9.9645
_cell_length_c 38.846
_cell_angle_alpha 90
_cell_angle_beta 136.438
_cell_angle_gamma 90
_space_group_name_H-M_alt 'P 1'
_space_group_name_Hall 'P 1'
loop_
    _symmetry_equiv_pos_as_xyz
    x,y,z
loop_
    _atom_site_label
    _atom_site_type_symbol
    _atom_site_fract_x
    _atom_site_fract_y
    _atom_site_fract_z
    _atom_site_occupancy
    C1       C        0.36510    0.22740    0.09000    1.000
    N1       N        0.22210    0.34600    0.04720    1.000
    H1       H        0.19280    0.33940    0.01720    1.000
    Zn1      Zn       0.32502    0.31988    0.13035    1.000
    O1       O        0.32580    0.24090    0.04430    1.000
    N2       N        0.05700    0.33680    0.04720    1.000
    H2       H        0.05920    0.36720    0.06940    1.000
    H3       H        0.02920    0.30570    0.01950    1.000
    C2       C        0.41110    0.18700    0.10400    1.000
    H4       H        0.40650    0.09910    0.09110    1.000
    H5       H        0.43900    0.18620    0.13970    1.000
    H6       H        0.41710    0.25010    0.09020    1.000
    Zn2      Zn       0.38484    0.20435    0.25416    1.000
    N3       N        0.39700    0.44430    0.22320    1.000
    H7       H        0.41780    0.46120    0.25460    1.000
    O2       O        0.36930    0.24430    0.12490    1.000
    Zn3      Zn       0.44640    0.08808    0.37755    1.000
    O3       O        0.26284    0.34370    0.05550    1.000
    N4       N        0.44190    0.07410    0.26920    1.000
    H8       H        0.43280    0.14120    0.25020    1.000
    H9       H        0.45880    0.08720    0.30000    1.000
    O4       O        0.27010    0.37410    0.12830    1.000
    N5       N        0.36840    0.96610    0.28300    1.000
    H10      H        0.34540    0.95360    0.25120    1.000
    C3       C        0.22750    0.35790    0.08430    1.000
    O5       O        0.38050    0.31580    0.20650    1.000
    C4       C        0.18200    0.35220    0.07320    1.000
    N6       N        0.32680    0.33410    0.23750    1.000
    H11      H        0.30890    0.31910    0.20650    1.000
    H12      H        0.33830    0.26810    0.25770    1.000
    O6       O        0.35310    0.51760    0.14670    1.000
    N7       N        0.53260    0.93990    0.45460    1.000
    H13      H        0.55300    0.88950    0.48050    1.000
    C5       C        0.13730    0.29810    0.02910    1.000
    H14      H        0.13520    0.26520    0.00520    1.000
    O7       O        0.30210    0.11740    0.12630    1.000
    C6       C        0.09890    0.33790    0.05610    1.000
    N8       N        0.64440    0.54490    0.43060    1.000
    H15      H        0.63980    0.53350    0.40550    1.000
    H16      H        0.66520    0.49500    0.45660    1.000
    O8       O        0.32270    0.08140    0.19520    1.000
    C7       C        0.14310    0.38750    0.10030    1.000
    H17      H        0.14550    0.41770    0.12460    1.000
    O9       O        0.44470    0.32900    0.31280    1.000
    C8       C        0.18420    0.39300    0.10890    1.000
    H18      H        0.21410    0.42490    0.13940    1.000
    O10      O        0.46940    0.28030    0.38390    1.000
    C9       C        0.38180    0.54140    0.19230    1.000
    O11      O        0.38959    0.09050    0.30180    1.000
    C10      C        0.40060    0.67870    0.21370    1.000
    O12      O        0.41410    0.88640    0.36010    1.000
    C11      C        0.42770    0.70730    0.26220    1.000
    H19      H        0.43720    0.63720    0.28360    1.000
    O13      O        0.50175    0.02530    0.44960    1.000
    C12      C        0.44140    0.83640    0.28070    1.000
    H20      H        0.45880    0.85290    0.31360    1.000
    O14      O        0.50130    0.00850    0.38230    1.000
    C13      C        0.42900    0.94190    0.24980    1.000
    O15      O        0.40210    0.16200    0.38470    1.000
    C14      C        0.40240    0.91550    0.20150    1.000
    H21      H        0.39370    0.98550    0.18050    1.000
    O16      O        0.44420    0.14960    0.46460    1.000
    C15      C        0.38780    0.78340    0.18280    1.000
    H22      H        0.36960    0.76660    0.14960    1.000
    C16      C        0.29520    0.06660    0.15000    1.000
    C17      C        0.25100    0.97840    0.12310    1.000
    H23      H        0.24590    0.96460    0.14360    1.000
    H24      H        0.25650    0.89350    0.11610    1.000
    H25      H        0.22210    0.02030    0.09230    1.000
    C18      C        0.47050    0.34970    0.35810    1.000
    C19      C        0.50420    0.46930    0.38240    1.000
    H26      H        0.48870    0.54200    0.38320    1.000
    H27      H        0.51060    0.49580    0.36370    1.000
    H28      H        0.53500    0.44660    0.41590    1.000
    C20      C        0.38270    0.86650    0.31290    1.000
    C21      C        0.36310    0.73120    0.29140    1.000
    C22      C        0.33200    0.70480    0.24170    1.000
    H29      H        0.31900    0.77590    0.21960    1.000
    C23      C        0.31930    0.57450    0.22340    1.000
    H30      H        0.29850    0.55920    0.18960    1.000
    C24      C        0.33750    0.46790    0.25530    1.000
    C25      C        0.36630    0.49310    0.30490    1.000
    H31      H        0.37730    0.42240    0.32650    1.000
    C26      C        0.37900    0.62370    0.32250    1.000
    H32      H        0.39870    0.63950    0.35610    1.000
    C27      C        0.53090    0.93550    0.41890    1.000
    C28      C        0.56390    0.83720    0.42550    1.000
    C29      C        0.56020    0.82090    0.38790    1.000
    H33      H        0.53950    0.87850    0.36060    1.000
    C30      C        0.58560    0.72310    0.38870    1.000
    H34      H        0.58010    0.71210    0.36120    1.000
    C31      C        0.61860    0.64270    0.42910    1.000
    C32      C        0.62400    0.65570    0.46940    1.000
    H35      H        0.64580    0.60040    0.49730    1.000
    C33      C        0.59640    0.75210    0.46630    1.000
    H36      H        0.59960    0.76010    0.49240    1.000
    C34      C        0.40860    0.18840    0.42000    1.000
    C35      C        0.37070    0.27860    0.41080    1.000
    H37      H        0.38760    0.35210    0.43390    1.000
    H38      H        0.35340    0.22730    0.41540    1.000
    H39      H        0.34720    0.31270    0.37720    1.000
    C36      C        0.09610    0.29220    0.02010    1.000
    H40      H        0.06630    0.25790    0.99000    1.000
    C37      C        0.86510    0.72740    0.09000    1.000
    N9       N        0.72210    0.84600    0.04720    1.000
    H41      H        0.69280    0.83940    0.01720    1.000
    Zn4      Zn       0.82502    0.81988    0.13035    1.000
    O17      O        0.82580    0.74090    0.04430    1.000
    N10      N        0.55700    0.83680    0.04720    1.000
    H42      H        0.55920    0.86720    0.06940    1.000
    H43      H        0.52920    0.80570    0.01950    1.000
    C38      C        0.91110    0.68700    0.10400    1.000
    H44      H        0.90650    0.59910    0.09110    1.000
    H45      H        0.93900    0.68620    0.13970    1.000
    H46      H        0.91710    0.75010    0.09020    1.000
    Zn5      Zn       0.88484    0.70435    0.25416    1.000
    N11      N        0.89700    0.94430    0.22320    1.000
    H47      H        0.91780    0.96120    0.25460    1.000
    O18      O        0.86930    0.74430    0.12490    1.000
    Zn6      Zn       0.94640    0.58808    0.37755    1.000
    O19      O        0.76284    0.84370    0.05550    1.000
    N12      N        0.94190    0.57410    0.26920    1.000
    H48      H        0.93280    0.64120    0.25020    1.000
    H49      H        0.95880    0.58720    0.30000    1.000
    O20      O        0.77010    0.87410    0.12830    1.000
    N13      N        0.86840    0.46610    0.28300    1.000
    H50      H        0.84540    0.45360    0.25120    1.000
    C39      C        0.72750    0.85790    0.08430    1.000
    O21      O        0.88050    0.81580    0.20650    1.000
    C40      C        0.68200    0.85220    0.07320    1.000
    N14      N        0.82680    0.83410    0.23750    1.000
    H51      H        0.80890    0.81910    0.20650    1.000
    H52      H        0.83830    0.76810    0.25770    1.000
    O22      O        0.85310    0.01760    0.14670    1.000
    N15      N        0.03260    0.43990    0.45460    1.000
    H53      H        0.05300    0.38950    0.48050    1.000
    C41      C        0.63730    0.79810    0.02910    1.000
    H54      H        0.63520    0.76520    0.00520    1.000
    O23      O        0.80210    0.61740    0.12630    1.000
    C42      C        0.59890    0.83790    0.05610    1.000
    N16      N        0.14440    0.04490    0.43060    1.000
    H55      H        0.13980    0.03350    0.40550    1.000
    H56      H        0.16520    0.99500    0.45660    1.000
    O24      O        0.82270    0.58140    0.19520    1.000
    C43      C        0.64310    0.88750    0.10030    1.000
    H57      H        0.64550    0.91770    0.12460    1.000
    O25      O        0.94470    0.82900    0.31280    1.000
    C44      C        0.68420    0.89300    0.10890    1.000
    H58      H        0.71410    0.92490    0.13940    1.000
    O26      O        0.96940    0.78030    0.38390    1.000
    C45      C        0.88180    0.04140    0.19230    1.000
    O27      O        0.88959    0.59050    0.30180    1.000
    C46      C        0.90060    0.17870    0.21370    1.000
    O28      O        0.91410    0.38640    0.36010    1.000
    C47      C        0.92770    0.20730    0.26220    1.000
    H59      H        0.93720    0.13720    0.28360    1.000
    O29      O        0.00175    0.52530    0.44960    1.000
    C48      C        0.94140    0.33640    0.28070    1.000
    H60      H        0.95880    0.35290    0.31360    1.000
    O30      O        0.00130    0.50850    0.38230    1.000
    C49      C        0.92900    0.44190    0.24980    1.000
    O31      O        0.90210    0.66200    0.38470    1.000
    C50      C        0.90240    0.41550    0.20150    1.000
    H61      H        0.89370    0.48550    0.18050    1.000
    O32      O        0.94420    0.64960    0.46460    1.000
    C51      C        0.88780    0.28340    0.18280    1.000
    H62      H        0.86960    0.26660    0.14960    1.000
    C52      C        0.79520    0.56660    0.15000    1.000
    C53      C        0.75100    0.47840    0.12310    1.000
    H63      H        0.74590    0.46460    0.14360    1.000
    H64      H        0.75650    0.39350    0.11610    1.000
    H65      H        0.72210    0.52030    0.09230    1.000
    C54      C        0.97050    0.84970    0.35810    1.000
    C55      C        0.00420    0.96930    0.38240    1.000
    H66      H        0.98870    0.04200    0.38320    1.000
    H67      H        0.01060    0.99580    0.36370    1.000
    H68      H        0.03500    0.94660    0.41590    1.000
    C56      C        0.88270    0.36650    0.31290    1.000
    C57      C        0.86310    0.23120    0.29140    1.000
    C58      C        0.83200    0.20480    0.24170    1.000
    H69      H        0.81900    0.27590    0.21960    1.000
    C59      C        0.81930    0.07450    0.22340    1.000
    H70      H        0.79850    0.05920    0.18960    1.000
    C60      C        0.83750    0.96790    0.25530    1.000
    C61      C        0.86630    0.99310    0.30490    1.000
    H71      H        0.87730    0.92240    0.32650    1.000
    C62      C        0.87900    0.12370    0.32250    1.000
    H72      H        0.89870    0.13950    0.35610    1.000
    C63      C        0.03090    0.43550    0.41890    1.000
    C64      C        0.06390    0.33720    0.42550    1.000
    C65      C        0.06020    0.32090    0.38790    1.000
    H73      H        0.03950    0.37850    0.36060    1.000
    C66      C        0.08560    0.22310    0.38870    1.000
    H74      H        0.08010    0.21210    0.36120    1.000
    C67      C        0.11860    0.14270    0.42910    1.000
    C68      C        0.12400    0.15570    0.46940    1.000
    H75      H        0.14580    0.10040    0.49730    1.000
    C69      C        0.09640    0.25210    0.46630    1.000
    H76      H        0.09960    0.26010    0.49240    1.000
    C70      C        0.90860    0.68840    0.42000    1.000
    C71      C        0.87070    0.77860    0.41080    1.000
    H77      H        0.88760    0.85210    0.43390    1.000
    H78      H        0.85340    0.72730    0.41540    1.000
    H79      H        0.84720    0.81270    0.37720    1.000
    C72      C        0.59610    0.79220    0.02010    1.000
    H80      H        0.56630    0.75790    0.99000    1.000
    C73      C        0.63490    0.77260    0.91000    1.000
    N17      N        0.77790    0.65400    0.95280    1.000
    H81      H        0.80720    0.66060    0.98280    1.000
    Zn7      Zn       0.67498    0.68012    0.86965    1.000
    O33      O        0.67420    0.75910    0.95570    1.000
    N18      N        0.94300    0.66320    0.95280    1.000
    H82      H        0.94080    0.63280    0.93060    1.000
    H83      H        0.97080    0.69430    0.98050    1.000
    C74      C        0.58890    0.81300    0.89600    1.000
    H84      H        0.59350    0.90090    0.90890    1.000
    H85      H        0.56100    0.81380    0.86030    1.000
    H86      H        0.58290    0.74990    0.90980    1.000
    Zn8      Zn       0.61516    0.79565    0.74584    1.000
    N19      N        0.60300    0.55570    0.77680    1.000
    H87      H        0.58220    0.53880    0.74540    1.000
    O34      O        0.63070    0.75570    0.87510    1.000
    Zn9      Zn       0.55360    0.91192    0.62245    1.000
    O35      O        0.73716    0.65630    0.94450    1.000
    N20      N        0.55810    0.92590    0.73080    1.000
    H88      H        0.56720    0.85880    0.74980    1.000
    H89      H        0.54120    0.91280    0.70000    1.000
    O36      O        0.72990    0.62590    0.87170    1.000
    N21      N        0.63160    0.03390    0.71700    1.000
    H90      H        0.65460    0.04640    0.74880    1.000
    C75      C        0.77250    0.64210    0.91570    1.000
    O37      O        0.61950    0.68420    0.79350    1.000
    C76      C        0.81800    0.64780    0.92680    1.000
    N22      N        0.67320    0.66590    0.76250    1.000
    H91      H        0.69110    0.68090    0.79350    1.000
    H92      H        0.66170    0.73190    0.74230    1.000
    O38      O        0.64690    0.48240    0.85330    1.000
    N23      N        0.46740    0.06010    0.54540    1.000
    H93      H        0.44700    0.11050    0.51950    1.000
    C77      C        0.86270    0.70190    0.97090    1.000
    H94      H        0.86480    0.73480    0.99480    1.000
    O39      O        0.69790    0.88260    0.87370    1.000
    C78      C        0.90110    0.66210    0.94390    1.000
    N24      N        0.35560    0.45510    0.56940    1.000
    H95      H        0.36020    0.46650    0.59450    1.000
    H96      H        0.33480    0.50500    0.54340    1.000
    O40      O        0.67730    0.91860    0.80480    1.000
    C79      C        0.85690    0.61250    0.89970    1.000
    H97      H        0.85450    0.58230    0.87540    1.000
    O41      O        0.55530    0.67100    0.68720    1.000
    C80      C        0.81580    0.60700    0.89110    1.000
    H98      H        0.78590    0.57510    0.86060    1.000
    O42      O        0.53060    0.71970    0.61610    1.000
    C81      C        0.61820    0.45860    0.80770    1.000
    O43      O        0.61041    0.90950    0.69820    1.000
    C82      C        0.59940    0.32130    0.78630    1.000
    O44      O        0.58590    0.11360    0.63990    1.000
    C83      C        0.57230    0.29270    0.73780    1.000
    H99      H        0.56280    0.36280    0.71640    1.000
    O45      O        0.49825    0.97470    0.55040    1.000
    C84      C        0.55860    0.16360    0.71930    1.000
    H100     H        0.54120    0.14710    0.68640    1.000
    O46      O        0.49870    0.99150    0.61770    1.000
    C85      C        0.57100    0.05810    0.75020    1.000
    O47      O        0.59790    0.83800    0.61530    1.000
    C86      C        0.59760    0.08450    0.79850    1.000
    H101     H        0.60630    0.01450    0.81950    1.000
    O48      O        0.55580    0.85040    0.53540    1.000
    C87      C        0.61220    0.21660    0.81720    1.000
    H102     H        0.63040    0.23340    0.85040    1.000
    C88      C        0.70480    0.93340    0.85000    1.000
    C89      C        0.74900    0.02160    0.87690    1.000
    H103     H        0.75410    0.03540    0.85640    1.000
    H104     H        0.74350    0.10650    0.88390    1.000
    H105     H        0.77790    0.97970    0.90770    1.000
    C90      C        0.52950    0.65030    0.64190    1.000
    C91      C        0.49580    0.53070    0.61760    1.000
    H106     H        0.51130    0.45800    0.61680    1.000
    H107     H        0.48940    0.50420    0.63630    1.000
    H108     H        0.46500    0.55340    0.58410    1.000
    C92      C        0.61730    0.13350    0.68710    1.000
    C93      C        0.63690    0.26880    0.70860    1.000
    C94      C        0.66800    0.29520    0.75830    1.000
    H109     H        0.68100    0.22410    0.78040    1.000
    C95      C        0.68070    0.42550    0.77660    1.000
    H110     H        0.70150    0.44080    0.81040    1.000
    C96      C        0.66250    0.53210    0.74470    1.000
    C97      C        0.63370    0.50690    0.69510    1.000
    H111     H        0.62270    0.57760    0.67350    1.000
    C98      C        0.62100    0.37630    0.67750    1.000
    H112     H        0.60130    0.36050    0.64390    1.000
    C99      C        0.46910    0.06450    0.58110    1.000
    C100     C        0.43610    0.16280    0.57450    1.000
    C101     C        0.43980    0.17910    0.61210    1.000
    H113     H        0.46050    0.12150    0.63940    1.000
    C102     C        0.41440    0.27690    0.61130    1.000
    H114     H        0.41990    0.28790    0.63880    1.000
    C103     C        0.38140    0.35730    0.57090    1.000
    C104     C        0.37600    0.34430    0.53060    1.000
    H115     H        0.35420    0.39960    0.50270    1.000
    C105     C        0.40360    0.24790    0.53370    1.000
    H116     H        0.40040    0.23990    0.50760    1.000
    C106     C        0.59140    0.81160    0.58000    1.000
    C107     C        0.62930    0.72140    0.58920    1.000
    H117     H        0.61240    0.64790    0.56610    1.000
    H118     H        0.64660    0.77270    0.58460    1.000
    H119     H        0.65280    0.68730    0.62280    1.000
    C108     C        0.90390    0.70780    0.97990    1.000
    H120     H        0.93370    0.74210    0.01000    1.000
    C109     C        0.13490    0.27260    0.91000    1.000
    N25      N        0.27790    0.15400    0.95280    1.000
    H121     H        0.30720    0.16060    0.98280    1.000
    Zn10     Zn       0.17498    0.18012    0.86965    1.000
    O49      O        0.17420    0.25910    0.95570    1.000
    N26      N        0.44300    0.16320    0.95280    1.000
    H122     H        0.44080    0.13280    0.93060    1.000
    H123     H        0.47080    0.19430    0.98050    1.000
    C110     C        0.08890    0.31300    0.89600    1.000
    H124     H        0.09350    0.40090    0.90890    1.000
    H125     H        0.06100    0.31380    0.86030    1.000
    H126     H        0.08290    0.24990    0.90980    1.000
    Zn11     Zn       0.11516    0.29565    0.74584    1.000
    N27      N        0.10300    0.05570    0.77680    1.000
    H127     H        0.08220    0.03880    0.74540    1.000
    O50      O        0.13070    0.25570    0.87510    1.000
    Zn12     Zn       0.05360    0.41192    0.62245    1.000
    O51      O        0.23716    0.15630    0.94450    1.000
    N28      N        0.05810    0.42590    0.73080    1.000
    H128     H        0.06720    0.35880    0.74980    1.000
    H129     H        0.04120    0.41280    0.70000    1.000
    O52      O        0.22990    0.12590    0.87170    1.000
    N29      N        0.13160    0.53390    0.71700    1.000
    H130     H        0.15460    0.54640    0.74880    1.000
    C111     C        0.27250    0.14210    0.91570    1.000
    O53      O        0.11950    0.18420    0.79350    1.000
    C112     C        0.31800    0.14780    0.92680    1.000
    N30      N        0.17320    0.16590    0.76250    1.000
    H131     H        0.19110    0.18090    0.79350    1.000
    H132     H        0.16170    0.23190    0.74230    1.000
    O54      O        0.14690    0.98240    0.85330    1.000
    N31      N        0.96740    0.56010    0.54540    1.000
    H133     H        0.94700    0.61050    0.51950    1.000
    C113     C        0.36270    0.20190    0.97090    1.000
    H134     H        0.36480    0.23480    0.99480    1.000
    O55      O        0.19790    0.38260    0.87370    1.000
    C114     C        0.40110    0.16210    0.94390    1.000
    N32      N        0.85560    0.95510    0.56940    1.000
    H135     H        0.86020    0.96650    0.59450    1.000
    H136     H        0.83480    0.00500    0.54340    1.000
    O56      O        0.17730    0.41860    0.80480    1.000
    C115     C        0.35690    0.11250    0.89970    1.000
    H137     H        0.35450    0.08230    0.87540    1.000
    O57      O        0.05530    0.17100    0.68720    1.000
    C116     C        0.31580    0.10700    0.89110    1.000
    H138     H        0.28590    0.07510    0.86060    1.000
    O58      O        0.03060    0.21970    0.61610    1.000
    C117     C        0.11820    0.95860    0.80770    1.000
    O59      O        0.11041    0.40950    0.69820    1.000
    C118     C        0.09940    0.82130    0.78630    1.000
    O60      O        0.08590    0.61360    0.63990    1.000
    C119     C        0.07230    0.79270    0.73780    1.000
    H139     H        0.06280    0.86280    0.71640    1.000
    O61      O        0.99825    0.47470    0.55040    1.000
    C120     C        0.05860    0.66360    0.71930    1.000
    H140     H        0.04120    0.64710    0.68640    1.000
    O62      O        0.99870    0.49150    0.61770    1.000
    C121     C        0.07100    0.55810    0.75020    1.000
    O63      O        0.09790    0.33800    0.61530    1.000
    C122     C        0.09760    0.58450    0.79850    1.000
    H141     H        0.10630    0.51450    0.81950    1.000
    O64      O        0.05580    0.35040    0.53540    1.000
    C123     C        0.11220    0.71660    0.81720    1.000
    H142     H        0.13040    0.73340    0.85040    1.000
    C124     C        0.20480    0.43340    0.85000    1.000
    C125     C        0.24900    0.52160    0.87690    1.000
    H143     H        0.25410    0.53540    0.85640    1.000
    H144     H        0.24350    0.60650    0.88390    1.000
    H145     H        0.27790    0.47970    0.90770    1.000
    C126     C        0.02950    0.15030    0.64190    1.000
    C127     C        0.99580    0.03070    0.61760    1.000
    H146     H        0.01130    0.95800    0.61680    1.000
    H147     H        0.98940    0.00420    0.63630    1.000
    H148     H        0.96500    0.05340    0.58410    1.000
    C128     C        0.11730    0.63350    0.68710    1.000
    C129     C        0.13690    0.76880    0.70860    1.000
    C130     C        0.16800    0.79520    0.75830    1.000
    H149     H        0.18100    0.72410    0.78040    1.000
    C131     C        0.18070    0.92550    0.77660    1.000
    H150     H        0.20150    0.94080    0.81040    1.000
    C132     C        0.16250    0.03210    0.74470    1.000
    C133     C        0.13370    0.00690    0.69510    1.000
    H151     H        0.12270    0.07760    0.67350    1.000
    C134     C        0.12100    0.87630    0.67750    1.000
    H152     H        0.10130    0.86050    0.64390    1.000
    C135     C        0.96910    0.56450    0.58110    1.000
    C136     C        0.93610    0.66280    0.57450    1.000
    C137     C        0.93980    0.67910    0.61210    1.000
    H153     H        0.96050    0.62150    0.63940    1.000
    C138     C        0.91440    0.77690    0.61130    1.000
    H154     H        0.91990    0.78790    0.63880    1.000
    C139     C        0.88140    0.85730    0.57090    1.000
    C140     C        0.87600    0.84430    0.53060    1.000
    H155     H        0.85420    0.89960    0.50270    1.000
    C141     C        0.90360    0.74790    0.53370    1.000
    H156     H        0.90040    0.73990    0.50760    1.000
    C142     C        0.09140    0.31160    0.58000    1.000
    C143     C        0.12930    0.22140    0.58920    1.000
    H157     H        0.11240    0.14790    0.56610    1.000
    H158     H        0.14660    0.27270    0.58460    1.000
    H159     H        0.15280    0.18730    0.62280    1.000
    C144     C        0.40390    0.20780    0.97990    1.000
    H160     H        0.43370    0.24210    0.01000    1.000
    Zn13     Zn       0.25000    0.25000    0.00000    1.000
    Zn14     Zn       0.75000    0.75000    0.00000    1.000
    Zn15     Zn       0.00000    0.50000    0.50000    1.000
    Zn16     Zn       0.50000    0.00000    0.50000    1.000
    C145     C        0.63490    0.22740    0.41000    1.000
    N33      N        0.77790    0.34600    0.45280    1.000
    H161     H        0.80720    0.33940    0.48280    1.000
    Zn17     Zn       0.67498    0.31988    0.36965    1.000
    O65      O        0.67420    0.24090    0.45570    1.000
    N34      N        0.94300    0.33680    0.45280    1.000
    H162     H        0.94080    0.36720    0.43060    1.000
    H163     H        0.97080    0.30570    0.48050    1.000
    C146     C        0.58890    0.18700    0.39600    1.000
    H164     H        0.59350    0.09910    0.40890    1.000
    H165     H        0.56100    0.18620    0.36030    1.000
    H166     H        0.58290    0.25010    0.40980    1.000
    Zn18     Zn       0.61516    0.20435    0.24584    1.000
    N35      N        0.60300    0.44430    0.27680    1.000
    H167     H        0.58220    0.46120    0.24540    1.000
    O66      O        0.63070    0.24430    0.37510    1.000
    Zn19     Zn       0.55360    0.08808    0.12245    1.000
    O67      O        0.73716    0.34370    0.44450    1.000
    N36      N        0.55810    0.07410    0.23080    1.000
    H168     H        0.56720    0.14120    0.24980    1.000
    H169     H        0.54120    0.08720    0.20000    1.000
    O68      O        0.72990    0.37410    0.37170    1.000
    N37      N        0.63160    0.96610    0.21700    1.000
    H170     H        0.65460    0.95360    0.24880    1.000
    C147     C        0.77250    0.35790    0.41570    1.000
    O69      O        0.61950    0.31580    0.29350    1.000
    C148     C        0.81800    0.35220    0.42680    1.000
    N38      N        0.67320    0.33410    0.26250    1.000
    H171     H        0.69110    0.31910    0.29350    1.000
    H172     H        0.66170    0.26810    0.24230    1.000
    O70      O        0.64690    0.51760    0.35330    1.000
    N39      N        0.46740    0.93990    0.04540    1.000
    H173     H        0.44700    0.88950    0.01950    1.000
    C149     C        0.86270    0.29810    0.47090    1.000
    H174     H        0.86480    0.26520    0.49480    1.000
    O71      O        0.69790    0.11740    0.37370    1.000
    C150     C        0.90110    0.33790    0.44390    1.000
    N40      N        0.35560    0.54490    0.06940    1.000
    H175     H        0.36020    0.53350    0.09450    1.000
    H176     H        0.33480    0.49500    0.04340    1.000
    O72      O        0.67730    0.08140    0.30480    1.000
    C151     C        0.85690    0.38750    0.39970    1.000
    H177     H        0.85450    0.41770    0.37540    1.000
    O73      O        0.55530    0.32900    0.18720    1.000
    C152     C        0.81580    0.39300    0.39110    1.000
    H178     H        0.78590    0.42490    0.36060    1.000
    O74      O        0.53060    0.28030    0.11610    1.000
    C153     C        0.61820    0.54140    0.30770    1.000
    O75      O        0.61041    0.09050    0.19820    1.000
    C154     C        0.59940    0.67870    0.28630    1.000
    O76      O        0.58590    0.88640    0.13990    1.000
    C155     C        0.57230    0.70730    0.23780    1.000
    H179     H        0.56280    0.63720    0.21640    1.000
    O77      O        0.49825    0.02530    0.05040    1.000
    C156     C        0.55860    0.83640    0.21930    1.000
    H180     H        0.54120    0.85290    0.18640    1.000
    O78      O        0.49870    0.00850    0.11770    1.000
    C157     C        0.57100    0.94190    0.25020    1.000
    O79      O        0.59790    0.16200    0.11530    1.000
    C158     C        0.59760    0.91550    0.29850    1.000
    H181     H        0.60630    0.98550    0.31950    1.000
    O80      O        0.55580    0.14960    0.03540    1.000
    C159     C        0.61220    0.78340    0.31720    1.000
    H182     H        0.63040    0.76660    0.35040    1.000
    C160     C        0.70480    0.06660    0.35000    1.000
    C161     C        0.74900    0.97840    0.37690    1.000
    H183     H        0.75410    0.96460    0.35640    1.000
    H184     H        0.74350    0.89350    0.38390    1.000
    H185     H        0.77790    0.02030    0.40770    1.000
    C162     C        0.52950    0.34970    0.14190    1.000
    C163     C        0.49580    0.46930    0.11760    1.000
    H186     H        0.51130    0.54200    0.11680    1.000
    H187     H        0.48940    0.49580    0.13630    1.000
    H188     H        0.46500    0.44660    0.08410    1.000
    C164     C        0.61730    0.86650    0.18710    1.000
    C165     C        0.63690    0.73120    0.20860    1.000
    C166     C        0.66800    0.70480    0.25830    1.000
    H189     H        0.68100    0.77590    0.28040    1.000
    C167     C        0.68070    0.57450    0.27660    1.000
    H190     H        0.70150    0.55920    0.31040    1.000
    C168     C        0.66250    0.46790    0.24470    1.000
    C169     C        0.63370    0.49310    0.19510    1.000
    H191     H        0.62270    0.42240    0.17350    1.000
    C170     C        0.62100    0.62370    0.17750    1.000
    H192     H        0.60130    0.63950    0.14390    1.000
    C171     C        0.46910    0.93550    0.08110    1.000
    C172     C        0.43610    0.83720    0.07450    1.000
    C173     C        0.43980    0.82090    0.11210    1.000
    H193     H        0.46050    0.87850    0.13940    1.000
    C174     C        0.41440    0.72310    0.11130    1.000
    H194     H        0.41990    0.71210    0.13880    1.000
    C175     C        0.38140    0.64270    0.07090    1.000
    C176     C        0.37600    0.65570    0.03060    1.000
    H195     H        0.35420    0.60040    0.00270    1.000
    C177     C        0.40360    0.75210    0.03370    1.000
    H196     H        0.40040    0.76010    0.00760    1.000
    C178     C        0.59140    0.18840    0.08000    1.000
    C179     C        0.62930    0.27860    0.08920    1.000
    H197     H        0.61240    0.35210    0.06610    1.000
    H198     H        0.64660    0.22730    0.08460    1.000
    H199     H        0.65280    0.31270    0.12280    1.000
    C180     C        0.90390    0.29220    0.47990    1.000
    H200     H        0.93370    0.25790    0.51000    1.000
    C181     C        0.13490    0.72740    0.41000    1.000
    N41      N        0.27790    0.84600    0.45280    1.000
    H201     H        0.30720    0.83940    0.48280    1.000
    Zn20     Zn       0.17498    0.81988    0.36965    1.000
    O81      O        0.17420    0.74090    0.45570    1.000
    N42      N        0.44300    0.83680    0.45280    1.000
    H202     H        0.44080    0.86720    0.43060    1.000
    H203     H        0.47080    0.80570    0.48050    1.000
    C182     C        0.08890    0.68700    0.39600    1.000
    H204     H        0.09350    0.59910    0.40890    1.000
    H205     H        0.06100    0.68620    0.36030    1.000
    H206     H        0.08290    0.75010    0.40980    1.000
    Zn21     Zn       0.11516    0.70435    0.24584    1.000
    N43      N        0.10300    0.94430    0.27680    1.000
    H207     H        0.08220    0.96120    0.24540    1.000
    O82      O        0.13070    0.74430    0.37510    1.000
    Zn22     Zn       0.05360    0.58808    0.12245    1.000
    O83      O        0.23716    0.84370    0.44450    1.000
    N44      N        0.05810    0.57410    0.23080    1.000
    H208     H        0.06720    0.64120    0.24980    1.000
    H209     H        0.04120    0.58720    0.20000    1.000
    O84      O        0.22990    0.87410    0.37170    1.000
    N45      N        0.13160    0.46610    0.21700    1.000
    H210     H        0.15460    0.45360    0.24880    1.000
    C183     C        0.27250    0.85790    0.41570    1.000
    O85      O        0.11950    0.81580    0.29350    1.000
    C184     C        0.31800    0.85220    0.42680    1.000
    N46      N        0.17320    0.83410    0.26250    1.000
    H211     H        0.19110    0.81910    0.29350    1.000
    H212     H        0.16170    0.76810    0.24230    1.000
    O86      O        0.14690    0.01760    0.35330    1.000
    N47      N        0.96740    0.43990    0.04540    1.000
    H213     H        0.94700    0.38950    0.01950    1.000
    C185     C        0.36270    0.79810    0.47090    1.000
    H214     H        0.36480    0.76520    0.49480    1.000
    O87      O        0.19790    0.61740    0.37370    1.000
    C186     C        0.40110    0.83790    0.44390    1.000
    N48      N        0.85560    0.04490    0.06940    1.000
    H215     H        0.86020    0.03350    0.09450    1.000
    H216     H        0.83480    0.99500    0.04340    1.000
    O88      O        0.17730    0.58140    0.30480    1.000
    C187     C        0.35690    0.88750    0.39970    1.000
    H217     H        0.35450    0.91770    0.37540    1.000
    O89      O        0.05530    0.82900    0.18720    1.000
    C188     C        0.31580    0.89300    0.39110    1.000
    H218     H        0.28590    0.92490    0.36060    1.000
    O90      O        0.03060    0.78030    0.11610    1.000
    C189     C        0.11820    0.04140    0.30770    1.000
    O91      O        0.11041    0.59050    0.19820    1.000
    C190     C        0.09940    0.17870    0.28630    1.000
    O92      O        0.08590    0.38640    0.13990    1.000
    C191     C        0.07230    0.20730    0.23780    1.000
    H219     H        0.06280    0.13720    0.21640    1.000
    O93      O        0.99825    0.52530    0.05040    1.000
    C192     C        0.05860    0.33640    0.21930    1.000
    H220     H        0.04120    0.35290    0.18640    1.000
    O94      O        0.99870    0.50850    0.11770    1.000
    C193     C        0.07100    0.44190    0.25020    1.000
    O95      O        0.09790    0.66200    0.11530    1.000
    C194     C        0.09760    0.41550    0.29850    1.000
    H221     H        0.10630    0.48550    0.31950    1.000
    O96      O        0.05580    0.64960    0.03540    1.000
    C195     C        0.11220    0.28340    0.31720    1.000
    H222     H        0.13040    0.26660    0.35040    1.000
    C196     C        0.20480    0.56660    0.35000    1.000
    C197     C        0.24900    0.47840    0.37690    1.000
    H223     H        0.25410    0.46460    0.35640    1.000
    H224     H        0.24350    0.39350    0.38390    1.000
    H225     H        0.27790    0.52030    0.40770    1.000
    C198     C        0.02950    0.84970    0.14190    1.000
    C199     C        0.99580    0.96930    0.11760    1.000
    H226     H        0.01130    0.04200    0.11680    1.000
    H227     H        0.98940    0.99580    0.13630    1.000
    H228     H        0.96500    0.94660    0.08410    1.000
    C200     C        0.11730    0.36650    0.18710    1.000
    C201     C        0.13690    0.23120    0.20860    1.000
    C202     C        0.16800    0.20480    0.25830    1.000
    H229     H        0.18100    0.27590    0.28040    1.000
    C203     C        0.18070    0.07450    0.27660    1.000
    H230     H        0.20150    0.05920    0.31040    1.000
    C204     C        0.16250    0.96790    0.24470    1.000
    C205     C        0.13370    0.99310    0.19510    1.000
    H231     H        0.12270    0.92240    0.17350    1.000
    C206     C        0.12100    0.12370    0.17750    1.000
    H232     H        0.10130    0.13950    0.14390    1.000
    C207     C        0.96910    0.43550    0.08110    1.000
    C208     C        0.93610    0.33720    0.07450    1.000
    C209     C        0.93980    0.32090    0.11210    1.000
    H233     H        0.96050    0.37850    0.13940    1.000
    C210     C        0.91440    0.22310    0.11130    1.000
    H234     H        0.91990    0.21210    0.13880    1.000
    C211     C        0.88140    0.14270    0.07090    1.000
    C212     C        0.87600    0.15570    0.03060    1.000
    H235     H        0.85420    0.10040    0.00270    1.000
    C213     C        0.90360    0.25210    0.03370    1.000
    H236     H        0.90040    0.26010    0.00760    1.000
    C214     C        0.09140    0.68840    0.08000    1.000
    C215     C        0.12930    0.77860    0.08920    1.000
    H237     H        0.11240    0.85210    0.06610    1.000
    H238     H        0.14660    0.72730    0.08460    1.000
    H239     H        0.15280    0.81270    0.12280    1.000
    C216     C        0.40390    0.79220    0.47990    1.000
    H240     H        0.43370    0.75790    0.51000    1.000
    C217     C        0.36510    0.77260    0.59000    1.000
    N49      N        0.22210    0.65400    0.54720    1.000
    H241     H        0.19280    0.66060    0.51720    1.000
    Zn23     Zn       0.32502    0.68012    0.63035    1.000
    O97      O        0.32580    0.75910    0.54430    1.000
    N50      N        0.05700    0.66320    0.54720    1.000
    H242     H        0.05920    0.63280    0.56940    1.000
    H243     H        0.02920    0.69430    0.51950    1.000
    C218     C        0.41110    0.81300    0.60400    1.000
    H244     H        0.40650    0.90090    0.59110    1.000
    H245     H        0.43900    0.81380    0.63970    1.000
    H246     H        0.41710    0.74990    0.59020    1.000
    Zn24     Zn       0.38484    0.79565    0.75416    1.000
    N51      N        0.39700    0.55570    0.72320    1.000
    H247     H        0.41780    0.53880    0.75460    1.000
    O98      O        0.36930    0.75570    0.62490    1.000
    Zn25     Zn       0.44640    0.91192    0.87755    1.000
    O99      O        0.26284    0.65630    0.55550    1.000
    N52      N        0.44190    0.92590    0.76920    1.000
    H248     H        0.43280    0.85880    0.75020    1.000
    H249     H        0.45880    0.91280    0.80000    1.000
    O100     O        0.27010    0.62590    0.62830    1.000
    N53      N        0.36840    0.03390    0.78300    1.000
    H250     H        0.34540    0.04640    0.75120    1.000
    C219     C        0.22750    0.64210    0.58430    1.000
    O101     O        0.38050    0.68420    0.70650    1.000
    C220     C        0.18200    0.64780    0.57320    1.000
    N54      N        0.32680    0.66590    0.73750    1.000
    H251     H        0.30890    0.68090    0.70650    1.000
    H252     H        0.33830    0.73190    0.75770    1.000
    O102     O        0.35310    0.48240    0.64670    1.000
    N55      N        0.53260    0.06010    0.95460    1.000
    H253     H        0.55300    0.11050    0.98050    1.000
    C221     C        0.13730    0.70190    0.52910    1.000
    H254     H        0.13520    0.73480    0.50520    1.000
    O103     O        0.30210    0.88260    0.62630    1.000
    C222     C        0.09890    0.66210    0.55610    1.000
    N56      N        0.64440    0.45510    0.93060    1.000
    H255     H        0.63980    0.46650    0.90550    1.000
    H256     H        0.66520    0.50500    0.95660    1.000
    O104     O        0.32270    0.91860    0.69520    1.000
    C223     C        0.14310    0.61250    0.60030    1.000
    H257     H        0.14550    0.58230    0.62460    1.000
    O105     O        0.44470    0.67100    0.81280    1.000
    C224     C        0.18420    0.60700    0.60890    1.000
    H258     H        0.21410    0.57510    0.63940    1.000
    O106     O        0.46940    0.71970    0.88390    1.000
    C225     C        0.38180    0.45860    0.69230    1.000
    O107     O        0.38959    0.90950    0.80180    1.000
    C226     C        0.40060    0.32130    0.71370    1.000
    O108     O        0.41410    0.11360    0.86010    1.000
    C227     C        0.42770    0.29270    0.76220    1.000
    H259     H        0.43720    0.36280    0.78360    1.000
    O109     O        0.50175    0.97470    0.94960    1.000
    C228     C        0.44140    0.16360    0.78070    1.000
    H260     H        0.45880    0.14710    0.81360    1.000
    O110     O        0.50130    0.99150    0.88230    1.000
    C229     C        0.42900    0.05810    0.74980    1.000
    O111     O        0.40210    0.83800    0.88470    1.000
    C230     C        0.40240    0.08450    0.70150    1.000
    H261     H        0.39370    0.01450    0.68050    1.000
    O112     O        0.44420    0.85040    0.96460    1.000
    C231     C        0.38780    0.21660    0.68280    1.000
    H262     H        0.36960    0.23340    0.64960    1.000
    C232     C        0.29520    0.93340    0.65000    1.000
    C233     C        0.25100    0.02160    0.62310    1.000
    H263     H        0.24590    0.03540    0.64360    1.000
    H264     H        0.25650    0.10650    0.61610    1.000
    H265     H        0.22210    0.97970    0.59230    1.000
    C234     C        0.47050    0.65030    0.85810    1.000
    C235     C        0.50420    0.53070    0.88240    1.000
    H266     H        0.48870    0.45800    0.88320    1.000
    H267     H        0.51060    0.50420    0.86370    1.000
    H268     H        0.53500    0.55340    0.91590    1.000
    C236     C        0.38270    0.13350    0.81290    1.000
    C237     C        0.36310    0.26880    0.79140    1.000
    C238     C        0.33200    0.29520    0.74170    1.000
    H269     H        0.31900    0.22410    0.71960    1.000
    C239     C        0.31930    0.42550    0.72340    1.000
    H270     H        0.29850    0.44080    0.68960    1.000
    C240     C        0.33750    0.53210    0.75530    1.000
    C241     C        0.36630    0.50690    0.80490    1.000
    H271     H        0.37730    0.57760    0.82650    1.000
    C242     C        0.37900    0.37630    0.82250    1.000
    H272     H        0.39870    0.36050    0.85610    1.000
    C243     C        0.53090    0.06450    0.91890    1.000
    C244     C        0.56390    0.16280    0.92550    1.000
    C245     C        0.56020    0.17910    0.88790    1.000
    H273     H        0.53950    0.12150    0.86060    1.000
    C246     C        0.58560    0.27690    0.88870    1.000
    H274     H        0.58010    0.28790    0.86120    1.000
    C247     C        0.61860    0.35730    0.92910    1.000
    C248     C        0.62400    0.34430    0.96940    1.000
    H275     H        0.64580    0.39960    0.99730    1.000
    C249     C        0.59640    0.24790    0.96630    1.000
    H276     H        0.59960    0.23990    0.99240    1.000
    C250     C        0.40860    0.81160    0.92000    1.000
    C251     C        0.37070    0.72140    0.91080    1.000
    H277     H        0.38760    0.64790    0.93390    1.000
    H278     H        0.35340    0.77270    0.91540    1.000
    H279     H        0.34720    0.68730    0.87720    1.000
    C252     C        0.09610    0.70780    0.52010    1.000
    H280     H        0.06630    0.74210    0.49000    1.000
    C253     C        0.86510    0.27260    0.59000    1.000
    N57      N        0.72210    0.15400    0.54720    1.000
    H281     H        0.69280    0.16060    0.51720    1.000
    Zn26     Zn       0.82502    0.18012    0.63035    1.000
    O113     O        0.82580    0.25910    0.54430    1.000
    N58      N        0.55700    0.16320    0.54720    1.000
    H282     H        0.55920    0.13280    0.56940    1.000
    H283     H        0.52920    0.19430    0.51950    1.000
    C254     C        0.91110    0.31300    0.60400    1.000
    H284     H        0.90650    0.40090    0.59110    1.000
    H285     H        0.93900    0.31380    0.63970    1.000
    H286     H        0.91710    0.24990    0.59020    1.000
    Zn27     Zn       0.88484    0.29565    0.75416    1.000
    N59      N        0.89700    0.05570    0.72320    1.000
    H287     H        0.91780    0.03880    0.75460    1.000
    O114     O        0.86930    0.25570    0.62490    1.000
    Zn28     Zn       0.94640    0.41192    0.87755    1.000
    O115     O        0.76284    0.15630    0.55550    1.000
    N60      N        0.94190    0.42590    0.76920    1.000
    H288     H        0.93280    0.35880    0.75020    1.000
    H289     H        0.95880    0.41280    0.80000    1.000
    O116     O        0.77010    0.12590    0.62830    1.000
    N61      N        0.86840    0.53390    0.78300    1.000
    H290     H        0.84540    0.54640    0.75120    1.000
    C255     C        0.72750    0.14210    0.58430    1.000
    O117     O        0.88050    0.18420    0.70650    1.000
    C256     C        0.68200    0.14780    0.57320    1.000
    N62      N        0.82680    0.16590    0.73750    1.000
    H291     H        0.80890    0.18090    0.70650    1.000
    H292     H        0.83830    0.23190    0.75770    1.000
    O118     O        0.85310    0.98240    0.64670    1.000
    N63      N        0.03260    0.56010    0.95460    1.000
    H293     H        0.05300    0.61050    0.98050    1.000
    C257     C        0.63730    0.20190    0.52910    1.000
    H294     H        0.63520    0.23480    0.50520    1.000
    O119     O        0.80210    0.38260    0.62630    1.000
    C258     C        0.59890    0.16210    0.55610    1.000
    N64      N        0.14440    0.95510    0.93060    1.000
    H295     H        0.13980    0.96650    0.90550    1.000
    H296     H        0.16520    0.00500    0.95660    1.000
    O120     O        0.82270    0.41860    0.69520    1.000
    C259     C        0.64310    0.11250    0.60030    1.000
    H297     H        0.64550    0.08230    0.62460    1.000
    O121     O        0.94470    0.17100    0.81280    1.000
    C260     C        0.68420    0.10700    0.60890    1.000
    H298     H        0.71410    0.07510    0.63940    1.000
    O122     O        0.96940    0.21970    0.88390    1.000
    C261     C        0.88180    0.95860    0.69230    1.000
    O123     O        0.88959    0.40950    0.80180    1.000
    C262     C        0.90060    0.82130    0.71370    1.000
    O124     O        0.91410    0.61360    0.86010    1.000
    C263     C        0.92770    0.79270    0.76220    1.000
    H299     H        0.93720    0.86280    0.78360    1.000
    O125     O        0.00175    0.47470    0.94960    1.000
    C264     C        0.94140    0.66360    0.78070    1.000
    H300     H        0.95880    0.64710    0.81360    1.000
    O126     O        0.00130    0.49150    0.88230    1.000
    C265     C        0.92900    0.55810    0.74980    1.000
    O127     O        0.90210    0.33800    0.88470    1.000
    C266     C        0.90240    0.58450    0.70150    1.000
    H301     H        0.89370    0.51450    0.68050    1.000
    O128     O        0.94420    0.35040    0.96460    1.000
    C267     C        0.88780    0.71660    0.68280    1.000
    H302     H        0.86960    0.73340    0.64960    1.000
    C268     C        0.79520    0.43340    0.65000    1.000
    C269     C        0.75100    0.52160    0.62310    1.000
    H303     H        0.74590    0.53540    0.64360    1.000
    H304     H        0.75650    0.60650    0.61610    1.000
    H305     H        0.72210    0.47970    0.59230    1.000
    C270     C        0.97050    0.15030    0.85810    1.000
    C271     C        0.00420    0.03070    0.88240    1.000
    H306     H        0.98870    0.95800    0.88320    1.000
    H307     H        0.01060    0.00420    0.86370    1.000
    H308     H        0.03500    0.05340    0.91590    1.000
    C272     C        0.88270    0.63350    0.81290    1.000
    C273     C        0.86310    0.76880    0.79140    1.000
    C274     C        0.83200    0.79520    0.74170    1.000
    H309     H        0.81900    0.72410    0.71960    1.000
    C275     C        0.81930    0.92550    0.72340    1.000
    H310     H        0.79850    0.94080    0.68960    1.000
    C276     C        0.83750    0.03210    0.75530    1.000
    C277     C        0.86630    0.00690    0.80490    1.000
    H311     H        0.87730    0.07760    0.82650    1.000
    C278     C        0.87900    0.87630    0.82250    1.000
    H312     H        0.89870    0.86050    0.85610    1.000
    C279     C        0.03090    0.56450    0.91890    1.000
    C280     C        0.06390    0.66280    0.92550    1.000
    C281     C        0.06020    0.67910    0.88790    1.000
    H313     H        0.03950    0.62150    0.86060    1.000
    C282     C        0.08560    0.77690    0.88870    1.000
    H314     H        0.08010    0.78790    0.86120    1.000
    C283     C        0.11860    0.85730    0.92910    1.000
    C284     C        0.12400    0.84430    0.96940    1.000
    H315     H        0.14580    0.89960    0.99730    1.000
    C285     C        0.09640    0.74790    0.96630    1.000
    H316     H        0.09960    0.73990    0.99240    1.000
    C286     C        0.90860    0.31160    0.92000    1.000
    C287     C        0.87070    0.22140    0.91080    1.000
    H317     H        0.88760    0.14790    0.93390    1.000
    H318     H        0.85340    0.27270    0.91540    1.000
    H319     H        0.84720    0.18730    0.87720    1.000
    C288     C        0.59610    0.20780    0.52010    1.000
    H320     H        0.56630    0.24210    0.49000    1.000
    Zn29     Zn       0.75000    0.25000    0.50000    1.000
    Zn30     Zn       0.25000    0.75000    0.50000    1.000
    Zn31     Zn       0.00000    0.50000    0.00000    1.000
    Zn32     Zn       0.50000    0.00000    0.00000    1.000
