# CIF file generated by openbabel 3.1.0, see https://openbabel.org
data_I
_chemical_name_common 'VUSQIK_charged'
_cell_length_a 19.0435
_cell_length_b 21.6023
_cell_length_c 22.2298
_cell_angle_alpha 90
_cell_angle_beta 90
_cell_angle_gamma 90
_space_group_name_H-M_alt 'P 1'
_space_group_name_Hall 'P 1'
loop_
    _symmetry_equiv_pos_as_xyz
    x,y,z
loop_
    _atom_site_label
    _atom_site_type_symbol
    _atom_site_fract_x
    _atom_site_fract_y
    _atom_site_fract_z
    _atom_site_occupancy
    Ni1      Ni       0.75000    0.75000    0.90382    1.000
    Ni2      Ni       0.25000    0.25000    0.59618    1.000
    Ni3      Ni       0.25000    0.25000    0.09618    1.000
    Ni4      Ni       0.75000    0.75000    0.40382    1.000
    Sb1      Sb       0.96541    0.98867    0.03682    1.000
    Sb2      Sb       0.53459    0.51133    0.03682    1.000
    Sb3      Sb       0.03459    0.48867    0.46318    1.000
    Sb4      Sb       0.46541    0.01133    0.46318    1.000
    Sb5      Sb       0.03459    0.01133    0.96318    1.000
    Sb6      Sb       0.46541    0.48867    0.96318    1.000
    Sb7      Sb       0.96541    0.51133    0.53682    1.000
    Sb8      Sb       0.53459    0.98867    0.53682    1.000
    H1       H        0.30620    0.97760    0.81890    1.000
    H2       H        0.48750    0.77660    0.87670    1.000
    H3       H        0.59120    0.72890    0.89200    1.000
    H4       H        0.69400    0.88490    0.88850    1.000
    H5       H        0.59110    0.93430    0.86460    1.000
    H6       H        0.49590    0.96150    0.80190    1.000
    H7       H        0.40210    0.01580    0.77830    1.000
    H8       H        0.28820    0.89410    0.87420    1.000
    H9       H        0.39340    0.83860    0.90040    1.000
    H10      H        0.79600    0.66930    0.30340    1.000
    H11      H        0.80080    0.66790    0.19950    1.000
    H12      H        0.84590    0.71710    0.00660    1.000
    H13      H        0.84790    0.71480    0.10900    1.000
    H14      H        0.19380    0.52240    0.81890    1.000
    H15      H        0.01250    0.72340    0.87670    1.000
    H16      H        0.90880    0.77110    0.89200    1.000
    H17      H        0.80600    0.61510    0.88850    1.000
    H18      H        0.90890    0.56570    0.86460    1.000
    H19      H        0.00410    0.53850    0.80190    1.000
    H20      H        0.09790    0.48420    0.77830    1.000
    H21      H        0.21180    0.60590    0.87420    1.000
    H22      H        0.10660    0.66140    0.90040    1.000
    H23      H        0.70400    0.83070    0.30340    1.000
    H24      H        0.69920    0.83210    0.19950    1.000
    H25      H        0.65410    0.78290    0.00660    1.000
    H26      H        0.65210    0.78520    0.10900    1.000
    H27      H        0.69380    0.47760    0.68110    1.000
    H28      H        0.51250    0.27660    0.62330    1.000
    H29      H        0.40880    0.22890    0.60800    1.000
    H30      H        0.30600    0.38490    0.61150    1.000
    H31      H        0.40890    0.43430    0.63540    1.000
    H32      H        0.50410    0.46150    0.69810    1.000
    H33      H        0.59790    0.51580    0.72170    1.000
    H34      H        0.71180    0.39410    0.62580    1.000
    H35      H        0.60660    0.33860    0.59960    1.000
    H36      H        0.20400    0.16930    0.19660    1.000
    H37      H        0.19920    0.16790    0.30050    1.000
    H38      H        0.15410    0.21710    0.49340    1.000
    H39      H        0.15210    0.21480    0.39100    1.000
    H40      H        0.80620    0.02240    0.68110    1.000
    H41      H        0.98750    0.22340    0.62330    1.000
    H42      H        0.09120    0.27110    0.60800    1.000
    H43      H        0.19400    0.11510    0.61150    1.000
    H44      H        0.09110    0.06570    0.63540    1.000
    H45      H        0.99590    0.03850    0.69810    1.000
    H46      H        0.90210    0.98420    0.72170    1.000
    H47      H        0.78820    0.10590    0.62580    1.000
    H48      H        0.89340    0.16140    0.59960    1.000
    H49      H        0.29600    0.33070    0.19660    1.000
    H50      H        0.30080    0.33210    0.30050    1.000
    H51      H        0.34590    0.28290    0.49340    1.000
    H52      H        0.34790    0.28520    0.39100    1.000
    H53      H        0.69380    0.02240    0.18110    1.000
    H54      H        0.51250    0.22340    0.12330    1.000
    H55      H        0.40880    0.27110    0.10800    1.000
    H56      H        0.30600    0.11510    0.11150    1.000
    H57      H        0.40890    0.06570    0.13540    1.000
    H58      H        0.50410    0.03850    0.19810    1.000
    H59      H        0.59790    0.98420    0.22170    1.000
    H60      H        0.71180    0.10590    0.12580    1.000
    H61      H        0.60660    0.16140    0.09960    1.000
    H62      H        0.20400    0.33070    0.69660    1.000
    H63      H        0.19920    0.33210    0.80050    1.000
    H64      H        0.15410    0.28290    0.99340    1.000
    H65      H        0.15210    0.28520    0.89100    1.000
    H66      H        0.80620    0.47760    0.18110    1.000
    H67      H        0.98750    0.27660    0.12330    1.000
    H68      H        0.09120    0.22890    0.10800    1.000
    H69      H        0.19400    0.38490    0.11150    1.000
    H70      H        0.09110    0.43430    0.13540    1.000
    H71      H        0.99590    0.46150    0.19810    1.000
    H72      H        0.90210    0.51580    0.22170    1.000
    H73      H        0.78820    0.39410    0.12580    1.000
    H74      H        0.89340    0.33860    0.09960    1.000
    H75      H        0.29600    0.16930    0.69660    1.000
    H76      H        0.30080    0.16790    0.80050    1.000
    H77      H        0.34590    0.21710    0.99340    1.000
    H78      H        0.34790    0.21480    0.89100    1.000
    H79      H        0.30620    0.52240    0.31890    1.000
    H80      H        0.48750    0.72340    0.37670    1.000
    H81      H        0.59120    0.77110    0.39200    1.000
    H82      H        0.69400    0.61510    0.38850    1.000
    H83      H        0.59110    0.56570    0.36460    1.000
    H84      H        0.49590    0.53850    0.30190    1.000
    H85      H        0.40210    0.48420    0.27830    1.000
    H86      H        0.28820    0.60590    0.37420    1.000
    H87      H        0.39340    0.66140    0.40040    1.000
    H88      H        0.79600    0.83070    0.80340    1.000
    H89      H        0.80080    0.83210    0.69950    1.000
    H90      H        0.84590    0.78290    0.50660    1.000
    H91      H        0.84790    0.78520    0.60900    1.000
    H92      H        0.19380    0.97760    0.31890    1.000
    H93      H        0.01250    0.77660    0.37670    1.000
    H94      H        0.90880    0.72890    0.39200    1.000
    H95      H        0.80600    0.88490    0.38850    1.000
    H96      H        0.90890    0.93430    0.36460    1.000
    H97      H        0.00410    0.96150    0.30190    1.000
    H98      H        0.09790    0.01580    0.27830    1.000
    H99      H        0.21180    0.89410    0.37420    1.000
    H100     H        0.10660    0.83860    0.40040    1.000
    H101     H        0.70400    0.66930    0.80340    1.000
    H102     H        0.69920    0.66790    0.69950    1.000
    H103     H        0.65410    0.71710    0.50660    1.000
    H104     H        0.65210    0.71480    0.60900    1.000
    W1       W        0.83929    0.89242    0.96076    1.000
    W2       W        0.77078    0.93587    0.09133    1.000
    W3       W        0.79651    0.03880    0.98152    1.000
    W4       W        0.90280    0.13685    0.08680    1.000
    W5       W        0.92135    0.86920    0.17444    1.000
    W6       W        0.99082    0.82228    0.04459    1.000
    W7       W        0.96493    0.92410    0.83944    1.000
    W8       W        0.08449    0.90946    0.13702    1.000
    W9       W        0.87383    0.03361    0.19589    1.000
    W10      W        0.66071    0.60758    0.96076    1.000
    W11      W        0.72922    0.56413    0.09133    1.000
    W12      W        0.70349    0.46120    0.98152    1.000
    W13      W        0.59720    0.36315    0.08680    1.000
    W14      W        0.57865    0.63080    0.17444    1.000
    W15      W        0.50918    0.67772    0.04459    1.000
    W16      W        0.53507    0.57590    0.83944    1.000
    W17      W        0.41551    0.59054    0.13702    1.000
    W18      W        0.62617    0.46639    0.19589    1.000
    W19      W        0.16071    0.39242    0.53924    1.000
    W20      W        0.22922    0.43587    0.40867    1.000
    W21      W        0.20349    0.53880    0.51848    1.000
    W22      W        0.09720    0.63685    0.41320    1.000
    W23      W        0.07865    0.36920    0.32556    1.000
    W24      W        0.00918    0.32228    0.45541    1.000
    W25      W        0.03507    0.42410    0.66056    1.000
    W26      W        0.91551    0.40946    0.36298    1.000
    W27      W        0.12617    0.53361    0.30411    1.000
    W28      W        0.33929    0.10758    0.53924    1.000
    W29      W        0.27078    0.06413    0.40867    1.000
    W30      W        0.29651    0.96120    0.51848    1.000
    W31      W        0.40280    0.86315    0.41320    1.000
    W32      W        0.42135    0.13080    0.32556    1.000
    W33      W        0.49082    0.17772    0.45541    1.000
    W34      W        0.46493    0.07590    0.66056    1.000
    W35      W        0.58449    0.09054    0.36298    1.000
    W36      W        0.37383    0.96639    0.30411    1.000
    W37      W        0.16071    0.10758    0.03924    1.000
    W38      W        0.22922    0.06413    0.90867    1.000
    W39      W        0.20349    0.96120    0.01848    1.000
    W40      W        0.09720    0.86315    0.91320    1.000
    W41      W        0.07865    0.13080    0.82556    1.000
    W42      W        0.00918    0.17772    0.95541    1.000
    W43      W        0.03507    0.07590    0.16056    1.000
    W44      W        0.91551    0.09054    0.86298    1.000
    W45      W        0.12617    0.96639    0.80411    1.000
    W46      W        0.33929    0.39242    0.03924    1.000
    W47      W        0.27078    0.43587    0.90867    1.000
    W48      W        0.29651    0.53880    0.01848    1.000
    W49      W        0.40280    0.63685    0.91320    1.000
    W50      W        0.42135    0.36920    0.82556    1.000
    W51      W        0.49082    0.32228    0.95541    1.000
    W52      W        0.46493    0.42410    0.16056    1.000
    W53      W        0.58449    0.40946    0.86298    1.000
    W54      W        0.37383    0.53361    0.80411    1.000
    W55      W        0.83929    0.60758    0.46076    1.000
    W56      W        0.77078    0.56413    0.59133    1.000
    W57      W        0.79651    0.46120    0.48152    1.000
    W58      W        0.90280    0.36315    0.58680    1.000
    W59      W        0.92135    0.63080    0.67444    1.000
    W60      W        0.99082    0.67772    0.54459    1.000
    W61      W        0.96493    0.57590    0.33944    1.000
    W62      W        0.08449    0.59054    0.63702    1.000
    W63      W        0.87383    0.46639    0.69589    1.000
    W64      W        0.66071    0.89242    0.46076    1.000
    W65      W        0.72922    0.93587    0.59133    1.000
    W66      W        0.70349    0.03880    0.48152    1.000
    W67      W        0.59720    0.13685    0.58680    1.000
    W68      W        0.57865    0.86920    0.67444    1.000
    W69      W        0.50918    0.82228    0.54459    1.000
    W70      W        0.53507    0.92410    0.33944    1.000
    W71      W        0.41551    0.90946    0.63702    1.000
    W72      W        0.62617    0.03361    0.69589    1.000
    C1       C        0.52910    0.86510    0.86890    1.000
    C2       C        0.52890    0.79930    0.87810    1.000
    C3       C        0.59120    0.77180    0.88900    1.000
    C4       C        0.65230    0.86250    0.88590    1.000
    C5       C        0.58950    0.89200    0.87210    1.000
    C6       C        0.45920    0.89470    0.85330    1.000
    C7       C        0.45300    0.94770    0.81760    1.000
    C8       C        0.40100    0.98100    0.80250    1.000
    C9       C        0.33250    0.90600    0.86100    1.000
    C10      C        0.39520    0.87400    0.87600    1.000
    C11      C        0.77760    0.70250    0.28190    1.000
    C12      C        0.78000    0.70080    0.21970    1.000
    C13      C        0.80650    0.73040    0.02760    1.000
    C14      C        0.80830    0.72920    0.08890    1.000
    C15      C        0.97090    0.63490    0.86890    1.000
    C16      C        0.97110    0.70070    0.87810    1.000
    C17      C        0.90880    0.72820    0.88900    1.000
    C18      C        0.84770    0.63750    0.88590    1.000
    C19      C        0.91050    0.60800    0.87210    1.000
    C20      C        0.04080    0.60530    0.85330    1.000
    C21      C        0.04700    0.55230    0.81760    1.000
    C22      C        0.09900    0.51900    0.80250    1.000
    C23      C        0.16750    0.59400    0.86100    1.000
    C24      C        0.10480    0.62600    0.87600    1.000
    C25      C        0.72240    0.79750    0.28190    1.000
    C26      C        0.72000    0.79920    0.21970    1.000
    C27      C        0.69350    0.76960    0.02760    1.000
    C28      C        0.69170    0.77080    0.08890    1.000
    C29      C        0.47090    0.36510    0.63110    1.000
    C30      C        0.47110    0.29930    0.62190    1.000
    C31      C        0.40880    0.27180    0.61100    1.000
    C32      C        0.34770    0.36250    0.61410    1.000
    C33      C        0.41050    0.39200    0.62790    1.000
    C34      C        0.54080    0.39470    0.64670    1.000
    C35      C        0.54700    0.44770    0.68240    1.000
    C36      C        0.59900    0.48100    0.69750    1.000
    C37      C        0.66750    0.40600    0.63900    1.000
    C38      C        0.60480    0.37400    0.62400    1.000
    C39      C        0.22240    0.20250    0.21810    1.000
    C40      C        0.22000    0.20080    0.28030    1.000
    C41      C        0.19350    0.23040    0.47240    1.000
    C42      C        0.19170    0.22920    0.41110    1.000
    C43      C        0.02910    0.13490    0.63110    1.000
    C44      C        0.02890    0.20070    0.62190    1.000
    C45      C        0.09120    0.22820    0.61100    1.000
    C46      C        0.15230    0.13750    0.61410    1.000
    C47      C        0.08950    0.10800    0.62790    1.000
    C48      C        0.95920    0.10530    0.64670    1.000
    C49      C        0.95300    0.05230    0.68240    1.000
    C50      C        0.90100    0.01900    0.69750    1.000
    C51      C        0.83250    0.09400    0.63900    1.000
    C52      C        0.89520    0.12600    0.62400    1.000
    C53      C        0.27760    0.29750    0.21810    1.000
    C54      C        0.28000    0.29920    0.28030    1.000
    C55      C        0.30650    0.26960    0.47240    1.000
    C56      C        0.30830    0.27080    0.41110    1.000
    C57      C        0.47090    0.13490    0.13110    1.000
    C58      C        0.47110    0.20070    0.12190    1.000
    C59      C        0.40880    0.22820    0.11100    1.000
    C60      C        0.34770    0.13750    0.11410    1.000
    C61      C        0.41050    0.10800    0.12790    1.000
    C62      C        0.54080    0.10530    0.14670    1.000
    C63      C        0.54700    0.05230    0.18240    1.000
    C64      C        0.59900    0.01900    0.19750    1.000
    C65      C        0.66750    0.09400    0.13900    1.000
    C66      C        0.60480    0.12600    0.12400    1.000
    C67      C        0.22240    0.29750    0.71810    1.000
    C68      C        0.22000    0.29920    0.78030    1.000
    C69      C        0.19350    0.26960    0.97240    1.000
    C70      C        0.19170    0.27080    0.91110    1.000
    C71      C        0.02910    0.36510    0.13110    1.000
    C72      C        0.02890    0.29930    0.12190    1.000
    C73      C        0.09120    0.27180    0.11100    1.000
    C74      C        0.15230    0.36250    0.11410    1.000
    C75      C        0.08950    0.39200    0.12790    1.000
    C76      C        0.95920    0.39470    0.14670    1.000
    C77      C        0.95300    0.44770    0.18240    1.000
    C78      C        0.90100    0.48100    0.19750    1.000
    C79      C        0.83250    0.40600    0.13900    1.000
    C80      C        0.89520    0.37400    0.12400    1.000
    C81      C        0.27760    0.20250    0.71810    1.000
    C82      C        0.28000    0.20080    0.78030    1.000
    C83      C        0.30650    0.23040    0.97240    1.000
    C84      C        0.30830    0.22920    0.91110    1.000
    C85      C        0.52910    0.63490    0.36890    1.000
    C86      C        0.52890    0.70070    0.37810    1.000
    C87      C        0.59120    0.72820    0.38900    1.000
    C88      C        0.65230    0.63750    0.38590    1.000
    C89      C        0.58950    0.60800    0.37210    1.000
    C90      C        0.45920    0.60530    0.35330    1.000
    C91      C        0.45300    0.55230    0.31760    1.000
    C92      C        0.40100    0.51900    0.30250    1.000
    C93      C        0.33250    0.59400    0.36100    1.000
    C94      C        0.39520    0.62600    0.37600    1.000
    C95      C        0.77760    0.79750    0.78190    1.000
    C96      C        0.78000    0.79920    0.71970    1.000
    C97      C        0.80650    0.76960    0.52760    1.000
    C98      C        0.80830    0.77080    0.58890    1.000
    C99      C        0.97090    0.86510    0.36890    1.000
    C100     C        0.97110    0.79930    0.37810    1.000
    C101     C        0.90880    0.77180    0.38900    1.000
    C102     C        0.84770    0.86250    0.38590    1.000
    C103     C        0.91050    0.89200    0.37210    1.000
    C104     C        0.04080    0.89470    0.35330    1.000
    C105     C        0.04700    0.94770    0.31760    1.000
    C106     C        0.09900    0.98100    0.30250    1.000
    C107     C        0.16750    0.90600    0.36100    1.000
    C108     C        0.10480    0.87400    0.37600    1.000
    C109     C        0.72240    0.70250    0.78190    1.000
    C110     C        0.72000    0.70080    0.71970    1.000
    C111     C        0.69350    0.73040    0.52760    1.000
    C112     C        0.69170    0.72920    0.58890    1.000
    C113     C        0.75000    0.75000    0.18850    1.000
    C114     C        0.75000    0.75000    0.12110    1.000
    C115     C        0.25000    0.25000    0.31150    1.000
    C116     C        0.25000    0.25000    0.37890    1.000
    C117     C        0.25000    0.25000    0.81150    1.000
    C118     C        0.25000    0.25000    0.87890    1.000
    C119     C        0.75000    0.75000    0.68850    1.000
    C120     C        0.75000    0.75000    0.62110    1.000
    N1       N        0.65170    0.80000    0.89560    1.000
    N2       N        0.34400    0.95690    0.82660    1.000
    N3       N        0.84830    0.70000    0.89560    1.000
    N4       N        0.15600    0.54310    0.82660    1.000
    N5       N        0.34830    0.30000    0.60440    1.000
    N6       N        0.65600    0.45690    0.67340    1.000
    N7       N        0.15170    0.20000    0.60440    1.000
    N8       N        0.84400    0.04310    0.67340    1.000
    N9       N        0.34830    0.20000    0.10440    1.000
    N10      N        0.65600    0.04310    0.17340    1.000
    N11      N        0.15170    0.30000    0.10440    1.000
    N12      N        0.84400    0.45690    0.17340    1.000
    N13      N        0.65170    0.70000    0.39560    1.000
    N14      N        0.34400    0.54310    0.32660    1.000
    N15      N        0.84830    0.80000    0.39560    1.000
    N16      N        0.15600    0.95690    0.32660    1.000
    N17      N        0.75000    0.75000    0.99550    1.000
    N18      N        0.75000    0.75000    0.31230    1.000
    N19      N        0.25000    0.25000    0.50450    1.000
    N20      N        0.25000    0.25000    0.18770    1.000
    N21      N        0.25000    0.25000    0.00450    1.000
    N22      N        0.25000    0.25000    0.68770    1.000
    N23      N        0.75000    0.75000    0.49550    1.000
    N24      N        0.75000    0.75000    0.81230    1.000
    O1       O        0.83580    0.88510    0.13060    1.000
    O2       O        0.86350    0.96680    0.02710    1.000
    O3       O        0.80430    0.83620    0.91240    1.000
    O4       O        0.83200    0.09570    0.03890    1.000
    O5       O        0.73670    0.00010    0.04180    1.000
    O6       O        0.97900    0.91550    0.09230    1.000
    O7       O        0.01380    0.85250    0.86450    1.000
    O8       O        0.78540    0.96150    0.93510    1.000
    O9       O        0.80270    0.99910    0.14610    1.000
    O10      O        0.07450    0.83170    0.09240    1.000
    O11      O        0.85290    0.10990    0.16040    1.000
    O12      O        0.91580    0.92170    0.91520    1.000
    O13      O        0.69220    0.91720    0.12420    1.000
    O14      O        0.03610    0.93940    0.77950    1.000
    O15      O        0.76850    0.88320    0.02310    1.000
    O16      O        0.94250    0.04030    0.10970    1.000
    O17      O        0.90420    0.84420    0.00630    1.000
    O18      O        0.87960    0.05430    0.93380    1.000
    O19      O        0.90500    0.89110    0.79240    1.000
    O20      O        0.01720    0.87520    0.19580    1.000
    O21      O        0.00260    0.74860    0.02150    1.000
    O22      O        0.94280    0.80430    0.11850    1.000
    O23      O        0.15940    0.89300    0.17580    1.000
    O24      O        0.03690    0.86650    0.98260    1.000
    O25      O        0.87490    0.21210    0.08500    1.000
    O26      O        0.90810    0.95190    0.20220    1.000
    O27      O        0.93530    0.00970    0.83480    1.000
    O28      O        0.73570    0.08370    0.94510    1.000
    O29      O        0.89320    0.82610    0.23190    1.000
    O30      O        0.82980    0.04350    0.26170    1.000
    O31      O        0.66420    0.61490    0.13060    1.000
    O32      O        0.63650    0.53320    0.02710    1.000
    O33      O        0.69570    0.66380    0.91240    1.000
    O34      O        0.66800    0.40430    0.03890    1.000
    O35      O        0.76330    0.49990    0.04180    1.000
    O36      O        0.52100    0.58450    0.09230    1.000
    O37      O        0.48620    0.64750    0.86450    1.000
    O38      O        0.71460    0.53850    0.93510    1.000
    O39      O        0.69730    0.50090    0.14610    1.000
    O40      O        0.42550    0.66830    0.09240    1.000
    O41      O        0.64710    0.39010    0.16040    1.000
    O42      O        0.58420    0.57830    0.91520    1.000
    O43      O        0.80780    0.58280    0.12420    1.000
    O44      O        0.46390    0.56060    0.77950    1.000
    O45      O        0.73150    0.61680    0.02310    1.000
    O46      O        0.55750    0.45970    0.10970    1.000
    O47      O        0.59580    0.65580    0.00630    1.000
    O48      O        0.62040    0.44570    0.93380    1.000
    O49      O        0.59500    0.60890    0.79240    1.000
    O50      O        0.48280    0.62480    0.19580    1.000
    O51      O        0.49740    0.75140    0.02150    1.000
    O52      O        0.55720    0.69570    0.11850    1.000
    O53      O        0.34060    0.60700    0.17580    1.000
    O54      O        0.46310    0.63350    0.98260    1.000
    O55      O        0.62510    0.28790    0.08500    1.000
    O56      O        0.59190    0.54810    0.20220    1.000
    O57      O        0.56470    0.49030    0.83480    1.000
    O58      O        0.76430    0.41630    0.94510    1.000
    O59      O        0.60680    0.67390    0.23190    1.000
    O60      O        0.67020    0.45650    0.26170    1.000
    O61      O        0.16420    0.38510    0.36940    1.000
    O62      O        0.13650    0.46680    0.47290    1.000
    O63      O        0.19570    0.33620    0.58760    1.000
    O64      O        0.16800    0.59570    0.46110    1.000
    O65      O        0.26330    0.50010    0.45820    1.000
    O66      O        0.02100    0.41550    0.40770    1.000
    O67      O        0.98620    0.35250    0.63550    1.000
    O68      O        0.21460    0.46150    0.56490    1.000
    O69      O        0.19730    0.49910    0.35390    1.000
    O70      O        0.92550    0.33170    0.40760    1.000
    O71      O        0.14710    0.60990    0.33960    1.000
    O72      O        0.08420    0.42170    0.58480    1.000
    O73      O        0.30780    0.41720    0.37580    1.000
    O74      O        0.96390    0.43940    0.72050    1.000
    O75      O        0.23150    0.38320    0.47690    1.000
    O76      O        0.05750    0.54030    0.39030    1.000
    O77      O        0.09580    0.34420    0.49370    1.000
    O78      O        0.12040    0.55430    0.56620    1.000
    O79      O        0.09500    0.39110    0.70760    1.000
    O80      O        0.98280    0.37520    0.30420    1.000
    O81      O        0.99740    0.24860    0.47850    1.000
    O82      O        0.05720    0.30430    0.38150    1.000
    O83      O        0.84060    0.39300    0.32420    1.000
    O84      O        0.96310    0.36650    0.51740    1.000
    O85      O        0.12510    0.71210    0.41500    1.000
    O86      O        0.09190    0.45190    0.29780    1.000
    O87      O        0.06470    0.50970    0.66520    1.000
    O88      O        0.26430    0.58370    0.55490    1.000
    O89      O        0.10680    0.32610    0.26810    1.000
    O90      O        0.17020    0.54350    0.23830    1.000
    O91      O        0.33580    0.11490    0.36940    1.000
    O92      O        0.36350    0.03320    0.47290    1.000
    O93      O        0.30430    0.16380    0.58760    1.000
    O94      O        0.33200    0.90430    0.46110    1.000
    O95      O        0.23670    0.99990    0.45820    1.000
    O96      O        0.47900    0.08450    0.40770    1.000
    O97      O        0.51380    0.14750    0.63550    1.000
    O98      O        0.28540    0.03850    0.56490    1.000
    O99      O        0.30270    0.00090    0.35390    1.000
    O100     O        0.57450    0.16830    0.40760    1.000
    O101     O        0.35290    0.89010    0.33960    1.000
    O102     O        0.41580    0.07830    0.58480    1.000
    O103     O        0.19220    0.08280    0.37580    1.000
    O104     O        0.53610    0.06060    0.72050    1.000
    O105     O        0.26850    0.11680    0.47690    1.000
    O106     O        0.44250    0.95970    0.39030    1.000
    O107     O        0.40420    0.15580    0.49370    1.000
    O108     O        0.37960    0.94570    0.56620    1.000
    O109     O        0.40500    0.10890    0.70760    1.000
    O110     O        0.51720    0.12480    0.30420    1.000
    O111     O        0.50260    0.25140    0.47850    1.000
    O112     O        0.44280    0.19570    0.38150    1.000
    O113     O        0.65940    0.10700    0.32420    1.000
    O114     O        0.53690    0.13350    0.51740    1.000
    O115     O        0.37490    0.78790    0.41500    1.000
    O116     O        0.40810    0.04810    0.29780    1.000
    O117     O        0.43530    0.99030    0.66520    1.000
    O118     O        0.23570    0.91630    0.55490    1.000
    O119     O        0.39320    0.17390    0.26810    1.000
    O120     O        0.32980    0.95650    0.23830    1.000
    O121     O        0.16420    0.11490    0.86940    1.000
    O122     O        0.13650    0.03320    0.97290    1.000
    O123     O        0.19570    0.16380    0.08760    1.000
    O124     O        0.16800    0.90430    0.96110    1.000
    O125     O        0.26330    0.99990    0.95820    1.000
    O126     O        0.02100    0.08450    0.90770    1.000
    O127     O        0.98620    0.14750    0.13550    1.000
    O128     O        0.21460    0.03850    0.06490    1.000
    O129     O        0.19730    0.00090    0.85390    1.000
    O130     O        0.92550    0.16830    0.90760    1.000
    O131     O        0.14710    0.89010    0.83960    1.000
    O132     O        0.08420    0.07830    0.08480    1.000
    O133     O        0.30780    0.08280    0.87580    1.000
    O134     O        0.96390    0.06060    0.22050    1.000
    O135     O        0.23150    0.11680    0.97690    1.000
    O136     O        0.05750    0.95970    0.89030    1.000
    O137     O        0.09580    0.15580    0.99370    1.000
    O138     O        0.12040    0.94570    0.06620    1.000
    O139     O        0.09500    0.10890    0.20760    1.000
    O140     O        0.98280    0.12480    0.80420    1.000
    O141     O        0.99740    0.25140    0.97850    1.000
    O142     O        0.05720    0.19570    0.88150    1.000
    O143     O        0.84060    0.10700    0.82420    1.000
    O144     O        0.96310    0.13350    0.01740    1.000
    O145     O        0.12510    0.78790    0.91500    1.000
    O146     O        0.09190    0.04810    0.79780    1.000
    O147     O        0.06470    0.99030    0.16520    1.000
    O148     O        0.26430    0.91630    0.05490    1.000
    O149     O        0.10680    0.17390    0.76810    1.000
    O150     O        0.17020    0.95650    0.73830    1.000
    O151     O        0.33580    0.38510    0.86940    1.000
    O152     O        0.36350    0.46680    0.97290    1.000
    O153     O        0.30430    0.33620    0.08760    1.000
    O154     O        0.33200    0.59570    0.96110    1.000
    O155     O        0.23670    0.50010    0.95820    1.000
    O156     O        0.47900    0.41550    0.90770    1.000
    O157     O        0.51380    0.35250    0.13550    1.000
    O158     O        0.28540    0.46150    0.06490    1.000
    O159     O        0.30270    0.49910    0.85390    1.000
    O160     O        0.57450    0.33170    0.90760    1.000
    O161     O        0.35290    0.60990    0.83960    1.000
    O162     O        0.41580    0.42170    0.08480    1.000
    O163     O        0.19220    0.41720    0.87580    1.000
    O164     O        0.53610    0.43940    0.22050    1.000
    O165     O        0.26850    0.38320    0.97690    1.000
    O166     O        0.44250    0.54030    0.89030    1.000
    O167     O        0.40420    0.34420    0.99370    1.000
    O168     O        0.37960    0.55430    0.06620    1.000
    O169     O        0.40500    0.39110    0.20760    1.000
    O170     O        0.51720    0.37520    0.80420    1.000
    O171     O        0.50260    0.24860    0.97850    1.000
    O172     O        0.44280    0.30430    0.88150    1.000
    O173     O        0.65940    0.39300    0.82420    1.000
    O174     O        0.53690    0.36650    0.01740    1.000
    O175     O        0.37490    0.71210    0.91500    1.000
    O176     O        0.40810    0.45190    0.79780    1.000
    O177     O        0.43530    0.50970    0.16520    1.000
    O178     O        0.23570    0.58370    0.05490    1.000
    O179     O        0.39320    0.32610    0.76810    1.000
    O180     O        0.32980    0.54350    0.73830    1.000
    O181     O        0.83580    0.61490    0.63060    1.000
    O182     O        0.86350    0.53320    0.52710    1.000
    O183     O        0.80430    0.66380    0.41240    1.000
    O184     O        0.83200    0.40430    0.53890    1.000
    O185     O        0.73670    0.49990    0.54180    1.000
    O186     O        0.97900    0.58450    0.59230    1.000
    O187     O        0.01380    0.64750    0.36450    1.000
    O188     O        0.78540    0.53850    0.43510    1.000
    O189     O        0.80270    0.50090    0.64610    1.000
    O190     O        0.07450    0.66830    0.59240    1.000
    O191     O        0.85290    0.39010    0.66040    1.000
    O192     O        0.91580    0.57830    0.41520    1.000
    O193     O        0.69220    0.58280    0.62420    1.000
    O194     O        0.03610    0.56060    0.27950    1.000
    O195     O        0.76850    0.61680    0.52310    1.000
    O196     O        0.94250    0.45970    0.60970    1.000
    O197     O        0.90420    0.65580    0.50630    1.000
    O198     O        0.87960    0.44570    0.43380    1.000
    O199     O        0.90500    0.60890    0.29240    1.000
    O200     O        0.01720    0.62480    0.69580    1.000
    O201     O        0.00260    0.75140    0.52150    1.000
    O202     O        0.94280    0.69570    0.61850    1.000
    O203     O        0.15940    0.60700    0.67580    1.000
    O204     O        0.03690    0.63350    0.48260    1.000
    O205     O        0.87490    0.28790    0.58500    1.000
    O206     O        0.90810    0.54810    0.70220    1.000
    O207     O        0.93530    0.49030    0.33480    1.000
    O208     O        0.73570    0.41630    0.44510    1.000
    O209     O        0.89320    0.67390    0.73190    1.000
    O210     O        0.82980    0.45650    0.76170    1.000
    O211     O        0.66420    0.88510    0.63060    1.000
    O212     O        0.63650    0.96680    0.52710    1.000
    O213     O        0.69570    0.83620    0.41240    1.000
    O214     O        0.66800    0.09570    0.53890    1.000
    O215     O        0.76330    0.00010    0.54180    1.000
    O216     O        0.52100    0.91550    0.59230    1.000
    O217     O        0.48620    0.85250    0.36450    1.000
    O218     O        0.71460    0.96150    0.43510    1.000
    O219     O        0.69730    0.99910    0.64610    1.000
    O220     O        0.42550    0.83170    0.59240    1.000
    O221     O        0.64710    0.10990    0.66040    1.000
    O222     O        0.58420    0.92170    0.41520    1.000
    O223     O        0.80780    0.91720    0.62420    1.000
    O224     O        0.46390    0.93940    0.27950    1.000
    O225     O        0.73150    0.88320    0.52310    1.000
    O226     O        0.55750    0.04030    0.60970    1.000
    O227     O        0.59580    0.84420    0.50630    1.000
    O228     O        0.62040    0.05430    0.43380    1.000
    O229     O        0.59500    0.89110    0.29240    1.000
    O230     O        0.48280    0.87520    0.69580    1.000
    O231     O        0.49740    0.74860    0.52150    1.000
    O232     O        0.55720    0.80430    0.61850    1.000
    O233     O        0.34060    0.89300    0.67580    1.000
    O234     O        0.46310    0.86650    0.48260    1.000
    O235     O        0.62510    0.21210    0.58500    1.000
    O236     O        0.59190    0.95190    0.70220    1.000
    O237     O        0.56470    0.00970    0.33480    1.000
    O238     O        0.76430    0.08370    0.44510    1.000
    O239     O        0.60680    0.82610    0.73190    1.000
    O240     O        0.67020    0.04350    0.76170    1.000
