# CIF file generated by openbabel 3.1.0, see https://openbabel.org
data_I
_chemical_name_common 'image0'
_cell_length_a 17.241
_cell_length_b 15.95
_cell_length_c 16.74
_cell_angle_alpha 90
_cell_angle_beta 108.386
_cell_angle_gamma 90
_space_group_name_H-M_alt 'P 1'
_space_group_name_Hall 'P 1'
loop_
    _symmetry_equiv_pos_as_xyz
    x,y,z
loop_
    _atom_site_label
    _atom_site_type_symbol
    _atom_site_fract_x
    _atom_site_fract_y
    _atom_site_fract_z
    _atom_site_occupancy
    C1       C        0.38710    0.27980    0.30540    1.000
    C2       C        0.43030    0.31150    0.39270    1.000
    C3       C        0.50480    0.27950    0.43940    1.000
    H1       H        0.52980    0.23910    0.41590    1.000
    C4       C        0.54340    0.30650    0.52110    1.000
    C5       C        0.50710    0.36920    0.55500    1.000
    H2       H        0.53280    0.38750    0.60980    1.000
    C6       C        0.43300    0.40480    0.50840    1.000
    C7       C        0.39550    0.37400    0.42740    1.000
    H3       H        0.34540    0.39630    0.39570    1.000
    C8       C        0.62190    0.26440    0.57110    1.000
    C9       C        0.39390    0.47330    0.54300    1.000
    C10      C        0.31790    0.50220    0.50090    1.000
    H4       H        0.28940    0.47860    0.44910    1.000
    C11      C        0.28220    0.56480    0.53260    1.000
    H5       H        0.23080    0.58300    0.49970    1.000
    C12      C        0.38870    0.57300    0.64590    1.000
    H6       H        0.41570    0.59750    0.69770    1.000
    C13      C        0.42840    0.51130    0.61810    1.000
    H7       H        0.48040    0.49500    0.65130    1.000
    C14      C        0.20660    0.49060    0.19650    1.000
    H8       H        0.23670    0.51810    0.16710    1.000
    C15      C        0.17710    0.52710    0.25420    1.000
    H9       H        0.18340    0.58270    0.27180    1.000
    C16      C        0.14490    0.39640    0.24040    1.000
    H10      H        0.12370    0.34460    0.24860    1.000
    C17      C        0.09650    0.47470    0.34380    1.000
    C18      C        0.09570    0.41180    0.39680    1.000
    H11      H        0.12110    0.36120    0.39260    1.000
    C19      C        0.05730    0.42150    0.45800    1.000
    H12      H        0.05720    0.37690    0.49370    1.000
    C20      C        0.02020    0.49420    0.46700    1.000
    C21      C        0.01990    0.55550    0.41060    1.000
    H13      H        0.99270    0.60530    0.41300    1.000
    C22      C        0.05780    0.54720    0.35050    1.000
    H14      H        0.05700    0.59140    0.31410    1.000
    N1       N        0.31420    0.60080    0.60460    1.000
    N2       N        0.18600    0.40850    0.18800    1.000
    N3       N        0.13650    0.46590    0.28090    1.000
    Ni1      Ni       0.24760    0.31315    0.14850    1.000
    O1       O        0.31730    0.31100    0.27022    1.000
    O2       O        0.42120    0.22760    0.27380    1.000
    O3       O        0.65670    0.21480    0.53413    1.000
    O4       O        0.65150    0.27680    0.64935    1.000
    C23      C        0.88710    0.77980    0.30540    1.000
    C24      C        0.93030    0.81150    0.39270    1.000
    C25      C        0.00480    0.77950    0.43940    1.000
    H15      H        0.02980    0.73910    0.41590    1.000
    C26      C        0.04340    0.80650    0.52110    1.000
    C27      C        0.00710    0.86920    0.55500    1.000
    H16      H        0.03280    0.88750    0.60980    1.000
    C28      C        0.93300    0.90480    0.50840    1.000
    C29      C        0.89550    0.87400    0.42740    1.000
    H17      H        0.84540    0.89630    0.39570    1.000
    C30      C        0.12190    0.76440    0.57110    1.000
    C31      C        0.89390    0.97330    0.54300    1.000
    C32      C        0.81790    0.00220    0.50090    1.000
    H18      H        0.78940    0.97860    0.44910    1.000
    C33      C        0.78220    0.06480    0.53260    1.000
    H19      H        0.73080    0.08300    0.49970    1.000
    C34      C        0.88870    0.07300    0.64590    1.000
    H20      H        0.91570    0.09750    0.69770    1.000
    C35      C        0.92840    0.01130    0.61810    1.000
    H21      H        0.98040    0.99500    0.65130    1.000
    C36      C        0.70660    0.99060    0.19650    1.000
    H22      H        0.73670    0.01810    0.16710    1.000
    C37      C        0.67710    0.02710    0.25420    1.000
    H23      H        0.68340    0.08270    0.27180    1.000
    C38      C        0.64490    0.89640    0.24040    1.000
    H24      H        0.62370    0.84460    0.24860    1.000
    C39      C        0.59650    0.97470    0.34380    1.000
    C40      C        0.59570    0.91180    0.39680    1.000
    H25      H        0.62110    0.86120    0.39260    1.000
    C41      C        0.55730    0.92150    0.45800    1.000
    H26      H        0.55720    0.87690    0.49370    1.000
    C42      C        0.52020    0.99420    0.46700    1.000
    C43      C        0.51990    0.05550    0.41060    1.000
    H27      H        0.49270    0.10530    0.41300    1.000
    C44      C        0.55780    0.04720    0.35050    1.000
    H28      H        0.55700    0.09140    0.31410    1.000
    N4       N        0.81420    0.10080    0.60460    1.000
    N5       N        0.68600    0.90850    0.18800    1.000
    N6       N        0.63650    0.96590    0.28090    1.000
    Ni2      Ni       0.74760    0.81315    0.14850    1.000
    O5       O        0.81730    0.81100    0.27022    1.000
    O6       O        0.92120    0.72760    0.27380    1.000
    O7       O        0.15670    0.71480    0.53413    1.000
    O8       O        0.15150    0.77680    0.64935    1.000
    C45      C        0.61290    0.27980    0.19460    1.000
    C46      C        0.56970    0.31150    0.10730    1.000
    C47      C        0.49520    0.27950    0.06060    1.000
    H29      H        0.47020    0.23910    0.08410    1.000
    C48      C        0.45660    0.30650    0.97890    1.000
    C49      C        0.49290    0.36920    0.94500    1.000
    H30      H        0.46720    0.38750    0.89020    1.000
    C50      C        0.56700    0.40480    0.99160    1.000
    C51      C        0.60450    0.37400    0.07260    1.000
    H31      H        0.65460    0.39630    0.10430    1.000
    C52      C        0.37810    0.26440    0.92890    1.000
    C53      C        0.60610    0.47330    0.95700    1.000
    C54      C        0.68210    0.50220    0.99910    1.000
    H32      H        0.71060    0.47860    0.05090    1.000
    C55      C        0.71780    0.56480    0.96740    1.000
    H33      H        0.76920    0.58300    0.00030    1.000
    C56      C        0.61130    0.57300    0.85410    1.000
    H34      H        0.58430    0.59750    0.80230    1.000
    C57      C        0.57160    0.51130    0.88190    1.000
    H35      H        0.51960    0.49500    0.84870    1.000
    C58      C        0.79340    0.49060    0.30350    1.000
    H36      H        0.76330    0.51810    0.33290    1.000
    C59      C        0.82290    0.52710    0.24580    1.000
    H37      H        0.81660    0.58270    0.22820    1.000
    C60      C        0.85510    0.39640    0.25960    1.000
    H38      H        0.87630    0.34460    0.25140    1.000
    C61      C        0.90350    0.47470    0.15620    1.000
    C62      C        0.90430    0.41180    0.10320    1.000
    H39      H        0.87890    0.36120    0.10740    1.000
    C63      C        0.94270    0.42150    0.04200    1.000
    H40      H        0.94280    0.37690    0.00630    1.000
    C64      C        0.97980    0.49420    0.03300    1.000
    C65      C        0.98010    0.55550    0.08940    1.000
    H41      H        0.00730    0.60530    0.08700    1.000
    C66      C        0.94220    0.54720    0.14950    1.000
    H42      H        0.94300    0.59140    0.18590    1.000
    N7       N        0.68580    0.60080    0.89540    1.000
    N8       N        0.81400    0.40850    0.31200    1.000
    N9       N        0.86350    0.46590    0.21910    1.000
    Ni3      Ni       0.75240    0.31315    0.35150    1.000
    O9       O        0.68270    0.31100    0.22978    1.000
    O10      O        0.57880    0.22760    0.22620    1.000
    O11      O        0.34330    0.21480    0.96587    1.000
    O12      O        0.34850    0.27680    0.85065    1.000
    C67      C        0.11290    0.77980    0.19460    1.000
    C68      C        0.06970    0.81150    0.10730    1.000
    C69      C        0.99520    0.77950    0.06060    1.000
    H43      H        0.97020    0.73910    0.08410    1.000
    C70      C        0.95660    0.80650    0.97890    1.000
    C71      C        0.99290    0.86920    0.94500    1.000
    H44      H        0.96720    0.88750    0.89020    1.000
    C72      C        0.06700    0.90480    0.99160    1.000
    C73      C        0.10450    0.87400    0.07260    1.000
    H45      H        0.15460    0.89630    0.10430    1.000
    C74      C        0.87810    0.76440    0.92890    1.000
    C75      C        0.10610    0.97330    0.95700    1.000
    C76      C        0.18210    0.00220    0.99910    1.000
    H46      H        0.21060    0.97860    0.05090    1.000
    C77      C        0.21780    0.06480    0.96740    1.000
    H47      H        0.26920    0.08300    0.00030    1.000
    C78      C        0.11130    0.07300    0.85410    1.000
    H48      H        0.08430    0.09750    0.80230    1.000
    C79      C        0.07160    0.01130    0.88190    1.000
    H49      H        0.01960    0.99500    0.84870    1.000
    C80      C        0.29340    0.99060    0.30350    1.000
    H50      H        0.26330    0.01810    0.33290    1.000
    C81      C        0.32290    0.02710    0.24580    1.000
    H51      H        0.31660    0.08270    0.22820    1.000
    C82      C        0.35510    0.89640    0.25960    1.000
    H52      H        0.37630    0.84460    0.25140    1.000
    C83      C        0.40350    0.97470    0.15620    1.000
    C84      C        0.40430    0.91180    0.10320    1.000
    H53      H        0.37890    0.86120    0.10740    1.000
    C85      C        0.44270    0.92150    0.04200    1.000
    H54      H        0.44280    0.87690    0.00630    1.000
    C86      C        0.47980    0.99420    0.03300    1.000
    C87      C        0.48010    0.05550    0.08940    1.000
    H55      H        0.50730    0.10530    0.08700    1.000
    C88      C        0.44220    0.04720    0.14950    1.000
    H56      H        0.44300    0.09140    0.18590    1.000
    N10      N        0.18580    0.10080    0.89540    1.000
    N11      N        0.31400    0.90850    0.31200    1.000
    N12      N        0.36350    0.96590    0.21910    1.000
    Ni4      Ni       0.25240    0.81315    0.35150    1.000
    O13      O        0.18270    0.81100    0.22978    1.000
    O14      O        0.07880    0.72760    0.22620    1.000
    O15      O        0.84330    0.71480    0.96587    1.000
    O16      O        0.84850    0.77680    0.85065    1.000
    C89      C        0.61290    0.72020    0.69460    1.000
    C90      C        0.56970    0.68850    0.60730    1.000
    C91      C        0.49520    0.72050    0.56060    1.000
    H57      H        0.47020    0.76090    0.58410    1.000
    C92      C        0.45660    0.69350    0.47890    1.000
    C93      C        0.49290    0.63080    0.44500    1.000
    H58      H        0.46720    0.61250    0.39020    1.000
    C94      C        0.56700    0.59520    0.49160    1.000
    C95      C        0.60450    0.62600    0.57260    1.000
    H59      H        0.65460    0.60370    0.60430    1.000
    C96      C        0.37810    0.73560    0.42890    1.000
    C97      C        0.60610    0.52670    0.45700    1.000
    C98      C        0.68210    0.49780    0.49910    1.000
    H60      H        0.71060    0.52140    0.55090    1.000
    C99      C        0.71780    0.43520    0.46740    1.000
    H61      H        0.76920    0.41700    0.50030    1.000
    C100     C        0.61130    0.42700    0.35410    1.000
    H62      H        0.58430    0.40250    0.30230    1.000
    C101     C        0.57160    0.48870    0.38190    1.000
    H63      H        0.51960    0.50500    0.34870    1.000
    C102     C        0.79340    0.50940    0.80350    1.000
    H64      H        0.76330    0.48190    0.83290    1.000
    C103     C        0.82290    0.47290    0.74580    1.000
    H65      H        0.81660    0.41730    0.72820    1.000
    C104     C        0.85510    0.60360    0.75960    1.000
    H66      H        0.87630    0.65540    0.75140    1.000
    C105     C        0.90350    0.52530    0.65620    1.000
    C106     C        0.90430    0.58820    0.60320    1.000
    H67      H        0.87890    0.63880    0.60740    1.000
    C107     C        0.94270    0.57850    0.54200    1.000
    H68      H        0.94280    0.62310    0.50630    1.000
    C108     C        0.97980    0.50580    0.53300    1.000
    C109     C        0.98010    0.44450    0.58940    1.000
    H69      H        0.00730    0.39470    0.58700    1.000
    C110     C        0.94220    0.45280    0.64950    1.000
    H70      H        0.94300    0.40860    0.68590    1.000
    N13      N        0.68580    0.39920    0.39540    1.000
    N14      N        0.81400    0.59150    0.81200    1.000
    N15      N        0.86350    0.53410    0.71910    1.000
    Ni5      Ni       0.75240    0.68685    0.85150    1.000
    O17      O        0.68270    0.68900    0.72978    1.000
    O18      O        0.57880    0.77240    0.72620    1.000
    O19      O        0.34330    0.78520    0.46587    1.000
    O20      O        0.34850    0.72320    0.35065    1.000
    C111     C        0.11290    0.22020    0.69460    1.000
    C112     C        0.06970    0.18850    0.60730    1.000
    C113     C        0.99520    0.22050    0.56060    1.000
    H71      H        0.97020    0.26090    0.58410    1.000
    C114     C        0.95660    0.19350    0.47890    1.000
    C115     C        0.99290    0.13080    0.44500    1.000
    H72      H        0.96720    0.11250    0.39020    1.000
    C116     C        0.06700    0.09520    0.49160    1.000
    C117     C        0.10450    0.12600    0.57260    1.000
    H73      H        0.15460    0.10370    0.60430    1.000
    C118     C        0.87810    0.23560    0.42890    1.000
    C119     C        0.10610    0.02670    0.45700    1.000
    C120     C        0.18210    0.99780    0.49910    1.000
    H74      H        0.21060    0.02140    0.55090    1.000
    C121     C        0.21780    0.93520    0.46740    1.000
    H75      H        0.26920    0.91700    0.50030    1.000
    C122     C        0.11130    0.92700    0.35410    1.000
    H76      H        0.08430    0.90250    0.30230    1.000
    C123     C        0.07160    0.98870    0.38190    1.000
    H77      H        0.01960    0.00500    0.34870    1.000
    C124     C        0.29340    0.00940    0.80350    1.000
    H78      H        0.26330    0.98190    0.83290    1.000
    C125     C        0.32290    0.97290    0.74580    1.000
    H79      H        0.31660    0.91730    0.72820    1.000
    C126     C        0.35510    0.10360    0.75960    1.000
    H80      H        0.37630    0.15540    0.75140    1.000
    C127     C        0.40350    0.02530    0.65620    1.000
    C128     C        0.40430    0.08820    0.60320    1.000
    H81      H        0.37890    0.13880    0.60740    1.000
    C129     C        0.44270    0.07850    0.54200    1.000
    H82      H        0.44280    0.12310    0.50630    1.000
    C130     C        0.47980    0.00580    0.53300    1.000
    C131     C        0.48010    0.94450    0.58940    1.000
    H83      H        0.50730    0.89470    0.58700    1.000
    C132     C        0.44220    0.95280    0.64950    1.000
    H84      H        0.44300    0.90860    0.68590    1.000
    N16      N        0.18580    0.89920    0.39540    1.000
    N17      N        0.31400    0.09150    0.81200    1.000
    N18      N        0.36350    0.03410    0.71910    1.000
    Ni6      Ni       0.25240    0.18685    0.85150    1.000
    O21      O        0.18270    0.18900    0.72978    1.000
    O22      O        0.07880    0.27240    0.72620    1.000
    O23      O        0.84330    0.28520    0.46587    1.000
    O24      O        0.84850    0.22320    0.35065    1.000
    C133     C        0.38710    0.72020    0.80540    1.000
    C134     C        0.43030    0.68850    0.89270    1.000
    C135     C        0.50480    0.72050    0.93940    1.000
    H85      H        0.52980    0.76090    0.91590    1.000
    C136     C        0.54340    0.69350    0.02110    1.000
    C137     C        0.50710    0.63080    0.05500    1.000
    H86      H        0.53280    0.61250    0.10980    1.000
    C138     C        0.43300    0.59520    0.00840    1.000
    C139     C        0.39550    0.62600    0.92740    1.000
    H87      H        0.34540    0.60370    0.89570    1.000
    C140     C        0.62190    0.73560    0.07110    1.000
    C141     C        0.39390    0.52670    0.04300    1.000
    C142     C        0.31790    0.49780    0.00090    1.000
    H88      H        0.28940    0.52140    0.94910    1.000
    C143     C        0.28220    0.43520    0.03260    1.000
    H89      H        0.23080    0.41700    0.99970    1.000
    C144     C        0.38870    0.42700    0.14590    1.000
    H90      H        0.41570    0.40250    0.19770    1.000
    C145     C        0.42840    0.48870    0.11810    1.000
    H91      H        0.48040    0.50500    0.15130    1.000
    C146     C        0.20660    0.50940    0.69650    1.000
    H92      H        0.23670    0.48190    0.66710    1.000
    C147     C        0.17710    0.47290    0.75420    1.000
    H93      H        0.18340    0.41730    0.77180    1.000
    C148     C        0.14490    0.60360    0.74040    1.000
    H94      H        0.12370    0.65540    0.74860    1.000
    C149     C        0.09650    0.52530    0.84380    1.000
    C150     C        0.09570    0.58820    0.89680    1.000
    H95      H        0.12110    0.63880    0.89260    1.000
    C151     C        0.05730    0.57850    0.95800    1.000
    H96      H        0.05720    0.62310    0.99370    1.000
    C152     C        0.02020    0.50580    0.96700    1.000
    C153     C        0.01990    0.44450    0.91060    1.000
    H97      H        0.99270    0.39470    0.91300    1.000
    C154     C        0.05780    0.45280    0.85050    1.000
    H98      H        0.05700    0.40860    0.81410    1.000
    N19      N        0.31420    0.39920    0.10460    1.000
    N20      N        0.18600    0.59150    0.68800    1.000
    N21      N        0.13650    0.53410    0.78090    1.000
    Ni7      Ni       0.24760    0.68685    0.64850    1.000
    O25      O        0.31730    0.68900    0.77022    1.000
    O26      O        0.42120    0.77240    0.77380    1.000
    O27      O        0.65670    0.78520    0.03413    1.000
    O28      O        0.65150    0.72320    0.14935    1.000
    C155     C        0.88710    0.22020    0.80540    1.000
    C156     C        0.93030    0.18850    0.89270    1.000
    C157     C        0.00480    0.22050    0.93940    1.000
    H99      H        0.02980    0.26090    0.91590    1.000
    C158     C        0.04340    0.19350    0.02110    1.000
    C159     C        0.00710    0.13080    0.05500    1.000
    H100     H        0.03280    0.11250    0.10980    1.000
    C160     C        0.93300    0.09520    0.00840    1.000
    C161     C        0.89550    0.12600    0.92740    1.000
    H101     H        0.84540    0.10370    0.89570    1.000
    C162     C        0.12190    0.23560    0.07110    1.000
    C163     C        0.89390    0.02670    0.04300    1.000
    C164     C        0.81790    0.99780    0.00090    1.000
    H102     H        0.78940    0.02140    0.94910    1.000
    C165     C        0.78220    0.93520    0.03260    1.000
    H103     H        0.73080    0.91700    0.99970    1.000
    C166     C        0.88870    0.92700    0.14590    1.000
    H104     H        0.91570    0.90250    0.19770    1.000
    C167     C        0.92840    0.98870    0.11810    1.000
    H105     H        0.98040    0.00500    0.15130    1.000
    C168     C        0.70660    0.00940    0.69650    1.000
    H106     H        0.73670    0.98190    0.66710    1.000
    C169     C        0.67710    0.97290    0.75420    1.000
    H107     H        0.68340    0.91730    0.77180    1.000
    C170     C        0.64490    0.10360    0.74040    1.000
    H108     H        0.62370    0.15540    0.74860    1.000
    C171     C        0.59650    0.02530    0.84380    1.000
    C172     C        0.59570    0.08820    0.89680    1.000
    H109     H        0.62110    0.13880    0.89260    1.000
    C173     C        0.55730    0.07850    0.95800    1.000
    H110     H        0.55720    0.12310    0.99370    1.000
    C174     C        0.52020    0.00580    0.96700    1.000
    C175     C        0.51990    0.94450    0.91060    1.000
    H111     H        0.49270    0.89470    0.91300    1.000
    C176     C        0.55780    0.95280    0.85050    1.000
    H112     H        0.55700    0.90860    0.81410    1.000
    N22      N        0.81420    0.89920    0.10460    1.000
    N23      N        0.68600    0.09150    0.68800    1.000
    N24      N        0.63650    0.03410    0.78090    1.000
    Ni8      Ni       0.74760    0.18685    0.64850    1.000
    O29      O        0.81730    0.18900    0.77022    1.000
    O30      O        0.92120    0.27240    0.77380    1.000
    O31      O        0.15670    0.28520    0.03413    1.000
    O32      O        0.15150    0.22320    0.14935    1.000
