data_functionalizedCrystal
_audit_creation_method	'EQeq! by Chris Wilmer'
_symmetry_space_group_name_H-M	'P1'
_symmetry_Int_Tables_number	1
_symmetry_cell_setting	triclinic
loop_
_symmetry_equiv_pos_as_xyz
  x,y,z
_cell_length_a	35.1433
_cell_length_b	35.1433
_cell_length_c	21.9283
_cell_angle_alpha	90
_cell_angle_beta	90
_cell_angle_gamma	120
loop_
_atom_site_label
_atom_site_type_symbol
_atom_site_fract_x
_atom_site_fract_y
_atom_site_fract_z
_atom_site_charge
Mof_O 	O 	0.52484	0.97133	0.92979	-0.409
Mof_O 	O 	0.51141	0.94419	0.02529	-0.41
Mof_C 	C 	0.52361	0.9456	0.97119	0.365
Mof_C 	C 	0.53889	0.91404	0.95301	-0.127
Mof_C 	C 	0.54129	0.88663	0.99711	0.062
Mof_H 	H 	0.5333	0.8878	0.0377	0.025
Mof_C 	C 	0.55561	0.85765	0.98068	-0.143
Mof_H 	H 	0.5565	0.8387	0.0101	0.092
Mof_C 	C 	0.56856	0.85642	0.92154	0.102
Mof_C 	C 	0.56549	0.88373	0.87764	-0.148
Mof_H 	H 	0.5731	0.8825	0.8369	0.081
Mof_C 	C 	0.55124	0.9126	0.89464	0.066
Mof_H 	H 	0.5501	0.9315	0.8653	0.023
Mof_C 	C 	0.58785	0.82854	0.90414	-0.062
Mof_C 	C 	0.62582	0.8467	0.87006	-0.047
Mof_H 	H 	0.6386	0.8764	0.8588	0.046
Mof_H 	H 	0.4933	0.7241	0.8953	0.084
Mof_O 	O 	0.19151	0.30466	0.26312	-0.409
Mof_O 	O 	0.17808	0.27752	0.35862	-0.41
Mof_C 	C 	0.19028	0.27893	0.30452	0.365
Mof_C 	C 	0.20556	0.24737	0.28634	-0.127
Mof_C 	C 	0.20796	0.21996	0.33044	0.061
Mof_H 	H 	0.19997	0.22113	0.37103	0.025
Mof_C 	C 	0.22228	0.19098	0.31401	-0.144
Mof_H 	H 	0.22317	0.17203	0.34343	0.092
Mof_C 	C 	0.23523	0.18975	0.25487	0.102
Mof_C 	C 	0.23216	0.21706	0.21097	-0.147
Mof_H 	H 	0.23977	0.21583	0.17023	0.081
Mof_C 	C 	0.21791	0.24593	0.22797	0.065
Mof_H 	H 	0.21677	0.26483	0.19863	0.023
Mof_C 	C 	0.25452	0.16187	0.23747	-0.062
Mof_C 	C 	0.29249	0.18003	0.20339	-0.047
Mof_H 	H 	0.30527	0.20973	0.19213	0.046
Mof_H 	H 	0.15997	0.05743	0.22863	0.084
Mof_O 	O 	0.85817	0.638	0.59646	-0.409
Mof_O 	O 	0.84474	0.61086	0.69196	-0.41
Mof_C 	C 	0.85694	0.61227	0.63786	0.365
Mof_C 	C 	0.87222	0.58071	0.61968	-0.127
Mof_C 	C 	0.87462	0.5533	0.66378	0.061
Mof_H 	H 	0.86663	0.55447	0.70437	0.025
Mof_C 	C 	0.88894	0.52432	0.64735	-0.144
Mof_H 	H 	0.88983	0.50537	0.67677	0.092
Mof_C 	C 	0.90189	0.52309	0.58821	0.102
Mof_C 	C 	0.89882	0.5504	0.54431	-0.147
Mof_H 	H 	0.90643	0.54917	0.50357	0.081
Mof_C 	C 	0.88457	0.57927	0.56131	0.065
Mof_H 	H 	0.88343	0.59817	0.53197	0.023
Mof_C 	C 	0.92118	0.49521	0.57081	-0.062
Mof_C 	C 	0.95915	0.51337	0.53673	-0.047
Mof_H 	H 	0.97193	0.54307	0.52547	0.046
Mof_H 	H 	0.82663	0.39077	0.56197	0.084
Mof_O 	O 	0.02867	0.55351	0.92979	-0.409
Mof_O 	O 	0.05581	0.56722	0.02529	-0.41
Mof_C 	C 	0.0544	0.57801	0.97119	0.365
Mof_C 	C 	0.08596	0.62485	0.95301	-0.127
Mof_C 	C 	0.11337	0.65466	0.99711	0.062
Mof_H 	H 	0.1122	0.6455	0.0377	0.024
Mof_C 	C 	0.14235	0.69796	0.98068	-0.143
Mof_H 	H 	0.1613	0.7178	0.0101	0.091
Mof_C 	C 	0.14358	0.71214	0.92154	0.102
Mof_C 	C 	0.11627	0.68176	0.87764	-0.147
Mof_H 	H 	0.1175	0.6906	0.8369	0.081
Mof_C 	C 	0.0874	0.63864	0.89464	0.066
Mof_H 	H 	0.0685	0.6186	0.8653	0.023
Mof_C 	C 	0.17146	0.75931	0.90414	-0.062
Mof_C 	C 	0.1533	0.77912	0.87006	-0.048
Mof_H 	H 	0.1236	0.7622	0.8588	0.046
Mof_H 	H 	0.2759	0.7692	0.8953	0.084
Mof_O 	O 	0.69534	0.88684	0.26312	-0.409
Mof_O 	O 	0.72248	0.90055	0.35862	-0.41
Mof_C 	C 	0.72107	0.91134	0.30452	0.365
Mof_C 	C 	0.75263	0.95818	0.28634	-0.127
Mof_C 	C 	0.78004	0.98799	0.33044	0.061
Mof_H 	H 	0.77887	0.97883	0.37103	0.025
Mof_C 	C 	0.80902	0.03129	0.31401	-0.143
Mof_H 	H 	0.82797	0.05113	0.34343	0.092
Mof_C 	C 	0.81025	0.04547	0.25487	0.102
Mof_C 	C 	0.78294	0.01509	0.21097	-0.147
Mof_H 	H 	0.78417	0.02393	0.17023	0.081
Mof_C 	C 	0.75407	0.97197	0.22797	0.065
Mof_H 	H 	0.73517	0.95193	0.19863	0.023
Mof_C 	C 	0.83813	0.09264	0.23747	-0.062
Mof_C 	C 	0.81997	0.11245	0.20339	-0.048
Mof_H 	H 	0.79027	0.09553	0.19213	0.046
Mof_H 	H 	0.94257	0.10253	0.22863	0.084
Mof_O 	O 	0.362	0.22018	0.59646	-0.409
Mof_O 	O 	0.38914	0.23389	0.69196	-0.409
Mof_C 	C 	0.38773	0.24468	0.63786	0.366
Mof_C 	C 	0.41929	0.29152	0.61968	-0.126
Mof_C 	C 	0.4467	0.32133	0.66378	0.062
Mof_H 	H 	0.44553	0.31217	0.70437	0.026
Mof_C 	C 	0.47568	0.36463	0.64735	-0.143
Mof_H 	H 	0.49463	0.38447	0.67677	0.093
Mof_C 	C 	0.47691	0.37881	0.58821	0.103
Mof_C 	C 	0.4496	0.34843	0.54431	-0.146
Mof_H 	H 	0.45083	0.35727	0.50357	0.082
Mof_C 	C 	0.42073	0.30531	0.56131	0.066
Mof_H 	H 	0.40183	0.28527	0.53197	0.024
Mof_C 	C 	0.50479	0.42598	0.57081	-0.061
Mof_C 	C 	0.48663	0.44579	0.53673	-0.046
Mof_H 	H 	0.45693	0.42887	0.52547	0.047
Mof_H 	H 	0.60923	0.43587	0.56197	0.085
Mof_O 	O 	0.44649	0.47516	0.92979	-0.408
Mof_O 	O 	0.43278	0.48859	0.02529	-0.409
Mof_C 	C 	0.42199	0.47639	0.97119	0.366
Mof_C 	C 	0.37515	0.46111	0.95301	-0.126
Mof_C 	C 	0.34534	0.45871	0.99711	0.062
Mof_H 	H 	0.3545	0.4667	0.0377	0.026
Mof_C 	C 	0.30204	0.44439	0.98068	-0.142
Mof_H 	H 	0.2822	0.4435	0.0101	0.093
Mof_C 	C 	0.28786	0.43144	0.92154	0.103
Mof_C 	C 	0.31824	0.43451	0.87764	-0.146
Mof_H 	H 	0.3094	0.4269	0.8369	0.082
Mof_C 	C 	0.36136	0.44876	0.89464	0.066
Mof_H 	H 	0.3814	0.4499	0.8653	0.024
Mof_C 	C 	0.24069	0.41215	0.90414	-0.061
Mof_C 	C 	0.22088	0.37418	0.87006	-0.046
Mof_H 	H 	0.2378	0.3614	0.8588	0.047
Mof_H 	H 	0.2308	0.5067	0.8953	0.085
Mof_O 	O 	0.11316	0.80849	0.26312	-0.408
Mof_O 	O 	0.09945	0.82192	0.35862	-0.409
Mof_C 	C 	0.08866	0.80972	0.30452	0.366
Mof_C 	C 	0.04182	0.79444	0.28634	-0.126
Mof_C 	C 	0.01201	0.79204	0.33044	0.062
Mof_H 	H 	0.02117	0.80003	0.37103	0.026
Mof_C 	C 	0.96871	0.77772	0.31401	-0.142
Mof_H 	H 	0.94887	0.77683	0.34343	0.093
Mof_C 	C 	0.95453	0.76477	0.25487	0.103
Mof_C 	C 	0.98491	0.76784	0.21097	-0.146
Mof_H 	H 	0.97607	0.76023	0.17023	0.082
Mof_C 	C 	0.02803	0.78209	0.22797	0.066
Mof_H 	H 	0.04807	0.78323	0.19863	0.024
Mof_C 	C 	0.90736	0.74548	0.23747	-0.061
Mof_C 	C 	0.88755	0.70751	0.20339	-0.047
Mof_H 	H 	0.90447	0.69473	0.19213	0.047
Mof_H 	H 	0.89747	0.84003	0.22863	0.085
Mof_O 	O 	0.77982	0.14183	0.59646	-0.408
Mof_O 	O 	0.76611	0.15526	0.69196	-0.409
Mof_C 	C 	0.75532	0.14306	0.63786	0.366
Mof_C 	C 	0.70848	0.12778	0.61968	-0.126
Mof_C 	C 	0.67867	0.12538	0.66378	0.062
Mof_H 	H 	0.68783	0.13337	0.70437	0.026
Mof_C 	C 	0.63537	0.11106	0.64735	-0.143
Mof_H 	H 	0.61553	0.11017	0.67677	0.093
Mof_C 	C 	0.62119	0.09811	0.58821	0.103
Mof_C 	C 	0.65157	0.10118	0.54431	-0.146
Mof_H 	H 	0.64273	0.09357	0.50357	0.082
Mof_C 	C 	0.69469	0.11543	0.56131	0.066
Mof_H 	H 	0.71473	0.11657	0.53197	0.024
Mof_C 	C 	0.57402	0.07882	0.57081	-0.061
Mof_C 	C 	0.55421	0.04085	0.53673	-0.046
Mof_H 	H 	0.57113	0.02807	0.52547	0.047
Mof_H 	H 	0.56413	0.17337	0.56197	0.085
Mof_O 	O 	0.97133	0.52484	0.07021	-0.408
Mof_O 	O 	0.94419	0.51141	0.97471	-0.409
Mof_C 	C 	0.9456	0.52361	0.02881	0.366
Mof_C 	C 	0.91404	0.53889	0.04699	-0.126
Mof_C 	C 	0.88663	0.54129	0.00289	0.063
Mof_H 	H 	0.8878	0.5333	0.9623	0.026
Mof_C 	C 	0.85765	0.55561	0.01932	-0.142
Mof_H 	H 	0.8387	0.5565	0.9899	0.093
Mof_C 	C 	0.85642	0.56856	0.07846	0.103
Mof_C 	C 	0.88373	0.56549	0.12236	-0.147
Mof_H 	H 	0.8825	0.5731	0.1631	0.082
Mof_C 	C 	0.9126	0.55124	0.10536	0.067
Mof_H 	H 	0.9315	0.5501	0.1347	0.024
Mof_C 	C 	0.82854	0.58785	0.09586	-0.061
Mof_C 	C 	0.8467	0.62582	0.12994	-0.046
Mof_H 	H 	0.8764	0.6386	0.1412	0.047
Mof_H 	H 	0.7241	0.4933	0.1047	0.085
Mof_O 	O 	0.638	0.85817	0.40354	-0.408
Mof_O 	O 	0.61086	0.84474	0.30804	-0.409
Mof_C 	C 	0.61227	0.85694	0.36214	0.366
Mof_C 	C 	0.58071	0.87222	0.38032	-0.126
Mof_C 	C 	0.5533	0.87462	0.33622	0.062
Mof_H 	H 	0.55447	0.86663	0.29563	0.026
Mof_C 	C 	0.52432	0.88894	0.35265	-0.143
Mof_H 	H 	0.50537	0.88983	0.32323	0.093
Mof_C 	C 	0.52309	0.90189	0.41179	0.103
Mof_C 	C 	0.5504	0.89882	0.45569	-0.146
Mof_H 	H 	0.54917	0.90643	0.49643	0.082
Mof_C 	C 	0.57927	0.88457	0.43869	0.066
Mof_H 	H 	0.59817	0.88343	0.46803	0.024
Mof_C 	C 	0.49521	0.92118	0.42919	-0.061
Mof_C 	C 	0.51337	0.95915	0.46327	-0.046
Mof_H 	H 	0.54307	0.97193	0.47453	0.047
Mof_H 	H 	0.39077	0.82663	0.43803	0.085
Mof_O 	O 	0.30466	0.19151	0.73688	-0.408
Mof_O 	O 	0.27752	0.17808	0.64138	-0.409
Mof_C 	C 	0.27893	0.19028	0.69548	0.366
Mof_C 	C 	0.24737	0.20556	0.71366	-0.126
Mof_C 	C 	0.21996	0.20796	0.66956	0.062
Mof_H 	H 	0.22113	0.19997	0.62897	0.026
Mof_C 	C 	0.19098	0.22228	0.68599	-0.143
Mof_H 	H 	0.17203	0.22317	0.65657	0.093
Mof_C 	C 	0.18975	0.23523	0.74513	0.103
Mof_C 	C 	0.21706	0.23216	0.78903	-0.146
Mof_H 	H 	0.21583	0.23977	0.82977	0.082
Mof_C 	C 	0.24593	0.21791	0.77203	0.066
Mof_H 	H 	0.26483	0.21677	0.80137	0.024
Mof_C 	C 	0.16187	0.25452	0.76253	-0.061
Mof_C 	C 	0.18003	0.29249	0.79661	-0.046
Mof_H 	H 	0.20973	0.30527	0.80787	0.047
Mof_H 	H 	0.05743	0.15997	0.77137	0.085
Mof_O 	O 	0.55351	0.02867	0.07021	-0.408
Mof_O 	O 	0.56722	0.05581	0.97471	-0.409
Mof_C 	C 	0.57801	0.0544	0.02881	0.366
Mof_C 	C 	0.62485	0.08596	0.04699	-0.126
Mof_C 	C 	0.65466	0.11337	0.00289	0.063
Mof_H 	H 	0.6455	0.1122	0.9623	0.025
Mof_C 	C 	0.69796	0.14235	0.01932	-0.142
Mof_H 	H 	0.7178	0.1613	0.9899	0.092
Mof_C 	C 	0.71214	0.14358	0.07846	0.103
Mof_C 	C 	0.68176	0.11627	0.12236	-0.146
Mof_H 	H 	0.6906	0.1175	0.1631	0.082
Mof_C 	C 	0.63864	0.0874	0.10536	0.067
Mof_H 	H 	0.6186	0.0685	0.1347	0.024
Mof_C 	C 	0.75931	0.17146	0.09586	-0.061
Mof_C 	C 	0.77912	0.1533	0.12994	-0.047
Mof_H 	H 	0.7622	0.1236	0.1412	0.047
Mof_H 	H 	0.7692	0.2759	0.1047	0.085
Mof_O 	O 	0.22018	0.362	0.40354	-0.408
Mof_O 	O 	0.23389	0.38914	0.30804	-0.409
Mof_C 	C 	0.24468	0.38773	0.36214	0.366
Mof_C 	C 	0.29152	0.41929	0.38032	-0.126
Mof_C 	C 	0.32133	0.4467	0.33622	0.062
Mof_H 	H 	0.31217	0.44553	0.29563	0.026
Mof_C 	C 	0.36463	0.47568	0.35265	-0.143
Mof_H 	H 	0.38447	0.49463	0.32323	0.093
Mof_C 	C 	0.37881	0.47691	0.41179	0.103
Mof_C 	C 	0.34843	0.4496	0.45569	-0.146
Mof_H 	H 	0.35727	0.45083	0.49643	0.082
Mof_C 	C 	0.30531	0.42073	0.43869	0.066
Mof_H 	H 	0.28527	0.40183	0.46803	0.024
Mof_C 	C 	0.42598	0.50479	0.42919	-0.061
Mof_C 	C 	0.44579	0.48663	0.46327	-0.046
Mof_H 	H 	0.42887	0.45693	0.47453	0.047
Mof_H 	H 	0.43587	0.60923	0.43803	0.085
Mof_O 	O 	0.88684	0.69534	0.73688	-0.408
Mof_O 	O 	0.90055	0.72248	0.64138	-0.409
Mof_C 	C 	0.91134	0.72107	0.69548	0.366
Mof_C 	C 	0.95818	0.75263	0.71366	-0.126
Mof_C 	C 	0.98799	0.78004	0.66956	0.062
Mof_H 	H 	0.97883	0.77887	0.62897	0.026
Mof_C 	C 	0.03129	0.80902	0.68599	-0.142
Mof_H 	H 	0.05113	0.82797	0.65657	0.093
Mof_C 	C 	0.04547	0.81025	0.74513	0.103
Mof_C 	C 	0.01509	0.78294	0.78903	-0.146
Mof_H 	H 	0.02393	0.78417	0.82977	0.082
Mof_C 	C 	0.97197	0.75407	0.77203	0.066
Mof_H 	H 	0.95193	0.73517	0.80137	0.024
Mof_C 	C 	0.09264	0.83813	0.76253	-0.061
Mof_C 	C 	0.11245	0.81997	0.79661	-0.047
Mof_H 	H 	0.09553	0.79027	0.80787	0.047
Mof_H 	H 	0.10253	0.94257	0.77137	0.085
Mof_O 	O 	0.47516	0.44649	0.07021	-0.408
Mof_O 	O 	0.48859	0.43278	0.97471	-0.409
Mof_C 	C 	0.47639	0.42199	0.02881	0.366
Mof_C 	C 	0.46111	0.37515	0.04699	-0.126
Mof_C 	C 	0.45871	0.34534	0.00289	0.062
Mof_H 	H 	0.4667	0.3545	0.9623	0.026
Mof_C 	C 	0.44439	0.30204	0.01932	-0.142
Mof_H 	H 	0.4435	0.2822	0.9899	0.093
Mof_C 	C 	0.43144	0.28786	0.07846	0.103
Mof_C 	C 	0.43451	0.31824	0.12236	-0.146
Mof_H 	H 	0.4269	0.3094	0.1631	0.082
Mof_C 	C 	0.44876	0.36136	0.10536	0.066
Mof_H 	H 	0.4499	0.3814	0.1347	0.024
Mof_C 	C 	0.41215	0.24069	0.09586	-0.061
Mof_C 	C 	0.37418	0.22088	0.12994	-0.046
Mof_H 	H 	0.3614	0.2378	0.1412	0.047
Mof_H 	H 	0.5067	0.2308	0.1047	0.085
Mof_O 	O 	0.14183	0.77982	0.40354	-0.408
Mof_O 	O 	0.15526	0.76611	0.30804	-0.409
Mof_C 	C 	0.14306	0.75532	0.36214	0.366
Mof_C 	C 	0.12778	0.70848	0.38032	-0.126
Mof_C 	C 	0.12538	0.67867	0.33622	0.062
Mof_H 	H 	0.13337	0.68783	0.29563	0.026
Mof_C 	C 	0.11106	0.63537	0.35265	-0.143
Mof_H 	H 	0.11017	0.61553	0.32323	0.093
Mof_C 	C 	0.09811	0.62119	0.41179	0.103
Mof_C 	C 	0.10118	0.65157	0.45569	-0.146
Mof_H 	H 	0.09357	0.64273	0.49643	0.082
Mof_C 	C 	0.11543	0.69469	0.43869	0.066
Mof_H 	H 	0.11657	0.71473	0.46803	0.024
Mof_C 	C 	0.07882	0.57402	0.42919	-0.061
Mof_C 	C 	0.04085	0.55421	0.46327	-0.046
Mof_H 	H 	0.02807	0.57113	0.47453	0.047
Mof_H 	H 	0.17337	0.56413	0.43803	0.085
Mof_O 	O 	0.80849	0.11316	0.73688	-0.408
Mof_O 	O 	0.82192	0.09945	0.64138	-0.409
Mof_C 	C 	0.80972	0.08866	0.69548	0.366
Mof_C 	C 	0.79444	0.04182	0.71366	-0.126
Mof_C 	C 	0.79204	0.01201	0.66956	0.062
Mof_H 	H 	0.80003	0.02117	0.62897	0.026
Mof_C 	C 	0.77772	0.96871	0.68599	-0.142
Mof_H 	H 	0.77683	0.94887	0.65657	0.093
Mof_C 	C 	0.76477	0.95453	0.74513	0.103
Mof_C 	C 	0.76784	0.98491	0.78903	-0.146
Mof_H 	H 	0.76023	0.97607	0.82977	0.082
Mof_C 	C 	0.78209	0.02803	0.77203	0.066
Mof_H 	H 	0.78323	0.04807	0.80137	0.024
Mof_C 	C 	0.74548	0.90736	0.76253	-0.061
Mof_C 	C 	0.70751	0.88755	0.79661	-0.047
Mof_H 	H 	0.69473	0.90447	0.80787	0.047
Mof_H 	H 	0.84003	0.89747	0.77137	0.085
Mof_O 	O 	0.47516	0.02867	0.07021	-0.408
Mof_O 	O 	0.48859	0.05581	0.97471	-0.409
Mof_C 	C 	0.47639	0.0544	0.02881	0.366
Mof_C 	C 	0.46111	0.08596	0.04699	-0.126
Mof_C 	C 	0.45871	0.11337	0.00289	0.063
Mof_H 	H 	0.4667	0.1122	0.9623	0.026
Mof_C 	C 	0.44439	0.14235	0.01932	-0.142
Mof_H 	H 	0.4435	0.1613	0.9899	0.093
Mof_C 	C 	0.43144	0.14358	0.07846	0.103
Mof_C 	C 	0.43451	0.11627	0.12236	-0.147
Mof_H 	H 	0.4269	0.1175	0.1631	0.082
Mof_C 	C 	0.44876	0.0874	0.10536	0.067
Mof_H 	H 	0.4499	0.0685	0.1347	0.024
Mof_C 	C 	0.41215	0.17146	0.09586	-0.061
Mof_C 	C 	0.37418	0.1533	0.12994	-0.046
Mof_H 	H 	0.3614	0.1236	0.1412	0.047
Mof_H 	H 	0.5067	0.2759	0.1047	0.085
Mof_O 	O 	0.14183	0.362	0.40354	-0.408
Mof_O 	O 	0.15526	0.38914	0.30804	-0.409
Mof_C 	C 	0.14306	0.38773	0.36214	0.366
Mof_C 	C 	0.12778	0.41929	0.38032	-0.126
Mof_C 	C 	0.12538	0.4467	0.33622	0.062
Mof_H 	H 	0.13337	0.44553	0.29563	0.026
Mof_C 	C 	0.11106	0.47568	0.35265	-0.143
Mof_H 	H 	0.11017	0.49463	0.32323	0.093
Mof_C 	C 	0.09811	0.47691	0.41179	0.103
Mof_C 	C 	0.10118	0.4496	0.45569	-0.146
Mof_H 	H 	0.09357	0.45083	0.49643	0.082
Mof_C 	C 	0.11543	0.42073	0.43869	0.066
Mof_H 	H 	0.11657	0.40183	0.46803	0.024
Mof_C 	C 	0.07882	0.50479	0.42919	-0.061
Mof_C 	C 	0.04085	0.48663	0.46327	-0.046
Mof_H 	H 	0.02807	0.45693	0.47453	0.047
Mof_H 	H 	0.17337	0.60923	0.43803	0.085
Mof_O 	O 	0.80849	0.69534	0.73688	-0.408
Mof_O 	O 	0.82192	0.72248	0.64138	-0.409
Mof_C 	C 	0.80972	0.72107	0.69548	0.366
Mof_C 	C 	0.79444	0.75263	0.71366	-0.126
Mof_C 	C 	0.79204	0.78004	0.66956	0.062
Mof_H 	H 	0.80003	0.77887	0.62897	0.026
Mof_C 	C 	0.77772	0.80902	0.68599	-0.143
Mof_H 	H 	0.77683	0.82797	0.65657	0.093
Mof_C 	C 	0.76477	0.81025	0.74513	0.103
Mof_C 	C 	0.76784	0.78294	0.78903	-0.146
Mof_H 	H 	0.76023	0.78417	0.82977	0.082
Mof_C 	C 	0.78209	0.75407	0.77203	0.066
Mof_H 	H 	0.78323	0.73517	0.80137	0.024
Mof_C 	C 	0.74548	0.83813	0.76253	-0.061
Mof_C 	C 	0.70751	0.81997	0.79661	-0.046
Mof_H 	H 	0.69473	0.79027	0.80787	0.047
Mof_H 	H 	0.84003	0.94257	0.77137	0.085
Mof_O 	O 	0.97133	0.44649	0.07021	-0.408
Mof_O 	O 	0.94419	0.43278	0.97471	-0.409
Mof_C 	C 	0.9456	0.42199	0.02881	0.366
Mof_C 	C 	0.91404	0.37515	0.04699	-0.126
Mof_C 	C 	0.88663	0.34534	0.00289	0.063
Mof_H 	H 	0.8878	0.3545	0.9623	0.025
Mof_C 	C 	0.85765	0.30204	0.01932	-0.142
Mof_H 	H 	0.8387	0.2822	0.9899	0.092
Mof_C 	C 	0.85642	0.28786	0.07846	0.103
Mof_C 	C 	0.88373	0.31824	0.12236	-0.146
Mof_H 	H 	0.8825	0.3094	0.1631	0.082
Mof_C 	C 	0.9126	0.36136	0.10536	0.067
Mof_H 	H 	0.9315	0.3814	0.1347	0.024
Mof_C 	C 	0.82854	0.24069	0.09586	-0.061
Mof_C 	C 	0.8467	0.22088	0.12994	-0.047
Mof_H 	H 	0.8764	0.2378	0.1412	0.047
Mof_H 	H 	0.7241	0.2308	0.1047	0.085
Mof_O 	O 	0.638	0.77982	0.40354	-0.408
Mof_O 	O 	0.61086	0.76611	0.30804	-0.409
Mof_C 	C 	0.61227	0.75532	0.36214	0.366
Mof_C 	C 	0.58071	0.70848	0.38032	-0.126
Mof_C 	C 	0.5533	0.67867	0.33622	0.062
Mof_H 	H 	0.55447	0.68783	0.29563	0.026
Mof_C 	C 	0.52432	0.63537	0.35265	-0.143
Mof_H 	H 	0.50537	0.61553	0.32323	0.093
Mof_C 	C 	0.52309	0.62119	0.41179	0.103
Mof_C 	C 	0.5504	0.65157	0.45569	-0.146
Mof_H 	H 	0.54917	0.64273	0.49643	0.082
Mof_C 	C 	0.57927	0.69469	0.43869	0.066
Mof_H 	H 	0.59817	0.71473	0.46803	0.024
Mof_C 	C 	0.49521	0.57402	0.42919	-0.061
Mof_C 	C 	0.51337	0.55421	0.46327	-0.046
Mof_H 	H 	0.54307	0.57113	0.47453	0.047
Mof_H 	H 	0.39077	0.56413	0.43803	0.085
Mof_O 	O 	0.30466	0.11316	0.73688	-0.408
Mof_O 	O 	0.27752	0.09945	0.64138	-0.409
Mof_C 	C 	0.27893	0.08866	0.69548	0.366
Mof_C 	C 	0.24737	0.04182	0.71366	-0.126
Mof_C 	C 	0.21996	0.01201	0.66956	0.062
Mof_H 	H 	0.22113	0.02117	0.62897	0.026
Mof_C 	C 	0.19098	0.96871	0.68599	-0.142
Mof_H 	H 	0.17203	0.94887	0.65657	0.093
Mof_C 	C 	0.18975	0.95453	0.74513	0.103
Mof_C 	C 	0.21706	0.98491	0.78903	-0.146
Mof_H 	H 	0.21583	0.97607	0.82977	0.082
Mof_C 	C 	0.24593	0.02803	0.77203	0.066
Mof_H 	H 	0.26483	0.04807	0.80137	0.024
Mof_C 	C 	0.16187	0.90736	0.76253	-0.061
Mof_C 	C 	0.18003	0.88755	0.79661	-0.047
Mof_H 	H 	0.20973	0.90447	0.80787	0.047
Mof_H 	H 	0.05743	0.89747	0.77137	0.085
Mof_O 	O 	0.55351	0.52484	0.07021	-0.408
Mof_O 	O 	0.56722	0.51141	0.97471	-0.409
Mof_C 	C 	0.57801	0.52361	0.02881	0.366
Mof_C 	C 	0.62485	0.53889	0.04699	-0.126
Mof_C 	C 	0.65466	0.54129	0.00289	0.062
Mof_H 	H 	0.6455	0.5333	0.9623	0.026
Mof_C 	C 	0.69796	0.55561	0.01932	-0.142
Mof_H 	H 	0.7178	0.5565	0.9899	0.093
Mof_C 	C 	0.71214	0.56856	0.07846	0.103
Mof_C 	C 	0.68176	0.56549	0.12236	-0.146
Mof_H 	H 	0.6906	0.5731	0.1631	0.082
Mof_C 	C 	0.63864	0.55124	0.10536	0.066
Mof_H 	H 	0.6186	0.5501	0.1347	0.024
Mof_C 	C 	0.75931	0.58785	0.09586	-0.061
Mof_C 	C 	0.77912	0.62582	0.12994	-0.046
Mof_H 	H 	0.7622	0.6386	0.1412	0.047
Mof_H 	H 	0.7692	0.4933	0.1047	0.085
Mof_O 	O 	0.22018	0.85817	0.40354	-0.408
Mof_O 	O 	0.23389	0.84474	0.30804	-0.409
Mof_C 	C 	0.24468	0.85694	0.36214	0.366
Mof_C 	C 	0.29152	0.87222	0.38032	-0.126
Mof_C 	C 	0.32133	0.87462	0.33622	0.062
Mof_H 	H 	0.31217	0.86663	0.29563	0.026
Mof_C 	C 	0.36463	0.88894	0.35265	-0.143
Mof_H 	H 	0.38447	0.88983	0.32323	0.093
Mof_C 	C 	0.37881	0.90189	0.41179	0.103
Mof_C 	C 	0.34843	0.89882	0.45569	-0.146
Mof_H 	H 	0.35727	0.90643	0.49643	0.082
Mof_C 	C 	0.30531	0.88457	0.43869	0.066
Mof_H 	H 	0.28527	0.88343	0.46803	0.024
Mof_C 	C 	0.42598	0.92118	0.42919	-0.061
Mof_C 	C 	0.44579	0.95915	0.46327	-0.046
Mof_H 	H 	0.42887	0.97193	0.47453	0.047
Mof_H 	H 	0.43587	0.82663	0.43803	0.085
Mof_O 	O 	0.88684	0.19151	0.73688	-0.408
Mof_O 	O 	0.90055	0.17808	0.64138	-0.409
Mof_C 	C 	0.91134	0.19028	0.69548	0.366
Mof_C 	C 	0.95818	0.20556	0.71366	-0.126
Mof_C 	C 	0.98799	0.20796	0.66956	0.062
Mof_H 	H 	0.97883	0.19997	0.62897	0.026
Mof_C 	C 	0.03129	0.22228	0.68599	-0.142
Mof_H 	H 	0.05113	0.22317	0.65657	0.093
Mof_C 	C 	0.04547	0.23523	0.74513	0.103
Mof_C 	C 	0.01509	0.23216	0.78903	-0.146
Mof_H 	H 	0.02393	0.23977	0.82977	0.082
Mof_C 	C 	0.97197	0.21791	0.77203	0.066
Mof_H 	H 	0.95193	0.21677	0.80137	0.024
Mof_C 	C 	0.09264	0.25452	0.76253	-0.061
Mof_C 	C 	0.11245	0.29249	0.79661	-0.047
Mof_H 	H 	0.09553	0.30527	0.80787	0.047
Mof_H 	H 	0.10253	0.15997	0.77137	0.085
Mof_O 	O 	0.02867	0.47516	0.92979	-0.408
Mof_O 	O 	0.05581	0.48859	0.02529	-0.409
Mof_C 	C 	0.0544	0.47639	0.97119	0.366
Mof_C 	C 	0.08596	0.46111	0.95301	-0.126
Mof_C 	C 	0.11337	0.45871	0.99711	0.063
Mof_H 	H 	0.1122	0.4667	0.0377	0.026
Mof_C 	C 	0.14235	0.44439	0.98068	-0.142
Mof_H 	H 	0.1613	0.4435	0.0101	0.093
Mof_C 	C 	0.14358	0.43144	0.92154	0.103
Mof_C 	C 	0.11627	0.43451	0.87764	-0.147
Mof_H 	H 	0.1175	0.4269	0.8369	0.082
Mof_C 	C 	0.0874	0.44876	0.89464	0.067
Mof_H 	H 	0.0685	0.4499	0.8653	0.024
Mof_C 	C 	0.17146	0.41215	0.90414	-0.061
Mof_C 	C 	0.1533	0.37418	0.87006	-0.046
Mof_H 	H 	0.1236	0.3614	0.8588	0.047
Mof_H 	H 	0.2759	0.5067	0.8953	0.085
Mof_O 	O 	0.69534	0.80849	0.26312	-0.408
Mof_O 	O 	0.72248	0.82192	0.35862	-0.409
Mof_C 	C 	0.72107	0.80972	0.30452	0.366
Mof_C 	C 	0.75263	0.79444	0.28634	-0.126
Mof_C 	C 	0.78004	0.79204	0.33044	0.062
Mof_H 	H 	0.77887	0.80003	0.37103	0.026
Mof_C 	C 	0.80902	0.77772	0.31401	-0.143
Mof_H 	H 	0.82797	0.77683	0.34343	0.093
Mof_C 	C 	0.81025	0.76477	0.25487	0.103
Mof_C 	C 	0.78294	0.76784	0.21097	-0.146
Mof_H 	H 	0.78417	0.76023	0.17023	0.082
Mof_C 	C 	0.75407	0.78209	0.22797	0.066
Mof_H 	H 	0.73517	0.78323	0.19863	0.024
Mof_C 	C 	0.83813	0.74548	0.23747	-0.061
Mof_C 	C 	0.81997	0.70751	0.20339	-0.046
Mof_H 	H 	0.79027	0.69473	0.19213	0.047
Mof_H 	H 	0.94257	0.84003	0.22863	0.085
Mof_O 	O 	0.362	0.14183	0.59646	-0.408
Mof_O 	O 	0.38914	0.15526	0.69196	-0.409
Mof_C 	C 	0.38773	0.14306	0.63786	0.366
Mof_C 	C 	0.41929	0.12778	0.61968	-0.126
Mof_C 	C 	0.4467	0.12538	0.66378	0.062
Mof_H 	H 	0.44553	0.13337	0.70437	0.026
Mof_C 	C 	0.47568	0.11106	0.64735	-0.143
Mof_H 	H 	0.49463	0.11017	0.67677	0.093
Mof_C 	C 	0.47691	0.09811	0.58821	0.103
Mof_C 	C 	0.4496	0.10118	0.54431	-0.146
Mof_H 	H 	0.45083	0.09357	0.50357	0.082
Mof_C 	C 	0.42073	0.11543	0.56131	0.066
Mof_H 	H 	0.40183	0.11657	0.53197	0.024
Mof_C 	C 	0.50479	0.07882	0.57081	-0.061
Mof_C 	C 	0.48663	0.04085	0.53673	-0.046
Mof_H 	H 	0.45693	0.02807	0.52547	0.047
Mof_H 	H 	0.60923	0.17337	0.56197	0.085
Mof_O 	O 	0.44649	0.97133	0.92979	-0.408
Mof_O 	O 	0.43278	0.94419	0.02529	-0.409
Mof_C 	C 	0.42199	0.9456	0.97119	0.366
Mof_C 	C 	0.37515	0.91404	0.95301	-0.126
Mof_C 	C 	0.34534	0.88663	0.99711	0.063
Mof_H 	H 	0.3545	0.8878	0.0377	0.025
Mof_C 	C 	0.30204	0.85765	0.98068	-0.142
Mof_H 	H 	0.2822	0.8387	0.0101	0.092
Mof_C 	C 	0.28786	0.85642	0.92154	0.103
Mof_C 	C 	0.31824	0.88373	0.87764	-0.146
Mof_H 	H 	0.3094	0.8825	0.8369	0.082
Mof_C 	C 	0.36136	0.9126	0.89464	0.067
Mof_H 	H 	0.3814	0.9315	0.8653	0.024
Mof_C 	C 	0.24069	0.82854	0.90414	-0.061
Mof_C 	C 	0.22088	0.8467	0.87006	-0.047
Mof_H 	H 	0.2378	0.8764	0.8588	0.047
Mof_H 	H 	0.2308	0.7241	0.8953	0.085
Mof_O 	O 	0.11316	0.30466	0.26312	-0.408
Mof_O 	O 	0.09945	0.27752	0.35862	-0.409
Mof_C 	C 	0.08866	0.27893	0.30452	0.366
Mof_C 	C 	0.04182	0.24737	0.28634	-0.126
Mof_C 	C 	0.01201	0.21996	0.33044	0.062
Mof_H 	H 	0.02117	0.22113	0.37103	0.026
Mof_C 	C 	0.96871	0.19098	0.31401	-0.142
Mof_H 	H 	0.94887	0.17203	0.34343	0.093
Mof_C 	C 	0.95453	0.18975	0.25487	0.103
Mof_C 	C 	0.98491	0.21706	0.21097	-0.146
Mof_H 	H 	0.97607	0.21583	0.17023	0.082
Mof_C 	C 	0.02803	0.24593	0.22797	0.066
Mof_H 	H 	0.04807	0.26483	0.19863	0.024
Mof_C 	C 	0.90736	0.16187	0.23747	-0.061
Mof_C 	C 	0.88755	0.18003	0.20339	-0.047
Mof_H 	H 	0.90447	0.20973	0.19213	0.047
Mof_H 	H 	0.89747	0.05743	0.22863	0.085
Mof_O 	O 	0.77982	0.638	0.59646	-0.408
Mof_O 	O 	0.76611	0.61086	0.69196	-0.409
Mof_C 	C 	0.75532	0.61227	0.63786	0.366
Mof_C 	C 	0.70848	0.58071	0.61968	-0.126
Mof_C 	C 	0.67867	0.5533	0.66378	0.062
Mof_H 	H 	0.68783	0.55447	0.70437	0.026
Mof_C 	C 	0.63537	0.52432	0.64735	-0.143
Mof_H 	H 	0.61553	0.50537	0.67677	0.093
Mof_C 	C 	0.62119	0.52309	0.58821	0.103
Mof_C 	C 	0.65157	0.5504	0.54431	-0.146
Mof_H 	H 	0.64273	0.54917	0.50357	0.082
Mof_C 	C 	0.69469	0.57927	0.56131	0.066
Mof_H 	H 	0.71473	0.59817	0.53197	0.024
Mof_C 	C 	0.57402	0.49521	0.57081	-0.061
Mof_C 	C 	0.55421	0.51337	0.53673	-0.046
Mof_H 	H 	0.57113	0.54307	0.52547	0.047
Mof_H 	H 	0.56413	0.39077	0.56197	0.085
Mof_O 	O 	0.52484	0.55351	0.92979	-0.408
Mof_O 	O 	0.51141	0.56722	0.02529	-0.409
Mof_C 	C 	0.52361	0.57801	0.97119	0.366
Mof_C 	C 	0.53889	0.62485	0.95301	-0.126
Mof_C 	C 	0.54129	0.65466	0.99711	0.062
Mof_H 	H 	0.5333	0.6455	0.0377	0.026
Mof_C 	C 	0.55561	0.69796	0.98068	-0.142
Mof_H 	H 	0.5565	0.7178	0.0101	0.093
Mof_C 	C 	0.56856	0.71214	0.92154	0.103
Mof_C 	C 	0.56549	0.68176	0.87764	-0.146
Mof_H 	H 	0.5731	0.6906	0.8369	0.082
Mof_C 	C 	0.55124	0.63864	0.89464	0.066
Mof_H 	H 	0.5501	0.6186	0.8653	0.024
Mof_C 	C 	0.58785	0.75931	0.90414	-0.061
Mof_C 	C 	0.62582	0.77912	0.87006	-0.046
Mof_H 	H 	0.6386	0.7622	0.8588	0.047
Mof_H 	H 	0.4933	0.7692	0.8953	0.085
Mof_O 	O 	0.19151	0.88684	0.26312	-0.408
Mof_O 	O 	0.17808	0.90055	0.35862	-0.409
Mof_C 	C 	0.19028	0.91134	0.30452	0.366
Mof_C 	C 	0.20556	0.95818	0.28634	-0.126
Mof_C 	C 	0.20796	0.98799	0.33044	0.062
Mof_H 	H 	0.19997	0.97883	0.37103	0.026
Mof_C 	C 	0.22228	0.03129	0.31401	-0.142
Mof_H 	H 	0.22317	0.05113	0.34343	0.093
Mof_C 	C 	0.23523	0.04547	0.25487	0.103
Mof_C 	C 	0.23216	0.01509	0.21097	-0.146
Mof_H 	H 	0.23977	0.02393	0.17023	0.082
Mof_C 	C 	0.21791	0.97197	0.22797	0.066
Mof_H 	H 	0.21677	0.95193	0.19863	0.024
Mof_C 	C 	0.25452	0.09264	0.23747	-0.061
Mof_C 	C 	0.29249	0.11245	0.20339	-0.047
Mof_H 	H 	0.30527	0.09553	0.19213	0.047
Mof_H 	H 	0.15997	0.10253	0.22863	0.085
Mof_O 	O 	0.85817	0.22018	0.59646	-0.408
Mof_O 	O 	0.84474	0.23389	0.69196	-0.409
Mof_C 	C 	0.85694	0.24468	0.63786	0.366
Mof_C 	C 	0.87222	0.29152	0.61968	-0.126
Mof_C 	C 	0.87462	0.32133	0.66378	0.062
Mof_H 	H 	0.86663	0.31217	0.70437	0.026
Mof_C 	C 	0.88894	0.36463	0.64735	-0.143
Mof_H 	H 	0.88983	0.38447	0.67677	0.093
Mof_C 	C 	0.90189	0.37881	0.58821	0.103
Mof_C 	C 	0.89882	0.34843	0.54431	-0.146
Mof_H 	H 	0.90643	0.35727	0.50357	0.082
Mof_C 	C 	0.88457	0.30531	0.56131	0.066
Mof_H 	H 	0.88343	0.28527	0.53197	0.024
Mof_C 	C 	0.92118	0.42598	0.57081	-0.061
Mof_C 	C 	0.95915	0.44579	0.53673	-0.046
Mof_H 	H 	0.97193	0.42887	0.52547	0.047
Mof_H 	H 	0.82663	0.43587	0.56197	0.085
Mof_Cu	Cu	0.50792	0.01584	0.94383	0.904
Mof_Cu	Cu	0.17459	0.34917	0.27716	0.904
Mof_Cu	Cu	0.84125	0.68251	0.6105	0.904
Mof_Cu	Cu	0.98416	0.49208	0.94383	0.904
Mof_Cu	Cu	0.65083	0.82541	0.27716	0.904
Mof_Cu	Cu	0.31749	0.15875	0.6105	0.904
Mof_Cu	Cu	0.50792	0.49208	0.94383	0.904
Mof_Cu	Cu	0.17459	0.82541	0.27716	0.904
Mof_Cu	Cu	0.84125	0.15875	0.6105	0.904
Mof_Cu	Cu	0.01584	0.50792	0.05617	0.904
Mof_Cu	Cu	0.68251	0.84125	0.3895	0.904
Mof_Cu	Cu	0.34917	0.17459	0.72284	0.904
Mof_Cu	Cu	0.49208	0.98416	0.05617	0.904
Mof_Cu	Cu	0.15875	0.31749	0.3895	0.904
Mof_Cu	Cu	0.82541	0.65083	0.72284	0.904
Mof_Cu	Cu	0.49208	0.50792	0.05617	0.904
Mof_Cu	Cu	0.15875	0.84125	0.3895	0.904
Mof_Cu	Cu	0.82541	0.17459	0.72284	0.904
Mof_O 	O 	0.5313	0.76565	0.95664	-0.179
Mof_C 	C 	0.64639	0.82319	0.85128	0.008
Mof_C 	C 	0.56849	0.78424	0.92144	0.119
Mof_C 	C 	0.49357	0.74678	0.9208	-0.164
Mof_H 	H 	0.4678	0.7339	0.9469	0.087
Mof_O 	O 	0.19797	0.09898	0.28997	-0.18
Mof_C 	C 	0.31306	0.15653	0.18461	0.008
Mof_C 	C 	0.23516	0.11758	0.25477	0.118
Mof_C 	C 	0.16024	0.08012	0.25413	-0.164
Mof_H 	H 	0.13447	0.06723	0.28023	0.087
Mof_O 	O 	0.86463	0.43232	0.62331	-0.18
Mof_C 	C 	0.97972	0.48986	0.51795	0.008
Mof_C 	C 	0.90182	0.45091	0.58811	0.119
Mof_C 	C 	0.8269	0.41345	0.58747	-0.164
Mof_H 	H 	0.80113	0.40057	0.61357	0.087
Mof_O 	O 	0.23435	0.76565	0.95664	-0.179
Mof_C 	C 	0.17681	0.82319	0.85128	0.008
Mof_C 	C 	0.21576	0.78424	0.92144	0.118
Mof_C 	C 	0.25322	0.74678	0.9208	-0.164
Mof_H 	H 	0.2661	0.7339	0.9469	0.087
Mof_O 	O 	0.90102	0.09898	0.28997	-0.179
Mof_C 	C 	0.84347	0.15653	0.18461	0.008
Mof_C 	C 	0.88242	0.11758	0.25477	0.118
Mof_C 	C 	0.91988	0.08012	0.25413	-0.164
Mof_H 	H 	0.93277	0.06723	0.28023	0.087
Mof_O 	O 	0.56768	0.43232	0.62331	-0.179
Mof_C 	C 	0.51014	0.48986	0.51795	0.008
Mof_C 	C 	0.54909	0.45091	0.58811	0.119
Mof_C 	C 	0.58655	0.41345	0.58747	-0.164
Mof_H 	H 	0.59943	0.40057	0.61357	0.087
Mof_O 	O 	0.23435	0.4687	0.95664	-0.179
Mof_C 	C 	0.17681	0.35361	0.85128	0.008
Mof_C 	C 	0.21576	0.43151	0.92144	0.119
Mof_C 	C 	0.25322	0.50643	0.9208	-0.164
Mof_H 	H 	0.2661	0.5322	0.9469	0.087
Mof_O 	O 	0.90102	0.80203	0.28997	-0.18
Mof_C 	C 	0.84347	0.68694	0.18461	0.008
Mof_C 	C 	0.88242	0.76484	0.25477	0.118
Mof_C 	C 	0.91988	0.83976	0.25413	-0.164
Mof_H 	H 	0.93277	0.86553	0.28023	0.087
Mof_O 	O 	0.56768	0.13537	0.62331	-0.18
Mof_C 	C 	0.51014	0.02028	0.51795	0.008
Mof_C 	C 	0.54909	0.09818	0.58811	0.119
Mof_C 	C 	0.58655	0.1731	0.58747	-0.164
Mof_H 	H 	0.59943	0.19887	0.61357	0.087
Mof_O 	O 	0.76565	0.5313	0.04336	-0.179
Mof_C 	C 	0.82319	0.64639	0.14872	0.008
Mof_C 	C 	0.78424	0.56849	0.07856	0.119
Mof_C 	C 	0.74678	0.49357	0.0792	-0.164
Mof_H 	H 	0.7339	0.4678	0.0531	0.087
Mof_O 	O 	0.43232	0.86463	0.37669	-0.18
Mof_C 	C 	0.48986	0.97972	0.48205	0.008
Mof_C 	C 	0.45091	0.90182	0.41189	0.119
Mof_C 	C 	0.41345	0.8269	0.41253	-0.164
Mof_H 	H 	0.40057	0.80113	0.38643	0.087
Mof_O 	O 	0.09898	0.19797	0.71003	-0.18
Mof_C 	C 	0.15653	0.31306	0.81539	0.008
Mof_C 	C 	0.11758	0.23516	0.74523	0.118
Mof_C 	C 	0.08012	0.16024	0.74587	-0.164
Mof_H 	H 	0.06723	0.13447	0.71977	0.087
Mof_O 	O 	0.76565	0.23435	0.04336	-0.179
Mof_C 	C 	0.82319	0.17681	0.14872	0.008
Mof_C 	C 	0.78424	0.21576	0.07856	0.118
Mof_C 	C 	0.74678	0.25322	0.0792	-0.164
Mof_H 	H 	0.7339	0.2661	0.0531	0.087
Mof_O 	O 	0.43232	0.56768	0.37669	-0.179
Mof_C 	C 	0.48986	0.51014	0.48205	0.008
Mof_C 	C 	0.45091	0.54909	0.41189	0.119
Mof_C 	C 	0.41345	0.58655	0.41253	-0.164
Mof_H 	H 	0.40057	0.59943	0.38643	0.087
Mof_O 	O 	0.09898	0.90102	0.71003	-0.179
Mof_C 	C 	0.15653	0.84347	0.81539	0.008
Mof_C 	C 	0.11758	0.88242	0.74523	0.118
Mof_C 	C 	0.08012	0.91988	0.74587	-0.164
Mof_H 	H 	0.06723	0.93277	0.71977	0.087
Mof_O 	O 	0.4687	0.23435	0.04336	-0.179
Mof_C 	C 	0.35361	0.17681	0.14872	0.008
Mof_C 	C 	0.43151	0.21576	0.07856	0.119
Mof_C 	C 	0.50643	0.25322	0.0792	-0.164
Mof_H 	H 	0.5322	0.2661	0.0531	0.087
Mof_O 	O 	0.13537	0.56768	0.37669	-0.18
Mof_C 	C 	0.02028	0.51014	0.48205	0.008
Mof_C 	C 	0.09818	0.54909	0.41189	0.119
Mof_C 	C 	0.1731	0.58655	0.41253	-0.164
Mof_H 	H 	0.19887	0.59943	0.38643	0.087
Mof_O 	O 	0.80203	0.90102	0.71003	-0.18
Mof_C 	C 	0.68694	0.84347	0.81539	0.008
Mof_C 	C 	0.76484	0.88242	0.74523	0.118
Mof_C 	C 	0.83976	0.91988	0.74587	-0.164
Mof_H 	H 	0.86553	0.93277	0.71977	0.087
_end
