data_functionalizedCrystal
_audit_creation_method	'EQeq! by Chris Wilmer'
_symmetry_space_group_name_H-M	'P1'
_symmetry_Int_Tables_number	1
_symmetry_cell_setting	triclinic
loop_
_symmetry_equiv_pos_as_xyz
  x,y,z
_cell_length_a	11.128
_cell_length_b	14.055
_cell_length_c	22.979
_cell_angle_alpha	90
_cell_angle_beta	103.992
_cell_angle_gamma	90
loop_
_atom_site_label
_atom_site_type_symbol
_atom_site_fract_x
_atom_site_fract_y
_atom_site_fract_z
_atom_site_charge
Mof_Cd	Cd	0.06686	0.6712	0.19286	0.423
Mof_Cd	Cd	0.69861	0.52606	0.19775	0.466
Mof_Cd	Cd	0.30139	0.47394	0.80225	0.466
Mof_Cd	Cd	0.80139	0.02606	0.30225	0.464
Mof_Cd	Cd	0.43314	0.1712	0.30714	0.424
Mof_Cd	Cd	0.19861	0.97394	0.69775	0.465
Mof_Cd	Cd	0.93314	0.3288	0.80714	0.424
Mof_Cd	Cd	0.56686	0.8288	0.69286	0.424
Mof_H 	H 	0.7741	0.2709	0.5781	0.043
Mof_H 	H 	0.2661	0.1328	0.97	0.062
Mof_H 	H 	0.4923	0.9379	0.8138	0.021
Mof_H 	H 	0.8882	0.5927	0.5681	0.066
Mof_H 	H 	0.2629	0.3164	0.4921	0.064
Mof_H 	H 	0.2741	0.2291	0.0781	0.042
Mof_H 	H 	0.9381	0.8407	0.4916	0.071
Mof_H 	H 	0.0304	0.9414	0.7949	0.016
Mof_H 	H 	0.4381	0.6593	0.9916	0.069
Mof_H 	H 	0.8863	0.9568	0.0915	0.068
Mof_H 	H 	0.1971	0.9665	0.4241	0.077
Mof_H 	H 	0.3029	0.4665	0.0759	0.078
Mof_H 	H 	0.7661	0.3672	0.47	0.063
Mof_H 	H 	0.9696	0.0586	0.2051	0.016
Mof_H 	H 	0.5077	0.0621	0.1862	0.021
Mof_H 	H 	0.195	0.2758	0.7186	0.044
Mof_H 	H 	0.7538	0.761	0.3763	0.058
Mof_H 	H 	0.5601	0.7035	0.4248	0.083
Mof_H 	H 	0.5983	0.3547	0.9154	0.064
Mof_H 	H 	0.2371	0.8164	0.0079	0.065
Mof_H 	H 	0.2122	0.6994	0.6273	0.058
Mof_H 	H 	0.9909	0.8886	0.8953	0.081
Mof_H 	H 	0.0186	0.4505	0.5791	0.079
Mof_H 	H 	0.1137	0.0432	0.9085	0.068
Mof_H 	H 	0.805	0.7242	0.2814	0.044
Mof_H 	H 	0.4017	0.6453	0.0846	0.064
Mof_H 	H 	0.5508	0.1646	0.7823	0.063
Mof_H 	H 	0.7379	0.7378	0.8194	0.047
Mof_H 	H 	0.0077	0.4379	0.6862	0.022
Mof_H 	H 	0.2379	0.7622	0.3194	0.047
Mof_H 	H 	0.9923	0.5621	0.3138	0.022
Mof_H 	H 	0.9814	0.5495	0.4209	0.079
Mof_H 	H 	0.9399	0.2035	0.0752	0.083
Mof_H 	H 	0.0601	0.7965	0.9248	0.083
Mof_H 	H 	0.2259	0.7291	0.4219	0.043
Mof_H 	H 	0.3863	0.5432	0.5915	0.068
Mof_H 	H 	0.4909	0.6114	0.3953	0.081
Mof_H 	H 	0.7122	0.8006	0.1273	0.059
Mof_H 	H 	0.7621	0.2378	0.6806	0.047
Mof_H 	H 	0.7371	0.6836	0.5079	0.064
Mof_H 	H 	0.1555	0.4269	0.9908	0.045
Mof_H 	H 	0.2878	0.1994	0.8727	0.059
Mof_H 	H 	0.8445	0.5731	0.0092	0.045
Mof_H 	H 	0.6555	0.0731	0.4908	0.045
Mof_H 	H 	0.3445	0.9269	0.5092	0.045
Mof_H 	H 	0.7339	0.8672	0.03	0.062
Mof_H 	H 	0.6137	0.4568	0.4085	0.068
Mof_H 	H 	0.7878	0.3006	0.3727	0.058
Mof_H 	H 	0.0983	0.1453	0.4154	0.063
Mof_H 	H 	0.2462	0.239	0.6237	0.058
Mof_H 	H 	0.4814	0.9505	0.9209	0.078
Mof_H 	H 	0.7462	0.261	0.1237	0.057
Mof_H 	H 	0.7259	0.7709	0.9219	0.042
Mof_H 	H 	0.9017	0.8547	0.5846	0.063
Mof_H 	H 	0.2339	0.6328	0.53	0.063
Mof_H 	H 	0.2621	0.2622	0.1806	0.047
Mof_H 	H 	0.6118	0.0927	0.9319	0.064
Mof_H 	H 	0.3882	0.9073	0.0681	0.064
Mof_H 	H 	0.5619	0.3407	0.0084	0.069
Mof_H 	H 	0.8029	0.0335	0.5759	0.077
Mof_H 	H 	0.5312	0.8609	0.96	0.078
Mof_H 	H 	0.0619	0.1593	0.5084	0.071
Mof_H 	H 	0.0091	0.1114	0.1047	0.081
Mof_H 	H 	0.305	0.7758	0.7814	0.044
Mof_H 	H 	0.4696	0.4414	0.7051	0.017
Mof_H 	H 	0.4399	0.2965	0.5752	0.083
Mof_H 	H 	0.4492	0.8354	0.2177	0.063
Mof_H 	H 	0.2538	0.739	0.8763	0.057
Mof_H 	H 	0.5091	0.3886	0.6047	0.081
Mof_H 	H 	0.0508	0.3354	0.2823	0.062
Mof_H 	H 	0.6971	0.5335	0.9241	0.078
Mof_H 	H 	0.1118	0.4073	0.4319	0.066
Mof_H 	H 	0.4688	0.1391	0.04	0.078
Mof_H 	H 	0.5186	0.0495	0.0791	0.078
Mof_H 	H 	0.5304	0.5586	0.2949	0.017
Mof_H 	H 	0.0312	0.6391	0.46	0.079
Mof_H 	H 	0.7629	0.1836	0.9921	0.065
Mof_H 	H 	0.9688	0.3609	0.54	0.079
Mof_H 	H 	0.695	0.2242	0.2186	0.044
Mof_H 	H 	0.9492	0.6646	0.7177	0.062
Mof_C 	C 	0.0518	0.6085	0.3277	0.089
Mof_C 	C 	0.3332	0.8522	0.60917	0.312
Mof_C 	C 	0.7615	0.4319	0.4775	-0.074
Mof_C 	C 	0.9073	0.7643	0.65283	-0.057
Mof_C 	C 	0.4349	0.2854	0.90252	-0.002
Mof_C 	C 	0.0651	0.7854	0.59748	-0.004
Mof_C 	C 	0.0512	0.9094	0.44954	-0.021
Mof_C 	C 	0.8644	0.2838	0.36625	-0.034
Mof_C 	C 	0.3301	0.5144	0.5598	-0.07
Mof_C 	C 	0.0947	0.6719	0.67916	-0.058
Mof_C 	C 	0.9802	0.1403	0.50407	-0.076
Mof_C 	C 	0.7621	0.5889	0.00633	0.016
Mof_C 	C 	0.6661	0.0644	0.9644	-0.072
Mof_C 	C 	0.5451	0.4395	0.10428	0.274
Mof_C 	C 	0.6543	0.971	0.9747	0.067
Mof_C 	C 	0.9349	0.2146	0.40252	-0.004
Mof_C 	C 	0.3259	0.4342	0.0449	-0.064
Mof_C 	C 	0.5518	0.8915	0.8277	0.09
Mof_C 	C 	0.0707	0.857	0.9064	-0.137
Mof_C 	C 	0.2621	0.9111	0.50633	0.015
Mof_C 	C 	0.2615	0.0681	0.9775	-0.07
Mof_C 	C 	0.8136	0.2824	0.6691	0.01
Mof_C 	C 	0.0497	0.1915	0.39188	-0.034
Mof_C 	C 	0.8259	0.0658	0.5449	-0.062
Mof_C 	C 	0.9786	0.6954	0.68805	-0.005
Mof_C 	C 	0.2137	0.2082	0.33467	0.301
Mof_C 	C 	0.1661	0.4356	0.4644	-0.077
Mof_C 	C 	0.0451	0.0605	0.60428	0.276
Mof_C 	C 	0.7385	0.9319	0.0225	-0.07
Mof_C 	C 	0.9293	0.143	0.0936	-0.137
Mof_C 	C 	0.6749	0.8976	0.22034	0.29
Mof_C 	C 	0.0927	0.2357	0.34717	-0.057
Mof_C 	C 	0.3457	0.029	0.0253	0.067
Mof_C 	C 	0.5512	0.5906	0.94954	-0.02
Mof_C 	C 	0.5927	0.2643	0.84717	-0.056
Mof_C 	C 	0.1741	0.9342	0.4551	-0.062
Mof_C 	C 	0.3251	0.1024	0.77966	0.29
Mof_C 	C 	0.8377	0.0818	0.0497	0.073
Mof_C 	C 	0.6741	0.5658	0.9551	-0.064
Mof_C 	C 	0.1623	0.9182	0.9503	0.073
Mof_C 	C 	0.2385	0.5681	0.5225	-0.074
Mof_C 	C 	0.5921	0.6047	0.30299	0.096
Mof_C 	C 	0.3136	0.2176	0.1691	0.01
Mof_C 	C 	0.554	0.9113	0.936	-0.133
Mof_C 	C 	0.6623	0.5818	0.4503	0.073
Mof_C 	C 	0.5497	0.3085	0.89188	-0.036
Mof_C 	C 	0.2431	0.8805	0.999	-0.077
Mof_C 	C 	0.054	0.5887	0.436	-0.136
Mof_C 	C 	0.0198	0.8597	0.49593	-0.076
Mof_C 	C 	0.946	0.4113	0.564	-0.136
Mof_C 	C 	0.6797	0.8003	0.8874	-0.002
Mof_C 	C 	0.8457	0.471	0.5253	0.073
Mof_C 	C 	0.4053	0.1719	0.82084	-0.057
Mof_C 	C 	0.2696	0.3646	0.94601	-0.095
Mof_C 	C 	0.3339	0.9356	0.0356	-0.072
Mof_C 	C 	0.4786	0.8046	0.18805	-0.006
Mof_C 	C 	0.7429	0.6955	0.29597	0.019
Mof_C 	C 	0.1699	0.0144	0.9402	-0.07
Mof_C 	C 	0.1864	0.7176	0.3309	0.01
Mof_C 	C 	0.9053	0.3281	0.32084	-0.058
Mof_C 	C 	0.1543	0.529	0.4747	0.073
Mof_C 	C 	0.4073	0.7357	0.15283	-0.056
Mof_C 	C 	0.446	0.0887	0.064	-0.133
Mof_C 	C 	0.8339	0.5644	0.5356	-0.077
Mof_C 	C 	0.3644	0.2162	0.86625	-0.035
Mof_C 	C 	0.7147	0.7162	0.3483	-0.008
Mof_C 	C 	0.9482	0.3915	0.6723	0.089
Mof_C 	C 	0.2863	0.7082	0.16533	0.301
Mof_C 	C 	0.9549	0.9395	0.39572	0.276
Mof_C 	C 	0.2569	0.3805	0.501	-0.073
Mof_C 	C 	0.5214	0.1954	0.81195	-0.006
Mof_C 	C 	0.4549	0.5605	0.89572	0.274
Mof_C 	C 	0.4802	0.3597	0.00407	-0.076
Mof_C 	C 	0.6668	0.1478	0.39083	0.312
Mof_C 	C 	0.4488	0.4094	0.05046	-0.02
Mof_C 	C 	0.2304	0.8646	0.55399	-0.095
Mof_C 	C 	0.6356	0.7838	0.13375	-0.035
Mof_C 	C 	0.2571	0.3045	0.70403	0.019
Mof_C 	C 	0.1797	0.6997	0.3874	-0.002
Mof_C 	C 	0.7853	0.2162	0.1517	-0.008
Mof_C 	C 	0.5198	0.6403	0.99593	-0.076
Mof_C 	C 	0.6072	0.6628	0.04902	0.048
Mof_C 	C 	0.1356	0.7162	0.63375	-0.034
Mof_C 	C 	0.6864	0.7824	0.8309	0.01
Mof_C 	C 	0.8928	0.1628	0.45098	0.048
Mof_C 	C 	0.2853	0.2838	0.6517	-0.008
Mof_C 	C 	0.4293	0.357	0.5936	-0.136
Mof_C 	C 	0.5707	0.643	0.4064	-0.136
Mof_C 	C 	0.9503	0.8085	0.60812	-0.034
Mof_C 	C 	0.2379	0.4111	0.99367	0.016
Mof_C 	C 	0.8203	0.3003	0.6126	-0.002
Mof_C 	C 	0.7304	0.6354	0.05399	-0.095
Mof_C 	C 	0.4503	0.6915	0.10812	-0.036
Mof_C 	C 	0.1072	0.8372	0.54902	0.048
Mof_C 	C 	0.4079	0.3953	0.69701	0.096
Mof_C 	C 	0.7863	0.7918	0.66533	0.301
Mof_C 	C 	0.2429	0.8045	0.79597	0.019
Mof_C 	C 	0.0214	0.3046	0.31195	-0.005
Mof_C 	C 	0.7379	0.0889	0.49367	0.015
Mof_C 	C 	0.6699	0.4856	0.4402	-0.07
Mof_C 	C 	0.1749	0.6024	0.72034	0.29
Mof_C 	C 	0.7696	0.1354	0.44601	-0.095
Mof_C 	C 	0.8251	0.3976	0.27966	0.29
Mof_C 	C 	0.3203	0.1997	0.1126	-0.002
Mof_C 	C 	0.7431	0.6195	0.499	-0.073
Mof_C 	C 	0.3377	0.4182	0.5497	0.073
Mof_C 	C 	0.0921	0.8953	0.80299	0.096
Mof_C 	C 	0.3928	0.3372	0.95098	0.048
Mof_C 	C 	0.4482	0.1085	0.1723	0.09
Mof_C 	C 	0.8301	0.9856	0.0598	-0.07
Mof_C 	C 	0.7137	0.2918	0.83467	0.301
Mof_C 	C 	0.8332	0.6478	0.10917	0.312
Mof_C 	C 	0.5947	0.8281	0.17916	-0.057
Mof_C 	C 	0.9079	0.1047	0.19701	0.096
Mof_C 	C 	0.5651	0.7146	0.09748	-0.002
Mof_C 	C 	0.1668	0.3522	0.89083	0.312
Mof_C 	C 	0.7571	0.1955	0.20403	0.019
Mof_C 	C 	0.9488	0.0906	0.55046	-0.021
Mof_C 	C 	0.2147	0.7838	0.8483	-0.008
Mof_C 	C 	0.7569	0.1195	0.001	-0.077
Mof_N 	N 	0.618	0.6589	0.35244	-0.101
Mof_N 	N 	0.8353	0.1248	0.23257	-0.141
Mof_N 	N 	0.0934	0.6309	0.38503	-0.103
Mof_N 	N 	0.3353	0.3752	0.73257	-0.141
Mof_N 	N 	0.3958	0.1591	0.20696	-0.143
Mof_N 	N 	0.5934	0.8691	0.88503	-0.104
Mof_N 	N 	0.118	0.8411	0.85244	-0.101
Mof_N 	N 	0.6042	0.8409	0.79304	-0.143
Mof_N 	N 	0.1647	0.8752	0.76743	-0.141
Mof_N 	N 	0.6647	0.6248	0.26743	-0.141
Mof_N 	N 	0.1042	0.6591	0.29304	-0.142
Mof_N 	N 	0.8958	0.3409	0.70696	-0.142
Mof_N 	N 	0.4066	0.1309	0.11497	-0.104
Mof_N 	N 	0.9066	0.3691	0.61497	-0.103
Mof_N 	N 	0.882	0.1589	0.14756	-0.101
Mof_N 	N 	0.382	0.3411	0.64756	-0.101
Mof_O 	O 	0.1796	0.37453	0.8393	-0.293
Mof_O 	O 	0.276	0.143	0.3645	-0.26
Mof_O 	O 	0.2122	0.09855	0.777	-0.262
Mof_O 	O 	0.7122	0.40145	0.277	-0.263
Mof_O 	O 	0.3741	0.04941	0.74744	-0.27
Mof_O 	O 	0.2878	0.59855	0.723	-0.263
Mof_O 	O 	0.224	0.643	0.1355	-0.26
Mof_O 	O 	0.4337	0.8213	0.60165	-0.278
Mof_O 	O 	0.5097	0.48326	0.14539	-0.267
Mof_O 	O 	0.9903	0.98326	0.35461	-0.266
Mof_O 	O 	0.157	0.0744	0.60679	-0.258
Mof_O 	O 	0.6259	0.95059	0.25256	-0.27
Mof_O 	O 	0.4903	0.51674	0.85461	-0.267
Mof_O 	O 	0.8741	0.45059	0.24744	-0.271
Mof_O 	O 	0.3204	0.87453	0.6607	-0.294
Mof_O 	O 	0.1259	0.54941	0.75256	-0.271
Mof_O 	O 	0.2512	0.7512	0.20543	-0.279
Mof_O 	O 	0.843	0.9256	0.39321	-0.258
Mof_O 	O 	0.343	0.5744	0.89321	-0.258
Mof_O 	O 	0.8204	0.62547	0.1607	-0.293
Mof_O 	O 	0.2488	0.2512	0.29457	-0.279
Mof_O 	O 	0.9337	0.6787	0.10165	-0.278
Mof_O 	O 	0.776	0.357	0.8645	-0.26
Mof_O 	O 	0.657	0.4256	0.10679	-0.258
Mof_O 	O 	0.7488	0.2488	0.79457	-0.279
Mof_O 	O 	0.0097	0.01674	0.64539	-0.266
Mof_O 	O 	0.7512	0.7488	0.70543	-0.279
Mof_O 	O 	0.5663	0.1787	0.39835	-0.278
Mof_O 	O 	0.6796	0.12547	0.3393	-0.294
Mof_O 	O 	0.0663	0.3213	0.89835	-0.278
Mof_O 	O 	0.724	0.857	0.6355	-0.26
Mof_O 	O 	0.7878	0.90145	0.223	-0.262
_end
