data_functionalizedCrystal
_audit_creation_method	'EQeq! by Chris Wilmer'
_symmetry_space_group_name_H-M	'P1'
_symmetry_Int_Tables_number	1
_symmetry_cell_setting	triclinic
loop_
_symmetry_equiv_pos_as_xyz
  x,y,z
_cell_length_a	8.738
_cell_length_b	8.738
_cell_length_c	18.709
_cell_angle_alpha	90
_cell_angle_beta	90
_cell_angle_gamma	120
loop_
_atom_site_label
_atom_site_type_symbol
_atom_site_fract_x
_atom_site_fract_y
_atom_site_fract_z
_atom_site_charge
Mof_Co	Co	1.02027e-32	0	0.5	1.034
Mof_Co	Co	0.66667	0.33333	0.83333	1.149
Mof_Co	Co	0.33333	0.66667	0.16667	1.147
Mof_C 	C 	0.89615	0.7923	0.4427	-0.142
Mof_N 	N 	0.83255	0.6651	0.41	-0.304
Mof_C 	C 	0.56282	0.12563	0.77603	-0.389
Mof_N 	N 	0.49922	0.99843	0.74333	-0.186
Mof_C 	C 	0.22948	0.45897	0.10937	-0.295
Mof_N 	N 	0.16588	0.33177	0.07667	-0.253
Mof_C 	C 	0.2077	0.10385	0.4427	-0.371
Mof_N 	N 	0.3349	0.16745	0.41	-0.306
Mof_C 	C 	0.87437	0.43718	0.77603	-0.132
Mof_N 	N 	0.00157	0.50078	0.74333	-0.394
Mof_C 	C 	0.54103	0.77052	0.10937	-0.253
Mof_N 	N 	0.66823	0.83412	0.07667	-0.172
Mof_C 	C 	0.89615	0.10385	0.4427	-0.254
Mof_N 	N 	0.83255	0.16745	0.41	-0.306
Mof_C 	C 	0.56282	0.43718	0.77603	-0.257
Mof_N 	N 	0.49922	0.50078	0.74333	-0.293
Mof_C 	C 	0.22948	0.77052	0.10937	-0.272
Mof_N 	N 	0.16588	0.83412	0.07667	-0.208
Mof_C 	C 	0.7923	0.89615	0.5573	-0.141
Mof_N 	N 	0.6651	0.83255	0.59	-0.306
Mof_C 	C 	0.45897	0.22948	0.89063	-0.264
Mof_N 	N 	0.33177	0.16588	0.92333	-0.213
Mof_C 	C 	0.12563	0.56282	0.22397	-0.387
Mof_N 	N 	0.99843	0.49922	0.25667	-0.193
Mof_C 	C 	0.10385	0.2077	0.5573	-0.369
Mof_N 	N 	0.16745	0.3349	0.59	-0.308
Mof_C 	C 	0.77052	0.54103	0.89063	-0.223
Mof_N 	N 	0.83412	0.66823	0.92333	-0.134
Mof_C 	C 	0.43718	0.87437	0.22397	-0.126
Mof_N 	N 	0.50078	0.00157	0.25667	-0.404
Mof_C 	C 	0.10385	0.89615	0.5573	-0.244
Mof_N 	N 	0.16745	0.83255	0.59	-0.308
Mof_C 	C 	0.77052	0.22948	0.89063	-0.244
Mof_N 	N 	0.83412	0.16588	0.92333	-0.173
Mof_C 	C 	0.43718	0.56282	0.22397	-0.264
Mof_N 	N 	0.50078	0.49922	0.25667	-0.294
Mof_K 	K 	0.66667	0.33333	0.33333	2.36
Mof_K 	K 	0.33333	0.66667	0.66667	2.402
Mof_K 	K 	-0	0	-0	1.29
_end
