data_functionalizedCrystal
_audit_creation_method	'EQeq! by Chris Wilmer'
_symmetry_space_group_name_H-M	'P1'
_symmetry_Int_Tables_number	1
_symmetry_cell_setting	triclinic
loop_
_symmetry_equiv_pos_as_xyz
  x,y,z
_cell_length_a	12.8717
_cell_length_b	12.8717
_cell_length_c	61.931
_cell_angle_alpha	90
_cell_angle_beta	90
_cell_angle_gamma	120
loop_
_atom_site_label
_atom_site_type_symbol
_atom_site_fract_x
_atom_site_fract_y
_atom_site_fract_z
_atom_site_charge
Mof_N 	N 	0.33402	0.80158	0.02172	-0.267
Mof_N 	N 	0.54083	0.19482	0.01568	-0.264
Mof_C 	C 	0.36589	0.89549	0.02915	0.176
Mof_C 	C 	0.48026	0.10949	0.02562	0.13
Mof_C 	C 	0.40735	0.00903	0.03824	-0.186
Mof_C 	C 	0.38977	0.02375	0.06116	0.042
Mof_C 	C 	0.28837	0.93882	0.07253	-0.048
Mof_C 	C 	0.4747	0.12515	0.07254	-0.081
Mof_H 	H 	0.2307	0.8702	0.0654	0.05
Mof_H 	H 	0.5444	0.1868	0.0658	0.052
Mof_N 	N 	0.00069	0.13491	0.35505	-0.274
Mof_N 	N 	0.2075	0.52815	0.34901	-0.258
Mof_C 	C 	0.03256	0.22882	0.36248	0.103
Mof_C 	C 	0.14693	0.44282	0.35895	0.117
Mof_C 	C 	0.07402	0.34236	0.37157	-0.128
Mof_C 	C 	0.05644	0.35708	0.39449	0.013
Mof_C 	C 	0.95504	0.27215	0.40586	-0.018
Mof_C 	C 	0.14137	0.45848	0.40587	-0.055
Mof_H 	H 	0.89737	0.20353	0.39873	0.044
Mof_H 	H 	0.21107	0.52013	0.39913	0.045
Mof_N 	N 	0.66735	0.46825	0.68839	-0.256
Mof_N 	N 	0.87416	0.86149	0.68235	-0.235
Mof_C 	C 	0.69922	0.56216	0.69582	0.133
Mof_C 	C 	0.81359	0.77616	0.69229	0.141
Mof_C 	C 	0.74068	0.6757	0.70491	-0.138
Mof_C 	C 	0.7231	0.69042	0.72783	0.074
Mof_C 	C 	0.6217	0.60549	0.7392	-0.071
Mof_C 	C 	0.80803	0.79182	0.73921	-0.067
Mof_H 	H 	0.56403	0.53687	0.73207	0.057
Mof_H 	H 	0.87773	0.85347	0.73247	0.068
Mof_N 	N 	0.19842	0.53244	0.02172	-0.248
Mof_N 	N 	0.80518	0.34601	0.01568	-0.253
Mof_C 	C 	0.10451	0.4704	0.02915	0.077
Mof_C 	C 	0.89051	0.37077	0.02562	0.127
Mof_C 	C 	0.99097	0.39832	0.03824	-0.097
Mof_C 	C 	0.97625	0.36602	0.06116	0.094
Mof_C 	C 	0.06118	0.34955	0.07253	-0.101
Mof_C 	C 	0.87485	0.34955	0.07254	-0.062
Mof_H 	H 	0.1298	0.3605	0.0654	0.058
Mof_H 	H 	0.8132	0.3576	0.0658	0.05
Mof_N 	N 	0.86509	0.86577	0.35505	-0.234
Mof_N 	N 	0.47185	0.67934	0.34901	-0.257
Mof_C 	C 	0.77118	0.80373	0.36248	0.139
Mof_C 	C 	0.55718	0.7041	0.35895	0.135
Mof_C 	C 	0.65764	0.73165	0.37157	-0.138
Mof_C 	C 	0.64292	0.69935	0.39449	0.074
Mof_C 	C 	0.72785	0.68288	0.40586	-0.071
Mof_C 	C 	0.54152	0.68288	0.40587	-0.069
Mof_H 	H 	0.79647	0.69383	0.39873	0.066
Mof_H 	H 	0.47987	0.69093	0.39913	0.053
Mof_N 	N 	0.53175	0.19911	0.68839	-0.262
Mof_N 	N 	0.13851	0.01268	0.68235	-0.279
Mof_C 	C 	0.43784	0.13707	0.69582	0.134
Mof_C 	C 	0.22384	0.03744	0.69229	0.127
Mof_C 	C 	0.3243	0.06499	0.70491	-0.179
Mof_C 	C 	0.30958	0.03269	0.72783	0.151
Mof_C 	C 	0.39451	0.01622	0.7392	-0.219
Mof_C 	C 	0.20818	0.01622	0.73921	-0.212
Mof_H 	H 	0.46313	0.02717	0.73207	0.097
Mof_H 	H 	0.14653	0.02427	0.73247	0.078
Mof_N 	N 	0.46756	0.66598	0.02172	-0.255
Mof_N 	N 	0.65399	0.45917	0.01568	-0.256
Mof_C 	C 	0.5296	0.63411	0.02915	0.132
Mof_C 	C 	0.62923	0.51974	0.02562	0.134
Mof_C 	C 	0.60168	0.59265	0.03824	-0.139
Mof_C 	C 	0.63398	0.61023	0.06116	0.071
Mof_C 	C 	0.65045	0.71163	0.07253	-0.069
Mof_C 	C 	0.65045	0.5253	0.07254	-0.069
Mof_H 	H 	0.6395	0.7693	0.0654	0.064
Mof_H 	H 	0.6424	0.4556	0.0658	0.051
Mof_N 	N 	0.13423	0.99931	0.35505	-0.247
Mof_N 	N 	0.32066	0.7925	0.34901	-0.258
Mof_C 	C 	0.19627	0.96744	0.36248	0.143
Mof_C 	C 	0.2959	0.85307	0.35895	0.14
Mof_C 	C 	0.26835	0.92598	0.37157	-0.153
Mof_C 	C 	0.30065	0.94356	0.39449	0.122
Mof_C 	C 	0.31712	0.04496	0.40586	-0.129
Mof_C 	C 	0.31712	0.85863	0.40587	-0.087
Mof_H 	H 	0.30617	0.10263	0.39873	0.064
Mof_H 	H 	0.30907	0.78893	0.39913	0.057
Mof_N 	N 	0.80089	0.33265	0.68839	-0.251
Mof_N 	N 	0.98732	0.12584	0.68235	-0.243
Mof_C 	C 	0.86293	0.30078	0.69582	0.12
Mof_C 	C 	0.96256	0.18641	0.69229	0.123
Mof_C 	C 	0.93501	0.25932	0.70491	-0.102
Mof_C 	C 	0.96731	0.2769	0.72783	-0.018
Mof_C 	C 	0.98378	0.3783	0.7392	0.074
Mof_C 	C 	0.98378	0.19197	0.73921	0.068
Mof_H 	H 	0.97283	0.43597	0.73207	0.02
Mof_H 	H 	0.97573	0.12227	0.73247	0.009
Mof_N 	N 	0.80158	0.33402	0.47828	-0.266
Mof_N 	N 	0.19482	0.54083	0.48432	-0.263
Mof_C 	C 	0.89549	0.36589	0.47085	0.177
Mof_C 	C 	0.10949	0.48026	0.47438	0.131
Mof_C 	C 	0.00903	0.40735	0.46176	-0.185
Mof_C 	C 	0.02375	0.38977	0.43884	0.043
Mof_C 	C 	0.93882	0.28837	0.42747	-0.047
Mof_C 	C 	0.12515	0.4747	0.42746	-0.08
Mof_H 	H 	0.8702	0.2307	0.4346	0.051
Mof_H 	H 	0.1868	0.5444	0.4342	0.053
Mof_N 	N 	0.46825	0.66735	0.81161	-0.256
Mof_N 	N 	0.86149	0.87416	0.81765	-0.235
Mof_C 	C 	0.56216	0.69922	0.80418	0.133
Mof_C 	C 	0.77616	0.81359	0.80771	0.141
Mof_C 	C 	0.6757	0.74068	0.79509	-0.138
Mof_C 	C 	0.69042	0.7231	0.77217	0.074
Mof_C 	C 	0.60549	0.6217	0.7608	-0.071
Mof_C 	C 	0.79182	0.80803	0.76079	-0.067
Mof_H 	H 	0.53687	0.56403	0.76793	0.057
Mof_H 	H 	0.85347	0.87773	0.76753	0.068
Mof_N 	N 	0.13491	0.00069	0.14495	-0.273
Mof_N 	N 	0.52815	0.2075	0.15099	-0.257
Mof_C 	C 	0.22882	0.03256	0.13752	0.104
Mof_C 	C 	0.44282	0.14693	0.14105	0.118
Mof_C 	C 	0.34236	0.07402	0.12843	-0.128
Mof_C 	C 	0.35708	0.05644	0.10551	0.013
Mof_C 	C 	0.27215	0.95504	0.09414	-0.018
Mof_C 	C 	0.45848	0.14137	0.09413	-0.055
Mof_H 	H 	0.20353	0.89737	0.10127	0.044
Mof_H 	H 	0.52013	0.21107	0.10087	0.045
Mof_N 	N 	0.53244	0.19842	0.47828	-0.248
Mof_N 	N 	0.34601	0.80518	0.48432	-0.253
Mof_C 	C 	0.4704	0.10451	0.47085	0.077
Mof_C 	C 	0.37077	0.89051	0.47438	0.127
Mof_C 	C 	0.39832	0.99097	0.46176	-0.097
Mof_C 	C 	0.36602	0.97625	0.43884	0.094
Mof_C 	C 	0.34955	0.06118	0.42747	-0.101
Mof_C 	C 	0.34955	0.87485	0.42746	-0.062
Mof_H 	H 	0.3605	0.1298	0.4346	0.058
Mof_H 	H 	0.3576	0.8132	0.4342	0.05
Mof_N 	N 	0.19911	0.53175	0.81161	-0.262
Mof_N 	N 	0.01268	0.13851	0.81765	-0.279
Mof_C 	C 	0.13707	0.43784	0.80418	0.134
Mof_C 	C 	0.03744	0.22384	0.80771	0.127
Mof_C 	C 	0.06499	0.3243	0.79509	-0.179
Mof_C 	C 	0.03269	0.30958	0.77217	0.151
Mof_C 	C 	0.01622	0.39451	0.7608	-0.219
Mof_C 	C 	0.01622	0.20818	0.76079	-0.212
Mof_H 	H 	0.02717	0.46313	0.76793	0.097
Mof_H 	H 	0.02427	0.14653	0.76753	0.078
Mof_N 	N 	0.86577	0.86509	0.14495	-0.234
Mof_N 	N 	0.67934	0.47185	0.15099	-0.257
Mof_C 	C 	0.80373	0.77118	0.13752	0.139
Mof_C 	C 	0.7041	0.55718	0.14105	0.135
Mof_C 	C 	0.73165	0.65764	0.12843	-0.138
Mof_C 	C 	0.69935	0.64292	0.10551	0.074
Mof_C 	C 	0.68288	0.72785	0.09414	-0.071
Mof_C 	C 	0.68288	0.54152	0.09413	-0.069
Mof_H 	H 	0.69383	0.79647	0.10127	0.066
Mof_H 	H 	0.69093	0.47987	0.10087	0.053
Mof_N 	N 	0.66598	0.46756	0.47828	-0.255
Mof_N 	N 	0.45917	0.65399	0.48432	-0.256
Mof_C 	C 	0.63411	0.5296	0.47085	0.132
Mof_C 	C 	0.51974	0.62923	0.47438	0.134
Mof_C 	C 	0.59265	0.60168	0.46176	-0.139
Mof_C 	C 	0.61023	0.63398	0.43884	0.071
Mof_C 	C 	0.71163	0.65045	0.42747	-0.069
Mof_C 	C 	0.5253	0.65045	0.42746	-0.069
Mof_H 	H 	0.7693	0.6395	0.4346	0.064
Mof_H 	H 	0.4556	0.6424	0.4342	0.051
Mof_N 	N 	0.33265	0.80089	0.81161	-0.251
Mof_N 	N 	0.12584	0.98732	0.81765	-0.243
Mof_C 	C 	0.30078	0.86293	0.80418	0.12
Mof_C 	C 	0.18641	0.96256	0.80771	0.123
Mof_C 	C 	0.25932	0.93501	0.79509	-0.102
Mof_C 	C 	0.2769	0.96731	0.77217	-0.018
Mof_C 	C 	0.3783	0.98378	0.7608	0.074
Mof_C 	C 	0.19197	0.98378	0.76079	0.068
Mof_H 	H 	0.43597	0.97283	0.76793	0.02
Mof_H 	H 	0.12227	0.97573	0.76753	0.009
Mof_N 	N 	0.99931	0.13423	0.14495	-0.247
Mof_N 	N 	0.7925	0.32066	0.15099	-0.258
Mof_C 	C 	0.96744	0.19627	0.13752	0.143
Mof_C 	C 	0.85307	0.2959	0.14105	0.14
Mof_C 	C 	0.92598	0.26835	0.12843	-0.153
Mof_C 	C 	0.94356	0.30065	0.10551	0.122
Mof_C 	C 	0.04496	0.31712	0.09414	-0.129
Mof_C 	C 	0.85863	0.31712	0.09413	-0.087
Mof_H 	H 	0.10263	0.30617	0.10127	0.064
Mof_H 	H 	0.78893	0.30907	0.10087	0.057
Mof_N 	N 	0.66598	0.19842	0.97828	-0.246
Mof_N 	N 	0.45917	0.80518	0.98432	-0.252
Mof_C 	C 	0.63411	0.10451	0.97085	0.082
Mof_C 	C 	0.51974	0.89051	0.97438	0.131
Mof_C 	C 	0.59265	0.99097	0.96176	-0.097
Mof_C 	C 	0.61023	0.97625	0.93884	0.095
Mof_C 	C 	0.71163	0.06118	0.92747	-0.097
Mof_C 	C 	0.5253	0.87485	0.92746	-0.061
Mof_H 	H 	0.7693	0.1298	0.9346	0.065
Mof_H 	H 	0.4556	0.8132	0.9342	0.05
Mof_N 	N 	0.33265	0.53175	0.31161	-0.256
Mof_N 	N 	0.12584	0.13851	0.31765	-0.271
Mof_C 	C 	0.30078	0.43784	0.30418	0.125
Mof_C 	C 	0.18641	0.22384	0.30771	0.119
Mof_C 	C 	0.25932	0.3243	0.29509	-0.141
Mof_C 	C 	0.2769	0.30958	0.27217	0.064
Mof_C 	C 	0.3783	0.39451	0.2608	-0.073
Mof_C 	C 	0.19197	0.20818	0.26079	-0.074
Mof_H 	H 	0.43597	0.46313	0.26793	0.059
Mof_H 	H 	0.12227	0.14653	0.26753	0.035
Mof_N 	N 	0.99931	0.86509	0.64495	-0.23
Mof_N 	N 	0.7925	0.47185	0.65099	-0.257
Mof_C 	C 	0.96744	0.77118	0.63752	0.152
Mof_C 	C 	0.85307	0.55718	0.64105	0.143
Mof_C 	C 	0.92598	0.65764	0.62843	-0.151
Mof_C 	C 	0.94356	0.64292	0.60551	0.124
Mof_C 	C 	0.04496	0.72785	0.59414	-0.124
Mof_C 	C 	0.85863	0.54152	0.59413	-0.085
Mof_H 	H 	0.10263	0.79647	0.60127	0.072
Mof_H 	H 	0.78893	0.47987	0.60087	0.058
Mof_N 	N 	0.80158	0.46756	0.97828	-0.264
Mof_N 	N 	0.19482	0.65399	0.98432	-0.261
Mof_C 	C 	0.89549	0.5296	0.97085	0.178
Mof_C 	C 	0.10949	0.62923	0.97438	0.134
Mof_C 	C 	0.00903	0.60168	0.96176	-0.182
Mof_C 	C 	0.02375	0.63398	0.93884	0.046
Mof_C 	C 	0.93882	0.65045	0.92747	-0.044
Mof_C 	C 	0.12515	0.65045	0.92746	-0.078
Mof_H 	H 	0.8702	0.6395	0.9346	0.057
Mof_H 	H 	0.1868	0.6424	0.9342	0.053
Mof_N 	N 	0.46825	0.80089	0.31161	-0.251
Mof_N 	N 	0.86149	0.98732	0.31765	-0.227
Mof_C 	C 	0.56216	0.86293	0.30418	0.125
Mof_C 	C 	0.77616	0.96256	0.30771	0.134
Mof_C 	C 	0.6757	0.93501	0.29509	-0.102
Mof_C 	C 	0.69042	0.96731	0.27217	-0.008
Mof_C 	C 	0.60549	0.98378	0.2608	0.068
Mof_C 	C 	0.79182	0.98378	0.26079	0.062
Mof_H 	H 	0.53687	0.97283	0.26793	0.021
Mof_H 	H 	0.85347	0.97573	0.26753	0.027
Mof_N 	N 	0.13491	0.13423	0.64495	-0.27
Mof_N 	N 	0.52815	0.32066	0.65099	-0.258
Mof_C 	C 	0.22882	0.19627	0.63752	0.117
Mof_C 	C 	0.44282	0.2959	0.64105	0.127
Mof_C 	C 	0.34236	0.26835	0.62843	-0.141
Mof_C 	C 	0.35708	0.30065	0.60551	0.064
Mof_C 	C 	0.27215	0.31712	0.59414	-0.074
Mof_C 	C 	0.45848	0.31712	0.59413	-0.071
Mof_H 	H 	0.20353	0.30617	0.60127	0.049
Mof_H 	H 	0.52013	0.30907	0.60087	0.05
Mof_N 	N 	0.53244	0.33402	0.97828	-0.258
Mof_N 	N 	0.34601	0.54083	0.98432	-0.259
Mof_C 	C 	0.4704	0.36589	0.97085	0.126
Mof_C 	C 	0.37077	0.48026	0.97438	0.127
Mof_C 	C 	0.39832	0.40735	0.96176	-0.142
Mof_C 	C 	0.36602	0.38977	0.93884	0.067
Mof_C 	C 	0.34955	0.28837	0.92747	-0.076
Mof_C 	C 	0.34955	0.4747	0.92746	-0.072
Mof_H 	H 	0.3605	0.2307	0.9346	0.051
Mof_H 	H 	0.3576	0.5444	0.9342	0.052
Mof_N 	N 	0.19911	0.66735	0.31161	-0.261
Mof_N 	N 	0.01268	0.87416	0.31765	-0.259
Mof_C 	C 	0.13707	0.69922	0.30418	0.137
Mof_C 	C 	0.03744	0.81359	0.30771	0.138
Mof_C 	C 	0.06499	0.74068	0.29509	-0.175
Mof_C 	C 	0.03269	0.7231	0.27217	0.152
Mof_C 	C 	0.01622	0.6217	0.2608	-0.211
Mof_C 	C 	0.01622	0.80803	0.26079	-0.2
Mof_H 	H 	0.02717	0.56403	0.26793	0.093
Mof_H 	H 	0.02427	0.87773	0.26753	0.094
Mof_N 	N 	0.86577	0.00069	0.64495	-0.254
Mof_N 	N 	0.67934	0.2075	0.65099	-0.257
Mof_C 	C 	0.80373	0.03256	0.63752	0.116
Mof_C 	C 	0.7041	0.14693	0.64105	0.123
Mof_C 	C 	0.73165	0.07402	0.62843	-0.127
Mof_C 	C 	0.69935	0.05644	0.60551	0.021
Mof_C 	C 	0.68288	0.95504	0.59414	-0.02
Mof_C 	C 	0.68288	0.14137	0.59413	-0.055
Mof_H 	H 	0.69383	0.89737	0.60127	0.053
Mof_H 	H 	0.69093	0.21107	0.60087	0.047
Mof_N 	N 	0.19842	0.66598	0.52172	-0.246
Mof_N 	N 	0.80518	0.45917	0.51568	-0.252
Mof_C 	C 	0.10451	0.63411	0.52915	0.082
Mof_C 	C 	0.89051	0.51974	0.52562	0.131
Mof_C 	C 	0.99097	0.59265	0.53824	-0.097
Mof_C 	C 	0.97625	0.61023	0.56116	0.095
Mof_C 	C 	0.06118	0.71163	0.57253	-0.097
Mof_C 	C 	0.87485	0.5253	0.57254	-0.061
Mof_H 	H 	0.1298	0.7693	0.5654	0.065
Mof_H 	H 	0.8132	0.4556	0.5658	0.05
Mof_N 	N 	0.86509	0.99931	0.85505	-0.23
Mof_N 	N 	0.47185	0.7925	0.84901	-0.257
Mof_C 	C 	0.77118	0.96744	0.86248	0.152
Mof_C 	C 	0.55718	0.85307	0.85895	0.143
Mof_C 	C 	0.65764	0.92598	0.87157	-0.151
Mof_C 	C 	0.64292	0.94356	0.89449	0.124
Mof_C 	C 	0.72785	0.04496	0.90586	-0.124
Mof_C 	C 	0.54152	0.85863	0.90587	-0.085
Mof_H 	H 	0.79647	0.10263	0.89873	0.072
Mof_H 	H 	0.47987	0.78893	0.89913	0.058
Mof_N 	N 	0.53175	0.33265	0.18839	-0.256
Mof_N 	N 	0.13851	0.12584	0.18235	-0.271
Mof_C 	C 	0.43784	0.30078	0.19582	0.125
Mof_C 	C 	0.22384	0.18641	0.19229	0.119
Mof_C 	C 	0.3243	0.25932	0.20491	-0.141
Mof_C 	C 	0.30958	0.2769	0.22783	0.064
Mof_C 	C 	0.39451	0.3783	0.2392	-0.073
Mof_C 	C 	0.20818	0.19197	0.23921	-0.074
Mof_H 	H 	0.46313	0.43597	0.23207	0.059
Mof_H 	H 	0.14653	0.12227	0.23247	0.035
Mof_N 	N 	0.46756	0.80158	0.52172	-0.264
Mof_N 	N 	0.65399	0.19482	0.51568	-0.261
Mof_C 	C 	0.5296	0.89549	0.52915	0.178
Mof_C 	C 	0.62923	0.10949	0.52562	0.134
Mof_C 	C 	0.60168	0.00903	0.53824	-0.182
Mof_C 	C 	0.63398	0.02375	0.56116	0.046
Mof_C 	C 	0.65045	0.93882	0.57253	-0.044
Mof_C 	C 	0.65045	0.12515	0.57254	-0.078
Mof_H 	H 	0.6395	0.8702	0.5654	0.057
Mof_H 	H 	0.6424	0.1868	0.5658	0.053
Mof_N 	N 	0.13423	0.13491	0.85505	-0.27
Mof_N 	N 	0.32066	0.52815	0.84901	-0.258
Mof_C 	C 	0.19627	0.22882	0.86248	0.117
Mof_C 	C 	0.2959	0.44282	0.85895	0.127
Mof_C 	C 	0.26835	0.34236	0.87157	-0.141
Mof_C 	C 	0.30065	0.35708	0.89449	0.064
Mof_C 	C 	0.31712	0.27215	0.90586	-0.074
Mof_C 	C 	0.31712	0.45848	0.90587	-0.071
Mof_H 	H 	0.30617	0.20353	0.89873	0.049
Mof_H 	H 	0.30907	0.52013	0.89913	0.05
Mof_N 	N 	0.80089	0.46825	0.18839	-0.251
Mof_N 	N 	0.98732	0.86149	0.18235	-0.227
Mof_C 	C 	0.86293	0.56216	0.19582	0.125
Mof_C 	C 	0.96256	0.77616	0.19229	0.134
Mof_C 	C 	0.93501	0.6757	0.20491	-0.102
Mof_C 	C 	0.96731	0.69042	0.22783	-0.008
Mof_C 	C 	0.98378	0.60549	0.2392	0.068
Mof_C 	C 	0.98378	0.79182	0.23921	0.062
Mof_H 	H 	0.97283	0.53687	0.23207	0.021
Mof_H 	H 	0.97573	0.85347	0.23247	0.027
Mof_N 	N 	0.33402	0.53244	0.52172	-0.258
Mof_N 	N 	0.54083	0.34601	0.51568	-0.259
Mof_C 	C 	0.36589	0.4704	0.52915	0.126
Mof_C 	C 	0.48026	0.37077	0.52562	0.127
Mof_C 	C 	0.40735	0.39832	0.53824	-0.142
Mof_C 	C 	0.38977	0.36602	0.56116	0.067
Mof_C 	C 	0.28837	0.34955	0.57253	-0.076
Mof_C 	C 	0.4747	0.34955	0.57254	-0.072
Mof_H 	H 	0.2307	0.3605	0.5654	0.051
Mof_H 	H 	0.5444	0.3576	0.5658	0.052
Mof_N 	N 	0.00069	0.86577	0.85505	-0.254
Mof_N 	N 	0.2075	0.67934	0.84901	-0.257
Mof_C 	C 	0.03256	0.80373	0.86248	0.116
Mof_C 	C 	0.14693	0.7041	0.85895	0.123
Mof_C 	C 	0.07402	0.73165	0.87157	-0.127
Mof_C 	C 	0.05644	0.69935	0.89449	0.021
Mof_C 	C 	0.95504	0.68288	0.90586	-0.02
Mof_C 	C 	0.14137	0.68288	0.90587	-0.055
Mof_H 	H 	0.89737	0.69383	0.89873	0.053
Mof_H 	H 	0.21107	0.69093	0.89913	0.047
Mof_N 	N 	0.66735	0.19911	0.18839	-0.261
Mof_N 	N 	0.87416	0.01268	0.18235	-0.259
Mof_C 	C 	0.69922	0.13707	0.19582	0.137
Mof_C 	C 	0.81359	0.03744	0.19229	0.138
Mof_C 	C 	0.74068	0.06499	0.20491	-0.175
Mof_C 	C 	0.7231	0.03269	0.22783	0.152
Mof_C 	C 	0.6217	0.01622	0.2392	-0.211
Mof_C 	C 	0.80803	0.01622	0.23921	-0.2
Mof_H 	H 	0.56403	0.02717	0.23207	0.093
Mof_H 	H 	0.87773	0.02427	0.23247	0.094
Mof_Ni	Ni	0.33333	0.66667	0.00336	1.076
Mof_Ni	Ni	-2.27264e-32	0	0.33669	1.042
Mof_Ni	Ni	0.66667	0.33333	0.67003	1.076
Mof_Ni	Ni	0.66667	0.33333	0.49664	1.076
Mof_Ni	Ni	0.33333	0.66667	0.82997	1.076
Mof_Ni	Ni	-2.27264e-32	-1.13632e-32	0.16331	1.042
Mof_Ni	Ni	0.66667	0.33333	0.99664	1.076
Mof_Ni	Ni	0.33333	0.66667	0.32997	1.076
Mof_Ni	Ni	-0	0	0.66331	1.042
Mof_Ni	Ni	0.33333	0.66667	0.50336	1.076
Mof_Ni	Ni	-4.54527e-32	0	0.83669	1.042
Mof_Ni	Ni	0.66667	0.33333	0.17003	1.076
_end
