data_functionalizedCrystal
_audit_creation_method	'EQeq! by Chris Wilmer'
_symmetry_space_group_name_H-M	'P1'
_symmetry_Int_Tables_number	1
_symmetry_cell_setting	triclinic
loop_
_symmetry_equiv_pos_as_xyz
  x,y,z
_cell_length_a	7.7639
_cell_length_b	10.1765
_cell_length_c	15.949
_cell_angle_alpha	90
_cell_angle_beta	90
_cell_angle_gamma	90
loop_
_atom_site_label
_atom_site_type_symbol
_atom_site_fract_x
_atom_site_fract_y
_atom_site_fract_z
_atom_site_charge
Mof_Mg	Mg	0.86026	0.02982	0.78926	1.461
Mof_Mg	Mg	0.13974	0.97018	0.28926	1.461
Mof_Mg	Mg	0.36026	0.47018	0.78926	1.462
Mof_Mg	Mg	0.63974	0.52982	0.28926	1.462
Mof_H 	H 	0.9104	0.4512	0.5984	0.123
Mof_H 	H 	0.1496	0.254	0.3725	-0
Mof_H 	H 	0.0544	0.9144	0.474	0.011
Mof_H 	H 	0.0463	0.3607	0.4891	0.066
Mof_H 	H 	0.9418	0.0111	0.5914	0.047
Mof_H 	H 	0.0896	0.5488	0.0984	0.123
Mof_H 	H 	0.8504	0.746	0.8725	-0.001
Mof_H 	H 	0.9456	0.0856	0.974	0.006
Mof_H 	H 	0.9537	0.6393	0.9891	0.066
Mof_H 	H 	0.0582	0.9889	0.0914	0.049
Mof_H 	H 	0.4104	0.0488	0.5984	0.125
Mof_H 	H 	0.6496	0.246	0.3725	-0
Mof_H 	H 	0.5544	0.5856	0.474	0.025
Mof_H 	H 	0.5463	0.1393	0.4891	0.067
Mof_H 	H 	0.4418	0.4889	0.5914	0.042
Mof_H 	H 	0.5896	0.9512	0.0984	0.123
Mof_H 	H 	0.3504	0.754	0.8725	0
Mof_H 	H 	0.4456	0.4144	0.974	0.024
Mof_H 	H 	0.4537	0.8607	0.9891	0.067
Mof_H 	H 	0.5582	0.5111	0.0914	0.042
Mof_C 	C 	0.8934	0.261	0.625	0.112
Mof_C 	C 	0.766	0.4152	0.6997	-0.013
Mof_C 	C 	0.7355	0.2927	0.7343	-0.104
Mof_C 	C 	0.9775	0.1986	0.5528	0.017
Mof_C 	C 	0.107	0.2043	0.4168	0.062
Mof_C 	C 	0.0499	0.0056	0.4764	0.078
Mof_C 	C 	0.0438	0.2694	0.4868	-0.1
Mof_C 	C 	0.7142	0.553	0.7222	0.346
Mof_C 	C 	0.9828	0.0628	0.5476	-0.108
Mof_C 	C 	0.633	0.2527	0.8092	0.401
Mof_C 	C 	0.1066	0.739	0.125	0.112
Mof_C 	C 	0.234	0.5848	0.1997	-0.013
Mof_C 	C 	0.2645	0.7073	0.2343	-0.104
Mof_C 	C 	0.0225	0.8014	0.0528	0.017
Mof_C 	C 	0.893	0.7957	0.9168	0.062
Mof_C 	C 	0.9501	0.9944	0.9764	0.088
Mof_C 	C 	0.9562	0.7306	0.9868	-0.1
Mof_C 	C 	0.2858	0.447	0.2222	0.346
Mof_C 	C 	0.0172	0.9372	0.0476	-0.118
Mof_C 	C 	0.367	0.7473	0.3092	0.401
Mof_C 	C 	0.3934	0.239	0.625	0.115
Mof_C 	C 	0.266	0.0848	0.6997	-0.01
Mof_C 	C 	0.2355	0.2073	0.7343	-0.103
Mof_C 	C 	0.4775	0.3014	0.5528	0.014
Mof_C 	C 	0.607	0.2957	0.4168	0.06
Mof_C 	C 	0.5499	0.4944	0.4764	0.051
Mof_C 	C 	0.5438	0.2306	0.4868	-0.101
Mof_C 	C 	0.2142	0.947	0.7222	0.345
Mof_C 	C 	0.4828	0.4372	0.5476	-0.088
Mof_C 	C 	0.133	0.2473	0.8092	0.401
Mof_C 	C 	0.6066	0.761	0.125	0.116
Mof_C 	C 	0.734	0.9152	0.1997	-0.011
Mof_C 	C 	0.7645	0.7927	0.2343	-0.103
Mof_C 	C 	0.5225	0.6986	0.0528	0.01
Mof_C 	C 	0.393	0.7043	0.9168	0.059
Mof_C 	C 	0.4501	0.5056	0.9764	0.053
Mof_C 	C 	0.4562	0.7694	0.9868	-0.097
Mof_C 	C 	0.7858	0.053	0.2222	0.347
Mof_C 	C 	0.5172	0.5628	0.0476	-0.089
Mof_C 	C 	0.867	0.7527	0.3092	0.401
Mof_N 	N 	0.1094	0.0742	0.41017	-0.248
Mof_N 	N 	0.8181	0.1983	0.6883	-0.213
Mof_N 	N 	0.8688	0.3924	0.63143	-0.194
Mof_N 	N 	0.8906	0.9258	0.91017	-0.25
Mof_N 	N 	0.1819	0.8017	0.1883	-0.213
Mof_N 	N 	0.1312	0.6076	0.13143	-0.194
Mof_N 	N 	0.6094	0.4258	0.41017	-0.245
Mof_N 	N 	0.3181	0.3017	0.6883	-0.212
Mof_N 	N 	0.3688	0.1076	0.63143	-0.195
Mof_N 	N 	0.3906	0.5742	0.91017	-0.245
Mof_N 	N 	0.6819	0.6983	0.1883	-0.212
Mof_N 	N 	0.6312	0.8924	0.13143	-0.195
Mof_O 	O 	0.6606	0.1385	0.83676	-0.491
Mof_O 	O 	0.5281	0.3318	0.83917	-0.474
Mof_O 	O 	0.5612	0.5734	0.74332	-0.504
Mof_O 	O 	0.8291	0.6383	0.7162	-0.281
Mof_O 	O 	0.3394	0.8615	0.33676	-0.49
Mof_O 	O 	0.4719	0.6682	0.33917	-0.474
Mof_O 	O 	0.4388	0.4266	0.24332	-0.504
Mof_O 	O 	0.1709	0.3617	0.2162	-0.281
Mof_O 	O 	0.1606	0.3615	0.83676	-0.488
Mof_O 	O 	0.0281	0.1682	0.83917	-0.47
Mof_O 	O 	0.0612	0.9266	0.74332	-0.505
Mof_O 	O 	0.3291	0.8617	0.7162	-0.28
Mof_O 	O 	0.8394	0.6385	0.33676	-0.489
Mof_O 	O 	0.9719	0.8318	0.33917	-0.471
Mof_O 	O 	0.9388	0.0734	0.24332	-0.505
Mof_O 	O 	0.6709	0.1383	0.2162	-0.28
_end
