# CIF file generated by openbabel 3.1.0, see https://openbabel.org
data_I
_chemical_name_common 'image0'
_cell_length_a 23.286
_cell_length_b 17.2577
_cell_length_c 18.2221
_cell_angle_alpha 90
_cell_angle_beta 126.661
_cell_angle_gamma 90
_space_group_name_H-M_alt 'P 1'
_space_group_name_Hall 'P 1'
loop_
    _symmetry_equiv_pos_as_xyz
    x,y,z
loop_
    _atom_site_label
    _atom_site_type_symbol
    _atom_site_fract_x
    _atom_site_fract_y
    _atom_site_fract_z
    _atom_site_occupancy
    Cd1      Cd       0.22509    0.14002    0.21835    1.000
    Cd2      Cd       0.28662    0.38197    0.27787    1.000
    N1       N        0.10170    0.17640    0.14100    1.000
    N2       N        0.03930    0.13900    0.08670    1.000
    N3       N        0.30720    0.39800    0.16320    1.000
    N4       N        0.31310    0.35580    0.10550    1.000
    O1       O        0.15050    0.37230    0.13500    1.000
    O2       O        0.21670    0.27330    0.22230    1.000
    O3       O        0.28290    0.51110    0.24510    1.000
    O4       O        0.27150    0.60120    0.15100    1.000
    O5       O        0.27980    0.41960    0.89410    1.000
    O6       O        0.30960    0.30160    0.95000    1.000
    O7       O        0.90370    0.09030    0.91940    1.000
    O8       O        0.87290    0.21120    0.88460    1.000
    C1       C        0.00810    0.00210    0.21840    1.000
    H1       H        0.01480    0.95480    0.20000    1.000
    C2       C        0.00710    0.13400    0.21660    1.000
    H2       H        0.01150    0.18080    0.19500    1.000
    C3       C        0.01410    0.06580    0.18480    1.000
    C4       C        0.03000    0.06260    0.11510    1.000
    H3       H        0.07340    0.03260    0.14080    1.000
    H4       H        0.99130    0.03540    0.06120    1.000
    C5       C        0.98820    0.18840    0.01600    1.000
    C6       C        0.02270    0.25800    0.03110    1.000
    H5       H        0.00330    0.30280    0.99620    1.000
    C7       C        0.09230    0.24760    0.10920    1.000
    C8       C        0.28060    0.53110    0.17600    1.000
    C9       C        0.15670    0.30270    0.15780    1.000
    C10      C        0.29680    0.36930    0.95480    1.000
    C11      C        0.29720    0.39930    0.03180    1.000
    C12      C        0.28390    0.47250    0.04640    1.000
    H6       H        0.27370    0.51570    0.00980    1.000
    C13      C        0.28860    0.47070    0.12710    1.000
    C14      C        0.91740    0.15890    0.93670    1.000
    C15      C        0.34210    0.27570    0.13190    1.000
    H7       H        0.32480    0.24570    0.07730    1.000
    H8       H        0.32540    0.25110    0.16370    1.000
    C16      C        0.42430    0.27660    0.19400    1.000
    C17      C        0.46160    0.27450    0.15540    1.000
    H9       H        0.43680    0.27270    0.09230    1.000
    C18      C        0.46410    0.27500    0.28730    1.000
    H10      H        0.44010    0.27420    0.31380    1.000
    Cd3      Cd       0.72509    0.64002    0.21835    1.000
    Cd4      Cd       0.78662    0.88197    0.27787    1.000
    N5       N        0.60170    0.67640    0.14100    1.000
    N6       N        0.53930    0.63900    0.08670    1.000
    N7       N        0.80720    0.89800    0.16320    1.000
    N8       N        0.81310    0.85580    0.10550    1.000
    O9       O        0.65050    0.87230    0.13500    1.000
    O10      O        0.71670    0.77330    0.22230    1.000
    O11      O        0.78290    0.01110    0.24510    1.000
    O12      O        0.77150    0.10120    0.15100    1.000
    O13      O        0.77980    0.91960    0.89410    1.000
    O14      O        0.80960    0.80160    0.95000    1.000
    O15      O        0.40370    0.59030    0.91940    1.000
    O16      O        0.37290    0.71120    0.88460    1.000
    C19      C        0.50810    0.50210    0.21840    1.000
    H11      H        0.51480    0.45480    0.20000    1.000
    C20      C        0.50710    0.63400    0.21660    1.000
    H12      H        0.51150    0.68080    0.19500    1.000
    C21      C        0.51410    0.56580    0.18480    1.000
    C22      C        0.53000    0.56260    0.11510    1.000
    H13      H        0.57340    0.53260    0.14080    1.000
    H14      H        0.49130    0.53540    0.06120    1.000
    C23      C        0.48820    0.68840    0.01600    1.000
    C24      C        0.52270    0.75800    0.03110    1.000
    H15      H        0.50330    0.80280    0.99620    1.000
    C25      C        0.59230    0.74760    0.10920    1.000
    C26      C        0.78060    0.03110    0.17600    1.000
    C27      C        0.65670    0.80270    0.15780    1.000
    C28      C        0.79680    0.86930    0.95480    1.000
    C29      C        0.79720    0.89930    0.03180    1.000
    C30      C        0.78390    0.97250    0.04640    1.000
    H16      H        0.77370    0.01570    0.00980    1.000
    C31      C        0.78860    0.97070    0.12710    1.000
    C32      C        0.41740    0.65890    0.93670    1.000
    C33      C        0.84210    0.77570    0.13190    1.000
    H17      H        0.82480    0.74570    0.07730    1.000
    H18      H        0.82540    0.75110    0.16370    1.000
    C34      C        0.92430    0.77660    0.19400    1.000
    C35      C        0.96160    0.77450    0.15540    1.000
    H19      H        0.93680    0.77270    0.09230    1.000
    C36      C        0.96410    0.77500    0.28730    1.000
    H20      H        0.94010    0.77420    0.31380    1.000
    Cd5      Cd       0.77491    0.14002    0.28165    1.000
    Cd6      Cd       0.71338    0.38197    0.22213    1.000
    N9       N        0.89830    0.17640    0.35900    1.000
    N10      N        0.96070    0.13900    0.41330    1.000
    N11      N        0.69280    0.39800    0.33680    1.000
    N12      N        0.68690    0.35580    0.39450    1.000
    O17      O        0.84950    0.37230    0.36500    1.000
    O18      O        0.78330    0.27330    0.27770    1.000
    O19      O        0.71710    0.51110    0.25490    1.000
    O20      O        0.72850    0.60120    0.34900    1.000
    O21      O        0.72020    0.41960    0.60590    1.000
    O22      O        0.69040    0.30160    0.55000    1.000
    O23      O        0.09630    0.09030    0.58060    1.000
    O24      O        0.12710    0.21120    0.61540    1.000
    C37      C        0.99190    0.00210    0.28160    1.000
    H21      H        0.98520    0.95480    0.30000    1.000
    C38      C        0.99290    0.13400    0.28340    1.000
    H22      H        0.98850    0.18080    0.30500    1.000
    C39      C        0.98590    0.06580    0.31520    1.000
    C40      C        0.97000    0.06260    0.38490    1.000
    H23      H        0.92660    0.03260    0.35920    1.000
    H24      H        0.00870    0.03540    0.43880    1.000
    C41      C        0.01180    0.18840    0.48400    1.000
    C42      C        0.97730    0.25800    0.46890    1.000
    H25      H        0.99670    0.30280    0.50380    1.000
    C43      C        0.90770    0.24760    0.39080    1.000
    C44      C        0.71940    0.53110    0.32400    1.000
    C45      C        0.84330    0.30270    0.34220    1.000
    C46      C        0.70320    0.36930    0.54520    1.000
    C47      C        0.70280    0.39930    0.46820    1.000
    C48      C        0.71610    0.47250    0.45360    1.000
    H26      H        0.72630    0.51570    0.49020    1.000
    C49      C        0.71140    0.47070    0.37290    1.000
    C50      C        0.08260    0.15890    0.56330    1.000
    C51      C        0.65790    0.27570    0.36810    1.000
    H27      H        0.67520    0.24570    0.42270    1.000
    H28      H        0.67460    0.25110    0.33630    1.000
    C52      C        0.57570    0.27660    0.30600    1.000
    C53      C        0.53840    0.27450    0.34460    1.000
    H29      H        0.56320    0.27270    0.40770    1.000
    C54      C        0.53590    0.27500    0.21270    1.000
    H30      H        0.55990    0.27420    0.18620    1.000
    Cd7      Cd       0.27491    0.64002    0.28165    1.000
    Cd8      Cd       0.21338    0.88197    0.22213    1.000
    N13      N        0.39830    0.67640    0.35900    1.000
    N14      N        0.46070    0.63900    0.41330    1.000
    N15      N        0.19280    0.89800    0.33680    1.000
    N16      N        0.18690    0.85580    0.39450    1.000
    O25      O        0.34950    0.87230    0.36500    1.000
    O26      O        0.28330    0.77330    0.27770    1.000
    O27      O        0.21710    0.01110    0.25490    1.000
    O28      O        0.22850    0.10120    0.34900    1.000
    O29      O        0.22020    0.91960    0.60590    1.000
    O30      O        0.19040    0.80160    0.55000    1.000
    O31      O        0.59630    0.59030    0.58060    1.000
    O32      O        0.62710    0.71120    0.61540    1.000
    C55      C        0.49190    0.50210    0.28160    1.000
    H31      H        0.48520    0.45480    0.30000    1.000
    C56      C        0.49290    0.63400    0.28340    1.000
    H32      H        0.48850    0.68080    0.30500    1.000
    C57      C        0.48590    0.56580    0.31520    1.000
    C58      C        0.47000    0.56260    0.38490    1.000
    H33      H        0.42660    0.53260    0.35920    1.000
    H34      H        0.50870    0.53540    0.43880    1.000
    C59      C        0.51180    0.68840    0.48400    1.000
    C60      C        0.47730    0.75800    0.46890    1.000
    H35      H        0.49670    0.80280    0.50380    1.000
    C61      C        0.40770    0.74760    0.39080    1.000
    C62      C        0.21940    0.03110    0.32400    1.000
    C63      C        0.34330    0.80270    0.34220    1.000
    C64      C        0.20320    0.86930    0.54520    1.000
    C65      C        0.20280    0.89930    0.46820    1.000
    C66      C        0.21610    0.97250    0.45360    1.000
    H36      H        0.22630    0.01570    0.49020    1.000
    C67      C        0.21140    0.97070    0.37290    1.000
    C68      C        0.58260    0.65890    0.56330    1.000
    C69      C        0.15790    0.77570    0.36810    1.000
    H37      H        0.17520    0.74570    0.42270    1.000
    H38      H        0.17460    0.75110    0.33630    1.000
    C70      C        0.07570    0.77660    0.30600    1.000
    C71      C        0.03840    0.77450    0.34460    1.000
    H39      H        0.06320    0.77270    0.40770    1.000
    C72      C        0.03590    0.77500    0.21270    1.000
    H40      H        0.05990    0.77420    0.18620    1.000
    Cd9      Cd       0.77491    0.85998    0.78165    1.000
    Cd10     Cd       0.71338    0.61803    0.72213    1.000
    N17      N        0.89830    0.82360    0.85900    1.000
    N18      N        0.96070    0.86100    0.91330    1.000
    N19      N        0.69280    0.60200    0.83680    1.000
    N20      N        0.68690    0.64420    0.89450    1.000
    O33      O        0.84950    0.62770    0.86500    1.000
    O34      O        0.78330    0.72670    0.77770    1.000
    O35      O        0.71710    0.48890    0.75490    1.000
    O36      O        0.72850    0.39880    0.84900    1.000
    O37      O        0.72020    0.58040    0.10590    1.000
    O38      O        0.69040    0.69840    0.05000    1.000
    O39      O        0.09630    0.90970    0.08060    1.000
    O40      O        0.12710    0.78880    0.11540    1.000
    C73      C        0.99190    0.99790    0.78160    1.000
    H41      H        0.98520    0.04520    0.80000    1.000
    C74      C        0.99290    0.86600    0.78340    1.000
    H42      H        0.98850    0.81920    0.80500    1.000
    C75      C        0.98590    0.93420    0.81520    1.000
    C76      C        0.97000    0.93740    0.88490    1.000
    H43      H        0.92660    0.96740    0.85920    1.000
    H44      H        0.00870    0.96460    0.93880    1.000
    C77      C        0.01180    0.81160    0.98400    1.000
    C78      C        0.97730    0.74200    0.96890    1.000
    H45      H        0.99670    0.69720    0.00380    1.000
    C79      C        0.90770    0.75240    0.89080    1.000
    C80      C        0.71940    0.46890    0.82400    1.000
    C81      C        0.84330    0.69730    0.84220    1.000
    C82      C        0.70320    0.63070    0.04520    1.000
    C83      C        0.70280    0.60070    0.96820    1.000
    C84      C        0.71610    0.52750    0.95360    1.000
    H46      H        0.72630    0.48430    0.99020    1.000
    C85      C        0.71140    0.52930    0.87290    1.000
    C86      C        0.08260    0.84110    0.06330    1.000
    C87      C        0.65790    0.72430    0.86810    1.000
    H47      H        0.67520    0.75430    0.92270    1.000
    H48      H        0.67460    0.74890    0.83630    1.000
    C88      C        0.57570    0.72340    0.80600    1.000
    C89      C        0.53840    0.72550    0.84460    1.000
    H49      H        0.56320    0.72730    0.90770    1.000
    C90      C        0.53590    0.72500    0.71270    1.000
    H50      H        0.55990    0.72580    0.68620    1.000
    Cd11     Cd       0.27491    0.35998    0.78165    1.000
    Cd12     Cd       0.21338    0.11803    0.72213    1.000
    N21      N        0.39830    0.32360    0.85900    1.000
    N22      N        0.46070    0.36100    0.91330    1.000
    N23      N        0.19280    0.10200    0.83680    1.000
    N24      N        0.18690    0.14420    0.89450    1.000
    O41      O        0.34950    0.12770    0.86500    1.000
    O42      O        0.28330    0.22670    0.77770    1.000
    O43      O        0.21710    0.98890    0.75490    1.000
    O44      O        0.22850    0.89880    0.84900    1.000
    O45      O        0.22020    0.08040    0.10590    1.000
    O46      O        0.19040    0.19840    0.05000    1.000
    O47      O        0.59630    0.40970    0.08060    1.000
    O48      O        0.62710    0.28880    0.11540    1.000
    C91      C        0.49190    0.49790    0.78160    1.000
    H51      H        0.48520    0.54520    0.80000    1.000
    C92      C        0.49290    0.36600    0.78340    1.000
    H52      H        0.48850    0.31920    0.80500    1.000
    C93      C        0.48590    0.43420    0.81520    1.000
    C94      C        0.47000    0.43740    0.88490    1.000
    H53      H        0.42660    0.46740    0.85920    1.000
    H54      H        0.50870    0.46460    0.93880    1.000
    C95      C        0.51180    0.31160    0.98400    1.000
    C96      C        0.47730    0.24200    0.96890    1.000
    H55      H        0.49670    0.19720    0.00380    1.000
    C97      C        0.40770    0.25240    0.89080    1.000
    C98      C        0.21940    0.96890    0.82400    1.000
    C99      C        0.34330    0.19730    0.84220    1.000
    C100     C        0.20320    0.13070    0.04520    1.000
    C101     C        0.20280    0.10070    0.96820    1.000
    C102     C        0.21610    0.02750    0.95360    1.000
    H56      H        0.22630    0.98430    0.99020    1.000
    C103     C        0.21140    0.02930    0.87290    1.000
    C104     C        0.58260    0.34110    0.06330    1.000
    C105     C        0.15790    0.22430    0.86810    1.000
    H57      H        0.17520    0.25430    0.92270    1.000
    H58      H        0.17460    0.24890    0.83630    1.000
    C106     C        0.07570    0.22340    0.80600    1.000
    C107     C        0.03840    0.22550    0.84460    1.000
    H59      H        0.06320    0.22730    0.90770    1.000
    C108     C        0.03590    0.22500    0.71270    1.000
    H60      H        0.05990    0.22580    0.68620    1.000
    Cd13     Cd       0.22509    0.85998    0.71835    1.000
    Cd14     Cd       0.28662    0.61803    0.77787    1.000
    N25      N        0.10170    0.82360    0.64100    1.000
    N26      N        0.03930    0.86100    0.58670    1.000
    N27      N        0.30720    0.60200    0.66320    1.000
    N28      N        0.31310    0.64420    0.60550    1.000
    O49      O        0.15050    0.62770    0.63500    1.000
    O50      O        0.21670    0.72670    0.72230    1.000
    O51      O        0.28290    0.48890    0.74510    1.000
    O52      O        0.27150    0.39880    0.65100    1.000
    O53      O        0.27980    0.58040    0.39410    1.000
    O54      O        0.30960    0.69840    0.45000    1.000
    O55      O        0.90370    0.90970    0.41940    1.000
    O56      O        0.87290    0.78880    0.38460    1.000
    C109     C        0.00810    0.99790    0.71840    1.000
    H61      H        0.01480    0.04520    0.70000    1.000
    C110     C        0.00710    0.86600    0.71660    1.000
    H62      H        0.01150    0.81920    0.69500    1.000
    C111     C        0.01410    0.93420    0.68480    1.000
    C112     C        0.03000    0.93740    0.61510    1.000
    H63      H        0.07340    0.96740    0.64080    1.000
    H64      H        0.99130    0.96460    0.56120    1.000
    C113     C        0.98820    0.81160    0.51600    1.000
    C114     C        0.02270    0.74200    0.53110    1.000
    H65      H        0.00330    0.69720    0.49620    1.000
    C115     C        0.09230    0.75240    0.60920    1.000
    C116     C        0.28060    0.46890    0.67600    1.000
    C117     C        0.15670    0.69730    0.65780    1.000
    C118     C        0.29680    0.63070    0.45480    1.000
    C119     C        0.29720    0.60070    0.53180    1.000
    C120     C        0.28390    0.52750    0.54640    1.000
    H66      H        0.27370    0.48430    0.50980    1.000
    C121     C        0.28860    0.52930    0.62710    1.000
    C122     C        0.91740    0.84110    0.43670    1.000
    C123     C        0.34210    0.72430    0.63190    1.000
    H67      H        0.32480    0.75430    0.57730    1.000
    H68      H        0.32540    0.74890    0.66370    1.000
    C124     C        0.42430    0.72340    0.69400    1.000
    C125     C        0.46160    0.72550    0.65540    1.000
    H69      H        0.43680    0.72730    0.59230    1.000
    C126     C        0.46410    0.72500    0.78730    1.000
    H70      H        0.44010    0.72580    0.81380    1.000
    Cd15     Cd       0.72509    0.35998    0.71835    1.000
    Cd16     Cd       0.78662    0.11803    0.77787    1.000
    N29      N        0.60170    0.32360    0.64100    1.000
    N30      N        0.53930    0.36100    0.58670    1.000
    N31      N        0.80720    0.10200    0.66320    1.000
    N32      N        0.81310    0.14420    0.60550    1.000
    O57      O        0.65050    0.12770    0.63500    1.000
    O58      O        0.71670    0.22670    0.72230    1.000
    O59      O        0.78290    0.98890    0.74510    1.000
    O60      O        0.77150    0.89880    0.65100    1.000
    O61      O        0.77980    0.08040    0.39410    1.000
    O62      O        0.80960    0.19840    0.45000    1.000
    O63      O        0.40370    0.40970    0.41940    1.000
    O64      O        0.37290    0.28880    0.38460    1.000
    C127     C        0.50810    0.49790    0.71840    1.000
    H71      H        0.51480    0.54520    0.70000    1.000
    C128     C        0.50710    0.36600    0.71660    1.000
    H72      H        0.51150    0.31920    0.69500    1.000
    C129     C        0.51410    0.43420    0.68480    1.000
    C130     C        0.53000    0.43740    0.61510    1.000
    H73      H        0.57340    0.46740    0.64080    1.000
    H74      H        0.49130    0.46460    0.56120    1.000
    C131     C        0.48820    0.31160    0.51600    1.000
    C132     C        0.52270    0.24200    0.53110    1.000
    H75      H        0.50330    0.19720    0.49620    1.000
    C133     C        0.59230    0.25240    0.60920    1.000
    C134     C        0.78060    0.96890    0.67600    1.000
    C135     C        0.65670    0.19730    0.65780    1.000
    C136     C        0.79680    0.13070    0.45480    1.000
    C137     C        0.79720    0.10070    0.53180    1.000
    C138     C        0.78390    0.02750    0.54640    1.000
    H76      H        0.77370    0.98430    0.50980    1.000
    C139     C        0.78860    0.02930    0.62710    1.000
    C140     C        0.41740    0.34110    0.43670    1.000
    C141     C        0.84210    0.22430    0.63190    1.000
    H77      H        0.82480    0.25430    0.57730    1.000
    H78      H        0.82540    0.24890    0.66370    1.000
    C142     C        0.92430    0.22340    0.69400    1.000
    C143     C        0.96160    0.22550    0.65540    1.000
    H79      H        0.93680    0.22730    0.59230    1.000
    C144     C        0.96410    0.22500    0.78730    1.000
    H80      H        0.94010    0.22580    0.81380    1.000
