data_functionalizedCrystal
_audit_creation_method	'EQeq! by Chris Wilmer'
_symmetry_space_group_name_H-M	'P1'
_symmetry_Int_Tables_number	1
_symmetry_cell_setting	triclinic
loop_
_symmetry_equiv_pos_as_xyz
  x,y,z
_cell_length_a	12.4209
_cell_length_b	12.4471
_cell_length_c	15.1155
_cell_angle_alpha	90
_cell_angle_beta	90
_cell_angle_gamma	90
loop_
_atom_site_label
_atom_site_type_symbol
_atom_site_fract_x
_atom_site_fract_y
_atom_site_fract_z
_atom_site_charge
Mof_Mo	Mo	0.91393	0.60284	0.06069	0.968
Mof_Mo	Mo	0.41393	0.39716	0.43931	1.027
Mof_Mo	Mo	0.08607	0.10284	0.93931	1.002
Mof_Mo	Mo	0.58607	0.89716	0.56069	0.947
Mof_Mo	Mo	0.08607	0.39716	0.93931	0.977
Mof_Mo	Mo	0.58607	0.60284	0.56069	1.018
Mof_Mo	Mo	0.91393	0.89716	0.06069	0.894
Mof_Mo	Mo	0.41393	0.10284	0.43931	1.055
Mof_H 	H 	0.9533	0.5913	0.823	-0.058
Mof_H 	H 	0.2955	0.5916	0.5706	-0.051
Mof_H 	H 	0.1386	0.687	0.7083	0.114
Mof_H 	H 	0.1171	0.9153	0.5648	0.094
Mof_H 	H 	0.1037	0.8515	0.4744	0.096
Mof_H 	H 	0.933	0.9151	0.522	-0.081
Mof_H 	H 	0.9676	0.9156	0.6776	0.079
Mof_H 	H 	0.859	0.8522	0.6583	0.083
Mof_H 	H 	0.4533	0.4087	0.677	-0.058
Mof_H 	H 	0.7955	0.4084	0.9294	-0.061
Mof_H 	H 	0.6386	0.313	0.7917	0.149
Mof_H 	H 	0.6171	0.0847	0.9352	0.168
Mof_H 	H 	0.6037	0.1485	0.0256	0.184
Mof_H 	H 	0.433	0.0849	0.978	-0.113
Mof_H 	H 	0.4676	0.0844	0.8224	0.144
Mof_H 	H 	0.359	0.1478	0.8417	0.132
Mof_H 	H 	0.0467	0.0913	0.177	-0.039
Mof_H 	H 	0.7045	0.0916	0.4294	-0.044
Mof_H 	H 	0.8614	0.187	0.2917	0.158
Mof_H 	H 	0.8829	0.4153	0.4352	0.143
Mof_H 	H 	0.8963	0.3515	0.5256	0.143
Mof_H 	H 	0.067	0.4151	0.478	-0.106
Mof_H 	H 	0.0324	0.4156	0.3224	0.142
Mof_H 	H 	0.141	0.3522	0.3417	0.126
Mof_H 	H 	0.5467	0.9087	0.323	-0.067
Mof_H 	H 	0.2045	0.9084	0.0706	-0.056
Mof_H 	H 	0.3614	0.813	0.2083	0.115
Mof_H 	H 	0.3829	0.5847	0.0648	0.097
Mof_H 	H 	0.3963	0.6485	0.9744	0.068
Mof_H 	H 	0.567	0.5849	0.022	-0.052
Mof_H 	H 	0.5324	0.5844	0.1776	0.099
Mof_H 	H 	0.641	0.6478	0.1583	0.09
Mof_H 	H 	0.0467	0.4087	0.177	-0.051
Mof_H 	H 	0.7045	0.4084	0.4294	-0.057
Mof_H 	H 	0.8614	0.313	0.2917	0.153
Mof_H 	H 	0.8829	0.0847	0.4352	0.158
Mof_H 	H 	0.8963	0.1485	0.5256	0.152
Mof_H 	H 	0.067	0.0849	0.478	-0.094
Mof_H 	H 	0.0324	0.0844	0.3224	0.153
Mof_H 	H 	0.141	0.1478	0.3417	0.132
Mof_H 	H 	0.5467	0.5913	0.323	-0.054
Mof_H 	H 	0.2045	0.5916	0.0706	-0.044
Mof_H 	H 	0.3614	0.687	0.2083	0.119
Mof_H 	H 	0.3829	0.9153	0.0648	0.084
Mof_H 	H 	0.3963	0.8515	0.9744	0.061
Mof_H 	H 	0.567	0.9151	0.022	-0.065
Mof_H 	H 	0.5324	0.9156	0.1776	0.088
Mof_H 	H 	0.641	0.8522	0.1583	0.084
Mof_H 	H 	0.9533	0.9087	0.823	-0.07
Mof_H 	H 	0.2955	0.9084	0.5706	-0.064
Mof_H 	H 	0.1386	0.813	0.7083	0.11
Mof_H 	H 	0.1171	0.5847	0.5648	0.107
Mof_H 	H 	0.1037	0.6485	0.4744	0.104
Mof_H 	H 	0.933	0.5849	0.522	-0.068
Mof_H 	H 	0.9676	0.5844	0.6776	0.091
Mof_H 	H 	0.859	0.6478	0.6583	0.089
Mof_H 	H 	0.4533	0.0913	0.677	-0.046
Mof_H 	H 	0.7955	0.0916	0.9294	-0.048
Mof_H 	H 	0.6386	0.187	0.7917	0.153
Mof_H 	H 	0.6171	0.4153	0.9352	0.153
Mof_H 	H 	0.6037	0.3515	0.0256	0.174
Mof_H 	H 	0.433	0.4151	0.978	-0.124
Mof_H 	H 	0.4676	0.4156	0.8224	0.132
Mof_H 	H 	0.359	0.3522	0.8417	0.125
Mof_H 	H 	0.9303	0.75	0.4438	0.082
Mof_H 	H 	0.837	0.75	0.5156	0.085
Mof_H 	H 	0.4303	0.25	0.0562	0.179
Mof_H 	H 	0.337	0.25	0.9844	0.144
Mof_H 	H 	0.0697	0.25	0.5562	0.146
Mof_H 	H 	0.163	0.25	0.4844	0.131
Mof_H 	H 	0.5697	0.75	0.9438	0.059
Mof_H 	H 	0.663	0.75	0.0156	0.075
Mof_C 	C 	0.94909	0.66323	0.84175	0.092
Mof_C 	C 	0.31864	0.66352	0.57004	0.1
Mof_C 	C 	0.08617	0.8508	0.53762	-0.305
Mof_C 	C 	0.96396	0.8503	0.55015	0.187
Mof_C 	C 	0.93718	0.8513	0.64973	-0.318
Mof_C 	C 	0.44909	0.33677	0.65825	0.105
Mof_C 	C 	0.81864	0.33648	0.92996	0.1
Mof_C 	C 	0.58617	0.1492	0.96238	-0.523
Mof_C 	C 	0.46396	0.1497	0.94985	0.373
Mof_C 	C 	0.43718	0.1487	0.85027	-0.45
Mof_C 	C 	0.05091	0.16323	0.15825	0.111
Mof_C 	C 	0.68136	0.16352	0.42996	0.107
Mof_C 	C 	0.91383	0.3508	0.46238	-0.481
Mof_C 	C 	0.03604	0.3503	0.44985	0.36
Mof_C 	C 	0.06282	0.3513	0.35027	-0.448
Mof_C 	C 	0.55091	0.83677	0.34175	0.097
Mof_C 	C 	0.18136	0.83648	0.07004	0.103
Mof_C 	C 	0.41383	0.6492	0.03762	-0.274
Mof_C 	C 	0.53604	0.6497	0.05015	0.188
Mof_C 	C 	0.56282	0.6487	0.14973	-0.327
Mof_C 	C 	0.05091	0.33677	0.15825	0.111
Mof_C 	C 	0.68136	0.33648	0.42996	0.106
Mof_C 	C 	0.91383	0.1492	0.46238	-0.487
Mof_C 	C 	0.03604	0.1497	0.44985	0.363
Mof_C 	C 	0.06282	0.1487	0.35027	-0.453
Mof_C 	C 	0.55091	0.66323	0.34175	0.099
Mof_C 	C 	0.18136	0.66352	0.07004	0.105
Mof_C 	C 	0.41383	0.8508	0.03762	-0.27
Mof_C 	C 	0.53604	0.8503	0.05015	0.184
Mof_C 	C 	0.56282	0.8513	0.14973	-0.322
Mof_C 	C 	0.94909	0.83677	0.84175	0.09
Mof_C 	C 	0.31864	0.83648	0.57004	0.098
Mof_C 	C 	0.08617	0.6492	0.53762	-0.313
Mof_C 	C 	0.96396	0.6497	0.55015	0.192
Mof_C 	C 	0.93718	0.6487	0.64973	-0.323
Mof_C 	C 	0.44909	0.16323	0.65825	0.106
Mof_C 	C 	0.81864	0.16352	0.92996	0.1
Mof_C 	C 	0.58617	0.3508	0.96238	-0.515
Mof_C 	C 	0.46396	0.3503	0.94985	0.368
Mof_C 	C 	0.43718	0.3513	0.85027	-0.444
Mof_C 	C 	0.9855	0.75	0.69177	0.225
Mof_C 	C 	0.1079	0.75	0.6805	-0.335
Mof_C 	C 	0.1335	0.75	0.5812	0.244
Mof_C 	C 	0.9152	0.75	0.5074	-0.319
Mof_C 	C 	0.4855	0.25	0.80823	0.332
Mof_C 	C 	0.6079	0.25	0.8195	-0.467
Mof_C 	C 	0.6335	0.25	0.9188	0.359
Mof_C 	C 	0.4152	0.25	0.9926	-0.532
Mof_C 	C 	0.0145	0.25	0.30823	0.359
Mof_C 	C 	0.8921	0.25	0.3195	-0.501
Mof_C 	C 	0.8665	0.25	0.4188	0.348
Mof_C 	C 	0.0848	0.25	0.4926	-0.462
Mof_C 	C 	0.5145	0.75	0.19177	0.248
Mof_C 	C 	0.3921	0.75	0.1805	-0.364
Mof_C 	C 	0.3665	0.75	0.0812	0.231
Mof_C 	C 	0.5848	0.75	0.0074	-0.264
Mof_N 	N 	0.93138	0.69426	0.92356	-0.181
Mof_N 	N 	0.41946	0.69467	0.56748	-0.174
Mof_N 	N 	0.43138	0.30574	0.57644	-0.175
Mof_N 	N 	0.91946	0.30533	0.93252	-0.182
Mof_N 	N 	0.06862	0.19426	0.07644	-0.158
Mof_N 	N 	0.58054	0.19467	0.43252	-0.173
Mof_N 	N 	0.56862	0.80574	0.42356	-0.176
Mof_N 	N 	0.08054	0.80533	0.06748	-0.159
Mof_N 	N 	0.06862	0.30574	0.07644	-0.159
Mof_N 	N 	0.58054	0.30533	0.43252	-0.175
Mof_N 	N 	0.56862	0.69426	0.42356	-0.174
Mof_N 	N 	0.08054	0.69467	0.06748	-0.157
Mof_N 	N 	0.93138	0.80574	0.92356	-0.182
Mof_N 	N 	0.41946	0.80533	0.56748	-0.176
Mof_N 	N 	0.43138	0.19426	0.57644	-0.173
Mof_N 	N 	0.91946	0.19467	0.93252	-0.18
Mof_N 	N 	0.9605	0.75	0.78835	-0.189
Mof_N 	N 	0.253	0.75	0.5717	-0.191
Mof_N 	N 	0.4605	0.25	0.71165	-0.202
Mof_N 	N 	0.753	0.25	0.9283	-0.208
Mof_N 	N 	0.0395	0.25	0.21165	-0.202
Mof_N 	N 	0.747	0.25	0.4283	-0.204
Mof_N 	N 	0.5395	0.75	0.28835	-0.191
Mof_N 	N 	0.247	0.75	0.0717	-0.185
Mof_O 	O 	0.87724	0.75	0.08802	-0.557
Mof_O 	O 	0.37724	0.25	0.41198	-0.58
Mof_O 	O 	0.12276	0.25	0.91198	-0.568
Mof_O 	O 	0.62276	0.75	0.58802	-0.568
Mof_O 	O 	-0	0.5	-0	-0.53
Mof_O 	O 	0.5	0.5	0.5	-0.588
Mof_O 	O 	-0	0	-0	-0.492
Mof_O 	O 	0.5	0	0.5	-0.549
_end
