# CIF file generated by openbabel 3.1.0, see https://openbabel.org
data_I
_chemical_name_common 'image0'
_cell_length_a 12.4009
_cell_length_b 12.5958
_cell_length_c 14.5577
_cell_angle_alpha 77.831
_cell_angle_beta 82.597
_cell_angle_gamma 72.818
_space_group_name_H-M_alt 'P 1'
_space_group_name_Hall 'P 1'
loop_
    _symmetry_equiv_pos_as_xyz
    x,y,z
loop_
    _atom_site_label
    _atom_site_type_symbol
    _atom_site_fract_x
    _atom_site_fract_y
    _atom_site_fract_z
    _atom_site_occupancy
    Cd1      Cd       0.92057    0.30349    0.42380    1.000
    K1       K        0.86897    0.50600    0.62236    1.000
    O1       O        0.89210    0.29880    0.58343    1.000
    O2       O        0.85690    0.15420    0.54350    1.000
    O3       O        0.09960    0.13330    0.46300    1.000
    O4       O        0.10350    0.28990    0.36340    1.000
    O5       O        0.75250    0.03500    0.98200    1.000
    O6       O        0.87670    0.22730    0.31500    1.000
    O7       O        0.93850    0.04050    0.35850    1.000
    O8       O        0.60670    0.99930    0.28770    1.000
    O9       O        0.91350    0.50160    0.42180    1.000
    O10      O        0.77960    0.46170    0.36430    1.000
    C1       C        0.86230    0.20880    0.60640    1.000
    C2       C        0.82780    0.17100    0.70650    1.000
    C3       C        0.77410    0.08690    0.73090    1.000
    H1       H        0.75810    0.05400    0.68300    1.000
    C4       C        0.74320    0.04990    0.82310    1.000
    H2       H        0.70720    0.99090    0.83920    1.000
    C5       C        0.76510    0.09970    0.89340    1.000
    C6       C        0.82170    0.18130    0.87030    1.000
    H3       H        0.84130    0.21200    0.91800    1.000
    C7       C        0.84970    0.21850    0.77620    1.000
    H4       H        0.88480    0.27810    0.75960    1.000
    C8       C        0.77310    0.08000    0.05940    1.000
    C9       C        0.72510    0.17700    0.09220    1.000
    H5       H        0.66400    0.23280    0.06190    1.000
    C10      C        0.76590    0.19480    0.17070    1.000
    H6       H        0.73390    0.26390    0.19300    1.000
    C11      C        0.85220    0.11290    0.21610    1.000
    C12      C        0.89740    0.01530    0.18230    1.000
    H7       H        0.95650    0.95740    0.21330    1.000
    C13      C        0.85720    0.99990    0.10180    1.000
    H8       H        0.89000    0.93220    0.07750    1.000
    C14      C        0.89280    0.12830    0.30360    1.000
    C15      C        0.15090    0.19000    0.40140    1.000
    C16      C        0.27210    0.13990    0.37320    1.000
    C17      C        0.33390    0.04020    0.42510    1.000
    H9       H        0.29890    0.00500    0.48020    1.000
    C18      C        0.44550    0.99090    0.39830    1.000
    H10      H        0.48730    0.92290    0.43500    1.000
    C19      C        0.49490    0.04140    0.31800    1.000
    C20      C        0.43580    0.14190    0.26560    1.000
    H11      H        0.47120    0.17700    0.21060    1.000
    C21      C        0.32480    0.19080    0.29400    1.000
    H12      H        0.28410    0.26040    0.25870    1.000
    C22      C        0.65820    0.88280    0.31160    1.000
    C23      C        0.61080    0.80600    0.29020    1.000
    H13      H        0.54090    0.83080    0.26160    1.000
    C24      C        0.66630    0.69210    0.31090    1.000
    H14      H        0.63460    0.63840    0.29580    1.000
    C25      C        0.76790    0.65560    0.35380    1.000
    C26      C        0.81320    0.73480    0.37360    1.000
    H15      H        0.88300    0.71080    0.40250    1.000
    C27      C        0.75860    0.84940    0.35210    1.000
    H16      H        0.79090    0.90370    0.36540    1.000
    C28      C        0.82370    0.53170    0.38070    1.000
    O11      O        0.66650    0.58910    0.58480    1.000
    N1       N        0.47910    0.66250    0.60870    1.000
    C29      C        0.57460    0.66570    0.56950    1.000
    H17      H        0.57840    0.73130    0.52430    1.000
    C30      C        0.46470    0.59260    0.70370    1.000
    H18      H        0.53830    0.54190    0.72220    1.000
    H19      H        0.41300    0.54770    0.70120    1.000
    H20      H        0.43330    0.64220    0.74980    1.000
    C31      C        0.38230    0.73500    0.56410    1.000
    H21      H        0.36570    0.81030    0.58100    1.000
    H22      H        0.31750    0.70460    0.58490    1.000
    H23      H        0.39680    0.74200    0.49570    1.000
    O12      O        0.70820    0.07890    0.98560    1.000
    O13      O        0.64300    0.56100    0.61930    1.000
    N2       N        0.47980    0.64310    0.54370    1.000
    C32      C        0.58160    0.58650    0.54840    1.000
    H24      H        0.61790    0.55910    0.49300    1.000
    C33      C        0.40000    0.72300    0.60270    1.000
    H25      H        0.36580    0.79470    0.56190    1.000
    H26      H        0.44130    0.73630    0.64980    1.000
    H27      H        0.33970    0.68920    0.63450    1.000
    C34      C        0.41250    0.65490    0.46940    1.000
    H28      H        0.42720    0.71390    0.41770    1.000
    H29      H        0.33240    0.67600    0.49180    1.000
    H30      H        0.43100    0.58310    0.44690    1.000
    Cd2      Cd       0.07943    0.69651    0.57620    1.000
    K2       K        0.13103    0.49400    0.37764    1.000
    O14      O        0.10790    0.70120    0.41657    1.000
    O15      O        0.14310    0.84580    0.45650    1.000
    O16      O        0.90040    0.86670    0.53700    1.000
    O17      O        0.89650    0.71010    0.63660    1.000
    O18      O        0.24750    0.96500    0.01800    1.000
    O19      O        0.12330    0.77270    0.68500    1.000
    O20      O        0.06150    0.95950    0.64150    1.000
    O21      O        0.39330    0.00070    0.71230    1.000
    O22      O        0.08650    0.49840    0.57820    1.000
    O23      O        0.22040    0.53830    0.63570    1.000
    C35      C        0.13770    0.79120    0.39360    1.000
    C36      C        0.17220    0.82900    0.29350    1.000
    C37      C        0.22590    0.91310    0.26910    1.000
    H31      H        0.24190    0.94600    0.31700    1.000
    C38      C        0.25680    0.95010    0.17690    1.000
    H32      H        0.29280    0.00910    0.16080    1.000
    C39      C        0.23490    0.90030    0.10660    1.000
    C40      C        0.17830    0.81870    0.12970    1.000
    H33      H        0.15870    0.78800    0.08200    1.000
    C41      C        0.15030    0.78150    0.22380    1.000
    H34      H        0.11520    0.72190    0.24040    1.000
    C42      C        0.22690    0.92000    0.94060    1.000
    C43      C        0.27490    0.82300    0.90780    1.000
    H35      H        0.33600    0.76720    0.93810    1.000
    C44      C        0.23410    0.80520    0.82930    1.000
    H36      H        0.26610    0.73610    0.80700    1.000
    C45      C        0.14780    0.88710    0.78390    1.000
    C46      C        0.10260    0.98470    0.81770    1.000
    H37      H        0.04350    0.04260    0.78670    1.000
    C47      C        0.14280    0.00010    0.89820    1.000
    H38      H        0.11000    0.06780    0.92250    1.000
    C48      C        0.10720    0.87170    0.69640    1.000
    C49      C        0.84910    0.81000    0.59860    1.000
    C50      C        0.72790    0.86010    0.62680    1.000
    C51      C        0.66610    0.95980    0.57490    1.000
    H39      H        0.70110    0.99500    0.51980    1.000
    C52      C        0.55450    0.00910    0.60170    1.000
    H40      H        0.51270    0.07710    0.56500    1.000
    C53      C        0.50510    0.95860    0.68200    1.000
    C54      C        0.56420    0.85810    0.73440    1.000
    H41      H        0.52880    0.82300    0.78940    1.000
    C55      C        0.67520    0.80920    0.70600    1.000
    H42      H        0.71590    0.73960    0.74130    1.000
    C56      C        0.34180    0.11720    0.68840    1.000
    C57      C        0.38920    0.19400    0.70980    1.000
    H43      H        0.45910    0.16920    0.73840    1.000
    C58      C        0.33370    0.30790    0.68910    1.000
    H44      H        0.36540    0.36160    0.70420    1.000
    C59      C        0.23210    0.34440    0.64620    1.000
    C60      C        0.18680    0.26520    0.62640    1.000
    H45      H        0.11700    0.28920    0.59750    1.000
    C61      C        0.24140    0.15060    0.64790    1.000
    H46      H        0.20910    0.09630    0.63460    1.000
    C62      C        0.17630    0.46830    0.61930    1.000
    O24      O        0.33350    0.41090    0.41520    1.000
    N3       N        0.52090    0.33750    0.39130    1.000
    C63      C        0.42540    0.33430    0.43050    1.000
    H47      H        0.42160    0.26870    0.47570    1.000
    C64      C        0.53530    0.40740    0.29630    1.000
    H48      H        0.46170    0.45810    0.27780    1.000
    H49      H        0.58700    0.45230    0.29880    1.000
    H50      H        0.56670    0.35780    0.25020    1.000
    C65      C        0.61770    0.26500    0.43590    1.000
    H51      H        0.63430    0.18970    0.41900    1.000
    H52      H        0.68250    0.29540    0.41510    1.000
    H53      H        0.60320    0.25800    0.50430    1.000
    O25      O        0.29180    0.92110    0.01440    1.000
    O26      O        0.35700    0.43900    0.38070    1.000
    N4       N        0.52020    0.35690    0.45630    1.000
    C66      C        0.41840    0.41350    0.45160    1.000
    H54      H        0.38210    0.44090    0.50700    1.000
    C67      C        0.60000    0.27700    0.39730    1.000
    H55      H        0.63420    0.20530    0.43810    1.000
    H56      H        0.55870    0.26370    0.35020    1.000
    H57      H        0.66030    0.31080    0.36550    1.000
    C68      C        0.58750    0.34510    0.53060    1.000
    H58      H        0.57280    0.28610    0.58230    1.000
    H59      H        0.66760    0.32400    0.50820    1.000
    H60      H        0.56900    0.41690    0.55310    1.000
    Cd3      Cd       0.00000    0.00000    0.50000    1.000
