data_functionalizedCrystal
_audit_creation_method	'EQeq! by Chris Wilmer'
_symmetry_space_group_name_H-M	'P1'
_symmetry_Int_Tables_number	1
_symmetry_cell_setting	triclinic
loop_
_symmetry_equiv_pos_as_xyz
  x,y,z
_cell_length_a	14.3339
_cell_length_b	20.76
_cell_length_c	21.507
_cell_angle_alpha	69.992
_cell_angle_beta	73.154
_cell_angle_gamma	72.353
loop_
_atom_site_label
_atom_site_type_symbol
_atom_site_fract_x
_atom_site_fract_y
_atom_site_fract_z
_atom_site_charge
Mof_La	La	0.57138	0.88566	0.58807	2.168
Mof_La	La	0.8782	0.51704	0.61284	2.16
Mof_La	La	0.5101	0.91077	0.93592	2.15
Mof_La	La	0.43309	0.5489	0.13231	2.227
Mof_La	La	0.42862	0.11434	0.41193	2.168
Mof_La	La	0.1218	0.48296	0.38716	2.16
Mof_La	La	0.4899	0.08923	0.06408	2.15
Mof_La	La	0.56691	0.4511	0.86769	2.227
Mof_P 	P 	0.54629	0.93987	0.74522	0.506
Mof_P 	P 	0.33219	0.93123	0.82728	0.471
Mof_P 	P 	0.3036	0.99779	0.06017	0.497
Mof_P 	P 	0.36974	0.09979	0.92552	0.481
Mof_P 	P 	0.62722	0.06897	0.51499	0.499
Mof_P 	P 	0.67998	0.98844	0.41141	0.486
Mof_P 	P 	0.16238	0.45954	0.56222	0.498
Mof_P 	P 	0.07761	0.60827	0.49068	0.489
Mof_P 	P 	0.42236	0.75097	0.06689	0.508
Mof_P 	P 	0.62103	0.65742	0.09755	0.468
Mof_P 	P 	0.82712	0.3821	0.77894	0.512
Mof_P 	P 	0.66615	0.42052	0.6997	0.465
Mof_P 	P 	0.72404	0.70559	0.56618	0.514
Mof_P 	P 	0.84774	0.79889	0.57532	0.473
Mof_P 	P 	0.63438	0.54178	0.97154	0.514
Mof_P 	P 	0.65355	0.40781	0.09159	0.488
Mof_P 	P 	0.45371	0.06013	0.25478	0.506
Mof_P 	P 	0.66781	0.06877	0.17272	0.471
Mof_P 	P 	0.6964	0.00221	0.93983	0.497
Mof_P 	P 	0.63026	0.90021	0.07448	0.481
Mof_P 	P 	0.37278	0.93103	0.48501	0.499
Mof_P 	P 	0.32002	0.01156	0.58859	0.486
Mof_P 	P 	0.83762	0.54046	0.43778	0.498
Mof_P 	P 	0.92239	0.39173	0.50932	0.489
Mof_P 	P 	0.57764	0.24903	0.93311	0.508
Mof_P 	P 	0.37897	0.34258	0.90245	0.468
Mof_P 	P 	0.17288	0.6179	0.22106	0.512
Mof_P 	P 	0.33385	0.57948	0.3003	0.465
Mof_P 	P 	0.27596	0.29441	0.43382	0.514
Mof_P 	P 	0.15226	0.20111	0.42468	0.473
Mof_P 	P 	0.36562	0.45822	0.02846	0.514
Mof_P 	P 	0.34645	0.59219	0.90841	0.488
Mof_H 	H 	0.3338	0.0558	0.7983	0.138
Mof_H 	H 	0.4395	0.0457	0.7935	0.138
Mof_H 	H 	0.2511	0.0452	0.9105	0.136
Mof_H 	H 	0.2254	0.9928	0.973	0.132
Mof_H 	H 	0.8126	0.9492	0.4781	0.137
Mof_H 	H 	0.8043	0.9969	0.5159	0.139
Mof_H 	H 	0.2579	0.5972	0.4591	0.146
Mof_H 	H 	0.2964	0.5222	0.4778	0.135
Mof_H 	H 	0.426	0.6905	0.1955	0.125
Mof_H 	H 	0.5225	0.6807	0.2096	0.148
Mof_H 	H 	0.8886	0.3289	0.6805	0.134
Mof_H 	H 	0.8067	0.3346	0.6515	0.146
Mof_H 	H 	0.8401	0.8368	0.4547	0.139
Mof_H 	H 	0.7465	0.8188	0.464	0.131
Mof_H 	H 	0.8075	0.417	0.9843	0.129
Mof_H 	H 	0.8218	0.4879	0.9567	0.13
Mof_H 	H 	0.3904	0.9911	0.7148	0.103
Mof_H 	H 	0.4292	0.0815	0.6341	0.118
Mof_H 	H 	0.4184	0.192	0.5604	0.001
Mof_H 	H 	0.3767	0.2908	0.6016	0.126
Mof_H 	H 	0.3462	0.2742	0.7155	0.013
Mof_H 	H 	0.2165	0.1057	0.0028	0.07
Mof_H 	H 	0.063	0.1284	0.0115	0.095
Mof_H 	H 	0.9009	0.153	0.9999	0.003
Mof_H 	H 	0.8574	0.1079	0.9322	0.122
Mof_H 	H 	0.9753	0.0384	0.8741	0.015
Mof_H 	H 	0.7424	0.0795	0.4128	0.08
Mof_H 	H 	0.883	0.1001	0.3757	0.108
Mof_H 	H 	0.0494	0.1031	0.3337	-0.008
Mof_H 	H 	0.1746	0.008	0.3744	0.11
Mof_H 	H 	0.1301	0.913	0.454	0.016
Mof_H 	H 	0.1659	0.5643	0.5783	0.077
Mof_H 	H 	0.2975	0.5529	0.6168	0.106
Mof_H 	H 	0.4431	0.5642	0.6339	-0.006
Mof_H 	H 	0.5755	0.5886	0.5462	0.106
Mof_H 	H 	0.5662	0.5987	0.4422	0.021
Mof_H 	H 	0.5449	0.7715	0.1046	0.093
Mof_H 	H 	0.4511	0.8525	0.1503	0.118
Mof_H 	H 	0.387	0.9246	0.2208	0.008
Mof_H 	H 	0.3343	0.8788	0.3366	0.125
Mof_H 	H 	0.3367	0.7609	0.379	0.013
Mof_H 	H 	0.7297	0.3138	0.7736	0.082
Mof_H 	H 	0.8027	0.2034	0.796	0.137
Mof_H 	H 	0.8616	0.0881	0.7944	0.012
Mof_H 	H 	0.9551	0.0591	0.6944	0.108
Mof_H 	H 	0.9816	0.1488	0.5992	0.018
Mof_H 	H 	0.8898	0.7145	0.5165	0.104
Mof_H 	H 	0.899	0.68	0.4257	0.115
Mof_H 	H 	0.9468	0.6679	0.3181	0.009
Mof_H 	H 	0.9227	0.7666	0.2252	0.114
Mof_H 	H 	0.8472	0.8748	0.245	0.022
Mof_H 	H 	0.7177	0.5068	0.0593	0.106
Mof_H 	H 	0.9921	0.4116	0.9364	0.102
Mof_H 	H 	0.1365	0.378	0.9787	0.018
Mof_H 	H 	0.1267	0.3798	0.0877	0.099
Mof_H 	H 	0.9725	0.4151	0.1544	0.007
Mof_H 	H 	0.6055	0.0037	0.6585	0.284
Mof_H 	H 	0.3865	0.8284	0.8386	0.252
Mof_H 	H 	0.1729	0.0129	0.1257	0.247
Mof_H 	H 	0.6679	0.1503	0.5208	0.261
Mof_H 	H 	0.2323	0.4209	0.6401	0.257
Mof_H 	H 	0.336	0.843	0.0818	0.283
Mof_H 	H 	0.732	0.6798	0.1195	0.259
Mof_H 	H 	0.8694	0.3063	0.8595	0.265
Mof_H 	H 	0.732	0.6493	0.5046	0.285
Mof_H 	H 	0.8733	0.7565	0.6689	0.262
Mof_H 	H 	0.6535	0.6371	0.9123	0.253
Mof_H 	H 	0.5742	0.4005	0.0322	0.256
Mof_H 	H 	0.6662	0.9442	0.2017	0.138
Mof_H 	H 	0.5605	0.9543	0.2065	0.138
Mof_H 	H 	0.7489	0.9548	0.0895	0.136
Mof_H 	H 	0.7746	0.0072	0.027	0.132
Mof_H 	H 	0.1874	0.0508	0.5219	0.137
Mof_H 	H 	0.1957	0.0031	0.4841	0.139
Mof_H 	H 	0.7421	0.4028	0.5409	0.146
Mof_H 	H 	0.7036	0.4778	0.5222	0.135
Mof_H 	H 	0.574	0.3095	0.8045	0.125
Mof_H 	H 	0.4775	0.3193	0.7904	0.148
Mof_H 	H 	0.1114	0.6711	0.3195	0.134
Mof_H 	H 	0.1933	0.6654	0.3485	0.146
Mof_H 	H 	0.1599	0.1632	0.5453	0.139
Mof_H 	H 	0.2535	0.1812	0.536	0.131
Mof_H 	H 	0.1925	0.583	0.0157	0.129
Mof_H 	H 	0.1782	0.5121	0.0433	0.13
Mof_H 	H 	0.6096	0.0089	0.2852	0.103
Mof_H 	H 	0.5708	0.9185	0.3659	0.118
Mof_H 	H 	0.5816	0.808	0.4396	0.001
Mof_H 	H 	0.6233	0.7092	0.3984	0.126
Mof_H 	H 	0.6538	0.7258	0.2845	0.013
Mof_H 	H 	0.7835	0.8943	0.9972	0.07
Mof_H 	H 	0.937	0.8716	0.9885	0.095
Mof_H 	H 	0.0991	0.847	0.0001	0.003
Mof_H 	H 	0.1426	0.8921	0.0678	0.122
Mof_H 	H 	0.0247	0.9616	0.1259	0.015
Mof_H 	H 	0.2576	0.9205	0.5872	0.08
Mof_H 	H 	0.117	0.8999	0.6243	0.108
Mof_H 	H 	0.9506	0.8969	0.6663	-0.008
Mof_H 	H 	0.8254	0.992	0.6256	0.11
Mof_H 	H 	0.8699	0.087	0.546	0.016
Mof_H 	H 	0.8341	0.4357	0.4217	0.077
Mof_H 	H 	0.7025	0.4471	0.3832	0.106
Mof_H 	H 	0.5569	0.4358	0.3661	-0.006
Mof_H 	H 	0.4245	0.4114	0.4538	0.106
Mof_H 	H 	0.4338	0.4013	0.5578	0.021
Mof_H 	H 	0.4551	0.2285	0.8954	0.093
Mof_H 	H 	0.5489	0.1475	0.8497	0.118
Mof_H 	H 	0.613	0.0754	0.7792	0.008
Mof_H 	H 	0.6657	0.1212	0.6634	0.125
Mof_H 	H 	0.6633	0.2391	0.621	0.013
Mof_H 	H 	0.2703	0.6862	0.2264	0.082
Mof_H 	H 	0.1973	0.7966	0.204	0.137
Mof_H 	H 	0.1384	0.9119	0.2056	0.012
Mof_H 	H 	0.0449	0.9409	0.3056	0.108
Mof_H 	H 	0.0184	0.8512	0.4008	0.018
Mof_H 	H 	0.1102	0.2855	0.4835	0.104
Mof_H 	H 	0.101	0.32	0.5743	0.115
Mof_H 	H 	0.0532	0.3321	0.6819	0.009
Mof_H 	H 	0.0773	0.2334	0.7748	0.114
Mof_H 	H 	0.1528	0.1252	0.755	0.022
Mof_H 	H 	0.2823	0.4932	0.9407	0.106
Mof_H 	H 	0.0079	0.5884	0.0636	0.102
Mof_H 	H 	0.8635	0.622	0.0213	0.018
Mof_H 	H 	0.8733	0.6202	0.9123	0.099
Mof_H 	H 	0.0275	0.5849	0.8456	0.007
Mof_H 	H 	0.3945	0.9963	0.3415	0.284
Mof_H 	H 	0.6135	0.1716	0.1614	0.252
Mof_H 	H 	0.8271	0.9871	0.8743	0.247
Mof_H 	H 	0.3321	0.8497	0.4792	0.261
Mof_H 	H 	0.7677	0.5791	0.3599	0.257
Mof_H 	H 	0.664	0.157	0.9182	0.283
Mof_H 	H 	0.268	0.3202	0.8805	0.259
Mof_H 	H 	0.1306	0.6937	0.1405	0.265
Mof_H 	H 	0.268	0.3507	0.4954	0.285
Mof_H 	H 	0.1267	0.2435	0.3311	0.262
Mof_H 	H 	0.3465	0.3629	0.0877	0.253
Mof_H 	H 	0.4258	0.5995	0.9678	0.256
Mof_C 	C 	0.4122	0.9828	0.7566	-0.179
Mof_C 	C 	0.3942	0.1118	0.7209	0.201
Mof_C 	C 	0.4127	0.1205	0.6503	-0.201
Mof_C 	C 	0.4062	0.1862	0.6067	0.132
Mof_C 	C 	0.3811	0.2458	0.6312	-0.182
Mof_C 	C 	0.3636	0.2355	0.6986	0.119
Mof_C 	C 	0.2647	0.0666	0.9873	-0.18
Mof_C 	C 	0.1204	0.0621	0.9493	0.194
Mof_C 	C 	0.0462	0.1088	0.9844	-0.191
Mof_C 	C 	0.9503	0.1236	0.9766	0.122
Mof_C 	C 	0.9237	0.0969	0.9361	-0.192
Mof_C 	C 	0.993	0.0555	0.9027	0.119
Mof_C 	C 	0.7239	0.0384	0.4485	-0.185
Mof_C 	C 	0.9072	0.0013	0.4423	0.192
Mof_C 	C 	0.9327	0.0621	0.3918	-0.203
Mof_C 	C 	0.032	0.0636	0.367	0.121
Mof_C 	C 	0.1075	0.0067	0.391	-0.188
Mof_C 	C 	0.0806	0.951	0.4378	0.114
Mof_C 	C 	0.1746	0.5503	0.5375	-0.183
Mof_C 	C 	0.3466	0.5682	0.5139	0.192
Mof_C 	C 	0.351	0.5618	0.5808	-0.205
Mof_C 	C 	0.4382	0.5691	0.5903	0.124
Mof_C 	C 	0.5182	0.5835	0.5381	-0.185
Mof_C 	C 	0.5119	0.5895	0.4775	0.11
Mof_C 	C 	0.5177	0.7298	0.1166	-0.181
Mof_C 	C 	0.4346	0.7609	0.2246	0.195
Mof_C 	C 	0.4292	0.8338	0.1965	-0.196
Mof_C 	C 	0.3909	0.8765	0.2388	0.128
Mof_C 	C 	0.3577	0.8496	0.3082	-0.181
Mof_C 	C 	0.3606	0.7796	0.3331	0.113
Mof_C 	C 	0.7633	0.3489	0.7384	-0.184
Mof_C 	C 	0.8593	0.2448	0.6959	0.209
Mof_C 	C 	0.8392	0.192	0.7562	-0.22
Mof_C 	C 	0.8745	0.1237	0.7549	0.124
Mof_C 	C 	0.9299	0.1057	0.6952	-0.182
Mof_C 	C 	0.9447	0.159	0.6394	0.123
Mof_C 	C 	0.8283	0.7502	0.5248	-0.175
Mof_C 	C 	0.8443	0.7863	0.3996	0.202
Mof_C 	C 	0.8889	0.7194	0.389	-0.194
Mof_C 	C 	0.9174	0.7122	0.3248	0.117
Mof_C 	C 	0.9028	0.771	0.2691	-0.167
Mof_C 	C 	0.8584	0.8351	0.2812	0.106
Mof_C 	C 	0.7103	0.4799	0.0322	-0.174
Mof_C 	C 	0.8958	0.4335	0.0201	0.189
Mof_C 	C 	0.9882	0.4123	0.9801	-0.2
Mof_C 	C 	0.0747	0.3922	0.0055	0.092
Mof_C 	C 	0.0688	0.3932	0.0708	-0.157
Mof_C 	C 	0.9764	0.4144	0.1107	0.085
Mof_C 	C 	0.5878	0.0172	0.2434	-0.179
Mof_C 	C 	0.6058	0.8882	0.2791	0.201
Mof_C 	C 	0.5873	0.8795	0.3497	-0.201
Mof_C 	C 	0.5938	0.8138	0.3933	0.132
Mof_C 	C 	0.6189	0.7542	0.3688	-0.182
Mof_C 	C 	0.6364	0.7645	0.3014	0.119
Mof_C 	C 	0.7353	0.9334	0.0127	-0.18
Mof_C 	C 	0.8796	0.9379	0.0507	0.194
Mof_C 	C 	0.9538	0.8912	0.0156	-0.191
Mof_C 	C 	0.0497	0.8764	0.0234	0.122
Mof_C 	C 	0.0763	0.9031	0.0639	-0.192
Mof_C 	C 	0.007	0.9445	0.0973	0.119
Mof_C 	C 	0.2761	0.9616	0.5515	-0.185
Mof_C 	C 	0.0928	0.9987	0.5577	0.192
Mof_C 	C 	0.0673	0.9379	0.6082	-0.203
Mof_C 	C 	0.968	0.9364	0.633	0.121
Mof_C 	C 	0.8925	0.9933	0.609	-0.188
Mof_C 	C 	0.9194	0.049	0.5622	0.114
Mof_C 	C 	0.8254	0.4497	0.4625	-0.183
Mof_C 	C 	0.6534	0.4318	0.4861	0.192
Mof_C 	C 	0.649	0.4382	0.4192	-0.205
Mof_C 	C 	0.5618	0.4309	0.4097	0.124
Mof_C 	C 	0.4818	0.4165	0.4619	-0.185
Mof_C 	C 	0.4881	0.4105	0.5225	0.11
Mof_C 	C 	0.4823	0.2702	0.8834	-0.181
Mof_C 	C 	0.5654	0.2391	0.7754	0.195
Mof_C 	C 	0.5708	0.1662	0.8035	-0.196
Mof_C 	C 	0.6091	0.1235	0.7612	0.128
Mof_C 	C 	0.6423	0.1504	0.6918	-0.181
Mof_C 	C 	0.6394	0.2204	0.6669	0.113
Mof_C 	C 	0.2367	0.6511	0.2616	-0.184
Mof_C 	C 	0.1407	0.7552	0.3041	0.209
Mof_C 	C 	0.1608	0.808	0.2438	-0.22
Mof_C 	C 	0.1255	0.8763	0.2451	0.124
Mof_C 	C 	0.0701	0.8943	0.3048	-0.182
Mof_C 	C 	0.0553	0.841	0.3606	0.123
Mof_C 	C 	0.1717	0.2498	0.4752	-0.175
Mof_C 	C 	0.1557	0.2137	0.6004	0.202
Mof_C 	C 	0.1111	0.2806	0.611	-0.194
Mof_C 	C 	0.0826	0.2878	0.6752	0.117
Mof_C 	C 	0.0972	0.229	0.7309	-0.167
Mof_C 	C 	0.1416	0.1649	0.7188	0.106
Mof_C 	C 	0.2897	0.5201	0.9678	-0.174
Mof_C 	C 	0.1042	0.5665	0.9799	0.189
Mof_C 	C 	0.0118	0.5877	0.0199	-0.2
Mof_C 	C 	0.9253	0.6078	0.9945	0.092
Mof_C 	C 	0.9312	0.6068	0.9292	-0.157
Mof_C 	C 	0.0236	0.5856	0.8893	0.085
Mof_N 	N 	0.3939	0.0503	0.77	-0.262
Mof_N 	N 	0.3707	0.1701	0.7423	-0.143
Mof_N 	N 	0.2158	0.0396	0.9534	-0.259
Mof_N 	N 	0.0913	0.0371	0.9092	-0.14
Mof_N 	N 	0.8132	0.9938	0.4738	-0.261
Mof_N 	N 	0.9827	0.9473	0.4633	-0.142
Mof_N 	N 	0.2711	0.5597	0.4944	-0.262
Mof_N 	N 	0.4274	0.583	0.4627	-0.137
Mof_N 	N 	0.4744	0.7128	0.1891	-0.26
Mof_N 	N 	0.3976	0.7361	0.292	-0.142
Mof_N 	N 	0.8314	0.3149	0.6895	-0.263
Mof_N 	N 	0.9086	0.2259	0.6395	-0.147
Mof_N 	N 	0.813	0.8012	0.4593	-0.264
Mof_N 	N 	0.8305	0.8419	0.3447	-0.139
Mof_N 	N 	0.8111	0.454	0.9957	-0.253
Mof_N 	N 	0.8899	0.4345	0.0854	-0.132
Mof_N 	N 	0.6061	0.9497	0.23	-0.262
Mof_N 	N 	0.6293	0.8299	0.2577	-0.143
Mof_N 	N 	0.7842	0.9604	0.0466	-0.259
Mof_N 	N 	0.9087	0.9629	0.0908	-0.14
Mof_N 	N 	0.1868	0.0062	0.5262	-0.261
Mof_N 	N 	0.0173	0.0527	0.5367	-0.142
Mof_N 	N 	0.7289	0.4403	0.5056	-0.262
Mof_N 	N 	0.5726	0.417	0.5373	-0.137
Mof_N 	N 	0.5256	0.2872	0.8109	-0.26
Mof_N 	N 	0.6024	0.2639	0.708	-0.142
Mof_N 	N 	0.1686	0.6851	0.3105	-0.263
Mof_N 	N 	0.0914	0.7741	0.3605	-0.147
Mof_N 	N 	0.187	0.1988	0.5407	-0.264
Mof_N 	N 	0.1695	0.1581	0.6553	-0.139
Mof_N 	N 	0.1889	0.546	0.0043	-0.253
Mof_N 	N 	0.1101	0.5655	0.9146	-0.132
Mof_O 	O 	0.6009	0.0007	0.69822	-0.459
Mof_O 	O 	0.5673	0.8844	0.7095	-0.449
Mof_O 	O 	0.5742	0.9169	0.81303	-0.461
Mof_O 	O 	0.2245	0.9678	0.8255	-0.224
Mof_O 	O 	0.3555	0.8593	0.8114	-0.442
Mof_O 	O 	0.3606	0.9227	0.89218	-0.452
Mof_O 	O 	0.3598	0.93324	0.03636	-0.436
Mof_O 	O 	0.2032	0.9805	0.1088	-0.442
Mof_O 	O 	0.3549	0.0263	0.09294	-0.485
Mof_O 	O 	0.3249	0.1607	0.87117	-0.243
Mof_O 	O 	0.4224	0.1224	0.96338	-0.5
Mof_O 	O 	0.4323	0.03798	0.89804	-0.46
Mof_O 	O 	0.6089	0.00403	0.57195	-0.455
Mof_O 	O 	0.5411	0.11574	0.48311	-0.471
Mof_O 	O 	0.6748	0.109	0.54334	-0.456
Mof_O 	O 	0.5884	0.03578	0.38503	-0.499
Mof_O 	O 	0.6589	0.92361	0.46855	-0.467
Mof_O 	O 	0.7676	0.96884	0.35582	-0.229
Mof_O 	O 	0.2477	0.4145	0.6025	-0.447
Mof_O 	O 	0.0608	0.45637	0.6051	-0.47
Mof_O 	O 	0.1898	0.43718	0.4981	-0.448
Mof_O 	O 	0.1031	0.58594	0.4263	-0.469
Mof_O 	O 	0.0903	0.68216	0.4755	-0.238
Mof_O 	O 	0.9774	0.59727	0.5347	-0.509
Mof_O 	O 	0.3302	0.8022	0.0998	-0.466
Mof_O 	O 	0.3914	0.68396	0.07898	-0.421
Mof_O 	O 	0.4616	0.79031	0.99563	-0.444
Mof_O 	O 	0.584	0.59047	0.1264	-0.421
Mof_O 	O 	0.6997	0.6494	0.1392	-0.431
Mof_O 	O 	0.6637	0.678	0.02264	-0.26
Mof_O 	O 	0.7494	0.4176	0.8277	-0.501
Mof_O 	O 	0.8933	0.4257	0.7242	-0.462
Mof_O 	O 	0.8965	0.3162	0.8194	-0.451
Mof_O 	O 	0.7108	0.4844	0.6633	-0.466
Mof_O 	O 	0.6394	0.3933	0.6509	-0.237
Mof_O 	O 	0.5806	0.4284	0.7595	-0.47
Mof_O 	O 	0.6985	0.6882	0.5079	-0.467
Mof_O 	O 	0.6348	0.7588	0.5898	-0.464
Mof_O 	O 	0.759	0.63806	0.61711	-0.453
Mof_O 	O 	0.7572	0.8566	0.5843	-0.442
Mof_O 	O 	0.8605	0.7404	0.6433	-0.467
Mof_O 	O 	0.9429	0.8246	0.5419	-0.237
Mof_O 	O 	0.53	0.5617	0.01154	-0.473
Mof_O 	O 	0.6842	0.6071	0.9402	-0.447
Mof_O 	O 	0.6455	0.5092	0.9168	-0.48
Mof_O 	O 	0.5627	0.4415	0.1351	-0.492
Mof_O 	O 	0.623	0.3739	0.0471	-0.447
Mof_O 	O 	0.7314	0.3534	0.1259	-0.229
Mof_O 	O 	0.3991	0.9993	0.30178	-0.459
Mof_O 	O 	0.4327	0.1156	0.2905	-0.449
Mof_O 	O 	0.4258	0.0831	0.18697	-0.461
Mof_O 	O 	0.7755	0.0322	0.1745	-0.224
Mof_O 	O 	0.6445	0.1407	0.1886	-0.442
Mof_O 	O 	0.6394	0.0773	0.10782	-0.452
Mof_O 	O 	0.6402	0.06676	0.96364	-0.436
Mof_O 	O 	0.7968	0.0195	0.8912	-0.442
Mof_O 	O 	0.6451	0.9737	0.90706	-0.485
Mof_O 	O 	0.6751	0.8393	0.12883	-0.243
Mof_O 	O 	0.5776	0.8776	0.03662	-0.5
Mof_O 	O 	0.5677	0.96202	0.10196	-0.46
Mof_O 	O 	0.3911	0.99597	0.42805	-0.455
Mof_O 	O 	0.4589	0.88426	0.51689	-0.471
Mof_O 	O 	0.3252	0.891	0.45666	-0.456
Mof_O 	O 	0.4116	0.96422	0.61497	-0.499
Mof_O 	O 	0.3411	0.07639	0.53145	-0.467
Mof_O 	O 	0.2324	0.03116	0.64418	-0.229
Mof_O 	O 	0.7523	0.5855	0.3975	-0.447
Mof_O 	O 	0.9392	0.54363	0.3949	-0.47
Mof_O 	O 	0.8102	0.56282	0.5019	-0.448
Mof_O 	O 	0.8969	0.41406	0.5737	-0.469
Mof_O 	O 	0.9097	0.31784	0.5245	-0.238
Mof_O 	O 	0.0226	0.40273	0.4653	-0.509
Mof_O 	O 	0.6698	0.1978	0.9002	-0.466
Mof_O 	O 	0.6086	0.31604	0.92102	-0.421
Mof_O 	O 	0.5384	0.20969	0.00437	-0.444
Mof_O 	O 	0.416	0.40953	0.8736	-0.421
Mof_O 	O 	0.3003	0.3506	0.8608	-0.431
Mof_O 	O 	0.3363	0.322	0.97736	-0.26
Mof_O 	O 	0.2506	0.5824	0.1723	-0.501
Mof_O 	O 	0.1067	0.5743	0.2758	-0.462
Mof_O 	O 	0.1035	0.6838	0.1806	-0.451
Mof_O 	O 	0.2892	0.5156	0.3367	-0.466
Mof_O 	O 	0.3606	0.6067	0.3491	-0.237
Mof_O 	O 	0.4194	0.5716	0.2405	-0.47
Mof_O 	O 	0.3015	0.3118	0.4921	-0.467
Mof_O 	O 	0.3652	0.2412	0.4102	-0.464
Mof_O 	O 	0.241	0.36194	0.38289	-0.453
Mof_O 	O 	0.2428	0.1434	0.4157	-0.442
Mof_O 	O 	0.1395	0.2596	0.3567	-0.467
Mof_O 	O 	0.0571	0.1754	0.4581	-0.237
Mof_O 	O 	0.47	0.4383	0.98846	-0.473
Mof_O 	O 	0.3158	0.3929	0.0598	-0.447
Mof_O 	O 	0.3545	0.4908	0.0832	-0.48
Mof_O 	O 	0.4373	0.5585	0.8649	-0.492
Mof_O 	O 	0.377	0.6261	0.9529	-0.447
Mof_O 	O 	0.2686	0.6466	0.8741	-0.229
_end
