data_functionalizedCrystal
_audit_creation_method	'EQeq! by Chris Wilmer'
_symmetry_space_group_name_H-M	'P1'
_symmetry_Int_Tables_number	1
_symmetry_cell_setting	triclinic
loop_
_symmetry_equiv_pos_as_xyz
  x,y,z
_cell_length_a	10.6592
_cell_length_b	15.6897
_cell_length_c	11.4088
_cell_angle_alpha	90
_cell_angle_beta	90.101
_cell_angle_gamma	90
loop_
_atom_site_label
_atom_site_type_symbol
_atom_site_fract_x
_atom_site_fract_y
_atom_site_fract_z
_atom_site_charge
Mof_O 	O 	0.90603	0.93884	0.3742	-0.32
Mof_O 	O 	0.83391	0.85978	0.22825	-0.219
Mof_O 	O 	0.87375	0.93611	0.65426	-0.375
Mof_O 	O 	0.03645	0.85952	0.59206	-0.368
Mof_C 	C 	0.8005	0.81024	0.42218	0.01
Mof_C 	C 	0.8315	0.81333	0.54177	-0.055
Mof_C 	C 	0.7197	0.74678	0.38299	-0.019
Mof_C 	C 	0.8504	0.87331	0.33454	0.3
Mof_C 	C 	0.9227	0.8752	0.59659	0.454
Mof_H 	H 	0.6995	0.7449	0.3001	0.085
Mof_O 	O 	0.40603	0.43884	0.3742	-0.372
Mof_O 	O 	0.33391	0.35978	0.22825	-0.259
Mof_O 	O 	0.37375	0.43611	0.65426	-0.384
Mof_O 	O 	0.53645	0.35952	0.59206	-0.247
Mof_C 	C 	0.3005	0.31024	0.42218	-0.019
Mof_C 	C 	0.3315	0.31333	0.54177	-0.034
Mof_C 	C 	0.2197	0.24678	0.38299	-0.038
Mof_C 	C 	0.3504	0.37331	0.33454	0.302
Mof_C 	C 	0.4227	0.3752	0.59659	0.316
Mof_H 	H 	0.1995	0.2449	0.3001	0.075
Mof_O 	O 	0.09397	0.93884	0.1258	-0.394
Mof_O 	O 	0.16609	0.85978	0.27175	-0.273
Mof_O 	O 	0.12625	0.93611	0.84574	-0.356
Mof_O 	O 	0.96355	0.85952	0.90794	-0.132
Mof_C 	C 	0.1995	0.81024	0.07782	-0.045
Mof_C 	C 	0.1685	0.81333	0.95823	0.002
Mof_C 	C 	0.2803	0.74678	0.11701	-0.003
Mof_C 	C 	0.1496	0.87331	0.16546	0.31
Mof_C 	C 	0.0773	0.8752	0.90341	0.172
Mof_H 	H 	0.3005	0.7449	0.1999	0.069
Mof_O 	O 	0.59397	0.43884	0.1258	-0.364
Mof_O 	O 	0.66609	0.35978	0.27175	-0.241
Mof_O 	O 	0.62625	0.43611	0.84574	-0.363
Mof_O 	O 	0.46355	0.35952	0.90794	-0.259
Mof_C 	C 	0.6995	0.31024	0.07782	-0.028
Mof_C 	C 	0.6685	0.31333	0.95823	-0.01
Mof_C 	C 	0.7803	0.24678	0.11701	0.023
Mof_C 	C 	0.6496	0.37331	0.16546	0.314
Mof_C 	C 	0.5773	0.3752	0.90341	0.311
Mof_H 	H 	0.8005	0.2449	0.1999	0.077
Mof_O 	O 	0.09397	0.06116	0.6258	-0.399
Mof_O 	O 	0.16609	0.14022	0.77175	-0.275
Mof_O 	O 	0.12625	0.06389	0.34574	-0.353
Mof_O 	O 	0.96355	0.14048	0.40794	-0.129
Mof_C 	C 	0.1995	0.18976	0.57782	-0.06
Mof_C 	C 	0.1685	0.18667	0.45823	0.017
Mof_C 	C 	0.2803	0.25322	0.61701	0.006
Mof_C 	C 	0.1496	0.12669	0.66546	0.314
Mof_C 	C 	0.0773	0.1248	0.40341	0.17
Mof_H 	H 	0.3005	0.2551	0.6999	0.066
Mof_O 	O 	0.59397	0.56116	0.6258	-0.365
Mof_O 	O 	0.66609	0.64022	0.77175	-0.243
Mof_O 	O 	0.62625	0.56389	0.34574	-0.362
Mof_O 	O 	0.46355	0.64048	0.40794	-0.257
Mof_C 	C 	0.6995	0.68976	0.57782	-0.033
Mof_C 	C 	0.6685	0.68667	0.45823	-0.004
Mof_C 	C 	0.7803	0.75322	0.61701	0.026
Mof_C 	C 	0.6496	0.62669	0.66546	0.315
Mof_C 	C 	0.5773	0.6248	0.40341	0.309
Mof_H 	H 	0.8005	0.7551	0.6999	0.076
Mof_O 	O 	0.90603	0.06116	0.8742	-0.32
Mof_O 	O 	0.83391	0.14022	0.72825	-0.22
Mof_O 	O 	0.87375	0.06389	0.15426	-0.374
Mof_O 	O 	0.03645	0.14048	0.09206	-0.365
Mof_C 	C 	0.8005	0.18976	0.92218	0.005
Mof_C 	C 	0.8315	0.18667	0.04177	-0.051
Mof_C 	C 	0.7197	0.25322	0.88299	-0.015
Mof_C 	C 	0.8504	0.12669	0.83454	0.302
Mof_C 	C 	0.9227	0.1248	0.09659	0.45
Mof_H 	H 	0.6995	0.2551	0.8001	0.084
Mof_O 	O 	0.40603	0.56116	0.8742	-0.375
Mof_O 	O 	0.33391	0.64022	0.72825	-0.261
Mof_O 	O 	0.37375	0.56389	0.15426	-0.382
Mof_O 	O 	0.53645	0.64048	0.09206	-0.245
Mof_C 	C 	0.3005	0.68976	0.92218	-0.032
Mof_C 	C 	0.3315	0.68667	0.04177	-0.021
Mof_C 	C 	0.2197	0.75322	0.88299	-0.029
Mof_C 	C 	0.3504	0.62669	0.83454	0.306
Mof_C 	C 	0.4227	0.6248	0.09659	0.312
Mof_H 	H 	0.1995	0.7551	0.8001	0.072
Mof_Co	Co	1.00504e-33	0.00288	0.25	1.151
Mof_Co	Co	0.5	0.50288	0.25	1.198
Mof_Co	Co	-2.32751e-19	0.99712	0.75	1.15
Mof_Co	Co	0.5	0.49712	0.75	1.198
_end
