data_functionalizedCrystal
_audit_creation_method	'EQeq! by Chris Wilmer'
_symmetry_space_group_name_H-M	'P1'
_symmetry_Int_Tables_number	1
_symmetry_cell_setting	triclinic
loop_
_symmetry_equiv_pos_as_xyz
  x,y,z
_cell_length_a	20.8189
_cell_length_b	23.3745
_cell_length_c	12.7036
_cell_angle_alpha	90
_cell_angle_beta	90
_cell_angle_gamma	90
loop_
_atom_site_label
_atom_site_type_symbol
_atom_site_fract_x
_atom_site_fract_y
_atom_site_fract_z
_atom_site_charge
Mof_Zn	Zn	0.26814	0.09942	0.05448	1.169
Mof_Zn	Zn	0.17379	0.13582	0.23588	1.202
Mof_Zn	Zn	0.25137	0.02363	0.27078	1.221
Mof_Zn	Zn	0.32565	0.13507	0.28856	1.181
Mof_O 	O 	0.2555	0.09898	0.2132	-0.957
Mof_O 	O 	0.6452	0.9083	0.919	-0.534
Mof_O 	O 	0.3258	0.7132	0.7913	-0.535
Mof_O 	O 	0.1086	0.1193	0.1293	-0.564
Mof_O 	O 	0.6837	0.9941	0.877	-0.542
Mof_O 	O 	0.2946	0.01051	0.0311	-0.507
Mof_O 	O 	0.2359	0.6905	0.8781	-0.542
Mof_O 	O 	0.8325	0.9951	0.8342	-0.542
Mof_O 	O 	0.3956	0.0845	0.2118	-0.553
Mof_O 	O 	0.26	0.9619	0.173	-0.519
Mof_O 	O 	0.8761	0.9078	0.849	-0.528
Mof_O 	O 	0.174	0.0678	0.0267	-0.575
Mof_C 	C 	0.6423	0.9616	0.917	0.56
Mof_O 	O 	0.3662	0.11713	0.0552	-0.586
Mof_C 	C 	0.1213	0.0828	0.0591	0.555
Mof_C 	C 	0.8761	0.9609	0.8592	0.54
Mof_C 	C 	0.2791	0.7234	0.8541	0.467
Mof_C 	C 	0.2779	0.9672	0.0769	0.494
Mof_C 	C 	0.402	0.0904	0.1163	0.562
Mof_C 	C 	0.0631	0.0543	0.0107	-0.646
Mof_C 	C 	0.9354	0.9884	0.9056	-0.593
Mof_B 	B 	0.9642	0.9758	0.019	0.296
Mof_B 	B 	0.0583	0.0309	0.8925	0.325
Mof_B 	B 	0.9966	0.0425	0.069	0.305
Mof_B 	B 	0.0051	0.0859	0.9518	0.315
Mof_B 	B 	0.0083	0.9679	0.8942	0.274
Mof_B 	B 	0.05	0.9872	0.0138	0.26
Mof_B 	B 	0.9762	0.0381	0.8498	0.25
Mof_B 	B 	0.9328	0.0455	0.9762	0.261
Mof_H 	H 	0.934	0.956	0.075	-0.156
Mof_H 	H 	0.0973	0.035	0.841	-0.161
Mof_H 	H 	0.986	0.061	0.142	-0.155
Mof_H 	H 	0.002	0.1307	0.945	-0.159
Mof_H 	H 	0.012	0.9299	0.851	-0.133
Mof_H 	H 	0.084	0.9629	0.056	-0.135
Mof_H 	H 	0.956	0.051	0.778	-0.138
Mof_H 	H 	0.8867	0.062	0.992	-0.126
Mof_C 	C 	0.4591	0.0596	0.0689	-0.639
Mof_C 	C 	0.5855	0.9904	0.9667	-0.61
Mof_B 	B 	0.5129	0.9698	0.9585	0.337
Mof_B 	B 	0.5261	0.0487	0.1274	0.33
Mof_B 	B 	0.4631	0.0334	0.9532	0.312
Mof_B 	B 	0.5156	0.089	0.0026	0.268
Mof_B 	B 	0.5572	0.9811	0.0823	0.234
Mof_B 	B 	0.4714	0.9924	0.0764	0.267
Mof_B 	B 	0.5888	0.0497	0.0298	0.286
Mof_B 	B 	0.5434	0.038	0.9065	0.261
Mof_H 	H 	0.501	0.941	0.898	-0.158
Mof_H 	H 	0.533	0.063	0.205	-0.163
Mof_H 	H 	0.4279	0.043	0.896	-0.152
Mof_H 	H 	0.516	0.1328	0.984	-0.144
Mof_H 	H 	0.582	0.9492	0.124	-0.128
Mof_H 	H 	0.435	0.969	0.114	-0.133
Mof_H 	H 	0.6353	0.067	0.031	-0.138
Mof_H 	H 	0.557	0.046	0.828	-0.131
Mof_C 	C 	0.2792	0.911	0.0185	-0.23
Mof_C 	C 	0.2824	0.7817	0.9045	-0.227
Mof_B 	B 	0.3436	0.8203	0.9275	0.184
Mof_B 	B 	0.2312	0.8894	0.9283	0.188
Mof_B 	B 	0.3275	0.8603	0.0469	0.138
Mof_B 	B 	0.241	0.8559	0.0599	0.121
Mof_B 	B 	0.2752	0.8412	0.844	0.059
Mof_B 	B 	0.32	0.8945	0.9166	0.102
Mof_B 	B 	0.2191	0.8136	0.9456	0.099
Mof_B 	B 	0.2883	0.7935	0.029	0.148
Mof_H 	H 	0.389	0.8004	0.931	-0.098
Mof_H 	H 	0.195	0.9165	0.898	-0.107
Mof_H 	H 	0.3569	0.863	0.114	-0.093
Mof_H 	H 	0.213	0.856	0.129	-0.075
Mof_H 	H 	0.273	0.836	0.762	-0.069
Mof_H 	H 	0.349	0.9272	0.886	-0.078
Mof_H 	H 	0.1777	0.788	0.939	-0.074
Mof_H 	H 	0.295	0.7572	0.076	-0.087
Mof_C 	C 	0.2787	0.9094	0.026	-0.239
Mof_C 	C 	0.2772	0.782	0.905	-0.222
Mof_B 	B 	0.3347	0.8061	0.9742	0.076
Mof_B 	B 	0.2548	0.8979	0.908	0.1
Mof_B 	B 	0.2999	0.85	0.0771	0.113
Mof_B 	B 	0.22	0.8651	0.0283	0.119
Mof_B 	B 	0.3026	0.8404	0.8548	0.152
Mof_B 	B 	0.3366	0.883	0.9597	0.153
Mof_B 	B 	0.2197	0.8275	0.9033	0.148
Mof_B 	B 	0.2528	0.7938	0.0233	0.128
Mof_H 	H 	0.368	0.7768	0.006	-0.071
Mof_H 	H 	0.239	0.9317	0.86	-0.079
Mof_H 	H 	0.309	0.846	0.158	-0.072
Mof_H 	H 	0.1777	0.873	0.071	-0.08
Mof_H 	H 	0.3204	0.834	0.778	-0.086
Mof_H 	H 	0.379	0.9078	0.958	-0.104
Mof_H 	H 	0.178	0.812	0.865	-0.1
Mof_H 	H 	0.237	0.7577	0.065	-0.077
Mof_Zn	Zn	0.73186	0.90058	0.55448	1.168
Mof_Zn	Zn	0.82621	0.86418	0.73588	1.201
Mof_Zn	Zn	0.74863	0.97637	0.77078	1.22
Mof_Zn	Zn	0.67435	0.86493	0.78856	1.18
Mof_O 	O 	0.7445	0.90102	0.7132	-0.958
Mof_O 	O 	0.3548	0.0917	0.419	-0.537
Mof_O 	O 	0.6742	0.2868	0.2913	-0.537
Mof_O 	O 	0.8914	0.8807	0.6293	-0.564
Mof_O 	O 	0.3163	0.0059	0.377	-0.545
Mof_O 	O 	0.7054	0.98949	0.5311	-0.507
Mof_O 	O 	0.7641	0.3095	0.3781	-0.544
Mof_O 	O 	0.1675	0.0049	0.3342	-0.543
Mof_O 	O 	0.6044	0.9155	0.7118	-0.553
Mof_O 	O 	0.74	0.0381	0.673	-0.519
Mof_O 	O 	0.1239	0.0922	0.349	-0.53
Mof_O 	O 	0.826	0.9322	0.5267	-0.574
Mof_C 	C 	0.3577	0.0384	0.417	0.562
Mof_O 	O 	0.6338	0.88287	0.5552	-0.585
Mof_C 	C 	0.8787	0.9172	0.5591	0.553
Mof_C 	C 	0.1239	0.0391	0.3592	0.543
Mof_C 	C 	0.7209	0.2766	0.3541	0.467
Mof_C 	C 	0.7221	0.0328	0.5769	0.494
Mof_C 	C 	0.598	0.9096	0.6163	0.562
Mof_C 	C 	0.9369	0.9457	0.5107	-0.639
Mof_C 	C 	0.0646	0.0116	0.4056	-0.602
Mof_B 	B 	0.0358	0.0242	0.519	0.322
Mof_B 	B 	0.9417	0.9691	0.3925	0.316
Mof_B 	B 	0.0034	0.9575	0.569	0.296
Mof_B 	B 	0.9949	0.9141	0.4518	0.309
Mof_B 	B 	0.9917	0.0321	0.3942	0.251
Mof_B 	B 	0.95	0.0128	0.5138	0.272
Mof_B 	B 	0.0238	0.9619	0.3498	0.272
Mof_B 	B 	0.0672	0.9545	0.4762	0.251
Mof_H 	H 	0.066	0.044	0.575	-0.162
Mof_H 	H 	0.9027	0.965	0.341	-0.159
Mof_H 	H 	0.014	0.939	0.642	-0.151
Mof_H 	H 	0.998	0.8693	0.445	-0.158
Mof_H 	H 	0.988	0.0701	0.351	-0.127
Mof_H 	H 	0.916	0.0371	0.556	-0.138
Mof_H 	H 	0.044	0.949	0.278	-0.145
Mof_H 	H 	0.1133	0.938	0.492	-0.124
Mof_C 	C 	0.5409	0.9404	0.5689	-0.638
Mof_C 	C 	0.4145	0.0096	0.4667	-0.619
Mof_B 	B 	0.4871	0.0302	0.4585	0.319
Mof_B 	B 	0.4739	0.9513	0.6274	0.302
Mof_B 	B 	0.5369	0.9666	0.4532	0.293
Mof_B 	B 	0.4844	0.911	0.5026	0.295
Mof_B 	B 	0.4428	0.0189	0.5823	0.255
Mof_B 	B 	0.5286	0.0076	0.5764	0.29
Mof_B 	B 	0.4112	0.9503	0.5298	0.288
Mof_B 	B 	0.4566	0.962	0.4065	0.266
Mof_H 	H 	0.499	0.059	0.398	-0.152
Mof_H 	H 	0.467	0.937	0.705	-0.154
Mof_H 	H 	0.5721	0.957	0.396	-0.147
Mof_H 	H 	0.484	0.8672	0.484	-0.156
Mof_H 	H 	0.418	0.0508	0.624	-0.133
Mof_H 	H 	0.565	0.031	0.614	-0.139
Mof_H 	H 	0.3647	0.933	0.531	-0.137
Mof_H 	H 	0.443	0.954	0.328	-0.132
Mof_C 	C 	0.7208	0.089	0.5185	-0.228
Mof_C 	C 	0.7176	0.2183	0.4045	-0.228
Mof_B 	B 	0.6564	0.1797	0.4275	0.165
Mof_B 	B 	0.7688	0.1106	0.4283	0.179
Mof_B 	B 	0.6725	0.1397	0.5469	0.122
Mof_B 	B 	0.759	0.1441	0.5599	0.137
Mof_B 	B 	0.7248	0.1588	0.344	0.068
Mof_B 	B 	0.68	0.1055	0.4166	0.107
Mof_B 	B 	0.7809	0.1864	0.4456	0.102
Mof_B 	B 	0.7117	0.2065	0.529	0.15
Mof_H 	H 	0.611	0.1996	0.431	-0.096
Mof_H 	H 	0.805	0.0835	0.398	-0.105
Mof_H 	H 	0.6431	0.137	0.614	-0.088
Mof_H 	H 	0.787	0.144	0.629	-0.079
Mof_H 	H 	0.727	0.164	0.262	-0.072
Mof_H 	H 	0.651	0.0728	0.386	-0.081
Mof_H 	H 	0.8223	0.212	0.439	-0.076
Mof_H 	H 	0.705	0.2428	0.576	-0.087
Mof_C 	C 	0.7213	0.0906	0.526	-0.234
Mof_C 	C 	0.7228	0.218	0.405	-0.223
Mof_B 	B 	0.6653	0.1939	0.4742	0.083
Mof_B 	B 	0.7452	0.1021	0.408	0.098
Mof_B 	B 	0.7001	0.15	0.5771	0.13
Mof_B 	B 	0.78	0.1349	0.5283	0.107
Mof_B 	B 	0.6974	0.1596	0.3548	0.155
Mof_B 	B 	0.6634	0.117	0.4597	0.15
Mof_B 	B 	0.7803	0.1725	0.4033	0.142
Mof_B 	B 	0.7472	0.2062	0.5233	0.127
Mof_H 	H 	0.632	0.2232	0.506	-0.068
Mof_H 	H 	0.761	0.0683	0.36	-0.079
Mof_H 	H 	0.691	0.154	0.658	-0.077
Mof_H 	H 	0.8223	0.127	0.571	-0.076
Mof_H 	H 	0.6796	0.166	0.278	-0.088
Mof_H 	H 	0.621	0.0922	0.458	-0.104
Mof_H 	H 	0.822	0.188	0.365	-0.099
Mof_H 	H 	0.763	0.2423	0.565	-0.075
Mof_Zn	Zn	0.76814	0.40058	0.05448	1.168
Mof_Zn	Zn	0.67379	0.36418	0.23588	1.201
Mof_Zn	Zn	0.75137	0.47637	0.27078	1.219
Mof_Zn	Zn	0.82565	0.36493	0.28856	1.18
Mof_O 	O 	0.7555	0.40102	0.2132	-0.958
Mof_O 	O 	0.1452	0.5917	0.919	-0.535
Mof_O 	O 	0.8258	0.7868	0.7913	-0.536
Mof_O 	O 	0.6086	0.3807	0.1293	-0.566
Mof_O 	O 	0.1837	0.5059	0.877	-0.544
Mof_O 	O 	0.7946	0.48949	0.0311	-0.511
Mof_O 	O 	0.7359	0.8095	0.8781	-0.542
Mof_O 	O 	0.3325	0.5049	0.8342	-0.544
Mof_O 	O 	0.8956	0.4155	0.2118	-0.553
Mof_O 	O 	0.76	0.5381	0.173	-0.519
Mof_O 	O 	0.3761	0.5922	0.849	-0.529
Mof_O 	O 	0.674	0.4322	0.0267	-0.576
Mof_C 	C 	0.1423	0.5384	0.917	0.56
Mof_O 	O 	0.8662	0.38287	0.0552	-0.587
Mof_C 	C 	0.6213	0.4172	0.0591	0.555
Mof_C 	C 	0.3761	0.5391	0.8592	0.543
Mof_C 	C 	0.7791	0.7766	0.8541	0.467
Mof_C 	C 	0.7779	0.5328	0.0769	0.497
Mof_C 	C 	0.902	0.4096	0.1163	0.562
Mof_C 	C 	0.5631	0.4457	0.0107	-0.648
Mof_C 	C 	0.4354	0.5116	0.9056	-0.603
Mof_B 	B 	0.4642	0.5242	0.019	0.286
Mof_B 	B 	0.5583	0.4691	0.8925	0.315
Mof_B 	B 	0.4966	0.4575	0.069	0.299
Mof_B 	B 	0.5051	0.4141	0.9518	0.309
Mof_B 	B 	0.5083	0.5321	0.8942	0.276
Mof_B 	B 	0.55	0.5128	0.0138	0.276
Mof_B 	B 	0.4762	0.4619	0.8498	0.261
Mof_B 	B 	0.4328	0.4545	0.9762	0.277
Mof_H 	H 	0.434	0.544	0.075	-0.153
Mof_H 	H 	0.5973	0.465	0.841	-0.158
Mof_H 	H 	0.486	0.439	0.142	-0.153
Mof_H 	H 	0.502	0.3693	0.945	-0.157
Mof_H 	H 	0.512	0.5701	0.851	-0.133
Mof_H 	H 	0.584	0.5371	0.056	-0.14
Mof_H 	H 	0.456	0.449	0.778	-0.14
Mof_H 	H 	0.3867	0.438	0.992	-0.13
Mof_C 	C 	0.9591	0.4404	0.0689	-0.64
Mof_C 	C 	0.0855	0.5096	0.9667	-0.613
Mof_B 	B 	0.0129	0.5302	0.9585	0.322
Mof_B 	B 	0.0261	0.4513	0.1274	0.328
Mof_B 	B 	0.9631	0.4666	0.9532	0.318
Mof_B 	B 	0.0156	0.411	0.0026	0.258
Mof_B 	B 	0.0572	0.5189	0.0823	0.242
Mof_B 	B 	0.9714	0.5076	0.0764	0.273
Mof_B 	B 	0.0888	0.4503	0.0298	0.283
Mof_B 	B 	0.0434	0.462	0.9065	0.275
Mof_H 	H 	0.001	0.559	0.898	-0.154
Mof_H 	H 	0.033	0.437	0.205	-0.162
Mof_H 	H 	0.9279	0.457	0.896	-0.154
Mof_H 	H 	0.016	0.3672	0.984	-0.14
Mof_H 	H 	0.082	0.5508	0.124	-0.13
Mof_H 	H 	0.935	0.531	0.114	-0.134
Mof_H 	H 	0.1353	0.433	0.031	-0.137
Mof_H 	H 	0.057	0.454	0.828	-0.134
Mof_C 	C 	0.7792	0.589	0.0185	-0.23
Mof_C 	C 	0.7824	0.7183	0.9045	-0.227
Mof_B 	B 	0.8436	0.6797	0.9275	0.183
Mof_B 	B 	0.7312	0.6106	0.9283	0.187
Mof_B 	B 	0.8275	0.6397	0.0469	0.136
Mof_B 	B 	0.741	0.6441	0.0599	0.123
Mof_B 	B 	0.7752	0.6588	0.844	0.06
Mof_B 	B 	0.82	0.6055	0.9166	0.102
Mof_B 	B 	0.7191	0.6864	0.9456	0.1
Mof_B 	B 	0.7883	0.7065	0.029	0.148
Mof_H 	H 	0.889	0.6996	0.931	-0.098
Mof_H 	H 	0.695	0.5835	0.898	-0.107
Mof_H 	H 	0.8569	0.637	0.114	-0.092
Mof_H 	H 	0.713	0.644	0.129	-0.076
Mof_H 	H 	0.773	0.664	0.762	-0.069
Mof_H 	H 	0.849	0.5728	0.886	-0.079
Mof_H 	H 	0.6777	0.712	0.939	-0.074
Mof_H 	H 	0.795	0.7428	0.076	-0.087
Mof_C 	C 	0.7787	0.5906	0.026	-0.238
Mof_C 	C 	0.7772	0.718	0.905	-0.222
Mof_B 	B 	0.8347	0.6939	0.9742	0.076
Mof_B 	B 	0.7548	0.6021	0.908	0.099
Mof_B 	B 	0.7999	0.65	0.0771	0.115
Mof_B 	B 	0.72	0.6349	0.0283	0.118
Mof_B 	B 	0.8026	0.6596	0.8548	0.152
Mof_B 	B 	0.8366	0.617	0.9597	0.153
Mof_B 	B 	0.7197	0.6725	0.9033	0.148
Mof_B 	B 	0.7528	0.7062	0.0233	0.128
Mof_H 	H 	0.868	0.7232	0.006	-0.071
Mof_H 	H 	0.739	0.5683	0.86	-0.079
Mof_H 	H 	0.809	0.654	0.158	-0.073
Mof_H 	H 	0.6777	0.627	0.071	-0.079
Mof_H 	H 	0.8204	0.666	0.778	-0.086
Mof_H 	H 	0.879	0.5922	0.958	-0.104
Mof_H 	H 	0.678	0.688	0.865	-0.1
Mof_H 	H 	0.737	0.7423	0.065	-0.077
Mof_Zn	Zn	0.23186	0.59942	0.55448	1.168
Mof_Zn	Zn	0.32621	0.63582	0.73588	1.201
Mof_Zn	Zn	0.24863	0.52363	0.77078	1.219
Mof_Zn	Zn	0.17435	0.63507	0.78856	1.18
Mof_O 	O 	0.2445	0.59898	0.7132	-0.958
Mof_O 	O 	0.8548	0.4083	0.419	-0.537
Mof_O 	O 	0.1742	0.2132	0.2913	-0.537
Mof_O 	O 	0.3914	0.6193	0.6293	-0.564
Mof_O 	O 	0.8163	0.4941	0.377	-0.546
Mof_O 	O 	0.2054	0.51051	0.5311	-0.509
Mof_O 	O 	0.2641	0.1905	0.3781	-0.544
Mof_O 	O 	0.6675	0.4951	0.3342	-0.545
Mof_O 	O 	0.1044	0.5845	0.7118	-0.553
Mof_O 	O 	0.24	0.4619	0.673	-0.518
Mof_O 	O 	0.6239	0.4078	0.349	-0.53
Mof_O 	O 	0.326	0.5678	0.5267	-0.574
Mof_C 	C 	0.8577	0.4616	0.417	0.562
Mof_O 	O 	0.1338	0.61713	0.5552	-0.585
Mof_C 	C 	0.3787	0.5828	0.5591	0.553
Mof_C 	C 	0.6239	0.4609	0.3592	0.545
Mof_C 	C 	0.2209	0.2234	0.3541	0.466
Mof_C 	C 	0.2221	0.4672	0.5769	0.496
Mof_C 	C 	0.098	0.5904	0.6163	0.563
Mof_C 	C 	0.4369	0.5543	0.5107	-0.639
Mof_C 	C 	0.5646	0.4884	0.4056	-0.609
Mof_B 	B 	0.5358	0.4758	0.519	0.308
Mof_B 	B 	0.4417	0.5309	0.3925	0.304
Mof_B 	B 	0.5034	0.5425	0.569	0.302
Mof_B 	B 	0.4949	0.5859	0.4518	0.297
Mof_B 	B 	0.4917	0.4679	0.3942	0.259
Mof_B 	B 	0.45	0.4872	0.5138	0.279
Mof_B 	B 	0.5238	0.5381	0.3498	0.284
Mof_B 	B 	0.5672	0.5455	0.4762	0.26
Mof_H 	H 	0.566	0.456	0.575	-0.159
Mof_H 	H 	0.4027	0.535	0.341	-0.156
Mof_H 	H 	0.514	0.561	0.642	-0.153
Mof_H 	H 	0.498	0.6307	0.445	-0.155
Mof_H 	H 	0.488	0.4299	0.351	-0.129
Mof_H 	H 	0.416	0.4629	0.556	-0.14
Mof_H 	H 	0.544	0.551	0.278	-0.148
Mof_H 	H 	0.6133	0.562	0.492	-0.126
Mof_C 	C 	0.0409	0.5596	0.5689	-0.639
Mof_C 	C 	0.9145	0.4904	0.4667	-0.62
Mof_B 	B 	0.9871	0.4698	0.4585	0.319
Mof_B 	B 	0.9739	0.5487	0.6274	0.301
Mof_B 	B 	0.0369	0.5334	0.4532	0.289
Mof_B 	B 	0.9844	0.589	0.5026	0.299
Mof_B 	B 	0.9428	0.4811	0.5823	0.256
Mof_B 	B 	0.0286	0.4924	0.5764	0.293
Mof_B 	B 	0.9112	0.5497	0.5298	0.286
Mof_B 	B 	0.9566	0.538	0.4065	0.268
Mof_H 	H 	0.999	0.441	0.398	-0.152
Mof_H 	H 	0.967	0.563	0.705	-0.154
Mof_H 	H 	0.0721	0.543	0.396	-0.146
Mof_H 	H 	0.984	0.6328	0.484	-0.157
Mof_H 	H 	0.918	0.4492	0.624	-0.133
Mof_H 	H 	0.065	0.469	0.614	-0.139
Mof_H 	H 	0.8647	0.567	0.531	-0.136
Mof_H 	H 	0.943	0.546	0.328	-0.132
Mof_C 	C 	0.2208	0.411	0.5185	-0.229
Mof_C 	C 	0.2176	0.2817	0.4045	-0.228
Mof_B 	B 	0.1564	0.3203	0.4275	0.165
Mof_B 	B 	0.2688	0.3894	0.4283	0.179
Mof_B 	B 	0.1725	0.3603	0.5469	0.122
Mof_B 	B 	0.259	0.3559	0.5599	0.137
Mof_B 	B 	0.2248	0.3412	0.344	0.068
Mof_B 	B 	0.18	0.3945	0.4166	0.108
Mof_B 	B 	0.2809	0.3136	0.4456	0.102
Mof_B 	B 	0.2117	0.2935	0.529	0.15
Mof_H 	H 	0.111	0.3004	0.431	-0.096
Mof_H 	H 	0.305	0.4165	0.398	-0.105
Mof_H 	H 	0.1431	0.363	0.614	-0.088
Mof_H 	H 	0.287	0.356	0.629	-0.079
Mof_H 	H 	0.227	0.336	0.262	-0.072
Mof_H 	H 	0.151	0.4272	0.386	-0.081
Mof_H 	H 	0.3223	0.288	0.439	-0.076
Mof_H 	H 	0.205	0.2572	0.576	-0.087
Mof_C 	C 	0.2213	0.4094	0.526	-0.234
Mof_C 	C 	0.2228	0.282	0.405	-0.222
Mof_B 	B 	0.1653	0.3061	0.4742	0.083
Mof_B 	B 	0.2452	0.3979	0.408	0.098
Mof_B 	B 	0.2001	0.35	0.5771	0.13
Mof_B 	B 	0.28	0.3651	0.5283	0.107
Mof_B 	B 	0.1974	0.3404	0.3548	0.155
Mof_B 	B 	0.1634	0.383	0.4597	0.15
Mof_B 	B 	0.2803	0.3275	0.4033	0.142
Mof_B 	B 	0.2472	0.2938	0.5233	0.127
Mof_H 	H 	0.132	0.2768	0.506	-0.068
Mof_H 	H 	0.261	0.4317	0.36	-0.079
Mof_H 	H 	0.191	0.346	0.658	-0.077
Mof_H 	H 	0.3223	0.373	0.571	-0.076
Mof_H 	H 	0.1796	0.334	0.278	-0.088
Mof_H 	H 	0.121	0.4078	0.458	-0.104
Mof_H 	H 	0.322	0.312	0.365	-0.099
Mof_H 	H 	0.263	0.2577	0.565	-0.075
_end
