# CIF file generated by openbabel 3.1.0, see https://openbabel.org
data_I
_chemical_name_common 'image0'
_cell_length_a 15.957
_cell_length_b 16.46
_cell_length_c 17.3
_cell_angle_alpha 106.07
_cell_angle_beta 100.85
_cell_angle_gamma 113.408
_space_group_name_H-M_alt 'P 1'
_space_group_name_Hall 'P 1'
loop_
    _symmetry_equiv_pos_as_xyz
    x,y,z
loop_
    _atom_site_label
    _atom_site_type_symbol
    _atom_site_fract_x
    _atom_site_fract_y
    _atom_site_fract_z
    _atom_site_occupancy
    Mn1      Mn       0.74896    0.59677    0.57339    1.000
    O1       O        0.61710    0.55650    0.62420    1.000
    O2       O        0.74220    0.70960    0.69430    1.000
    O3       O        0.61810    0.58990    0.46830    1.000
    O4       O        0.76550    0.70380    0.50490    1.000
    O5       O        0.53970    0.39190    0.45630    1.000
    O6       O        0.70190    0.45310    0.48470    1.000
    O7       O        0.83780    0.57320    0.68680    1.000
    O8       O        0.91030    0.65260    0.61230    1.000
    O9       O        0.27260    0.79730    0.03560    1.000
    O10      O        0.57610    0.80800    0.04110    1.000
    O11      O        0.47490    0.99200    0.12040    1.000
    O12      O        0.45430    0.70110    0.14350    1.000
    C1       C        0.44810    0.73000    0.90050    1.000
    C2       C        0.35290    0.70930    0.85760    1.000
    H1       H        0.32820    0.67930    0.79830    1.000
    C3       C        0.29350    0.73220    0.90110    1.000
    C4       C        0.32870    0.77380    0.98680    1.000
    C5       C        0.42340    0.80010    0.03680    1.000
    C6       C        0.48110    0.77710    0.99150    1.000
    C7       C        0.60100    0.72890    0.04050    1.000
    H2       H        0.64680    0.73090    0.01120    1.000
    H3       H        0.54320    0.66780    0.01180    1.000
    H4       H        0.62890    0.73730    0.09830    1.000
    C8       C        0.24790    0.86400    0.02070    1.000
    H5       H        0.30560    0.92160    0.03210    1.000
    H6       H        0.21320    0.87850    0.05750    1.000
    H7       H        0.20750    0.83850    0.96220    1.000
    C9       C        0.56470    0.05190    0.10560    1.000
    H8       H        0.54910    0.08180    0.06880    1.000
    H9       H        0.58990    0.01170    0.07920    1.000
    H10      H        0.61250    0.10050    0.15930    1.000
    C10      C        0.34900    0.63560    0.11180    1.000
    H11      H        0.33710    0.57870    0.12280    1.000
    H12      H        0.32350    0.61840    0.05150    1.000
    H13      H        0.31780    0.66720    0.14060    1.000
    C11      C        0.46280    0.84920    0.13070    1.000
    C12      C        0.48150    0.80300    0.18590    1.000
    C13      C        0.53270    0.85040    0.26950    1.000
    C14      C        0.56130    0.94630    0.30610    1.000
    H14      H        0.59570    0.97910    0.36440    1.000
    C15      C        0.54140    0.99550    0.26040    1.000
    C16      C        0.49120    0.94590    0.17070    1.000
    C17      C        0.56670    0.80450    0.32500    1.000
    C18      C        0.50450    0.71680    0.32580    1.000
    H15      H        0.43920    0.68680    0.29330    1.000
    C19      C        0.63700    0.71370    0.41700    1.000
    C20      C        0.69890    0.79750    0.40990    1.000
    H16      H        0.76540    0.82240    0.43450    1.000
    C21      C        0.66740    0.84420    0.36950    1.000
    H17      H        0.71140    0.90260    0.37070    1.000
    C22      C        0.67280    0.66920    0.46340    1.000
    C23      C        0.56070    0.09450    0.30070    1.000
    C24      C        0.65360    0.16470    0.36350    1.000
    H18      H        0.70290    0.14860    0.37510    1.000
    C25      C        0.67000    0.25990    0.40830    1.000
    H19      H        0.73190    0.30720    0.44510    1.000
    C26      C        0.59660    0.28160    0.39780    1.000
    C27      C        0.50720    0.21030    0.33650    1.000
    H20      H        0.45630    0.22470    0.32810    1.000
    C28      C        0.49100    0.12370    0.28970    1.000
    H21      H        0.43050    0.08100    0.24800    1.000
    C29      C        0.61140    0.38030    0.44680    1.000
    C30      C        0.50720    0.70980    0.85190    1.000
    C31      C        0.60150    0.77900    0.86560    1.000
    H22      H        0.63080    0.83850    0.91080    1.000
    C32      C        0.65150    0.75780    0.81070    1.000
    H23      H        0.71260    0.80420    0.81740    1.000
    C33      C        0.60640    0.66260    0.74360    1.000
    C34      C        0.51760    0.59890    0.73420    1.000
    H24      H        0.49090    0.53750    0.69220    1.000
    C35      C        0.46070    0.61750    0.78350    1.000
    H25      H        0.39700    0.57240    0.77190    1.000
    C36      C        0.65910    0.64540    0.68600    1.000
    C37      C        0.91660    0.62200    0.67620    1.000
    C38      C        0.00950    0.65090    0.73270    1.000
    C39      C        0.09330    0.70040    0.71890    1.000
    H26      H        0.08900    0.71950    0.67320    1.000
    C40      C        0.18530    0.72370    0.77000    1.000
    H27      H        0.24000    0.75550    0.75690    1.000
    C41      C        0.19470    0.69850    0.84190    1.000
    C42      C        0.11130    0.66030    0.86600    1.000
    H28      H        0.11710    0.65390    0.91830    1.000
    C43      C        0.01840    0.63190    0.80810    1.000
    H29      H        0.96280    0.60040    0.82020    1.000
    C44      C        0.53680    0.67150    0.37430    1.000
    H30      H        0.49320    0.61590    0.37760    1.000
    Cd1      Cd       0.25104    0.40323    0.42661    1.000
    O13      O        0.38290    0.44350    0.37580    1.000
    O14      O        0.25780    0.29040    0.30570    1.000
    O15      O        0.38190    0.41010    0.53170    1.000
    O16      O        0.23450    0.29620    0.49510    1.000
    O17      O        0.46030    0.60810    0.54370    1.000
    O18      O        0.29810    0.54690    0.51530    1.000
    O19      O        0.16220    0.42680    0.31320    1.000
    O20      O        0.08970    0.34740    0.38770    1.000
    O21      O        0.72740    0.20270    0.96440    1.000
    O22      O        0.42390    0.19200    0.95890    1.000
    O23      O        0.52510    0.00800    0.87960    1.000
    O24      O        0.54570    0.29890    0.85650    1.000
    C45      C        0.55190    0.27000    0.09950    1.000
    C46      C        0.64710    0.29070    0.14240    1.000
    H31      H        0.67180    0.32070    0.20170    1.000
    C47      C        0.70650    0.26780    0.09890    1.000
    C48      C        0.67130    0.22620    0.01320    1.000
    C49      C        0.57660    0.19990    0.96320    1.000
    C50      C        0.51890    0.22290    0.00850    1.000
    C51      C        0.39900    0.27110    0.95950    1.000
    H32      H        0.35320    0.26910    0.98880    1.000
    H33      H        0.45680    0.33220    0.98820    1.000
    H34      H        0.37110    0.26270    0.90170    1.000
    C52      C        0.75210    0.13600    0.97930    1.000
    H35      H        0.69440    0.07840    0.96790    1.000
    H36      H        0.78680    0.12150    0.94250    1.000
    H37      H        0.79250    0.16150    0.03780    1.000
    C53      C        0.43530    0.94810    0.89440    1.000
    H38      H        0.45090    0.91820    0.93120    1.000
    H39      H        0.41010    0.98830    0.92080    1.000
    H40      H        0.38750    0.89950    0.84070    1.000
    C54      C        0.65100    0.36440    0.88820    1.000
    H41      H        0.66290    0.42130    0.87720    1.000
    H42      H        0.67650    0.38160    0.94850    1.000
    H43      H        0.68220    0.33280    0.85940    1.000
    C55      C        0.53720    0.15080    0.86930    1.000
    C56      C        0.51850    0.19700    0.81410    1.000
    C57      C        0.46730    0.14960    0.73050    1.000
    C58      C        0.43870    0.05370    0.69390    1.000
    H44      H        0.40430    0.02090    0.63560    1.000
    C59      C        0.45860    0.00450    0.73960    1.000
    C60      C        0.50880    0.05410    0.82930    1.000
    C61      C        0.43330    0.19550    0.67500    1.000
    C62      C        0.49550    0.28320    0.67420    1.000
    H45      H        0.56080    0.31320    0.70670    1.000
    C63      C        0.36300    0.28630    0.58300    1.000
    C64      C        0.30110    0.20250    0.59010    1.000
    H46      H        0.23460    0.17760    0.56550    1.000
    C65      C        0.33260    0.15580    0.63050    1.000
    H47      H        0.28860    0.09740    0.62930    1.000
    C66      C        0.32720    0.33080    0.53660    1.000
    C67      C        0.43930    0.90550    0.69930    1.000
    C68      C        0.34640    0.83530    0.63650    1.000
    H48      H        0.29710    0.85140    0.62490    1.000
    C69      C        0.33000    0.74010    0.59170    1.000
    H49      H        0.26810    0.69280    0.55490    1.000
    C70      C        0.40340    0.71840    0.60220    1.000
    C71      C        0.49280    0.78970    0.66350    1.000
    H50      H        0.54370    0.77530    0.67190    1.000
    C72      C        0.50900    0.87630    0.71030    1.000
    H51      H        0.56950    0.91900    0.75200    1.000
    C73      C        0.38860    0.61970    0.55320    1.000
    C74      C        0.49280    0.29020    0.14810    1.000
    C75      C        0.39850    0.22100    0.13440    1.000
    H52      H        0.36920    0.16150    0.08920    1.000
    C76      C        0.34850    0.24220    0.18930    1.000
    H53      H        0.28740    0.19580    0.18260    1.000
    C77      C        0.39360    0.33740    0.25640    1.000
    C78      C        0.48240    0.40110    0.26580    1.000
    H54      H        0.50910    0.46250    0.30780    1.000
    C79      C        0.53930    0.38250    0.21650    1.000
    H55      H        0.60300    0.42760    0.22810    1.000
    C80      C        0.34090    0.35460    0.31400    1.000
    C81      C        0.08340    0.37800    0.32380    1.000
    C82      C        0.99050    0.34910    0.26730    1.000
    C83      C        0.90670    0.29960    0.28110    1.000
    H56      H        0.91100    0.28050    0.32680    1.000
    C84      C        0.81470    0.27630    0.23000    1.000
    H57      H        0.76000    0.24450    0.24310    1.000
    C85      C        0.80530    0.30150    0.15810    1.000
    C86      C        0.88870    0.33970    0.13400    1.000
    H58      H        0.88290    0.34610    0.08170    1.000
    C87      C        0.98160    0.36810    0.19190    1.000
    H59      H        0.03720    0.39960    0.17980    1.000
    C88      C        0.46320    0.32850    0.62570    1.000
    H60      H        0.50680    0.38410    0.62240    1.000
    Mn2      Mn       0.50000    0.50000    0.50000    1.000
