data_functionalizedCrystal
_audit_creation_method	'EQeq! by Chris Wilmer'
_symmetry_space_group_name_H-M	'P1'
_symmetry_Int_Tables_number	1
_symmetry_cell_setting	triclinic
loop_
_symmetry_equiv_pos_as_xyz
  x,y,z
_cell_length_a	9.9096
_cell_length_b	15.678
_cell_length_c	13.8022
_cell_angle_alpha	90
_cell_angle_beta	90
_cell_angle_gamma	90
loop_
_atom_site_label
_atom_site_type_symbol
_atom_site_fract_x
_atom_site_fract_y
_atom_site_fract_z
_atom_site_charge
Mof_Zn	Zn	0.04004	0.58253	0.60735	1.211
Mof_P 	P 	0.23491	0.61362	0.78443	0.476
Mof_H 	H 	0.274	0.533	0.7729	-0.06
Mof_P 	P 	0.97169	0.38334	0.61392	0.562
Mof_H 	H 	0.87	0.3959	0.684	-0.045
Mof_O 	O 	0.3574	0.6643	0.8052	-0.446
Mof_O 	O 	0.165	0.6402	0.6922	-0.485
Mof_O 	O 	0.1467	0.6167	0.8737	-0.471
Mof_O 	O 	0.0511	0.3039	0.6437	-0.482
Mof_O 	O 	0.902	0.3708	0.5171	-0.418
Mof_O 	O 	0.0613	0.4604	0.6162	-0.551
Mof_Zn	Zn	0.45996	0.91747	0.10735	1.225
Mof_P 	P 	0.26509	0.88638	0.28443	0.476
Mof_H 	H 	0.226	0.967	0.2729	-0.071
Mof_P 	P 	0.52831	0.11666	0.11392	0.437
Mof_H 	H 	0.63	0.1041	0.184	-0.038
Mof_O 	O 	0.1426	0.8357	0.3052	-0.468
Mof_O 	O 	0.335	0.8598	0.1922	-0.472
Mof_O 	O 	0.3533	0.8833	0.3737	-0.445
Mof_O 	O 	0.4489	0.1961	0.1437	-0.411
Mof_O 	O 	0.598	0.1292	0.0171	-0.418
Mof_O 	O 	0.4387	0.0396	0.1162	-0.481
Mof_Zn	Zn	0.95996	0.58253	0.89265	1.246
Mof_P 	P 	0.76509	0.61362	0.71557	0.476
Mof_H 	H 	0.726	0.533	0.7271	-0.054
Mof_P 	P 	0.02831	0.38334	0.88608	0.314
Mof_H 	H 	0.13	0.3959	0.816	-0.044
Mof_O 	O 	0.6426	0.6643	0.6948	-0.44
Mof_O 	O 	0.835	0.6402	0.8078	-0.445
Mof_O 	O 	0.8533	0.6167	0.6263	-0.405
Mof_O 	O 	0.9489	0.3039	0.8563	-0.325
Mof_O 	O 	0.098	0.3708	0.9829	-0.43
Mof_O 	O 	0.9387	0.4604	0.8838	-0.406
Mof_Zn	Zn	0.54004	0.91747	0.39265	1.228
Mof_P 	P 	0.73491	0.88638	0.21557	0.474
Mof_H 	H 	0.774	0.967	0.2271	-0.044
Mof_P 	P 	0.47169	0.11666	0.38608	0.435
Mof_H 	H 	0.37	0.1041	0.316	-0.05
Mof_O 	O 	0.8574	0.8357	0.1948	-0.406
Mof_O 	O 	0.665	0.8598	0.3078	-0.459
Mof_O 	O 	0.6467	0.8833	0.1263	-0.436
Mof_O 	O 	0.5511	0.1961	0.3563	-0.404
Mof_O 	O 	0.402	0.1292	0.4829	-0.431
Mof_O 	O 	0.5613	0.0396	0.3838	-0.472
Mof_Zn	Zn	0.95996	0.41747	0.39265	1.246
Mof_P 	P 	0.76509	0.38638	0.21557	0.476
Mof_H 	H 	0.726	0.467	0.2271	-0.054
Mof_P 	P 	0.02831	0.61666	0.38608	0.309
Mof_H 	H 	0.13	0.6041	0.316	-0.044
Mof_O 	O 	0.6426	0.3357	0.1948	-0.44
Mof_O 	O 	0.835	0.3598	0.3078	-0.445
Mof_O 	O 	0.8533	0.3833	0.1263	-0.405
Mof_O 	O 	0.9489	0.6961	0.3563	-0.321
Mof_O 	O 	0.098	0.6292	0.4829	-0.431
Mof_O 	O 	0.9387	0.5396	0.3838	-0.402
Mof_Zn	Zn	0.54004	0.08253	0.89265	1.227
Mof_P 	P 	0.73491	0.11362	0.71557	0.474
Mof_H 	H 	0.774	0.033	0.7271	-0.045
Mof_P 	P 	0.47169	0.88334	0.88608	0.435
Mof_H 	H 	0.37	0.8959	0.816	-0.05
Mof_O 	O 	0.8574	0.1643	0.6948	-0.407
Mof_O 	O 	0.665	0.1402	0.8078	-0.46
Mof_O 	O 	0.6467	0.1167	0.6263	-0.434
Mof_O 	O 	0.5511	0.8039	0.8563	-0.403
Mof_O 	O 	0.402	0.8708	0.9829	-0.428
Mof_O 	O 	0.5613	0.9604	0.8838	-0.471
Mof_Zn	Zn	0.04004	0.41747	0.10735	1.209
Mof_P 	P 	0.23491	0.38638	0.28443	0.476
Mof_H 	H 	0.274	0.467	0.2729	-0.06
Mof_P 	P 	0.97169	0.61666	0.11392	0.565
Mof_H 	H 	0.87	0.6041	0.184	-0.045
Mof_O 	O 	0.3574	0.3357	0.3052	-0.447
Mof_O 	O 	0.165	0.3598	0.1922	-0.486
Mof_O 	O 	0.1467	0.3833	0.3737	-0.473
Mof_O 	O 	0.0511	0.6961	0.1437	-0.485
Mof_O 	O 	0.902	0.6292	0.0171	-0.42
Mof_O 	O 	0.0613	0.5396	0.1162	-0.554
Mof_Zn	Zn	0.45996	0.08253	0.60735	1.227
Mof_P 	P 	0.26509	0.11362	0.78443	0.476
Mof_H 	H 	0.226	0.033	0.7729	-0.07
Mof_P 	P 	0.52831	0.88334	0.61392	0.437
Mof_H 	H 	0.63	0.8959	0.684	-0.039
Mof_O 	O 	0.1426	0.1643	0.8052	-0.467
Mof_O 	O 	0.335	0.1402	0.6922	-0.471
Mof_O 	O 	0.3533	0.1167	0.8737	-0.446
Mof_O 	O 	0.4489	0.8039	0.6437	-0.411
Mof_O 	O 	0.598	0.8708	0.5171	-0.418
Mof_O 	O 	0.4387	0.9604	0.6162	-0.481
Mof_Zn	Zn	3.91665e-33	0.22788	0.75	1.214
Mof_Zn	Zn	0.5	0.27212	0.25	1.241
Mof_Zn	Zn	1.30555e-33	0.77212	0.25	1.213
Mof_Zn	Zn	0.5	0.72788	0.75	1.241
_end
