data_functionalizedCrystal
_audit_creation_method	'EQeq! by Chris Wilmer'
_symmetry_space_group_name_H-M	'P1'
_symmetry_Int_Tables_number	1
_symmetry_cell_setting	triclinic
loop_
_symmetry_equiv_pos_as_xyz
  x,y,z
_cell_length_a	7.9172
_cell_length_b	20.3854
_cell_length_c	17.7768
_cell_angle_alpha	90
_cell_angle_beta	90
_cell_angle_gamma	90
loop_
_atom_site_label
_atom_site_type_symbol
_atom_site_fract_x
_atom_site_fract_y
_atom_site_fract_z
_atom_site_charge
Mof_Cu	Cu	0.33031	0.95139	0.89378	0.897
Mof_Cu	Cu	0.66969	0.04861	0.89378	0.897
Mof_Cu	Cu	0.83031	0.54861	0.10622	0.898
Mof_Cu	Cu	0.16969	0.45139	0.10622	0.898
Mof_Cu	Cu	0.66969	0.04861	0.10622	0.898
Mof_Cu	Cu	0.33031	0.95139	0.10622	0.898
Mof_Cu	Cu	0.16969	0.45139	0.89378	0.896
Mof_Cu	Cu	0.83031	0.54861	0.89378	0.896
Mof_P 	P 	0.27112	0.80065	0.84486	0.437
Mof_P 	P 	0.72888	0.19935	0.84486	0.437
Mof_P 	P 	0.77112	0.69935	0.15514	0.437
Mof_P 	P 	0.22888	0.30065	0.15514	0.437
Mof_P 	P 	0.72888	0.19935	0.15514	0.437
Mof_P 	P 	0.27112	0.80065	0.15514	0.437
Mof_P 	P 	0.22888	0.30065	0.84486	0.437
Mof_P 	P 	0.77112	0.69935	0.84486	0.437
Mof_P 	P 	0.1197	0.57155	-0	0.424
Mof_P 	P 	0.8803	0.42845	-0	0.424
Mof_P 	P 	0.6197	0.92845	-0	0.424
Mof_P 	P 	0.3803	0.07155	-0	0.424
Mof_H 	H 	0.0291	0.7897	0.8124	0.285
Mof_H 	H 	0.1961	0.6658	0.8856	0.049
Mof_H 	H 	0.2617	0.9333	0.6125	0.098
Mof_H 	H 	0.0759	0.1001	0.7038	0.111
Mof_H 	H 	0.1079	0.092	0.5673	0.142
Mof_H 	H 	0.9661	0.0397	0.5697	0.149
Mof_H 	H 	0.3045	0.897	0.731	0.012
Mof_H 	H 	0.201	0.068	0.818	0.006
Mof_H 	H 	0.9709	0.2103	0.8124	0.285
Mof_H 	H 	0.8039	0.3342	0.8856	0.049
Mof_H 	H 	0.7383	0.0667	0.6125	0.098
Mof_H 	H 	0.9241	0.8999	0.7038	0.111
Mof_H 	H 	0.8921	0.908	0.5673	0.142
Mof_H 	H 	0.0339	0.9603	0.5697	0.149
Mof_H 	H 	0.6955	0.103	0.731	0.012
Mof_H 	H 	0.799	0.932	0.818	0.006
Mof_H 	H 	0.5291	0.7103	0.1876	0.285
Mof_H 	H 	0.6961	0.8342	0.1144	0.048
Mof_H 	H 	0.7617	0.5667	0.3875	0.098
Mof_H 	H 	0.5759	0.3999	0.2962	0.111
Mof_H 	H 	0.6079	0.408	0.4327	0.143
Mof_H 	H 	0.4661	0.4603	0.4303	0.152
Mof_H 	H 	0.8045	0.603	0.269	0.012
Mof_H 	H 	0.701	0.432	0.182	0.007
Mof_H 	H 	0.4709	0.2897	0.1876	0.285
Mof_H 	H 	0.3039	0.1658	0.1144	0.048
Mof_H 	H 	0.2383	0.4333	0.3875	0.098
Mof_H 	H 	0.4241	0.6001	0.2962	0.111
Mof_H 	H 	0.3921	0.592	0.4327	0.143
Mof_H 	H 	0.5339	0.5397	0.4303	0.152
Mof_H 	H 	0.1955	0.397	0.269	0.012
Mof_H 	H 	0.299	0.568	0.182	0.007
Mof_H 	H 	0.9709	0.2103	0.1876	0.285
Mof_H 	H 	0.8039	0.3342	0.1144	0.048
Mof_H 	H 	0.7383	0.0667	0.3875	0.098
Mof_H 	H 	0.9241	0.8999	0.2962	0.111
Mof_H 	H 	0.8921	0.908	0.4327	0.142
Mof_H 	H 	0.0339	0.9603	0.4303	0.149
Mof_H 	H 	0.6955	0.103	0.269	0.012
Mof_H 	H 	0.799	0.932	0.182	0.007
Mof_H 	H 	0.0291	0.7897	0.1876	0.285
Mof_H 	H 	0.1961	0.6658	0.1144	0.048
Mof_H 	H 	0.2617	0.9333	0.3875	0.098
Mof_H 	H 	0.0759	0.1001	0.2962	0.111
Mof_H 	H 	0.1079	0.092	0.4327	0.142
Mof_H 	H 	0.9661	0.0397	0.4303	0.149
Mof_H 	H 	0.3045	0.897	0.269	0.012
Mof_H 	H 	0.201	0.068	0.182	0.007
Mof_H 	H 	0.4709	0.2897	0.8124	0.285
Mof_H 	H 	0.3039	0.1658	0.8856	0.05
Mof_H 	H 	0.2383	0.4333	0.6125	0.098
Mof_H 	H 	0.4241	0.6001	0.7038	0.111
Mof_H 	H 	0.3921	0.592	0.5673	0.143
Mof_H 	H 	0.5339	0.5397	0.5697	0.152
Mof_H 	H 	0.1955	0.397	0.731	0.012
Mof_H 	H 	0.299	0.568	0.818	0.006
Mof_H 	H 	0.5291	0.7103	0.8124	0.285
Mof_H 	H 	0.6961	0.8342	0.8856	0.05
Mof_H 	H 	0.7617	0.5667	0.6125	0.098
Mof_H 	H 	0.5759	0.3999	0.7038	0.111
Mof_H 	H 	0.6079	0.408	0.5673	0.143
Mof_H 	H 	0.4661	0.4603	0.5697	0.152
Mof_H 	H 	0.8045	0.603	0.731	0.012
Mof_H 	H 	0.701	0.432	0.818	0.006
Mof_H 	H 	0.309	0.826	-0	0.032
Mof_H 	H 	0.691	0.174	-0	0.032
Mof_H 	H 	0.809	0.674	-0	0.032
Mof_H 	H 	0.191	0.326	-0	0.032
Mof_C 	C 	0.2484	0.7559	0.9319	-0.085
Mof_C 	C 	0.2083	0.689	0.9323	0.004
Mof_C 	C 	0.235	0.9609	0.6546	-0.225
Mof_C 	C 	0.1566	0.0203	0.6441	0.201
Mof_C 	C 	0.14	0.0602	0.7067	-0.195
Mof_C 	C 	0.086	0.0457	0.5702	-0.37
Mof_C 	C 	0.283	0.9427	0.7226	0.113
Mof_C 	C 	0.2205	0.0426	0.776	0.091
Mof_C 	C 	0.7516	0.2441	0.9319	-0.085
Mof_C 	C 	0.7917	0.311	0.9323	0.004
Mof_C 	C 	0.765	0.0391	0.6546	-0.225
Mof_C 	C 	0.8434	0.9797	0.6441	0.201
Mof_C 	C 	0.86	0.9398	0.7067	-0.195
Mof_C 	C 	0.914	0.9543	0.5702	-0.37
Mof_C 	C 	0.717	0.0573	0.7226	0.113
Mof_C 	C 	0.7795	0.9574	0.776	0.091
Mof_C 	C 	0.7484	0.7441	0.0681	-0.08
Mof_C 	C 	0.7083	0.811	0.0677	0.011
Mof_C 	C 	0.735	0.5391	0.3454	-0.224
Mof_C 	C 	0.6566	0.4797	0.3559	0.2
Mof_C 	C 	0.64	0.4398	0.2933	-0.195
Mof_C 	C 	0.586	0.4543	0.4298	-0.373
Mof_C 	C 	0.783	0.5573	0.2774	0.112
Mof_C 	C 	0.7205	0.4574	0.224	0.09
Mof_C 	C 	0.2516	0.2559	0.0681	-0.08
Mof_C 	C 	0.2917	0.189	0.0677	0.011
Mof_C 	C 	0.265	0.4609	0.3454	-0.224
Mof_C 	C 	0.3434	0.5203	0.3559	0.2
Mof_C 	C 	0.36	0.5602	0.2933	-0.195
Mof_C 	C 	0.414	0.5457	0.4298	-0.373
Mof_C 	C 	0.217	0.4427	0.2774	0.112
Mof_C 	C 	0.2795	0.5426	0.224	0.09
Mof_C 	C 	0.7516	0.2441	0.0681	-0.08
Mof_C 	C 	0.7917	0.311	0.0677	0.011
Mof_C 	C 	0.765	0.0391	0.3454	-0.225
Mof_C 	C 	0.8434	0.9797	0.3559	0.201
Mof_C 	C 	0.86	0.9398	0.2933	-0.195
Mof_C 	C 	0.914	0.9543	0.4298	-0.37
Mof_C 	C 	0.717	0.0573	0.2774	0.113
Mof_C 	C 	0.7795	0.9574	0.224	0.091
Mof_C 	C 	0.2484	0.7559	0.0681	-0.08
Mof_C 	C 	0.2083	0.689	0.0677	0.011
Mof_C 	C 	0.235	0.9609	0.3454	-0.225
Mof_C 	C 	0.1566	0.0203	0.3559	0.201
Mof_C 	C 	0.14	0.0602	0.2933	-0.195
Mof_C 	C 	0.086	0.0457	0.4298	-0.37
Mof_C 	C 	0.283	0.9427	0.2774	0.113
Mof_C 	C 	0.2205	0.0426	0.224	0.091
Mof_C 	C 	0.2516	0.2559	0.9319	-0.085
Mof_C 	C 	0.2917	0.189	0.9323	0.004
Mof_C 	C 	0.265	0.4609	0.6546	-0.224
Mof_C 	C 	0.3434	0.5203	0.6441	0.2
Mof_C 	C 	0.36	0.5602	0.7067	-0.195
Mof_C 	C 	0.414	0.5457	0.5702	-0.373
Mof_C 	C 	0.217	0.4427	0.7226	0.112
Mof_C 	C 	0.2795	0.5426	0.776	0.09
Mof_C 	C 	0.7484	0.7441	0.9319	-0.085
Mof_C 	C 	0.7083	0.811	0.9323	0.004
Mof_C 	C 	0.735	0.5391	0.6546	-0.224
Mof_C 	C 	0.6566	0.4797	0.6441	0.2
Mof_C 	C 	0.64	0.4398	0.7067	-0.195
Mof_C 	C 	0.586	0.4543	0.5702	-0.373
Mof_C 	C 	0.783	0.5573	0.7226	0.112
Mof_C 	C 	0.7205	0.4574	0.776	0.09
Mof_C 	C 	0.268	0.7885	-0	0.013
Mof_C 	C 	0.1867	0.6561	-0	-0.063
Mof_C 	C 	0.732	0.2115	-0	0.013
Mof_C 	C 	0.8133	0.3439	-0	-0.063
Mof_C 	C 	0.768	0.7115	-0	0.013
Mof_C 	C 	0.6867	0.8439	-0	-0.062
Mof_C 	C 	0.232	0.2885	-0	0.013
Mof_C 	C 	0.3133	0.1561	-0	-0.062
Mof_C 	C 	0.161	0.0121	0.5	0.093
Mof_C 	C 	0.839	0.9879	0.5	0.093
Mof_C 	C 	0.661	0.4879	0.5	0.093
Mof_C 	C 	0.339	0.5121	0.5	0.093
Mof_N 	N 	0.2896	0.983	0.7875	-0.231
Mof_N 	N 	0.7104	0.017	0.7875	-0.231
Mof_N 	N 	0.7896	0.517	0.2125	-0.23
Mof_N 	N 	0.2104	0.483	0.2125	-0.23
Mof_N 	N 	0.7104	0.017	0.2125	-0.231
Mof_N 	N 	0.2896	0.983	0.2125	-0.231
Mof_N 	N 	0.2104	0.483	0.7875	-0.23
Mof_N 	N 	0.7896	0.517	0.7875	-0.23
Mof_O 	O 	0.3692	0.86286	0.86097	-0.38
Mof_O 	O 	0.0884	0.8229	0.82165	-0.448
Mof_O 	O 	0.3495	0.75635	0.7866	-0.26
Mof_O 	O 	0.183	0.54129	0.0723	-0.427
Mof_O 	O 	0.6308	0.13714	0.86097	-0.38
Mof_O 	O 	0.9116	0.1771	0.82165	-0.448
Mof_O 	O 	0.6505	0.24365	0.7866	-0.26
Mof_O 	O 	0.817	0.45871	0.0723	-0.427
Mof_O 	O 	0.8692	0.63714	0.13903	-0.378
Mof_O 	O 	0.5884	0.6771	0.17835	-0.447
Mof_O 	O 	0.8495	0.74365	0.2134	-0.26
Mof_O 	O 	0.683	0.95871	0.9277	-0.432
Mof_O 	O 	0.1308	0.36286	0.13903	-0.378
Mof_O 	O 	0.4116	0.3229	0.17835	-0.447
Mof_O 	O 	0.1505	0.25635	0.2134	-0.26
Mof_O 	O 	0.317	0.04129	0.9277	-0.432
Mof_O 	O 	0.6308	0.13714	0.13903	-0.378
Mof_O 	O 	0.9116	0.1771	0.17835	-0.447
Mof_O 	O 	0.6505	0.24365	0.2134	-0.26
Mof_O 	O 	0.817	0.45871	0.9277	-0.432
Mof_O 	O 	0.3692	0.86286	0.13903	-0.378
Mof_O 	O 	0.0884	0.8229	0.17835	-0.447
Mof_O 	O 	0.3495	0.75635	0.2134	-0.26
Mof_O 	O 	0.183	0.54129	0.9277	-0.432
Mof_O 	O 	0.1308	0.36286	0.86097	-0.38
Mof_O 	O 	0.4116	0.3229	0.82165	-0.448
Mof_O 	O 	0.1505	0.25635	0.7866	-0.26
Mof_O 	O 	0.317	0.04129	0.0723	-0.426
Mof_O 	O 	0.8692	0.63714	0.86097	-0.38
Mof_O 	O 	0.5884	0.6771	0.82165	-0.448
Mof_O 	O 	0.8495	0.74365	0.7866	-0.26
Mof_O 	O 	0.683	0.95871	0.0723	-0.426
Mof_O 	O 	0.9244	0.57007	-0	-0.459
Mof_O 	O 	0.0756	0.42993	-0	-0.459
Mof_O 	O 	0.4244	0.92993	-0	-0.459
Mof_O 	O 	0.5756	0.07007	-0	-0.459
_end
