data_functionalizedCrystal
_audit_creation_method	'EQeq! by Chris Wilmer'
_symmetry_space_group_name_H-M	'P1'
_symmetry_Int_Tables_number	1
_symmetry_cell_setting	triclinic
loop_
_symmetry_equiv_pos_as_xyz
  x,y,z
_cell_length_a	18.606
_cell_length_b	18.606
_cell_length_c	38.653
_cell_angle_alpha	90
_cell_angle_beta	90
_cell_angle_gamma	120
loop_
_atom_site_label
_atom_site_type_symbol
_atom_site_fract_x
_atom_site_fract_y
_atom_site_fract_z
_atom_site_charge
Mof_C 	C 	0.7272	0.8207	0.3223	-0.096
Mof_H 	H 	0.7692	0.8109	0.3151	0.066
Mof_C 	C 	0.6293	0.771	0.3094	0.082
Mof_C 	C 	0.7867	0.0272	0.19367	0.363
Mof_C 	C 	0.7357	0.9319	0.24462	-0.027
Mof_H 	H 	0.7249	0.9699	0.2556	0.051
Mof_C 	C 	0.7664	0.9474	0.21088	-0.089
Mof_N 	N 	0.5748	0.6952	0.2876	-0.292
Mof_H 	H 	0.5818	0.6965	0.2656	0.145
Mof_H 	H 	0.5368	0.6507	0.2973	0.138
Mof_O 	O 	0.81459	0.03764	0.16351	-0.412
Mof_O 	O 	0.77538	0.07788	0.21085	-0.415
Mof_C 	C 	0.39387	0.15403	0.65563	-0.097
Mof_H 	H 	0.43587	0.14423	0.64843	0.065
Mof_C 	C 	0.29597	0.10433	0.64273	0.081
Mof_C 	C 	0.45337	0.36053	0.527	0.363
Mof_C 	C 	0.40237	0.26523	0.57795	-0.027
Mof_H 	H 	0.39157	0.30323	0.58893	0.051
Mof_C 	C 	0.43307	0.28073	0.54421	-0.09
Mof_N 	N 	0.24147	0.02853	0.62093	-0.292
Mof_H 	H 	0.24847	0.02983	0.59893	0.145
Mof_H 	H 	0.20347	0.98403	0.63063	0.137
Mof_O 	O 	0.48126	0.37097	0.49684	-0.411
Mof_O 	O 	0.44205	0.41121	0.54418	-0.415
Mof_C 	C 	0.06053	0.48737	0.98897	-0.097
Mof_H 	H 	0.10253	0.47757	0.98177	0.065
Mof_C 	C 	0.96263	0.43767	0.97607	0.081
Mof_C 	C 	0.12003	0.69387	0.86034	0.363
Mof_C 	C 	0.06903	0.59857	0.91129	-0.027
Mof_H 	H 	0.05823	0.63657	0.92227	0.051
Mof_C 	C 	0.09973	0.61407	0.87755	-0.09
Mof_N 	N 	0.90813	0.36187	0.95427	-0.292
Mof_H 	H 	0.91513	0.36317	0.93227	0.145
Mof_H 	H 	0.87013	0.31737	0.96397	0.138
Mof_O 	O 	0.14792	0.70431	0.83018	-0.412
Mof_O 	O 	0.10871	0.74455	0.87752	-0.415
Mof_C 	C 	0.1793	0.9065	0.3223	-0.097
Mof_H 	H 	0.1891	0.9583	0.3151	0.065
Mof_C 	C 	0.229	0.8583	0.3094	0.081
Mof_C 	C 	0.9728	0.7595	0.19367	0.362
Mof_C 	C 	0.0681	0.8038	0.24462	-0.027
Mof_H 	H 	0.0301	0.755	0.2556	0.051
Mof_C 	C 	0.0526	0.819	0.21088	-0.089
Mof_N 	N 	0.3048	0.8796	0.2876	-0.292
Mof_H 	H 	0.3035	0.8853	0.2656	0.145
Mof_H 	H 	0.3493	0.8861	0.2973	0.138
Mof_O 	O 	0.96236	0.77695	0.16351	-0.411
Mof_O 	O 	0.92212	0.6975	0.21085	-0.415
Mof_C 	C 	0.84597	0.23983	0.65563	-0.097
Mof_H 	H 	0.85577	0.29163	0.64843	0.065
Mof_C 	C 	0.89567	0.19163	0.64273	0.081
Mof_C 	C 	0.63947	0.09283	0.527	0.363
Mof_C 	C 	0.73477	0.13713	0.57795	-0.027
Mof_H 	H 	0.69677	0.08833	0.58893	0.051
Mof_C 	C 	0.71927	0.15233	0.54421	-0.09
Mof_N 	N 	0.97147	0.21293	0.62093	-0.292
Mof_H 	H 	0.97017	0.21863	0.59893	0.145
Mof_H 	H 	0.01597	0.21943	0.63063	0.137
Mof_O 	O 	0.62903	0.11028	0.49684	-0.412
Mof_O 	O 	0.58879	0.03083	0.54418	-0.415
Mof_C 	C 	0.51263	0.57317	0.98897	-0.097
Mof_H 	H 	0.52243	0.62497	0.98177	0.065
Mof_C 	C 	0.56233	0.52497	0.97607	0.081
Mof_C 	C 	0.30613	0.42617	0.86034	0.363
Mof_C 	C 	0.40143	0.47047	0.91129	-0.027
Mof_H 	H 	0.36343	0.42167	0.92227	0.051
Mof_C 	C 	0.38593	0.48567	0.87755	-0.09
Mof_N 	N 	0.63813	0.54627	0.95427	-0.292
Mof_H 	H 	0.63683	0.55197	0.93227	0.145
Mof_H 	H 	0.68263	0.55277	0.96397	0.138
Mof_O 	O 	0.29569	0.44362	0.83018	-0.411
Mof_O 	O 	0.25545	0.36417	0.87752	-0.415
Mof_C 	C 	0.0935	0.2728	0.3223	-0.097
Mof_H 	H 	0.0417	0.2308	0.3151	0.065
Mof_C 	C 	0.1417	0.3707	0.3094	0.081
Mof_C 	C 	0.2405	0.2133	0.19367	0.363
Mof_C 	C 	0.1962	0.2643	0.24462	-0.027
Mof_H 	H 	0.245	0.2751	0.2556	0.051
Mof_C 	C 	0.181	0.2336	0.21088	-0.089
Mof_N 	N 	0.1204	0.4252	0.2876	-0.292
Mof_H 	H 	0.1147	0.4182	0.2656	0.145
Mof_H 	H 	0.1139	0.4632	0.2973	0.138
Mof_O 	O 	0.22305	0.18541	0.16351	-0.411
Mof_O 	O 	0.3025	0.22462	0.21085	-0.415
Mof_C 	C 	0.76017	0.60613	0.65563	-0.097
Mof_H 	H 	0.70837	0.56413	0.64843	0.065
Mof_C 	C 	0.80837	0.70403	0.64273	0.081
Mof_C 	C 	0.90717	0.54663	0.527	0.363
Mof_C 	C 	0.86287	0.59763	0.57795	-0.027
Mof_H 	H 	0.91167	0.60843	0.58893	0.051
Mof_C 	C 	0.84767	0.56693	0.54421	-0.09
Mof_N 	N 	0.78707	0.75853	0.62093	-0.292
Mof_H 	H 	0.78137	0.75153	0.59893	0.145
Mof_H 	H 	0.78057	0.79653	0.63063	0.138
Mof_O 	O 	0.88972	0.51874	0.49684	-0.412
Mof_O 	O 	0.96917	0.55795	0.54418	-0.415
Mof_C 	C 	0.42683	0.93947	0.98897	-0.097
Mof_H 	H 	0.37503	0.89747	0.98177	0.065
Mof_C 	C 	0.47503	0.03737	0.97607	0.081
Mof_C 	C 	0.57383	0.87997	0.86034	0.363
Mof_C 	C 	0.52953	0.93097	0.91129	-0.027
Mof_H 	H 	0.57833	0.94177	0.92227	0.051
Mof_C 	C 	0.51433	0.90027	0.87755	-0.09
Mof_N 	N 	0.45373	0.09187	0.95427	-0.292
Mof_H 	H 	0.44803	0.08487	0.93227	0.145
Mof_H 	H 	0.44723	0.12987	0.96397	0.138
Mof_O 	O 	0.55638	0.85208	0.83018	-0.411
Mof_O 	O 	0.63583	0.89129	0.87752	-0.415
Mof_C 	C 	0.8207	0.7272	0.6777	-0.097
Mof_H 	H 	0.8109	0.7692	0.6849	0.065
Mof_C 	C 	0.771	0.6293	0.6906	0.081
Mof_C 	C 	0.0272	0.7867	0.80633	0.362
Mof_C 	C 	0.9319	0.7357	0.75538	-0.027
Mof_H 	H 	0.9699	0.7249	0.7444	0.051
Mof_C 	C 	0.9474	0.7664	0.78912	-0.089
Mof_N 	N 	0.6952	0.5748	0.7124	-0.292
Mof_H 	H 	0.6965	0.5818	0.7344	0.145
Mof_H 	H 	0.6507	0.5368	0.7027	0.138
Mof_O 	O 	0.03764	0.81459	0.83649	-0.412
Mof_O 	O 	0.07788	0.77538	0.78915	-0.415
Mof_C 	C 	0.48737	0.06053	0.01103	-0.097
Mof_H 	H 	0.47757	0.10253	0.01823	0.065
Mof_C 	C 	0.43767	0.96263	0.02393	0.081
Mof_C 	C 	0.69387	0.12003	0.13966	0.363
Mof_C 	C 	0.59857	0.06903	0.08871	-0.027
Mof_H 	H 	0.63657	0.05823	0.07773	0.051
Mof_C 	C 	0.61407	0.09973	0.12245	-0.09
Mof_N 	N 	0.36187	0.90813	0.04573	-0.292
Mof_H 	H 	0.36317	0.91513	0.06773	0.145
Mof_H 	H 	0.31737	0.87013	0.03603	0.138
Mof_O 	O 	0.70431	0.14792	0.16982	-0.412
Mof_O 	O 	0.74455	0.10871	0.12248	-0.415
Mof_C 	C 	0.15403	0.39387	0.34437	-0.097
Mof_H 	H 	0.14423	0.43587	0.35157	0.065
Mof_C 	C 	0.10433	0.29597	0.35727	0.081
Mof_C 	C 	0.36053	0.45337	0.473	0.363
Mof_C 	C 	0.26523	0.40237	0.42205	-0.027
Mof_H 	H 	0.30323	0.39157	0.41107	0.051
Mof_C 	C 	0.28073	0.43307	0.45579	-0.09
Mof_N 	N 	0.02853	0.24147	0.37907	-0.292
Mof_H 	H 	0.02983	0.24847	0.40107	0.145
Mof_H 	H 	0.98403	0.20347	0.36937	0.137
Mof_O 	O 	0.37097	0.48126	0.50316	-0.411
Mof_O 	O 	0.41121	0.44205	0.45582	-0.415
Mof_C 	C 	0.9065	0.1793	0.6777	-0.097
Mof_H 	H 	0.9583	0.1891	0.6849	0.065
Mof_C 	C 	0.8583	0.229	0.6906	0.081
Mof_C 	C 	0.7595	0.9728	0.80633	0.362
Mof_C 	C 	0.8038	0.0681	0.75538	-0.027
Mof_H 	H 	0.755	0.0301	0.7444	0.051
Mof_C 	C 	0.819	0.0526	0.78912	-0.089
Mof_N 	N 	0.8796	0.3048	0.7124	-0.292
Mof_H 	H 	0.8853	0.3035	0.7344	0.145
Mof_H 	H 	0.8861	0.3493	0.7027	0.138
Mof_O 	O 	0.77695	0.96236	0.83649	-0.411
Mof_O 	O 	0.6975	0.92212	0.78915	-0.415
Mof_C 	C 	0.57317	0.51263	0.01103	-0.097
Mof_H 	H 	0.62497	0.52243	0.01823	0.065
Mof_C 	C 	0.52497	0.56233	0.02393	0.081
Mof_C 	C 	0.42617	0.30613	0.13966	0.363
Mof_C 	C 	0.47047	0.40143	0.08871	-0.027
Mof_H 	H 	0.42167	0.36343	0.07773	0.051
Mof_C 	C 	0.48567	0.38593	0.12245	-0.09
Mof_N 	N 	0.54627	0.63813	0.04573	-0.292
Mof_H 	H 	0.55197	0.63683	0.06773	0.145
Mof_H 	H 	0.55277	0.68263	0.03603	0.138
Mof_O 	O 	0.44362	0.29569	0.16982	-0.411
Mof_O 	O 	0.36417	0.25545	0.12248	-0.415
Mof_C 	C 	0.23983	0.84597	0.34437	-0.097
Mof_H 	H 	0.29163	0.85577	0.35157	0.065
Mof_C 	C 	0.19163	0.89567	0.35727	0.081
Mof_C 	C 	0.09283	0.63947	0.473	0.363
Mof_C 	C 	0.13713	0.73477	0.42205	-0.027
Mof_H 	H 	0.08833	0.69677	0.41107	0.051
Mof_C 	C 	0.15233	0.71927	0.45579	-0.09
Mof_N 	N 	0.21293	0.97147	0.37907	-0.292
Mof_H 	H 	0.21863	0.97017	0.40107	0.145
Mof_H 	H 	0.21943	0.01597	0.36937	0.137
Mof_O 	O 	0.11028	0.62903	0.50316	-0.412
Mof_O 	O 	0.03083	0.58879	0.45582	-0.415
Mof_C 	C 	0.2728	0.0935	0.6777	-0.097
Mof_H 	H 	0.2308	0.0417	0.6849	0.065
Mof_C 	C 	0.3707	0.1417	0.6906	0.081
Mof_C 	C 	0.2133	0.2405	0.80633	0.363
Mof_C 	C 	0.2643	0.1962	0.75538	-0.027
Mof_H 	H 	0.2751	0.245	0.7444	0.051
Mof_C 	C 	0.2336	0.181	0.78912	-0.089
Mof_N 	N 	0.4252	0.1204	0.7124	-0.292
Mof_H 	H 	0.4182	0.1147	0.7344	0.145
Mof_H 	H 	0.4632	0.1139	0.7027	0.138
Mof_O 	O 	0.18541	0.22305	0.83649	-0.411
Mof_O 	O 	0.22462	0.3025	0.78915	-0.415
Mof_C 	C 	0.93947	0.42683	0.01103	-0.097
Mof_H 	H 	0.89747	0.37503	0.01823	0.065
Mof_C 	C 	0.03737	0.47503	0.02393	0.081
Mof_C 	C 	0.87997	0.57383	0.13966	0.363
Mof_C 	C 	0.93097	0.52953	0.08871	-0.027
Mof_H 	H 	0.94177	0.57833	0.07773	0.051
Mof_C 	C 	0.90027	0.51433	0.12245	-0.09
Mof_N 	N 	0.09187	0.45373	0.04573	-0.292
Mof_H 	H 	0.08487	0.44803	0.06773	0.145
Mof_H 	H 	0.12987	0.44723	0.03603	0.138
Mof_O 	O 	0.85208	0.55638	0.16982	-0.411
Mof_O 	O 	0.89129	0.63583	0.12248	-0.415
Mof_C 	C 	0.60613	0.76017	0.34437	-0.097
Mof_H 	H 	0.56413	0.70837	0.35157	0.065
Mof_C 	C 	0.70403	0.80837	0.35727	0.081
Mof_C 	C 	0.54663	0.90717	0.473	0.363
Mof_C 	C 	0.59763	0.86287	0.42205	-0.027
Mof_H 	H 	0.60843	0.91167	0.41107	0.051
Mof_C 	C 	0.56693	0.84767	0.45579	-0.09
Mof_N 	N 	0.75853	0.78707	0.37907	-0.292
Mof_H 	H 	0.75153	0.78137	0.40107	0.145
Mof_H 	H 	0.79653	0.78057	0.36937	0.138
Mof_O 	O 	0.51874	0.88972	0.50316	-0.412
Mof_O 	O 	0.55795	0.96917	0.45582	-0.415
Mof_C 	C 	0.2728	0.1793	0.6777	-0.097
Mof_H 	H 	0.2308	0.1891	0.6849	0.065
Mof_C 	C 	0.3707	0.229	0.6906	0.081
Mof_C 	C 	0.2133	0.9728	0.80633	0.362
Mof_C 	C 	0.2643	0.0681	0.75538	-0.027
Mof_H 	H 	0.2751	0.0301	0.7444	0.051
Mof_C 	C 	0.2336	0.0526	0.78912	-0.089
Mof_N 	N 	0.4252	0.3048	0.7124	-0.292
Mof_H 	H 	0.4182	0.3035	0.7344	0.145
Mof_H 	H 	0.4632	0.3493	0.7027	0.138
Mof_O 	O 	0.18541	0.96236	0.83649	-0.412
Mof_O 	O 	0.22462	0.92212	0.78915	-0.415
Mof_C 	C 	0.93947	0.51263	0.01103	-0.097
Mof_H 	H 	0.89747	0.52243	0.01823	0.065
Mof_C 	C 	0.03737	0.56233	0.02393	0.081
Mof_C 	C 	0.87997	0.30613	0.13966	0.363
Mof_C 	C 	0.93097	0.40143	0.08871	-0.027
Mof_H 	H 	0.94177	0.36343	0.07773	0.051
Mof_C 	C 	0.90027	0.38593	0.12245	-0.09
Mof_N 	N 	0.09187	0.63813	0.04573	-0.292
Mof_H 	H 	0.08487	0.63683	0.06773	0.145
Mof_H 	H 	0.12987	0.68263	0.03603	0.138
Mof_O 	O 	0.85208	0.29569	0.16982	-0.412
Mof_O 	O 	0.89129	0.25545	0.12248	-0.415
Mof_C 	C 	0.60613	0.84597	0.34437	-0.097
Mof_H 	H 	0.56413	0.85577	0.35157	0.065
Mof_C 	C 	0.70403	0.89567	0.35727	0.081
Mof_C 	C 	0.54663	0.63947	0.473	0.363
Mof_C 	C 	0.59763	0.73477	0.42205	-0.027
Mof_H 	H 	0.60843	0.69677	0.41107	0.051
Mof_C 	C 	0.56693	0.71927	0.45579	-0.09
Mof_N 	N 	0.75853	0.97147	0.37907	-0.292
Mof_H 	H 	0.75153	0.97017	0.40107	0.145
Mof_H 	H 	0.79653	0.01597	0.36937	0.137
Mof_O 	O 	0.51874	0.62903	0.50316	-0.411
Mof_O 	O 	0.55795	0.58879	0.45582	-0.415
Mof_C 	C 	0.8207	0.0935	0.6777	-0.097
Mof_H 	H 	0.8109	0.0417	0.6849	0.065
Mof_C 	C 	0.771	0.1417	0.6906	0.081
Mof_C 	C 	0.0272	0.2405	0.80633	0.362
Mof_C 	C 	0.9319	0.1962	0.75538	-0.027
Mof_H 	H 	0.9699	0.245	0.7444	0.051
Mof_C 	C 	0.9474	0.181	0.78912	-0.089
Mof_N 	N 	0.6952	0.1204	0.7124	-0.292
Mof_H 	H 	0.6965	0.1147	0.7344	0.145
Mof_H 	H 	0.6507	0.1139	0.7027	0.138
Mof_O 	O 	0.03764	0.22305	0.83649	-0.411
Mof_O 	O 	0.07788	0.3025	0.78915	-0.415
Mof_C 	C 	0.48737	0.42683	0.01103	-0.097
Mof_H 	H 	0.47757	0.37503	0.01823	0.065
Mof_C 	C 	0.43767	0.47503	0.02393	0.081
Mof_C 	C 	0.69387	0.57383	0.13966	0.363
Mof_C 	C 	0.59857	0.52953	0.08871	-0.027
Mof_H 	H 	0.63657	0.57833	0.07773	0.051
Mof_C 	C 	0.61407	0.51433	0.12245	-0.09
Mof_N 	N 	0.36187	0.45373	0.04573	-0.292
Mof_H 	H 	0.36317	0.44803	0.06773	0.145
Mof_H 	H 	0.31737	0.44723	0.03603	0.138
Mof_O 	O 	0.70431	0.55638	0.16982	-0.411
Mof_O 	O 	0.74455	0.63583	0.12248	-0.415
Mof_C 	C 	0.15403	0.76017	0.34437	-0.097
Mof_H 	H 	0.14423	0.70837	0.35157	0.065
Mof_C 	C 	0.10433	0.80837	0.35727	0.081
Mof_C 	C 	0.36053	0.90717	0.473	0.363
Mof_C 	C 	0.26523	0.86287	0.42205	-0.027
Mof_H 	H 	0.30323	0.91167	0.41107	0.051
Mof_C 	C 	0.28073	0.84767	0.45579	-0.09
Mof_N 	N 	0.02853	0.78707	0.37907	-0.292
Mof_H 	H 	0.02983	0.78137	0.40107	0.145
Mof_H 	H 	0.98403	0.78057	0.36937	0.137
Mof_O 	O 	0.37097	0.88972	0.50316	-0.412
Mof_O 	O 	0.41121	0.96917	0.45582	-0.415
Mof_C 	C 	0.9065	0.7272	0.6777	-0.097
Mof_H 	H 	0.9583	0.7692	0.6849	0.065
Mof_C 	C 	0.8583	0.6293	0.6906	0.081
Mof_C 	C 	0.7595	0.7867	0.80633	0.363
Mof_C 	C 	0.8038	0.7357	0.75538	-0.027
Mof_H 	H 	0.755	0.7249	0.7444	0.051
Mof_C 	C 	0.819	0.7664	0.78912	-0.089
Mof_N 	N 	0.8796	0.5748	0.7124	-0.292
Mof_H 	H 	0.8853	0.5818	0.7344	0.145
Mof_H 	H 	0.8861	0.5368	0.7027	0.138
Mof_O 	O 	0.77695	0.81459	0.83649	-0.411
Mof_O 	O 	0.6975	0.77538	0.78915	-0.415
Mof_C 	C 	0.57317	0.06053	0.01103	-0.097
Mof_H 	H 	0.62497	0.10253	0.01823	0.065
Mof_C 	C 	0.52497	0.96263	0.02393	0.081
Mof_C 	C 	0.42617	0.12003	0.13966	0.363
Mof_C 	C 	0.47047	0.06903	0.08871	-0.027
Mof_H 	H 	0.42167	0.05823	0.07773	0.051
Mof_C 	C 	0.48567	0.09973	0.12245	-0.09
Mof_N 	N 	0.54627	0.90813	0.04573	-0.292
Mof_H 	H 	0.55197	0.91513	0.06773	0.145
Mof_H 	H 	0.55277	0.87013	0.03603	0.138
Mof_O 	O 	0.44362	0.14792	0.16982	-0.411
Mof_O 	O 	0.36417	0.10871	0.12248	-0.415
Mof_C 	C 	0.23983	0.39387	0.34437	-0.097
Mof_H 	H 	0.29163	0.43587	0.35157	0.065
Mof_C 	C 	0.19163	0.29597	0.35727	0.081
Mof_C 	C 	0.09283	0.45337	0.473	0.363
Mof_C 	C 	0.13713	0.40237	0.42205	-0.027
Mof_H 	H 	0.08833	0.39157	0.41107	0.051
Mof_C 	C 	0.15233	0.43307	0.45579	-0.09
Mof_N 	N 	0.21293	0.24147	0.37907	-0.292
Mof_H 	H 	0.21863	0.24847	0.40107	0.145
Mof_H 	H 	0.21943	0.20347	0.36937	0.138
Mof_O 	O 	0.11028	0.48126	0.50316	-0.412
Mof_O 	O 	0.03083	0.44205	0.45582	-0.415
Mof_C 	C 	0.1793	0.2728	0.3223	-0.097
Mof_H 	H 	0.1891	0.2308	0.3151	0.065
Mof_C 	C 	0.229	0.3707	0.3094	0.081
Mof_C 	C 	0.9728	0.2133	0.19367	0.362
Mof_C 	C 	0.0681	0.2643	0.24462	-0.027
Mof_H 	H 	0.0301	0.2751	0.2556	0.051
Mof_C 	C 	0.0526	0.2336	0.21088	-0.089
Mof_N 	N 	0.3048	0.4252	0.2876	-0.292
Mof_H 	H 	0.3035	0.4182	0.2656	0.145
Mof_H 	H 	0.3493	0.4632	0.2973	0.138
Mof_O 	O 	0.96236	0.18541	0.16351	-0.412
Mof_O 	O 	0.92212	0.22462	0.21085	-0.415
Mof_C 	C 	0.84597	0.60613	0.65563	-0.097
Mof_H 	H 	0.85577	0.56413	0.64843	0.065
Mof_C 	C 	0.89567	0.70403	0.64273	0.081
Mof_C 	C 	0.63947	0.54663	0.527	0.363
Mof_C 	C 	0.73477	0.59763	0.57795	-0.027
Mof_H 	H 	0.69677	0.60843	0.58893	0.051
Mof_C 	C 	0.71927	0.56693	0.54421	-0.09
Mof_N 	N 	0.97147	0.75853	0.62093	-0.292
Mof_H 	H 	0.97017	0.75153	0.59893	0.145
Mof_H 	H 	0.01597	0.79653	0.63063	0.137
Mof_O 	O 	0.62903	0.51874	0.49684	-0.411
Mof_O 	O 	0.58879	0.55795	0.54418	-0.415
Mof_C 	C 	0.51263	0.93947	0.98897	-0.097
Mof_H 	H 	0.52243	0.89747	0.98177	0.065
Mof_C 	C 	0.56233	0.03737	0.97607	0.081
Mof_C 	C 	0.30613	0.87997	0.86034	0.363
Mof_C 	C 	0.40143	0.93097	0.91129	-0.027
Mof_H 	H 	0.36343	0.94177	0.92227	0.051
Mof_C 	C 	0.38593	0.90027	0.87755	-0.09
Mof_N 	N 	0.63813	0.09187	0.95427	-0.292
Mof_H 	H 	0.63683	0.08487	0.93227	0.145
Mof_H 	H 	0.68263	0.12987	0.96397	0.138
Mof_O 	O 	0.29569	0.85208	0.83018	-0.412
Mof_O 	O 	0.25545	0.89129	0.87752	-0.415
Mof_C 	C 	0.0935	0.8207	0.3223	-0.097
Mof_H 	H 	0.0417	0.8109	0.3151	0.065
Mof_C 	C 	0.1417	0.771	0.3094	0.081
Mof_C 	C 	0.2405	0.0272	0.19367	0.362
Mof_C 	C 	0.1962	0.9319	0.24462	-0.027
Mof_H 	H 	0.245	0.9699	0.2556	0.051
Mof_C 	C 	0.181	0.9474	0.21088	-0.089
Mof_N 	N 	0.1204	0.6952	0.2876	-0.292
Mof_H 	H 	0.1147	0.6965	0.2656	0.145
Mof_H 	H 	0.1139	0.6507	0.2973	0.138
Mof_O 	O 	0.22305	0.03764	0.16351	-0.411
Mof_O 	O 	0.3025	0.07788	0.21085	-0.415
Mof_C 	C 	0.76017	0.15403	0.65563	-0.097
Mof_H 	H 	0.70837	0.14423	0.64843	0.065
Mof_C 	C 	0.80837	0.10433	0.64273	0.081
Mof_C 	C 	0.90717	0.36053	0.527	0.363
Mof_C 	C 	0.86287	0.26523	0.57795	-0.027
Mof_H 	H 	0.91167	0.30323	0.58893	0.051
Mof_C 	C 	0.84767	0.28073	0.54421	-0.09
Mof_N 	N 	0.78707	0.02853	0.62093	-0.292
Mof_H 	H 	0.78137	0.02983	0.59893	0.145
Mof_H 	H 	0.78057	0.98403	0.63063	0.137
Mof_O 	O 	0.88972	0.37097	0.49684	-0.412
Mof_O 	O 	0.96917	0.41121	0.54418	-0.415
Mof_C 	C 	0.42683	0.48737	0.98897	-0.097
Mof_H 	H 	0.37503	0.47757	0.98177	0.065
Mof_C 	C 	0.47503	0.43767	0.97607	0.081
Mof_C 	C 	0.57383	0.69387	0.86034	0.363
Mof_C 	C 	0.52953	0.59857	0.91129	-0.027
Mof_H 	H 	0.57833	0.63657	0.92227	0.051
Mof_C 	C 	0.51433	0.61407	0.87755	-0.09
Mof_N 	N 	0.45373	0.36187	0.95427	-0.292
Mof_H 	H 	0.44803	0.36317	0.93227	0.145
Mof_H 	H 	0.44723	0.31737	0.96397	0.138
Mof_O 	O 	0.55638	0.70431	0.83018	-0.411
Mof_O 	O 	0.63583	0.74455	0.87752	-0.415
Mof_C 	C 	0.7272	0.9065	0.3223	-0.097
Mof_H 	H 	0.7692	0.9583	0.3151	0.065
Mof_C 	C 	0.6293	0.8583	0.3094	0.081
Mof_C 	C 	0.7867	0.7595	0.19367	0.363
Mof_C 	C 	0.7357	0.8038	0.24462	-0.027
Mof_H 	H 	0.7249	0.755	0.2556	0.051
Mof_C 	C 	0.7664	0.819	0.21088	-0.089
Mof_N 	N 	0.5748	0.8796	0.2876	-0.292
Mof_H 	H 	0.5818	0.8853	0.2656	0.145
Mof_H 	H 	0.5368	0.8861	0.2973	0.138
Mof_O 	O 	0.81459	0.77695	0.16351	-0.411
Mof_O 	O 	0.77538	0.6975	0.21085	-0.415
Mof_C 	C 	0.39387	0.23983	0.65563	-0.097
Mof_H 	H 	0.43587	0.29163	0.64843	0.065
Mof_C 	C 	0.29597	0.19163	0.64273	0.081
Mof_C 	C 	0.45337	0.09283	0.527	0.363
Mof_C 	C 	0.40237	0.13713	0.57795	-0.027
Mof_H 	H 	0.39157	0.08833	0.58893	0.051
Mof_C 	C 	0.43307	0.15233	0.54421	-0.09
Mof_N 	N 	0.24147	0.21293	0.62093	-0.292
Mof_H 	H 	0.24847	0.21863	0.59893	0.145
Mof_H 	H 	0.20347	0.21943	0.63063	0.138
Mof_O 	O 	0.48126	0.11028	0.49684	-0.412
Mof_O 	O 	0.44205	0.03083	0.54418	-0.415
Mof_C 	C 	0.06053	0.57317	0.98897	-0.097
Mof_H 	H 	0.10253	0.62497	0.98177	0.065
Mof_C 	C 	0.96263	0.52497	0.97607	0.081
Mof_C 	C 	0.12003	0.42617	0.86034	0.363
Mof_C 	C 	0.06903	0.47047	0.91129	-0.027
Mof_H 	H 	0.05823	0.42167	0.92227	0.051
Mof_C 	C 	0.09973	0.48567	0.87755	-0.09
Mof_N 	N 	0.90813	0.54627	0.95427	-0.292
Mof_H 	H 	0.91513	0.55197	0.93227	0.145
Mof_H 	H 	0.87013	0.55277	0.96397	0.138
Mof_O 	O 	0.14792	0.44362	0.83018	-0.411
Mof_O 	O 	0.10871	0.36417	0.87752	-0.415
Mof_C 	C 	0.7209	0.86045	0.26201	0.002
Mof_C 	C 	0.78	0.89	0.1944	0.03
Mof_H 	H 	0.7987	0.89935	0.1716	0.049
Mof_C 	C 	0.6917	0.84585	0.29874	-0.005
Mof_C 	C 	0.38757	0.19378	0.59534	0.002
Mof_C 	C 	0.44667	0.22333	0.52773	0.03
Mof_H 	H 	0.46537	0.23268	0.50493	0.049
Mof_C 	C 	0.35837	0.17918	0.63207	-0.005
Mof_C 	C 	0.05423	0.52712	0.92868	0.002
Mof_C 	C 	0.11333	0.55667	0.86107	0.03
Mof_H 	H 	0.13203	0.56602	0.83827	0.049
Mof_C 	C 	0.02503	0.51252	0.96541	-0.005
Mof_C 	C 	0.13955	0.86045	0.26201	0.002
Mof_C 	C 	0.11	0.89	0.1944	0.029
Mof_H 	H 	0.10065	0.89935	0.1716	0.049
Mof_C 	C 	0.15415	0.84585	0.29874	-0.005
Mof_C 	C 	0.80622	0.19378	0.59534	0.002
Mof_C 	C 	0.77667	0.22333	0.52773	0.03
Mof_H 	H 	0.76732	0.23268	0.50493	0.049
Mof_C 	C 	0.82082	0.17918	0.63207	-0.005
Mof_C 	C 	0.47288	0.52712	0.92868	0.002
Mof_C 	C 	0.44333	0.55667	0.86107	0.03
Mof_H 	H 	0.43398	0.56602	0.83827	0.049
Mof_C 	C 	0.48748	0.51252	0.96541	-0.005
Mof_C 	C 	0.13955	0.2791	0.26201	0.002
Mof_C 	C 	0.11	0.22	0.1944	0.03
Mof_H 	H 	0.10065	0.2013	0.1716	0.049
Mof_C 	C 	0.15415	0.3083	0.29874	-0.005
Mof_C 	C 	0.80622	0.61243	0.59534	0.002
Mof_C 	C 	0.77667	0.55333	0.52773	0.03
Mof_H 	H 	0.76732	0.53463	0.50493	0.049
Mof_C 	C 	0.82082	0.64163	0.63207	-0.005
Mof_C 	C 	0.47288	0.94577	0.92868	0.002
Mof_C 	C 	0.44333	0.88667	0.86107	0.03
Mof_H 	H 	0.43398	0.86797	0.83827	0.049
Mof_C 	C 	0.48748	0.97497	0.96541	-0.005
Mof_C 	C 	0.86045	0.7209	0.73799	0.002
Mof_C 	C 	0.89	0.78	0.8056	0.03
Mof_H 	H 	0.89935	0.7987	0.8284	0.049
Mof_C 	C 	0.84585	0.6917	0.70126	-0.005
Mof_C 	C 	0.52712	0.05423	0.07132	0.002
Mof_C 	C 	0.55667	0.11333	0.13893	0.03
Mof_H 	H 	0.56602	0.13203	0.16173	0.049
Mof_C 	C 	0.51252	0.02503	0.03459	-0.005
Mof_C 	C 	0.19378	0.38757	0.40466	0.002
Mof_C 	C 	0.22333	0.44667	0.47227	0.03
Mof_H 	H 	0.23268	0.46537	0.49507	0.049
Mof_C 	C 	0.17918	0.35837	0.36793	-0.005
Mof_C 	C 	0.86045	0.13955	0.73799	0.002
Mof_C 	C 	0.89	0.11	0.8056	0.029
Mof_H 	H 	0.89935	0.10065	0.8284	0.049
Mof_C 	C 	0.84585	0.15415	0.70126	-0.005
Mof_C 	C 	0.52712	0.47288	0.07132	0.002
Mof_C 	C 	0.55667	0.44333	0.13893	0.03
Mof_H 	H 	0.56602	0.43398	0.16173	0.049
Mof_C 	C 	0.51252	0.48748	0.03459	-0.005
Mof_C 	C 	0.19378	0.80622	0.40466	0.002
Mof_C 	C 	0.22333	0.77667	0.47227	0.03
Mof_H 	H 	0.23268	0.76732	0.49507	0.049
Mof_C 	C 	0.17918	0.82082	0.36793	-0.005
Mof_C 	C 	0.2791	0.13955	0.73799	0.002
Mof_C 	C 	0.22	0.11	0.8056	0.03
Mof_H 	H 	0.2013	0.10065	0.8284	0.049
Mof_C 	C 	0.3083	0.15415	0.70126	-0.005
Mof_C 	C 	0.94577	0.47288	0.07132	0.002
Mof_C 	C 	0.88667	0.44333	0.13893	0.03
Mof_H 	H 	0.86797	0.43398	0.16173	0.049
Mof_C 	C 	0.97497	0.48748	0.03459	-0.005
Mof_C 	C 	0.61243	0.80622	0.40466	0.002
Mof_C 	C 	0.55333	0.77667	0.47227	0.03
Mof_H 	H 	0.53463	0.76732	0.49507	0.049
Mof_C 	C 	0.64163	0.82082	0.36793	-0.005
Mof_Cu	Cu	0.85667	0.14333	0.13883	0.903
Mof_Cu	Cu	0.52333	0.47667	0.47217	0.903
Mof_Cu	Cu	0.19	0.81	0.8055	0.903
Mof_Cu	Cu	0.85667	0.71333	0.13883	0.903
Mof_Cu	Cu	0.52333	0.04667	0.47217	0.903
Mof_Cu	Cu	0.19	0.38	0.8055	0.903
Mof_Cu	Cu	0.28667	0.14333	0.13883	0.903
Mof_Cu	Cu	0.95333	0.47667	0.47217	0.903
Mof_Cu	Cu	0.62	0.81	0.8055	0.903
Mof_Cu	Cu	0.14333	0.85667	0.86117	0.903
Mof_Cu	Cu	0.81	0.19	0.1945	0.903
Mof_Cu	Cu	0.47667	0.52333	0.52783	0.903
Mof_Cu	Cu	0.71333	0.85667	0.86117	0.903
Mof_Cu	Cu	0.38	0.19	0.1945	0.903
Mof_Cu	Cu	0.04667	0.52333	0.52783	0.903
Mof_Cu	Cu	0.14333	0.28667	0.86117	0.903
Mof_Cu	Cu	0.81	0.62	0.1945	0.903
Mof_Cu	Cu	0.47667	0.95333	0.52783	0.903
_end
