data_functionalizedCrystal
_audit_creation_method	'EQeq! by Chris Wilmer'
_symmetry_space_group_name_H-M	'P1'
_symmetry_Int_Tables_number	1
_symmetry_cell_setting	triclinic
loop_
_symmetry_equiv_pos_as_xyz
  x,y,z
_cell_length_a	9.992
_cell_length_b	11.644
_cell_length_c	12.231
_cell_angle_alpha	90
_cell_angle_beta	90
_cell_angle_gamma	90
loop_
_atom_site_label
_atom_site_type_symbol
_atom_site_fract_x
_atom_site_fract_y
_atom_site_fract_z
_atom_site_charge
Mof_O 	O 	0.0308	0.2751	0.1521	-0.86
Mof_O 	O 	0.88	0.122	0.2223	-0.886
Mof_O 	O 	0.2385	0.0195	0.1003	-1.016
Mof_O 	O 	0.612	0.1123	0.2416	-0.512
Mof_O 	O 	0.9692	0.7249	0.1521	-0.827
Mof_O 	O 	0.12	0.878	0.2223	-0.645
Mof_O 	O 	0.7615	0.9805	0.1003	-0.488
Mof_O 	O 	0.388	0.8877	0.2416	-0.499
Mof_O 	O 	0.9692	0.2751	0.3479	-0.903
Mof_O 	O 	0.12	0.122	0.2777	-0.99
Mof_O 	O 	0.7615	0.0195	0.3997	-1.003
Mof_O 	O 	0.388	0.1123	0.2584	-0.507
Mof_O 	O 	0.0308	0.7249	0.3479	-0.988
Mof_O 	O 	0.88	0.878	0.2777	-0.526
Mof_O 	O 	0.2385	0.9805	0.3997	-0.518
Mof_O 	O 	0.612	0.8877	0.2584	-0.487
Mof_O 	O 	0.9692	0.7249	0.8479	-0.666
Mof_O 	O 	0.12	0.878	0.7777	-0.585
Mof_O 	O 	0.7615	0.9805	0.8997	-0.272
Mof_O 	O 	0.388	0.8877	0.7584	-0.442
Mof_O 	O 	0.0308	0.2751	0.8479	-0.706
Mof_O 	O 	0.88	0.122	0.7777	-0.824
Mof_O 	O 	0.2385	0.0195	0.8997	-0.807
Mof_O 	O 	0.612	0.1123	0.7584	-0.455
Mof_O 	O 	0.0308	0.7249	0.6521	-0.966
Mof_O 	O 	0.88	0.878	0.7223	-0.495
Mof_O 	O 	0.2385	0.9805	0.6003	-0.515
Mof_O 	O 	0.612	0.8877	0.7416	-0.442
Mof_O 	O 	0.9692	0.2751	0.6521	-0.879
Mof_O 	O 	0.12	0.122	0.7223	-0.964
Mof_O 	O 	0.7615	0.0195	0.6003	-1
Mof_O 	O 	0.388	0.1123	0.7416	-0.463
Mof_Al	Al	0.0453	0.2751	-0	2.765
Mof_P 	P 	0.2742	0.0881	-0	0.659
Mof_O 	O 	0.2125	0.2068	-0	-0.87
Mof_O 	O 	0.1466	0.4216	-0	-0.629
Mof_O 	O 	0.8876	0.3863	-0	-0.659
Mof_O 	O 	0.4313	0.1093	-0	-0.417
Mof_C 	C 	0.0749	0.5102	-0	0.173
Mof_Al	Al	0.9547	0.7249	-0	3.633
Mof_P 	P 	0.7258	0.9119	-0	0.653
Mof_O 	O 	0.7875	0.7932	-0	-0.98
Mof_O 	O 	0.8534	0.5784	-0	-0.787
Mof_O 	O 	0.1124	0.6137	-0	-0.795
Mof_O 	O 	0.5687	0.8907	-0	-0.151
Mof_C 	C 	0.9251	0.4898	-0	0.454
Mof_Al	Al	0.9547	0.2751	0.5	3.865
Mof_P 	P 	0.7258	0.0881	0.5	0.892
Mof_O 	O 	0.7875	0.2068	0.5	-1.005
Mof_O 	O 	0.8534	0.4216	0.5	-0.743
Mof_O 	O 	0.1124	0.3863	0.5	-0.795
Mof_O 	O 	0.5687	0.1093	0.5	-0.358
Mof_C 	C 	0.9251	0.5102	0.5	0.482
Mof_Al	Al	0.0453	0.7249	0.5	3.714
Mof_P 	P 	0.2742	0.9119	0.5	0.842
Mof_O 	O 	0.2125	0.7932	0.5	-0.955
Mof_O 	O 	0.1466	0.5784	0.5	-0.706
Mof_O 	O 	0.8876	0.6137	0.5	-0.667
Mof_O 	O 	0.4313	0.8907	0.5	-0.072
Mof_C 	C 	0.0749	0.4898	0.5	0.23
Mof_Al	Al	0.7691	0	0.25	2.482
Mof_Al	Al	0.2309	0	0.25	2.466
Mof_Al	Al	0.2309	0	0.75	2.446
Mof_Al	Al	0.7691	0	0.75	2.456
Mof_P 	P 	3.36479e-33	0.1977	0.25	0.805
Mof_P 	P 	-1.2157e-32	0.8023	0.25	0.805
Mof_P 	P 	-5.42742e-33	0.8023	0.75	0.797
Mof_P 	P 	1.23118e-32	0.1977	0.75	0.799
Mof_C 	C 	0.5	0.0659	0.25	-0.178
Mof_C 	C 	0.5	0.9341	0.25	0.814
Mof_C 	C 	0.5	0.9341	0.75	0.833
Mof_C 	C 	0.5	0.0659	0.75	-0.162
_end
