data_functionalizedCrystal
_audit_creation_method	'EQeq! by Chris Wilmer'
_symmetry_space_group_name_H-M	'P1'
_symmetry_Int_Tables_number	1
_symmetry_cell_setting	triclinic
loop_
_symmetry_equiv_pos_as_xyz
  x,y,z
_cell_length_a	17.857
_cell_length_b	19.72
_cell_length_c	7.923
_cell_angle_alpha	90
_cell_angle_beta	106.571
_cell_angle_gamma	90
loop_
_atom_site_label
_atom_site_type_symbol
_atom_site_fract_x
_atom_site_fract_y
_atom_site_fract_z
_atom_site_charge
Mof_C 	C 	0.1148	0.2584	0.4964	0.006
Mof_H 	H 	0.0662	0.2526	0.4145	0.029
Mof_C 	C 	0.1552	0.2104	0.6063	0.005
Mof_H 	H 	0.1397	0.1657	0.6127	0.038
Mof_C 	C 	0.2231	0.3044	0.6524	0.105
Mof_H 	H 	0.2629	0.3357	0.6964	0.012
Mof_C 	C 	0.2835	0.2077	0.8437	0.188
Mof_C 	C 	0.2709	0.1422	0.8955	-0.231
Mof_H 	H 	0.2251	0.1187	0.8417	0.129
Mof_C 	C 	0.33	0.1131	0.0316	0.135
Mof_H 	H 	0.3225	0.0697	0.0696	0.005
Mof_C 	C 	0.3979	0.1457	0.1104	-0.198
Mof_C 	C 	0.4094	0.2103	0.053	0.144
Mof_H 	H 	0.4562	0.2328	0.104	-0.005
Mof_C 	C 	0.3527	0.2414	0.9221	-0.227
Mof_H 	H 	0.3608	0.285	0.8859	0.121
Mof_C 	C 	0.4601	0.1128	0.2525	0.414
Mof_Cu	Cu	0.12805	0.40777	0.42454	0.905
Mof_N 	N 	0.1579	0.31742	0.5264	-0.207
Mof_N 	N 	0.2239	0.2396	0.7082	-0.15
Mof_O 	O 	0.53004	0.13027	0.2765	-0.423
Mof_O 	O 	0.43725	0.06743	0.3416	-0.475
Mof_O 	O 	0.23218	0.43915	0.536	-0.446
Mof_C 	C 	0.6148	0.7584	0.4964	0.007
Mof_H 	H 	0.5662	0.7526	0.4145	0.037
Mof_C 	C 	0.6552	0.7104	0.6063	0.008
Mof_H 	H 	0.6397	0.6657	0.6127	0.041
Mof_C 	C 	0.7231	0.8044	0.6524	0.105
Mof_H 	H 	0.7629	0.8357	0.6964	0.014
Mof_C 	C 	0.7835	0.7077	0.8437	0.19
Mof_C 	C 	0.7709	0.6422	0.8955	-0.233
Mof_H 	H 	0.7251	0.6187	0.8417	0.132
Mof_C 	C 	0.83	0.6131	0.0316	0.138
Mof_H 	H 	0.8225	0.5697	0.0696	0.006
Mof_C 	C 	0.8979	0.6457	0.1104	-0.205
Mof_C 	C 	0.9094	0.7103	0.053	0.149
Mof_H 	H 	0.9562	0.7328	0.104	0.004
Mof_C 	C 	0.8527	0.7414	0.9221	-0.228
Mof_H 	H 	0.8608	0.785	0.8859	0.126
Mof_C 	C 	0.9601	0.6128	0.2525	0.45
Mof_Cu	Cu	0.62805	0.90777	0.42454	0.908
Mof_N 	N 	0.6579	0.81742	0.5264	-0.207
Mof_N 	N 	0.7239	0.7396	0.7082	-0.151
Mof_O 	O 	0.03004	0.63027	0.2765	-0.451
Mof_O 	O 	0.93725	0.56743	0.3416	-0.47
Mof_O 	O 	0.73218	0.93915	0.536	-0.431
Mof_C 	C 	0.8852	0.2584	0.5036	0.006
Mof_H 	H 	0.9338	0.2526	0.5855	0.045
Mof_C 	C 	0.8448	0.2104	0.3937	0.01
Mof_H 	H 	0.8603	0.1657	0.3873	0.043
Mof_C 	C 	0.7769	0.3044	0.3476	0.106
Mof_H 	H 	0.7371	0.3357	0.3036	0.012
Mof_C 	C 	0.7165	0.2077	0.1563	0.193
Mof_C 	C 	0.7291	0.1422	0.1045	-0.239
Mof_H 	H 	0.7749	0.1187	0.1583	0.135
Mof_C 	C 	0.67	0.1131	0.9684	0.143
Mof_H 	H 	0.6775	0.0697	0.9304	0.003
Mof_C 	C 	0.6021	0.1457	0.8896	-0.203
Mof_C 	C 	0.5906	0.2103	0.947	0.152
Mof_H 	H 	0.5438	0.2328	0.896	-0.007
Mof_C 	C 	0.6473	0.2414	0.0779	-0.235
Mof_H 	H 	0.6392	0.285	0.1141	0.123
Mof_C 	C 	0.5399	0.1128	0.7475	0.416
Mof_Cu	Cu	0.87195	0.40777	0.57546	0.906
Mof_N 	N 	0.8421	0.31742	0.4736	-0.206
Mof_N 	N 	0.7761	0.2396	0.2918	-0.152
Mof_O 	O 	0.46996	0.13027	0.7235	-0.423
Mof_O 	O 	0.56275	0.06743	0.6584	-0.475
Mof_O 	O 	0.76782	0.43915	0.464	-0.446
Mof_C 	C 	0.3852	0.7584	0.5036	0.007
Mof_H 	H 	0.4338	0.7526	0.5855	0.037
Mof_C 	C 	0.3448	0.7104	0.3937	0.007
Mof_H 	H 	0.3603	0.6657	0.3873	0.041
Mof_C 	C 	0.2769	0.8044	0.3476	0.105
Mof_H 	H 	0.2371	0.8357	0.3036	0.012
Mof_C 	C 	0.2165	0.7077	0.1563	0.185
Mof_C 	C 	0.2291	0.6422	0.1045	-0.226
Mof_H 	H 	0.2749	0.6187	0.1583	0.13
Mof_C 	C 	0.17	0.6131	0.9684	0.126
Mof_H 	H 	0.1775	0.5697	0.9304	0.011
Mof_C 	C 	0.1021	0.6457	0.8896	-0.186
Mof_C 	C 	0.0906	0.7103	0.947	0.134
Mof_H 	H 	0.0438	0.7328	0.896	-0.011
Mof_C 	C 	0.1473	0.7414	0.0779	-0.223
Mof_H 	H 	0.1392	0.785	0.1141	0.118
Mof_C 	C 	0.0399	0.6128	0.7475	0.375
Mof_Cu	Cu	0.37195	0.90777	0.57546	0.908
Mof_N 	N 	0.3421	0.81742	0.4736	-0.207
Mof_N 	N 	0.2761	0.7396	0.2918	-0.15
Mof_O 	O 	0.96996	0.63027	0.7235	-0.391
Mof_O 	O 	0.06275	0.56743	0.6584	-0.468
Mof_O 	O 	0.26782	0.93915	0.464	-0.433
Mof_C 	C 	0.8852	0.7416	0.5036	0.007
Mof_H 	H 	0.9338	0.7474	0.5855	0.045
Mof_C 	C 	0.8448	0.7896	0.3937	0.01
Mof_H 	H 	0.8603	0.8343	0.3873	0.046
Mof_C 	C 	0.7769	0.6956	0.3476	0.106
Mof_H 	H 	0.7371	0.6643	0.3036	0.012
Mof_C 	C 	0.7165	0.7923	0.1563	0.192
Mof_C 	C 	0.7291	0.8578	0.1045	-0.236
Mof_H 	H 	0.7749	0.8813	0.1583	0.137
Mof_C 	C 	0.67	0.8869	0.9684	0.14
Mof_H 	H 	0.6775	0.9303	0.9304	0.011
Mof_C 	C 	0.6021	0.8543	0.8896	-0.199
Mof_C 	C 	0.5906	0.7897	0.947	0.149
Mof_H 	H 	0.5438	0.7672	0.896	-0.007
Mof_C 	C 	0.6473	0.7586	0.0779	-0.233
Mof_H 	H 	0.6392	0.715	0.1141	0.123
Mof_C 	C 	0.5399	0.8872	0.7475	0.415
Mof_Cu	Cu	0.87195	0.59223	0.57546	0.906
Mof_N 	N 	0.8421	0.68258	0.4736	-0.206
Mof_N 	N 	0.7761	0.7604	0.2918	-0.151
Mof_O 	O 	0.46996	0.86973	0.7235	-0.42
Mof_O 	O 	0.56275	0.93257	0.6584	-0.465
Mof_O 	O 	0.76782	0.56085	0.464	-0.446
Mof_C 	C 	0.3852	0.2416	0.5036	0.007
Mof_H 	H 	0.4338	0.2474	0.5855	0.037
Mof_C 	C 	0.3448	0.2896	0.3937	0.007
Mof_H 	H 	0.3603	0.3343	0.3873	0.041
Mof_C 	C 	0.2769	0.1956	0.3476	0.105
Mof_H 	H 	0.2371	0.1643	0.3036	0.011
Mof_C 	C 	0.2165	0.2923	0.1563	0.184
Mof_C 	C 	0.2291	0.3578	0.1045	-0.226
Mof_H 	H 	0.2749	0.3813	0.1583	0.13
Mof_C 	C 	0.17	0.3869	0.9684	0.126
Mof_H 	H 	0.1775	0.4303	0.9304	0.011
Mof_C 	C 	0.1021	0.3543	0.8896	-0.186
Mof_C 	C 	0.0906	0.2897	0.947	0.134
Mof_H 	H 	0.0438	0.2672	0.896	-0.012
Mof_C 	C 	0.1473	0.2586	0.0779	-0.223
Mof_H 	H 	0.1392	0.215	0.1141	0.116
Mof_C 	C 	0.0399	0.3872	0.7475	0.375
Mof_Cu	Cu	0.37195	0.09223	0.57546	0.905
Mof_N 	N 	0.3421	0.18258	0.4736	-0.207
Mof_N 	N 	0.2761	0.2604	0.2918	-0.15
Mof_O 	O 	0.96996	0.36973	0.7235	-0.391
Mof_O 	O 	0.06275	0.43257	0.6584	-0.468
Mof_O 	O 	0.26782	0.06085	0.464	-0.445
Mof_C 	C 	0.1148	0.7416	0.4964	0.008
Mof_H 	H 	0.0662	0.7474	0.4145	0.03
Mof_C 	C 	0.1552	0.7896	0.6063	0.005
Mof_H 	H 	0.1397	0.8343	0.6127	0.041
Mof_C 	C 	0.2231	0.6956	0.6524	0.105
Mof_H 	H 	0.2629	0.6643	0.6964	0.012
Mof_C 	C 	0.2835	0.7923	0.8437	0.187
Mof_C 	C 	0.2709	0.8578	0.8955	-0.228
Mof_H 	H 	0.2251	0.8813	0.8417	0.132
Mof_C 	C 	0.33	0.8869	0.0316	0.132
Mof_H 	H 	0.3225	0.9303	0.0696	0.012
Mof_C 	C 	0.3979	0.8543	0.1104	-0.194
Mof_C 	C 	0.4094	0.7897	0.053	0.141
Mof_H 	H 	0.4562	0.7672	0.104	-0.004
Mof_C 	C 	0.3527	0.7586	0.9221	-0.225
Mof_H 	H 	0.3608	0.715	0.8859	0.12
Mof_C 	C 	0.4601	0.8872	0.2525	0.413
Mof_Cu	Cu	0.12805	0.59223	0.42454	0.905
Mof_N 	N 	0.1579	0.68258	0.5264	-0.207
Mof_N 	N 	0.2239	0.7604	0.7082	-0.15
Mof_O 	O 	0.53004	0.86973	0.2765	-0.42
Mof_O 	O 	0.43725	0.93257	0.3416	-0.465
Mof_O 	O 	0.23218	0.56085	0.536	-0.446
Mof_C 	C 	0.6148	0.2416	0.4964	0.007
Mof_H 	H 	0.5662	0.2474	0.4145	0.037
Mof_C 	C 	0.6552	0.2896	0.6063	0.008
Mof_H 	H 	0.6397	0.3343	0.6127	0.041
Mof_C 	C 	0.7231	0.1956	0.6524	0.105
Mof_H 	H 	0.7629	0.1643	0.6964	0.013
Mof_C 	C 	0.7835	0.2923	0.8437	0.189
Mof_C 	C 	0.7709	0.3578	0.8955	-0.232
Mof_H 	H 	0.7251	0.3813	0.8417	0.132
Mof_C 	C 	0.83	0.3869	0.0316	0.138
Mof_H 	H 	0.8225	0.4303	0.0696	0.006
Mof_C 	C 	0.8979	0.3543	0.1104	-0.205
Mof_C 	C 	0.9094	0.2897	0.053	0.148
Mof_H 	H 	0.9562	0.2672	0.104	0.003
Mof_C 	C 	0.8527	0.2586	0.9221	-0.227
Mof_H 	H 	0.8608	0.215	0.8859	0.124
Mof_C 	C 	0.9601	0.3872	0.2525	0.449
Mof_Cu	Cu	0.62805	0.09223	0.42454	0.904
Mof_N 	N 	0.6579	0.18258	0.5264	-0.207
Mof_N 	N 	0.7239	0.2604	0.7082	-0.151
Mof_O 	O 	0.03004	0.36973	0.2765	-0.451
Mof_O 	O 	0.93725	0.43257	0.3416	-0.47
Mof_O 	O 	0.73218	0.06085	0.536	-0.443
Mof_Cu	Cu	0.5	2.35998e-33	0.5	0.897
Mof_Cu	Cu	1.06284e-17	0.5	0.5	0.89
Mof_N 	N 	0.4123	0	0.6861	-0.291
Mof_N 	N 	0.446	4.71996e-33	0.8544	-0.058
Mof_N 	N 	0.9123	0.5	0.6861	-0.28
Mof_N 	N 	0.946	0.5	0.8544	-0.049
Mof_N 	N 	0.5877	1.17999e-33	0.3139	-0.291
Mof_N 	N 	0.554	5.89995e-34	0.1456	-0.059
Mof_N 	N 	0.0877	0.5	0.3139	-0.289
Mof_N 	N 	0.054	0.5	0.1456	-0.06
Mof_N 	N 	0.02	0.5	0.9868	-0.065
Mof_N 	N 	0.52	4.71996e-33	0.9868	-0.033
Mof_N 	N 	0.98	0.5	0.0132	-0.001
Mof_N 	N 	0.48	7.37493e-35	0.0132	-0.036
Mof_O 	O 	0.2715	0.5	0.3131	-0.312
Mof_O 	O 	0.3506	0.5	0.6182	-0.272
Mof_S 	S 	0.27235	0.5	0.5012	0.712
Mof_O 	O 	0.7715	0	0.3131	-0.313
Mof_O 	O 	0.8506	2.35998e-33	0.6182	-0.267
Mof_S 	S 	0.77235	0	0.5012	0.692
Mof_O 	O 	0.7285	0.5	0.6869	-0.312
Mof_O 	O 	0.6494	0.5	0.3818	-0.272
Mof_S 	S 	0.72765	0.5	0.4988	0.712
Mof_O 	O 	0.2285	0	0.6869	-0.317
Mof_O 	O 	0.1494	2.35998e-33	0.3818	-0.28
Mof_S 	S 	0.22765	2.35998e-33	0.4988	0.694
_end
