# CIF file generated by openbabel 3.1.0, see https://openbabel.org
data_I
_chemical_name_common 'image0'
_cell_length_a 23.3823
_cell_length_b 23.3823
_cell_length_c 28.1857
_cell_angle_alpha 90
_cell_angle_beta 90
_cell_angle_gamma 90
_space_group_name_H-M_alt 'P 1'
_space_group_name_Hall 'P 1'
loop_
    _symmetry_equiv_pos_as_xyz
    x,y,z
loop_
    _atom_site_label
    _atom_site_type_symbol
    _atom_site_fract_x
    _atom_site_fract_y
    _atom_site_fract_z
    _atom_site_occupancy
    Ag1      Ag       0.55702    0.50306    0.47347    1.000
    C1       C        0.40390    0.44611    0.33128    1.000
    H1       H        0.42290    0.40980    0.33370    1.000
    H2       H        0.40980    0.46170    0.30020    1.000
    H3       H        0.36360    0.44100    0.33670    1.000
    C2       C        0.42745    0.48590    0.36730    1.000
    C3       C        0.42589    0.54517    0.36997    1.000
    C4       C        0.45473    0.55893    0.41181    1.000
    C5       C        0.46470    0.61678    0.43245    1.000
    H4       H        0.47070    0.61340    0.46600    1.000
    H5       H        0.43190    0.64050    0.42660    1.000
    H6       H        0.49780    0.63370    0.41800    1.000
    C6       C        0.29302    0.58150    0.35899    1.000
    H7       H        0.29750    0.59450    0.39110    1.000
    H8       H        0.29120    0.54050    0.35860    1.000
    H9       H        0.25840    0.59690    0.34590    1.000
    C7       C        0.34249    0.60089    0.33020    1.000
    C8       C        0.40043    0.58491    0.33532    1.000
    C9       C        0.42886    0.61510    0.30064    1.000
    C10      C        0.49110    0.61880    0.28899    1.000
    H10      H        0.50640    0.58090    0.28550    1.000
    H11      H        0.51080    0.63820    0.31410    1.000
    H12      H        0.49600    0.63950    0.25990    1.000
    C11      C        0.71050    0.31884    0.43780    1.000
    H13      H        0.71010    0.28740    0.45970    1.000
    H14      H        0.74860    0.32420    0.42590    1.000
    H15      H        0.68520    0.31080    0.41180    1.000
    C12      C        0.69137    0.37196    0.46260    1.000
    C13      C        0.71957    0.40977    0.49242    1.000
    C14      C        0.67936    0.45201    0.50352    1.000
    C15      C        0.68626    0.50409    0.53334    1.000
    H16      H        0.69070    0.53690    0.51320    1.000
    H17      H        0.71950    0.50000    0.55310    1.000
    H18      H        0.65300    0.50890    0.55290    1.000
    N1       N        0.47346    0.51141    0.43339    1.000
    N2       N        0.45615    0.46767    0.40538    1.000
    H19      H        0.46290    0.43220    0.41140    1.000
    N3       N        0.38919    0.64547    0.27674    1.000
    H20      H        0.39680    0.66720    0.25300    1.000
    N4       N        0.33622    0.63778    0.29442    1.000
    N5       N        0.62945    0.44096    0.48263    1.000
    N6       N        0.63796    0.39189    0.45779    1.000
    H21      H        0.61210    0.37550    0.44090    1.000
    Ag2      Ag       0.05702    0.00306    0.97347    1.000
    C16      C        0.90390    0.94611    0.83128    1.000
    H22      H        0.92290    0.90980    0.83370    1.000
    H23      H        0.90980    0.96170    0.80020    1.000
    H24      H        0.86360    0.94100    0.83670    1.000
    C17      C        0.92745    0.98590    0.86730    1.000
    C18      C        0.92589    0.04517    0.86997    1.000
    C19      C        0.95473    0.05893    0.91181    1.000
    C20      C        0.96470    0.11678    0.93245    1.000
    H25      H        0.97070    0.11340    0.96600    1.000
    H26      H        0.93190    0.14050    0.92660    1.000
    H27      H        0.99780    0.13370    0.91800    1.000
    C21      C        0.79302    0.08150    0.85899    1.000
    H28      H        0.79750    0.09450    0.89110    1.000
    H29      H        0.79120    0.04050    0.85860    1.000
    H30      H        0.75840    0.09690    0.84590    1.000
    C22      C        0.84249    0.10089    0.83020    1.000
    C23      C        0.90043    0.08491    0.83532    1.000
    C24      C        0.92886    0.11510    0.80064    1.000
    C25      C        0.99110    0.11880    0.78899    1.000
    H31      H        0.00640    0.08090    0.78550    1.000
    H32      H        0.01080    0.13820    0.81410    1.000
    H33      H        0.99600    0.13950    0.75990    1.000
    C26      C        0.21050    0.81884    0.93780    1.000
    H34      H        0.21010    0.78740    0.95970    1.000
    H35      H        0.24860    0.82420    0.92590    1.000
    H36      H        0.18520    0.81080    0.91180    1.000
    C27      C        0.19137    0.87196    0.96260    1.000
    C28      C        0.21957    0.90977    0.99242    1.000
    C29      C        0.17936    0.95201    0.00352    1.000
    C30      C        0.18626    0.00409    0.03334    1.000
    H37      H        0.19070    0.03690    0.01320    1.000
    H38      H        0.21950    0.00000    0.05310    1.000
    H39      H        0.15300    0.00890    0.05290    1.000
    N7       N        0.97346    0.01141    0.93339    1.000
    N8       N        0.95615    0.96767    0.90538    1.000
    H40      H        0.96290    0.93220    0.91140    1.000
    N9       N        0.88919    0.14547    0.77674    1.000
    H41      H        0.89680    0.16720    0.75300    1.000
    N10      N        0.83622    0.13778    0.79442    1.000
    N11      N        0.12945    0.94096    0.98263    1.000
    N12      N        0.13796    0.89189    0.95779    1.000
    H42      H        0.11210    0.87550    0.94090    1.000
    Ag3      Ag       0.94298    0.49694    0.97347    1.000
    C31      C        0.09610    0.55389    0.83128    1.000
    H43      H        0.07710    0.59020    0.83370    1.000
    H44      H        0.09020    0.53830    0.80020    1.000
    H45      H        0.13640    0.55900    0.83670    1.000
    C32      C        0.07255    0.51410    0.86730    1.000
    C33      C        0.07411    0.45483    0.86997    1.000
    C34      C        0.04527    0.44107    0.91181    1.000
    C35      C        0.03530    0.38322    0.93245    1.000
    H46      H        0.02930    0.38660    0.96600    1.000
    H47      H        0.06810    0.35950    0.92660    1.000
    H48      H        0.00220    0.36630    0.91800    1.000
    C36      C        0.20698    0.41850    0.85899    1.000
    H49      H        0.20250    0.40550    0.89110    1.000
    H50      H        0.20880    0.45950    0.85860    1.000
    H51      H        0.24160    0.40310    0.84590    1.000
    C37      C        0.15751    0.39911    0.83020    1.000
    C38      C        0.09957    0.41509    0.83532    1.000
    C39      C        0.07114    0.38490    0.80064    1.000
    C40      C        0.00890    0.38120    0.78899    1.000
    H52      H        0.99360    0.41910    0.78550    1.000
    H53      H        0.98920    0.36180    0.81410    1.000
    H54      H        0.00400    0.36050    0.75990    1.000
    C41      C        0.78950    0.68116    0.93780    1.000
    H55      H        0.78990    0.71260    0.95970    1.000
    H56      H        0.75140    0.67580    0.92590    1.000
    H57      H        0.81480    0.68920    0.91180    1.000
    C42      C        0.80863    0.62804    0.96260    1.000
    C43      C        0.78043    0.59023    0.99242    1.000
    C44      C        0.82064    0.54799    0.00352    1.000
    C45      C        0.81374    0.49591    0.03334    1.000
    H58      H        0.80930    0.46310    0.01320    1.000
    H59      H        0.78050    0.50000    0.05310    1.000
    H60      H        0.84700    0.49110    0.05290    1.000
    N13      N        0.02654    0.48859    0.93339    1.000
    N14      N        0.04385    0.53233    0.90538    1.000
    H61      H        0.03710    0.56780    0.91140    1.000
    N15      N        0.11081    0.35453    0.77674    1.000
    H62      H        0.10320    0.33280    0.75300    1.000
    N16      N        0.16378    0.36222    0.79442    1.000
    N17      N        0.87055    0.55904    0.98263    1.000
    N18      N        0.86204    0.60811    0.95779    1.000
    H63      H        0.88790    0.62450    0.94090    1.000
    Ag4      Ag       0.44298    0.99694    0.47347    1.000
    C46      C        0.59610    0.05389    0.33128    1.000
    H64      H        0.57710    0.09020    0.33370    1.000
    H65      H        0.59020    0.03830    0.30020    1.000
    H66      H        0.63640    0.05900    0.33670    1.000
    C47      C        0.57255    0.01410    0.36730    1.000
    C48      C        0.57411    0.95483    0.36997    1.000
    C49      C        0.54527    0.94107    0.41181    1.000
    C50      C        0.53530    0.88322    0.43245    1.000
    H67      H        0.52930    0.88660    0.46600    1.000
    H68      H        0.56810    0.85950    0.42660    1.000
    H69      H        0.50220    0.86630    0.41800    1.000
    C51      C        0.70698    0.91850    0.35899    1.000
    H70      H        0.70250    0.90550    0.39110    1.000
    H71      H        0.70880    0.95950    0.35860    1.000
    H72      H        0.74160    0.90310    0.34590    1.000
    C52      C        0.65751    0.89911    0.33020    1.000
    C53      C        0.59957    0.91509    0.33532    1.000
    C54      C        0.57114    0.88490    0.30064    1.000
    C55      C        0.50890    0.88120    0.28899    1.000
    H73      H        0.49360    0.91910    0.28550    1.000
    H74      H        0.48920    0.86180    0.31410    1.000
    H75      H        0.50400    0.86050    0.25990    1.000
    C56      C        0.28950    0.18116    0.43780    1.000
    H76      H        0.28990    0.21260    0.45970    1.000
    H77      H        0.25140    0.17580    0.42590    1.000
    H78      H        0.31480    0.18920    0.41180    1.000
    C57      C        0.30863    0.12804    0.46260    1.000
    C58      C        0.28043    0.09023    0.49242    1.000
    C59      C        0.32064    0.04799    0.50352    1.000
    C60      C        0.31374    0.99591    0.53334    1.000
    H79      H        0.30930    0.96310    0.51320    1.000
    H80      H        0.28050    0.00000    0.55310    1.000
    H81      H        0.34700    0.99110    0.55290    1.000
    N19      N        0.52654    0.98859    0.43339    1.000
    N20      N        0.54385    0.03233    0.40538    1.000
    H82      H        0.53710    0.06780    0.41140    1.000
    N21      N        0.61081    0.85453    0.27674    1.000
    H83      H        0.60320    0.83280    0.25300    1.000
    N22      N        0.66378    0.86222    0.29442    1.000
    N23      N        0.37055    0.05904    0.48263    1.000
    N24      N        0.36204    0.10811    0.45779    1.000
    H84      H        0.38790    0.12450    0.44090    1.000
    Ag5      Ag       0.74694    0.30702    0.72347    1.000
    C61      C        0.80389    0.15390    0.58128    1.000
    H85      H        0.84020    0.17290    0.58370    1.000
    H86      H        0.78830    0.15980    0.55020    1.000
    H87      H        0.80900    0.11360    0.58670    1.000
    C62      C        0.76410    0.17745    0.61730    1.000
    C63      C        0.70483    0.17589    0.61997    1.000
    C64      C        0.69107    0.20473    0.66181    1.000
    C65      C        0.63322    0.21470    0.68245    1.000
    H88      H        0.63660    0.22070    0.71600    1.000
    H89      H        0.60950    0.18190    0.67660    1.000
    H90      H        0.61630    0.24780    0.66800    1.000
    C66      C        0.66850    0.04302    0.60899    1.000
    H91      H        0.65550    0.04750    0.64110    1.000
    H92      H        0.70950    0.04120    0.60860    1.000
    H93      H        0.65310    0.00840    0.59590    1.000
    C67      C        0.64911    0.09249    0.58020    1.000
    C68      C        0.66509    0.15043    0.58532    1.000
    C69      C        0.63490    0.17886    0.55064    1.000
    C70      C        0.63120    0.24110    0.53899    1.000
    H94      H        0.66910    0.25640    0.53550    1.000
    H95      H        0.61180    0.26080    0.56410    1.000
    H96      H        0.61050    0.24600    0.50990    1.000
    C71      C        0.93116    0.46050    0.68780    1.000
    H97      H        0.96260    0.46010    0.70970    1.000
    H98      H        0.92580    0.49860    0.67590    1.000
    H99      H        0.93920    0.43520    0.66180    1.000
    C72      C        0.87804    0.44137    0.71260    1.000
    C73      C        0.84023    0.46957    0.74242    1.000
    C74      C        0.79799    0.42936    0.75352    1.000
    C75      C        0.74591    0.43626    0.78334    1.000
    H100     H        0.71310    0.44070    0.76320    1.000
    H101     H        0.75000    0.46950    0.80310    1.000
    H102     H        0.74110    0.40300    0.80290    1.000
    N25      N        0.73859    0.22346    0.68339    1.000
    N26      N        0.78233    0.20615    0.65538    1.000
    H103     H        0.81780    0.21290    0.66140    1.000
    N27      N        0.60453    0.13919    0.52674    1.000
    H104     H        0.58280    0.14680    0.50300    1.000
    N28      N        0.61222    0.08622    0.54442    1.000
    N29      N        0.80904    0.37945    0.73263    1.000
    N30      N        0.85811    0.38796    0.70779    1.000
    H105     H        0.87450    0.36210    0.69090    1.000
    Ag6      Ag       0.24694    0.80702    0.22347    1.000
    C76      C        0.30389    0.65390    0.08128    1.000
    H106     H        0.34020    0.67290    0.08370    1.000
    H107     H        0.28830    0.65980    0.05020    1.000
    H108     H        0.30900    0.61360    0.08670    1.000
    C77      C        0.26410    0.67745    0.11730    1.000
    C78      C        0.20483    0.67589    0.11997    1.000
    C79      C        0.19107    0.70473    0.16181    1.000
    C80      C        0.13322    0.71470    0.18245    1.000
    H109     H        0.13660    0.72070    0.21600    1.000
    H110     H        0.10950    0.68190    0.17660    1.000
    H111     H        0.11630    0.74780    0.16800    1.000
    C81      C        0.16850    0.54302    0.10899    1.000
    H112     H        0.15550    0.54750    0.14110    1.000
    H113     H        0.20950    0.54120    0.10860    1.000
    H114     H        0.15310    0.50840    0.09590    1.000
    C82      C        0.14911    0.59249    0.08020    1.000
    C83      C        0.16509    0.65043    0.08532    1.000
    C84      C        0.13490    0.67886    0.05064    1.000
    C85      C        0.13120    0.74110    0.03899    1.000
    H115     H        0.16910    0.75640    0.03550    1.000
    H116     H        0.11180    0.76080    0.06410    1.000
    H117     H        0.11050    0.74600    0.00990    1.000
    C86      C        0.43116    0.96050    0.18780    1.000
    H118     H        0.46260    0.96010    0.20970    1.000
    H119     H        0.42580    0.99860    0.17590    1.000
    H120     H        0.43920    0.93520    0.16180    1.000
    C87      C        0.37804    0.94137    0.21260    1.000
    C88      C        0.34023    0.96957    0.24242    1.000
    C89      C        0.29799    0.92936    0.25352    1.000
    C90      C        0.24591    0.93626    0.28334    1.000
    H121     H        0.21310    0.94070    0.26320    1.000
    H122     H        0.25000    0.96950    0.30310    1.000
    H123     H        0.24110    0.90300    0.30290    1.000
    N31      N        0.23859    0.72346    0.18339    1.000
    N32      N        0.28233    0.70615    0.15538    1.000
    H124     H        0.31780    0.71290    0.16140    1.000
    N33      N        0.10453    0.63919    0.02674    1.000
    H125     H        0.08280    0.64680    0.00300    1.000
    N34      N        0.11222    0.58622    0.04442    1.000
    N35      N        0.30904    0.87945    0.23263    1.000
    N36      N        0.35811    0.88796    0.20779    1.000
    H126     H        0.37450    0.86210    0.19090    1.000
    Ag7      Ag       0.75306    0.69298    0.22347    1.000
    C91      C        0.69611    0.84610    0.08128    1.000
    H127     H        0.65980    0.82710    0.08370    1.000
    H128     H        0.71170    0.84020    0.05020    1.000
    H129     H        0.69100    0.88640    0.08670    1.000
    C92      C        0.73590    0.82255    0.11730    1.000
    C93      C        0.79517    0.82411    0.11997    1.000
    C94      C        0.80893    0.79527    0.16181    1.000
    C95      C        0.86678    0.78530    0.18245    1.000
    H130     H        0.86340    0.77930    0.21600    1.000
    H131     H        0.89050    0.81810    0.17660    1.000
    H132     H        0.88370    0.75220    0.16800    1.000
    C96      C        0.83150    0.95698    0.10899    1.000
    H133     H        0.84450    0.95250    0.14110    1.000
    H134     H        0.79050    0.95880    0.10860    1.000
    H135     H        0.84690    0.99160    0.09590    1.000
    C97      C        0.85089    0.90751    0.08020    1.000
    C98      C        0.83491    0.84957    0.08532    1.000
    C99      C        0.86510    0.82114    0.05064    1.000
    C100     C        0.86880    0.75890    0.03899    1.000
    H136     H        0.83090    0.74360    0.03550    1.000
    H137     H        0.88820    0.73920    0.06410    1.000
    H138     H        0.88950    0.75400    0.00990    1.000
    C101     C        0.56884    0.53950    0.18780    1.000
    H139     H        0.53740    0.53990    0.20970    1.000
    H140     H        0.57420    0.50140    0.17590    1.000
    H141     H        0.56080    0.56480    0.16180    1.000
    C102     C        0.62196    0.55863    0.21260    1.000
    C103     C        0.65977    0.53043    0.24242    1.000
    C104     C        0.70201    0.57064    0.25352    1.000
    C105     C        0.75409    0.56374    0.28334    1.000
    H142     H        0.78690    0.55930    0.26320    1.000
    H143     H        0.75000    0.53050    0.30310    1.000
    H144     H        0.75890    0.59700    0.30290    1.000
    N37      N        0.76141    0.77654    0.18339    1.000
    N38      N        0.71767    0.79385    0.15538    1.000
    H145     H        0.68220    0.78710    0.16140    1.000
    N39      N        0.89547    0.86081    0.02674    1.000
    H146     H        0.91720    0.85320    0.00300    1.000
    N40      N        0.88778    0.91378    0.04442    1.000
    N41      N        0.69096    0.62055    0.23263    1.000
    N42      N        0.64189    0.61204    0.20779    1.000
    H147     H        0.62550    0.63790    0.19090    1.000
    Ag8      Ag       0.25306    0.19298    0.72347    1.000
    C106     C        0.19611    0.34610    0.58128    1.000
    H148     H        0.15980    0.32710    0.58370    1.000
    H149     H        0.21170    0.34020    0.55020    1.000
    H150     H        0.19100    0.38640    0.58670    1.000
    C107     C        0.23590    0.32255    0.61730    1.000
    C108     C        0.29517    0.32411    0.61997    1.000
    C109     C        0.30893    0.29527    0.66181    1.000
    C110     C        0.36678    0.28530    0.68245    1.000
    H151     H        0.36340    0.27930    0.71600    1.000
    H152     H        0.39050    0.31810    0.67660    1.000
    H153     H        0.38370    0.25220    0.66800    1.000
    C111     C        0.33150    0.45698    0.60899    1.000
    H154     H        0.34450    0.45250    0.64110    1.000
    H155     H        0.29050    0.45880    0.60860    1.000
    H156     H        0.34690    0.49160    0.59590    1.000
    C112     C        0.35089    0.40751    0.58020    1.000
    C113     C        0.33491    0.34957    0.58532    1.000
    C114     C        0.36510    0.32114    0.55064    1.000
    C115     C        0.36880    0.25890    0.53899    1.000
    H157     H        0.33090    0.24360    0.53550    1.000
    H158     H        0.38820    0.23920    0.56410    1.000
    H159     H        0.38950    0.25400    0.50990    1.000
    C116     C        0.06884    0.03950    0.68780    1.000
    H160     H        0.03740    0.03990    0.70970    1.000
    H161     H        0.07420    0.00140    0.67590    1.000
    H162     H        0.06080    0.06480    0.66180    1.000
    C117     C        0.12196    0.05863    0.71260    1.000
    C118     C        0.15977    0.03043    0.74242    1.000
    C119     C        0.20201    0.07064    0.75352    1.000
    C120     C        0.25409    0.06374    0.78334    1.000
    H163     H        0.28690    0.05930    0.76320    1.000
    H164     H        0.25000    0.03050    0.80310    1.000
    H165     H        0.25890    0.09700    0.80290    1.000
    N43      N        0.26141    0.27654    0.68339    1.000
    N44      N        0.21767    0.29385    0.65538    1.000
    H166     H        0.18220    0.28710    0.66140    1.000
    N45      N        0.39547    0.36081    0.52674    1.000
    H167     H        0.41720    0.35320    0.50300    1.000
    N46      N        0.38778    0.41378    0.54442    1.000
    N47      N        0.19096    0.12055    0.73263    1.000
    N48      N        0.14189    0.11204    0.70779    1.000
    H168     H        0.12550    0.13790    0.69090    1.000
    Ag9      Ag       0.94298    0.50306    0.52653    1.000
    C121     C        0.09610    0.44611    0.66872    1.000
    H169     H        0.07710    0.40980    0.66630    1.000
    H170     H        0.09020    0.46170    0.69980    1.000
    H171     H        0.13640    0.44100    0.66330    1.000
    C122     C        0.07255    0.48590    0.63270    1.000
    C123     C        0.07411    0.54517    0.63003    1.000
    C124     C        0.04527    0.55893    0.58819    1.000
    C125     C        0.03530    0.61678    0.56755    1.000
    H172     H        0.02930    0.61340    0.53400    1.000
    H173     H        0.06810    0.64050    0.57340    1.000
    H174     H        0.00220    0.63370    0.58200    1.000
    C126     C        0.20698    0.58150    0.64101    1.000
    H175     H        0.20250    0.59450    0.60890    1.000
    H176     H        0.20880    0.54050    0.64140    1.000
    H177     H        0.24160    0.59690    0.65410    1.000
    C127     C        0.15751    0.60089    0.66980    1.000
    C128     C        0.09957    0.58491    0.66468    1.000
    C129     C        0.07114    0.61510    0.69936    1.000
    C130     C        0.00890    0.61880    0.71101    1.000
    H178     H        0.99360    0.58090    0.71450    1.000
    H179     H        0.98920    0.63820    0.68590    1.000
    H180     H        0.00400    0.63950    0.74010    1.000
    C131     C        0.78950    0.31884    0.56220    1.000
    H181     H        0.78990    0.28740    0.54030    1.000
    H182     H        0.75140    0.32420    0.57410    1.000
    H183     H        0.81480    0.31080    0.58820    1.000
    C132     C        0.80863    0.37196    0.53740    1.000
    C133     C        0.78043    0.40977    0.50758    1.000
    C134     C        0.82064    0.45201    0.49648    1.000
    C135     C        0.81374    0.50409    0.46666    1.000
    H184     H        0.80930    0.53690    0.48680    1.000
    H185     H        0.78050    0.50000    0.44690    1.000
    H186     H        0.84700    0.50890    0.44710    1.000
    N49      N        0.02654    0.51141    0.56661    1.000
    N50      N        0.04385    0.46767    0.59462    1.000
    H187     H        0.03710    0.43220    0.58860    1.000
    N51      N        0.11081    0.64547    0.72326    1.000
    H188     H        0.10320    0.66720    0.74700    1.000
    N52      N        0.16378    0.63778    0.70558    1.000
    N53      N        0.87055    0.44096    0.51737    1.000
    N54      N        0.86204    0.39189    0.54221    1.000
    H189     H        0.88790    0.37550    0.55910    1.000
    Ag10     Ag       0.44298    0.00306    0.02653    1.000
    C136     C        0.59610    0.94611    0.16872    1.000
    H190     H        0.57710    0.90980    0.16630    1.000
    H191     H        0.59020    0.96170    0.19980    1.000
    H192     H        0.63640    0.94100    0.16330    1.000
    C137     C        0.57255    0.98590    0.13270    1.000
    C138     C        0.57411    0.04517    0.13003    1.000
    C139     C        0.54527    0.05893    0.08819    1.000
    C140     C        0.53530    0.11678    0.06755    1.000
    H193     H        0.52930    0.11340    0.03400    1.000
    H194     H        0.56810    0.14050    0.07340    1.000
    H195     H        0.50220    0.13370    0.08200    1.000
    C141     C        0.70698    0.08150    0.14101    1.000
    H196     H        0.70250    0.09450    0.10890    1.000
    H197     H        0.70880    0.04050    0.14140    1.000
    H198     H        0.74160    0.09690    0.15410    1.000
    C142     C        0.65751    0.10089    0.16980    1.000
    C143     C        0.59957    0.08491    0.16468    1.000
    C144     C        0.57114    0.11510    0.19936    1.000
    C145     C        0.50890    0.11880    0.21101    1.000
    H199     H        0.49360    0.08090    0.21450    1.000
    H200     H        0.48920    0.13820    0.18590    1.000
    H201     H        0.50400    0.13950    0.24010    1.000
    C146     C        0.28950    0.81884    0.06220    1.000
    H202     H        0.28990    0.78740    0.04030    1.000
    H203     H        0.25140    0.82420    0.07410    1.000
    H204     H        0.31480    0.81080    0.08820    1.000
    C147     C        0.30863    0.87196    0.03740    1.000
    C148     C        0.28043    0.90977    0.00758    1.000
    C149     C        0.32064    0.95201    0.99648    1.000
    C150     C        0.31374    0.00409    0.96666    1.000
    H205     H        0.30930    0.03690    0.98680    1.000
    H206     H        0.28050    0.00000    0.94690    1.000
    H207     H        0.34700    0.00890    0.94710    1.000
    N55      N        0.52654    0.01141    0.06661    1.000
    N56      N        0.54385    0.96767    0.09462    1.000
    H208     H        0.53710    0.93220    0.08860    1.000
    N57      N        0.61081    0.14547    0.22326    1.000
    H209     H        0.60320    0.16720    0.24700    1.000
    N58      N        0.66378    0.13778    0.20558    1.000
    N59      N        0.37055    0.94096    0.01737    1.000
    N60      N        0.36204    0.89189    0.04221    1.000
    H210     H        0.38790    0.87550    0.05910    1.000
    Ag11     Ag       0.55702    0.49694    0.02653    1.000
    C151     C        0.40390    0.55389    0.16872    1.000
    H211     H        0.42290    0.59020    0.16630    1.000
    H212     H        0.40980    0.53830    0.19980    1.000
    H213     H        0.36360    0.55900    0.16330    1.000
    C152     C        0.42745    0.51410    0.13270    1.000
    C153     C        0.42589    0.45483    0.13003    1.000
    C154     C        0.45473    0.44107    0.08819    1.000
    C155     C        0.46470    0.38322    0.06755    1.000
    H214     H        0.47070    0.38660    0.03400    1.000
    H215     H        0.43190    0.35950    0.07340    1.000
    H216     H        0.49780    0.36630    0.08200    1.000
    C156     C        0.29302    0.41850    0.14101    1.000
    H217     H        0.29750    0.40550    0.10890    1.000
    H218     H        0.29120    0.45950    0.14140    1.000
    H219     H        0.25840    0.40310    0.15410    1.000
    C157     C        0.34249    0.39911    0.16980    1.000
    C158     C        0.40043    0.41509    0.16468    1.000
    C159     C        0.42886    0.38490    0.19936    1.000
    C160     C        0.49110    0.38120    0.21101    1.000
    H220     H        0.50640    0.41910    0.21450    1.000
    H221     H        0.51080    0.36180    0.18590    1.000
    H222     H        0.49600    0.36050    0.24010    1.000
    C161     C        0.71050    0.68116    0.06220    1.000
    H223     H        0.71010    0.71260    0.04030    1.000
    H224     H        0.74860    0.67580    0.07410    1.000
    H225     H        0.68520    0.68920    0.08820    1.000
    C162     C        0.69137    0.62804    0.03740    1.000
    C163     C        0.71957    0.59023    0.00758    1.000
    C164     C        0.67936    0.54799    0.99648    1.000
    C165     C        0.68626    0.49591    0.96666    1.000
    H226     H        0.69070    0.46310    0.98680    1.000
    H227     H        0.71950    0.50000    0.94690    1.000
    H228     H        0.65300    0.49110    0.94710    1.000
    N61      N        0.47346    0.48859    0.06661    1.000
    N62      N        0.45615    0.53233    0.09462    1.000
    H229     H        0.46290    0.56780    0.08860    1.000
    N63      N        0.38919    0.35453    0.22326    1.000
    H230     H        0.39680    0.33280    0.24700    1.000
    N64      N        0.33622    0.36222    0.20558    1.000
    N65      N        0.62945    0.55904    0.01737    1.000
    N66      N        0.63796    0.60811    0.04221    1.000
    H231     H        0.61210    0.62450    0.05910    1.000
    Ag12     Ag       0.05702    0.99694    0.52653    1.000
    C166     C        0.90390    0.05389    0.66872    1.000
    H232     H        0.92290    0.09020    0.66630    1.000
    H233     H        0.90980    0.03830    0.69980    1.000
    H234     H        0.86360    0.05900    0.66330    1.000
    C167     C        0.92745    0.01410    0.63270    1.000
    C168     C        0.92589    0.95483    0.63003    1.000
    C169     C        0.95473    0.94107    0.58819    1.000
    C170     C        0.96470    0.88322    0.56755    1.000
    H235     H        0.97070    0.88660    0.53400    1.000
    H236     H        0.93190    0.85950    0.57340    1.000
    H237     H        0.99780    0.86630    0.58200    1.000
    C171     C        0.79302    0.91850    0.64101    1.000
    H238     H        0.79750    0.90550    0.60890    1.000
    H239     H        0.79120    0.95950    0.64140    1.000
    H240     H        0.75840    0.90310    0.65410    1.000
    C172     C        0.84249    0.89911    0.66980    1.000
    C173     C        0.90043    0.91509    0.66468    1.000
    C174     C        0.92886    0.88490    0.69936    1.000
    C175     C        0.99110    0.88120    0.71101    1.000
    H241     H        0.00640    0.91910    0.71450    1.000
    H242     H        0.01080    0.86180    0.68590    1.000
    H243     H        0.99600    0.86050    0.74010    1.000
    C176     C        0.21050    0.18116    0.56220    1.000
    H244     H        0.21010    0.21260    0.54030    1.000
    H245     H        0.24860    0.17580    0.57410    1.000
    H246     H        0.18520    0.18920    0.58820    1.000
    C177     C        0.19137    0.12804    0.53740    1.000
    C178     C        0.21957    0.09023    0.50758    1.000
    C179     C        0.17936    0.04799    0.49648    1.000
    C180     C        0.18626    0.99591    0.46666    1.000
    H247     H        0.19070    0.96310    0.48680    1.000
    H248     H        0.21950    0.00000    0.44690    1.000
    H249     H        0.15300    0.99110    0.44710    1.000
    N67      N        0.97346    0.98859    0.56661    1.000
    N68      N        0.95615    0.03233    0.59462    1.000
    H250     H        0.96290    0.06780    0.58860    1.000
    N69      N        0.88919    0.85453    0.72326    1.000
    H251     H        0.89680    0.83280    0.74700    1.000
    N70      N        0.83622    0.86222    0.70558    1.000
    N71      N        0.12945    0.05904    0.51737    1.000
    N72      N        0.13796    0.10811    0.54221    1.000
    H252     H        0.11210    0.12450    0.55910    1.000
    Ag13     Ag       0.75306    0.30702    0.27653    1.000
    C181     C        0.69611    0.15390    0.41872    1.000
    H253     H        0.65980    0.17290    0.41630    1.000
    H254     H        0.71170    0.15980    0.44980    1.000
    H255     H        0.69100    0.11360    0.41330    1.000
    C182     C        0.73590    0.17745    0.38270    1.000
    C183     C        0.79517    0.17589    0.38003    1.000
    C184     C        0.80893    0.20473    0.33819    1.000
    C185     C        0.86678    0.21470    0.31755    1.000
    H256     H        0.86340    0.22070    0.28400    1.000
    H257     H        0.89050    0.18190    0.32340    1.000
    H258     H        0.88370    0.24780    0.33200    1.000
    C186     C        0.83150    0.04302    0.39101    1.000
    H259     H        0.84450    0.04750    0.35890    1.000
    H260     H        0.79050    0.04120    0.39140    1.000
    H261     H        0.84690    0.00840    0.40410    1.000
    C187     C        0.85089    0.09249    0.41980    1.000
    C188     C        0.83491    0.15043    0.41468    1.000
    C189     C        0.86510    0.17886    0.44936    1.000
    C190     C        0.86880    0.24110    0.46101    1.000
    H262     H        0.83090    0.25640    0.46450    1.000
    H263     H        0.88820    0.26080    0.43590    1.000
    H264     H        0.88950    0.24600    0.49010    1.000
    C191     C        0.56884    0.46050    0.31220    1.000
    H265     H        0.53740    0.46010    0.29030    1.000
    H266     H        0.57420    0.49860    0.32410    1.000
    H267     H        0.56080    0.43520    0.33820    1.000
    C192     C        0.62196    0.44137    0.28740    1.000
    C193     C        0.65977    0.46957    0.25758    1.000
    C194     C        0.70201    0.42936    0.24648    1.000
    C195     C        0.75409    0.43626    0.21666    1.000
    H268     H        0.78690    0.44070    0.23680    1.000
    H269     H        0.75000    0.46950    0.19690    1.000
    H270     H        0.75890    0.40300    0.19710    1.000
    N73      N        0.76141    0.22346    0.31661    1.000
    N74      N        0.71767    0.20615    0.34462    1.000
    H271     H        0.68220    0.21290    0.33860    1.000
    N75      N        0.89547    0.13919    0.47326    1.000
    H272     H        0.91720    0.14680    0.49700    1.000
    N76      N        0.88778    0.08622    0.45558    1.000
    N77      N        0.69096    0.37945    0.26737    1.000
    N78      N        0.64189    0.38796    0.29221    1.000
    H273     H        0.62550    0.36210    0.30910    1.000
    Ag14     Ag       0.25306    0.80702    0.77653    1.000
    C196     C        0.19611    0.65390    0.91872    1.000
    H274     H        0.15980    0.67290    0.91630    1.000
    H275     H        0.21170    0.65980    0.94980    1.000
    H276     H        0.19100    0.61360    0.91330    1.000
    C197     C        0.23590    0.67745    0.88270    1.000
    C198     C        0.29517    0.67589    0.88003    1.000
    C199     C        0.30893    0.70473    0.83819    1.000
    C200     C        0.36678    0.71470    0.81755    1.000
    H277     H        0.36340    0.72070    0.78400    1.000
    H278     H        0.39050    0.68190    0.82340    1.000
    H279     H        0.38370    0.74780    0.83200    1.000
    C201     C        0.33150    0.54302    0.89101    1.000
    H280     H        0.34450    0.54750    0.85890    1.000
    H281     H        0.29050    0.54120    0.89140    1.000
    H282     H        0.34690    0.50840    0.90410    1.000
    C202     C        0.35089    0.59249    0.91980    1.000
    C203     C        0.33491    0.65043    0.91468    1.000
    C204     C        0.36510    0.67886    0.94936    1.000
    C205     C        0.36880    0.74110    0.96101    1.000
    H283     H        0.33090    0.75640    0.96450    1.000
    H284     H        0.38820    0.76080    0.93590    1.000
    H285     H        0.38950    0.74600    0.99010    1.000
    C206     C        0.06884    0.96050    0.81220    1.000
    H286     H        0.03740    0.96010    0.79030    1.000
    H287     H        0.07420    0.99860    0.82410    1.000
    H288     H        0.06080    0.93520    0.83820    1.000
    C207     C        0.12196    0.94137    0.78740    1.000
    C208     C        0.15977    0.96957    0.75758    1.000
    C209     C        0.20201    0.92936    0.74648    1.000
    C210     C        0.25409    0.93626    0.71666    1.000
    H289     H        0.28690    0.94070    0.73680    1.000
    H290     H        0.25000    0.96950    0.69690    1.000
    H291     H        0.25890    0.90300    0.69710    1.000
    N79      N        0.26141    0.72346    0.81661    1.000
    N80      N        0.21767    0.70615    0.84462    1.000
    H292     H        0.18220    0.71290    0.83860    1.000
    N81      N        0.39547    0.63919    0.97326    1.000
    H293     H        0.41720    0.64680    0.99700    1.000
    N82      N        0.38778    0.58622    0.95558    1.000
    N83      N        0.19096    0.87945    0.76737    1.000
    N84      N        0.14189    0.88796    0.79221    1.000
    H294     H        0.12550    0.86210    0.80910    1.000
    Ag15     Ag       0.74694    0.69298    0.77653    1.000
    C211     C        0.80389    0.84610    0.91872    1.000
    H295     H        0.84020    0.82710    0.91630    1.000
    H296     H        0.78830    0.84020    0.94980    1.000
    H297     H        0.80900    0.88640    0.91330    1.000
    C212     C        0.76410    0.82255    0.88270    1.000
    C213     C        0.70483    0.82411    0.88003    1.000
    C214     C        0.69107    0.79527    0.83819    1.000
    C215     C        0.63322    0.78530    0.81755    1.000
    H298     H        0.63660    0.77930    0.78400    1.000
    H299     H        0.60950    0.81810    0.82340    1.000
    H300     H        0.61630    0.75220    0.83200    1.000
    C216     C        0.66850    0.95698    0.89101    1.000
    H301     H        0.65550    0.95250    0.85890    1.000
    H302     H        0.70950    0.95880    0.89140    1.000
    H303     H        0.65310    0.99160    0.90410    1.000
    C217     C        0.64911    0.90751    0.91980    1.000
    C218     C        0.66509    0.84957    0.91468    1.000
    C219     C        0.63490    0.82114    0.94936    1.000
    C220     C        0.63120    0.75890    0.96101    1.000
    H304     H        0.66910    0.74360    0.96450    1.000
    H305     H        0.61180    0.73920    0.93590    1.000
    H306     H        0.61050    0.75400    0.99010    1.000
    C221     C        0.93116    0.53950    0.81220    1.000
    H307     H        0.96260    0.53990    0.79030    1.000
    H308     H        0.92580    0.50140    0.82410    1.000
    H309     H        0.93920    0.56480    0.83820    1.000
    C222     C        0.87804    0.55863    0.78740    1.000
    C223     C        0.84023    0.53043    0.75758    1.000
    C224     C        0.79799    0.57064    0.74648    1.000
    C225     C        0.74591    0.56374    0.71666    1.000
    H310     H        0.71310    0.55930    0.73680    1.000
    H311     H        0.75000    0.53050    0.69690    1.000
    H312     H        0.74110    0.59700    0.69710    1.000
    N85      N        0.73859    0.77654    0.81661    1.000
    N86      N        0.78233    0.79385    0.84462    1.000
    H313     H        0.81780    0.78710    0.83860    1.000
    N87      N        0.60453    0.86081    0.97326    1.000
    H314     H        0.58280    0.85320    0.99700    1.000
    N88      N        0.61222    0.91378    0.95558    1.000
    N89      N        0.80904    0.62055    0.76737    1.000
    N90      N        0.85811    0.61204    0.79221    1.000
    H315     H        0.87450    0.63790    0.80910    1.000
    Ag16     Ag       0.24694    0.19298    0.27653    1.000
    C226     C        0.30389    0.34610    0.41872    1.000
    H316     H        0.34020    0.32710    0.41630    1.000
    H317     H        0.28830    0.34020    0.44980    1.000
    H318     H        0.30900    0.38640    0.41330    1.000
    C227     C        0.26410    0.32255    0.38270    1.000
    C228     C        0.20483    0.32411    0.38003    1.000
    C229     C        0.19107    0.29527    0.33819    1.000
    C230     C        0.13322    0.28530    0.31755    1.000
    H319     H        0.13660    0.27930    0.28400    1.000
    H320     H        0.10950    0.31810    0.32340    1.000
    H321     H        0.11630    0.25220    0.33200    1.000
    C231     C        0.16850    0.45698    0.39101    1.000
    H322     H        0.15550    0.45250    0.35890    1.000
    H323     H        0.20950    0.45880    0.39140    1.000
    H324     H        0.15310    0.49160    0.40410    1.000
    C232     C        0.14911    0.40751    0.41980    1.000
    C233     C        0.16509    0.34957    0.41468    1.000
    C234     C        0.13490    0.32114    0.44936    1.000
    C235     C        0.13120    0.25890    0.46101    1.000
    H325     H        0.16910    0.24360    0.46450    1.000
    H326     H        0.11180    0.23920    0.43590    1.000
    H327     H        0.11050    0.25400    0.49010    1.000
    C236     C        0.43116    0.03950    0.31220    1.000
    H328     H        0.46260    0.03990    0.29030    1.000
    H329     H        0.42580    0.00140    0.32410    1.000
    H330     H        0.43920    0.06480    0.33820    1.000
    C237     C        0.37804    0.05863    0.28740    1.000
    C238     C        0.34023    0.03043    0.25758    1.000
    C239     C        0.29799    0.07064    0.24648    1.000
    C240     C        0.24591    0.06374    0.21666    1.000
    H331     H        0.21310    0.05930    0.23680    1.000
    H332     H        0.25000    0.03050    0.19690    1.000
    H333     H        0.24110    0.09700    0.19710    1.000
    N91      N        0.23859    0.27654    0.31661    1.000
    N92      N        0.28233    0.29385    0.34462    1.000
    H334     H        0.31780    0.28710    0.33860    1.000
    N93      N        0.10453    0.36081    0.47326    1.000
    H335     H        0.08280    0.35320    0.49700    1.000
    N94      N        0.11222    0.41378    0.45558    1.000
    N95      N        0.30904    0.12055    0.26737    1.000
    N96      N        0.35811    0.11204    0.29221    1.000
    H336     H        0.37450    0.13790    0.30910    1.000
    Ag17     Ag       0.44298    0.49694    0.52653    1.000
    C241     C        0.59610    0.55389    0.66872    1.000
    H337     H        0.57710    0.59020    0.66630    1.000
    H338     H        0.59020    0.53830    0.69980    1.000
    H339     H        0.63640    0.55900    0.66330    1.000
    C242     C        0.57255    0.51410    0.63270    1.000
    C243     C        0.57411    0.45483    0.63003    1.000
    C244     C        0.54527    0.44107    0.58819    1.000
    C245     C        0.53530    0.38322    0.56755    1.000
    H340     H        0.52930    0.38660    0.53400    1.000
    H341     H        0.56810    0.35950    0.57340    1.000
    H342     H        0.50220    0.36630    0.58200    1.000
    C246     C        0.70698    0.41850    0.64101    1.000
    H343     H        0.70250    0.40550    0.60890    1.000
    H344     H        0.70880    0.45950    0.64140    1.000
    H345     H        0.74160    0.40310    0.65410    1.000
    C247     C        0.65751    0.39911    0.66980    1.000
    C248     C        0.59957    0.41509    0.66468    1.000
    C249     C        0.57114    0.38490    0.69936    1.000
    C250     C        0.50890    0.38120    0.71101    1.000
    H346     H        0.49360    0.41910    0.71450    1.000
    H347     H        0.48920    0.36180    0.68590    1.000
    H348     H        0.50400    0.36050    0.74010    1.000
    C251     C        0.28950    0.68116    0.56220    1.000
    H349     H        0.28990    0.71260    0.54030    1.000
    H350     H        0.25140    0.67580    0.57410    1.000
    H351     H        0.31480    0.68920    0.58820    1.000
    C252     C        0.30863    0.62804    0.53740    1.000
    C253     C        0.28043    0.59023    0.50758    1.000
    C254     C        0.32064    0.54799    0.49648    1.000
    C255     C        0.31374    0.49591    0.46666    1.000
    H352     H        0.30930    0.46310    0.48680    1.000
    H353     H        0.28050    0.50000    0.44690    1.000
    H354     H        0.34700    0.49110    0.44710    1.000
    N97      N        0.52654    0.48859    0.56661    1.000
    N98      N        0.54385    0.53233    0.59462    1.000
    H355     H        0.53710    0.56780    0.58860    1.000
    N99      N        0.61081    0.35453    0.72326    1.000
    H356     H        0.60320    0.33280    0.74700    1.000
    N100     N        0.66378    0.36222    0.70558    1.000
    N101     N        0.37055    0.55904    0.51737    1.000
    N102     N        0.36204    0.60811    0.54221    1.000
    H357     H        0.38790    0.62450    0.55910    1.000
    Ag18     Ag       0.94298    0.99694    0.02653    1.000
    C256     C        0.09610    0.05389    0.16872    1.000
    H358     H        0.07710    0.09020    0.16630    1.000
    H359     H        0.09020    0.03830    0.19980    1.000
    H360     H        0.13640    0.05900    0.16330    1.000
    C257     C        0.07255    0.01410    0.13270    1.000
    C258     C        0.07411    0.95483    0.13003    1.000
    C259     C        0.04527    0.94107    0.08819    1.000
    C260     C        0.03530    0.88322    0.06755    1.000
    H361     H        0.02930    0.88660    0.03400    1.000
    H362     H        0.06810    0.85950    0.07340    1.000
    H363     H        0.00220    0.86630    0.08200    1.000
    C261     C        0.20698    0.91850    0.14101    1.000
    H364     H        0.20250    0.90550    0.10890    1.000
    H365     H        0.20880    0.95950    0.14140    1.000
    H366     H        0.24160    0.90310    0.15410    1.000
    C262     C        0.15751    0.89911    0.16980    1.000
    C263     C        0.09957    0.91509    0.16468    1.000
    C264     C        0.07114    0.88490    0.19936    1.000
    C265     C        0.00890    0.88120    0.21101    1.000
    H367     H        0.99360    0.91910    0.21450    1.000
    H368     H        0.98920    0.86180    0.18590    1.000
    H369     H        0.00400    0.86050    0.24010    1.000
    C266     C        0.78950    0.18116    0.06220    1.000
    H370     H        0.78990    0.21260    0.04030    1.000
    H371     H        0.75140    0.17580    0.07410    1.000
    H372     H        0.81480    0.18920    0.08820    1.000
    C267     C        0.80863    0.12804    0.03740    1.000
    C268     C        0.78043    0.09023    0.00758    1.000
    C269     C        0.82064    0.04799    0.99648    1.000
    C270     C        0.81374    0.99591    0.96666    1.000
    H373     H        0.80930    0.96310    0.98680    1.000
    H374     H        0.78050    0.00000    0.94690    1.000
    H375     H        0.84700    0.99110    0.94710    1.000
    N103     N        0.02654    0.98859    0.06661    1.000
    N104     N        0.04385    0.03233    0.09462    1.000
    H376     H        0.03710    0.06780    0.08860    1.000
    N105     N        0.11081    0.85453    0.22326    1.000
    H377     H        0.10320    0.83280    0.24700    1.000
    N106     N        0.16378    0.86222    0.20558    1.000
    N107     N        0.87055    0.05904    0.01737    1.000
    N108     N        0.86204    0.10811    0.04221    1.000
    H378     H        0.88790    0.12450    0.05910    1.000
    Ag19     Ag       0.05702    0.50306    0.02653    1.000
    C271     C        0.90390    0.44611    0.16872    1.000
    H379     H        0.92290    0.40980    0.16630    1.000
    H380     H        0.90980    0.46170    0.19980    1.000
    H381     H        0.86360    0.44100    0.16330    1.000
    C272     C        0.92745    0.48590    0.13270    1.000
    C273     C        0.92589    0.54517    0.13003    1.000
    C274     C        0.95473    0.55893    0.08819    1.000
    C275     C        0.96470    0.61678    0.06755    1.000
    H382     H        0.97070    0.61340    0.03400    1.000
    H383     H        0.93190    0.64050    0.07340    1.000
    H384     H        0.99780    0.63370    0.08200    1.000
    C276     C        0.79302    0.58150    0.14101    1.000
    H385     H        0.79750    0.59450    0.10890    1.000
    H386     H        0.79120    0.54050    0.14140    1.000
    H387     H        0.75840    0.59690    0.15410    1.000
    C277     C        0.84249    0.60089    0.16980    1.000
    C278     C        0.90043    0.58491    0.16468    1.000
    C279     C        0.92886    0.61510    0.19936    1.000
    C280     C        0.99110    0.61880    0.21101    1.000
    H388     H        0.00640    0.58090    0.21450    1.000
    H389     H        0.01080    0.63820    0.18590    1.000
    H390     H        0.99600    0.63950    0.24010    1.000
    C281     C        0.21050    0.31884    0.06220    1.000
    H391     H        0.21010    0.28740    0.04030    1.000
    H392     H        0.24860    0.32420    0.07410    1.000
    H393     H        0.18520    0.31080    0.08820    1.000
    C282     C        0.19137    0.37196    0.03740    1.000
    C283     C        0.21957    0.40977    0.00758    1.000
    C284     C        0.17936    0.45201    0.99648    1.000
    C285     C        0.18626    0.50409    0.96666    1.000
    H394     H        0.19070    0.53690    0.98680    1.000
    H395     H        0.21950    0.50000    0.94690    1.000
    H396     H        0.15300    0.50890    0.94710    1.000
    N109     N        0.97346    0.51141    0.06661    1.000
    N110     N        0.95615    0.46767    0.09462    1.000
    H397     H        0.96290    0.43220    0.08860    1.000
    N111     N        0.88919    0.64547    0.22326    1.000
    H398     H        0.89680    0.66720    0.24700    1.000
    N112     N        0.83622    0.63778    0.20558    1.000
    N113     N        0.12945    0.44096    0.01737    1.000
    N114     N        0.13796    0.39189    0.04221    1.000
    H399     H        0.11210    0.37550    0.05910    1.000
    Ag20     Ag       0.55702    0.00306    0.52653    1.000
    C286     C        0.40390    0.94611    0.66872    1.000
    H400     H        0.42290    0.90980    0.66630    1.000
    H401     H        0.40980    0.96170    0.69980    1.000
    H402     H        0.36360    0.94100    0.66330    1.000
    C287     C        0.42745    0.98590    0.63270    1.000
    C288     C        0.42589    0.04517    0.63003    1.000
    C289     C        0.45473    0.05893    0.58819    1.000
    C290     C        0.46470    0.11678    0.56755    1.000
    H403     H        0.47070    0.11340    0.53400    1.000
    H404     H        0.43190    0.14050    0.57340    1.000
    H405     H        0.49780    0.13370    0.58200    1.000
    C291     C        0.29302    0.08150    0.64101    1.000
    H406     H        0.29750    0.09450    0.60890    1.000
    H407     H        0.29120    0.04050    0.64140    1.000
    H408     H        0.25840    0.09690    0.65410    1.000
    C292     C        0.34249    0.10089    0.66980    1.000
    C293     C        0.40043    0.08491    0.66468    1.000
    C294     C        0.42886    0.11510    0.69936    1.000
    C295     C        0.49110    0.11880    0.71101    1.000
    H409     H        0.50640    0.08090    0.71450    1.000
    H410     H        0.51080    0.13820    0.68590    1.000
    H411     H        0.49600    0.13950    0.74010    1.000
    C296     C        0.71050    0.81884    0.56220    1.000
    H412     H        0.71010    0.78740    0.54030    1.000
    H413     H        0.74860    0.82420    0.57410    1.000
    H414     H        0.68520    0.81080    0.58820    1.000
    C297     C        0.69137    0.87196    0.53740    1.000
    C298     C        0.71957    0.90977    0.50758    1.000
    C299     C        0.67936    0.95201    0.49648    1.000
    C300     C        0.68626    0.00409    0.46666    1.000
    H415     H        0.69070    0.03690    0.48680    1.000
    H416     H        0.71950    0.00000    0.44690    1.000
    H417     H        0.65300    0.00890    0.44710    1.000
    N115     N        0.47346    0.01141    0.56661    1.000
    N116     N        0.45615    0.96767    0.59462    1.000
    H418     H        0.46290    0.93220    0.58860    1.000
    N117     N        0.38919    0.14547    0.72326    1.000
    H419     H        0.39680    0.16720    0.74700    1.000
    N118     N        0.33622    0.13778    0.70558    1.000
    N119     N        0.62945    0.94096    0.51737    1.000
    N120     N        0.63796    0.89189    0.54221    1.000
    H420     H        0.61210    0.87550    0.55910    1.000
    Ag21     Ag       0.25306    0.69298    0.27653    1.000
    C301     C        0.19611    0.84610    0.41872    1.000
    H421     H        0.15980    0.82710    0.41630    1.000
    H422     H        0.21170    0.84020    0.44980    1.000
    H423     H        0.19100    0.88640    0.41330    1.000
    C302     C        0.23590    0.82255    0.38270    1.000
    C303     C        0.29517    0.82411    0.38003    1.000
    C304     C        0.30893    0.79527    0.33819    1.000
    C305     C        0.36678    0.78530    0.31755    1.000
    H424     H        0.36340    0.77930    0.28400    1.000
    H425     H        0.39050    0.81810    0.32340    1.000
    H426     H        0.38370    0.75220    0.33200    1.000
    C306     C        0.33150    0.95698    0.39101    1.000
    H427     H        0.34450    0.95250    0.35890    1.000
    H428     H        0.29050    0.95880    0.39140    1.000
    H429     H        0.34690    0.99160    0.40410    1.000
    C307     C        0.35089    0.90751    0.41980    1.000
    C308     C        0.33491    0.84957    0.41468    1.000
    C309     C        0.36510    0.82114    0.44936    1.000
    C310     C        0.36880    0.75890    0.46101    1.000
    H430     H        0.33090    0.74360    0.46450    1.000
    H431     H        0.38820    0.73920    0.43590    1.000
    H432     H        0.38950    0.75400    0.49010    1.000
    C311     C        0.06884    0.53950    0.31220    1.000
    H433     H        0.03740    0.53990    0.29030    1.000
    H434     H        0.07420    0.50140    0.32410    1.000
    H435     H        0.06080    0.56480    0.33820    1.000
    C312     C        0.12196    0.55863    0.28740    1.000
    C313     C        0.15977    0.53043    0.25758    1.000
    C314     C        0.20201    0.57064    0.24648    1.000
    C315     C        0.25409    0.56374    0.21666    1.000
    H436     H        0.28690    0.55930    0.23680    1.000
    H437     H        0.25000    0.53050    0.19690    1.000
    H438     H        0.25890    0.59700    0.19710    1.000
    N121     N        0.26141    0.77654    0.31661    1.000
    N122     N        0.21767    0.79385    0.34462    1.000
    H439     H        0.18220    0.78710    0.33860    1.000
    N123     N        0.39547    0.86081    0.47326    1.000
    H440     H        0.41720    0.85320    0.49700    1.000
    N124     N        0.38778    0.91378    0.45558    1.000
    N125     N        0.19096    0.62055    0.26737    1.000
    N126     N        0.14189    0.61204    0.29221    1.000
    H441     H        0.12550    0.63790    0.30910    1.000
    Ag22     Ag       0.75306    0.19298    0.77653    1.000
    C316     C        0.69611    0.34610    0.91872    1.000
    H442     H        0.65980    0.32710    0.91630    1.000
    H443     H        0.71170    0.34020    0.94980    1.000
    H444     H        0.69100    0.38640    0.91330    1.000
    C317     C        0.73590    0.32255    0.88270    1.000
    C318     C        0.79517    0.32411    0.88003    1.000
    C319     C        0.80893    0.29527    0.83819    1.000
    C320     C        0.86678    0.28530    0.81755    1.000
    H445     H        0.86340    0.27930    0.78400    1.000
    H446     H        0.89050    0.31810    0.82340    1.000
    H447     H        0.88370    0.25220    0.83200    1.000
    C321     C        0.83150    0.45698    0.89101    1.000
    H448     H        0.84450    0.45250    0.85890    1.000
    H449     H        0.79050    0.45880    0.89140    1.000
    H450     H        0.84690    0.49160    0.90410    1.000
    C322     C        0.85089    0.40751    0.91980    1.000
    C323     C        0.83491    0.34957    0.91468    1.000
    C324     C        0.86510    0.32114    0.94936    1.000
    C325     C        0.86880    0.25890    0.96101    1.000
    H451     H        0.83090    0.24360    0.96450    1.000
    H452     H        0.88820    0.23920    0.93590    1.000
    H453     H        0.88950    0.25400    0.99010    1.000
    C326     C        0.56884    0.03950    0.81220    1.000
    H454     H        0.53740    0.03990    0.79030    1.000
    H455     H        0.57420    0.00140    0.82410    1.000
    H456     H        0.56080    0.06480    0.83820    1.000
    C327     C        0.62196    0.05863    0.78740    1.000
    C328     C        0.65977    0.03043    0.75758    1.000
    C329     C        0.70201    0.07064    0.74648    1.000
    C330     C        0.75409    0.06374    0.71666    1.000
    H457     H        0.78690    0.05930    0.73680    1.000
    H458     H        0.75000    0.03050    0.69690    1.000
    H459     H        0.75890    0.09700    0.69710    1.000
    N127     N        0.76141    0.27654    0.81661    1.000
    N128     N        0.71767    0.29385    0.84462    1.000
    H460     H        0.68220    0.28710    0.83860    1.000
    N129     N        0.89547    0.36081    0.97326    1.000
    H461     H        0.91720    0.35320    0.99700    1.000
    N130     N        0.88778    0.41378    0.95558    1.000
    N131     N        0.69096    0.12055    0.76737    1.000
    N132     N        0.64189    0.11204    0.79221    1.000
    H462     H        0.62550    0.13790    0.80910    1.000
    Ag23     Ag       0.24694    0.30702    0.77653    1.000
    C331     C        0.30389    0.15390    0.91872    1.000
    H463     H        0.34020    0.17290    0.91630    1.000
    H464     H        0.28830    0.15980    0.94980    1.000
    H465     H        0.30900    0.11360    0.91330    1.000
    C332     C        0.26410    0.17745    0.88270    1.000
    C333     C        0.20483    0.17589    0.88003    1.000
    C334     C        0.19107    0.20473    0.83819    1.000
    C335     C        0.13322    0.21470    0.81755    1.000
    H466     H        0.13660    0.22070    0.78400    1.000
    H467     H        0.10950    0.18190    0.82340    1.000
    H468     H        0.11630    0.24780    0.83200    1.000
    C336     C        0.16850    0.04302    0.89101    1.000
    H469     H        0.15550    0.04750    0.85890    1.000
    H470     H        0.20950    0.04120    0.89140    1.000
    H471     H        0.15310    0.00840    0.90410    1.000
    C337     C        0.14911    0.09249    0.91980    1.000
    C338     C        0.16509    0.15043    0.91468    1.000
    C339     C        0.13490    0.17886    0.94936    1.000
    C340     C        0.13120    0.24110    0.96101    1.000
    H472     H        0.16910    0.25640    0.96450    1.000
    H473     H        0.11180    0.26080    0.93590    1.000
    H474     H        0.11050    0.24600    0.99010    1.000
    C341     C        0.43116    0.46050    0.81220    1.000
    H475     H        0.46260    0.46010    0.79030    1.000
    H476     H        0.42580    0.49860    0.82410    1.000
    H477     H        0.43920    0.43520    0.83820    1.000
    C342     C        0.37804    0.44137    0.78740    1.000
    C343     C        0.34023    0.46957    0.75758    1.000
    C344     C        0.29799    0.42936    0.74648    1.000
    C345     C        0.24591    0.43626    0.71666    1.000
    H478     H        0.21310    0.44070    0.73680    1.000
    H479     H        0.25000    0.46950    0.69690    1.000
    H480     H        0.24110    0.40300    0.69710    1.000
    N133     N        0.23859    0.22346    0.81661    1.000
    N134     N        0.28233    0.20615    0.84462    1.000
    H481     H        0.31780    0.21290    0.83860    1.000
    N135     N        0.10453    0.13919    0.97326    1.000
    H482     H        0.08280    0.14680    0.99700    1.000
    N136     N        0.11222    0.08622    0.95558    1.000
    N137     N        0.30904    0.37945    0.76737    1.000
    N138     N        0.35811    0.38796    0.79221    1.000
    H483     H        0.37450    0.36210    0.80910    1.000
    Ag24     Ag       0.74694    0.80702    0.27653    1.000
    C346     C        0.80389    0.65390    0.41872    1.000
    H484     H        0.84020    0.67290    0.41630    1.000
    H485     H        0.78830    0.65980    0.44980    1.000
    H486     H        0.80900    0.61360    0.41330    1.000
    C347     C        0.76410    0.67745    0.38270    1.000
    C348     C        0.70483    0.67589    0.38003    1.000
    C349     C        0.69107    0.70473    0.33819    1.000
    C350     C        0.63322    0.71470    0.31755    1.000
    H487     H        0.63660    0.72070    0.28400    1.000
    H488     H        0.60950    0.68190    0.32340    1.000
    H489     H        0.61630    0.74780    0.33200    1.000
    C351     C        0.66850    0.54302    0.39101    1.000
    H490     H        0.65550    0.54750    0.35890    1.000
    H491     H        0.70950    0.54120    0.39140    1.000
    H492     H        0.65310    0.50840    0.40410    1.000
    C352     C        0.64911    0.59249    0.41980    1.000
    C353     C        0.66509    0.65043    0.41468    1.000
    C354     C        0.63490    0.67886    0.44936    1.000
    C355     C        0.63120    0.74110    0.46101    1.000
    H493     H        0.66910    0.75640    0.46450    1.000
    H494     H        0.61180    0.76080    0.43590    1.000
    H495     H        0.61050    0.74600    0.49010    1.000
    C356     C        0.93116    0.96050    0.31220    1.000
    H496     H        0.96260    0.96010    0.29030    1.000
    H497     H        0.92580    0.99860    0.32410    1.000
    H498     H        0.93920    0.93520    0.33820    1.000
    C357     C        0.87804    0.94137    0.28740    1.000
    C358     C        0.84023    0.96957    0.25758    1.000
    C359     C        0.79799    0.92936    0.24648    1.000
    C360     C        0.74591    0.93626    0.21666    1.000
    H499     H        0.71310    0.94070    0.23680    1.000
    H500     H        0.75000    0.96950    0.19690    1.000
    H501     H        0.74110    0.90300    0.19710    1.000
    N139     N        0.73859    0.72346    0.31661    1.000
    N140     N        0.78233    0.70615    0.34462    1.000
    H502     H        0.81780    0.71290    0.33860    1.000
    N141     N        0.60453    0.63919    0.47326    1.000
    H503     H        0.58280    0.64680    0.49700    1.000
    N142     N        0.61222    0.58622    0.45558    1.000
    N143     N        0.80904    0.87945    0.26737    1.000
    N144     N        0.85811    0.88796    0.29221    1.000
    H504     H        0.87450    0.86210    0.30910    1.000
    Ag25     Ag       0.05702    0.49694    0.47347    1.000
    C361     C        0.90390    0.55389    0.33128    1.000
    H505     H        0.92290    0.59020    0.33370    1.000
    H506     H        0.90980    0.53830    0.30020    1.000
    H507     H        0.86360    0.55900    0.33670    1.000
    C362     C        0.92745    0.51410    0.36730    1.000
    C363     C        0.92589    0.45483    0.36997    1.000
    C364     C        0.95473    0.44107    0.41181    1.000
    C365     C        0.96470    0.38322    0.43245    1.000
    H508     H        0.97070    0.38660    0.46600    1.000
    H509     H        0.93190    0.35950    0.42660    1.000
    H510     H        0.99780    0.36630    0.41800    1.000
    C366     C        0.79302    0.41850    0.35899    1.000
    H511     H        0.79750    0.40550    0.39110    1.000
    H512     H        0.79120    0.45950    0.35860    1.000
    H513     H        0.75840    0.40310    0.34590    1.000
    C367     C        0.84249    0.39911    0.33020    1.000
    C368     C        0.90043    0.41509    0.33532    1.000
    C369     C        0.92886    0.38490    0.30064    1.000
    C370     C        0.99110    0.38120    0.28899    1.000
    H514     H        0.00640    0.41910    0.28550    1.000
    H515     H        0.01080    0.36180    0.31410    1.000
    H516     H        0.99600    0.36050    0.25990    1.000
    C371     C        0.21050    0.68116    0.43780    1.000
    H517     H        0.21010    0.71260    0.45970    1.000
    H518     H        0.24860    0.67580    0.42590    1.000
    H519     H        0.18520    0.68920    0.41180    1.000
    C372     C        0.19137    0.62804    0.46260    1.000
    C373     C        0.21957    0.59023    0.49242    1.000
    C374     C        0.17936    0.54799    0.50352    1.000
    C375     C        0.18626    0.49591    0.53334    1.000
    H520     H        0.19070    0.46310    0.51320    1.000
    H521     H        0.21950    0.50000    0.55310    1.000
    H522     H        0.15300    0.49110    0.55290    1.000
    N145     N        0.97346    0.48859    0.43339    1.000
    N146     N        0.95615    0.53233    0.40538    1.000
    H523     H        0.96290    0.56780    0.41140    1.000
    N147     N        0.88919    0.35453    0.27674    1.000
    H524     H        0.89680    0.33280    0.25300    1.000
    N148     N        0.83622    0.36222    0.29442    1.000
    N149     N        0.12945    0.55904    0.48263    1.000
    N150     N        0.13796    0.60811    0.45779    1.000
    H525     H        0.11210    0.62450    0.44090    1.000
    Ag26     Ag       0.55702    0.99694    0.97347    1.000
    C376     C        0.40390    0.05389    0.83128    1.000
    H526     H        0.42290    0.09020    0.83370    1.000
    H527     H        0.40980    0.03830    0.80020    1.000
    H528     H        0.36360    0.05900    0.83670    1.000
    C377     C        0.42745    0.01410    0.86730    1.000
    C378     C        0.42589    0.95483    0.86997    1.000
    C379     C        0.45473    0.94107    0.91181    1.000
    C380     C        0.46470    0.88322    0.93245    1.000
    H529     H        0.47070    0.88660    0.96600    1.000
    H530     H        0.43190    0.85950    0.92660    1.000
    H531     H        0.49780    0.86630    0.91800    1.000
    C381     C        0.29302    0.91850    0.85899    1.000
    H532     H        0.29750    0.90550    0.89110    1.000
    H533     H        0.29120    0.95950    0.85860    1.000
    H534     H        0.25840    0.90310    0.84590    1.000
    C382     C        0.34249    0.89911    0.83020    1.000
    C383     C        0.40043    0.91509    0.83532    1.000
    C384     C        0.42886    0.88490    0.80064    1.000
    C385     C        0.49110    0.88120    0.78899    1.000
    H535     H        0.50640    0.91910    0.78550    1.000
    H536     H        0.51080    0.86180    0.81410    1.000
    H537     H        0.49600    0.86050    0.75990    1.000
    C386     C        0.71050    0.18116    0.93780    1.000
    H538     H        0.71010    0.21260    0.95970    1.000
    H539     H        0.74860    0.17580    0.92590    1.000
    H540     H        0.68520    0.18920    0.91180    1.000
    C387     C        0.69137    0.12804    0.96260    1.000
    C388     C        0.71957    0.09023    0.99242    1.000
    C389     C        0.67936    0.04799    0.00352    1.000
    C390     C        0.68626    0.99591    0.03334    1.000
    H541     H        0.69070    0.96310    0.01320    1.000
    H542     H        0.71950    0.00000    0.05310    1.000
    H543     H        0.65300    0.99110    0.05290    1.000
    N151     N        0.47346    0.98859    0.93339    1.000
    N152     N        0.45615    0.03233    0.90538    1.000
    H544     H        0.46290    0.06780    0.91140    1.000
    N153     N        0.38919    0.85453    0.77674    1.000
    H545     H        0.39680    0.83280    0.75300    1.000
    N154     N        0.33622    0.86222    0.79442    1.000
    N155     N        0.62945    0.05904    0.98263    1.000
    N156     N        0.63796    0.10811    0.95779    1.000
    H546     H        0.61210    0.12450    0.94090    1.000
    Ag27     Ag       0.44298    0.50306    0.97347    1.000
    C391     C        0.59610    0.44611    0.83128    1.000
    H547     H        0.57710    0.40980    0.83370    1.000
    H548     H        0.59020    0.46170    0.80020    1.000
    H549     H        0.63640    0.44100    0.83670    1.000
    C392     C        0.57255    0.48590    0.86730    1.000
    C393     C        0.57411    0.54517    0.86997    1.000
    C394     C        0.54527    0.55893    0.91181    1.000
    C395     C        0.53530    0.61678    0.93245    1.000
    H550     H        0.52930    0.61340    0.96600    1.000
    H551     H        0.56810    0.64050    0.92660    1.000
    H552     H        0.50220    0.63370    0.91800    1.000
    C396     C        0.70698    0.58150    0.85899    1.000
    H553     H        0.70250    0.59450    0.89110    1.000
    H554     H        0.70880    0.54050    0.85860    1.000
    H555     H        0.74160    0.59690    0.84590    1.000
    C397     C        0.65751    0.60089    0.83020    1.000
    C398     C        0.59957    0.58491    0.83532    1.000
    C399     C        0.57114    0.61510    0.80064    1.000
    C400     C        0.50890    0.61880    0.78899    1.000
    H556     H        0.49360    0.58090    0.78550    1.000
    H557     H        0.48920    0.63820    0.81410    1.000
    H558     H        0.50400    0.63950    0.75990    1.000
    C401     C        0.28950    0.31884    0.93780    1.000
    H559     H        0.28990    0.28740    0.95970    1.000
    H560     H        0.25140    0.32420    0.92590    1.000
    H561     H        0.31480    0.31080    0.91180    1.000
    C402     C        0.30863    0.37196    0.96260    1.000
    C403     C        0.28043    0.40977    0.99242    1.000
    C404     C        0.32064    0.45201    0.00352    1.000
    C405     C        0.31374    0.50409    0.03334    1.000
    H562     H        0.30930    0.53690    0.01320    1.000
    H563     H        0.28050    0.50000    0.05310    1.000
    H564     H        0.34700    0.50890    0.05290    1.000
    N157     N        0.52654    0.51141    0.93339    1.000
    N158     N        0.54385    0.46767    0.90538    1.000
    H565     H        0.53710    0.43220    0.91140    1.000
    N159     N        0.61081    0.64547    0.77674    1.000
    H566     H        0.60320    0.66720    0.75300    1.000
    N160     N        0.66378    0.63778    0.79442    1.000
    N161     N        0.37055    0.44096    0.98263    1.000
    N162     N        0.36204    0.39189    0.95779    1.000
    H567     H        0.38790    0.37550    0.94090    1.000
    Ag28     Ag       0.94298    0.00306    0.47347    1.000
    C406     C        0.09610    0.94611    0.33128    1.000
    H568     H        0.07710    0.90980    0.33370    1.000
    H569     H        0.09020    0.96170    0.30020    1.000
    H570     H        0.13640    0.94100    0.33670    1.000
    C407     C        0.07255    0.98590    0.36730    1.000
    C408     C        0.07411    0.04517    0.36997    1.000
    C409     C        0.04527    0.05893    0.41181    1.000
    C410     C        0.03530    0.11678    0.43245    1.000
    H571     H        0.02930    0.11340    0.46600    1.000
    H572     H        0.06810    0.14050    0.42660    1.000
    H573     H        0.00220    0.13370    0.41800    1.000
    C411     C        0.20698    0.08150    0.35899    1.000
    H574     H        0.20250    0.09450    0.39110    1.000
    H575     H        0.20880    0.04050    0.35860    1.000
    H576     H        0.24160    0.09690    0.34590    1.000
    C412     C        0.15751    0.10089    0.33020    1.000
    C413     C        0.09957    0.08491    0.33532    1.000
    C414     C        0.07114    0.11510    0.30064    1.000
    C415     C        0.00890    0.11880    0.28899    1.000
    H577     H        0.99360    0.08090    0.28550    1.000
    H578     H        0.98920    0.13820    0.31410    1.000
    H579     H        0.00400    0.13950    0.25990    1.000
    C416     C        0.78950    0.81884    0.43780    1.000
    H580     H        0.78990    0.78740    0.45970    1.000
    H581     H        0.75140    0.82420    0.42590    1.000
    H582     H        0.81480    0.81080    0.41180    1.000
    C417     C        0.80863    0.87196    0.46260    1.000
    C418     C        0.78043    0.90977    0.49242    1.000
    C419     C        0.82064    0.95201    0.50352    1.000
    C420     C        0.81374    0.00409    0.53334    1.000
    H583     H        0.80930    0.03690    0.51320    1.000
    H584     H        0.78050    0.00000    0.55310    1.000
    H585     H        0.84700    0.00890    0.55290    1.000
    N163     N        0.02654    0.01141    0.43339    1.000
    N164     N        0.04385    0.96767    0.40538    1.000
    H586     H        0.03710    0.93220    0.41140    1.000
    N165     N        0.11081    0.14547    0.27674    1.000
    H587     H        0.10320    0.16720    0.25300    1.000
    N166     N        0.16378    0.13778    0.29442    1.000
    N167     N        0.87055    0.94096    0.48263    1.000
    N168     N        0.86204    0.89189    0.45779    1.000
    H588     H        0.88790    0.87550    0.44090    1.000
    Ag29     Ag       0.24694    0.69298    0.72347    1.000
    C421     C        0.30389    0.84610    0.58128    1.000
    H589     H        0.34020    0.82710    0.58370    1.000
    H590     H        0.28830    0.84020    0.55020    1.000
    H591     H        0.30900    0.88640    0.58670    1.000
    C422     C        0.26410    0.82255    0.61730    1.000
    C423     C        0.20483    0.82411    0.61997    1.000
    C424     C        0.19107    0.79527    0.66181    1.000
    C425     C        0.13322    0.78530    0.68245    1.000
    H592     H        0.13660    0.77930    0.71600    1.000
    H593     H        0.10950    0.81810    0.67660    1.000
    H594     H        0.11630    0.75220    0.66800    1.000
    C426     C        0.16850    0.95698    0.60899    1.000
    H595     H        0.15550    0.95250    0.64110    1.000
    H596     H        0.20950    0.95880    0.60860    1.000
    H597     H        0.15310    0.99160    0.59590    1.000
    C427     C        0.14911    0.90751    0.58020    1.000
    C428     C        0.16509    0.84957    0.58532    1.000
    C429     C        0.13490    0.82114    0.55064    1.000
    C430     C        0.13120    0.75890    0.53899    1.000
    H598     H        0.16910    0.74360    0.53550    1.000
    H599     H        0.11180    0.73920    0.56410    1.000
    H600     H        0.11050    0.75400    0.50990    1.000
    C431     C        0.43116    0.53950    0.68780    1.000
    H601     H        0.46260    0.53990    0.70970    1.000
    H602     H        0.42580    0.50140    0.67590    1.000
    H603     H        0.43920    0.56480    0.66180    1.000
    C432     C        0.37804    0.55863    0.71260    1.000
    C433     C        0.34023    0.53043    0.74242    1.000
    C434     C        0.29799    0.57064    0.75352    1.000
    C435     C        0.24591    0.56374    0.78334    1.000
    H604     H        0.21310    0.55930    0.76320    1.000
    H605     H        0.25000    0.53050    0.80310    1.000
    H606     H        0.24110    0.59700    0.80290    1.000
    N169     N        0.23859    0.77654    0.68339    1.000
    N170     N        0.28233    0.79385    0.65538    1.000
    H607     H        0.31780    0.78710    0.66140    1.000
    N171     N        0.10453    0.86081    0.52674    1.000
    H608     H        0.08280    0.85320    0.50300    1.000
    N172     N        0.11222    0.91378    0.54442    1.000
    N173     N        0.30904    0.62055    0.73263    1.000
    N174     N        0.35811    0.61204    0.70779    1.000
    H609     H        0.37450    0.63790    0.69090    1.000
    Ag30     Ag       0.74694    0.19298    0.22347    1.000
    C436     C        0.80389    0.34610    0.08128    1.000
    H610     H        0.84020    0.32710    0.08370    1.000
    H611     H        0.78830    0.34020    0.05020    1.000
    H612     H        0.80900    0.38640    0.08670    1.000
    C437     C        0.76410    0.32255    0.11730    1.000
    C438     C        0.70483    0.32411    0.11997    1.000
    C439     C        0.69107    0.29527    0.16181    1.000
    C440     C        0.63322    0.28530    0.18245    1.000
    H613     H        0.63660    0.27930    0.21600    1.000
    H614     H        0.60950    0.31810    0.17660    1.000
    H615     H        0.61630    0.25220    0.16800    1.000
    C441     C        0.66850    0.45698    0.10899    1.000
    H616     H        0.65550    0.45250    0.14110    1.000
    H617     H        0.70950    0.45880    0.10860    1.000
    H618     H        0.65310    0.49160    0.09590    1.000
    C442     C        0.64911    0.40751    0.08020    1.000
    C443     C        0.66509    0.34957    0.08532    1.000
    C444     C        0.63490    0.32114    0.05064    1.000
    C445     C        0.63120    0.25890    0.03899    1.000
    H619     H        0.66910    0.24360    0.03550    1.000
    H620     H        0.61180    0.23920    0.06410    1.000
    H621     H        0.61050    0.25400    0.00990    1.000
    C446     C        0.93116    0.03950    0.18780    1.000
    H622     H        0.96260    0.03990    0.20970    1.000
    H623     H        0.92580    0.00140    0.17590    1.000
    H624     H        0.93920    0.06480    0.16180    1.000
    C447     C        0.87804    0.05863    0.21260    1.000
    C448     C        0.84023    0.03043    0.24242    1.000
    C449     C        0.79799    0.07064    0.25352    1.000
    C450     C        0.74591    0.06374    0.28334    1.000
    H625     H        0.71310    0.05930    0.26320    1.000
    H626     H        0.75000    0.03050    0.30310    1.000
    H627     H        0.74110    0.09700    0.30290    1.000
    N175     N        0.73859    0.27654    0.18339    1.000
    N176     N        0.78233    0.29385    0.15538    1.000
    H628     H        0.81780    0.28710    0.16140    1.000
    N177     N        0.60453    0.36081    0.02674    1.000
    H629     H        0.58280    0.35320    0.00300    1.000
    N178     N        0.61222    0.41378    0.04442    1.000
    N179     N        0.80904    0.12055    0.23263    1.000
    N180     N        0.85811    0.11204    0.20779    1.000
    H630     H        0.87450    0.13790    0.19090    1.000
    Ag31     Ag       0.25306    0.30702    0.22347    1.000
    C451     C        0.19611    0.15390    0.08128    1.000
    H631     H        0.15980    0.17290    0.08370    1.000
    H632     H        0.21170    0.15980    0.05020    1.000
    H633     H        0.19100    0.11360    0.08670    1.000
    C452     C        0.23590    0.17745    0.11730    1.000
    C453     C        0.29517    0.17589    0.11997    1.000
    C454     C        0.30893    0.20473    0.16181    1.000
    C455     C        0.36678    0.21470    0.18245    1.000
    H634     H        0.36340    0.22070    0.21600    1.000
    H635     H        0.39050    0.18190    0.17660    1.000
    H636     H        0.38370    0.24780    0.16800    1.000
    C456     C        0.33150    0.04302    0.10899    1.000
    H637     H        0.34450    0.04750    0.14110    1.000
    H638     H        0.29050    0.04120    0.10860    1.000
    H639     H        0.34690    0.00840    0.09590    1.000
    C457     C        0.35089    0.09249    0.08020    1.000
    C458     C        0.33491    0.15043    0.08532    1.000
    C459     C        0.36510    0.17886    0.05064    1.000
    C460     C        0.36880    0.24110    0.03899    1.000
    H640     H        0.33090    0.25640    0.03550    1.000
    H641     H        0.38820    0.26080    0.06410    1.000
    H642     H        0.38950    0.24600    0.00990    1.000
    C461     C        0.06884    0.46050    0.18780    1.000
    H643     H        0.03740    0.46010    0.20970    1.000
    H644     H        0.07420    0.49860    0.17590    1.000
    H645     H        0.06080    0.43520    0.16180    1.000
    C462     C        0.12196    0.44137    0.21260    1.000
    C463     C        0.15977    0.46957    0.24242    1.000
    C464     C        0.20201    0.42936    0.25352    1.000
    C465     C        0.25409    0.43626    0.28334    1.000
    H646     H        0.28690    0.44070    0.26320    1.000
    H647     H        0.25000    0.46950    0.30310    1.000
    H648     H        0.25890    0.40300    0.30290    1.000
    N181     N        0.26141    0.22346    0.18339    1.000
    N182     N        0.21767    0.20615    0.15538    1.000
    H649     H        0.18220    0.21290    0.16140    1.000
    N183     N        0.39547    0.13919    0.02674    1.000
    H650     H        0.41720    0.14680    0.00300    1.000
    N184     N        0.38778    0.08622    0.04442    1.000
    N185     N        0.19096    0.37945    0.23263    1.000
    N186     N        0.14189    0.38796    0.20779    1.000
    H651     H        0.12550    0.36210    0.19090    1.000
    Ag32     Ag       0.75306    0.80702    0.72347    1.000
    C466     C        0.69611    0.65390    0.58128    1.000
    H652     H        0.65980    0.67290    0.58370    1.000
    H653     H        0.71170    0.65980    0.55020    1.000
    H654     H        0.69100    0.61360    0.58670    1.000
    C467     C        0.73590    0.67745    0.61730    1.000
    C468     C        0.79517    0.67589    0.61997    1.000
    C469     C        0.80893    0.70473    0.66181    1.000
    C470     C        0.86678    0.71470    0.68245    1.000
    H655     H        0.86340    0.72070    0.71600    1.000
    H656     H        0.89050    0.68190    0.67660    1.000
    H657     H        0.88370    0.74780    0.66800    1.000
    C471     C        0.83150    0.54302    0.60899    1.000
    H658     H        0.84450    0.54750    0.64110    1.000
    H659     H        0.79050    0.54120    0.60860    1.000
    H660     H        0.84690    0.50840    0.59590    1.000
    C472     C        0.85089    0.59249    0.58020    1.000
    C473     C        0.83491    0.65043    0.58532    1.000
    C474     C        0.86510    0.67886    0.55064    1.000
    C475     C        0.86880    0.74110    0.53899    1.000
    H661     H        0.83090    0.75640    0.53550    1.000
    H662     H        0.88820    0.76080    0.56410    1.000
    H663     H        0.88950    0.74600    0.50990    1.000
    C476     C        0.56884    0.96050    0.68780    1.000
    H664     H        0.53740    0.96010    0.70970    1.000
    H665     H        0.57420    0.99860    0.67590    1.000
    H666     H        0.56080    0.93520    0.66180    1.000
    C477     C        0.62196    0.94137    0.71260    1.000
    C478     C        0.65977    0.96957    0.74242    1.000
    C479     C        0.70201    0.92936    0.75352    1.000
    C480     C        0.75409    0.93626    0.78334    1.000
    H667     H        0.78690    0.94070    0.76320    1.000
    H668     H        0.75000    0.96950    0.80310    1.000
    H669     H        0.75890    0.90300    0.80290    1.000
    N187     N        0.76141    0.72346    0.68339    1.000
    N188     N        0.71767    0.70615    0.65538    1.000
    H670     H        0.68220    0.71290    0.66140    1.000
    N189     N        0.89547    0.63919    0.52674    1.000
    H671     H        0.91720    0.64680    0.50300    1.000
    N190     N        0.88778    0.58622    0.54442    1.000
    N191     N        0.69096    0.87945    0.73263    1.000
    N192     N        0.64189    0.88796    0.70779    1.000
    H672     H        0.62550    0.86210    0.69090    1.000
