# CIF file generated by openbabel 3.1.0, see https://openbabel.org
data_I
_chemical_name_common 'image0'
_cell_length_a 15.8635
_cell_length_b 15.8635
_cell_length_c 21.463
_cell_angle_alpha 90
_cell_angle_beta 90
_cell_angle_gamma 90
_space_group_name_H-M_alt 'P 1'
_space_group_name_Hall 'P 1'
loop_
    _symmetry_equiv_pos_as_xyz
    x,y,z
loop_
    _atom_site_label
    _atom_site_type_symbol
    _atom_site_fract_x
    _atom_site_fract_y
    _atom_site_fract_z
    _atom_site_occupancy
    C1       C        0.64070    0.58900    0.64090    1.000
    H1       H        0.61160    0.53880    0.65200    1.000
    C2       C        0.70210    0.61820    0.68090    1.000
    H2       H        0.71480    0.58810    0.71800    1.000
    C3       C        0.74570    0.69210    0.66650    1.000
    C4       C        0.71730    0.73540    0.61380    1.000
    H3       H        0.74040    0.78910    0.60410    1.000
    C5       C        0.65670    0.70140    0.57620    1.000
    H4       H        0.64000    0.73200    0.54020    1.000
    C6       C        0.81830    0.72250    0.70370    1.000
    C7       C        0.83560    0.69240    0.76290    1.000
    H5       H        0.79940    0.65160    0.78120    1.000
    C8       C        0.90450    0.72090    0.79560    1.000
    H6       H        0.91550    0.69940    0.83620    1.000
    C9       C        0.95910    0.78160    0.76960    1.000
    H7       H        0.00710    0.80090    0.79190    1.000
    C10      C        0.94090    0.81240    0.71060    1.000
    C11      C        0.87190    0.78370    0.67830    1.000
    H8       H        0.86020    0.80580    0.63800    1.000
    C12      C        0.99620    0.87470    0.68000    1.000
    C13      C        0.09270    0.92590    0.61730    1.000
    C14      C        0.16240    0.93450    0.57310    1.000
    C15      C        0.16590    0.00650    0.53670    1.000
    H9       H        0.12240    0.04750    0.53930    1.000
    C16      C        0.23240    0.01830    0.49710    1.000
    H10      H        0.23540    0.06840    0.47300    1.000
    C17      C        0.29470    0.95880    0.49160    1.000
    H11      H        0.33900    0.96690    0.46240    1.000
    C18      C        0.29320    0.88660    0.52860    1.000
    C19      C        0.22620    0.87510    0.56860    1.000
    H12      H        0.22360    0.82560    0.59340    1.000
    C20      C        0.35940    0.81950    0.52190    1.000
    C21      C        0.40680    0.81160    0.46780    1.000
    H13      H        0.40080    0.85120    0.43500    1.000
    C22      C        0.46300    0.74500    0.46240    1.000
    H14      H        0.49430    0.73990    0.42480    1.000
    C23      C        0.43140    0.69770    0.55940    1.000
    H15      H        0.43930    0.65800    0.59210    1.000
    C24      C        0.37460    0.76270    0.56870    1.000
    H16      H        0.34610    0.76790    0.60740    1.000
    N1       N        0.61940    0.62670    0.58770    1.000
    N2       N        0.99360    0.95650    0.68310    1.000
    N3       N        0.05440    0.98950    0.64410    1.000
    N4       N        0.05740    0.85280    0.63884    1.000
    N5       N        0.07630    0.77040    0.61780    1.000
    H17      H        0.10220    0.74140    0.64890    1.000
    H18      H        0.02760    0.74380    0.60720    1.000
    N6       N        0.47570    0.68770    0.50700    1.000
    C25      C        0.35930    0.41100    0.14090    1.000
    H19      H        0.38840    0.46120    0.15200    1.000
    C26      C        0.29790    0.38180    0.18090    1.000
    H20      H        0.28520    0.41190    0.21800    1.000
    C27      C        0.25430    0.30790    0.16650    1.000
    C28      C        0.28270    0.26460    0.11380    1.000
    H21      H        0.25960    0.21090    0.10410    1.000
    C29      C        0.34330    0.29860    0.07620    1.000
    H22      H        0.36000    0.26800    0.04020    1.000
    C30      C        0.18170    0.27750    0.20370    1.000
    C31      C        0.16440    0.30760    0.26290    1.000
    H23      H        0.20060    0.34840    0.28120    1.000
    C32      C        0.09550    0.27910    0.29560    1.000
    H24      H        0.08450    0.30060    0.33620    1.000
    C33      C        0.04090    0.21840    0.26960    1.000
    H25      H        0.99290    0.19910    0.29190    1.000
    C34      C        0.05910    0.18760    0.21060    1.000
    C35      C        0.12810    0.21630    0.17830    1.000
    H26      H        0.13980    0.19420    0.13800    1.000
    C36      C        0.00380    0.12530    0.18000    1.000
    C37      C        0.90730    0.07410    0.11730    1.000
    C38      C        0.83760    0.06550    0.07310    1.000
    C39      C        0.83410    0.99350    0.03670    1.000
    H27      H        0.87760    0.95250    0.03930    1.000
    C40      C        0.76760    0.98170    0.99710    1.000
    H28      H        0.76460    0.93160    0.97300    1.000
    C41      C        0.70530    0.04120    0.99160    1.000
    H29      H        0.66100    0.03310    0.96240    1.000
    C42      C        0.70680    0.11340    0.02860    1.000
    C43      C        0.77380    0.12490    0.06860    1.000
    H30      H        0.77640    0.17440    0.09340    1.000
    C44      C        0.64060    0.18050    0.02190    1.000
    C45      C        0.59320    0.18840    0.96780    1.000
    H31      H        0.59920    0.14880    0.93500    1.000
    C46      C        0.53700    0.25500    0.96240    1.000
    H32      H        0.50570    0.26010    0.92480    1.000
    C47      C        0.56860    0.30230    0.05940    1.000
    H33      H        0.56070    0.34200    0.09210    1.000
    C48      C        0.62540    0.23730    0.06870    1.000
    H34      H        0.65390    0.23210    0.10740    1.000
    N7       N        0.38060    0.37330    0.08770    1.000
    N8       N        0.00640    0.04350    0.18310    1.000
    N9       N        0.94560    0.01050    0.14410    1.000
    N10      N        0.94260    0.14720    0.13884    1.000
    N11      N        0.92370    0.22960    0.11780    1.000
    H35      H        0.89780    0.25860    0.14890    1.000
    H36      H        0.97240    0.25620    0.10720    1.000
    N12      N        0.52430    0.31230    0.00700    1.000
    C49      C        0.91100    0.14070    0.89090    1.000
    H37      H        0.96120    0.11160    0.90200    1.000
    C50      C        0.88180    0.20210    0.93090    1.000
    H38      H        0.91190    0.21480    0.96800    1.000
    C51      C        0.80790    0.24570    0.91650    1.000
    C52      C        0.76460    0.21730    0.86380    1.000
    H39      H        0.71090    0.24040    0.85410    1.000
    C53      C        0.79860    0.15670    0.82620    1.000
    H40      H        0.76800    0.14000    0.79020    1.000
    C54      C        0.77750    0.31830    0.95370    1.000
    C55      C        0.80760    0.33560    0.01290    1.000
    H41      H        0.84840    0.29940    0.03120    1.000
    C56      C        0.77910    0.40450    0.04560    1.000
    H42      H        0.80060    0.41550    0.08620    1.000
    C57      C        0.71840    0.45910    0.01960    1.000
    H43      H        0.69910    0.50710    0.04190    1.000
    C58      C        0.68760    0.44090    0.96060    1.000
    C59      C        0.71630    0.37190    0.92830    1.000
    H44      H        0.69420    0.36020    0.88800    1.000
    C60      C        0.62530    0.49620    0.93000    1.000
    C61      C        0.57410    0.59270    0.86730    1.000
    C62      C        0.56550    0.66240    0.82310    1.000
    C63      C        0.49350    0.66590    0.78670    1.000
    H45      H        0.45250    0.62240    0.78930    1.000
    C64      C        0.48170    0.73240    0.74710    1.000
    H46      H        0.43160    0.73540    0.72300    1.000
    C65      C        0.54120    0.79470    0.74160    1.000
    H47      H        0.53310    0.83900    0.71240    1.000
    C66      C        0.61340    0.79320    0.77860    1.000
    C67      C        0.62490    0.72620    0.81860    1.000
    H48      H        0.67440    0.72360    0.84340    1.000
    C68      C        0.68050    0.85940    0.77190    1.000
    C69      C        0.68840    0.90680    0.71780    1.000
    H49      H        0.64880    0.90080    0.68500    1.000
    C70      C        0.75500    0.96300    0.71240    1.000
    H50      H        0.76010    0.99430    0.67480    1.000
    C71      C        0.80230    0.93140    0.80940    1.000
    H51      H        0.84200    0.93930    0.84210    1.000
    C72      C        0.73730    0.87460    0.81870    1.000
    H52      H        0.73210    0.84610    0.85740    1.000
    N13      N        0.87330    0.11940    0.83770    1.000
    N14      N        0.54350    0.49360    0.93310    1.000
    N15      N        0.51050    0.55440    0.89410    1.000
    N16      N        0.64720    0.55740    0.88884    1.000
    N17      N        0.72960    0.57630    0.86780    1.000
    H53      H        0.75860    0.60220    0.89890    1.000
    H54      H        0.75620    0.52760    0.85720    1.000
    N18      N        0.81230    0.97570    0.75700    1.000
    C73      C        0.08900    0.85930    0.39090    1.000
    H55      H        0.03880    0.88840    0.40200    1.000
    C74      C        0.11820    0.79790    0.43090    1.000
    H56      H        0.08810    0.78520    0.46800    1.000
    C75      C        0.19210    0.75430    0.41650    1.000
    C76      C        0.23540    0.78270    0.36380    1.000
    H57      H        0.28910    0.75960    0.35410    1.000
    C77      C        0.20140    0.84330    0.32620    1.000
    H58      H        0.23200    0.86000    0.29020    1.000
    C78      C        0.22250    0.68170    0.45370    1.000
    C79      C        0.19240    0.66440    0.51290    1.000
    H59      H        0.15160    0.70060    0.53120    1.000
    C80      C        0.22090    0.59550    0.54560    1.000
    H60      H        0.19940    0.58450    0.58620    1.000
    C81      C        0.28160    0.54090    0.51960    1.000
    H61      H        0.30090    0.49290    0.54190    1.000
    C82      C        0.31240    0.55910    0.46060    1.000
    C83      C        0.28370    0.62810    0.42830    1.000
    H62      H        0.30580    0.63980    0.38800    1.000
    C84      C        0.37470    0.50380    0.43000    1.000
    C85      C        0.42590    0.40730    0.36730    1.000
    C86      C        0.43450    0.33760    0.32310    1.000
    C87      C        0.50650    0.33410    0.28670    1.000
    H63      H        0.54750    0.37760    0.28930    1.000
    C88      C        0.51830    0.26760    0.24710    1.000
    H64      H        0.56840    0.26460    0.22300    1.000
    C89      C        0.45880    0.20530    0.24160    1.000
    H65      H        0.46690    0.16100    0.21240    1.000
    C90      C        0.38660    0.20680    0.27860    1.000
    C91      C        0.37510    0.27380    0.31860    1.000
    H66      H        0.32560    0.27640    0.34340    1.000
    C92      C        0.31950    0.14060    0.27190    1.000
    C93      C        0.31160    0.09320    0.21780    1.000
    H67      H        0.35120    0.09920    0.18500    1.000
    C94      C        0.24500    0.03700    0.21240    1.000
    H68      H        0.23990    0.00570    0.17480    1.000
    C95      C        0.19770    0.06860    0.30940    1.000
    H69      H        0.15800    0.06070    0.34210    1.000
    C96      C        0.26270    0.12540    0.31870    1.000
    H70      H        0.26790    0.15390    0.35740    1.000
    N19      N        0.12670    0.88060    0.33770    1.000
    N20      N        0.45650    0.50640    0.43310    1.000
    N21      N        0.48950    0.44560    0.39410    1.000
    N22      N        0.35280    0.44260    0.38884    1.000
    N23      N        0.27040    0.42370    0.36780    1.000
    H71      H        0.24140    0.39780    0.39890    1.000
    H72      H        0.24380    0.47240    0.35720    1.000
    N24      N        0.18770    0.02430    0.25700    1.000
    C97      C        0.85930    0.08900    0.60910    1.000
    H73      H        0.88840    0.03880    0.59800    1.000
    C98      C        0.79790    0.11820    0.56910    1.000
    H74      H        0.78520    0.08810    0.53200    1.000
    C99      C        0.75430    0.19210    0.58350    1.000
    C100     C        0.78270    0.23540    0.63620    1.000
    H75      H        0.75960    0.28910    0.64590    1.000
    C101     C        0.84330    0.20140    0.67380    1.000
    H76      H        0.86000    0.23200    0.70980    1.000
    C102     C        0.68170    0.22250    0.54630    1.000
    C103     C        0.66440    0.19240    0.48710    1.000
    H77      H        0.70060    0.15160    0.46880    1.000
    C104     C        0.59550    0.22090    0.45440    1.000
    H78      H        0.58450    0.19940    0.41380    1.000
    C105     C        0.54090    0.28160    0.48040    1.000
    H79      H        0.49290    0.30090    0.45810    1.000
    C106     C        0.55910    0.31240    0.53940    1.000
    C107     C        0.62810    0.28370    0.57170    1.000
    H80      H        0.63980    0.30580    0.61200    1.000
    C108     C        0.50380    0.37470    0.57000    1.000
    C109     C        0.40730    0.42590    0.63270    1.000
    C110     C        0.33760    0.43450    0.67690    1.000
    C111     C        0.33410    0.50650    0.71330    1.000
    H81      H        0.37760    0.54750    0.71070    1.000
    C112     C        0.26760    0.51830    0.75290    1.000
    H82      H        0.26460    0.56840    0.77700    1.000
    C113     C        0.20530    0.45880    0.75840    1.000
    H83      H        0.16100    0.46690    0.78760    1.000
    C114     C        0.20680    0.38660    0.72140    1.000
    C115     C        0.27380    0.37510    0.68140    1.000
    H84      H        0.27640    0.32560    0.65660    1.000
    C116     C        0.14060    0.31950    0.72810    1.000
    C117     C        0.09320    0.31160    0.78220    1.000
    H85      H        0.09920    0.35120    0.81500    1.000
    C118     C        0.03700    0.24500    0.78760    1.000
    H86      H        0.00570    0.23990    0.82520    1.000
    C119     C        0.06860    0.19770    0.69060    1.000
    H87      H        0.06070    0.15800    0.65790    1.000
    C120     C        0.12540    0.26270    0.68130    1.000
    H88      H        0.15390    0.26790    0.64260    1.000
    N25      N        0.88060    0.12670    0.66230    1.000
    N26      N        0.50640    0.45650    0.56690    1.000
    N27      N        0.44560    0.48950    0.60590    1.000
    N28      N        0.44260    0.35280    0.61116    1.000
    N29      N        0.42370    0.27040    0.63220    1.000
    H89      H        0.39780    0.24140    0.60110    1.000
    H90      H        0.47240    0.24380    0.64280    1.000
    N30      N        0.02430    0.18770    0.74300    1.000
    C121     C        0.14070    0.91100    0.10910    1.000
    H91      H        0.11160    0.96120    0.09800    1.000
    C122     C        0.20210    0.88180    0.06910    1.000
    H92      H        0.21480    0.91190    0.03200    1.000
    C123     C        0.24570    0.80790    0.08350    1.000
    C124     C        0.21730    0.76460    0.13620    1.000
    H93      H        0.24040    0.71090    0.14590    1.000
    C125     C        0.15670    0.79860    0.17380    1.000
    H94      H        0.14000    0.76800    0.20980    1.000
    C126     C        0.31830    0.77750    0.04630    1.000
    C127     C        0.33560    0.80760    0.98710    1.000
    H95      H        0.29940    0.84840    0.96880    1.000
    C128     C        0.40450    0.77910    0.95440    1.000
    H96      H        0.41550    0.80060    0.91380    1.000
    C129     C        0.45910    0.71840    0.98040    1.000
    H97      H        0.50710    0.69910    0.95810    1.000
    C130     C        0.44090    0.68760    0.03940    1.000
    C131     C        0.37190    0.71630    0.07170    1.000
    H98      H        0.36020    0.69420    0.11200    1.000
    C132     C        0.49620    0.62530    0.07000    1.000
    C133     C        0.59270    0.57410    0.13270    1.000
    C134     C        0.66240    0.56550    0.17690    1.000
    C135     C        0.66590    0.49350    0.21330    1.000
    H99      H        0.62240    0.45250    0.21070    1.000
    C136     C        0.73240    0.48170    0.25290    1.000
    H100     H        0.73540    0.43160    0.27700    1.000
    C137     C        0.79470    0.54120    0.25840    1.000
    H101     H        0.83900    0.53310    0.28760    1.000
    C138     C        0.79320    0.61340    0.22140    1.000
    C139     C        0.72620    0.62490    0.18140    1.000
    H102     H        0.72360    0.67440    0.15660    1.000
    C140     C        0.85940    0.68050    0.22810    1.000
    C141     C        0.90680    0.68840    0.28220    1.000
    H103     H        0.90080    0.64880    0.31500    1.000
    C142     C        0.96300    0.75500    0.28760    1.000
    H104     H        0.99430    0.76010    0.32520    1.000
    C143     C        0.93140    0.80230    0.19060    1.000
    H105     H        0.93930    0.84200    0.15790    1.000
    C144     C        0.87460    0.73730    0.18130    1.000
    H106     H        0.84610    0.73210    0.14260    1.000
    N31      N        0.11940    0.87330    0.16230    1.000
    N32      N        0.49360    0.54350    0.06690    1.000
    N33      N        0.55440    0.51050    0.10590    1.000
    N34      N        0.55740    0.64720    0.11116    1.000
    N35      N        0.57630    0.72960    0.13220    1.000
    H107     H        0.60220    0.75860    0.10110    1.000
    H108     H        0.52760    0.75620    0.14280    1.000
    N36      N        0.97570    0.81230    0.24300    1.000
    C145     C        0.58900    0.64070    0.35910    1.000
    H109     H        0.53880    0.61160    0.34800    1.000
    C146     C        0.61820    0.70210    0.31910    1.000
    H110     H        0.58810    0.71480    0.28200    1.000
    C147     C        0.69210    0.74570    0.33350    1.000
    C148     C        0.73540    0.71730    0.38620    1.000
    H111     H        0.78910    0.74040    0.39590    1.000
    C149     C        0.70140    0.65670    0.42380    1.000
    H112     H        0.73200    0.64000    0.45980    1.000
    C150     C        0.72250    0.81830    0.29630    1.000
    C151     C        0.69240    0.83560    0.23710    1.000
    H113     H        0.65160    0.79940    0.21880    1.000
    C152     C        0.72090    0.90450    0.20440    1.000
    H114     H        0.69940    0.91550    0.16380    1.000
    C153     C        0.78160    0.95910    0.23040    1.000
    H115     H        0.80090    0.00710    0.20810    1.000
    C154     C        0.81240    0.94090    0.28940    1.000
    C155     C        0.78370    0.87190    0.32170    1.000
    H116     H        0.80580    0.86020    0.36200    1.000
    C156     C        0.87470    0.99620    0.32000    1.000
    C157     C        0.92590    0.09270    0.38270    1.000
    C158     C        0.93450    0.16240    0.42690    1.000
    C159     C        0.00650    0.16590    0.46330    1.000
    H117     H        0.04750    0.12240    0.46070    1.000
    C160     C        0.01830    0.23240    0.50290    1.000
    H118     H        0.06840    0.23540    0.52700    1.000
    C161     C        0.95880    0.29470    0.50840    1.000
    H119     H        0.96690    0.33900    0.53760    1.000
    C162     C        0.88660    0.29320    0.47140    1.000
    C163     C        0.87510    0.22620    0.43140    1.000
    H120     H        0.82560    0.22360    0.40660    1.000
    C164     C        0.81950    0.35940    0.47810    1.000
    C165     C        0.81160    0.40680    0.53220    1.000
    H121     H        0.85120    0.40080    0.56500    1.000
    C166     C        0.74500    0.46300    0.53760    1.000
    H122     H        0.73990    0.49430    0.57520    1.000
    C167     C        0.69770    0.43140    0.44060    1.000
    H123     H        0.65800    0.43930    0.40790    1.000
    C168     C        0.76270    0.37460    0.43130    1.000
    H124     H        0.76790    0.34610    0.39260    1.000
    N37      N        0.62670    0.61940    0.41230    1.000
    N38      N        0.95650    0.99360    0.31690    1.000
    N39      N        0.98950    0.05440    0.35590    1.000
    N40      N        0.85280    0.05740    0.36116    1.000
    N41      N        0.77040    0.07630    0.38220    1.000
    H125     H        0.74140    0.10220    0.35110    1.000
    H126     H        0.74380    0.02760    0.39280    1.000
    N42      N        0.68770    0.47570    0.49300    1.000
    C169     C        0.41100    0.35930    0.85910    1.000
    H127     H        0.46120    0.38840    0.84800    1.000
    C170     C        0.38180    0.29790    0.81910    1.000
    H128     H        0.41190    0.28520    0.78200    1.000
    C171     C        0.30790    0.25430    0.83350    1.000
    C172     C        0.26460    0.28270    0.88620    1.000
    H129     H        0.21090    0.25960    0.89590    1.000
    C173     C        0.29860    0.34330    0.92380    1.000
    H130     H        0.26800    0.36000    0.95980    1.000
    C174     C        0.27750    0.18170    0.79630    1.000
    C175     C        0.30760    0.16440    0.73710    1.000
    H131     H        0.34840    0.20060    0.71880    1.000
    C176     C        0.27910    0.09550    0.70440    1.000
    H132     H        0.30060    0.08450    0.66380    1.000
    C177     C        0.21840    0.04090    0.73040    1.000
    H133     H        0.19910    0.99290    0.70810    1.000
    C178     C        0.18760    0.05910    0.78940    1.000
    C179     C        0.21630    0.12810    0.82170    1.000
    H134     H        0.19420    0.13980    0.86200    1.000
    C180     C        0.12530    0.00380    0.82000    1.000
    C181     C        0.07410    0.90730    0.88270    1.000
    C182     C        0.06550    0.83760    0.92690    1.000
    C183     C        0.99350    0.83410    0.96330    1.000
    H135     H        0.95250    0.87760    0.96070    1.000
    C184     C        0.98170    0.76760    0.00290    1.000
    H136     H        0.93160    0.76460    0.02700    1.000
    C185     C        0.04120    0.70530    0.00840    1.000
    H137     H        0.03310    0.66100    0.03760    1.000
    C186     C        0.11340    0.70680    0.97140    1.000
    C187     C        0.12490    0.77380    0.93140    1.000
    H138     H        0.17440    0.77640    0.90660    1.000
    C188     C        0.18050    0.64060    0.97810    1.000
    C189     C        0.18840    0.59320    0.03220    1.000
    H139     H        0.14880    0.59920    0.06500    1.000
    C190     C        0.25500    0.53700    0.03760    1.000
    H140     H        0.26010    0.50570    0.07520    1.000
    C191     C        0.30230    0.56860    0.94060    1.000
    H141     H        0.34200    0.56070    0.90790    1.000
    C192     C        0.23730    0.62540    0.93130    1.000
    H142     H        0.23210    0.65390    0.89260    1.000
    N43      N        0.37330    0.38060    0.91230    1.000
    N44      N        0.04350    0.00640    0.81690    1.000
    N45      N        0.01050    0.94560    0.85590    1.000
    N46      N        0.14720    0.94260    0.86116    1.000
    N47      N        0.22960    0.92370    0.88220    1.000
    H143     H        0.25860    0.89780    0.85110    1.000
    H144     H        0.25620    0.97240    0.89280    1.000
    N48      N        0.31230    0.52430    0.99300    1.000
    Cd1      Cd       0.94063    0.05937    0.75000    1.000
    Cd2      Cd       0.05937    0.94063    0.25000    1.000
    Cd3      Cd       0.44063    0.44063    0.00000    1.000
    Cd4      Cd       0.55937    0.55937    0.50000    1.000
