# CIF file generated by openbabel 3.1.0, see https://openbabel.org
data_I
_chemical_name_common 'DOQRUW_clean'
_cell_length_a 8.648
_cell_length_b 11.6612
_cell_length_c 18.493
_cell_angle_alpha 102.037
_cell_angle_beta 90
_cell_angle_gamma 90
_space_group_name_H-M_alt 'P 1'
_space_group_name_Hall 'P 1'
loop_
    _symmetry_equiv_pos_as_xyz
    x,y,z
loop_
    _atom_site_label
    _atom_site_type_symbol
    _atom_site_fract_x
    _atom_site_fract_y
    _atom_site_fract_z
    _atom_site_occupancy
    Mn1      Mn       0.79378    0.94163    0.16580    1.000
    Mn2      Mn       0.29378    0.05837    0.33420    1.000
    Mn3      Mn       0.20622    0.05837    0.83420    1.000
    Mn4      Mn       0.70622    0.94163    0.66580    1.000
    H1       H        0.65100    0.88000    0.88600    1.000
    H2       H        0.90800    0.01700    0.93700    1.000
    H3       H        0.63800    0.70300    0.09620    1.000
    H4       H        0.63800    0.50900    0.09760    1.000
    H5       H        0.97000    0.56400    0.24300    1.000
    H6       H        0.96700    0.75200    0.24000    1.000
    H7       H        0.65000    0.12800    0.07800    1.000
    H8       H        0.64500    0.32500    0.08360    1.000
    H9       H        0.95000    0.37200    0.24960    1.000
    H10      H        0.94700    0.17500    0.24800    1.000
    H11      H        0.15100    0.12000    0.61400    1.000
    H12      H        0.40800    0.98300    0.56300    1.000
    H13      H        0.13800    0.29700    0.40380    1.000
    H14      H        0.13800    0.49100    0.40240    1.000
    H15      H        0.47000    0.43600    0.25700    1.000
    H16      H        0.46700    0.24800    0.26000    1.000
    H17      H        0.15000    0.87200    0.42200    1.000
    H18      H        0.14500    0.67500    0.41640    1.000
    H19      H        0.45000    0.62800    0.25040    1.000
    H20      H        0.44700    0.82500    0.25200    1.000
    H21      H        0.34900    0.12000    0.11400    1.000
    H22      H        0.09200    0.98300    0.06300    1.000
    H23      H        0.36200    0.29700    0.90380    1.000
    H24      H        0.36200    0.49100    0.90240    1.000
    H25      H        0.03000    0.43600    0.75700    1.000
    H26      H        0.03300    0.24800    0.76000    1.000
    H27      H        0.35000    0.87200    0.92200    1.000
    H28      H        0.35500    0.67500    0.91640    1.000
    H29      H        0.05000    0.62800    0.75040    1.000
    H30      H        0.05300    0.82500    0.75200    1.000
    H31      H        0.84900    0.88000    0.38600    1.000
    H32      H        0.59200    0.01700    0.43700    1.000
    H33      H        0.86200    0.70300    0.59620    1.000
    H34      H        0.86200    0.50900    0.59760    1.000
    H35      H        0.53000    0.56400    0.74300    1.000
    H36      H        0.53300    0.75200    0.74000    1.000
    H37      H        0.85000    0.12800    0.57800    1.000
    H38      H        0.85500    0.32500    0.58360    1.000
    H39      H        0.55000    0.37200    0.74960    1.000
    H40      H        0.55300    0.17500    0.74800    1.000
    C1       C        0.69590    0.88630    0.99800    1.000
    C2       C        0.72420    0.90960    0.92312    1.000
    C3       C        0.83300    0.97660    0.90440    1.000
    C4       C        0.84280    0.00350    0.82892    1.000
    C5       C        0.70760    0.67270    0.12690    1.000
    C6       C        0.70250    0.55470    0.12610    1.000
    C7       C        0.80150    0.50650    0.16958    1.000
    C8       C        0.90050    0.58400    0.21390    1.000
    C9       C        0.89870    0.70120    0.21110    1.000
    C10      C        0.71350    0.18260    0.11930    1.000
    C11      C        0.70980    0.29990    0.11930    1.000
    C12      C        0.80080    0.37860    0.16831    1.000
    C13      C        0.89070    0.32960    0.21570    1.000
    C14      C        0.88690    0.21070    0.21330    1.000
    C15      C        0.19590    0.11370    0.50200    1.000
    C16      C        0.22420    0.09040    0.57688    1.000
    C17      C        0.33300    0.02340    0.59560    1.000
    C18      C        0.34280    0.99650    0.67108    1.000
    C19      C        0.20760    0.32730    0.37310    1.000
    C20      C        0.20250    0.44530    0.37390    1.000
    C21      C        0.30150    0.49350    0.33042    1.000
    C22      C        0.40050    0.41600    0.28610    1.000
    C23      C        0.39870    0.29880    0.28890    1.000
    C24      C        0.21350    0.81740    0.38070    1.000
    C25      C        0.20980    0.70010    0.38070    1.000
    C26      C        0.30080    0.62140    0.33169    1.000
    C27      C        0.39070    0.67040    0.28430    1.000
    C28      C        0.38690    0.78930    0.28670    1.000
    C29      C        0.30410    0.11370    0.00200    1.000
    C30      C        0.27580    0.09040    0.07688    1.000
    C31      C        0.16700    0.02340    0.09560    1.000
    C32      C        0.15720    0.99650    0.17108    1.000
    C33      C        0.29240    0.32730    0.87310    1.000
    C34      C        0.29750    0.44530    0.87390    1.000
    C35      C        0.19850    0.49350    0.83042    1.000
    C36      C        0.09950    0.41600    0.78610    1.000
    C37      C        0.10130    0.29880    0.78890    1.000
    C38      C        0.28650    0.81740    0.88070    1.000
    C39      C        0.29020    0.70010    0.88070    1.000
    C40      C        0.19920    0.62140    0.83169    1.000
    C41      C        0.10930    0.67040    0.78430    1.000
    C42      C        0.11310    0.78930    0.78670    1.000
    C43      C        0.80410    0.88630    0.49800    1.000
    C44      C        0.77580    0.90960    0.42312    1.000
    C45      C        0.66700    0.97660    0.40440    1.000
    C46      C        0.65720    0.00350    0.32892    1.000
    C47      C        0.79240    0.67270    0.62690    1.000
    C48      C        0.79750    0.55470    0.62610    1.000
    C49      C        0.69850    0.50650    0.66958    1.000
    C50      C        0.59950    0.58400    0.71390    1.000
    C51      C        0.60130    0.70120    0.71110    1.000
    C52      C        0.78650    0.18260    0.61930    1.000
    C53      C        0.79020    0.29990    0.61930    1.000
    C54      C        0.69920    0.37860    0.66831    1.000
    C55      C        0.60930    0.32960    0.71570    1.000
    C56      C        0.61310    0.21070    0.71330    1.000
    N1       N        0.80340    0.74690    0.16812    1.000
    N2       N        0.79890    0.13690    0.16616    1.000
    N3       N        0.30340    0.25310    0.33188    1.000
    N4       N        0.29890    0.86310    0.33384    1.000
    N5       N        0.19660    0.25310    0.83188    1.000
    N6       N        0.20110    0.86310    0.83384    1.000
    N7       N        0.69660    0.74690    0.66812    1.000
    N8       N        0.70110    0.13690    0.66616    1.000
    O1       O        0.80250    0.90866    0.04601    1.000
    O2       O        0.56560    0.84590    0.00891    1.000
    O3       O        0.72960    0.97577    0.78589    1.000
    O4       O        0.96260    0.05279    0.81215    1.000
    O5       O        0.30250    0.09134    0.45399    1.000
    O6       O        0.06560    0.15410    0.49109    1.000
    O7       O        0.22960    0.02423    0.71411    1.000
    O8       O        0.46260    0.94721    0.68785    1.000
    O9       O        0.19750    0.09134    0.95399    1.000
    O10      O        0.43440    0.15410    0.99109    1.000
    O11      O        0.27040    0.02423    0.21411    1.000
    O12      O        0.03740    0.94721    0.18785    1.000
    O13      O        0.69750    0.90866    0.54601    1.000
    O14      O        0.93440    0.84590    0.50891    1.000
    O15      O        0.77040    0.97577    0.28589    1.000
    O16      O        0.53740    0.05279    0.31215    1.000
