data_functionalizedCrystal
_audit_creation_method	'EQeq! by Chris Wilmer'
_symmetry_space_group_name_H-M	'P1'
_symmetry_Int_Tables_number	1
_symmetry_cell_setting	triclinic
loop_
_symmetry_equiv_pos_as_xyz
  x,y,z
_cell_length_a	28.166
_cell_length_b	28.166
_cell_length_c	9.7199
_cell_angle_alpha	90
_cell_angle_beta	90
_cell_angle_gamma	90
loop_
_atom_site_label
_atom_site_type_symbol
_atom_site_fract_x
_atom_site_fract_y
_atom_site_fract_z
_atom_site_charge
Mof_O 	O 	0.98589	0.43865	0.6638	-0.397
Mof_O 	O 	0.04323	0.4452	0.5104	-0.267
Mof_O 	O 	0.09461	0.30062	0.2538	-0.384
Mof_O 	O 	0.0575	0.23396	0.2848	-0.333
Mof_O 	O 	0.79458	0.33712	0.4782	-0.419
Mof_O 	O 	0.74398	0.28615	0.5627	-0.437
Mof_C 	C 	0.01261	0.4227	0.5726	0.326
Mof_C 	C 	0.0626	0.2763	0.3111	0.322
Mof_C 	C 	0.0056	0.37093	0.5317	-0.087
Mof_C 	C 	0.03594	0.3492	0.4465	0.032
Mof_H 	H 	0.0615	0.3661	0.4107	0.063
Mof_C 	C 	0.02989	0.3011	0.4102	-0.089
Mof_C 	C 	0.9924	0.27617	0.4665	0.014
Mof_H 	H 	0.9893	0.2439	0.4486	0.063
Mof_C 	C 	0.95924	0.29871	0.5493	-0
Mof_C 	C 	0.96569	0.34574	0.5838	0.009
Mof_H 	H 	0.944	0.3609	0.641	0.063
Mof_C 	C 	0.7864	0.3002	0.5432	0.397
Mof_C 	C 	0.82863	0.27305	0.592	-0.066
Mof_C 	C 	0.87178	0.29283	0.5641	-0.025
Mof_H 	H 	0.8722	0.3222	0.5202	0.074
Mof_C 	C 	0.91527	0.27221	0.5965	0.009
Mof_H 	H 	0.7443	0.2602	0.6008	0.195
Mof_O 	O 	0.48589	0.93865	0.1638	-0.418
Mof_O 	O 	0.54323	0.9452	0.0104	-0.264
Mof_O 	O 	0.59461	0.80062	0.7538	-0.376
Mof_O 	O 	0.5575	0.73396	0.7848	-0.318
Mof_O 	O 	0.29458	0.83712	0.9782	-0.401
Mof_O 	O 	0.24398	0.78615	0.0627	-0.436
Mof_C 	C 	0.51261	0.9227	0.0726	0.35
Mof_C 	C 	0.5626	0.7763	0.8111	0.313
Mof_C 	C 	0.5056	0.87093	0.0317	-0.072
Mof_C 	C 	0.53594	0.8492	0.9465	0.032
Mof_H 	H 	0.5615	0.8661	0.9107	0.07
Mof_C 	C 	0.52989	0.8011	0.9102	-0.053
Mof_C 	C 	0.4924	0.77617	0.9665	-0.013
Mof_H 	H 	0.4893	0.7439	0.9486	0.07
Mof_C 	C 	0.45924	0.79871	0.0493	0.001
Mof_C 	C 	0.46569	0.84574	0.0838	-0.025
Mof_H 	H 	0.444	0.8609	0.141	0.07
Mof_C 	C 	0.2864	0.8002	0.0432	0.376
Mof_C 	C 	0.32863	0.77305	0.092	-0.058
Mof_C 	C 	0.37178	0.79283	0.0641	-0.034
Mof_H 	H 	0.3722	0.8222	0.0202	0.073
Mof_C 	C 	0.41527	0.77221	0.0965	0.013
Mof_H 	H 	0.2443	0.7602	0.1008	0.189
Mof_O 	O 	0.01411	0.56135	0.6638	-0.446
Mof_O 	O 	0.95677	0.5548	0.5104	-0.265
Mof_O 	O 	0.90539	0.69938	0.2538	-0.374
Mof_O 	O 	0.9425	0.76604	0.2848	-0.309
Mof_O 	O 	0.20542	0.66288	0.4782	-0.421
Mof_O 	O 	0.25602	0.71385	0.5627	-0.439
Mof_C 	C 	0.98739	0.5773	0.5726	0.356
Mof_C 	C 	0.9374	0.7237	0.3111	0.286
Mof_C 	C 	0.9944	0.62907	0.5317	0.014
Mof_C 	C 	0.96406	0.6508	0.4465	-0.053
Mof_H 	H 	0.9385	0.6339	0.4107	0.092
Mof_C 	C 	0.97011	0.6989	0.4102	0.028
Mof_C 	C 	0.0076	0.72383	0.4665	-0.125
Mof_H 	H 	0.0107	0.7561	0.4486	0.095
Mof_C 	C 	0.04076	0.70129	0.5493	0.075
Mof_C 	C 	0.03431	0.65426	0.5838	-0.115
Mof_H 	H 	0.056	0.6391	0.641	0.097
Mof_C 	C 	0.2136	0.6998	0.5432	0.398
Mof_C 	C 	0.17137	0.72695	0.592	-0.069
Mof_C 	C 	0.12822	0.70717	0.5641	-0.015
Mof_H 	H 	0.1278	0.6778	0.5202	0.068
Mof_C 	C 	0.08473	0.72779	0.5965	-0.012
Mof_H 	H 	0.2557	0.7398	0.6008	0.195
Mof_O 	O 	0.51411	0.06135	0.1638	-0.433
Mof_O 	O 	0.45677	0.0548	0.0104	-0.282
Mof_O 	O 	0.40539	0.19938	0.7538	-0.379
Mof_O 	O 	0.4425	0.26604	0.7848	-0.319
Mof_O 	O 	0.70542	0.16288	0.9782	-0.402
Mof_O 	O 	0.75602	0.21385	0.0627	-0.435
Mof_C 	C 	0.48739	0.0773	0.0726	0.354
Mof_C 	C 	0.4374	0.2237	0.8111	0.314
Mof_C 	C 	0.4944	0.12907	0.0317	-0.079
Mof_C 	C 	0.46406	0.1508	0.9465	0.036
Mof_H 	H 	0.4385	0.1339	0.9107	0.065
Mof_C 	C 	0.47011	0.1989	0.9102	-0.056
Mof_C 	C 	0.5076	0.22383	0.9665	-0.011
Mof_H 	H 	0.5107	0.2561	0.9486	0.07
Mof_C 	C 	0.54076	0.20129	0.0493	-0.002
Mof_C 	C 	0.53431	0.15426	0.0838	-0.022
Mof_H 	H 	0.556	0.1391	0.141	0.067
Mof_C 	C 	0.7136	0.1998	0.0432	0.375
Mof_C 	C 	0.67137	0.22695	0.092	-0.058
Mof_C 	C 	0.62822	0.20717	0.0641	-0.034
Mof_H 	H 	0.6278	0.1778	0.0202	0.072
Mof_C 	C 	0.58473	0.22779	0.0965	0.013
Mof_H 	H 	0.7557	0.2398	0.1008	0.19
Mof_O 	O 	0.43865	0.01411	0.3362	-0.446
Mof_O 	O 	0.4452	0.95677	0.4896	-0.261
Mof_O 	O 	0.30062	0.90539	0.7462	-0.368
Mof_O 	O 	0.23396	0.9425	0.7152	-0.303
Mof_O 	O 	0.33712	0.20542	0.5218	-0.421
Mof_O 	O 	0.28615	0.25602	0.4373	-0.441
Mof_C 	C 	0.4227	0.98739	0.4274	0.356
Mof_C 	C 	0.2763	0.9374	0.6889	0.285
Mof_C 	C 	0.37093	0.9944	0.4683	0.017
Mof_C 	C 	0.3492	0.96406	0.5535	-0.054
Mof_H 	H 	0.3661	0.9385	0.5893	0.095
Mof_C 	C 	0.3011	0.97011	0.5898	0.032
Mof_C 	C 	0.27617	0.0076	0.5335	-0.126
Mof_H 	H 	0.2439	0.0107	0.5514	0.097
Mof_C 	C 	0.29871	0.04076	0.4507	0.076
Mof_C 	C 	0.34574	0.03431	0.4162	-0.116
Mof_H 	H 	0.3609	0.056	0.359	0.096
Mof_C 	C 	0.3002	0.2136	0.4568	0.397
Mof_C 	C 	0.27305	0.17137	0.408	-0.07
Mof_C 	C 	0.29283	0.12822	0.4359	-0.016
Mof_H 	H 	0.3222	0.1278	0.4798	0.068
Mof_C 	C 	0.27221	0.08473	0.4035	-0.013
Mof_H 	H 	0.2602	0.2557	0.3992	0.194
Mof_O 	O 	0.93865	0.51411	0.8362	-0.41
Mof_O 	O 	0.9452	0.45677	0.9896	-0.247
Mof_O 	O 	0.80062	0.40539	0.2462	-0.374
Mof_O 	O 	0.73396	0.4425	0.2152	-0.317
Mof_O 	O 	0.83712	0.70542	0.0218	-0.44
Mof_O 	O 	0.78615	0.75602	0.9373	-0.443
Mof_C 	C 	0.9227	0.48739	0.9274	0.325
Mof_C 	C 	0.7763	0.4374	0.1889	0.291
Mof_C 	C 	0.87093	0.4944	0.9683	0.01
Mof_C 	C 	0.8492	0.46406	0.0535	-0.063
Mof_H 	H 	0.8661	0.4385	0.0893	0.093
Mof_C 	C 	0.8011	0.47011	0.0898	0.001
Mof_C 	C 	0.77617	0.5076	0.0335	-0.105
Mof_H 	H 	0.7439	0.5107	0.0514	0.091
Mof_C 	C 	0.79871	0.54076	0.9507	0.081
Mof_C 	C 	0.84574	0.53431	0.9162	-0.086
Mof_H 	H 	0.8609	0.556	0.859	0.092
Mof_C 	C 	0.8002	0.7136	0.9568	0.42
Mof_C 	C 	0.77305	0.67137	0.908	-0.078
Mof_C 	C 	0.79283	0.62822	0.9359	-0.006
Mof_H 	H 	0.8222	0.6278	0.9798	0.07
Mof_C 	C 	0.77221	0.58473	0.9035	-0.018
Mof_H 	H 	0.7602	0.7557	0.8992	0.2
Mof_O 	O 	0.56135	0.98589	0.3362	-0.398
Mof_O 	O 	0.5548	0.04323	0.4896	-0.264
Mof_O 	O 	0.69938	0.09461	0.7462	-0.379
Mof_O 	O 	0.76604	0.0575	0.7152	-0.326
Mof_O 	O 	0.66288	0.79458	0.5218	-0.42
Mof_O 	O 	0.71385	0.74398	0.4373	-0.441
Mof_C 	C 	0.5773	0.01261	0.4274	0.324
Mof_C 	C 	0.7237	0.0626	0.6889	0.32
Mof_C 	C 	0.62907	0.0056	0.4683	-0.085
Mof_C 	C 	0.6508	0.03594	0.5535	0.029
Mof_H 	H 	0.6339	0.0615	0.5893	0.065
Mof_C 	C 	0.6989	0.02989	0.5898	-0.085
Mof_C 	C 	0.72383	0.9924	0.5335	0.011
Mof_H 	H 	0.7561	0.9893	0.5514	0.066
Mof_C 	C 	0.70129	0.95924	0.4507	0.002
Mof_C 	C 	0.65426	0.96569	0.4162	0.008
Mof_H 	H 	0.6391	0.944	0.359	0.062
Mof_C 	C 	0.6998	0.7864	0.4568	0.396
Mof_C 	C 	0.72695	0.82863	0.408	-0.066
Mof_C 	C 	0.70717	0.87178	0.4359	-0.025
Mof_H 	H 	0.6778	0.8722	0.4798	0.075
Mof_C 	C 	0.72779	0.91527	0.4035	0.009
Mof_H 	H 	0.7398	0.7443	0.3992	0.194
Mof_O 	O 	0.06135	0.48589	0.8362	-0.425
Mof_O 	O 	0.0548	0.54323	0.9896	-0.264
Mof_O 	O 	0.19938	0.59461	0.2462	-0.377
Mof_O 	O 	0.26604	0.5575	0.2152	-0.318
Mof_O 	O 	0.16288	0.29458	0.0218	-0.441
Mof_O 	O 	0.21385	0.24398	0.9373	-0.445
Mof_C 	C 	0.0773	0.51261	0.9274	0.33
Mof_C 	C 	0.2237	0.5626	0.1889	0.292
Mof_C 	C 	0.12907	0.5056	0.9683	0.003
Mof_C 	C 	0.1508	0.53594	0.0535	-0.059
Mof_H 	H 	0.1339	0.5615	0.0893	0.088
Mof_C 	C 	0.1989	0.52989	0.0898	-0.003
Mof_C 	C 	0.22383	0.4924	0.0335	-0.103
Mof_H 	H 	0.2561	0.4893	0.0514	0.09
Mof_C 	C 	0.20129	0.45924	0.9507	0.078
Mof_C 	C 	0.15426	0.46569	0.9162	-0.083
Mof_H 	H 	0.1391	0.444	0.859	0.089
Mof_C 	C 	0.1998	0.2864	0.9568	0.42
Mof_C 	C 	0.22695	0.32863	0.908	-0.078
Mof_C 	C 	0.20717	0.37178	0.9359	-0.006
Mof_H 	H 	0.1778	0.3722	0.9798	0.07
Mof_C 	C 	0.22779	0.41527	0.9035	-0.018
Mof_H 	H 	0.2398	0.2443	0.8992	0.2
Mof_O 	O 	0.51411	0.43865	0.0862	-0.429
Mof_O 	O 	0.45677	0.4452	0.2396	-0.268
Mof_O 	O 	0.40539	0.30062	0.4962	-0.377
Mof_O 	O 	0.4425	0.23396	0.4652	-0.319
Mof_O 	O 	0.70542	0.33712	0.2718	-0.422
Mof_O 	O 	0.75602	0.28615	0.1873	-0.444
Mof_C 	C 	0.48739	0.4227	0.1774	0.341
Mof_C 	C 	0.4374	0.2763	0.4389	0.303
Mof_C 	C 	0.4944	0.37093	0.2183	-0.038
Mof_C 	C 	0.46406	0.3492	0.3035	-0.012
Mof_H 	H 	0.4385	0.3661	0.3393	0.078
Mof_C 	C 	0.47011	0.3011	0.3398	-0.029
Mof_C 	C 	0.5076	0.27617	0.2835	-0.059
Mof_H 	H 	0.5107	0.2439	0.3014	0.08
Mof_C 	C 	0.54076	0.29871	0.2007	0.04
Mof_C 	C 	0.53431	0.34574	0.1662	-0.055
Mof_H 	H 	0.556	0.3609	0.109	0.078
Mof_C 	C 	0.7136	0.3002	0.2068	0.4
Mof_C 	C 	0.67137	0.27305	0.158	-0.076
Mof_C 	C 	0.62822	0.29283	0.1859	-0.013
Mof_H 	H 	0.6278	0.3222	0.2298	0.068
Mof_C 	C 	0.58473	0.27221	0.1535	-0.012
Mof_H 	H 	0.7557	0.2602	0.1492	0.198
Mof_O 	O 	0.01411	0.93865	0.5862	-0.436
Mof_O 	O 	0.95677	0.9452	0.7396	-0.252
Mof_O 	O 	0.90539	0.80062	0.9962	-0.362
Mof_O 	O 	0.9425	0.73396	0.9652	-0.3
Mof_O 	O 	0.20542	0.83712	0.7718	-0.418
Mof_O 	O 	0.25602	0.78615	0.6873	-0.437
Mof_C 	C 	0.98739	0.9227	0.6774	0.352
Mof_C 	C 	0.9374	0.7763	0.9389	0.284
Mof_C 	C 	0.9944	0.87093	0.7183	0.02
Mof_C 	C 	0.96406	0.8492	0.8035	-0.056
Mof_H 	H 	0.9385	0.8661	0.8393	0.098
Mof_C 	C 	0.97011	0.8011	0.8398	0.034
Mof_C 	C 	0.0076	0.77617	0.7835	-0.126
Mof_H 	H 	0.0107	0.7439	0.8014	0.097
Mof_C 	C 	0.04076	0.79871	0.7007	0.078
Mof_C 	C 	0.03431	0.84574	0.6662	-0.116
Mof_H 	H 	0.056	0.8609	0.609	0.098
Mof_C 	C 	0.2136	0.8002	0.7068	0.397
Mof_C 	C 	0.17137	0.77305	0.658	-0.068
Mof_C 	C 	0.12822	0.79283	0.6859	-0.016
Mof_H 	H 	0.1278	0.8222	0.7298	0.07
Mof_C 	C 	0.08473	0.77221	0.6535	-0.012
Mof_H 	H 	0.2557	0.7602	0.6492	0.194
Mof_O 	O 	0.48589	0.56135	0.0862	-0.429
Mof_O 	O 	0.54323	0.5548	0.2396	-0.268
Mof_O 	O 	0.59461	0.69938	0.4962	-0.377
Mof_O 	O 	0.5575	0.76604	0.4652	-0.318
Mof_O 	O 	0.29458	0.66288	0.2718	-0.422
Mof_O 	O 	0.24398	0.71385	0.1873	-0.445
Mof_C 	C 	0.51261	0.5773	0.1774	0.341
Mof_C 	C 	0.5626	0.7237	0.4389	0.302
Mof_C 	C 	0.5056	0.62907	0.2183	-0.038
Mof_C 	C 	0.53594	0.6508	0.3035	-0.012
Mof_H 	H 	0.5615	0.6339	0.3393	0.078
Mof_C 	C 	0.52989	0.6989	0.3398	-0.029
Mof_C 	C 	0.4924	0.72383	0.2835	-0.059
Mof_H 	H 	0.4893	0.7561	0.3014	0.081
Mof_C 	C 	0.45924	0.70129	0.2007	0.04
Mof_C 	C 	0.46569	0.65426	0.1662	-0.055
Mof_H 	H 	0.444	0.6391	0.109	0.078
Mof_C 	C 	0.2864	0.6998	0.2068	0.4
Mof_C 	C 	0.32863	0.72695	0.158	-0.076
Mof_C 	C 	0.37178	0.70717	0.1859	-0.013
Mof_H 	H 	0.3722	0.6778	0.2298	0.068
Mof_C 	C 	0.41527	0.72779	0.1535	-0.012
Mof_H 	H 	0.2443	0.7398	0.1492	0.198
Mof_O 	O 	0.98589	0.06135	0.5862	-0.403
Mof_O 	O 	0.04323	0.0548	0.7396	-0.271
Mof_O 	O 	0.09461	0.19938	0.9962	-0.376
Mof_O 	O 	0.0575	0.26604	0.9652	-0.323
Mof_O 	O 	0.79458	0.16288	0.7718	-0.417
Mof_O 	O 	0.74398	0.21385	0.6873	-0.437
Mof_C 	C 	0.01261	0.0773	0.6774	0.326
Mof_C 	C 	0.0626	0.2237	0.9389	0.32
Mof_C 	C 	0.0056	0.12907	0.7183	-0.088
Mof_C 	C 	0.03594	0.1508	0.8035	0.031
Mof_H 	H 	0.0615	0.1339	0.8393	0.064
Mof_C 	C 	0.02989	0.1989	0.8398	-0.086
Mof_C 	C 	0.9924	0.22383	0.7835	0.013
Mof_H 	H 	0.9893	0.2561	0.8014	0.065
Mof_C 	C 	0.95924	0.20129	0.7007	0.001
Mof_C 	C 	0.96569	0.15426	0.6662	0.01
Mof_H 	H 	0.944	0.1391	0.609	0.061
Mof_C 	C 	0.7864	0.1998	0.7068	0.396
Mof_C 	C 	0.82863	0.22695	0.658	-0.065
Mof_C 	C 	0.87178	0.20717	0.6859	-0.025
Mof_H 	H 	0.8722	0.1778	0.7298	0.075
Mof_C 	C 	0.91527	0.22779	0.6535	0.009
Mof_H 	H 	0.7443	0.2398	0.6492	0.194
Mof_O 	O 	0.06135	0.01411	0.4138	-0.452
Mof_O 	O 	0.0548	0.95677	0.2604	-0.274
Mof_O 	O 	0.19938	0.90539	0.0038	-0.379
Mof_O 	O 	0.26604	0.9425	0.0348	-0.313
Mof_O 	O 	0.16288	0.20542	0.2282	-0.425
Mof_O 	O 	0.21385	0.25602	0.3127	-0.443
Mof_C 	C 	0.0773	0.98739	0.3226	0.358
Mof_C 	C 	0.2237	0.9374	0.0611	0.287
Mof_C 	C 	0.12907	0.9944	0.2817	0.011
Mof_C 	C 	0.1508	0.96406	0.1965	-0.051
Mof_H 	H 	0.1339	0.9385	0.1607	0.09
Mof_C 	C 	0.1989	0.97011	0.1602	0.026
Mof_C 	C 	0.22383	0.0076	0.2165	-0.124
Mof_H 	H 	0.2561	0.0107	0.1986	0.094
Mof_C 	C 	0.20129	0.04076	0.2993	0.073
Mof_C 	C 	0.15426	0.03431	0.3338	-0.114
Mof_H 	H 	0.1391	0.056	0.391	0.095
Mof_C 	C 	0.1998	0.2136	0.2932	0.398
Mof_C 	C 	0.22695	0.17137	0.342	-0.071
Mof_C 	C 	0.20717	0.12822	0.3141	-0.015
Mof_H 	H 	0.1778	0.1278	0.2702	0.066
Mof_C 	C 	0.22779	0.08473	0.3465	-0.013
Mof_H 	H 	0.2398	0.2557	0.3508	0.195
Mof_O 	O 	0.56135	0.51411	0.9138	-0.416
Mof_O 	O 	0.5548	0.45677	0.7604	-0.262
Mof_O 	O 	0.69938	0.40539	0.5038	-0.376
Mof_O 	O 	0.76604	0.4425	0.5348	-0.317
Mof_O 	O 	0.66288	0.70542	0.7282	-0.419
Mof_O 	O 	0.71385	0.75602	0.8127	-0.434
Mof_C 	C 	0.5773	0.48739	0.8226	0.34
Mof_C 	C 	0.7237	0.4374	0.5611	0.303
Mof_C 	C 	0.62907	0.4944	0.7817	-0.034
Mof_C 	C 	0.6508	0.46406	0.6965	-0.011
Mof_H 	H 	0.6339	0.4385	0.6607	0.08
Mof_C 	C 	0.6989	0.47011	0.6602	-0.028
Mof_C 	C 	0.72383	0.5076	0.7165	-0.054
Mof_H 	H 	0.7561	0.5107	0.6986	0.08
Mof_C 	C 	0.70129	0.54076	0.7993	0.036
Mof_C 	C 	0.65426	0.53431	0.8338	-0.051
Mof_H 	H 	0.6391	0.556	0.891	0.081
Mof_C 	C 	0.6998	0.7136	0.7932	0.394
Mof_C 	C 	0.72695	0.67137	0.842	-0.06
Mof_C 	C 	0.70717	0.62822	0.8141	-0.027
Mof_H 	H 	0.6778	0.6278	0.7702	0.074
Mof_C 	C 	0.72779	0.58473	0.8465	0.009
Mof_H 	H 	0.7398	0.7557	0.8508	0.191
Mof_O 	O 	0.93865	0.98589	0.4138	-0.39
Mof_O 	O 	0.9452	0.04323	0.2604	-0.26
Mof_O 	O 	0.80062	0.09461	0.0038	-0.388
Mof_O 	O 	0.73396	0.0575	0.0348	-0.336
Mof_O 	O 	0.83712	0.79458	0.2282	-0.423
Mof_O 	O 	0.78615	0.74398	0.3127	-0.442
Mof_C 	C 	0.9227	0.01261	0.3226	0.323
Mof_C 	C 	0.7763	0.0626	0.0611	0.321
Mof_C 	C 	0.87093	0.0056	0.2817	-0.085
Mof_C 	C 	0.8492	0.03594	0.1965	0.028
Mof_H 	H 	0.8661	0.0615	0.1607	0.064
Mof_C 	C 	0.8011	0.02989	0.1602	-0.088
Mof_C 	C 	0.77617	0.9924	0.2165	0.011
Mof_H 	H 	0.7439	0.9893	0.1986	0.063
Mof_C 	C 	0.79871	0.95924	0.2993	0.001
Mof_C 	C 	0.84574	0.96569	0.3338	0.007
Mof_H 	H 	0.8609	0.944	0.391	0.064
Mof_C 	C 	0.8002	0.7864	0.2932	0.397
Mof_C 	C 	0.77305	0.82863	0.342	-0.067
Mof_C 	C 	0.79283	0.87178	0.3141	-0.025
Mof_H 	H 	0.8222	0.8722	0.2702	0.073
Mof_C 	C 	0.77221	0.91527	0.3465	0.008
Mof_H 	H 	0.7602	0.7443	0.3508	0.194
Mof_O 	O 	0.43865	0.48589	0.9138	-0.415
Mof_O 	O 	0.4452	0.54323	0.7604	-0.262
Mof_O 	O 	0.30062	0.59461	0.5038	-0.376
Mof_O 	O 	0.23396	0.5575	0.5348	-0.318
Mof_O 	O 	0.33712	0.29458	0.7282	-0.419
Mof_O 	O 	0.28615	0.24398	0.8127	-0.435
Mof_C 	C 	0.4227	0.51261	0.8226	0.34
Mof_C 	C 	0.2763	0.5626	0.5611	0.304
Mof_C 	C 	0.37093	0.5056	0.7817	-0.034
Mof_C 	C 	0.3492	0.53594	0.6965	-0.011
Mof_H 	H 	0.3661	0.5615	0.6607	0.08
Mof_C 	C 	0.3011	0.52989	0.6602	-0.029
Mof_C 	C 	0.27617	0.4924	0.7165	-0.054
Mof_H 	H 	0.2439	0.4893	0.6986	0.079
Mof_C 	C 	0.29871	0.45924	0.7993	0.036
Mof_C 	C 	0.34574	0.46569	0.8338	-0.051
Mof_H 	H 	0.3609	0.444	0.891	0.081
Mof_C 	C 	0.3002	0.2864	0.7932	0.394
Mof_C 	C 	0.27305	0.32863	0.842	-0.06
Mof_C 	C 	0.29283	0.37178	0.8141	-0.027
Mof_H 	H 	0.3222	0.3722	0.7702	0.074
Mof_C 	C 	0.27221	0.41527	0.8465	0.009
Mof_H 	H 	0.2602	0.2443	0.8508	0.191
Mof_Zn	Zn	-2.30328e-33	0.5	0.75	1.238
Mof_Zn	Zn	0.5	-8.18424e-34	0.25	1.238
Mof_Zn	Zn	0.5	0.5	-0	1.241
Mof_Zn	Zn	-9.89901e-34	-1.63685e-33	0.5	1.231
Mof_Zn	Zn	0.12032	0.25	0.125	1.246
Mof_Zn	Zn	0.87968	0.75	0.125	1.246
Mof_Zn	Zn	0.37968	0.25	0.625	1.249
Mof_Zn	Zn	0.25	0.87968	0.875	1.251
Mof_Zn	Zn	0.75	0.37968	0.375	1.249
Mof_Zn	Zn	0.75	0.12032	0.875	1.251
Mof_Zn	Zn	0.25	0.62032	0.375	1.249
Mof_Zn	Zn	0.62032	0.75	0.625	1.249
_end
