data_functionalizedCrystal
_audit_creation_method	'EQeq! by Chris Wilmer'
_symmetry_space_group_name_H-M	'P1'
_symmetry_Int_Tables_number	1
_symmetry_cell_setting	triclinic
loop_
_symmetry_equiv_pos_as_xyz
  x,y,z
_cell_length_a	9.787
_cell_length_b	12.157
_cell_length_c	15.182
_cell_angle_alpha	90
_cell_angle_beta	90
_cell_angle_gamma	90
loop_
_atom_site_label
_atom_site_type_symbol
_atom_site_fract_x
_atom_site_fract_y
_atom_site_fract_z
_atom_site_charge
Mof_C 	C 	0.3785	0.8206	0.8623	-0.098
Mof_C 	C 	0.3783	0.7568	0.7877	0.087
Mof_H 	H 	0.2945	0.7377	0.7601	0.043
Mof_C 	C 	0.2485	0.8655	0.9025	0.399
Mof_O 	O 	0.1511	0.881	0.8529	-0.348
Mof_O 	O 	0.2553	0.8844	0.9825	-0.292
Mof_O 	O 	0.3865	0.6184	0.6455	-0.424
Mof_C 	C 	0.8785	0.3206	0.3623	-0.145
Mof_C 	C 	0.8783	0.2568	0.2877	0.182
Mof_H 	H 	0.7945	0.2377	0.2601	-0.021
Mof_C 	C 	0.7485	0.3655	0.4025	0.419
Mof_O 	O 	0.6511	0.381	0.3529	-0.44
Mof_O 	O 	0.7553	0.3844	0.4825	-0.426
Mof_O 	O 	0.8865	0.1184	0.1455	-0.466
Mof_C 	C 	0.6215	0.1794	0.8623	-0.16
Mof_C 	C 	0.6217	0.2432	0.7877	0.105
Mof_H 	H 	0.7055	0.2623	0.7601	0.029
Mof_C 	C 	0.7515	0.1345	0.9025	0.4
Mof_O 	O 	0.8489	0.119	0.8529	-0.414
Mof_O 	O 	0.7447	0.1156	0.9825	-0.374
Mof_O 	O 	0.6135	0.3816	0.6455	-0.432
Mof_C 	C 	0.1215	0.6794	0.3623	-0.146
Mof_C 	C 	0.1217	0.7432	0.2877	0.112
Mof_H 	H 	0.2055	0.7623	0.2601	0.023
Mof_C 	C 	0.2515	0.6345	0.4025	0.424
Mof_O 	O 	0.3489	0.619	0.3529	-0.427
Mof_O 	O 	0.2447	0.6156	0.4825	-0.424
Mof_O 	O 	0.1135	0.8816	0.1455	-0.397
Mof_C 	C 	0.3785	0.1794	0.8623	-0.168
Mof_C 	C 	0.3783	0.2432	0.7877	0.108
Mof_H 	H 	0.2945	0.2623	0.7601	0.017
Mof_C 	C 	0.2485	0.1345	0.9025	0.405
Mof_O 	O 	0.1511	0.119	0.8529	-0.452
Mof_O 	O 	0.2553	0.1156	0.9825	-0.387
Mof_O 	O 	0.3865	0.3816	0.6455	-0.44
Mof_C 	C 	0.8785	0.6794	0.3623	-0.105
Mof_C 	C 	0.8783	0.7432	0.2877	0.161
Mof_H 	H 	0.7945	0.7623	0.2601	0.015
Mof_C 	C 	0.7485	0.6345	0.4025	0.419
Mof_O 	O 	0.6511	0.619	0.3529	-0.422
Mof_O 	O 	0.7553	0.6156	0.4825	-0.406
Mof_O 	O 	0.8865	0.8816	0.1455	-0.355
Mof_C 	C 	0.6215	0.8206	0.8623	-0.091
Mof_C 	C 	0.6217	0.7568	0.7877	0.084
Mof_H 	H 	0.7055	0.7377	0.7601	0.055
Mof_C 	C 	0.7515	0.8655	0.9025	0.394
Mof_O 	O 	0.8489	0.881	0.8529	-0.313
Mof_O 	O 	0.7447	0.8844	0.9825	-0.28
Mof_O 	O 	0.6135	0.6184	0.6455	-0.416
Mof_C 	C 	0.1215	0.3206	0.3623	-0.186
Mof_C 	C 	0.1217	0.2568	0.2877	0.131
Mof_H 	H 	0.2055	0.2377	0.2601	-0.013
Mof_C 	C 	0.2515	0.3655	0.4025	0.424
Mof_O 	O 	0.3489	0.381	0.3529	-0.445
Mof_O 	O 	0.2447	0.3844	0.4825	-0.445
Mof_O 	O 	0.1135	0.1184	0.1455	-0.51
Mof_C 	C 	0.5	0.853	0.8995	0.074
Mof_H 	H 	0.5	0.8978	0.9508	0.081
Mof_C 	C 	0.5	0.721	0.7533	-0.125
Mof_C 	C 	0.5	0.6478	0.6738	0.421
Mof_C 	C 	2.32358e-33	0.353	0.3995	0.049
Mof_H 	H 	9.60935e-33	0.3978	0.4508	0.011
Mof_C 	C 	1.47325e-33	0.221	0.2533	-0.267
Mof_C 	C 	4.50456e-33	0.1478	0.1738	0.381
Mof_C 	C 	0.5	0.147	0.8995	0.097
Mof_H 	H 	0.5	0.1022	0.9508	0
Mof_C 	C 	0.5	0.279	0.7533	-0.169
Mof_C 	C 	0.5	0.3522	0.6738	0.421
Mof_C 	C 	9.31098e-33	0.647	0.3995	0.033
Mof_H 	H 	9.60935e-33	0.6022	0.4508	0.024
Mof_C 	C 	2.24354e-32	0.779	0.2533	-0.204
Mof_C 	C 	4.50456e-33	0.8522	0.1738	0.365
Mof_Ni	Ni	5.02068e-33	0	0.86322	1.047
Mof_O 	O 	-8.2115e-33	0	0.9909	-0.589
Mof_Ni	Ni	0.5	0.5	0.36322	1.118
Mof_O 	O 	0.5	0.5	0.4909	-0.584
Mof_Ni	Ni	0.83138	0	0.0602	0.998
Mof_Ni	Ni	0.33138	0.5	0.5602	1.13
Mof_Ni	Ni	0.16862	0	0.0602	0.986
Mof_Ni	Ni	0.66862	0.5	0.5602	1.134
_end
