data_functionalizedCrystal
_audit_creation_method	'EQeq! by Chris Wilmer'
_symmetry_space_group_name_H-M	'P1'
_symmetry_Int_Tables_number	1
_symmetry_cell_setting	triclinic
loop_
_symmetry_equiv_pos_as_xyz
  x,y,z
_cell_length_a	32.4039
_cell_length_b	32.4039
_cell_length_c	32.4039
_cell_angle_alpha	60
_cell_angle_beta	60
_cell_angle_gamma	60
loop_
_atom_site_label
_atom_site_type_symbol
_atom_site_fract_x
_atom_site_fract_y
_atom_site_fract_z
_atom_site_charge
Mof_N 	N 	0.90992	0.62642	0.29224	-0.141
Mof_H 	H 	0.8749	0.4427	0.3165	0.025
Mof_H 	H 	0.8992	0.5094	0.3204	0.023
Mof_C 	C 	0.95567	0.58053	0.29391	-0.038
Mof_H 	H 	0.979	0.5816	0.2592	0.023
Mof_H 	H 	0.9459	0.5499	0.3103	0.022
Mof_C 	C 	0.75532	0.70838	0.30612	-0.048
Mof_H 	H 	0.7451	0.6779	0.3269	0.026
Mof_H 	H 	0.7753	0.7081	0.3215	0.026
Mof_H 	H 	0.8215	0.7545	0.1873	0.024
Mof_C 	C 	0.92571	0.67231	0.26709	-0.047
Mof_H 	H 	0.8952	0.703	0.2674	0.025
Mof_H 	H 	0.9468	0.6752	0.2314	0.024
Mof_C 	C 	0.87704	0.62676	0.34484	-0.045
Mof_H 	H 	0.8641	0.5981	0.3635	0.023
Mof_H 	H 	0.8476	0.6584	0.3436	0.023
Mof_H 	H 	0.5966	0.4762	0.5256	0.023
Mof_C 	C 	0.78634	0.50956	0.31404	-0.047
Mof_H 	H 	0.7488	0.5218	0.326	0.025
Mof_H 	H 	0.7989	0.4885	0.2935	0.024
Mof_H 	H 	0.6788	0.4984	0.449	0.024
Mof_C 	C 	0.80577	0.55561	0.28079	-0.046
Mof_H 	H 	0.8279	0.5531	0.2467	0.026
Mof_H 	H 	0.7765	0.5873	0.2771	0.025
Mof_N 	N 	0.62642	0.90992	0.17142	-0.141
Mof_H 	H 	0.4427	0.8749	0.3659	0.025
Mof_H 	H 	0.5094	0.8992	0.271	0.023
Mof_C 	C 	0.58053	0.95567	0.16989	-0.038
Mof_H 	H 	0.5816	0.979	0.1802	0.023
Mof_H 	H 	0.5499	0.9459	0.1939	0.022
Mof_C 	C 	0.70838	0.75532	0.23018	-0.049
Mof_H 	H 	0.6779	0.7451	0.2501	0.026
Mof_H 	H 	0.7081	0.7753	0.1951	0.026
Mof_H 	H 	0.7545	0.8215	0.2367	0.024
Mof_C 	C 	0.67231	0.92571	0.13489	-0.046
Mof_H 	H 	0.703	0.8952	0.1344	0.025
Mof_H 	H 	0.6752	0.9468	0.1466	0.024
Mof_C 	C 	0.62676	0.87704	0.15136	-0.044
Mof_H 	H 	0.5981	0.8641	0.1743	0.023
Mof_H 	H 	0.6584	0.8476	0.1504	0.024
Mof_H 	H 	0.4762	0.5966	0.4016	0.023
Mof_C 	C 	0.50956	0.78634	0.39006	-0.047
Mof_H 	H 	0.5218	0.7488	0.4034	0.025
Mof_H 	H 	0.4885	0.7989	0.4191	0.024
Mof_H 	H 	0.4984	0.6788	0.3738	0.025
Mof_C 	C 	0.55561	0.80577	0.35783	-0.046
Mof_H 	H 	0.5531	0.8279	0.3723	0.026
Mof_H 	H 	0.5873	0.7765	0.3591	0.024
Mof_N 	N 	0.29224	0.17142	0.90992	-0.141
Mof_H 	H 	0.3165	0.3659	0.8749	0.025
Mof_H 	H 	0.3204	0.271	0.8992	0.023
Mof_C 	C 	0.29391	0.16989	0.95567	-0.038
Mof_H 	H 	0.2592	0.1802	0.979	0.023
Mof_H 	H 	0.3103	0.1939	0.9459	0.022
Mof_C 	C 	0.30612	0.23018	0.75532	-0.049
Mof_H 	H 	0.3269	0.2501	0.7451	0.026
Mof_H 	H 	0.3215	0.1951	0.7753	0.026
Mof_H 	H 	0.1873	0.2367	0.8215	0.024
Mof_C 	C 	0.26709	0.13489	0.92571	-0.046
Mof_H 	H 	0.2674	0.1344	0.8952	0.025
Mof_H 	H 	0.2314	0.1466	0.9468	0.025
Mof_C 	C 	0.34484	0.15136	0.87704	-0.044
Mof_H 	H 	0.3635	0.1743	0.8641	0.023
Mof_H 	H 	0.3436	0.1504	0.8476	0.023
Mof_H 	H 	0.5256	0.4016	0.5966	0.022
Mof_C 	C 	0.31404	0.39006	0.78634	-0.048
Mof_H 	H 	0.326	0.4034	0.7488	0.024
Mof_H 	H 	0.2935	0.4191	0.7989	0.023
Mof_H 	H 	0.449	0.3738	0.6788	0.024
Mof_C 	C 	0.28079	0.35783	0.80577	-0.047
Mof_H 	H 	0.2467	0.3723	0.8279	0.025
Mof_H 	H 	0.2771	0.3591	0.7765	0.024
Mof_N 	N 	0.17142	0.29224	0.62642	-0.141
Mof_H 	H 	0.3659	0.3165	0.4427	0.025
Mof_H 	H 	0.271	0.3204	0.5094	0.022
Mof_C 	C 	0.16989	0.29391	0.58053	-0.045
Mof_H 	H 	0.1802	0.2592	0.5816	0.025
Mof_H 	H 	0.1939	0.3103	0.5499	0.023
Mof_C 	C 	0.23018	0.30612	0.70838	-0.05
Mof_H 	H 	0.2501	0.3269	0.6779	0.025
Mof_H 	H 	0.1951	0.3215	0.7081	0.025
Mof_H 	H 	0.2367	0.1873	0.7545	0.023
Mof_C 	C 	0.13489	0.26709	0.67231	-0.048
Mof_H 	H 	0.1344	0.2674	0.703	0.024
Mof_H 	H 	0.1466	0.2314	0.6752	0.024
Mof_C 	C 	0.15136	0.34484	0.62676	-0.046
Mof_H 	H 	0.1743	0.3635	0.5981	0.022
Mof_H 	H 	0.1504	0.3436	0.6584	0.023
Mof_H 	H 	0.4016	0.5256	0.4762	0.022
Mof_C 	C 	0.39006	0.31404	0.50956	-0.048
Mof_H 	H 	0.4034	0.326	0.5218	0.024
Mof_H 	H 	0.4191	0.2935	0.4885	0.023
Mof_H 	H 	0.3738	0.449	0.4984	0.024
Mof_C 	C 	0.35783	0.28079	0.55561	-0.047
Mof_H 	H 	0.3723	0.2467	0.5531	0.025
Mof_H 	H 	0.3591	0.2771	0.5873	0.024
Mof_N 	N 	0.29224	0.90992	0.62642	-0.142
Mof_H 	H 	0.3165	0.8749	0.4427	0.024
Mof_H 	H 	0.3204	0.8992	0.5094	0.022
Mof_C 	C 	0.29391	0.95567	0.58053	-0.039
Mof_H 	H 	0.2592	0.979	0.5816	0.022
Mof_H 	H 	0.3103	0.9459	0.5499	0.021
Mof_C 	C 	0.30612	0.75532	0.70838	-0.049
Mof_H 	H 	0.3269	0.7451	0.6779	0.025
Mof_H 	H 	0.3215	0.7753	0.7081	0.025
Mof_H 	H 	0.1873	0.8215	0.7545	0.023
Mof_C 	C 	0.26709	0.92571	0.67231	-0.048
Mof_H 	H 	0.2674	0.8952	0.703	0.024
Mof_H 	H 	0.2314	0.9468	0.6752	0.023
Mof_C 	C 	0.34484	0.87704	0.62676	-0.046
Mof_H 	H 	0.3635	0.8641	0.5981	0.022
Mof_H 	H 	0.3436	0.8476	0.6584	0.022
Mof_H 	H 	0.5256	0.5966	0.4762	0.022
Mof_C 	C 	0.31404	0.78634	0.50956	-0.048
Mof_H 	H 	0.326	0.7488	0.5218	0.024
Mof_H 	H 	0.2935	0.7989	0.4885	0.023
Mof_H 	H 	0.449	0.6788	0.4984	0.023
Mof_C 	C 	0.28079	0.80577	0.55561	-0.047
Mof_H 	H 	0.2467	0.8279	0.5531	0.025
Mof_H 	H 	0.2771	0.7765	0.5873	0.024
Mof_N 	N 	0.17142	0.62642	0.90992	-0.142
Mof_H 	H 	0.3659	0.4427	0.8749	0.024
Mof_H 	H 	0.271	0.5094	0.8992	0.022
Mof_C 	C 	0.16989	0.58053	0.95567	-0.039
Mof_H 	H 	0.1802	0.5816	0.979	0.022
Mof_H 	H 	0.1939	0.5499	0.9459	0.021
Mof_C 	C 	0.23018	0.70838	0.75532	-0.05
Mof_H 	H 	0.2501	0.6779	0.7451	0.025
Mof_H 	H 	0.1951	0.7081	0.7753	0.025
Mof_H 	H 	0.2367	0.7545	0.8215	0.023
Mof_C 	C 	0.13489	0.67231	0.92571	-0.047
Mof_H 	H 	0.1344	0.703	0.8952	0.024
Mof_H 	H 	0.1466	0.6752	0.9468	0.023
Mof_C 	C 	0.15136	0.62676	0.87704	-0.045
Mof_H 	H 	0.1743	0.5981	0.8641	0.022
Mof_H 	H 	0.1504	0.6584	0.8476	0.023
Mof_H 	H 	0.4016	0.4762	0.5966	0.022
Mof_C 	C 	0.39006	0.50956	0.78634	-0.048
Mof_H 	H 	0.4034	0.5218	0.7488	0.024
Mof_H 	H 	0.4191	0.4885	0.7989	0.023
Mof_H 	H 	0.3738	0.4984	0.6788	0.024
Mof_C 	C 	0.35783	0.55561	0.80577	-0.047
Mof_H 	H 	0.3723	0.5531	0.8279	0.025
Mof_H 	H 	0.3591	0.5873	0.7765	0.023
Mof_N 	N 	0.90992	0.29224	0.17142	-0.142
Mof_H 	H 	0.8749	0.3165	0.3659	0.024
Mof_H 	H 	0.8992	0.3204	0.271	0.022
Mof_C 	C 	0.95567	0.29391	0.16989	-0.039
Mof_H 	H 	0.979	0.2592	0.1802	0.022
Mof_H 	H 	0.9459	0.3103	0.1939	0.021
Mof_C 	C 	0.75532	0.30612	0.23018	-0.05
Mof_H 	H 	0.7451	0.3269	0.2501	0.025
Mof_H 	H 	0.7753	0.3215	0.1951	0.025
Mof_H 	H 	0.8215	0.1873	0.2367	0.023
Mof_C 	C 	0.92571	0.26709	0.13489	-0.047
Mof_H 	H 	0.8952	0.2674	0.1344	0.024
Mof_H 	H 	0.9468	0.2314	0.1466	0.024
Mof_C 	C 	0.87704	0.34484	0.15136	-0.045
Mof_H 	H 	0.8641	0.3635	0.1743	0.022
Mof_H 	H 	0.8476	0.3436	0.1504	0.023
Mof_H 	H 	0.5966	0.5256	0.4016	0.022
Mof_C 	C 	0.78634	0.31404	0.39006	-0.048
Mof_H 	H 	0.7488	0.326	0.4034	0.024
Mof_H 	H 	0.7989	0.2935	0.4191	0.023
Mof_H 	H 	0.6788	0.449	0.3738	0.024
Mof_C 	C 	0.80577	0.28079	0.35783	-0.047
Mof_H 	H 	0.8279	0.2467	0.3723	0.025
Mof_H 	H 	0.7765	0.2771	0.3591	0.024
Mof_N 	N 	0.62642	0.17142	0.29224	-0.141
Mof_H 	H 	0.4427	0.3659	0.3165	0.025
Mof_H 	H 	0.5094	0.271	0.3204	0.022
Mof_C 	C 	0.58053	0.16989	0.29391	-0.045
Mof_H 	H 	0.5816	0.1802	0.2592	0.025
Mof_H 	H 	0.5499	0.1939	0.3103	0.023
Mof_C 	C 	0.70838	0.23018	0.30612	-0.05
Mof_H 	H 	0.6779	0.2501	0.3269	0.025
Mof_H 	H 	0.7081	0.1951	0.3215	0.025
Mof_H 	H 	0.7545	0.2367	0.1873	0.023
Mof_C 	C 	0.67231	0.13489	0.26709	-0.048
Mof_H 	H 	0.703	0.1344	0.2674	0.024
Mof_H 	H 	0.6752	0.1466	0.2314	0.024
Mof_C 	C 	0.62676	0.15136	0.34484	-0.046
Mof_H 	H 	0.5981	0.1743	0.3635	0.022
Mof_H 	H 	0.6584	0.1504	0.3436	0.023
Mof_H 	H 	0.4762	0.4016	0.5256	0.022
Mof_C 	C 	0.50956	0.39006	0.31404	-0.048
Mof_H 	H 	0.5218	0.4034	0.326	0.024
Mof_H 	H 	0.4885	0.4191	0.2935	0.023
Mof_H 	H 	0.4984	0.3738	0.449	0.024
Mof_C 	C 	0.55561	0.35783	0.28079	-0.047
Mof_H 	H 	0.5531	0.3723	0.2467	0.025
Mof_H 	H 	0.5873	0.3591	0.2771	0.024
Mof_N 	N 	0.62642	0.29224	0.90992	-0.142
Mof_H 	H 	0.4427	0.3165	0.8749	0.024
Mof_H 	H 	0.5094	0.3204	0.8992	0.022
Mof_C 	C 	0.58053	0.29391	0.95567	-0.039
Mof_H 	H 	0.5816	0.2592	0.979	0.022
Mof_H 	H 	0.5499	0.3103	0.9459	0.021
Mof_C 	C 	0.70838	0.30612	0.75532	-0.049
Mof_H 	H 	0.6779	0.3269	0.7451	0.025
Mof_H 	H 	0.7081	0.3215	0.7753	0.025
Mof_H 	H 	0.7545	0.1873	0.8215	0.023
Mof_C 	C 	0.67231	0.26709	0.92571	-0.048
Mof_H 	H 	0.703	0.2674	0.8952	0.024
Mof_H 	H 	0.6752	0.2314	0.9468	0.023
Mof_C 	C 	0.62676	0.34484	0.87704	-0.046
Mof_H 	H 	0.5981	0.3635	0.8641	0.022
Mof_H 	H 	0.6584	0.3436	0.8476	0.022
Mof_H 	H 	0.4762	0.5256	0.5966	0.022
Mof_C 	C 	0.50956	0.31404	0.78634	-0.048
Mof_H 	H 	0.5218	0.326	0.7488	0.024
Mof_H 	H 	0.4885	0.2935	0.7989	0.023
Mof_H 	H 	0.4984	0.449	0.6788	0.023
Mof_C 	C 	0.55561	0.28079	0.80577	-0.047
Mof_H 	H 	0.5531	0.2467	0.8279	0.025
Mof_H 	H 	0.5873	0.2771	0.7765	0.024
Mof_N 	N 	0.90992	0.17142	0.62642	-0.142
Mof_H 	H 	0.8749	0.3659	0.4427	0.024
Mof_H 	H 	0.8992	0.271	0.5094	0.022
Mof_C 	C 	0.95567	0.16989	0.58053	-0.039
Mof_H 	H 	0.979	0.1802	0.5816	0.022
Mof_H 	H 	0.9459	0.1939	0.5499	0.021
Mof_C 	C 	0.75532	0.23018	0.70838	-0.05
Mof_H 	H 	0.7451	0.2501	0.6779	0.025
Mof_H 	H 	0.7753	0.1951	0.7081	0.025
Mof_H 	H 	0.8215	0.2367	0.7545	0.023
Mof_C 	C 	0.92571	0.13489	0.67231	-0.047
Mof_H 	H 	0.8952	0.1344	0.703	0.024
Mof_H 	H 	0.9468	0.1466	0.6752	0.023
Mof_C 	C 	0.87704	0.15136	0.62676	-0.045
Mof_H 	H 	0.8641	0.1743	0.5981	0.022
Mof_H 	H 	0.8476	0.1504	0.6584	0.023
Mof_H 	H 	0.5966	0.4016	0.4762	0.022
Mof_C 	C 	0.78634	0.39006	0.50956	-0.048
Mof_H 	H 	0.7488	0.4034	0.5218	0.024
Mof_H 	H 	0.7989	0.4191	0.4885	0.023
Mof_H 	H 	0.6788	0.3738	0.4984	0.024
Mof_C 	C 	0.80577	0.35783	0.55561	-0.047
Mof_H 	H 	0.8279	0.3723	0.5531	0.025
Mof_H 	H 	0.7765	0.3591	0.5873	0.023
Mof_N 	N 	0.17142	0.90992	0.29224	-0.142
Mof_H 	H 	0.3659	0.8749	0.3165	0.024
Mof_H 	H 	0.271	0.8992	0.3204	0.022
Mof_C 	C 	0.16989	0.95567	0.29391	-0.039
Mof_H 	H 	0.1802	0.979	0.2592	0.022
Mof_H 	H 	0.1939	0.9459	0.3103	0.021
Mof_C 	C 	0.23018	0.75532	0.30612	-0.05
Mof_H 	H 	0.2501	0.7451	0.3269	0.025
Mof_H 	H 	0.1951	0.7753	0.3215	0.025
Mof_H 	H 	0.2367	0.8215	0.1873	0.023
Mof_C 	C 	0.13489	0.92571	0.26709	-0.047
Mof_H 	H 	0.1344	0.8952	0.2674	0.024
Mof_H 	H 	0.1466	0.9468	0.2314	0.024
Mof_C 	C 	0.15136	0.87704	0.34484	-0.045
Mof_H 	H 	0.1743	0.8641	0.3635	0.022
Mof_H 	H 	0.1504	0.8476	0.3436	0.023
Mof_H 	H 	0.4016	0.5966	0.5256	0.022
Mof_C 	C 	0.39006	0.78634	0.31404	-0.048
Mof_H 	H 	0.4034	0.7488	0.326	0.024
Mof_H 	H 	0.4191	0.7989	0.2935	0.023
Mof_H 	H 	0.3738	0.6788	0.449	0.024
Mof_C 	C 	0.35783	0.80577	0.28079	-0.047
Mof_H 	H 	0.3723	0.8279	0.2467	0.025
Mof_H 	H 	0.3591	0.7765	0.2771	0.024
Mof_N 	N 	0.29224	0.62642	0.17142	-0.141
Mof_H 	H 	0.3165	0.4427	0.3659	0.025
Mof_H 	H 	0.3204	0.5094	0.271	0.022
Mof_C 	C 	0.29391	0.58053	0.16989	-0.045
Mof_H 	H 	0.2592	0.5816	0.1802	0.025
Mof_H 	H 	0.3103	0.5499	0.1939	0.023
Mof_C 	C 	0.30612	0.70838	0.23018	-0.05
Mof_H 	H 	0.3269	0.6779	0.2501	0.025
Mof_H 	H 	0.3215	0.7081	0.1951	0.025
Mof_H 	H 	0.1873	0.7545	0.2367	0.023
Mof_C 	C 	0.26709	0.67231	0.13489	-0.048
Mof_H 	H 	0.2674	0.703	0.1344	0.024
Mof_H 	H 	0.2314	0.6752	0.1466	0.024
Mof_C 	C 	0.34484	0.62676	0.15136	-0.046
Mof_H 	H 	0.3635	0.5981	0.1743	0.022
Mof_H 	H 	0.3436	0.6584	0.1504	0.023
Mof_H 	H 	0.5256	0.4762	0.4016	0.022
Mof_C 	C 	0.31404	0.50956	0.39006	-0.048
Mof_H 	H 	0.326	0.5218	0.4034	0.024
Mof_H 	H 	0.2935	0.4885	0.4191	0.023
Mof_H 	H 	0.449	0.4984	0.3738	0.024
Mof_C 	C 	0.28079	0.55561	0.35783	-0.047
Mof_H 	H 	0.2467	0.5531	0.3723	0.025
Mof_H 	H 	0.2771	0.5873	0.3591	0.024
Mof_N 	N 	0.34008	0.62358	0.07858	-0.139
Mof_H 	H 	0.3751	0.8073	0.8841	0.024
Mof_H 	H 	0.3508	0.7406	0.979	0.02
Mof_C 	C 	0.29433	0.66947	0.08011	-0.047
Mof_H 	H 	0.271	0.6684	0.0698	0.027
Mof_H 	H 	0.3041	0.7001	0.0561	0.026
Mof_C 	C 	0.49468	0.54162	0.01982	-0.036
Mof_H 	H 	0.5049	0.5721	0.9999	0.017
Mof_H 	H 	0.4747	0.5419	0.0549	0.022
Mof_H 	H 	0.4285	0.4955	0.0133	0.025
Mof_C 	C 	0.32429	0.57769	0.11511	-0.049
Mof_H 	H 	0.3548	0.547	0.1156	0.025
Mof_H 	H 	0.3032	0.5748	0.1034	0.025
Mof_C 	C 	0.37296	0.62324	0.09864	-0.047
Mof_H 	H 	0.3859	0.6519	0.0757	0.024
Mof_H 	H 	0.4024	0.5916	0.0996	0.024
Mof_H 	H 	0.6534	0.7738	0.8484	0.022
Mof_C 	C 	0.46366	0.74044	0.85994	-0.047
Mof_H 	H 	0.5012	0.7282	0.8466	0.024
Mof_H 	H 	0.4511	0.7615	0.8309	0.023
Mof_H 	H 	0.5712	0.7516	0.8762	0.023
Mof_C 	C 	0.44423	0.69439	0.89217	-0.047
Mof_H 	H 	0.4221	0.6969	0.8777	0.025
Mof_H 	H 	0.4735	0.6627	0.8909	0.024
Mof_N 	N 	0.62358	0.34008	0.95776	-0.139
Mof_H 	H 	0.8073	0.3751	0.9335	0.024
Mof_H 	H 	0.7406	0.3508	0.9296	0.022
Mof_C 	C 	0.66947	0.29433	0.95609	-0.045
Mof_H 	H 	0.6684	0.271	0.9908	0.023
Mof_H 	H 	0.7001	0.3041	0.9397	0.022
Mof_C 	C 	0.54162	0.49468	0.94388	-0.05
Mof_H 	H 	0.5721	0.5049	0.9231	0.025
Mof_H 	H 	0.5419	0.4747	0.9285	0.024
Mof_H 	H 	0.4955	0.4285	0.0627	0.022
Mof_C 	C 	0.57769	0.32429	0.98291	-0.063
Mof_H 	H 	0.547	0.3548	0.9826	0.026
Mof_H 	H 	0.5748	0.3032	0.0186	0.034
Mof_C 	C 	0.62324	0.37296	0.90516	-0.046
Mof_H 	H 	0.6519	0.3859	0.8865	0.022
Mof_H 	H 	0.5916	0.4024	0.9064	0.022
Mof_H 	H 	0.7738	0.6534	0.7244	0.022
Mof_C 	C 	0.74044	0.46366	0.93596	-0.041
Mof_H 	H 	0.7282	0.5012	0.924	0.022
Mof_H 	H 	0.7615	0.4511	0.9565	0.02
Mof_H 	H 	0.7516	0.5712	0.801	0.023
Mof_C 	C 	0.69439	0.44423	0.96921	-0.063
Mof_H 	H 	0.6969	0.4221	0.0033	0.035
Mof_H 	H 	0.6627	0.4735	0.9729	0.027
Mof_N 	N 	0.95776	0.07858	0.62358	-0.137
Mof_H 	H 	0.9335	0.8841	0.8073	0.023
Mof_H 	H 	0.9296	0.979	0.7406	0.019
Mof_C 	C 	0.95609	0.08011	0.66947	-0.047
Mof_H 	H 	0.9908	0.0698	0.6684	0.025
Mof_H 	H 	0.9397	0.0561	0.7001	0.025
Mof_C 	C 	0.94388	0.01982	0.54162	-0.036
Mof_H 	H 	0.9231	0.9999	0.5721	0.017
Mof_H 	H 	0.9285	0.0549	0.5419	0.022
Mof_H 	H 	0.0627	0.0133	0.4955	0.024
Mof_C 	C 	0.98291	0.11511	0.57769	-0.063
Mof_H 	H 	0.9826	0.1156	0.547	0.027
Mof_H 	H 	0.0186	0.1034	0.5748	0.035
Mof_C 	C 	0.90516	0.09864	0.62324	-0.047
Mof_H 	H 	0.8865	0.0757	0.6519	0.024
Mof_H 	H 	0.9064	0.0996	0.5916	0.024
Mof_H 	H 	0.7244	0.8484	0.7738	0.022
Mof_C 	C 	0.93596	0.85994	0.74044	-0.041
Mof_H 	H 	0.924	0.8466	0.7282	0.022
Mof_H 	H 	0.9565	0.8309	0.7615	0.02
Mof_H 	H 	0.801	0.8762	0.7516	0.023
Mof_C 	C 	0.96921	0.89217	0.69439	-0.063
Mof_H 	H 	0.0033	0.8777	0.6969	0.036
Mof_H 	H 	0.9729	0.8909	0.6627	0.027
Mof_N 	N 	0.07858	0.95776	0.34008	-0.137
Mof_H 	H 	0.8841	0.9335	0.3751	0.024
Mof_H 	H 	0.979	0.9296	0.3508	0.02
Mof_C 	C 	0.08011	0.95609	0.29433	-0.047
Mof_H 	H 	0.0698	0.9908	0.271	0.026
Mof_H 	H 	0.0561	0.9397	0.3041	0.025
Mof_C 	C 	0.01982	0.94388	0.49468	-0.037
Mof_H 	H 	0.9999	0.9231	0.5049	0.017
Mof_H 	H 	0.0549	0.9285	0.4747	0.022
Mof_H 	H 	0.0133	0.0627	0.4285	0.024
Mof_C 	C 	0.11511	0.98291	0.32429	-0.063
Mof_H 	H 	0.1156	0.9826	0.3548	0.027
Mof_H 	H 	0.1034	0.0186	0.3032	0.035
Mof_C 	C 	0.09864	0.90516	0.37296	-0.047
Mof_H 	H 	0.0757	0.8865	0.3859	0.024
Mof_H 	H 	0.0996	0.9064	0.4024	0.024
Mof_H 	H 	0.8484	0.7244	0.6534	0.022
Mof_C 	C 	0.85994	0.93596	0.46366	-0.041
Mof_H 	H 	0.8466	0.924	0.5012	0.022
Mof_H 	H 	0.8309	0.9565	0.4511	0.02
Mof_H 	H 	0.8762	0.801	0.5712	0.023
Mof_C 	C 	0.89217	0.96921	0.44423	-0.063
Mof_H 	H 	0.8777	0.0033	0.4221	0.036
Mof_H 	H 	0.8909	0.9729	0.4735	0.027
Mof_N 	N 	0.95776	0.34008	0.07858	-0.137
Mof_H 	H 	0.9335	0.3751	0.8841	0.024
Mof_H 	H 	0.9296	0.3508	0.979	0.02
Mof_C 	C 	0.95609	0.29433	0.08011	-0.047
Mof_H 	H 	0.9908	0.271	0.0698	0.026
Mof_H 	H 	0.9397	0.3041	0.0561	0.025
Mof_C 	C 	0.94388	0.49468	0.01982	-0.037
Mof_H 	H 	0.9231	0.5049	0.9999	0.017
Mof_H 	H 	0.9285	0.4747	0.0549	0.022
Mof_H 	H 	0.0627	0.4285	0.0133	0.024
Mof_C 	C 	0.98291	0.32429	0.11511	-0.063
Mof_H 	H 	0.9826	0.3548	0.1156	0.027
Mof_H 	H 	0.0186	0.3032	0.1034	0.035
Mof_C 	C 	0.90516	0.37296	0.09864	-0.047
Mof_H 	H 	0.8865	0.3859	0.0757	0.024
Mof_H 	H 	0.9064	0.4024	0.0996	0.024
Mof_H 	H 	0.7244	0.6534	0.8484	0.022
Mof_C 	C 	0.93596	0.46366	0.85994	-0.041
Mof_H 	H 	0.924	0.5012	0.8466	0.022
Mof_H 	H 	0.9565	0.4511	0.8309	0.02
Mof_H 	H 	0.801	0.5712	0.8762	0.023
Mof_C 	C 	0.96921	0.44423	0.89217	-0.063
Mof_H 	H 	0.0033	0.4221	0.8777	0.036
Mof_H 	H 	0.9729	0.4735	0.8909	0.027
Mof_N 	N 	0.07858	0.62358	0.95776	-0.137
Mof_H 	H 	0.8841	0.8073	0.9335	0.023
Mof_H 	H 	0.979	0.7406	0.9296	0.019
Mof_C 	C 	0.08011	0.66947	0.95609	-0.047
Mof_H 	H 	0.0698	0.6684	0.9908	0.025
Mof_H 	H 	0.0561	0.7001	0.9397	0.025
Mof_C 	C 	0.01982	0.54162	0.94388	-0.036
Mof_H 	H 	0.9999	0.5721	0.9231	0.017
Mof_H 	H 	0.0549	0.5419	0.9285	0.022
Mof_H 	H 	0.0133	0.4955	0.0627	0.024
Mof_C 	C 	0.11511	0.57769	0.98291	-0.063
Mof_H 	H 	0.1156	0.547	0.9826	0.027
Mof_H 	H 	0.1034	0.5748	0.0186	0.035
Mof_C 	C 	0.09864	0.62324	0.90516	-0.047
Mof_H 	H 	0.0757	0.6519	0.8865	0.024
Mof_H 	H 	0.0996	0.5916	0.9064	0.024
Mof_H 	H 	0.8484	0.7738	0.7244	0.022
Mof_C 	C 	0.85994	0.74044	0.93596	-0.041
Mof_H 	H 	0.8466	0.7282	0.924	0.022
Mof_H 	H 	0.8309	0.7615	0.9565	0.02
Mof_H 	H 	0.8762	0.7516	0.801	0.023
Mof_C 	C 	0.89217	0.69439	0.96921	-0.063
Mof_H 	H 	0.8777	0.6969	0.0033	0.036
Mof_H 	H 	0.8909	0.6627	0.9729	0.027
Mof_N 	N 	0.34008	0.95776	0.62358	-0.139
Mof_H 	H 	0.3751	0.9335	0.8073	0.024
Mof_H 	H 	0.3508	0.9296	0.7406	0.022
Mof_C 	C 	0.29433	0.95609	0.66947	-0.045
Mof_H 	H 	0.271	0.9908	0.6684	0.023
Mof_H 	H 	0.3041	0.9397	0.7001	0.022
Mof_C 	C 	0.49468	0.94388	0.54162	-0.05
Mof_H 	H 	0.5049	0.9231	0.5721	0.025
Mof_H 	H 	0.4747	0.9285	0.5419	0.024
Mof_H 	H 	0.4285	0.0627	0.4955	0.022
Mof_C 	C 	0.32429	0.98291	0.57769	-0.063
Mof_H 	H 	0.3548	0.9826	0.547	0.026
Mof_H 	H 	0.3032	0.0186	0.5748	0.034
Mof_C 	C 	0.37296	0.90516	0.62324	-0.046
Mof_H 	H 	0.3859	0.8865	0.6519	0.022
Mof_H 	H 	0.4024	0.9064	0.5916	0.022
Mof_H 	H 	0.6534	0.7244	0.7738	0.022
Mof_C 	C 	0.46366	0.93596	0.74044	-0.041
Mof_H 	H 	0.5012	0.924	0.7282	0.022
Mof_H 	H 	0.4511	0.9565	0.7615	0.02
Mof_H 	H 	0.5712	0.801	0.7516	0.023
Mof_C 	C 	0.44423	0.96921	0.69439	-0.063
Mof_H 	H 	0.4221	0.0033	0.6969	0.035
Mof_H 	H 	0.4735	0.9729	0.6627	0.027
Mof_N 	N 	0.62358	0.07858	0.34008	-0.139
Mof_H 	H 	0.8073	0.8841	0.3751	0.024
Mof_H 	H 	0.7406	0.979	0.3508	0.02
Mof_C 	C 	0.66947	0.08011	0.29433	-0.047
Mof_H 	H 	0.6684	0.0698	0.271	0.027
Mof_H 	H 	0.7001	0.0561	0.3041	0.026
Mof_C 	C 	0.54162	0.01982	0.49468	-0.036
Mof_H 	H 	0.5721	0.9999	0.5049	0.017
Mof_H 	H 	0.5419	0.0549	0.4747	0.022
Mof_H 	H 	0.4955	0.0133	0.4285	0.025
Mof_C 	C 	0.57769	0.11511	0.32429	-0.049
Mof_H 	H 	0.547	0.1156	0.3548	0.025
Mof_H 	H 	0.5748	0.1034	0.3032	0.025
Mof_C 	C 	0.62324	0.09864	0.37296	-0.047
Mof_H 	H 	0.6519	0.0757	0.3859	0.024
Mof_H 	H 	0.5916	0.0996	0.4024	0.024
Mof_H 	H 	0.7738	0.8484	0.6534	0.022
Mof_C 	C 	0.74044	0.85994	0.46366	-0.047
Mof_H 	H 	0.7282	0.8466	0.5012	0.024
Mof_H 	H 	0.7615	0.8309	0.4511	0.023
Mof_H 	H 	0.7516	0.8762	0.5712	0.023
Mof_C 	C 	0.69439	0.89217	0.44423	-0.047
Mof_H 	H 	0.6969	0.8777	0.4221	0.025
Mof_H 	H 	0.6627	0.8909	0.4735	0.024
Mof_N 	N 	0.62358	0.95776	0.07858	-0.137
Mof_H 	H 	0.8073	0.9335	0.8841	0.023
Mof_H 	H 	0.7406	0.9296	0.979	0.019
Mof_C 	C 	0.66947	0.95609	0.08011	-0.047
Mof_H 	H 	0.6684	0.9908	0.0698	0.025
Mof_H 	H 	0.7001	0.9397	0.0561	0.025
Mof_C 	C 	0.54162	0.94388	0.01982	-0.036
Mof_H 	H 	0.5721	0.9231	0.9999	0.017
Mof_H 	H 	0.5419	0.9285	0.0549	0.022
Mof_H 	H 	0.4955	0.0627	0.0133	0.024
Mof_C 	C 	0.57769	0.98291	0.11511	-0.063
Mof_H 	H 	0.547	0.9826	0.1156	0.027
Mof_H 	H 	0.5748	0.0186	0.1034	0.035
Mof_C 	C 	0.62324	0.90516	0.09864	-0.047
Mof_H 	H 	0.6519	0.8865	0.0757	0.024
Mof_H 	H 	0.5916	0.9064	0.0996	0.024
Mof_H 	H 	0.7738	0.7244	0.8484	0.022
Mof_C 	C 	0.74044	0.93596	0.85994	-0.041
Mof_H 	H 	0.7282	0.924	0.8466	0.022
Mof_H 	H 	0.7615	0.9565	0.8309	0.02
Mof_H 	H 	0.7516	0.801	0.8762	0.023
Mof_C 	C 	0.69439	0.96921	0.89217	-0.063
Mof_H 	H 	0.6969	0.0033	0.8777	0.036
Mof_H 	H 	0.6627	0.9729	0.8909	0.027
Mof_N 	N 	0.34008	0.07858	0.95776	-0.137
Mof_H 	H 	0.3751	0.8841	0.9335	0.024
Mof_H 	H 	0.3508	0.979	0.9296	0.02
Mof_C 	C 	0.29433	0.08011	0.95609	-0.047
Mof_H 	H 	0.271	0.0698	0.9908	0.026
Mof_H 	H 	0.3041	0.0561	0.9397	0.025
Mof_C 	C 	0.49468	0.01982	0.94388	-0.037
Mof_H 	H 	0.5049	0.9999	0.9231	0.017
Mof_H 	H 	0.4747	0.0549	0.9285	0.022
Mof_H 	H 	0.4285	0.0133	0.0627	0.024
Mof_C 	C 	0.32429	0.11511	0.98291	-0.063
Mof_H 	H 	0.3548	0.1156	0.9826	0.027
Mof_H 	H 	0.3032	0.1034	0.0186	0.035
Mof_C 	C 	0.37296	0.09864	0.90516	-0.047
Mof_H 	H 	0.3859	0.0757	0.8865	0.024
Mof_H 	H 	0.4024	0.0996	0.9064	0.024
Mof_H 	H 	0.6534	0.8484	0.7244	0.022
Mof_C 	C 	0.46366	0.85994	0.93596	-0.041
Mof_H 	H 	0.5012	0.8466	0.924	0.022
Mof_H 	H 	0.4511	0.8309	0.9565	0.02
Mof_H 	H 	0.5712	0.8762	0.801	0.023
Mof_C 	C 	0.44423	0.89217	0.96921	-0.063
Mof_H 	H 	0.4221	0.8777	0.0033	0.036
Mof_H 	H 	0.4735	0.8909	0.9729	0.027
Mof_N 	N 	0.07858	0.34008	0.62358	-0.139
Mof_H 	H 	0.8841	0.3751	0.8073	0.024
Mof_H 	H 	0.979	0.3508	0.7406	0.02
Mof_C 	C 	0.08011	0.29433	0.66947	-0.047
Mof_H 	H 	0.0698	0.271	0.6684	0.027
Mof_H 	H 	0.0561	0.3041	0.7001	0.026
Mof_C 	C 	0.01982	0.49468	0.54162	-0.036
Mof_H 	H 	0.9999	0.5049	0.5721	0.017
Mof_H 	H 	0.0549	0.4747	0.5419	0.022
Mof_H 	H 	0.0133	0.4285	0.4955	0.025
Mof_C 	C 	0.11511	0.32429	0.57769	-0.049
Mof_H 	H 	0.1156	0.3548	0.547	0.025
Mof_H 	H 	0.1034	0.3032	0.5748	0.025
Mof_C 	C 	0.09864	0.37296	0.62324	-0.047
Mof_H 	H 	0.0757	0.3859	0.6519	0.024
Mof_H 	H 	0.0996	0.4024	0.5916	0.024
Mof_H 	H 	0.8484	0.6534	0.7738	0.022
Mof_C 	C 	0.85994	0.46366	0.74044	-0.047
Mof_H 	H 	0.8466	0.5012	0.7282	0.024
Mof_H 	H 	0.8309	0.4511	0.7615	0.023
Mof_H 	H 	0.8762	0.5712	0.7516	0.023
Mof_C 	C 	0.89217	0.44423	0.69439	-0.047
Mof_H 	H 	0.8777	0.4221	0.6969	0.025
Mof_H 	H 	0.8909	0.4735	0.6627	0.024
Mof_N 	N 	0.95776	0.62358	0.34008	-0.139
Mof_H 	H 	0.9335	0.8073	0.3751	0.024
Mof_H 	H 	0.9296	0.7406	0.3508	0.022
Mof_C 	C 	0.95609	0.66947	0.29433	-0.045
Mof_H 	H 	0.9908	0.6684	0.271	0.023
Mof_H 	H 	0.9397	0.7001	0.3041	0.022
Mof_C 	C 	0.94388	0.54162	0.49468	-0.05
Mof_H 	H 	0.9231	0.5721	0.5049	0.025
Mof_H 	H 	0.9285	0.5419	0.4747	0.024
Mof_H 	H 	0.0627	0.4955	0.4285	0.022
Mof_C 	C 	0.98291	0.57769	0.32429	-0.063
Mof_H 	H 	0.9826	0.547	0.3548	0.026
Mof_H 	H 	0.0186	0.5748	0.3032	0.034
Mof_C 	C 	0.90516	0.62324	0.37296	-0.046
Mof_H 	H 	0.8865	0.6519	0.3859	0.022
Mof_H 	H 	0.9064	0.5916	0.4024	0.022
Mof_H 	H 	0.7244	0.7738	0.6534	0.022
Mof_C 	C 	0.93596	0.74044	0.46366	-0.041
Mof_H 	H 	0.924	0.7282	0.5012	0.022
Mof_H 	H 	0.9565	0.7615	0.4511	0.02
Mof_H 	H 	0.801	0.7516	0.5712	0.023
Mof_C 	C 	0.96921	0.69439	0.44423	-0.063
Mof_H 	H 	0.0033	0.6969	0.4221	0.035
Mof_H 	H 	0.9729	0.6627	0.4735	0.027
Mof_N 	N 	0.34008	0.62358	0.95776	-0.139
Mof_H 	H 	0.3751	0.8073	0.9335	0.024
Mof_H 	H 	0.3508	0.7406	0.9296	0.022
Mof_C 	C 	0.29433	0.66947	0.95609	-0.045
Mof_H 	H 	0.271	0.6684	0.9908	0.023
Mof_H 	H 	0.3041	0.7001	0.9397	0.022
Mof_C 	C 	0.49468	0.54162	0.94388	-0.05
Mof_H 	H 	0.5049	0.5721	0.9231	0.025
Mof_H 	H 	0.4747	0.5419	0.9285	0.024
Mof_H 	H 	0.4285	0.4955	0.0627	0.022
Mof_C 	C 	0.32429	0.57769	0.98291	-0.063
Mof_H 	H 	0.3548	0.547	0.9826	0.026
Mof_H 	H 	0.3032	0.5748	0.0186	0.034
Mof_C 	C 	0.37296	0.62324	0.90516	-0.046
Mof_H 	H 	0.3859	0.6519	0.8865	0.022
Mof_H 	H 	0.4024	0.5916	0.9064	0.022
Mof_H 	H 	0.6534	0.7738	0.7244	0.022
Mof_C 	C 	0.46366	0.74044	0.93596	-0.041
Mof_H 	H 	0.5012	0.7282	0.924	0.022
Mof_H 	H 	0.4511	0.7615	0.9565	0.02
Mof_H 	H 	0.5712	0.7516	0.801	0.023
Mof_C 	C 	0.44423	0.69439	0.96921	-0.063
Mof_H 	H 	0.4221	0.6969	0.0033	0.035
Mof_H 	H 	0.4735	0.6627	0.9729	0.027
Mof_N 	N 	0.62358	0.34008	0.07858	-0.139
Mof_H 	H 	0.8073	0.3751	0.8841	0.024
Mof_H 	H 	0.7406	0.3508	0.979	0.02
Mof_C 	C 	0.66947	0.29433	0.08011	-0.047
Mof_H 	H 	0.6684	0.271	0.0698	0.027
Mof_H 	H 	0.7001	0.3041	0.0561	0.026
Mof_C 	C 	0.54162	0.49468	0.01982	-0.036
Mof_H 	H 	0.5721	0.5049	0.9999	0.017
Mof_H 	H 	0.5419	0.4747	0.0549	0.022
Mof_H 	H 	0.4955	0.4285	0.0133	0.025
Mof_C 	C 	0.57769	0.32429	0.11511	-0.049
Mof_H 	H 	0.547	0.3548	0.1156	0.025
Mof_H 	H 	0.5748	0.3032	0.1034	0.025
Mof_C 	C 	0.62324	0.37296	0.09864	-0.047
Mof_H 	H 	0.6519	0.3859	0.0757	0.024
Mof_H 	H 	0.5916	0.4024	0.0996	0.024
Mof_H 	H 	0.7738	0.6534	0.8484	0.022
Mof_C 	C 	0.74044	0.46366	0.85994	-0.047
Mof_H 	H 	0.7282	0.5012	0.8466	0.024
Mof_H 	H 	0.7615	0.4511	0.8309	0.023
Mof_H 	H 	0.7516	0.5712	0.8762	0.023
Mof_C 	C 	0.69439	0.44423	0.89217	-0.047
Mof_H 	H 	0.6969	0.4221	0.8777	0.025
Mof_H 	H 	0.6627	0.4735	0.8909	0.024
Mof_N 	N 	0.95776	0.07858	0.34008	-0.137
Mof_H 	H 	0.9335	0.8841	0.3751	0.024
Mof_H 	H 	0.9296	0.979	0.3508	0.02
Mof_C 	C 	0.95609	0.08011	0.29433	-0.047
Mof_H 	H 	0.9908	0.0698	0.271	0.026
Mof_H 	H 	0.9397	0.0561	0.3041	0.025
Mof_C 	C 	0.94388	0.01982	0.49468	-0.037
Mof_H 	H 	0.9231	0.9999	0.5049	0.017
Mof_H 	H 	0.9285	0.0549	0.4747	0.022
Mof_H 	H 	0.0627	0.0133	0.4285	0.024
Mof_C 	C 	0.98291	0.11511	0.32429	-0.063
Mof_H 	H 	0.9826	0.1156	0.3548	0.027
Mof_H 	H 	0.0186	0.1034	0.3032	0.035
Mof_C 	C 	0.90516	0.09864	0.37296	-0.047
Mof_H 	H 	0.8865	0.0757	0.3859	0.024
Mof_H 	H 	0.9064	0.0996	0.4024	0.024
Mof_H 	H 	0.7244	0.8484	0.6534	0.022
Mof_C 	C 	0.93596	0.85994	0.46366	-0.041
Mof_H 	H 	0.924	0.8466	0.5012	0.022
Mof_H 	H 	0.9565	0.8309	0.4511	0.02
Mof_H 	H 	0.801	0.8762	0.5712	0.023
Mof_C 	C 	0.96921	0.89217	0.44423	-0.063
Mof_H 	H 	0.0033	0.8777	0.4221	0.036
Mof_H 	H 	0.9729	0.8909	0.4735	0.027
Mof_N 	N 	0.07858	0.95776	0.62358	-0.137
Mof_H 	H 	0.8841	0.9335	0.8073	0.023
Mof_H 	H 	0.979	0.9296	0.7406	0.019
Mof_C 	C 	0.08011	0.95609	0.66947	-0.047
Mof_H 	H 	0.0698	0.9908	0.6684	0.025
Mof_H 	H 	0.0561	0.9397	0.7001	0.025
Mof_C 	C 	0.01982	0.94388	0.54162	-0.036
Mof_H 	H 	0.9999	0.9231	0.5721	0.017
Mof_H 	H 	0.0549	0.9285	0.5419	0.022
Mof_H 	H 	0.0133	0.0627	0.4955	0.024
Mof_C 	C 	0.11511	0.98291	0.57769	-0.063
Mof_H 	H 	0.1156	0.9826	0.547	0.027
Mof_H 	H 	0.1034	0.0186	0.5748	0.035
Mof_C 	C 	0.09864	0.90516	0.62324	-0.047
Mof_H 	H 	0.0757	0.8865	0.6519	0.024
Mof_H 	H 	0.0996	0.9064	0.5916	0.024
Mof_H 	H 	0.8484	0.7244	0.7738	0.022
Mof_C 	C 	0.85994	0.93596	0.74044	-0.041
Mof_H 	H 	0.8466	0.924	0.7282	0.022
Mof_H 	H 	0.8309	0.9565	0.7615	0.02
Mof_H 	H 	0.8762	0.801	0.7516	0.023
Mof_C 	C 	0.89217	0.96921	0.69439	-0.063
Mof_H 	H 	0.8777	0.0033	0.6969	0.036
Mof_H 	H 	0.8909	0.9729	0.6627	0.027
Mof_N 	N 	0.95776	0.34008	0.62358	-0.139
Mof_H 	H 	0.9335	0.3751	0.8073	0.024
Mof_H 	H 	0.9296	0.3508	0.7406	0.022
Mof_C 	C 	0.95609	0.29433	0.66947	-0.045
Mof_H 	H 	0.9908	0.271	0.6684	0.023
Mof_H 	H 	0.9397	0.3041	0.7001	0.022
Mof_C 	C 	0.94388	0.49468	0.54162	-0.05
Mof_H 	H 	0.9231	0.5049	0.5721	0.025
Mof_H 	H 	0.9285	0.4747	0.5419	0.024
Mof_H 	H 	0.0627	0.4285	0.4955	0.022
Mof_C 	C 	0.98291	0.32429	0.57769	-0.063
Mof_H 	H 	0.9826	0.3548	0.547	0.026
Mof_H 	H 	0.0186	0.3032	0.5748	0.034
Mof_C 	C 	0.90516	0.37296	0.62324	-0.046
Mof_H 	H 	0.8865	0.3859	0.6519	0.022
Mof_H 	H 	0.9064	0.4024	0.5916	0.022
Mof_H 	H 	0.7244	0.6534	0.7738	0.022
Mof_C 	C 	0.93596	0.46366	0.74044	-0.041
Mof_H 	H 	0.924	0.5012	0.7282	0.022
Mof_H 	H 	0.9565	0.4511	0.7615	0.02
Mof_H 	H 	0.801	0.5712	0.7516	0.023
Mof_C 	C 	0.96921	0.44423	0.69439	-0.063
Mof_H 	H 	0.0033	0.4221	0.6969	0.035
Mof_H 	H 	0.9729	0.4735	0.6627	0.027
Mof_N 	N 	0.07858	0.62358	0.34008	-0.139
Mof_H 	H 	0.8841	0.8073	0.3751	0.024
Mof_H 	H 	0.979	0.7406	0.3508	0.02
Mof_C 	C 	0.08011	0.66947	0.29433	-0.047
Mof_H 	H 	0.0698	0.6684	0.271	0.027
Mof_H 	H 	0.0561	0.7001	0.3041	0.026
Mof_C 	C 	0.01982	0.54162	0.49468	-0.036
Mof_H 	H 	0.9999	0.5721	0.5049	0.017
Mof_H 	H 	0.0549	0.5419	0.4747	0.022
Mof_H 	H 	0.0133	0.4955	0.4285	0.025
Mof_C 	C 	0.11511	0.57769	0.32429	-0.049
Mof_H 	H 	0.1156	0.547	0.3548	0.025
Mof_H 	H 	0.1034	0.5748	0.3032	0.025
Mof_C 	C 	0.09864	0.62324	0.37296	-0.047
Mof_H 	H 	0.0757	0.6519	0.3859	0.024
Mof_H 	H 	0.0996	0.5916	0.4024	0.024
Mof_H 	H 	0.8484	0.7738	0.6534	0.022
Mof_C 	C 	0.85994	0.74044	0.46366	-0.047
Mof_H 	H 	0.8466	0.7282	0.5012	0.024
Mof_H 	H 	0.8309	0.7615	0.4511	0.023
Mof_H 	H 	0.8762	0.7516	0.5712	0.023
Mof_C 	C 	0.89217	0.69439	0.44423	-0.047
Mof_H 	H 	0.8777	0.6969	0.4221	0.025
Mof_H 	H 	0.8909	0.6627	0.4735	0.024
Mof_N 	N 	0.34008	0.95776	0.07858	-0.137
Mof_H 	H 	0.3751	0.9335	0.8841	0.024
Mof_H 	H 	0.3508	0.9296	0.979	0.02
Mof_C 	C 	0.29433	0.95609	0.08011	-0.047
Mof_H 	H 	0.271	0.9908	0.0698	0.026
Mof_H 	H 	0.3041	0.9397	0.0561	0.025
Mof_C 	C 	0.49468	0.94388	0.01982	-0.037
Mof_H 	H 	0.5049	0.9231	0.9999	0.017
Mof_H 	H 	0.4747	0.9285	0.0549	0.022
Mof_H 	H 	0.4285	0.0627	0.0133	0.024
Mof_C 	C 	0.32429	0.98291	0.11511	-0.063
Mof_H 	H 	0.3548	0.9826	0.1156	0.027
Mof_H 	H 	0.3032	0.0186	0.1034	0.035
Mof_C 	C 	0.37296	0.90516	0.09864	-0.047
Mof_H 	H 	0.3859	0.8865	0.0757	0.024
Mof_H 	H 	0.4024	0.9064	0.0996	0.024
Mof_H 	H 	0.6534	0.7244	0.8484	0.022
Mof_C 	C 	0.46366	0.93596	0.85994	-0.041
Mof_H 	H 	0.5012	0.924	0.8466	0.022
Mof_H 	H 	0.4511	0.9565	0.8309	0.02
Mof_H 	H 	0.5712	0.801	0.8762	0.023
Mof_C 	C 	0.44423	0.96921	0.89217	-0.063
Mof_H 	H 	0.4221	0.0033	0.8777	0.036
Mof_H 	H 	0.4735	0.9729	0.8909	0.027
Mof_N 	N 	0.62358	0.07858	0.95776	-0.137
Mof_H 	H 	0.8073	0.8841	0.9335	0.023
Mof_H 	H 	0.7406	0.979	0.9296	0.019
Mof_C 	C 	0.66947	0.08011	0.95609	-0.047
Mof_H 	H 	0.6684	0.0698	0.9908	0.025
Mof_H 	H 	0.7001	0.0561	0.9397	0.025
Mof_C 	C 	0.54162	0.01982	0.94388	-0.036
Mof_H 	H 	0.5721	0.9999	0.9231	0.017
Mof_H 	H 	0.5419	0.0549	0.9285	0.022
Mof_H 	H 	0.4955	0.0133	0.0627	0.024
Mof_C 	C 	0.57769	0.11511	0.98291	-0.063
Mof_H 	H 	0.547	0.1156	0.9826	0.027
Mof_H 	H 	0.5748	0.1034	0.0186	0.035
Mof_C 	C 	0.62324	0.09864	0.90516	-0.047
Mof_H 	H 	0.6519	0.0757	0.8865	0.024
Mof_H 	H 	0.5916	0.0996	0.9064	0.024
Mof_H 	H 	0.7738	0.8484	0.7244	0.022
Mof_C 	C 	0.74044	0.85994	0.93596	-0.041
Mof_H 	H 	0.7282	0.8466	0.924	0.022
Mof_H 	H 	0.7615	0.8309	0.9565	0.02
Mof_H 	H 	0.7516	0.8762	0.801	0.023
Mof_C 	C 	0.69439	0.89217	0.96921	-0.063
Mof_H 	H 	0.6969	0.8777	0.0033	0.036
Mof_H 	H 	0.6627	0.8909	0.9729	0.027
Mof_N 	N 	0.62358	0.95776	0.34008	-0.139
Mof_H 	H 	0.8073	0.9335	0.3751	0.024
Mof_H 	H 	0.7406	0.9296	0.3508	0.022
Mof_C 	C 	0.66947	0.95609	0.29433	-0.045
Mof_H 	H 	0.6684	0.9908	0.271	0.023
Mof_H 	H 	0.7001	0.9397	0.3041	0.022
Mof_C 	C 	0.54162	0.94388	0.49468	-0.05
Mof_H 	H 	0.5721	0.9231	0.5049	0.025
Mof_H 	H 	0.5419	0.9285	0.4747	0.024
Mof_H 	H 	0.4955	0.0627	0.4285	0.022
Mof_C 	C 	0.57769	0.98291	0.32429	-0.063
Mof_H 	H 	0.547	0.9826	0.3548	0.026
Mof_H 	H 	0.5748	0.0186	0.3032	0.034
Mof_C 	C 	0.62324	0.90516	0.37296	-0.046
Mof_H 	H 	0.6519	0.8865	0.3859	0.022
Mof_H 	H 	0.5916	0.9064	0.4024	0.022
Mof_H 	H 	0.7738	0.7244	0.6534	0.022
Mof_C 	C 	0.74044	0.93596	0.46366	-0.041
Mof_H 	H 	0.7282	0.924	0.5012	0.022
Mof_H 	H 	0.7615	0.9565	0.4511	0.02
Mof_H 	H 	0.7516	0.801	0.5712	0.023
Mof_C 	C 	0.69439	0.96921	0.44423	-0.063
Mof_H 	H 	0.6969	0.0033	0.4221	0.035
Mof_H 	H 	0.6627	0.9729	0.4735	0.027
Mof_N 	N 	0.34008	0.07858	0.62358	-0.139
Mof_H 	H 	0.3751	0.8841	0.8073	0.024
Mof_H 	H 	0.3508	0.979	0.7406	0.02
Mof_C 	C 	0.29433	0.08011	0.66947	-0.047
Mof_H 	H 	0.271	0.0698	0.6684	0.027
Mof_H 	H 	0.3041	0.0561	0.7001	0.026
Mof_C 	C 	0.49468	0.01982	0.54162	-0.036
Mof_H 	H 	0.5049	0.9999	0.5721	0.017
Mof_H 	H 	0.4747	0.0549	0.5419	0.022
Mof_H 	H 	0.4285	0.0133	0.4955	0.025
Mof_C 	C 	0.32429	0.11511	0.57769	-0.049
Mof_H 	H 	0.3548	0.1156	0.547	0.025
Mof_H 	H 	0.3032	0.1034	0.5748	0.025
Mof_C 	C 	0.37296	0.09864	0.62324	-0.047
Mof_H 	H 	0.3859	0.0757	0.6519	0.024
Mof_H 	H 	0.4024	0.0996	0.5916	0.024
Mof_H 	H 	0.6534	0.8484	0.7738	0.022
Mof_C 	C 	0.46366	0.85994	0.74044	-0.047
Mof_H 	H 	0.5012	0.8466	0.7282	0.024
Mof_H 	H 	0.4511	0.8309	0.7615	0.023
Mof_H 	H 	0.5712	0.8762	0.7516	0.023
Mof_C 	C 	0.44423	0.89217	0.69439	-0.047
Mof_H 	H 	0.4221	0.8777	0.6969	0.025
Mof_H 	H 	0.4735	0.8909	0.6627	0.024
Mof_N 	N 	0.07858	0.34008	0.95776	-0.137
Mof_H 	H 	0.8841	0.3751	0.9335	0.024
Mof_H 	H 	0.979	0.3508	0.9296	0.02
Mof_C 	C 	0.08011	0.29433	0.95609	-0.047
Mof_H 	H 	0.0698	0.271	0.9908	0.026
Mof_H 	H 	0.0561	0.3041	0.9397	0.025
Mof_C 	C 	0.01982	0.49468	0.94388	-0.037
Mof_H 	H 	0.9999	0.5049	0.9231	0.017
Mof_H 	H 	0.0549	0.4747	0.9285	0.022
Mof_H 	H 	0.0133	0.4285	0.0627	0.024
Mof_C 	C 	0.11511	0.32429	0.98291	-0.063
Mof_H 	H 	0.1156	0.3548	0.9826	0.027
Mof_H 	H 	0.1034	0.3032	0.0186	0.035
Mof_C 	C 	0.09864	0.37296	0.90516	-0.047
Mof_H 	H 	0.0757	0.3859	0.8865	0.024
Mof_H 	H 	0.0996	0.4024	0.9064	0.024
Mof_H 	H 	0.8484	0.6534	0.7244	0.022
Mof_C 	C 	0.85994	0.46366	0.93596	-0.041
Mof_H 	H 	0.8466	0.5012	0.924	0.022
Mof_H 	H 	0.8309	0.4511	0.9565	0.02
Mof_H 	H 	0.8762	0.5712	0.801	0.023
Mof_C 	C 	0.89217	0.44423	0.96921	-0.063
Mof_H 	H 	0.8777	0.4221	0.0033	0.036
Mof_H 	H 	0.8909	0.4735	0.9729	0.027
Mof_N 	N 	0.95776	0.62358	0.07858	-0.137
Mof_H 	H 	0.9335	0.8073	0.8841	0.023
Mof_H 	H 	0.9296	0.7406	0.979	0.019
Mof_C 	C 	0.95609	0.66947	0.08011	-0.047
Mof_H 	H 	0.9908	0.6684	0.0698	0.025
Mof_H 	H 	0.9397	0.7001	0.0561	0.025
Mof_C 	C 	0.94388	0.54162	0.01982	-0.036
Mof_H 	H 	0.9231	0.5721	0.9999	0.017
Mof_H 	H 	0.9285	0.5419	0.0549	0.022
Mof_H 	H 	0.0627	0.4955	0.0133	0.024
Mof_C 	C 	0.98291	0.57769	0.11511	-0.063
Mof_H 	H 	0.9826	0.547	0.1156	0.027
Mof_H 	H 	0.0186	0.5748	0.1034	0.035
Mof_C 	C 	0.90516	0.62324	0.09864	-0.047
Mof_H 	H 	0.8865	0.6519	0.0757	0.024
Mof_H 	H 	0.9064	0.5916	0.0996	0.024
Mof_H 	H 	0.7244	0.7738	0.8484	0.022
Mof_C 	C 	0.93596	0.74044	0.85994	-0.041
Mof_H 	H 	0.924	0.7282	0.8466	0.022
Mof_H 	H 	0.9565	0.7615	0.8309	0.02
Mof_H 	H 	0.801	0.7516	0.8762	0.023
Mof_C 	C 	0.96921	0.69439	0.89217	-0.063
Mof_H 	H 	0.0033	0.6969	0.8777	0.036
Mof_H 	H 	0.9729	0.6627	0.8909	0.027
Mof_N 	N 	0.90992	0.62642	0.17142	-0.142
Mof_H 	H 	0.8749	0.4427	0.3659	0.024
Mof_H 	H 	0.8992	0.5094	0.271	0.022
Mof_C 	C 	0.95567	0.58053	0.16989	-0.039
Mof_H 	H 	0.979	0.5816	0.1802	0.022
Mof_H 	H 	0.9459	0.5499	0.1939	0.021
Mof_C 	C 	0.75532	0.70838	0.23018	-0.05
Mof_H 	H 	0.7451	0.6779	0.2501	0.025
Mof_H 	H 	0.7753	0.7081	0.1951	0.025
Mof_H 	H 	0.8215	0.7545	0.2367	0.023
Mof_C 	C 	0.92571	0.67231	0.13489	-0.047
Mof_H 	H 	0.8952	0.703	0.1344	0.024
Mof_H 	H 	0.9468	0.6752	0.1466	0.023
Mof_C 	C 	0.87704	0.62676	0.15136	-0.045
Mof_H 	H 	0.8641	0.5981	0.1743	0.022
Mof_H 	H 	0.8476	0.6584	0.1504	0.023
Mof_H 	H 	0.5966	0.4762	0.4016	0.022
Mof_C 	C 	0.78634	0.50956	0.39006	-0.048
Mof_H 	H 	0.7488	0.5218	0.4034	0.024
Mof_H 	H 	0.7989	0.4885	0.4191	0.023
Mof_H 	H 	0.6788	0.4984	0.3738	0.024
Mof_C 	C 	0.80577	0.55561	0.35783	-0.047
Mof_H 	H 	0.8279	0.5531	0.3723	0.025
Mof_H 	H 	0.7765	0.5873	0.3591	0.023
Mof_N 	N 	0.62642	0.90992	0.29224	-0.142
Mof_H 	H 	0.4427	0.8749	0.3165	0.024
Mof_H 	H 	0.5094	0.8992	0.3204	0.022
Mof_C 	C 	0.58053	0.95567	0.29391	-0.039
Mof_H 	H 	0.5816	0.979	0.2592	0.022
Mof_H 	H 	0.5499	0.9459	0.3103	0.021
Mof_C 	C 	0.70838	0.75532	0.30612	-0.049
Mof_H 	H 	0.6779	0.7451	0.3269	0.025
Mof_H 	H 	0.7081	0.7753	0.3215	0.025
Mof_H 	H 	0.7545	0.8215	0.1873	0.023
Mof_C 	C 	0.67231	0.92571	0.26709	-0.048
Mof_H 	H 	0.703	0.8952	0.2674	0.024
Mof_H 	H 	0.6752	0.9468	0.2314	0.023
Mof_C 	C 	0.62676	0.87704	0.34484	-0.046
Mof_H 	H 	0.5981	0.8641	0.3635	0.022
Mof_H 	H 	0.6584	0.8476	0.3436	0.022
Mof_H 	H 	0.4762	0.5966	0.5256	0.022
Mof_C 	C 	0.50956	0.78634	0.31404	-0.048
Mof_H 	H 	0.5218	0.7488	0.326	0.024
Mof_H 	H 	0.4885	0.7989	0.2935	0.023
Mof_H 	H 	0.4984	0.6788	0.449	0.023
Mof_C 	C 	0.55561	0.80577	0.28079	-0.047
Mof_H 	H 	0.5531	0.8279	0.2467	0.025
Mof_H 	H 	0.5873	0.7765	0.2771	0.024
Mof_N 	N 	0.29224	0.17142	0.62642	-0.141
Mof_H 	H 	0.3165	0.3659	0.4427	0.025
Mof_H 	H 	0.3204	0.271	0.5094	0.022
Mof_C 	C 	0.29391	0.16989	0.58053	-0.045
Mof_H 	H 	0.2592	0.1802	0.5816	0.025
Mof_H 	H 	0.3103	0.1939	0.5499	0.023
Mof_C 	C 	0.30612	0.23018	0.70838	-0.05
Mof_H 	H 	0.3269	0.2501	0.6779	0.025
Mof_H 	H 	0.3215	0.1951	0.7081	0.025
Mof_H 	H 	0.1873	0.2367	0.7545	0.023
Mof_C 	C 	0.26709	0.13489	0.67231	-0.048
Mof_H 	H 	0.2674	0.1344	0.703	0.024
Mof_H 	H 	0.2314	0.1466	0.6752	0.024
Mof_C 	C 	0.34484	0.15136	0.62676	-0.046
Mof_H 	H 	0.3635	0.1743	0.5981	0.022
Mof_H 	H 	0.3436	0.1504	0.6584	0.023
Mof_H 	H 	0.5256	0.4016	0.4762	0.022
Mof_C 	C 	0.31404	0.39006	0.50956	-0.048
Mof_H 	H 	0.326	0.4034	0.5218	0.024
Mof_H 	H 	0.2935	0.4191	0.4885	0.023
Mof_H 	H 	0.449	0.3738	0.4984	0.024
Mof_C 	C 	0.28079	0.35783	0.55561	-0.047
Mof_H 	H 	0.2467	0.3723	0.5531	0.025
Mof_H 	H 	0.2771	0.3591	0.5873	0.024
Mof_N 	N 	0.17142	0.29224	0.90992	-0.142
Mof_H 	H 	0.3659	0.3165	0.8749	0.024
Mof_H 	H 	0.271	0.3204	0.8992	0.022
Mof_C 	C 	0.16989	0.29391	0.95567	-0.039
Mof_H 	H 	0.1802	0.2592	0.979	0.022
Mof_H 	H 	0.1939	0.3103	0.9459	0.021
Mof_C 	C 	0.23018	0.30612	0.75532	-0.05
Mof_H 	H 	0.2501	0.3269	0.7451	0.025
Mof_H 	H 	0.1951	0.3215	0.7753	0.025
Mof_H 	H 	0.2367	0.1873	0.8215	0.023
Mof_C 	C 	0.13489	0.26709	0.92571	-0.047
Mof_H 	H 	0.1344	0.2674	0.8952	0.024
Mof_H 	H 	0.1466	0.2314	0.9468	0.024
Mof_C 	C 	0.15136	0.34484	0.87704	-0.045
Mof_H 	H 	0.1743	0.3635	0.8641	0.022
Mof_H 	H 	0.1504	0.3436	0.8476	0.023
Mof_H 	H 	0.4016	0.5256	0.5966	0.022
Mof_C 	C 	0.39006	0.31404	0.78634	-0.048
Mof_H 	H 	0.4034	0.326	0.7488	0.024
Mof_H 	H 	0.4191	0.2935	0.7989	0.023
Mof_H 	H 	0.3738	0.449	0.6788	0.024
Mof_C 	C 	0.35783	0.28079	0.80577	-0.047
Mof_H 	H 	0.3723	0.2467	0.8279	0.025
Mof_H 	H 	0.3591	0.2771	0.7765	0.024
Mof_N 	N 	0.29224	0.90992	0.17142	-0.142
Mof_H 	H 	0.3165	0.8749	0.3659	0.024
Mof_H 	H 	0.3204	0.8992	0.271	0.022
Mof_C 	C 	0.29391	0.95567	0.16989	-0.039
Mof_H 	H 	0.2592	0.979	0.1802	0.022
Mof_H 	H 	0.3103	0.9459	0.1939	0.021
Mof_C 	C 	0.30612	0.75532	0.23018	-0.05
Mof_H 	H 	0.3269	0.7451	0.2501	0.025
Mof_H 	H 	0.3215	0.7753	0.1951	0.025
Mof_H 	H 	0.1873	0.8215	0.2367	0.023
Mof_C 	C 	0.26709	0.92571	0.13489	-0.047
Mof_H 	H 	0.2674	0.8952	0.1344	0.024
Mof_H 	H 	0.2314	0.9468	0.1466	0.024
Mof_C 	C 	0.34484	0.87704	0.15136	-0.045
Mof_H 	H 	0.3635	0.8641	0.1743	0.022
Mof_H 	H 	0.3436	0.8476	0.1504	0.023
Mof_H 	H 	0.5256	0.5966	0.4016	0.022
Mof_C 	C 	0.31404	0.78634	0.39006	-0.048
Mof_H 	H 	0.326	0.7488	0.4034	0.024
Mof_H 	H 	0.2935	0.7989	0.4191	0.023
Mof_H 	H 	0.449	0.6788	0.3738	0.024
Mof_C 	C 	0.28079	0.80577	0.35783	-0.047
Mof_H 	H 	0.2467	0.8279	0.3723	0.025
Mof_H 	H 	0.2771	0.7765	0.3591	0.024
Mof_N 	N 	0.17142	0.62642	0.29224	-0.141
Mof_H 	H 	0.3659	0.4427	0.3165	0.025
Mof_H 	H 	0.271	0.5094	0.3204	0.022
Mof_C 	C 	0.16989	0.58053	0.29391	-0.045
Mof_H 	H 	0.1802	0.5816	0.2592	0.025
Mof_H 	H 	0.1939	0.5499	0.3103	0.023
Mof_C 	C 	0.23018	0.70838	0.30612	-0.05
Mof_H 	H 	0.2501	0.6779	0.3269	0.025
Mof_H 	H 	0.1951	0.7081	0.3215	0.025
Mof_H 	H 	0.2367	0.7545	0.1873	0.023
Mof_C 	C 	0.13489	0.67231	0.26709	-0.048
Mof_H 	H 	0.1344	0.703	0.2674	0.024
Mof_H 	H 	0.1466	0.6752	0.2314	0.024
Mof_C 	C 	0.15136	0.62676	0.34484	-0.046
Mof_H 	H 	0.1743	0.5981	0.3635	0.022
Mof_H 	H 	0.1504	0.6584	0.3436	0.023
Mof_H 	H 	0.4016	0.4762	0.5256	0.022
Mof_C 	C 	0.39006	0.50956	0.31404	-0.048
Mof_H 	H 	0.4034	0.5218	0.326	0.024
Mof_H 	H 	0.4191	0.4885	0.2935	0.023
Mof_H 	H 	0.3738	0.4984	0.449	0.024
Mof_C 	C 	0.35783	0.55561	0.28079	-0.047
Mof_H 	H 	0.3723	0.5531	0.2467	0.025
Mof_H 	H 	0.3591	0.5873	0.2771	0.024
Mof_N 	N 	0.90992	0.29224	0.62642	-0.142
Mof_H 	H 	0.8749	0.3165	0.4427	0.024
Mof_H 	H 	0.8992	0.3204	0.5094	0.022
Mof_C 	C 	0.95567	0.29391	0.58053	-0.039
Mof_H 	H 	0.979	0.2592	0.5816	0.022
Mof_H 	H 	0.9459	0.3103	0.5499	0.021
Mof_C 	C 	0.75532	0.30612	0.70838	-0.049
Mof_H 	H 	0.7451	0.3269	0.6779	0.025
Mof_H 	H 	0.7753	0.3215	0.7081	0.025
Mof_H 	H 	0.8215	0.1873	0.7545	0.023
Mof_C 	C 	0.92571	0.26709	0.67231	-0.048
Mof_H 	H 	0.8952	0.2674	0.703	0.024
Mof_H 	H 	0.9468	0.2314	0.6752	0.023
Mof_C 	C 	0.87704	0.34484	0.62676	-0.046
Mof_H 	H 	0.8641	0.3635	0.5981	0.022
Mof_H 	H 	0.8476	0.3436	0.6584	0.022
Mof_H 	H 	0.5966	0.5256	0.4762	0.022
Mof_C 	C 	0.78634	0.31404	0.50956	-0.048
Mof_H 	H 	0.7488	0.326	0.5218	0.024
Mof_H 	H 	0.7989	0.2935	0.4885	0.023
Mof_H 	H 	0.6788	0.449	0.4984	0.023
Mof_C 	C 	0.80577	0.28079	0.55561	-0.047
Mof_H 	H 	0.8279	0.2467	0.5531	0.025
Mof_H 	H 	0.7765	0.2771	0.5873	0.024
Mof_N 	N 	0.62642	0.17142	0.90992	-0.142
Mof_H 	H 	0.4427	0.3659	0.8749	0.024
Mof_H 	H 	0.5094	0.271	0.8992	0.022
Mof_C 	C 	0.58053	0.16989	0.95567	-0.039
Mof_H 	H 	0.5816	0.1802	0.979	0.022
Mof_H 	H 	0.5499	0.1939	0.9459	0.021
Mof_C 	C 	0.70838	0.23018	0.75532	-0.05
Mof_H 	H 	0.6779	0.2501	0.7451	0.025
Mof_H 	H 	0.7081	0.1951	0.7753	0.025
Mof_H 	H 	0.7545	0.2367	0.8215	0.023
Mof_C 	C 	0.67231	0.13489	0.92571	-0.047
Mof_H 	H 	0.703	0.1344	0.8952	0.024
Mof_H 	H 	0.6752	0.1466	0.9468	0.023
Mof_C 	C 	0.62676	0.15136	0.87704	-0.045
Mof_H 	H 	0.5981	0.1743	0.8641	0.022
Mof_H 	H 	0.6584	0.1504	0.8476	0.023
Mof_H 	H 	0.4762	0.4016	0.5966	0.022
Mof_C 	C 	0.50956	0.39006	0.78634	-0.048
Mof_H 	H 	0.5218	0.4034	0.7488	0.024
Mof_H 	H 	0.4885	0.4191	0.7989	0.023
Mof_H 	H 	0.4984	0.3738	0.6788	0.024
Mof_C 	C 	0.55561	0.35783	0.80577	-0.047
Mof_H 	H 	0.5531	0.3723	0.8279	0.025
Mof_H 	H 	0.5873	0.3591	0.7765	0.023
Mof_N 	N 	0.62642	0.29224	0.17142	-0.141
Mof_H 	H 	0.4427	0.3165	0.3659	0.025
Mof_H 	H 	0.5094	0.3204	0.271	0.022
Mof_C 	C 	0.58053	0.29391	0.16989	-0.045
Mof_H 	H 	0.5816	0.2592	0.1802	0.025
Mof_H 	H 	0.5499	0.3103	0.1939	0.023
Mof_C 	C 	0.70838	0.30612	0.23018	-0.05
Mof_H 	H 	0.6779	0.3269	0.2501	0.025
Mof_H 	H 	0.7081	0.3215	0.1951	0.025
Mof_H 	H 	0.7545	0.1873	0.2367	0.023
Mof_C 	C 	0.67231	0.26709	0.13489	-0.048
Mof_H 	H 	0.703	0.2674	0.1344	0.024
Mof_H 	H 	0.6752	0.2314	0.1466	0.024
Mof_C 	C 	0.62676	0.34484	0.15136	-0.046
Mof_H 	H 	0.5981	0.3635	0.1743	0.022
Mof_H 	H 	0.6584	0.3436	0.1504	0.023
Mof_H 	H 	0.4762	0.5256	0.4016	0.022
Mof_C 	C 	0.50956	0.31404	0.39006	-0.048
Mof_H 	H 	0.5218	0.326	0.4034	0.024
Mof_H 	H 	0.4885	0.2935	0.4191	0.023
Mof_H 	H 	0.4984	0.449	0.3738	0.024
Mof_C 	C 	0.55561	0.28079	0.35783	-0.047
Mof_H 	H 	0.5531	0.2467	0.3723	0.025
Mof_H 	H 	0.5873	0.2771	0.3591	0.024
Mof_N 	N 	0.90992	0.17142	0.29224	-0.142
Mof_H 	H 	0.8749	0.3659	0.3165	0.024
Mof_H 	H 	0.8992	0.271	0.3204	0.022
Mof_C 	C 	0.95567	0.16989	0.29391	-0.039
Mof_H 	H 	0.979	0.1802	0.2592	0.022
Mof_H 	H 	0.9459	0.1939	0.3103	0.021
Mof_C 	C 	0.75532	0.23018	0.30612	-0.05
Mof_H 	H 	0.7451	0.2501	0.3269	0.025
Mof_H 	H 	0.7753	0.1951	0.3215	0.025
Mof_H 	H 	0.8215	0.2367	0.1873	0.023
Mof_C 	C 	0.92571	0.13489	0.26709	-0.047
Mof_H 	H 	0.8952	0.1344	0.2674	0.024
Mof_H 	H 	0.9468	0.1466	0.2314	0.024
Mof_C 	C 	0.87704	0.15136	0.34484	-0.045
Mof_H 	H 	0.8641	0.1743	0.3635	0.022
Mof_H 	H 	0.8476	0.1504	0.3436	0.023
Mof_H 	H 	0.5966	0.4016	0.5256	0.022
Mof_C 	C 	0.78634	0.39006	0.31404	-0.048
Mof_H 	H 	0.7488	0.4034	0.326	0.024
Mof_H 	H 	0.7989	0.4191	0.2935	0.023
Mof_H 	H 	0.6788	0.3738	0.449	0.024
Mof_C 	C 	0.80577	0.35783	0.28079	-0.047
Mof_H 	H 	0.8279	0.3723	0.2467	0.025
Mof_H 	H 	0.7765	0.3591	0.2771	0.024
Mof_N 	N 	0.17142	0.90992	0.62642	-0.142
Mof_H 	H 	0.3659	0.8749	0.4427	0.024
Mof_H 	H 	0.271	0.8992	0.5094	0.022
Mof_C 	C 	0.16989	0.95567	0.58053	-0.039
Mof_H 	H 	0.1802	0.979	0.5816	0.022
Mof_H 	H 	0.1939	0.9459	0.5499	0.021
Mof_C 	C 	0.23018	0.75532	0.70838	-0.05
Mof_H 	H 	0.2501	0.7451	0.6779	0.025
Mof_H 	H 	0.1951	0.7753	0.7081	0.025
Mof_H 	H 	0.2367	0.8215	0.7545	0.023
Mof_C 	C 	0.13489	0.92571	0.67231	-0.047
Mof_H 	H 	0.1344	0.8952	0.703	0.024
Mof_H 	H 	0.1466	0.9468	0.6752	0.023
Mof_C 	C 	0.15136	0.87704	0.62676	-0.045
Mof_H 	H 	0.1743	0.8641	0.5981	0.022
Mof_H 	H 	0.1504	0.8476	0.6584	0.023
Mof_H 	H 	0.4016	0.5966	0.4762	0.022
Mof_C 	C 	0.39006	0.78634	0.50956	-0.048
Mof_H 	H 	0.4034	0.7488	0.5218	0.024
Mof_H 	H 	0.4191	0.7989	0.4885	0.023
Mof_H 	H 	0.3738	0.6788	0.4984	0.024
Mof_C 	C 	0.35783	0.80577	0.55561	-0.047
Mof_H 	H 	0.3723	0.8279	0.5531	0.025
Mof_H 	H 	0.3591	0.7765	0.5873	0.023
Mof_N 	N 	0.29224	0.62642	0.90992	-0.142
Mof_H 	H 	0.3165	0.4427	0.8749	0.024
Mof_H 	H 	0.3204	0.5094	0.8992	0.022
Mof_C 	C 	0.29391	0.58053	0.95567	-0.039
Mof_H 	H 	0.2592	0.5816	0.979	0.022
Mof_H 	H 	0.3103	0.5499	0.9459	0.021
Mof_C 	C 	0.30612	0.70838	0.75532	-0.049
Mof_H 	H 	0.3269	0.6779	0.7451	0.025
Mof_H 	H 	0.3215	0.7081	0.7753	0.025
Mof_H 	H 	0.1873	0.7545	0.8215	0.023
Mof_C 	C 	0.26709	0.67231	0.92571	-0.048
Mof_H 	H 	0.2674	0.703	0.8952	0.024
Mof_H 	H 	0.2314	0.6752	0.9468	0.023
Mof_C 	C 	0.34484	0.62676	0.87704	-0.046
Mof_H 	H 	0.3635	0.5981	0.8641	0.022
Mof_H 	H 	0.3436	0.6584	0.8476	0.022
Mof_H 	H 	0.5256	0.4762	0.5966	0.022
Mof_C 	C 	0.31404	0.50956	0.78634	-0.048
Mof_H 	H 	0.326	0.5218	0.7488	0.024
Mof_H 	H 	0.2935	0.4885	0.7989	0.023
Mof_H 	H 	0.449	0.4984	0.6788	0.023
Mof_C 	C 	0.28079	0.55561	0.80577	-0.047
Mof_H 	H 	0.2467	0.5531	0.8279	0.025
Mof_H 	H 	0.2771	0.5873	0.7765	0.024
Mof_Ag	Ag	0.86063	0.63195	0.25371	0.552
Mof_N 	N 	0.78827	0.70655	0.25259	-0.141
Mof_N 	N 	0.83468	0.55772	0.3038	-0.138
Mof_C 	C 	0.86122	0.46338	0.3377	-0.052
Mof_N 	N 	0.80443	0.47859	0.35849	-0.141
Mof_C 	C 	0.8781	0.51026	0.30582	-0.039
Mof_C 	C 	0.80093	0.75393	0.22257	-0.044
Mof_Ag	Ag	0.63195	0.86063	0.25371	0.552
Mof_N 	N 	0.70655	0.78827	0.25259	-0.141
Mof_N 	N 	0.55772	0.83468	0.3038	-0.138
Mof_C 	C 	0.46338	0.86122	0.3377	-0.052
Mof_N 	N 	0.47859	0.80443	0.35849	-0.141
Mof_C 	C 	0.51026	0.8781	0.30582	-0.039
Mof_C 	C 	0.75393	0.80093	0.22257	-0.044
Mof_Ag	Ag	0.25371	0.25371	0.86063	0.553
Mof_N 	N 	0.25259	0.25259	0.78827	-0.141
Mof_N 	N 	0.3038	0.3038	0.83468	-0.138
Mof_C 	C 	0.3377	0.3377	0.86122	-0.052
Mof_N 	N 	0.35849	0.35849	0.80443	-0.141
Mof_C 	C 	0.30582	0.30582	0.8781	-0.039
Mof_C 	C 	0.22257	0.22257	0.80093	-0.044
Mof_Ag	Ag	0.25371	0.25371	0.63195	0.553
Mof_N 	N 	0.25259	0.25259	0.70655	-0.141
Mof_N 	N 	0.3038	0.3038	0.55772	-0.138
Mof_C 	C 	0.3377	0.3377	0.46338	-0.052
Mof_N 	N 	0.35849	0.35849	0.47859	-0.141
Mof_C 	C 	0.30582	0.30582	0.51026	-0.039
Mof_C 	C 	0.22257	0.22257	0.75393	-0.044
Mof_Ag	Ag	0.25371	0.86063	0.63195	0.552
Mof_N 	N 	0.25259	0.78827	0.70655	-0.141
Mof_N 	N 	0.3038	0.83468	0.55772	-0.138
Mof_C 	C 	0.3377	0.86122	0.46338	-0.052
Mof_N 	N 	0.35849	0.80443	0.47859	-0.141
Mof_C 	C 	0.30582	0.8781	0.51026	-0.039
Mof_C 	C 	0.22257	0.80093	0.75393	-0.044
Mof_Ag	Ag	0.25371	0.63195	0.86063	0.552
Mof_N 	N 	0.25259	0.70655	0.78827	-0.141
Mof_N 	N 	0.3038	0.55772	0.83468	-0.138
Mof_C 	C 	0.3377	0.46338	0.86122	-0.052
Mof_N 	N 	0.35849	0.47859	0.80443	-0.141
Mof_C 	C 	0.30582	0.51026	0.8781	-0.039
Mof_C 	C 	0.22257	0.75393	0.80093	-0.044
Mof_Ag	Ag	0.86063	0.25371	0.25371	0.553
Mof_N 	N 	0.78827	0.25259	0.25259	-0.141
Mof_N 	N 	0.83468	0.3038	0.3038	-0.138
Mof_C 	C 	0.86122	0.3377	0.3377	-0.052
Mof_N 	N 	0.80443	0.35849	0.35849	-0.141
Mof_C 	C 	0.8781	0.30582	0.30582	-0.039
Mof_C 	C 	0.80093	0.22257	0.22257	-0.044
Mof_Ag	Ag	0.63195	0.25371	0.25371	0.553
Mof_N 	N 	0.70655	0.25259	0.25259	-0.141
Mof_N 	N 	0.55772	0.3038	0.3038	-0.138
Mof_C 	C 	0.46338	0.3377	0.3377	-0.052
Mof_N 	N 	0.47859	0.35849	0.35849	-0.141
Mof_C 	C 	0.51026	0.30582	0.30582	-0.039
Mof_C 	C 	0.75393	0.22257	0.22257	-0.044
Mof_Ag	Ag	0.63195	0.25371	0.86063	0.552
Mof_N 	N 	0.70655	0.25259	0.78827	-0.141
Mof_N 	N 	0.55772	0.3038	0.83468	-0.138
Mof_C 	C 	0.46338	0.3377	0.86122	-0.052
Mof_N 	N 	0.47859	0.35849	0.80443	-0.141
Mof_C 	C 	0.51026	0.30582	0.8781	-0.039
Mof_C 	C 	0.75393	0.22257	0.80093	-0.044
Mof_Ag	Ag	0.86063	0.25371	0.63195	0.552
Mof_N 	N 	0.78827	0.25259	0.70655	-0.141
Mof_N 	N 	0.83468	0.3038	0.55772	-0.138
Mof_C 	C 	0.86122	0.3377	0.46338	-0.052
Mof_N 	N 	0.80443	0.35849	0.47859	-0.141
Mof_C 	C 	0.8781	0.30582	0.51026	-0.039
Mof_C 	C 	0.80093	0.22257	0.75393	-0.044
Mof_Ag	Ag	0.25371	0.86063	0.25371	0.553
Mof_N 	N 	0.25259	0.78827	0.25259	-0.141
Mof_N 	N 	0.3038	0.83468	0.3038	-0.138
Mof_C 	C 	0.3377	0.86122	0.3377	-0.052
Mof_N 	N 	0.35849	0.80443	0.35849	-0.141
Mof_C 	C 	0.30582	0.8781	0.30582	-0.039
Mof_C 	C 	0.22257	0.80093	0.22257	-0.044
Mof_Ag	Ag	0.25371	0.63195	0.25371	0.553
Mof_N 	N 	0.25259	0.70655	0.25259	-0.141
Mof_N 	N 	0.3038	0.55772	0.3038	-0.138
Mof_C 	C 	0.3377	0.46338	0.3377	-0.052
Mof_N 	N 	0.35849	0.47859	0.35849	-0.141
Mof_C 	C 	0.30582	0.51026	0.30582	-0.039
Mof_C 	C 	0.22257	0.75393	0.22257	-0.044
Mof_Ag	Ag	0.38937	0.61805	0.99629	0.543
Mof_N 	N 	0.46173	0.54345	0.99741	-0.146
Mof_N 	N 	0.41532	0.69228	0.9462	-0.137
Mof_C 	C 	0.38878	0.78662	0.9123	-0.052
Mof_N 	N 	0.44557	0.77141	0.89151	-0.142
Mof_C 	C 	0.3719	0.73974	0.94418	-0.039
Mof_C 	C 	0.44907	0.49607	0.02743	-0.04
Mof_Ag	Ag	0.61805	0.38937	0.99629	0.543
Mof_N 	N 	0.54345	0.46173	0.99741	-0.146
Mof_N 	N 	0.69228	0.41532	0.9462	-0.137
Mof_C 	C 	0.78662	0.38878	0.9123	-0.052
Mof_N 	N 	0.77141	0.44557	0.89151	-0.142
Mof_C 	C 	0.73974	0.3719	0.94418	-0.039
Mof_C 	C 	0.49607	0.44907	0.02743	-0.04
Mof_Ag	Ag	0.99629	0.99629	0.61805	0.533
Mof_N 	N 	0.99741	0.99741	0.54345	-0.152
Mof_N 	N 	0.9462	0.9462	0.69228	-0.135
Mof_C 	C 	0.9123	0.9123	0.78662	-0.051
Mof_N 	N 	0.89151	0.89151	0.77141	-0.143
Mof_C 	C 	0.94418	0.94418	0.73974	-0.039
Mof_C 	C 	0.02743	0.02743	0.49607	-0.035
Mof_Ag	Ag	0.99629	0.99629	0.38937	0.534
Mof_N 	N 	0.99741	0.99741	0.46173	-0.152
Mof_N 	N 	0.9462	0.9462	0.41532	-0.135
Mof_C 	C 	0.9123	0.9123	0.38878	-0.052
Mof_N 	N 	0.89151	0.89151	0.44557	-0.143
Mof_C 	C 	0.94418	0.94418	0.3719	-0.039
Mof_C 	C 	0.02743	0.02743	0.44907	-0.036
Mof_Ag	Ag	0.99629	0.38937	0.99629	0.534
Mof_N 	N 	0.99741	0.46173	0.99741	-0.152
Mof_N 	N 	0.9462	0.41532	0.9462	-0.135
Mof_C 	C 	0.9123	0.38878	0.9123	-0.052
Mof_N 	N 	0.89151	0.44557	0.89151	-0.143
Mof_C 	C 	0.94418	0.3719	0.94418	-0.039
Mof_C 	C 	0.02743	0.44907	0.02743	-0.036
Mof_Ag	Ag	0.99629	0.61805	0.99629	0.533
Mof_N 	N 	0.99741	0.54345	0.99741	-0.152
Mof_N 	N 	0.9462	0.69228	0.9462	-0.135
Mof_C 	C 	0.9123	0.78662	0.9123	-0.051
Mof_N 	N 	0.89151	0.77141	0.89151	-0.143
Mof_C 	C 	0.94418	0.73974	0.94418	-0.039
Mof_C 	C 	0.02743	0.49607	0.02743	-0.035
Mof_Ag	Ag	0.38937	0.99629	0.61805	0.543
Mof_N 	N 	0.46173	0.99741	0.54345	-0.146
Mof_N 	N 	0.41532	0.9462	0.69228	-0.137
Mof_C 	C 	0.38878	0.9123	0.78662	-0.052
Mof_N 	N 	0.44557	0.89151	0.77141	-0.142
Mof_C 	C 	0.3719	0.94418	0.73974	-0.039
Mof_C 	C 	0.44907	0.02743	0.49607	-0.04
Mof_Ag	Ag	0.61805	0.99629	0.38937	0.543
Mof_N 	N 	0.54345	0.99741	0.46173	-0.146
Mof_N 	N 	0.69228	0.9462	0.41532	-0.137
Mof_C 	C 	0.78662	0.9123	0.38878	-0.052
Mof_N 	N 	0.77141	0.89151	0.44557	-0.142
Mof_C 	C 	0.73974	0.94418	0.3719	-0.039
Mof_C 	C 	0.49607	0.02743	0.44907	-0.04
Mof_Ag	Ag	0.61805	0.99629	0.99629	0.533
Mof_N 	N 	0.54345	0.99741	0.99741	-0.152
Mof_N 	N 	0.69228	0.9462	0.9462	-0.135
Mof_C 	C 	0.78662	0.9123	0.9123	-0.051
Mof_N 	N 	0.77141	0.89151	0.89151	-0.143
Mof_C 	C 	0.73974	0.94418	0.94418	-0.039
Mof_C 	C 	0.49607	0.02743	0.02743	-0.035
Mof_Ag	Ag	0.38937	0.99629	0.99629	0.534
Mof_N 	N 	0.46173	0.99741	0.99741	-0.152
Mof_N 	N 	0.41532	0.9462	0.9462	-0.135
Mof_C 	C 	0.38878	0.9123	0.9123	-0.052
Mof_N 	N 	0.44557	0.89151	0.89151	-0.143
Mof_C 	C 	0.3719	0.94418	0.94418	-0.039
Mof_C 	C 	0.44907	0.02743	0.02743	-0.036
Mof_Ag	Ag	0.99629	0.38937	0.61805	0.543
Mof_N 	N 	0.99741	0.46173	0.54345	-0.146
Mof_N 	N 	0.9462	0.41532	0.69228	-0.137
Mof_C 	C 	0.9123	0.38878	0.78662	-0.052
Mof_N 	N 	0.89151	0.44557	0.77141	-0.142
Mof_C 	C 	0.94418	0.3719	0.73974	-0.039
Mof_C 	C 	0.02743	0.44907	0.49607	-0.04
Mof_Ag	Ag	0.99629	0.61805	0.38937	0.543
Mof_N 	N 	0.99741	0.54345	0.46173	-0.146
Mof_N 	N 	0.9462	0.69228	0.41532	-0.137
Mof_C 	C 	0.9123	0.78662	0.38878	-0.052
Mof_N 	N 	0.89151	0.77141	0.44557	-0.142
Mof_C 	C 	0.94418	0.73974	0.3719	-0.039
Mof_C 	C 	0.02743	0.49607	0.44907	-0.04
Mof_N 	N 	0.68816	0.43728	0.43728	-0.142
Mof_Ag	Ag	0.77799	0.40734	0.40734	0.562
Mof_N 	N 	0.43728	0.68816	0.43728	-0.142
Mof_Ag	Ag	0.40734	0.77799	0.40734	0.562
Mof_N 	N 	0.43728	0.43728	0.68816	-0.142
Mof_Ag	Ag	0.40734	0.40734	0.77799	0.562
Mof_N 	N 	0.43728	0.43728	0.43728	-0.142
Mof_Ag	Ag	0.40734	0.40734	0.40734	0.562
Mof_N 	N 	0.56184	0.81272	0.81272	-0.142
Mof_Ag	Ag	0.47201	0.84266	0.84266	0.562
Mof_N 	N 	0.81272	0.56184	0.81272	-0.142
Mof_Ag	Ag	0.84266	0.47201	0.84266	0.562
Mof_N 	N 	0.81272	0.81272	0.81272	-0.142
Mof_Ag	Ag	0.84266	0.84266	0.84266	0.562
Mof_N 	N 	0.81272	0.81272	0.56184	-0.142
Mof_Ag	Ag	0.84266	0.84266	0.47201	0.562
Mof_N 	N 	0.58949	0.47017	0.47017	-0.142
Mof_N 	N 	0.47017	0.58949	0.47017	-0.142
Mof_N 	N 	0.47017	0.47017	0.58949	-0.142
Mof_N 	N 	0.47017	0.47017	0.47017	-0.142
Mof_N 	N 	0.66051	0.77983	0.77983	-0.142
Mof_N 	N 	0.77983	0.66051	0.77983	-0.142
Mof_N 	N 	0.77983	0.77983	0.77983	-0.142
Mof_N 	N 	0.77983	0.77983	0.66051	-0.142
Mof_Ag	Ag	0.5	0.5	0.5	0.559
Mof_Ag	Ag	0.75	0.75	0.75	0.559
Mof_C 	C 	0.6091	0.4882	0.4882	-0.044
Mof_C 	C 	0.4882	0.6091	0.4145	-0.044
Mof_C 	C 	0.4882	0.4145	0.6091	-0.044
Mof_C 	C 	0.4145	0.4882	0.4882	-0.044
Mof_C 	C 	0.4882	0.6091	0.4882	-0.044
Mof_C 	C 	0.4145	0.4882	0.6091	-0.044
Mof_C 	C 	0.6091	0.4882	0.4145	-0.044
Mof_C 	C 	0.4882	0.4145	0.4882	-0.044
Mof_C 	C 	0.4882	0.4882	0.6091	-0.044
Mof_C 	C 	0.6091	0.4145	0.4882	-0.044
Mof_C 	C 	0.4145	0.6091	0.4882	-0.044
Mof_C 	C 	0.4882	0.4882	0.4145	-0.044
Mof_C 	C 	0.6409	0.7618	0.8355	-0.044
Mof_C 	C 	0.7618	0.6409	0.7618	-0.044
Mof_C 	C 	0.7618	0.8355	0.7618	-0.044
Mof_C 	C 	0.8355	0.7618	0.6409	-0.044
Mof_C 	C 	0.7618	0.6409	0.8355	-0.044
Mof_C 	C 	0.8355	0.7618	0.7618	-0.044
Mof_C 	C 	0.6409	0.7618	0.7618	-0.044
Mof_C 	C 	0.7618	0.8355	0.6409	-0.044
Mof_C 	C 	0.7618	0.7618	0.8355	-0.044
Mof_C 	C 	0.6409	0.8355	0.7618	-0.044
Mof_C 	C 	0.8355	0.6409	0.7618	-0.044
Mof_C 	C 	0.7618	0.7618	0.6409	-0.044
Mof_C 	C 	0.66654	0.4691	0.4691	-0.045
Mof_C 	C 	0.4691	0.66654	0.39526	-0.045
Mof_C 	C 	0.4691	0.39526	0.66654	-0.045
Mof_C 	C 	0.39526	0.4691	0.4691	-0.045
Mof_C 	C 	0.4691	0.66654	0.4691	-0.045
Mof_C 	C 	0.39526	0.4691	0.66654	-0.045
Mof_C 	C 	0.66654	0.4691	0.39526	-0.045
Mof_C 	C 	0.4691	0.39526	0.4691	-0.045
Mof_C 	C 	0.4691	0.4691	0.66654	-0.045
Mof_C 	C 	0.66654	0.39526	0.4691	-0.045
Mof_C 	C 	0.39526	0.66654	0.4691	-0.045
Mof_C 	C 	0.4691	0.4691	0.39526	-0.045
Mof_C 	C 	0.58346	0.7809	0.85474	-0.045
Mof_C 	C 	0.7809	0.58346	0.7809	-0.045
Mof_C 	C 	0.7809	0.85474	0.7809	-0.045
Mof_C 	C 	0.85474	0.7809	0.58346	-0.045
Mof_C 	C 	0.7809	0.58346	0.85474	-0.045
Mof_C 	C 	0.85474	0.7809	0.7809	-0.045
Mof_C 	C 	0.58346	0.7809	0.7809	-0.045
Mof_C 	C 	0.7809	0.85474	0.58346	-0.045
Mof_C 	C 	0.7809	0.7809	0.85474	-0.045
Mof_C 	C 	0.58346	0.85474	0.7809	-0.045
Mof_C 	C 	0.85474	0.58346	0.7809	-0.045
Mof_C 	C 	0.7809	0.7809	0.58346	-0.045
_end
