data_functionalizedCrystal
_audit_creation_method	'EQeq! by Chris Wilmer'
_symmetry_space_group_name_H-M	'P1'
_symmetry_Int_Tables_number	1
_symmetry_cell_setting	triclinic
loop_
_symmetry_equiv_pos_as_xyz
  x,y,z
_cell_length_a	8.8621
_cell_length_b	13.9812
_cell_length_c	16.3993
_cell_angle_alpha	66.3522
_cell_angle_beta	74.3241
_cell_angle_gamma	71.5228
loop_
_atom_site_label
_atom_site_type_symbol
_atom_site_fract_x
_atom_site_fract_y
_atom_site_fract_z
_atom_site_charge
Mof_Cu	Cu	-0	0	-0	0.784
Mof_Cu	Cu	0.5	0.5	-0	0.846
Mof_Cu	Cu	-4.89679e-17	-3.26453e-17	0.5	0.831
Mof_Cu	Cu	-4.89679e-17	0.5	0.5	0.858
Mof_H 	H 	0.5897	0.1345	0.3471	0.243
Mof_H 	H 	0.3785	0.5497	0.6431	0.26
Mof_H 	H 	0.8821	0.396	0.1692	0.097
Mof_H 	H 	0.4146	0.715	0.8602	0.104
Mof_H 	H 	0.9898	0.785	0.6398	0.212
Mof_H 	H 	0.9621	0.9545	0.3461	0.101
Mof_H 	H 	0.2528	0.796	0.0142	-0.008
Mof_H 	H 	0.4473	0.104	0.3308	0.231
Mof_H 	H 	0.2901	0.2799	0.3717	0.089
Mof_H 	H 	0.6215	0.4503	0.3569	0.296
Mof_H 	H 	0.5192	0.7128	0.3712	0.12
Mof_H 	H 	0.3489	0.4613	0.4177	0.079
Mof_H 	H 	0.5854	0.285	0.1398	0.05
Mof_H 	H 	0.0583	0.7799	0.8717	0.153
Mof_H 	H 	0.7053	0.5322	0.3592	0.307
Mof_H 	H 	0.0379	0.0455	0.6539	-0.048
Mof_H 	H 	0.5967	0.9678	0.1408	0.144
Mof_H 	H 	0.2947	0.4678	0.6408	0.253
Mof_H 	H 	0.9287	0.6345	0.8471	0.48
Mof_H 	H 	0.1179	0.604	0.8308	0.416
Mof_H 	H 	0.937	0.296	0.5142	0.059
Mof_H 	H 	0.6268	0.5581	0.2755	0.307
Mof_H 	H 	0.0249	0.6187	0.7561	0.395
Mof_H 	H 	0.7099	0.7201	0.6283	0.125
Mof_H 	H 	0.4604	0.9419	0.2245	0.153
Mof_H 	H 	0.0102	0.215	0.3602	-0.086
Mof_H 	H 	0.3997	0.8813	0.7439	0.304
Mof_H 	H 	0.0713	0.3655	0.1529	0.028
Mof_H 	H 	0.063	0.704	0.4858	0.01
Mof_H 	H 	0.6032	0.7872	0.1288	0.062
Mof_H 	H 	0.4103	0.8655	0.6529	0.301
Mof_H 	H 	0.5527	0.896	0.6692	0.307
Mof_H 	H 	0.2627	0.5455	0.1539	0.02
Mof_H 	H 	0.9417	0.2201	0.1283	0.054
Mof_H 	H 	0.4033	0.0322	0.8592	0.382
Mof_H 	H 	0.9751	0.3813	0.2439	0.124
Mof_H 	H 	0.3732	0.4419	0.7245	0.266
Mof_H 	H 	0.7373	0.4545	0.8461	0.053
Mof_H 	H 	0.7472	0.204	0.9858	0.077
Mof_H 	H 	0.5396	0.0581	0.7755	0.383
Mof_H 	H 	0.4808	0.2872	0.6288	0.098
Mof_H 	H 	0.3968	0.2128	0.8712	0.143
Mof_H 	H 	0.4287	0.0497	0.1431	0.08
Mof_H 	H 	0.2279	0.0387	0.0823	-0.068
Mof_H 	H 	0.6511	0.5387	0.5823	0.078
Mof_H 	H 	0.7721	0.9613	0.9177	0.183
Mof_H 	H 	0.5713	0.9503	0.8569	0.428
Mof_H 	H 	0.6003	0.1187	0.2561	0.239
Mof_C 	C 	0.32556	0.31558	0.3113	-0.183
Mof_C 	C 	0.024	0.644	0.8028	-1.316
Mof_C 	C 	0.08358	0.98274	0.8207	0.352
Mof_C 	C 	0.99347	0.18026	0.3266	0.124
Mof_C 	C 	0.11298	0.48274	0.3207	0.314
Mof_C 	C 	0.25309	0.42182	0.2708	-0.043
Mof_C 	C 	0.45923	0.57924	0.3841	0.312
Mof_C 	C 	0.38235	0.475	0.6601	-0.795
Mof_C 	C 	0.50033	0.31974	0.1734	-0.136
Mof_C 	C 	0.02492	0.76156	0.7622	0.49
Mof_C 	C 	0.94571	0.07818	0.2292	-0.041
Mof_C 	C 	0.04756	0.81558	0.8113	-0.33
Mof_C 	C 	0.28112	0.97026	0.0807	0.063
Mof_C 	C 	0.29711	0.82856	0.03862	0.04
Mof_C 	C 	0.4708	0.856	0.6972	-0.892
Mof_C 	C 	0.74396	0.16978	0.5545	0.313
Mof_C 	C 	0.54868	0.73844	0.7378	0.322
Mof_C 	C 	0.33208	0.52974	0.4193	-0.164
Mof_C 	C 	0.95244	0.18442	0.1887	-0.059
Mof_C 	C 	0.88702	0.51726	0.6793	0.285
Mof_C 	C 	0.68959	0.52666	0.81856	-0.017
Mof_C 	C 	0.57743	0.07924	0.8841	0.461
Mof_C 	C 	0.56468	0.32204	0.6076	-0.199
Mof_C 	C 	0.83571	0.32856	0.53862	0.011
Mof_C 	C 	0.49432	0.17796	0.8924	-0.303
Mof_C 	C 	0.28657	0.72504	0.43222	-0.018
Mof_C 	C 	0.48255	0.975	0.1601	-0.356
Mof_C 	C 	0.05429	0.92182	0.7708	-0.017
Mof_C 	C 	0.45132	0.26156	0.2622	0.239
Mof_C 	C 	0.53176	0.66978	0.0545	0.336
Mof_C 	C 	0.16429	0.67144	0.46138	0.002
Mof_C 	C 	0.51745	0.025	0.8399	-1.192
Mof_C 	C 	0.66792	0.47026	0.5807	-0.143
Mof_C 	C 	0.67444	0.68442	0.6887	-0.24
Mof_C 	C 	0.43532	0.67796	0.3924	-0.22
Mof_C 	C 	0.71343	0.27496	0.56778	-0.017
Mof_C 	C 	0.5292	0.144	0.3028	-0.742
Mof_C 	C 	0.03481	0.97334	0.68144	0.076
Mof_C 	C 	0.54077	0.42076	0.6159	0.277
Mof_C 	C 	0.71888	0.02974	0.9193	-0.292
Mof_C 	C 	0.55617	0.22504	0.93222	0.048
Mof_C 	C 	0.42257	0.92076	0.1159	0.065
Mof_C 	C 	0.96519	0.02666	0.31856	-0.052
Mof_C 	C 	0.46824	0.33022	0.9455	0.298
Mof_C 	C 	0.31041	0.47334	0.18144	0.007
Mof_C 	C 	0.61765	0.525	0.3399	-0.883
Mof_C 	C 	0.49967	0.68026	0.8266	-0.176
Mof_C 	C 	0.70289	0.17144	0.96138	-0.012
Mof_C 	C 	0.44383	0.77496	0.06778	-0.103
Mof_C 	C 	0.00653	0.81974	0.6734	-0.388
Mof_C 	C 	0.976	0.356	0.1972	-0.226
Mof_C 	C 	0.74691	0.57818	0.7292	0.005
Mof_C 	C 	0.97508	0.23844	0.2378	0.028
Mof_C 	C 	0.91642	0.01726	0.1793	0.256
Mof_C 	C 	0.50568	0.82204	0.1076	-0.074
Mof_C 	C 	0.25604	0.83022	0.4455	0.31
Mof_N 	N 	0.01153	0.92297	0.63297	-0.143
Mof_N 	N 	0.56747	0.57703	0.86703	-0.143
Mof_N 	N 	0.18506	0.5747	0.45598	-0.177
Mof_N 	N 	0.78426	0.0747	0.95598	-0.099
Mof_N 	N 	0.21574	0.9253	0.04402	-0.224
Mof_N 	N 	0.98847	0.07703	0.36703	-0.196
Mof_N 	N 	0.43253	0.42297	0.13297	-0.188
Mof_N 	N 	0.81494	0.4253	0.54402	-0.155
Mof_O 	O 	0.96378	0.42891	0.72273	-0.248
Mof_O 	O 	0.633	0.1244	0.5756	-0.312
Mof_O 	O 	0.333	0.3756	0.9244	-0.282
Mof_O 	O 	0.08745	0.43586	0.40504	-0.434
Mof_O 	O 	0.45479	0.6351	0.02212	-0.446
Mof_O 	O 	0.07165	0.93586	0.90504	-0.373
Mof_O 	O 	0.11542	0.07109	0.77727	-0.351
Mof_O 	O 	0.88458	0.92891	0.22273	-0.217
Mof_O 	O 	0.367	0.8756	0.4244	-0.283
Mof_O 	O 	0.91255	0.56414	0.59496	-0.368
Mof_O 	O 	0.92835	0.06414	0.09496	-0.397
Mof_O 	O 	0.88799	0.1351	0.52212	-0.372
Mof_O 	O 	0.11201	0.8649	0.47788	-0.414
Mof_O 	O 	0.54521	0.3649	0.97788	-0.351
Mof_O 	O 	0.03622	0.57109	0.27727	-0.32
Mof_O 	O 	0.667	0.6244	0.0756	-0.315
_end
