data_functionalizedCrystal
_audit_creation_method	'EQeq! by Chris Wilmer'
_symmetry_space_group_name_H-M	'P1'
_symmetry_Int_Tables_number	1
_symmetry_cell_setting	triclinic
loop_
_symmetry_equiv_pos_as_xyz
  x,y,z
_cell_length_a	37.1634
_cell_length_b	37.1634
_cell_length_c	37.1634
_cell_angle_alpha	60
_cell_angle_beta	60
_cell_angle_gamma	60
loop_
_atom_site_label
_atom_site_type_symbol
_atom_site_fract_x
_atom_site_fract_y
_atom_site_fract_z
_atom_site_charge
Mof_Cu	Cu	0.78492	0.21508	-0	0.889
Mof_Cu	Cu	0.7138	0.2862	-0	0.892
Mof_Cu	Cu	0.21508	0.78492	-0	0.889
Mof_Cu	Cu	0.2862	0.7138	-0	0.892
Mof_Cu	Cu	-0	-5.01186e-17	0.78492	0.872
Mof_Cu	Cu	-0	0	0.7138	0.873
Mof_Cu	Cu	-0	-1.25296e-17	0.21508	0.869
Mof_Cu	Cu	3.13241e-17	0	0.2862	0.873
Mof_Cu	Cu	0.78492	0	-0	0.872
Mof_Cu	Cu	0.7138	0	-0	0.873
Mof_Cu	Cu	0.21508	0	-0	0.869
Mof_Cu	Cu	0.2862	0	-0	0.873
Mof_Cu	Cu	7.51779e-17	0.78492	0.21508	0.889
Mof_Cu	Cu	3.13241e-17	0.7138	0.2862	0.892
Mof_Cu	Cu	1.00237e-16	0.21508	0.78492	0.889
Mof_Cu	Cu	1.00237e-16	0.2862	0.7138	0.892
Mof_Cu	Cu	0.78492	-1.25296e-17	0.21508	0.889
Mof_Cu	Cu	0.7138	0	0.2862	0.892
Mof_Cu	Cu	0.21508	-5.01186e-17	0.78492	0.889
Mof_Cu	Cu	0.2862	0	0.7138	0.892
Mof_Cu	Cu	-0	0.21508	-0	0.869
Mof_Cu	Cu	2.50593e-17	0.2862	-0	0.873
Mof_Cu	Cu	5.01186e-17	0.78492	-0	0.872
Mof_Cu	Cu	-0	0.7138	-0	0.873
Mof_H 	H 	0.7542	0.3604	0.861	0.093
Mof_H 	H 	0.7871	0.4791	0.6903	0.043
Mof_H 	H 	0.7468	0.5466	0.6484	0.047
Mof_H 	H 	0.3604	0.7542	0.0244	0.082
Mof_H 	H 	0.4791	0.7871	0.0435	0.043
Mof_H 	H 	0.5466	0.7468	0.0582	0.043
Mof_H 	H 	0.861	0.0244	0.7542	0.087
Mof_H 	H 	0.6903	0.0435	0.7871	0.043
Mof_H 	H 	0.6484	0.0582	0.7468	0.043
Mof_H 	H 	0.0244	0.861	0.3604	0.085
Mof_H 	H 	0.0435	0.6903	0.4791	0.04
Mof_H 	H 	0.0582	0.6484	0.5466	0.042
Mof_H 	H 	0.7542	0.861	0.0244	0.087
Mof_H 	H 	0.7871	0.6903	0.0435	0.043
Mof_H 	H 	0.7468	0.6484	0.0582	0.043
Mof_H 	H 	0.3604	0.0244	0.861	0.084
Mof_H 	H 	0.4791	0.0435	0.6903	0.039
Mof_H 	H 	0.5466	0.0582	0.6484	0.041
Mof_H 	H 	0.861	0.7542	0.3604	0.092
Mof_H 	H 	0.6903	0.7871	0.4791	0.042
Mof_H 	H 	0.6484	0.7468	0.5466	0.046
Mof_H 	H 	0.0244	0.3604	0.7542	0.081
Mof_H 	H 	0.0435	0.4791	0.7871	0.042
Mof_H 	H 	0.0582	0.5466	0.7468	0.042
Mof_H 	H 	0.7542	0.0244	0.3604	0.081
Mof_H 	H 	0.7871	0.0435	0.4791	0.042
Mof_H 	H 	0.7468	0.0582	0.5466	0.042
Mof_H 	H 	0.3604	0.861	0.7542	0.092
Mof_H 	H 	0.4791	0.6903	0.7871	0.042
Mof_H 	H 	0.5466	0.6484	0.7468	0.046
Mof_H 	H 	0.861	0.3604	0.0244	0.084
Mof_H 	H 	0.6903	0.4791	0.0435	0.039
Mof_H 	H 	0.6484	0.5466	0.0582	0.041
Mof_H 	H 	0.0244	0.7542	0.861	0.086
Mof_H 	H 	0.0435	0.7871	0.6903	0.042
Mof_H 	H 	0.0582	0.7468	0.6484	0.042
Mof_H 	H 	0.6396	0.2458	0.139	0.082
Mof_H 	H 	0.5209	0.2129	0.3097	0.036
Mof_H 	H 	0.4534	0.2532	0.3516	0.043
Mof_H 	H 	0.2458	0.6396	0.9756	0.094
Mof_H 	H 	0.2129	0.5209	0.9565	0.036
Mof_H 	H 	0.2532	0.4534	0.9418	0.047
Mof_H 	H 	0.9756	0.139	0.2458	0.09
Mof_H 	H 	0.9565	0.3097	0.2129	0.036
Mof_H 	H 	0.9418	0.3516	0.2532	0.048
Mof_H 	H 	0.139	0.9756	0.6396	0.091
Mof_H 	H 	0.3097	0.9565	0.5209	0.038
Mof_H 	H 	0.3516	0.9418	0.4534	0.049
Mof_H 	H 	0.139	0.2458	0.9756	0.09
Mof_H 	H 	0.3097	0.2129	0.9565	0.036
Mof_H 	H 	0.3516	0.2532	0.9418	0.048
Mof_H 	H 	0.9756	0.6396	0.139	0.091
Mof_H 	H 	0.9565	0.5209	0.3097	0.038
Mof_H 	H 	0.9418	0.4534	0.3516	0.049
Mof_H 	H 	0.2458	0.139	0.6396	0.082
Mof_H 	H 	0.2129	0.3097	0.5209	0.036
Mof_H 	H 	0.2532	0.3516	0.4534	0.043
Mof_H 	H 	0.6396	0.9756	0.2458	0.094
Mof_H 	H 	0.5209	0.9565	0.2129	0.036
Mof_H 	H 	0.4534	0.9418	0.2532	0.047
Mof_H 	H 	0.9756	0.2458	0.6396	0.094
Mof_H 	H 	0.9565	0.2129	0.5209	0.036
Mof_H 	H 	0.9418	0.2532	0.4534	0.047
Mof_H 	H 	0.139	0.6396	0.2458	0.082
Mof_H 	H 	0.3097	0.5209	0.2129	0.036
Mof_H 	H 	0.3516	0.4534	0.2532	0.043
Mof_H 	H 	0.6396	0.139	0.9756	0.091
Mof_H 	H 	0.5209	0.3097	0.9565	0.038
Mof_H 	H 	0.4534	0.3516	0.9418	0.049
Mof_H 	H 	0.2458	0.9756	0.139	0.09
Mof_H 	H 	0.2129	0.9565	0.3097	0.036
Mof_H 	H 	0.2532	0.9418	0.3516	0.048
Mof_H 	H 	0.2458	0.6396	0.139	0.082
Mof_H 	H 	0.2129	0.5209	0.3097	0.036
Mof_H 	H 	0.2532	0.4534	0.3516	0.043
Mof_H 	H 	0.6396	0.2458	0.9756	0.094
Mof_H 	H 	0.5209	0.2129	0.9565	0.036
Mof_H 	H 	0.4534	0.2532	0.9418	0.047
Mof_H 	H 	0.139	0.9756	0.2458	0.09
Mof_H 	H 	0.3097	0.9565	0.2129	0.036
Mof_H 	H 	0.3516	0.9418	0.2532	0.048
Mof_H 	H 	0.9756	0.139	0.6396	0.091
Mof_H 	H 	0.9565	0.3097	0.5209	0.038
Mof_H 	H 	0.9418	0.3516	0.4534	0.049
Mof_H 	H 	0.2458	0.139	0.9756	0.09
Mof_H 	H 	0.2129	0.3097	0.9565	0.036
Mof_H 	H 	0.2532	0.3516	0.9418	0.048
Mof_H 	H 	0.6396	0.9756	0.139	0.091
Mof_H 	H 	0.5209	0.9565	0.3097	0.038
Mof_H 	H 	0.4534	0.9418	0.3516	0.049
Mof_H 	H 	0.139	0.2458	0.6396	0.082
Mof_H 	H 	0.3097	0.2129	0.5209	0.036
Mof_H 	H 	0.3516	0.2532	0.4534	0.043
Mof_H 	H 	0.9756	0.6396	0.2458	0.094
Mof_H 	H 	0.9565	0.5209	0.2129	0.036
Mof_H 	H 	0.9418	0.4534	0.2532	0.047
Mof_H 	H 	0.2458	0.9756	0.6396	0.094
Mof_H 	H 	0.2129	0.9565	0.5209	0.036
Mof_H 	H 	0.2532	0.9418	0.4534	0.047
Mof_H 	H 	0.6396	0.139	0.2458	0.082
Mof_H 	H 	0.5209	0.3097	0.2129	0.036
Mof_H 	H 	0.4534	0.3516	0.2532	0.043
Mof_H 	H 	0.139	0.6396	0.9756	0.091
Mof_H 	H 	0.3097	0.5209	0.9565	0.038
Mof_H 	H 	0.3516	0.4534	0.9418	0.049
Mof_H 	H 	0.9756	0.2458	0.139	0.09
Mof_H 	H 	0.9565	0.2129	0.3097	0.036
Mof_H 	H 	0.9418	0.2532	0.3516	0.048
Mof_H 	H 	0.3604	0.7542	0.861	0.092
Mof_H 	H 	0.4791	0.7871	0.6903	0.042
Mof_H 	H 	0.5466	0.7468	0.6484	0.046
Mof_H 	H 	0.7542	0.3604	0.0244	0.081
Mof_H 	H 	0.7871	0.4791	0.0435	0.042
Mof_H 	H 	0.7468	0.5466	0.0582	0.042
Mof_H 	H 	0.0244	0.861	0.7542	0.086
Mof_H 	H 	0.0435	0.6903	0.7871	0.042
Mof_H 	H 	0.0582	0.6484	0.7468	0.042
Mof_H 	H 	0.861	0.0244	0.3604	0.084
Mof_H 	H 	0.6903	0.0435	0.4791	0.039
Mof_H 	H 	0.6484	0.0582	0.5466	0.041
Mof_H 	H 	0.861	0.7542	0.0244	0.086
Mof_H 	H 	0.6903	0.7871	0.0435	0.042
Mof_H 	H 	0.6484	0.7468	0.0582	0.042
Mof_H 	H 	0.0244	0.3604	0.861	0.084
Mof_H 	H 	0.0435	0.4791	0.6903	0.039
Mof_H 	H 	0.0582	0.5466	0.6484	0.041
Mof_H 	H 	0.7542	0.861	0.3604	0.092
Mof_H 	H 	0.7871	0.6903	0.4791	0.042
Mof_H 	H 	0.7468	0.6484	0.5466	0.046
Mof_H 	H 	0.3604	0.0244	0.7542	0.081
Mof_H 	H 	0.4791	0.0435	0.7871	0.042
Mof_H 	H 	0.5466	0.0582	0.7468	0.042
Mof_H 	H 	0.0244	0.7542	0.3604	0.081
Mof_H 	H 	0.0435	0.7871	0.4791	0.042
Mof_H 	H 	0.0582	0.7468	0.5466	0.042
Mof_H 	H 	0.861	0.3604	0.7542	0.092
Mof_H 	H 	0.6903	0.4791	0.7871	0.042
Mof_H 	H 	0.6484	0.5466	0.7468	0.046
Mof_H 	H 	0.3604	0.861	0.0244	0.084
Mof_H 	H 	0.4791	0.6903	0.0435	0.039
Mof_H 	H 	0.5466	0.6484	0.0582	0.041
Mof_H 	H 	0.7542	0.0244	0.861	0.086
Mof_H 	H 	0.7871	0.0435	0.6903	0.042
Mof_H 	H 	0.7468	0.0582	0.6484	0.042
Mof_H 	H 	0.8637	0.2563	0.8637	0.077
Mof_H 	H 	0.7639	0.4121	0.7639	0.133
Mof_H 	H 	0.2563	0.8637	0.0163	0.065
Mof_H 	H 	0.4121	0.7639	0.0601	0.129
Mof_H 	H 	0.8637	0.0163	0.8637	0.071
Mof_H 	H 	0.7639	0.0601	0.7639	0.13
Mof_H 	H 	0.0163	0.8637	0.2563	0.065
Mof_H 	H 	0.0601	0.7639	0.4121	0.129
Mof_H 	H 	0.8637	0.8637	0.0163	0.071
Mof_H 	H 	0.7639	0.7639	0.0601	0.13
Mof_H 	H 	0.2563	0.0163	0.8637	0.065
Mof_H 	H 	0.4121	0.0601	0.7639	0.129
Mof_H 	H 	0.8637	0.8637	0.2563	0.077
Mof_H 	H 	0.7639	0.7639	0.4121	0.133
Mof_H 	H 	0.0163	0.2563	0.8637	0.065
Mof_H 	H 	0.0601	0.4121	0.7639	0.129
Mof_H 	H 	0.8637	0.0163	0.2563	0.065
Mof_H 	H 	0.7639	0.0601	0.4121	0.129
Mof_H 	H 	0.2563	0.8637	0.8637	0.077
Mof_H 	H 	0.4121	0.7639	0.7639	0.133
Mof_H 	H 	0.8637	0.2563	0.0163	0.065
Mof_H 	H 	0.7639	0.4121	0.0601	0.129
Mof_H 	H 	0.0163	0.8637	0.8637	0.071
Mof_H 	H 	0.0601	0.7639	0.7639	0.13
Mof_H 	H 	0.7437	0.1363	0.1363	0.063
Mof_H 	H 	0.5879	0.2361	0.2361	0.131
Mof_H 	H 	0.1363	0.7437	0.9837	0.075
Mof_H 	H 	0.2361	0.5879	0.9399	0.135
Mof_H 	H 	0.9837	0.1363	0.1363	0.07
Mof_H 	H 	0.9399	0.2361	0.2361	0.135
Mof_H 	H 	0.1363	0.9837	0.7437	0.075
Mof_H 	H 	0.2361	0.9399	0.5879	0.135
Mof_H 	H 	0.1363	0.1363	0.9837	0.07
Mof_H 	H 	0.2361	0.2361	0.9399	0.135
Mof_H 	H 	0.9837	0.7437	0.1363	0.075
Mof_H 	H 	0.9399	0.5879	0.2361	0.135
Mof_H 	H 	0.1363	0.1363	0.7437	0.063
Mof_H 	H 	0.2361	0.2361	0.5879	0.131
Mof_H 	H 	0.7437	0.9837	0.1363	0.075
Mof_H 	H 	0.5879	0.9399	0.2361	0.135
Mof_H 	H 	0.9837	0.1363	0.7437	0.075
Mof_H 	H 	0.9399	0.2361	0.5879	0.135
Mof_H 	H 	0.1363	0.7437	0.1363	0.063
Mof_H 	H 	0.2361	0.5879	0.2361	0.131
Mof_H 	H 	0.7437	0.1363	0.9837	0.075
Mof_H 	H 	0.5879	0.2361	0.9399	0.135
Mof_H 	H 	0.1363	0.9837	0.1363	0.07
Mof_H 	H 	0.2361	0.9399	0.2361	0.135
Mof_H 	H 	0.726	0.6182	0.6182	0.093
Mof_H 	H 	0.6182	0.726	0.0376	0.091
Mof_H 	H 	0.6182	0.0376	0.726	0.091
Mof_H 	H 	0.0376	0.6182	0.6182	0.09
Mof_H 	H 	0.726	0.6182	0.0376	0.091
Mof_H 	H 	0.6182	0.0376	0.6182	0.09
Mof_H 	H 	0.6182	0.726	0.6182	0.093
Mof_H 	H 	0.0376	0.6182	0.726	0.091
Mof_H 	H 	0.726	0.0376	0.6182	0.091
Mof_H 	H 	0.6182	0.6182	0.726	0.093
Mof_H 	H 	0.6182	0.6182	0.0376	0.09
Mof_H 	H 	0.0376	0.726	0.6182	0.091
Mof_H 	H 	0.3818	0.274	0.3818	0.089
Mof_H 	H 	0.274	0.3818	0.9624	0.09
Mof_H 	H 	0.9624	0.3818	0.274	0.09
Mof_H 	H 	0.3818	0.9624	0.3818	0.092
Mof_H 	H 	0.3818	0.274	0.9624	0.09
Mof_H 	H 	0.9624	0.3818	0.3818	0.092
Mof_H 	H 	0.274	0.3818	0.3818	0.089
Mof_H 	H 	0.3818	0.9624	0.274	0.09
Mof_H 	H 	0.9624	0.274	0.3818	0.09
Mof_H 	H 	0.3818	0.3818	0.274	0.089
Mof_H 	H 	0.3818	0.3818	0.9624	0.092
Mof_H 	H 	0.274	0.9624	0.3818	0.09
Mof_C 	C 	0.78359	0.28535	0.91887	0.329
Mof_C 	C 	0.80584	0.30632	0.87082	-0.02
Mof_C 	C 	0.78364	0.3468	0.84686	-0.099
Mof_C 	C 	0.76176	0.49892	0.70494	-0.021
Mof_C 	C 	0.73829	0.53895	0.67965	-0.048
Mof_C 	C 	0.28535	0.78359	0.01219	0.334
Mof_C 	C 	0.30632	0.80584	0.01702	-0.039
Mof_C 	C 	0.3468	0.78364	0.0227	-0.09
Mof_C 	C 	0.49892	0.76176	0.03438	-0.031
Mof_C 	C 	0.53895	0.73829	0.04311	-0.044
Mof_C 	C 	0.91887	0.01219	0.78359	0.329
Mof_C 	C 	0.87082	0.01702	0.80584	-0.03
Mof_C 	C 	0.84686	0.0227	0.78364	-0.094
Mof_C 	C 	0.70494	0.03438	0.76176	-0.032
Mof_C 	C 	0.67965	0.04311	0.73829	-0.044
Mof_C 	C 	0.01219	0.91887	0.28535	0.331
Mof_C 	C 	0.01702	0.87082	0.30632	-0.035
Mof_C 	C 	0.0227	0.84686	0.3468	-0.091
Mof_C 	C 	0.03438	0.70494	0.49892	-0.032
Mof_C 	C 	0.04311	0.67965	0.53895	-0.045
Mof_C 	C 	0.78359	0.91887	0.01219	0.329
Mof_C 	C 	0.80584	0.87082	0.01702	-0.03
Mof_C 	C 	0.78364	0.84686	0.0227	-0.094
Mof_C 	C 	0.76176	0.70494	0.03438	-0.032
Mof_C 	C 	0.73829	0.67965	0.04311	-0.044
Mof_C 	C 	0.28535	0.01219	0.91887	0.331
Mof_C 	C 	0.30632	0.01702	0.87082	-0.035
Mof_C 	C 	0.3468	0.0227	0.84686	-0.091
Mof_C 	C 	0.49892	0.03438	0.70494	-0.032
Mof_C 	C 	0.53895	0.04311	0.67965	-0.045
Mof_C 	C 	0.91887	0.78359	0.28535	0.329
Mof_C 	C 	0.87082	0.80584	0.30632	-0.02
Mof_C 	C 	0.84686	0.78364	0.3468	-0.099
Mof_C 	C 	0.70494	0.76176	0.49892	-0.021
Mof_C 	C 	0.67965	0.73829	0.53895	-0.048
Mof_C 	C 	0.01219	0.28535	0.78359	0.333
Mof_C 	C 	0.01702	0.30632	0.80584	-0.039
Mof_C 	C 	0.0227	0.3468	0.78364	-0.09
Mof_C 	C 	0.03438	0.49892	0.76176	-0.031
Mof_C 	C 	0.04311	0.53895	0.73829	-0.044
Mof_C 	C 	0.78359	0.01219	0.28535	0.333
Mof_C 	C 	0.80584	0.01702	0.30632	-0.039
Mof_C 	C 	0.78364	0.0227	0.3468	-0.09
Mof_C 	C 	0.76176	0.03438	0.49892	-0.031
Mof_C 	C 	0.73829	0.04311	0.53895	-0.044
Mof_C 	C 	0.28535	0.91887	0.78359	0.329
Mof_C 	C 	0.30632	0.87082	0.80584	-0.02
Mof_C 	C 	0.3468	0.84686	0.78364	-0.099
Mof_C 	C 	0.49892	0.70494	0.76176	-0.021
Mof_C 	C 	0.53895	0.67965	0.73829	-0.048
Mof_C 	C 	0.91887	0.28535	0.01219	0.331
Mof_C 	C 	0.87082	0.30632	0.01702	-0.035
Mof_C 	C 	0.84686	0.3468	0.0227	-0.091
Mof_C 	C 	0.70494	0.49892	0.03438	-0.032
Mof_C 	C 	0.67965	0.53895	0.04311	-0.045
Mof_C 	C 	0.01219	0.78359	0.91887	0.329
Mof_C 	C 	0.01702	0.80584	0.87082	-0.031
Mof_C 	C 	0.0227	0.78364	0.84686	-0.094
Mof_C 	C 	0.03438	0.76176	0.70494	-0.032
Mof_C 	C 	0.04311	0.73829	0.67965	-0.044
Mof_C 	C 	0.71465	0.21641	0.08113	0.334
Mof_C 	C 	0.69368	0.19416	0.12918	-0.039
Mof_C 	C 	0.6532	0.21636	0.15314	-0.09
Mof_C 	C 	0.50108	0.23824	0.29506	-0.019
Mof_C 	C 	0.46105	0.26171	0.32035	-0.052
Mof_C 	C 	0.21641	0.71465	0.98781	0.329
Mof_C 	C 	0.19416	0.69368	0.98298	-0.019
Mof_C 	C 	0.21636	0.6532	0.9773	-0.1
Mof_C 	C 	0.23824	0.50108	0.96562	-0.008
Mof_C 	C 	0.26171	0.46105	0.95689	-0.056
Mof_C 	C 	0.98781	0.08113	0.21641	0.33
Mof_C 	C 	0.98298	0.12918	0.19416	-0.026
Mof_C 	C 	0.9773	0.15314	0.21636	-0.097
Mof_C 	C 	0.96562	0.29506	0.23824	-0.008
Mof_C 	C 	0.95689	0.32035	0.26171	-0.056
Mof_C 	C 	0.08113	0.98781	0.71465	0.328
Mof_C 	C 	0.12918	0.98298	0.69368	-0.022
Mof_C 	C 	0.15314	0.9773	0.6532	-0.099
Mof_C 	C 	0.29506	0.96562	0.50108	-0.008
Mof_C 	C 	0.32035	0.95689	0.46105	-0.055
Mof_C 	C 	0.08113	0.21641	0.98781	0.329
Mof_C 	C 	0.12918	0.19416	0.98298	-0.025
Mof_C 	C 	0.15314	0.21636	0.9773	-0.097
Mof_C 	C 	0.29506	0.23824	0.96562	-0.008
Mof_C 	C 	0.32035	0.26171	0.95689	-0.056
Mof_C 	C 	0.98781	0.71465	0.08113	0.328
Mof_C 	C 	0.98298	0.69368	0.12918	-0.022
Mof_C 	C 	0.9773	0.6532	0.15314	-0.099
Mof_C 	C 	0.96562	0.50108	0.29506	-0.008
Mof_C 	C 	0.95689	0.46105	0.32035	-0.055
Mof_C 	C 	0.21641	0.08113	0.71465	0.334
Mof_C 	C 	0.19416	0.12918	0.69368	-0.039
Mof_C 	C 	0.21636	0.15314	0.6532	-0.09
Mof_C 	C 	0.23824	0.29506	0.50108	-0.019
Mof_C 	C 	0.26171	0.32035	0.46105	-0.052
Mof_C 	C 	0.71465	0.98781	0.21641	0.329
Mof_C 	C 	0.69368	0.98298	0.19416	-0.019
Mof_C 	C 	0.6532	0.9773	0.21636	-0.1
Mof_C 	C 	0.50108	0.96562	0.23824	-0.008
Mof_C 	C 	0.46105	0.95689	0.26171	-0.056
Mof_C 	C 	0.98781	0.21641	0.71465	0.329
Mof_C 	C 	0.98298	0.19416	0.69368	-0.019
Mof_C 	C 	0.9773	0.21636	0.6532	-0.1
Mof_C 	C 	0.96562	0.23824	0.50108	-0.008
Mof_C 	C 	0.95689	0.26171	0.46105	-0.056
Mof_C 	C 	0.08113	0.71465	0.21641	0.334
Mof_C 	C 	0.12918	0.69368	0.19416	-0.039
Mof_C 	C 	0.15314	0.6532	0.21636	-0.09
Mof_C 	C 	0.29506	0.50108	0.23824	-0.019
Mof_C 	C 	0.32035	0.46105	0.26171	-0.052
Mof_C 	C 	0.71465	0.08113	0.98781	0.329
Mof_C 	C 	0.69368	0.12918	0.98298	-0.022
Mof_C 	C 	0.6532	0.15314	0.9773	-0.099
Mof_C 	C 	0.50108	0.29506	0.96562	-0.008
Mof_C 	C 	0.46105	0.32035	0.95689	-0.055
Mof_C 	C 	0.21641	0.98781	0.08113	0.329
Mof_C 	C 	0.19416	0.98298	0.12918	-0.025
Mof_C 	C 	0.21636	0.9773	0.15314	-0.097
Mof_C 	C 	0.23824	0.96562	0.29506	-0.008
Mof_C 	C 	0.26171	0.95689	0.32035	-0.056
Mof_C 	C 	0.21641	0.71465	0.08113	0.334
Mof_C 	C 	0.19416	0.69368	0.12918	-0.039
Mof_C 	C 	0.21636	0.6532	0.15314	-0.09
Mof_C 	C 	0.23824	0.50108	0.29506	-0.019
Mof_C 	C 	0.26171	0.46105	0.32035	-0.052
Mof_C 	C 	0.71465	0.21641	0.98781	0.329
Mof_C 	C 	0.69368	0.19416	0.98298	-0.019
Mof_C 	C 	0.6532	0.21636	0.9773	-0.1
Mof_C 	C 	0.50108	0.23824	0.96562	-0.008
Mof_C 	C 	0.46105	0.26171	0.95689	-0.056
Mof_C 	C 	0.08113	0.98781	0.21641	0.33
Mof_C 	C 	0.12918	0.98298	0.19416	-0.026
Mof_C 	C 	0.15314	0.9773	0.21636	-0.097
Mof_C 	C 	0.29506	0.96562	0.23824	-0.008
Mof_C 	C 	0.32035	0.95689	0.26171	-0.056
Mof_C 	C 	0.98781	0.08113	0.71465	0.328
Mof_C 	C 	0.98298	0.12918	0.69368	-0.022
Mof_C 	C 	0.9773	0.15314	0.6532	-0.099
Mof_C 	C 	0.96562	0.29506	0.50108	-0.008
Mof_C 	C 	0.95689	0.32035	0.46105	-0.055
Mof_C 	C 	0.21641	0.08113	0.98781	0.329
Mof_C 	C 	0.19416	0.12918	0.98298	-0.026
Mof_C 	C 	0.21636	0.15314	0.9773	-0.097
Mof_C 	C 	0.23824	0.29506	0.96562	-0.008
Mof_C 	C 	0.26171	0.32035	0.95689	-0.056
Mof_C 	C 	0.71465	0.98781	0.08113	0.328
Mof_C 	C 	0.69368	0.98298	0.12918	-0.022
Mof_C 	C 	0.6532	0.9773	0.15314	-0.099
Mof_C 	C 	0.50108	0.96562	0.29506	-0.008
Mof_C 	C 	0.46105	0.95689	0.32035	-0.055
Mof_C 	C 	0.08113	0.21641	0.71465	0.333
Mof_C 	C 	0.12918	0.19416	0.69368	-0.039
Mof_C 	C 	0.15314	0.21636	0.6532	-0.09
Mof_C 	C 	0.29506	0.23824	0.50108	-0.019
Mof_C 	C 	0.32035	0.26171	0.46105	-0.052
Mof_C 	C 	0.98781	0.71465	0.21641	0.329
Mof_C 	C 	0.98298	0.69368	0.19416	-0.019
Mof_C 	C 	0.9773	0.6532	0.21636	-0.1
Mof_C 	C 	0.96562	0.50108	0.23824	-0.008
Mof_C 	C 	0.95689	0.46105	0.26171	-0.056
Mof_C 	C 	0.21641	0.98781	0.71465	0.329
Mof_C 	C 	0.19416	0.98298	0.69368	-0.019
Mof_C 	C 	0.21636	0.9773	0.6532	-0.1
Mof_C 	C 	0.23824	0.96562	0.50108	-0.008
Mof_C 	C 	0.26171	0.95689	0.46105	-0.056
Mof_C 	C 	0.71465	0.08113	0.21641	0.334
Mof_C 	C 	0.69368	0.12918	0.19416	-0.039
Mof_C 	C 	0.6532	0.15314	0.21636	-0.09
Mof_C 	C 	0.50108	0.29506	0.23824	-0.019
Mof_C 	C 	0.46105	0.32035	0.26171	-0.052
Mof_C 	C 	0.08113	0.71465	0.98781	0.328
Mof_C 	C 	0.12918	0.69368	0.98298	-0.022
Mof_C 	C 	0.15314	0.6532	0.9773	-0.099
Mof_C 	C 	0.29506	0.50108	0.96562	-0.008
Mof_C 	C 	0.32035	0.46105	0.95689	-0.055
Mof_C 	C 	0.98781	0.21641	0.08113	0.329
Mof_C 	C 	0.98298	0.19416	0.12918	-0.026
Mof_C 	C 	0.9773	0.21636	0.15314	-0.097
Mof_C 	C 	0.96562	0.23824	0.29506	-0.008
Mof_C 	C 	0.95689	0.26171	0.32035	-0.056
Mof_C 	C 	0.28535	0.78359	0.91887	0.329
Mof_C 	C 	0.30632	0.80584	0.87082	-0.02
Mof_C 	C 	0.3468	0.78364	0.84686	-0.099
Mof_C 	C 	0.49892	0.76176	0.70494	-0.021
Mof_C 	C 	0.53895	0.73829	0.67965	-0.048
Mof_C 	C 	0.78359	0.28535	0.01219	0.333
Mof_C 	C 	0.80584	0.30632	0.01702	-0.039
Mof_C 	C 	0.78364	0.3468	0.0227	-0.09
Mof_C 	C 	0.76176	0.49892	0.03438	-0.031
Mof_C 	C 	0.73829	0.53895	0.04311	-0.044
Mof_C 	C 	0.01219	0.91887	0.78359	0.329
Mof_C 	C 	0.01702	0.87082	0.80584	-0.03
Mof_C 	C 	0.0227	0.84686	0.78364	-0.094
Mof_C 	C 	0.03438	0.70494	0.76176	-0.032
Mof_C 	C 	0.04311	0.67965	0.73829	-0.044
Mof_C 	C 	0.91887	0.01219	0.28535	0.331
Mof_C 	C 	0.87082	0.01702	0.30632	-0.035
Mof_C 	C 	0.84686	0.0227	0.3468	-0.091
Mof_C 	C 	0.70494	0.03438	0.49892	-0.032
Mof_C 	C 	0.67965	0.04311	0.53895	-0.045
Mof_C 	C 	0.91887	0.78359	0.01219	0.329
Mof_C 	C 	0.87082	0.80584	0.01702	-0.031
Mof_C 	C 	0.84686	0.78364	0.0227	-0.094
Mof_C 	C 	0.70494	0.76176	0.03438	-0.032
Mof_C 	C 	0.67965	0.73829	0.04311	-0.044
Mof_C 	C 	0.01219	0.28535	0.91887	0.331
Mof_C 	C 	0.01702	0.30632	0.87082	-0.035
Mof_C 	C 	0.0227	0.3468	0.84686	-0.091
Mof_C 	C 	0.03438	0.49892	0.70494	-0.032
Mof_C 	C 	0.04311	0.53895	0.67965	-0.045
Mof_C 	C 	0.78359	0.91887	0.28535	0.329
Mof_C 	C 	0.80584	0.87082	0.30632	-0.02
Mof_C 	C 	0.78364	0.84686	0.3468	-0.099
Mof_C 	C 	0.76176	0.70494	0.49892	-0.021
Mof_C 	C 	0.73829	0.67965	0.53895	-0.048
Mof_C 	C 	0.28535	0.01219	0.78359	0.333
Mof_C 	C 	0.30632	0.01702	0.80584	-0.039
Mof_C 	C 	0.3468	0.0227	0.78364	-0.09
Mof_C 	C 	0.49892	0.03438	0.76176	-0.031
Mof_C 	C 	0.53895	0.04311	0.73829	-0.044
Mof_C 	C 	0.01219	0.78359	0.28535	0.334
Mof_C 	C 	0.01702	0.80584	0.30632	-0.039
Mof_C 	C 	0.0227	0.78364	0.3468	-0.09
Mof_C 	C 	0.03438	0.76176	0.49892	-0.031
Mof_C 	C 	0.04311	0.73829	0.53895	-0.044
Mof_C 	C 	0.91887	0.28535	0.78359	0.329
Mof_C 	C 	0.87082	0.30632	0.80584	-0.02
Mof_C 	C 	0.84686	0.3468	0.78364	-0.099
Mof_C 	C 	0.70494	0.49892	0.76176	-0.021
Mof_C 	C 	0.67965	0.53895	0.73829	-0.048
Mof_C 	C 	0.28535	0.91887	0.01219	0.331
Mof_C 	C 	0.30632	0.87082	0.01702	-0.035
Mof_C 	C 	0.3468	0.84686	0.0227	-0.091
Mof_C 	C 	0.49892	0.70494	0.03438	-0.032
Mof_C 	C 	0.53895	0.67965	0.04311	-0.045
Mof_C 	C 	0.78359	0.01219	0.91887	0.329
Mof_C 	C 	0.80584	0.01702	0.87082	-0.03
Mof_C 	C 	0.78364	0.0227	0.84686	-0.094
Mof_C 	C 	0.76176	0.03438	0.70494	-0.032
Mof_C 	C 	0.73829	0.04311	0.67965	-0.044
Mof_C 	C 	0.84909	0.28511	0.84909	-0.024
Mof_C 	C 	0.80289	0.36835	0.80289	0.133
Mof_C 	C 	0.7761	0.44774	0.7761	0.21
Mof_C 	C 	0.74937	0.48847	0.74937	-0.034
Mof_C 	C 	0.70168	0.56836	0.70168	-0.004
Mof_C 	C 	0.67678	0.61366	0.67678	0.105
Mof_C 	C 	0.28511	0.84909	0.01671	-0.016
Mof_C 	C 	0.36835	0.80289	0.02587	0.115
Mof_C 	C 	0.44774	0.7761	6e-05	0.157
Mof_C 	C 	0.48847	0.74937	0.01279	-0.026
Mof_C 	C 	0.56836	0.70168	0.02828	-0.014
Mof_C 	C 	0.61366	0.67678	0.03278	0.105
Mof_C 	C 	0.84909	0.01671	0.84909	-0.02
Mof_C 	C 	0.80289	0.02587	0.80289	0.12
Mof_C 	C 	0.7761	6e-05	0.7761	0.158
Mof_C 	C 	0.74937	0.01279	0.74937	-0.024
Mof_C 	C 	0.70168	0.02828	0.70168	-0.013
Mof_C 	C 	0.67678	0.03278	0.67678	0.106
Mof_C 	C 	0.01671	0.84909	0.28511	-0.016
Mof_C 	C 	0.02587	0.80289	0.36835	0.116
Mof_C 	C 	6e-05	0.7761	0.44774	0.157
Mof_C 	C 	0.01279	0.74937	0.48847	-0.026
Mof_C 	C 	0.02828	0.70168	0.56836	-0.014
Mof_C 	C 	0.03278	0.67678	0.61366	0.105
Mof_C 	C 	0.84909	0.84909	0.01671	-0.02
Mof_C 	C 	0.80289	0.80289	0.02587	0.12
Mof_C 	C 	0.7761	0.7761	6e-05	0.158
Mof_C 	C 	0.74937	0.74937	0.01279	-0.024
Mof_C 	C 	0.70168	0.70168	0.02828	-0.013
Mof_C 	C 	0.67678	0.67678	0.03278	0.106
Mof_C 	C 	0.28511	0.01671	0.84909	-0.016
Mof_C 	C 	0.36835	0.02587	0.80289	0.116
Mof_C 	C 	0.44774	6e-05	0.7761	0.157
Mof_C 	C 	0.48847	0.01279	0.74937	-0.026
Mof_C 	C 	0.56836	0.02828	0.70168	-0.014
Mof_C 	C 	0.61366	0.03278	0.67678	0.105
Mof_C 	C 	0.84909	0.84909	0.28511	-0.024
Mof_C 	C 	0.80289	0.80289	0.36835	0.133
Mof_C 	C 	0.7761	0.7761	0.44774	0.21
Mof_C 	C 	0.74937	0.74937	0.48847	-0.034
Mof_C 	C 	0.70168	0.70168	0.56836	-0.004
Mof_C 	C 	0.67678	0.67678	0.61366	0.105
Mof_C 	C 	0.01671	0.28511	0.84909	-0.016
Mof_C 	C 	0.02587	0.36835	0.80289	0.116
Mof_C 	C 	6e-05	0.44774	0.7761	0.157
Mof_C 	C 	0.01279	0.48847	0.74937	-0.026
Mof_C 	C 	0.02828	0.56836	0.70168	-0.014
Mof_C 	C 	0.03278	0.61366	0.67678	0.105
Mof_C 	C 	0.84909	0.01671	0.28511	-0.016
Mof_C 	C 	0.80289	0.02587	0.36835	0.116
Mof_C 	C 	0.7761	6e-05	0.44774	0.157
Mof_C 	C 	0.74937	0.01279	0.48847	-0.026
Mof_C 	C 	0.70168	0.02828	0.56836	-0.014
Mof_C 	C 	0.67678	0.03278	0.61366	0.105
Mof_C 	C 	0.28511	0.84909	0.84909	-0.024
Mof_C 	C 	0.36835	0.80289	0.80289	0.133
Mof_C 	C 	0.44774	0.7761	0.7761	0.21
Mof_C 	C 	0.48847	0.74937	0.74937	-0.034
Mof_C 	C 	0.56836	0.70168	0.70168	-0.004
Mof_C 	C 	0.61366	0.67678	0.67678	0.105
Mof_C 	C 	0.84909	0.28511	0.01671	-0.016
Mof_C 	C 	0.80289	0.36835	0.02587	0.116
Mof_C 	C 	0.7761	0.44774	6e-05	0.157
Mof_C 	C 	0.74937	0.48847	0.01279	-0.026
Mof_C 	C 	0.70168	0.56836	0.02828	-0.014
Mof_C 	C 	0.67678	0.61366	0.03278	0.105
Mof_C 	C 	0.01671	0.84909	0.84909	-0.02
Mof_C 	C 	0.02587	0.80289	0.80289	0.12
Mof_C 	C 	6e-05	0.7761	0.7761	0.158
Mof_C 	C 	0.01279	0.74937	0.74937	-0.024
Mof_C 	C 	0.02828	0.70168	0.70168	-0.013
Mof_C 	C 	0.03278	0.67678	0.67678	0.106
Mof_C 	C 	0.71489	0.15091	0.15091	-0.015
Mof_C 	C 	0.63165	0.19711	0.19711	0.12
Mof_C 	C 	0.55226	0.2239	0.2239	0.209
Mof_C 	C 	0.51153	0.25063	0.25063	-0.044
Mof_C 	C 	0.43164	0.29832	0.29832	-0.008
Mof_C 	C 	0.38634	0.32322	0.32322	0.1
Mof_C 	C 	0.15091	0.71489	0.98329	-0.024
Mof_C 	C 	0.19711	0.63165	0.97413	0.138
Mof_C 	C 	0.2239	0.55226	0.99994	0.263
Mof_C 	C 	0.25063	0.51153	0.98721	-0.052
Mof_C 	C 	0.29832	0.43164	0.97172	0.003
Mof_C 	C 	0.32322	0.38634	0.96722	0.1
Mof_C 	C 	0.98329	0.15091	0.15091	-0.022
Mof_C 	C 	0.97413	0.19711	0.19711	0.135
Mof_C 	C 	0.99994	0.2239	0.2239	0.263
Mof_C 	C 	0.98721	0.25063	0.25063	-0.054
Mof_C 	C 	0.97172	0.29832	0.29832	0.003
Mof_C 	C 	0.96722	0.32322	0.32322	0.1
Mof_C 	C 	0.15091	0.98329	0.71489	-0.024
Mof_C 	C 	0.19711	0.97413	0.63165	0.138
Mof_C 	C 	0.2239	0.99994	0.55226	0.263
Mof_C 	C 	0.25063	0.98721	0.51153	-0.052
Mof_C 	C 	0.29832	0.97172	0.43164	0.003
Mof_C 	C 	0.32322	0.96722	0.38634	0.1
Mof_C 	C 	0.15091	0.15091	0.98329	-0.022
Mof_C 	C 	0.19711	0.19711	0.97413	0.135
Mof_C 	C 	0.2239	0.2239	0.99994	0.263
Mof_C 	C 	0.25063	0.25063	0.98721	-0.054
Mof_C 	C 	0.29832	0.29832	0.97172	0.003
Mof_C 	C 	0.32322	0.32322	0.96722	0.1
Mof_C 	C 	0.98329	0.71489	0.15091	-0.024
Mof_C 	C 	0.97413	0.63165	0.19711	0.138
Mof_C 	C 	0.99994	0.55226	0.2239	0.263
Mof_C 	C 	0.98721	0.51153	0.25063	-0.052
Mof_C 	C 	0.97172	0.43164	0.29832	0.003
Mof_C 	C 	0.96722	0.38634	0.32322	0.1
Mof_C 	C 	0.15091	0.15091	0.71489	-0.015
Mof_C 	C 	0.19711	0.19711	0.63165	0.12
Mof_C 	C 	0.2239	0.2239	0.55226	0.209
Mof_C 	C 	0.25063	0.25063	0.51153	-0.044
Mof_C 	C 	0.29832	0.29832	0.43164	-0.008
Mof_C 	C 	0.32322	0.32322	0.38634	0.1
Mof_C 	C 	0.71489	0.98329	0.15091	-0.024
Mof_C 	C 	0.63165	0.97413	0.19711	0.138
Mof_C 	C 	0.55226	0.99994	0.2239	0.263
Mof_C 	C 	0.51153	0.98721	0.25063	-0.052
Mof_C 	C 	0.43164	0.97172	0.29832	0.003
Mof_C 	C 	0.38634	0.96722	0.32322	0.1
Mof_C 	C 	0.98329	0.15091	0.71489	-0.024
Mof_C 	C 	0.97413	0.19711	0.63165	0.138
Mof_C 	C 	0.99994	0.2239	0.55226	0.263
Mof_C 	C 	0.98721	0.25063	0.51153	-0.052
Mof_C 	C 	0.97172	0.29832	0.43164	0.003
Mof_C 	C 	0.96722	0.32322	0.38634	0.1
Mof_C 	C 	0.15091	0.71489	0.15091	-0.015
Mof_C 	C 	0.19711	0.63165	0.19711	0.12
Mof_C 	C 	0.2239	0.55226	0.2239	0.209
Mof_C 	C 	0.25063	0.51153	0.25063	-0.044
Mof_C 	C 	0.29832	0.43164	0.29832	-0.008
Mof_C 	C 	0.32322	0.38634	0.32322	0.1
Mof_C 	C 	0.71489	0.15091	0.98329	-0.024
Mof_C 	C 	0.63165	0.19711	0.97413	0.138
Mof_C 	C 	0.55226	0.2239	0.99994	0.263
Mof_C 	C 	0.51153	0.25063	0.98721	-0.052
Mof_C 	C 	0.43164	0.29832	0.97172	0.003
Mof_C 	C 	0.38634	0.32322	0.96722	0.1
Mof_C 	C 	0.15091	0.98329	0.15091	-0.022
Mof_C 	C 	0.19711	0.97413	0.19711	0.135
Mof_C 	C 	0.2239	0.99994	0.2239	0.263
Mof_C 	C 	0.25063	0.98721	0.25063	-0.054
Mof_C 	C 	0.29832	0.97172	0.29832	0.003
Mof_C 	C 	0.32322	0.96722	0.32322	0.1
Mof_C 	C 	0.69809	0.63351	0.63351	-0.168
Mof_C 	C 	0.63351	0.69809	0.03489	-0.173
Mof_C 	C 	0.63351	0.03489	0.69809	-0.173
Mof_C 	C 	0.03489	0.63351	0.63351	-0.173
Mof_C 	C 	0.69809	0.63351	0.03489	-0.173
Mof_C 	C 	0.63351	0.03489	0.63351	-0.173
Mof_C 	C 	0.63351	0.69809	0.63351	-0.168
Mof_C 	C 	0.03489	0.63351	0.69809	-0.173
Mof_C 	C 	0.69809	0.03489	0.63351	-0.173
Mof_C 	C 	0.63351	0.63351	0.69809	-0.168
Mof_C 	C 	0.63351	0.63351	0.03489	-0.173
Mof_C 	C 	0.03489	0.69809	0.63351	-0.173
Mof_C 	C 	0.36649	0.30191	0.36649	-0.168
Mof_C 	C 	0.30191	0.36649	0.96511	-0.163
Mof_C 	C 	0.96511	0.36649	0.30191	-0.163
Mof_C 	C 	0.36649	0.96511	0.36649	-0.163
Mof_C 	C 	0.36649	0.30191	0.96511	-0.163
Mof_C 	C 	0.96511	0.36649	0.36649	-0.163
Mof_C 	C 	0.30191	0.36649	0.36649	-0.168
Mof_C 	C 	0.36649	0.96511	0.30191	-0.163
Mof_C 	C 	0.96511	0.30191	0.36649	-0.163
Mof_C 	C 	0.36649	0.36649	0.30191	-0.168
Mof_C 	C 	0.36649	0.36649	0.96511	-0.163
Mof_C 	C 	0.30191	0.96511	0.36649	-0.163
Mof_N 	N 	0.77757	0.41123	0.77757	-0.242
Mof_N 	N 	0.41123	0.77757	0.03363	-0.231
Mof_N 	N 	0.77757	0.03363	0.77757	-0.231
Mof_N 	N 	0.03363	0.77757	0.41123	-0.231
Mof_N 	N 	0.77757	0.77757	0.03363	-0.231
Mof_N 	N 	0.41123	0.03363	0.77757	-0.231
Mof_N 	N 	0.77757	0.77757	0.41123	-0.242
Mof_N 	N 	0.03363	0.41123	0.77757	-0.231
Mof_N 	N 	0.77757	0.03363	0.41123	-0.231
Mof_N 	N 	0.41123	0.77757	0.77757	-0.242
Mof_N 	N 	0.77757	0.41123	0.03363	-0.231
Mof_N 	N 	0.03363	0.77757	0.77757	-0.231
Mof_N 	N 	0.58877	0.22243	0.22243	-0.242
Mof_N 	N 	0.22243	0.58877	0.96637	-0.253
Mof_N 	N 	0.96637	0.22243	0.22243	-0.253
Mof_N 	N 	0.22243	0.96637	0.58877	-0.253
Mof_N 	N 	0.22243	0.22243	0.96637	-0.253
Mof_N 	N 	0.96637	0.58877	0.22243	-0.253
Mof_N 	N 	0.22243	0.22243	0.58877	-0.242
Mof_N 	N 	0.58877	0.96637	0.22243	-0.253
Mof_N 	N 	0.96637	0.22243	0.58877	-0.253
Mof_N 	N 	0.22243	0.58877	0.22243	-0.242
Mof_N 	N 	0.58877	0.22243	0.96637	-0.253
Mof_N 	N 	0.22243	0.96637	0.22243	-0.253
Mof_O 	O 	0.80614	0.24629	0.93709	-0.374
Mof_O 	O 	0.74554	0.30691	0.93747	-0.382
Mof_O 	O 	0.2463	0.80613	0.01048	-0.404
Mof_O 	O 	0.30691	0.74554	0.01008	-0.413
Mof_O 	O 	0.9371	0.01048	0.80613	-0.384
Mof_O 	O 	0.93748	0.01008	0.74553	-0.393
Mof_O 	O 	0.01049	0.93709	0.24629	-0.388
Mof_O 	O 	0.01008	0.93748	0.30691	-0.394
Mof_O 	O 	0.80614	0.93709	0.01048	-0.384
Mof_O 	O 	0.74554	0.93747	0.01008	-0.393
Mof_O 	O 	0.2463	0.01048	0.93709	-0.388
Mof_O 	O 	0.30692	0.01008	0.93747	-0.394
Mof_O 	O 	0.9371	0.80613	0.24629	-0.374
Mof_O 	O 	0.93747	0.74554	0.30691	-0.382
Mof_O 	O 	0.01049	0.24629	0.80613	-0.404
Mof_O 	O 	0.01009	0.30691	0.74553	-0.413
Mof_O 	O 	0.80614	0.01048	0.24629	-0.404
Mof_O 	O 	0.74554	0.01008	0.30691	-0.413
Mof_O 	O 	0.2463	0.93709	0.80613	-0.374
Mof_O 	O 	0.30691	0.93748	0.74553	-0.382
Mof_O 	O 	0.9371	0.24629	0.01048	-0.388
Mof_O 	O 	0.93747	0.30691	0.01008	-0.394
Mof_O 	O 	0.01049	0.80613	0.93709	-0.384
Mof_O 	O 	0.01008	0.74554	0.93747	-0.393
Mof_O 	O 	0.7537	0.19387	0.06291	-0.405
Mof_O 	O 	0.69308	0.25447	0.06253	-0.412
Mof_O 	O 	0.19386	0.75371	0.98952	-0.374
Mof_O 	O 	0.25446	0.69309	0.98992	-0.381
Mof_O 	O 	0.98951	0.06291	0.19387	-0.385
Mof_O 	O 	0.98992	0.06253	0.25446	-0.391
Mof_O 	O 	0.0629	0.98952	0.75371	-0.381
Mof_O 	O 	0.06253	0.98992	0.69309	-0.39
Mof_O 	O 	0.0629	0.19387	0.98952	-0.385
Mof_O 	O 	0.06252	0.25447	0.98992	-0.391
Mof_O 	O 	0.98951	0.75371	0.06291	-0.381
Mof_O 	O 	0.98991	0.69309	0.06253	-0.39
Mof_O 	O 	0.19386	0.06291	0.75371	-0.405
Mof_O 	O 	0.25446	0.06253	0.69309	-0.412
Mof_O 	O 	0.7537	0.98952	0.19387	-0.374
Mof_O 	O 	0.69309	0.98992	0.25446	-0.381
Mof_O 	O 	0.98951	0.19387	0.75371	-0.374
Mof_O 	O 	0.98991	0.25447	0.69309	-0.381
Mof_O 	O 	0.0629	0.75371	0.19387	-0.405
Mof_O 	O 	0.06253	0.69309	0.25446	-0.412
Mof_O 	O 	0.7537	0.06291	0.98952	-0.381
Mof_O 	O 	0.69309	0.06253	0.98992	-0.39
Mof_O 	O 	0.19386	0.98952	0.06291	-0.385
Mof_O 	O 	0.25447	0.98992	0.06252	-0.391
Mof_O 	O 	0.19386	0.75371	0.06291	-0.405
Mof_O 	O 	0.25446	0.69309	0.06253	-0.412
Mof_O 	O 	0.7537	0.19387	0.98952	-0.374
Mof_O 	O 	0.69308	0.25447	0.98992	-0.381
Mof_O 	O 	0.0629	0.98952	0.19387	-0.385
Mof_O 	O 	0.06253	0.98992	0.25446	-0.391
Mof_O 	O 	0.98951	0.06291	0.75371	-0.381
Mof_O 	O 	0.98991	0.06253	0.69309	-0.39
Mof_O 	O 	0.19386	0.06291	0.98952	-0.385
Mof_O 	O 	0.25446	0.06253	0.98992	-0.391
Mof_O 	O 	0.7537	0.98952	0.06291	-0.381
Mof_O 	O 	0.69308	0.98992	0.06253	-0.39
Mof_O 	O 	0.0629	0.19387	0.75371	-0.405
Mof_O 	O 	0.06252	0.25447	0.69309	-0.412
Mof_O 	O 	0.98951	0.75371	0.19387	-0.374
Mof_O 	O 	0.98991	0.69309	0.25447	-0.381
Mof_O 	O 	0.19386	0.98952	0.75371	-0.374
Mof_O 	O 	0.25446	0.98992	0.69309	-0.381
Mof_O 	O 	0.7537	0.06291	0.19387	-0.405
Mof_O 	O 	0.69309	0.06253	0.25446	-0.412
Mof_O 	O 	0.0629	0.75371	0.98952	-0.381
Mof_O 	O 	0.06253	0.69309	0.98992	-0.39
Mof_O 	O 	0.98951	0.19387	0.06291	-0.385
Mof_O 	O 	0.98991	0.25447	0.06253	-0.391
Mof_O 	O 	0.2463	0.80613	0.93709	-0.374
Mof_O 	O 	0.30691	0.74554	0.93747	-0.382
Mof_O 	O 	0.80614	0.24629	0.01048	-0.404
Mof_O 	O 	0.74554	0.30691	0.01008	-0.413
Mof_O 	O 	0.01049	0.93709	0.80613	-0.384
Mof_O 	O 	0.01008	0.93748	0.74553	-0.393
Mof_O 	O 	0.9371	0.01048	0.24629	-0.388
Mof_O 	O 	0.93748	0.01008	0.30691	-0.394
Mof_O 	O 	0.9371	0.80613	0.01048	-0.384
Mof_O 	O 	0.93747	0.74554	0.01008	-0.393
Mof_O 	O 	0.01049	0.24629	0.93709	-0.388
Mof_O 	O 	0.01009	0.30691	0.93747	-0.394
Mof_O 	O 	0.80614	0.93709	0.24629	-0.374
Mof_O 	O 	0.74554	0.93747	0.30691	-0.382
Mof_O 	O 	0.2463	0.01048	0.80613	-0.404
Mof_O 	O 	0.30692	0.01008	0.74553	-0.413
Mof_O 	O 	0.01049	0.80613	0.24629	-0.404
Mof_O 	O 	0.01008	0.74554	0.30691	-0.413
Mof_O 	O 	0.9371	0.24629	0.80613	-0.374
Mof_O 	O 	0.93748	0.30691	0.74553	-0.382
Mof_O 	O 	0.2463	0.93709	0.01048	-0.388
Mof_O 	O 	0.30692	0.93747	0.01008	-0.394
Mof_O 	O 	0.80614	0.01048	0.93709	-0.384
Mof_O 	O 	0.74554	0.01008	0.93747	-0.393
Mof_O 	O 	0.79449	0.45203	0.79449	-0.182
Mof_O 	O 	0.45203	0.79449	0.95899	-0.134
Mof_O 	O 	0.79449	0.95899	0.79449	-0.13
Mof_O 	O 	0.95899	0.79449	0.45203	-0.134
Mof_O 	O 	0.79449	0.79449	0.95899	-0.13
Mof_O 	O 	0.45203	0.95899	0.79449	-0.134
Mof_O 	O 	0.79449	0.79449	0.45203	-0.182
Mof_O 	O 	0.95899	0.45203	0.79449	-0.134
Mof_O 	O 	0.79449	0.95899	0.45203	-0.134
Mof_O 	O 	0.45203	0.79449	0.79449	-0.182
Mof_O 	O 	0.79449	0.45203	0.95899	-0.134
Mof_O 	O 	0.95899	0.79449	0.79449	-0.13
Mof_O 	O 	0.54797	0.20551	0.20551	-0.203
Mof_O 	O 	0.20551	0.54797	0.04101	-0.251
Mof_O 	O 	0.04101	0.20551	0.20551	-0.256
Mof_O 	O 	0.20551	0.04101	0.54797	-0.251
Mof_O 	O 	0.20551	0.20551	0.04101	-0.256
Mof_O 	O 	0.04101	0.54797	0.20551	-0.251
Mof_O 	O 	0.20551	0.20551	0.54797	-0.203
Mof_O 	O 	0.54797	0.04101	0.20551	-0.251
Mof_O 	O 	0.04101	0.20551	0.54797	-0.251
Mof_O 	O 	0.20551	0.54797	0.20551	-0.203
Mof_O 	O 	0.54797	0.20551	0.04101	-0.251
Mof_O 	O 	0.20551	0.04101	0.20551	-0.256
_end
