# CIF file generated by openbabel 3.1.0, see https://openbabel.org
data_I
_chemical_name_common 'LETQAE01_ion_b'
_cell_length_a 48.561
_cell_length_b 66.34
_cell_length_c 10.0376
_cell_angle_alpha 90
_cell_angle_beta 90
_cell_angle_gamma 90
_space_group_name_H-M_alt 'C m c a'
_space_group_name_Hall '-C 2bc 2'
loop_
    _symmetry_equiv_pos_as_xyz
    x,y,z
    -x,1/2-y,1/2+z
    -x,1/2+y,1/2-z
    x,-y,-z
    -x,-y,-z
    x,1/2+y,1/2-z
    x,1/2-y,1/2+z
    -x,y,z
    1/2+x,1/2+y,z
    1/2-x,-y,1/2+z
    1/2-x,y,1/2-z
    1/2+x,1/2-y,-z
    1/2-x,1/2-y,-z
    1/2+x,y,1/2-z
    1/2+x,-y,1/2+z
    1/2-x,1/2+y,z
loop_
    _atom_site_label
    _atom_site_type_symbol
    _atom_site_fract_x
    _atom_site_fract_y
    _atom_site_fract_z
    _atom_site_occupancy
    Zn1      Zn       0.23525    0.09093    0.43139    1.000
    Zn2      Zn       0.06307    0.01404    0.32851    1.000
    Zn3      Zn       0.23064    0.13721    0.92292    1.000
    Zn4      Zn       0.12618    0.99042    0.18091    1.000
    P5       P        0.19080    0.99634    0.22110    1.000
    P6       P        0.24243    0.04361    0.47449    1.000
    P7       P        0.10206    0.03054    0.09549    1.000
    P8       P        0.20855    0.10735    0.15093    1.000
    P9       P        0.21190    0.12136    0.63686    1.000
    P10      P        0.21155    0.18254    0.00918    1.000
    P11      P        0.08587    0.97201    0.38873    1.000
    O12      O        0.21452    0.97924    0.18666    1.000
    O13      O        0.16379    0.98204    0.18461    1.000
    O14      O        0.18992    0.99232    0.38201    1.000
    O15      O        0.21894    0.02631    0.44156    1.000
    O16      O        0.26176    0.95652    0.13654    1.000
    O17      O        0.22266    0.06356    0.44435    1.000
    O18      O        0.12763    0.01665    0.14236    1.000
    O19      O        0.07761    0.01578    0.15361    1.000
    O20      O        0.10170    0.97811    0.05788    1.000
    O21      O        0.22835    0.12574    0.09645    1.000
    O22      O        0.21805    0.10850    0.30782    1.000
    O23      O        0.27070    0.08907    0.38542    1.000
    O24      O        0.23365    0.10351    0.59700    1.000
    O25      O        0.21635    0.11943    0.79808    1.000
    O26      O        0.26652    0.13981    0.88236    1.000
    O27      O        0.24251    0.18125    0.06935    1.000
    O28      O        0.21525    0.16351    0.90489    1.000
    O29      O        0.11020    0.98802    0.34925    1.000
    O30      O        0.08823    0.02471    0.44977    1.000
    O31      O        0.06039    0.98762    0.36887    1.000
    O32      O        0.02679    0.02507    0.35006    1.000
    O33      O        0.02715    0.98090    0.02281    1.000
    O34      O        0.22464    0.16128    0.28549    1.000
    O35      O        0.22410    0.20115    0.27269    1.000
    F36      F        0.25945    0.99339    0.12365    1.000
    Zn37     Zn       0.23246    0.22742    0.92074    1.000
    P38      P        0.79024    0.74376    0.85668    1.000
    O39      O        0.21800    0.20073    0.90128    1.000
    O40      O        0.26866    0.22554    0.88487    1.000
    O41      O        0.21766    0.24596    0.80105    1.000
    O42      O        0.22971    0.23788    0.09280    1.000
    N43      N        0.29851    0.92655    0.32626    1.000
    C44      C        0.32625    0.93352    0.35821    1.000
    C45      C        0.34732    0.91637    0.34892    1.000
    C46      C        0.37604    0.92424    0.38553    1.000
    C47      C        0.39840    0.90852    0.36158    1.000
    H48      H        0.02669    0.97568    0.11513    1.000
    H49      H        0.20562    0.16639    0.27395    1.000
    H50      H        0.21425    0.19873    0.35768    1.000
    H51      H        0.28469    0.93821    0.34507    1.000
    H52      H        0.29318    0.91435    0.38609    1.000
    H53      H        0.32630    0.94000    0.46038    1.000
    H54      H        0.33200    0.94545    0.28621    1.000
    H55      H        0.34739    0.91028    0.24580    1.000
    H56      H        0.34141    0.90403    0.41839    1.000
    H57      H        0.37625    0.92864    0.49241    1.000
    H58      H        0.38094    0.93779    0.32494    1.000
    H59      H        0.41868    0.91501    0.38944    1.000
    H60      H        0.39904    0.90422    0.25477    1.000
    H61      H        0.39464    0.89491    0.42343    1.000
    H62      H        0.79734    0.57739    0.77423    1.000
    Ga63     Ga       0.25000    0.97618    0.25000    1.000
    Zn64     Zn       0.25000    0.18124    0.25000    1.000
    Ga65     Ga       0.21631    0.00000    0.50000    1.000
    Zn66     Zn       0.00000    0.00000    0.00000    1.000
    P67      P        0.00000    0.02689    0.24903    1.000
    O68      O        0.00000    0.00475    0.18089    1.000
    H69      H        0.00000    0.04395    0.15886    1.000
