data_functionalizedCrystal
_audit_creation_method	'EQeq! by Chris Wilmer'
_symmetry_space_group_name_H-M	'P1'
_symmetry_Int_Tables_number	1
_symmetry_cell_setting	triclinic
loop_
_symmetry_equiv_pos_as_xyz
  x,y,z
_cell_length_a	9.5228
_cell_length_b	9.5228
_cell_length_c	17.47
_cell_angle_alpha	90
_cell_angle_beta	90
_cell_angle_gamma	120
loop_
_atom_site_label
_atom_site_type_symbol
_atom_site_fract_x
_atom_site_fract_y
_atom_site_fract_z
_atom_site_charge
Mof_La	La	0.33333	0.66666	0.75	2.146
Mof_La	La	0.66667	0.33334	0.25	2.142
Mof_La	La	-0	0	-0	1.619
Mof_La	La	9.19957e-33	0	0.5	1.703
Mof_H 	H 	0.503	0.6703	0.9757	0.094
Mof_H 	H 	0.5753	0.5953	0.9186	0.09
Mof_H 	H 	0.1673	0.497	0.9757	0.055
Mof_H 	H 	0.02	0.4247	0.9186	0.021
Mof_H 	H 	0.3297	0.8327	0.9757	0.059
Mof_H 	H 	0.4047	0.98	0.9186	0.084
Mof_H 	H 	0.503	0.6703	0.5243	0.095
Mof_H 	H 	0.5753	0.5953	0.5814	0.096
Mof_H 	H 	0.1673	0.497	0.5243	0.057
Mof_H 	H 	0.02	0.4247	0.5814	0.028
Mof_H 	H 	0.3297	0.8327	0.5243	0.061
Mof_H 	H 	0.4047	0.98	0.5814	0.091
Mof_H 	H 	0.8327	0.3297	0.0243	0.044
Mof_H 	H 	0.98	0.4047	0.0814	0.078
Mof_H 	H 	0.6703	0.503	0.0243	0.082
Mof_H 	H 	0.5953	0.5753	0.0814	0.084
Mof_H 	H 	0.497	0.1673	0.0243	0.047
Mof_H 	H 	0.4247	0.02	0.0814	0.021
Mof_H 	H 	0.8327	0.3297	0.4757	0.059
Mof_H 	H 	0.98	0.4047	0.4186	0.09
Mof_H 	H 	0.6703	0.503	0.4757	0.096
Mof_H 	H 	0.5953	0.5753	0.4186	0.094
Mof_H 	H 	0.497	0.1673	0.4757	0.061
Mof_H 	H 	0.4247	0.02	0.4186	0.032
Mof_C 	C 	0.6503	0.8333	0.8947	0.434
Mof_C 	C 	0.5998	0.6914	0.9479	-0.169
Mof_C 	C 	0.183	0.3497	0.8947	0.405
Mof_C 	C 	0.0916	0.4002	0.9479	-0.103
Mof_C 	C 	0.1667	0.817	0.8947	0.413
Mof_C 	C 	0.3086	0.9084	0.9479	-0.018
Mof_C 	C 	0.6503	0.8333	0.6053	0.447
Mof_C 	C 	0.5998	0.6914	0.5521	-0.221
Mof_C 	C 	0.183	0.3497	0.6053	0.419
Mof_C 	C 	0.0916	0.4002	0.5521	-0.162
Mof_C 	C 	0.1667	0.817	0.6053	0.426
Mof_C 	C 	0.3086	0.9084	0.5521	-0.072
Mof_C 	C 	0.817	0.1667	0.1053	0.412
Mof_C 	C 	0.9084	0.3086	0.0521	-0.035
Mof_C 	C 	0.8333	0.6503	0.1053	0.437
Mof_C 	C 	0.6914	0.5998	0.0521	-0.202
Mof_C 	C 	0.3497	0.183	0.1053	0.412
Mof_C 	C 	0.4002	0.0916	0.0521	-0.149
Mof_C 	C 	0.817	0.1667	0.3947	0.423
Mof_C 	C 	0.9084	0.3086	0.4479	-0.057
Mof_C 	C 	0.8333	0.6503	0.3947	0.447
Mof_C 	C 	0.6914	0.5998	0.4479	-0.221
Mof_C 	C 	0.3497	0.183	0.3947	0.422
Mof_C 	C 	0.4002	0.0916	0.4479	-0.168
Mof_O 	O 	0.5491	0.8226	0.8451	-0.483
Mof_O 	O 	0.7865	0.959	0.9043	-0.289
Mof_O 	O 	0.2735	0.4509	0.8451	-0.519
Mof_O 	O 	0.1725	0.2135	0.9043	-0.443
Mof_O 	O 	0.1774	0.7265	0.8451	-0.517
Mof_O 	O 	0.041	0.8275	0.9043	-0.409
Mof_O 	O 	0.5491	0.8226	0.6549	-0.489
Mof_O 	O 	0.7865	0.959	0.5957	-0.315
Mof_O 	O 	0.2735	0.4509	0.6549	-0.526
Mof_O 	O 	0.1725	0.2135	0.5957	-0.472
Mof_O 	O 	0.1774	0.7265	0.6549	-0.523
Mof_O 	O 	0.041	0.8275	0.5957	-0.437
Mof_O 	O 	0.7265	0.1774	0.1549	-0.519
Mof_O 	O 	0.8275	0.041	0.0957	-0.422
Mof_O 	O 	0.8226	0.5491	0.1549	-0.486
Mof_O 	O 	0.959	0.7865	0.0957	-0.308
Mof_O 	O 	0.4509	0.2735	0.1549	-0.526
Mof_O 	O 	0.2135	0.1725	0.0957	-0.47
Mof_O 	O 	0.7265	0.1774	0.3451	-0.521
Mof_O 	O 	0.8275	0.041	0.4043	-0.429
Mof_O 	O 	0.8226	0.5491	0.3451	-0.488
Mof_O 	O 	0.959	0.7865	0.4043	-0.314
Mof_O 	O 	0.4509	0.2735	0.3451	-0.528
Mof_O 	O 	0.2135	0.1725	0.4043	-0.476
Mof_O 	O 	0.7272	0.7272	-0	-0.199
Mof_O 	O 	2.07156e-17	0.2728	-0	-0.393
Mof_O 	O 	0.2728	0	-0	-0.38
Mof_O 	O 	0.7272	0.7272	0.5	-0.166
Mof_O 	O 	1.19601e-17	0.2728	0.5	-0.356
Mof_O 	O 	0.2728	0	0.5	-0.346
_end
