data_functionalizedCrystal
_audit_creation_method	'EQeq! by Chris Wilmer'
_symmetry_space_group_name_H-M	'P1'
_symmetry_Int_Tables_number	1
_symmetry_cell_setting	triclinic
loop_
_symmetry_equiv_pos_as_xyz
  x,y,z
_cell_length_a	30.585
_cell_length_b	30.585
_cell_length_c	30.585
_cell_angle_alpha	90
_cell_angle_beta	90
_cell_angle_gamma	90
loop_
_atom_site_label
_atom_site_type_symbol
_atom_site_fract_x
_atom_site_fract_y
_atom_site_fract_z
_atom_site_charge
Mof_O 	O 	0.27236	0.79105	0.04484	-0.395
Mof_O 	O 	0.22016	0.84271	0.04498	-0.404
Mof_O 	O 	0.4146	0.8358	0.0813	-0.182
Mof_H 	H 	0.3926	0.8195	0.152	0.103
Mof_C 	C 	0.25534	0.82592	0.05872	0.333
Mof_C 	C 	0.27847	0.85019	0.0945	-0.032
Mof_C 	C 	0.3206	0.8379	0.1063	-0.097
Mof_H 	H 	0.3345	0.8137	0.0921	0.094
Mof_C 	C 	0.418	0.8371	0.1221	0.148
Mof_C 	C 	0.4631	0.8035	0.1844	0.02
Mof_C 	C 	0.4614	0.8242	0.1435	-0.037
Mof_O 	O 	0.77236	0.29105	0.54484	-0.389
Mof_O 	O 	0.72016	0.34271	0.54498	-0.398
Mof_O 	O 	0.9146	0.3358	0.5813	-0.167
Mof_H 	H 	0.8926	0.3195	0.652	0.103
Mof_C 	C 	0.75534	0.32592	0.55872	0.334
Mof_C 	C 	0.77847	0.35019	0.5945	-0.03
Mof_C 	C 	0.8206	0.3379	0.6063	-0.096
Mof_H 	H 	0.8345	0.3137	0.5921	0.096
Mof_C 	C 	0.918	0.3371	0.6221	0.142
Mof_C 	C 	0.9631	0.3035	0.6844	0.028
Mof_C 	C 	0.9614	0.3242	0.6435	-0.007
Mof_O 	O 	0.72764	0.20895	0.04484	-0.396
Mof_O 	O 	0.77984	0.15729	0.04498	-0.407
Mof_O 	O 	0.5854	0.1642	0.0813	-0.185
Mof_H 	H 	0.6074	0.1805	0.152	0.103
Mof_C 	C 	0.74466	0.17408	0.05872	0.333
Mof_C 	C 	0.72153	0.14981	0.0945	-0.036
Mof_C 	C 	0.6794	0.1621	0.1063	-0.096
Mof_H 	H 	0.6655	0.1863	0.0921	0.093
Mof_C 	C 	0.582	0.1629	0.1221	0.146
Mof_C 	C 	0.5369	0.1965	0.1844	0.021
Mof_C 	C 	0.5386	0.1758	0.1435	-0.036
Mof_O 	O 	0.22764	0.70895	0.54484	-0.39
Mof_O 	O 	0.27984	0.65729	0.54498	-0.398
Mof_O 	O 	0.0854	0.6642	0.5813	-0.179
Mof_H 	H 	0.1074	0.6805	0.652	0.103
Mof_C 	C 	0.24466	0.67408	0.55872	0.334
Mof_C 	C 	0.22153	0.64981	0.5945	-0.032
Mof_C 	C 	0.1794	0.6621	0.6063	-0.096
Mof_H 	H 	0.1655	0.6863	0.5921	0.095
Mof_C 	C 	0.082	0.6629	0.6221	0.143
Mof_C 	C 	0.0369	0.6965	0.6844	0.017
Mof_C 	C 	0.0386	0.6758	0.6435	-0.027
Mof_O 	O 	0.72764	0.79105	0.95516	-0.375
Mof_O 	O 	0.77984	0.84271	0.95502	-0.381
Mof_O 	O 	0.5854	0.8358	0.9187	-0.167
Mof_H 	H 	0.6074	0.8195	0.848	0.104
Mof_C 	C 	0.74466	0.82592	0.94128	0.331
Mof_C 	C 	0.72153	0.85019	0.9055	-0.021
Mof_C 	C 	0.6794	0.8379	0.8937	-0.098
Mof_H 	H 	0.6655	0.8137	0.9079	0.1
Mof_C 	C 	0.582	0.8371	0.8779	0.146
Mof_C 	C 	0.5369	0.8035	0.8156	0.022
Mof_C 	C 	0.5386	0.8242	0.8565	-0.031
Mof_O 	O 	0.22764	0.29105	0.45516	-0.389
Mof_O 	O 	0.27984	0.34271	0.45502	-0.397
Mof_O 	O 	0.0854	0.3358	0.4187	-0.178
Mof_H 	H 	0.1074	0.3195	0.348	0.104
Mof_C 	C 	0.24466	0.32592	0.44128	0.335
Mof_C 	C 	0.22153	0.35019	0.4055	-0.03
Mof_C 	C 	0.1794	0.3379	0.3937	-0.095
Mof_H 	H 	0.1655	0.3137	0.4079	0.096
Mof_C 	C 	0.082	0.3371	0.3779	0.144
Mof_C 	C 	0.0369	0.3035	0.3156	0.018
Mof_C 	C 	0.0386	0.3242	0.3565	-0.026
Mof_O 	O 	0.27236	0.20895	0.95516	-0.375
Mof_O 	O 	0.22016	0.15729	0.95502	-0.386
Mof_O 	O 	0.4146	0.1642	0.9187	-0.17
Mof_H 	H 	0.3926	0.1805	0.848	0.105
Mof_C 	C 	0.25534	0.17408	0.94128	0.332
Mof_C 	C 	0.27847	0.14981	0.9055	-0.027
Mof_C 	C 	0.3206	0.1621	0.8937	-0.096
Mof_H 	H 	0.3345	0.1863	0.9079	0.099
Mof_C 	C 	0.418	0.1629	0.8779	0.145
Mof_C 	C 	0.4631	0.1965	0.8156	0.023
Mof_C 	C 	0.4614	0.1758	0.8565	-0.029
Mof_O 	O 	0.77236	0.70895	0.45516	-0.388
Mof_O 	O 	0.72016	0.65729	0.45502	-0.397
Mof_O 	O 	0.9146	0.6642	0.4187	-0.166
Mof_H 	H 	0.8926	0.6805	0.348	0.104
Mof_C 	C 	0.75534	0.67408	0.44128	0.334
Mof_C 	C 	0.77847	0.64981	0.4055	-0.03
Mof_C 	C 	0.8206	0.6621	0.3937	-0.095
Mof_H 	H 	0.8345	0.6863	0.4079	0.097
Mof_C 	C 	0.918	0.6629	0.3779	0.142
Mof_C 	C 	0.9631	0.6965	0.3156	0.029
Mof_C 	C 	0.9614	0.6758	0.3565	-0.006
Mof_O 	O 	0.04484	0.27236	0.79105	-0.394
Mof_O 	O 	0.04498	0.22016	0.84271	-0.403
Mof_O 	O 	0.0813	0.4146	0.8358	-0.181
Mof_H 	H 	0.152	0.3926	0.8195	0.104
Mof_C 	C 	0.05872	0.25534	0.82592	0.334
Mof_C 	C 	0.0945	0.27847	0.85019	-0.031
Mof_C 	C 	0.1063	0.3206	0.8379	-0.096
Mof_H 	H 	0.0921	0.3345	0.8137	0.095
Mof_C 	C 	0.1221	0.418	0.8371	0.149
Mof_C 	C 	0.1844	0.4631	0.8035	0.021
Mof_C 	C 	0.1435	0.4614	0.8242	-0.036
Mof_O 	O 	0.54484	0.77236	0.29105	-0.388
Mof_O 	O 	0.54498	0.72016	0.34271	-0.397
Mof_O 	O 	0.5813	0.9146	0.3358	-0.166
Mof_H 	H 	0.652	0.8926	0.3195	0.104
Mof_C 	C 	0.55872	0.75534	0.32592	0.335
Mof_C 	C 	0.5945	0.77847	0.35019	-0.029
Mof_C 	C 	0.6063	0.8206	0.3379	-0.095
Mof_H 	H 	0.5921	0.8345	0.3137	0.097
Mof_C 	C 	0.6221	0.918	0.3371	0.143
Mof_C 	C 	0.6844	0.9631	0.3035	0.029
Mof_C 	C 	0.6435	0.9614	0.3242	-0.006
Mof_O 	O 	0.04484	0.72764	0.20895	-0.395
Mof_O 	O 	0.04498	0.77984	0.15729	-0.406
Mof_O 	O 	0.0813	0.5854	0.1642	-0.184
Mof_H 	H 	0.152	0.6074	0.1805	0.104
Mof_C 	C 	0.05872	0.74466	0.17408	0.334
Mof_C 	C 	0.0945	0.72153	0.14981	-0.035
Mof_C 	C 	0.1063	0.6794	0.1621	-0.095
Mof_H 	H 	0.0921	0.6655	0.1863	0.094
Mof_C 	C 	0.1221	0.582	0.1629	0.147
Mof_C 	C 	0.1844	0.5369	0.1965	0.022
Mof_C 	C 	0.1435	0.5386	0.1758	-0.035
Mof_O 	O 	0.54484	0.22764	0.70895	-0.389
Mof_O 	O 	0.54498	0.27984	0.65729	-0.397
Mof_O 	O 	0.5813	0.0854	0.6642	-0.178
Mof_H 	H 	0.652	0.1074	0.6805	0.104
Mof_C 	C 	0.55872	0.24466	0.67408	0.335
Mof_C 	C 	0.5945	0.22153	0.64981	-0.031
Mof_C 	C 	0.6063	0.1794	0.6621	-0.095
Mof_H 	H 	0.5921	0.1655	0.6863	0.096
Mof_C 	C 	0.6221	0.082	0.6629	0.144
Mof_C 	C 	0.6844	0.0369	0.6965	0.018
Mof_C 	C 	0.6435	0.0386	0.6758	-0.026
Mof_O 	O 	0.95516	0.72764	0.79105	-0.374
Mof_O 	O 	0.95502	0.77984	0.84271	-0.38
Mof_O 	O 	0.9187	0.5854	0.8358	-0.166
Mof_H 	H 	0.848	0.6074	0.8195	0.105
Mof_C 	C 	0.94128	0.74466	0.82592	0.331
Mof_C 	C 	0.9055	0.72153	0.85019	-0.021
Mof_C 	C 	0.8937	0.6794	0.8379	-0.098
Mof_H 	H 	0.9079	0.6655	0.8137	0.1
Mof_C 	C 	0.8779	0.582	0.8371	0.146
Mof_C 	C 	0.8156	0.5369	0.8035	0.022
Mof_C 	C 	0.8565	0.5386	0.8242	-0.031
Mof_O 	O 	0.45516	0.22764	0.29105	-0.389
Mof_O 	O 	0.45502	0.27984	0.34271	-0.397
Mof_O 	O 	0.4187	0.0854	0.3358	-0.178
Mof_H 	H 	0.348	0.1074	0.3195	0.104
Mof_C 	C 	0.44128	0.24466	0.32592	0.335
Mof_C 	C 	0.4055	0.22153	0.35019	-0.03
Mof_C 	C 	0.3937	0.1794	0.3379	-0.095
Mof_H 	H 	0.4079	0.1655	0.3137	0.096
Mof_C 	C 	0.3779	0.082	0.3371	0.144
Mof_C 	C 	0.3156	0.0369	0.3035	0.018
Mof_C 	C 	0.3565	0.0386	0.3242	-0.026
Mof_O 	O 	0.95516	0.27236	0.20895	-0.375
Mof_O 	O 	0.95502	0.22016	0.15729	-0.386
Mof_O 	O 	0.9187	0.4146	0.1642	-0.17
Mof_H 	H 	0.848	0.3926	0.1805	0.105
Mof_C 	C 	0.94128	0.25534	0.17408	0.332
Mof_C 	C 	0.9055	0.27847	0.14981	-0.027
Mof_C 	C 	0.8937	0.3206	0.1621	-0.096
Mof_H 	H 	0.9079	0.3345	0.1863	0.099
Mof_C 	C 	0.8779	0.418	0.1629	0.145
Mof_C 	C 	0.8156	0.4631	0.1965	0.023
Mof_C 	C 	0.8565	0.4614	0.1758	-0.029
Mof_O 	O 	0.45516	0.77236	0.70895	-0.388
Mof_O 	O 	0.45502	0.72016	0.65729	-0.397
Mof_O 	O 	0.4187	0.9146	0.6642	-0.166
Mof_H 	H 	0.348	0.8926	0.6805	0.104
Mof_C 	C 	0.44128	0.75534	0.67408	0.334
Mof_C 	C 	0.4055	0.77847	0.64981	-0.03
Mof_C 	C 	0.3937	0.8206	0.6621	-0.095
Mof_H 	H 	0.4079	0.8345	0.6863	0.097
Mof_C 	C 	0.3779	0.918	0.6629	0.142
Mof_C 	C 	0.3156	0.9631	0.6965	0.029
Mof_C 	C 	0.3565	0.9614	0.6758	-0.006
Mof_O 	O 	0.79105	0.04484	0.27236	-0.394
Mof_O 	O 	0.84271	0.04498	0.22016	-0.403
Mof_O 	O 	0.8358	0.0813	0.4146	-0.181
Mof_H 	H 	0.8195	0.152	0.3926	0.104
Mof_C 	C 	0.82592	0.05872	0.25534	0.334
Mof_C 	C 	0.85019	0.0945	0.27847	-0.031
Mof_C 	C 	0.8379	0.1063	0.3206	-0.096
Mof_H 	H 	0.8137	0.0921	0.3345	0.095
Mof_C 	C 	0.8371	0.1221	0.418	0.149
Mof_C 	C 	0.8035	0.1844	0.4631	0.021
Mof_C 	C 	0.8242	0.1435	0.4614	-0.036
Mof_O 	O 	0.29105	0.54484	0.77236	-0.388
Mof_O 	O 	0.34271	0.54498	0.72016	-0.397
Mof_O 	O 	0.3358	0.5813	0.9146	-0.166
Mof_H 	H 	0.3195	0.652	0.8926	0.104
Mof_C 	C 	0.32592	0.55872	0.75534	0.335
Mof_C 	C 	0.35019	0.5945	0.77847	-0.029
Mof_C 	C 	0.3379	0.6063	0.8206	-0.095
Mof_H 	H 	0.3137	0.5921	0.8345	0.097
Mof_C 	C 	0.3371	0.6221	0.918	0.143
Mof_C 	C 	0.3035	0.6844	0.9631	0.029
Mof_C 	C 	0.3242	0.6435	0.9614	-0.006
Mof_O 	O 	0.20895	0.04484	0.72764	-0.395
Mof_O 	O 	0.15729	0.04498	0.77984	-0.406
Mof_O 	O 	0.1642	0.0813	0.5854	-0.184
Mof_H 	H 	0.1805	0.152	0.6074	0.104
Mof_C 	C 	0.17408	0.05872	0.74466	0.334
Mof_C 	C 	0.14981	0.0945	0.72153	-0.035
Mof_C 	C 	0.1621	0.1063	0.6794	-0.095
Mof_H 	H 	0.1863	0.0921	0.6655	0.094
Mof_C 	C 	0.1629	0.1221	0.582	0.147
Mof_C 	C 	0.1965	0.1844	0.5369	0.022
Mof_C 	C 	0.1758	0.1435	0.5386	-0.035
Mof_O 	O 	0.70895	0.54484	0.22764	-0.389
Mof_O 	O 	0.65729	0.54498	0.27984	-0.397
Mof_O 	O 	0.6642	0.5813	0.0854	-0.178
Mof_H 	H 	0.6805	0.652	0.1074	0.104
Mof_C 	C 	0.67408	0.55872	0.24466	0.335
Mof_C 	C 	0.64981	0.5945	0.22153	-0.031
Mof_C 	C 	0.6621	0.6063	0.1794	-0.095
Mof_H 	H 	0.6863	0.5921	0.1655	0.096
Mof_C 	C 	0.6629	0.6221	0.082	0.144
Mof_C 	C 	0.6965	0.6844	0.0369	0.018
Mof_C 	C 	0.6758	0.6435	0.0386	-0.026
Mof_O 	O 	0.79105	0.95516	0.72764	-0.374
Mof_O 	O 	0.84271	0.95502	0.77984	-0.38
Mof_O 	O 	0.8358	0.9187	0.5854	-0.166
Mof_H 	H 	0.8195	0.848	0.6074	0.105
Mof_C 	C 	0.82592	0.94128	0.74466	0.331
Mof_C 	C 	0.85019	0.9055	0.72153	-0.021
Mof_C 	C 	0.8379	0.8937	0.6794	-0.098
Mof_H 	H 	0.8137	0.9079	0.6655	0.1
Mof_C 	C 	0.8371	0.8779	0.582	0.146
Mof_C 	C 	0.8035	0.8156	0.5369	0.022
Mof_C 	C 	0.8242	0.8565	0.5386	-0.031
Mof_O 	O 	0.29105	0.45516	0.22764	-0.389
Mof_O 	O 	0.34271	0.45502	0.27984	-0.397
Mof_O 	O 	0.3358	0.4187	0.0854	-0.178
Mof_H 	H 	0.3195	0.348	0.1074	0.104
Mof_C 	C 	0.32592	0.44128	0.24466	0.335
Mof_C 	C 	0.35019	0.4055	0.22153	-0.03
Mof_C 	C 	0.3379	0.3937	0.1794	-0.095
Mof_H 	H 	0.3137	0.4079	0.1655	0.096
Mof_C 	C 	0.3371	0.3779	0.082	0.144
Mof_C 	C 	0.3035	0.3156	0.0369	0.018
Mof_C 	C 	0.3242	0.3565	0.0386	-0.026
Mof_O 	O 	0.20895	0.95516	0.27236	-0.375
Mof_O 	O 	0.15729	0.95502	0.22016	-0.386
Mof_O 	O 	0.1642	0.9187	0.4146	-0.17
Mof_H 	H 	0.1805	0.848	0.3926	0.105
Mof_C 	C 	0.17408	0.94128	0.25534	0.332
Mof_C 	C 	0.14981	0.9055	0.27847	-0.027
Mof_C 	C 	0.1621	0.8937	0.3206	-0.096
Mof_H 	H 	0.1863	0.9079	0.3345	0.099
Mof_C 	C 	0.1629	0.8779	0.418	0.145
Mof_C 	C 	0.1965	0.8156	0.4631	0.023
Mof_C 	C 	0.1758	0.8565	0.4614	-0.029
Mof_O 	O 	0.70895	0.45516	0.77236	-0.388
Mof_O 	O 	0.65729	0.45502	0.72016	-0.397
Mof_O 	O 	0.6642	0.4187	0.9146	-0.166
Mof_H 	H 	0.6805	0.348	0.8926	0.104
Mof_C 	C 	0.67408	0.44128	0.75534	0.334
Mof_C 	C 	0.64981	0.4055	0.77847	-0.03
Mof_C 	C 	0.6621	0.3937	0.8206	-0.095
Mof_H 	H 	0.6863	0.4079	0.8345	0.097
Mof_C 	C 	0.6629	0.3779	0.918	0.142
Mof_C 	C 	0.6965	0.3156	0.9631	0.029
Mof_C 	C 	0.6758	0.3565	0.9614	-0.006
Mof_O 	O 	0.79105	0.27236	0.95516	-0.374
Mof_O 	O 	0.84271	0.22016	0.95502	-0.381
Mof_O 	O 	0.8358	0.4146	0.9187	-0.166
Mof_H 	H 	0.8195	0.3926	0.848	0.105
Mof_C 	C 	0.82592	0.25534	0.94128	0.331
Mof_C 	C 	0.85019	0.27847	0.9055	-0.022
Mof_C 	C 	0.8379	0.3206	0.8937	-0.098
Mof_H 	H 	0.8137	0.3345	0.9079	0.1
Mof_C 	C 	0.8371	0.418	0.8779	0.146
Mof_C 	C 	0.8035	0.4631	0.8156	0.022
Mof_C 	C 	0.8242	0.4614	0.8565	-0.031
Mof_O 	O 	0.29105	0.77236	0.45516	-0.388
Mof_O 	O 	0.34271	0.72016	0.45502	-0.397
Mof_O 	O 	0.3358	0.9146	0.4187	-0.166
Mof_H 	H 	0.3195	0.8926	0.348	0.104
Mof_C 	C 	0.32592	0.75534	0.44128	0.335
Mof_C 	C 	0.35019	0.77847	0.4055	-0.029
Mof_C 	C 	0.3379	0.8206	0.3937	-0.095
Mof_H 	H 	0.3137	0.8345	0.4079	0.097
Mof_C 	C 	0.3371	0.918	0.3779	0.142
Mof_C 	C 	0.3035	0.9631	0.3156	0.029
Mof_C 	C 	0.3242	0.9614	0.3565	-0.006
Mof_O 	O 	0.20895	0.72764	0.95516	-0.375
Mof_O 	O 	0.15729	0.77984	0.95502	-0.384
Mof_O 	O 	0.1642	0.5854	0.9187	-0.17
Mof_H 	H 	0.1805	0.6074	0.848	0.105
Mof_C 	C 	0.17408	0.74466	0.94128	0.332
Mof_C 	C 	0.14981	0.72153	0.9055	-0.026
Mof_C 	C 	0.1621	0.6794	0.8937	-0.097
Mof_H 	H 	0.1863	0.6655	0.9079	0.099
Mof_C 	C 	0.1629	0.582	0.8779	0.145
Mof_C 	C 	0.1965	0.5369	0.8156	0.023
Mof_C 	C 	0.1758	0.5386	0.8565	-0.029
Mof_O 	O 	0.70895	0.22764	0.45516	-0.389
Mof_O 	O 	0.65729	0.27984	0.45502	-0.397
Mof_O 	O 	0.6642	0.0854	0.4187	-0.178
Mof_H 	H 	0.6805	0.1074	0.348	0.104
Mof_C 	C 	0.67408	0.24466	0.44128	0.335
Mof_C 	C 	0.64981	0.22153	0.4055	-0.03
Mof_C 	C 	0.6621	0.1794	0.3937	-0.095
Mof_H 	H 	0.6863	0.1655	0.4079	0.096
Mof_C 	C 	0.6629	0.082	0.3779	0.144
Mof_C 	C 	0.6965	0.0369	0.3156	0.018
Mof_C 	C 	0.6758	0.0386	0.3565	-0.026
Mof_O 	O 	0.79105	0.72764	0.04484	-0.394
Mof_O 	O 	0.84271	0.77984	0.04498	-0.401
Mof_O 	O 	0.8358	0.5854	0.0813	-0.181
Mof_H 	H 	0.8195	0.6074	0.152	0.104
Mof_C 	C 	0.82592	0.74466	0.05872	0.333
Mof_C 	C 	0.85019	0.72153	0.0945	-0.03
Mof_C 	C 	0.8379	0.6794	0.1063	-0.096
Mof_H 	H 	0.8137	0.6655	0.0921	0.095
Mof_C 	C 	0.8371	0.582	0.1221	0.149
Mof_C 	C 	0.8035	0.5369	0.1844	0.021
Mof_C 	C 	0.8242	0.5386	0.1435	-0.036
Mof_O 	O 	0.29105	0.22764	0.54484	-0.389
Mof_O 	O 	0.34271	0.27984	0.54498	-0.397
Mof_O 	O 	0.3358	0.0854	0.5813	-0.178
Mof_H 	H 	0.3195	0.1074	0.652	0.104
Mof_C 	C 	0.32592	0.24466	0.55872	0.335
Mof_C 	C 	0.35019	0.22153	0.5945	-0.03
Mof_C 	C 	0.3379	0.1794	0.6063	-0.095
Mof_H 	H 	0.3137	0.1655	0.5921	0.096
Mof_C 	C 	0.3371	0.082	0.6221	0.144
Mof_C 	C 	0.3035	0.0369	0.6844	0.018
Mof_C 	C 	0.3242	0.0386	0.6435	-0.026
Mof_O 	O 	0.20895	0.27236	0.04484	-0.395
Mof_O 	O 	0.15729	0.22016	0.04498	-0.408
Mof_O 	O 	0.1642	0.4146	0.0813	-0.184
Mof_H 	H 	0.1805	0.3926	0.152	0.104
Mof_C 	C 	0.17408	0.25534	0.05872	0.335
Mof_C 	C 	0.14981	0.27847	0.0945	-0.036
Mof_C 	C 	0.1621	0.3206	0.1063	-0.094
Mof_H 	H 	0.1863	0.3345	0.0921	0.094
Mof_C 	C 	0.1629	0.418	0.1221	0.147
Mof_C 	C 	0.1965	0.4631	0.1844	0.022
Mof_C 	C 	0.1758	0.4614	0.1435	-0.035
Mof_O 	O 	0.70895	0.77236	0.54484	-0.388
Mof_O 	O 	0.65729	0.72016	0.54498	-0.397
Mof_O 	O 	0.6642	0.9146	0.5813	-0.166
Mof_H 	H 	0.6805	0.8926	0.652	0.104
Mof_C 	C 	0.67408	0.75534	0.55872	0.334
Mof_C 	C 	0.64981	0.77847	0.5945	-0.03
Mof_C 	C 	0.6621	0.8206	0.6063	-0.095
Mof_H 	H 	0.6863	0.8345	0.5921	0.097
Mof_C 	C 	0.6629	0.918	0.6221	0.142
Mof_C 	C 	0.6965	0.9631	0.6844	0.029
Mof_C 	C 	0.6758	0.9614	0.6435	-0.006
Mof_O 	O 	0.27236	0.04484	0.20895	-0.395
Mof_O 	O 	0.22016	0.04498	0.15729	-0.408
Mof_O 	O 	0.4146	0.0813	0.1642	-0.184
Mof_H 	H 	0.3926	0.152	0.1805	0.104
Mof_C 	C 	0.25534	0.05872	0.17408	0.335
Mof_C 	C 	0.27847	0.0945	0.14981	-0.036
Mof_C 	C 	0.3206	0.1063	0.1621	-0.094
Mof_H 	H 	0.3345	0.0921	0.1863	0.094
Mof_C 	C 	0.418	0.1221	0.1629	0.147
Mof_C 	C 	0.4631	0.1844	0.1965	0.022
Mof_C 	C 	0.4614	0.1435	0.1758	-0.035
Mof_O 	O 	0.77236	0.54484	0.70895	-0.388
Mof_O 	O 	0.72016	0.54498	0.65729	-0.397
Mof_O 	O 	0.9146	0.5813	0.6642	-0.166
Mof_H 	H 	0.8926	0.652	0.6805	0.104
Mof_C 	C 	0.75534	0.55872	0.67408	0.334
Mof_C 	C 	0.77847	0.5945	0.64981	-0.03
Mof_C 	C 	0.8206	0.6063	0.6621	-0.095
Mof_H 	H 	0.8345	0.5921	0.6863	0.097
Mof_C 	C 	0.918	0.6221	0.6629	0.142
Mof_C 	C 	0.9631	0.6844	0.6965	0.029
Mof_C 	C 	0.9614	0.6435	0.6758	-0.006
Mof_O 	O 	0.72764	0.04484	0.79105	-0.394
Mof_O 	O 	0.77984	0.04498	0.84271	-0.401
Mof_O 	O 	0.5854	0.0813	0.8358	-0.181
Mof_H 	H 	0.6074	0.152	0.8195	0.104
Mof_C 	C 	0.74466	0.05872	0.82592	0.333
Mof_C 	C 	0.72153	0.0945	0.85019	-0.03
Mof_C 	C 	0.6794	0.1063	0.8379	-0.096
Mof_H 	H 	0.6655	0.0921	0.8137	0.095
Mof_C 	C 	0.582	0.1221	0.8371	0.149
Mof_C 	C 	0.5369	0.1844	0.8035	0.021
Mof_C 	C 	0.5386	0.1435	0.8242	-0.036
Mof_O 	O 	0.22764	0.54484	0.29105	-0.389
Mof_O 	O 	0.27984	0.54498	0.34271	-0.397
Mof_O 	O 	0.0854	0.5813	0.3358	-0.178
Mof_H 	H 	0.1074	0.652	0.3195	0.104
Mof_C 	C 	0.24466	0.55872	0.32592	0.335
Mof_C 	C 	0.22153	0.5945	0.35019	-0.03
Mof_C 	C 	0.1794	0.6063	0.3379	-0.095
Mof_H 	H 	0.1655	0.5921	0.3137	0.096
Mof_C 	C 	0.082	0.6221	0.3371	0.144
Mof_C 	C 	0.0369	0.6844	0.3035	0.018
Mof_C 	C 	0.0386	0.6435	0.3242	-0.026
Mof_O 	O 	0.72764	0.95516	0.20895	-0.375
Mof_O 	O 	0.77984	0.95502	0.15729	-0.384
Mof_O 	O 	0.5854	0.9187	0.1642	-0.17
Mof_H 	H 	0.6074	0.848	0.1805	0.105
Mof_C 	C 	0.74466	0.94128	0.17408	0.332
Mof_C 	C 	0.72153	0.9055	0.14981	-0.026
Mof_C 	C 	0.6794	0.8937	0.1621	-0.097
Mof_H 	H 	0.6655	0.9079	0.1863	0.099
Mof_C 	C 	0.582	0.8779	0.1629	0.145
Mof_C 	C 	0.5369	0.8156	0.1965	0.023
Mof_C 	C 	0.5386	0.8565	0.1758	-0.029
Mof_O 	O 	0.22764	0.45516	0.70895	-0.389
Mof_O 	O 	0.27984	0.45502	0.65729	-0.397
Mof_O 	O 	0.0854	0.4187	0.6642	-0.178
Mof_H 	H 	0.1074	0.348	0.6805	0.104
Mof_C 	C 	0.24466	0.44128	0.67408	0.335
Mof_C 	C 	0.22153	0.4055	0.64981	-0.03
Mof_C 	C 	0.1794	0.3937	0.6621	-0.095
Mof_H 	H 	0.1655	0.4079	0.6863	0.096
Mof_C 	C 	0.082	0.3779	0.6629	0.144
Mof_C 	C 	0.0369	0.3156	0.6965	0.018
Mof_C 	C 	0.0386	0.3565	0.6758	-0.026
Mof_O 	O 	0.27236	0.95516	0.79105	-0.374
Mof_O 	O 	0.22016	0.95502	0.84271	-0.381
Mof_O 	O 	0.4146	0.9187	0.8358	-0.166
Mof_H 	H 	0.3926	0.848	0.8195	0.105
Mof_C 	C 	0.25534	0.94128	0.82592	0.331
Mof_C 	C 	0.27847	0.9055	0.85019	-0.022
Mof_C 	C 	0.3206	0.8937	0.8379	-0.098
Mof_H 	H 	0.3345	0.9079	0.8137	0.1
Mof_C 	C 	0.418	0.8779	0.8371	0.146
Mof_C 	C 	0.4631	0.8156	0.8035	0.022
Mof_C 	C 	0.4614	0.8565	0.8242	-0.031
Mof_O 	O 	0.77236	0.45516	0.29105	-0.388
Mof_O 	O 	0.72016	0.45502	0.34271	-0.397
Mof_O 	O 	0.9146	0.4187	0.3358	-0.166
Mof_H 	H 	0.8926	0.348	0.3195	0.104
Mof_C 	C 	0.75534	0.44128	0.32592	0.335
Mof_C 	C 	0.77847	0.4055	0.35019	-0.029
Mof_C 	C 	0.8206	0.3937	0.3379	-0.095
Mof_H 	H 	0.8345	0.4079	0.3137	0.097
Mof_C 	C 	0.918	0.3779	0.3371	0.142
Mof_C 	C 	0.9631	0.3156	0.3035	0.029
Mof_C 	C 	0.9614	0.3565	0.3242	-0.006
Mof_O 	O 	0.04484	0.79105	0.72764	-0.394
Mof_O 	O 	0.04498	0.84271	0.77984	-0.401
Mof_O 	O 	0.0813	0.8358	0.5854	-0.181
Mof_H 	H 	0.152	0.8195	0.6074	0.104
Mof_C 	C 	0.05872	0.82592	0.74466	0.333
Mof_C 	C 	0.0945	0.85019	0.72153	-0.03
Mof_C 	C 	0.1063	0.8379	0.6794	-0.096
Mof_H 	H 	0.0921	0.8137	0.6655	0.095
Mof_C 	C 	0.1221	0.8371	0.582	0.149
Mof_C 	C 	0.1844	0.8035	0.5369	0.021
Mof_C 	C 	0.1435	0.8242	0.5386	-0.036
Mof_O 	O 	0.54484	0.29105	0.22764	-0.389
Mof_O 	O 	0.54498	0.34271	0.27984	-0.397
Mof_O 	O 	0.5813	0.3358	0.0854	-0.178
Mof_H 	H 	0.652	0.3195	0.1074	0.104
Mof_C 	C 	0.55872	0.32592	0.24466	0.335
Mof_C 	C 	0.5945	0.35019	0.22153	-0.03
Mof_C 	C 	0.6063	0.3379	0.1794	-0.095
Mof_H 	H 	0.5921	0.3137	0.1655	0.096
Mof_C 	C 	0.6221	0.3371	0.082	0.144
Mof_C 	C 	0.6844	0.3035	0.0369	0.018
Mof_C 	C 	0.6435	0.3242	0.0386	-0.026
Mof_O 	O 	0.04484	0.20895	0.27236	-0.395
Mof_O 	O 	0.04498	0.15729	0.22016	-0.408
Mof_O 	O 	0.0813	0.1642	0.4146	-0.184
Mof_H 	H 	0.152	0.1805	0.3926	0.104
Mof_C 	C 	0.05872	0.17408	0.25534	0.335
Mof_C 	C 	0.0945	0.14981	0.27847	-0.036
Mof_C 	C 	0.1063	0.1621	0.3206	-0.094
Mof_H 	H 	0.0921	0.1863	0.3345	0.094
Mof_C 	C 	0.1221	0.1629	0.418	0.147
Mof_C 	C 	0.1844	0.1965	0.4631	0.022
Mof_C 	C 	0.1435	0.1758	0.4614	-0.035
Mof_O 	O 	0.54484	0.70895	0.77236	-0.388
Mof_O 	O 	0.54498	0.65729	0.72016	-0.397
Mof_O 	O 	0.5813	0.6642	0.9146	-0.166
Mof_H 	H 	0.652	0.6805	0.8926	0.104
Mof_C 	C 	0.55872	0.67408	0.75534	0.334
Mof_C 	C 	0.5945	0.64981	0.77847	-0.03
Mof_C 	C 	0.6063	0.6621	0.8206	-0.095
Mof_H 	H 	0.5921	0.6863	0.8345	0.097
Mof_C 	C 	0.6221	0.6629	0.918	0.142
Mof_C 	C 	0.6844	0.6965	0.9631	0.029
Mof_C 	C 	0.6435	0.6758	0.9614	-0.006
Mof_O 	O 	0.95516	0.79105	0.27236	-0.374
Mof_O 	O 	0.95502	0.84271	0.22016	-0.381
Mof_O 	O 	0.9187	0.8358	0.4146	-0.166
Mof_H 	H 	0.848	0.8195	0.3926	0.105
Mof_C 	C 	0.94128	0.82592	0.25534	0.331
Mof_C 	C 	0.9055	0.85019	0.27847	-0.022
Mof_C 	C 	0.8937	0.8379	0.3206	-0.098
Mof_H 	H 	0.9079	0.8137	0.3345	0.1
Mof_C 	C 	0.8779	0.8371	0.418	0.146
Mof_C 	C 	0.8156	0.8035	0.4631	0.022
Mof_C 	C 	0.8565	0.8242	0.4614	-0.031
Mof_O 	O 	0.45516	0.29105	0.77236	-0.388
Mof_O 	O 	0.45502	0.34271	0.72016	-0.397
Mof_O 	O 	0.4187	0.3358	0.9146	-0.166
Mof_H 	H 	0.348	0.3195	0.8926	0.104
Mof_C 	C 	0.44128	0.32592	0.75534	0.335
Mof_C 	C 	0.4055	0.35019	0.77847	-0.029
Mof_C 	C 	0.3937	0.3379	0.8206	-0.095
Mof_H 	H 	0.4079	0.3137	0.8345	0.097
Mof_C 	C 	0.3779	0.3371	0.918	0.142
Mof_C 	C 	0.3156	0.3035	0.9631	0.029
Mof_C 	C 	0.3565	0.3242	0.9614	-0.006
Mof_O 	O 	0.95516	0.20895	0.72764	-0.375
Mof_O 	O 	0.95502	0.15729	0.77984	-0.384
Mof_O 	O 	0.9187	0.1642	0.5854	-0.17
Mof_H 	H 	0.848	0.1805	0.6074	0.105
Mof_C 	C 	0.94128	0.17408	0.74466	0.332
Mof_C 	C 	0.9055	0.14981	0.72153	-0.026
Mof_C 	C 	0.8937	0.1621	0.6794	-0.097
Mof_H 	H 	0.9079	0.1863	0.6655	0.099
Mof_C 	C 	0.8779	0.1629	0.582	0.145
Mof_C 	C 	0.8156	0.1965	0.5369	0.023
Mof_C 	C 	0.8565	0.1758	0.5386	-0.029
Mof_O 	O 	0.45516	0.70895	0.22764	-0.389
Mof_O 	O 	0.45502	0.65729	0.27984	-0.397
Mof_O 	O 	0.4187	0.6642	0.0854	-0.178
Mof_H 	H 	0.348	0.6805	0.1074	0.104
Mof_C 	C 	0.44128	0.67408	0.24466	0.335
Mof_C 	C 	0.4055	0.64981	0.22153	-0.03
Mof_C 	C 	0.3937	0.6621	0.1794	-0.095
Mof_H 	H 	0.4079	0.6863	0.1655	0.096
Mof_C 	C 	0.3779	0.6629	0.082	0.144
Mof_C 	C 	0.3156	0.6965	0.0369	0.018
Mof_C 	C 	0.3565	0.6758	0.0386	-0.026
Mof_O 	O 	0.72764	0.20895	0.95516	-0.375
Mof_O 	O 	0.77984	0.15729	0.95502	-0.384
Mof_O 	O 	0.5854	0.1642	0.9187	-0.17
Mof_H 	H 	0.6074	0.1805	0.848	0.105
Mof_C 	C 	0.74466	0.17408	0.94128	0.332
Mof_C 	C 	0.72153	0.14981	0.9055	-0.026
Mof_C 	C 	0.6794	0.1621	0.8937	-0.097
Mof_H 	H 	0.6655	0.1863	0.9079	0.099
Mof_C 	C 	0.582	0.1629	0.8779	0.145
Mof_C 	C 	0.5369	0.1965	0.8156	0.023
Mof_C 	C 	0.5386	0.1758	0.8565	-0.029
Mof_O 	O 	0.22764	0.70895	0.45516	-0.389
Mof_O 	O 	0.27984	0.65729	0.45502	-0.397
Mof_O 	O 	0.0854	0.6642	0.4187	-0.178
Mof_H 	H 	0.1074	0.6805	0.348	0.104
Mof_C 	C 	0.24466	0.67408	0.44128	0.335
Mof_C 	C 	0.22153	0.64981	0.4055	-0.03
Mof_C 	C 	0.1794	0.6621	0.3937	-0.095
Mof_H 	H 	0.1655	0.6863	0.4079	0.096
Mof_C 	C 	0.082	0.6629	0.3779	0.144
Mof_C 	C 	0.0369	0.6965	0.3156	0.018
Mof_C 	C 	0.0386	0.6758	0.3565	-0.026
Mof_O 	O 	0.27236	0.79105	0.95516	-0.374
Mof_O 	O 	0.22016	0.84271	0.95502	-0.381
Mof_O 	O 	0.4146	0.8358	0.9187	-0.166
Mof_H 	H 	0.3926	0.8195	0.848	0.105
Mof_C 	C 	0.25534	0.82592	0.94128	0.331
Mof_C 	C 	0.27847	0.85019	0.9055	-0.022
Mof_C 	C 	0.3206	0.8379	0.8937	-0.098
Mof_H 	H 	0.3345	0.8137	0.9079	0.1
Mof_C 	C 	0.418	0.8371	0.8779	0.146
Mof_C 	C 	0.4631	0.8035	0.8156	0.022
Mof_C 	C 	0.4614	0.8242	0.8565	-0.031
Mof_O 	O 	0.77236	0.29105	0.45516	-0.388
Mof_O 	O 	0.72016	0.34271	0.45502	-0.397
Mof_O 	O 	0.9146	0.3358	0.4187	-0.166
Mof_H 	H 	0.8926	0.3195	0.348	0.104
Mof_C 	C 	0.75534	0.32592	0.44128	0.335
Mof_C 	C 	0.77847	0.35019	0.4055	-0.029
Mof_C 	C 	0.8206	0.3379	0.3937	-0.095
Mof_H 	H 	0.8345	0.3137	0.4079	0.097
Mof_C 	C 	0.918	0.3371	0.3779	0.142
Mof_C 	C 	0.9631	0.3035	0.3156	0.029
Mof_C 	C 	0.9614	0.3242	0.3565	-0.006
Mof_O 	O 	0.27236	0.20895	0.04484	-0.395
Mof_O 	O 	0.22016	0.15729	0.04498	-0.408
Mof_O 	O 	0.4146	0.1642	0.0813	-0.184
Mof_H 	H 	0.3926	0.1805	0.152	0.104
Mof_C 	C 	0.25534	0.17408	0.05872	0.335
Mof_C 	C 	0.27847	0.14981	0.0945	-0.036
Mof_C 	C 	0.3206	0.1621	0.1063	-0.094
Mof_H 	H 	0.3345	0.1863	0.0921	0.094
Mof_C 	C 	0.418	0.1629	0.1221	0.147
Mof_C 	C 	0.4631	0.1965	0.1844	0.022
Mof_C 	C 	0.4614	0.1758	0.1435	-0.035
Mof_O 	O 	0.77236	0.70895	0.54484	-0.388
Mof_O 	O 	0.72016	0.65729	0.54498	-0.397
Mof_O 	O 	0.9146	0.6642	0.5813	-0.166
Mof_H 	H 	0.8926	0.6805	0.652	0.104
Mof_C 	C 	0.75534	0.67408	0.55872	0.334
Mof_C 	C 	0.77847	0.64981	0.5945	-0.03
Mof_C 	C 	0.8206	0.6621	0.6063	-0.095
Mof_H 	H 	0.8345	0.6863	0.5921	0.097
Mof_C 	C 	0.918	0.6629	0.6221	0.142
Mof_C 	C 	0.9631	0.6965	0.6844	0.029
Mof_C 	C 	0.9614	0.6758	0.6435	-0.006
Mof_O 	O 	0.72764	0.79105	0.04484	-0.394
Mof_O 	O 	0.77984	0.84271	0.04498	-0.401
Mof_O 	O 	0.5854	0.8358	0.0813	-0.181
Mof_H 	H 	0.6074	0.8195	0.152	0.104
Mof_C 	C 	0.74466	0.82592	0.05872	0.333
Mof_C 	C 	0.72153	0.85019	0.0945	-0.03
Mof_C 	C 	0.6794	0.8379	0.1063	-0.096
Mof_H 	H 	0.6655	0.8137	0.0921	0.095
Mof_C 	C 	0.582	0.8371	0.1221	0.149
Mof_C 	C 	0.5369	0.8035	0.1844	0.021
Mof_C 	C 	0.5386	0.8242	0.1435	-0.036
Mof_O 	O 	0.22764	0.29105	0.54484	-0.389
Mof_O 	O 	0.27984	0.34271	0.54498	-0.397
Mof_O 	O 	0.0854	0.3358	0.5813	-0.178
Mof_H 	H 	0.1074	0.3195	0.652	0.104
Mof_C 	C 	0.24466	0.32592	0.55872	0.335
Mof_C 	C 	0.22153	0.35019	0.5945	-0.03
Mof_C 	C 	0.1794	0.3379	0.6063	-0.095
Mof_H 	H 	0.1655	0.3137	0.5921	0.096
Mof_C 	C 	0.082	0.3371	0.6221	0.144
Mof_C 	C 	0.0369	0.3035	0.6844	0.018
Mof_C 	C 	0.0386	0.3242	0.6435	-0.026
Mof_O 	O 	0.95516	0.72764	0.20895	-0.375
Mof_O 	O 	0.95502	0.77984	0.15729	-0.384
Mof_O 	O 	0.9187	0.5854	0.1642	-0.17
Mof_H 	H 	0.848	0.6074	0.1805	0.105
Mof_C 	C 	0.94128	0.74466	0.17408	0.332
Mof_C 	C 	0.9055	0.72153	0.14981	-0.026
Mof_C 	C 	0.8937	0.6794	0.1621	-0.097
Mof_H 	H 	0.9079	0.6655	0.1863	0.099
Mof_C 	C 	0.8779	0.582	0.1629	0.145
Mof_C 	C 	0.8156	0.5369	0.1965	0.023
Mof_C 	C 	0.8565	0.5386	0.1758	-0.029
Mof_O 	O 	0.45516	0.22764	0.70895	-0.389
Mof_O 	O 	0.45502	0.27984	0.65729	-0.397
Mof_O 	O 	0.4187	0.0854	0.6642	-0.178
Mof_H 	H 	0.348	0.1074	0.6805	0.104
Mof_C 	C 	0.44128	0.24466	0.67408	0.335
Mof_C 	C 	0.4055	0.22153	0.64981	-0.03
Mof_C 	C 	0.3937	0.1794	0.6621	-0.095
Mof_H 	H 	0.4079	0.1655	0.6863	0.096
Mof_C 	C 	0.3779	0.082	0.6629	0.144
Mof_C 	C 	0.3156	0.0369	0.6965	0.018
Mof_C 	C 	0.3565	0.0386	0.6758	-0.026
Mof_O 	O 	0.95516	0.27236	0.79105	-0.374
Mof_O 	O 	0.95502	0.22016	0.84271	-0.381
Mof_O 	O 	0.9187	0.4146	0.8358	-0.166
Mof_H 	H 	0.848	0.3926	0.8195	0.105
Mof_C 	C 	0.94128	0.25534	0.82592	0.331
Mof_C 	C 	0.9055	0.27847	0.85019	-0.022
Mof_C 	C 	0.8937	0.3206	0.8379	-0.098
Mof_H 	H 	0.9079	0.3345	0.8137	0.1
Mof_C 	C 	0.8779	0.418	0.8371	0.146
Mof_C 	C 	0.8156	0.4631	0.8035	0.022
Mof_C 	C 	0.8565	0.4614	0.8242	-0.031
Mof_O 	O 	0.45516	0.77236	0.29105	-0.388
Mof_O 	O 	0.45502	0.72016	0.34271	-0.397
Mof_O 	O 	0.4187	0.9146	0.3358	-0.166
Mof_H 	H 	0.348	0.8926	0.3195	0.104
Mof_C 	C 	0.44128	0.75534	0.32592	0.335
Mof_C 	C 	0.4055	0.77847	0.35019	-0.029
Mof_C 	C 	0.3937	0.8206	0.3379	-0.095
Mof_H 	H 	0.4079	0.8345	0.3137	0.097
Mof_C 	C 	0.3779	0.918	0.3371	0.142
Mof_C 	C 	0.3156	0.9631	0.3035	0.029
Mof_C 	C 	0.3565	0.9614	0.3242	-0.006
Mof_O 	O 	0.04484	0.27236	0.20895	-0.395
Mof_O 	O 	0.04498	0.22016	0.15729	-0.408
Mof_O 	O 	0.0813	0.4146	0.1642	-0.184
Mof_H 	H 	0.152	0.3926	0.1805	0.104
Mof_C 	C 	0.05872	0.25534	0.17408	0.335
Mof_C 	C 	0.0945	0.27847	0.14981	-0.036
Mof_C 	C 	0.1063	0.3206	0.1621	-0.094
Mof_H 	H 	0.0921	0.3345	0.1863	0.094
Mof_C 	C 	0.1221	0.418	0.1629	0.147
Mof_C 	C 	0.1844	0.4631	0.1965	0.022
Mof_C 	C 	0.1435	0.4614	0.1758	-0.035
Mof_O 	O 	0.54484	0.77236	0.70895	-0.388
Mof_O 	O 	0.54498	0.72016	0.65729	-0.397
Mof_O 	O 	0.5813	0.9146	0.6642	-0.166
Mof_H 	H 	0.652	0.8926	0.6805	0.104
Mof_C 	C 	0.55872	0.75534	0.67408	0.334
Mof_C 	C 	0.5945	0.77847	0.64981	-0.03
Mof_C 	C 	0.6063	0.8206	0.6621	-0.095
Mof_H 	H 	0.5921	0.8345	0.6863	0.097
Mof_C 	C 	0.6221	0.918	0.6629	0.142
Mof_C 	C 	0.6844	0.9631	0.6965	0.029
Mof_C 	C 	0.6435	0.9614	0.6758	-0.006
Mof_O 	O 	0.04484	0.72764	0.79105	-0.394
Mof_O 	O 	0.04498	0.77984	0.84271	-0.401
Mof_O 	O 	0.0813	0.5854	0.8358	-0.181
Mof_H 	H 	0.152	0.6074	0.8195	0.104
Mof_C 	C 	0.05872	0.74466	0.82592	0.333
Mof_C 	C 	0.0945	0.72153	0.85019	-0.03
Mof_C 	C 	0.1063	0.6794	0.8379	-0.096
Mof_H 	H 	0.0921	0.6655	0.8137	0.095
Mof_C 	C 	0.1221	0.582	0.8371	0.149
Mof_C 	C 	0.1844	0.5369	0.8035	0.021
Mof_C 	C 	0.1435	0.5386	0.8242	-0.036
Mof_O 	O 	0.54484	0.22764	0.29105	-0.389
Mof_O 	O 	0.54498	0.27984	0.34271	-0.397
Mof_O 	O 	0.5813	0.0854	0.3358	-0.178
Mof_H 	H 	0.652	0.1074	0.3195	0.104
Mof_C 	C 	0.55872	0.24466	0.32592	0.335
Mof_C 	C 	0.5945	0.22153	0.35019	-0.03
Mof_C 	C 	0.6063	0.1794	0.3379	-0.095
Mof_H 	H 	0.5921	0.1655	0.3137	0.096
Mof_C 	C 	0.6221	0.082	0.3371	0.144
Mof_C 	C 	0.6844	0.0369	0.3035	0.018
Mof_C 	C 	0.6435	0.0386	0.3242	-0.026
Mof_O 	O 	0.20895	0.95516	0.72764	-0.375
Mof_O 	O 	0.15729	0.95502	0.77984	-0.384
Mof_O 	O 	0.1642	0.9187	0.5854	-0.17
Mof_H 	H 	0.1805	0.848	0.6074	0.105
Mof_C 	C 	0.17408	0.94128	0.74466	0.332
Mof_C 	C 	0.14981	0.9055	0.72153	-0.026
Mof_C 	C 	0.1621	0.8937	0.6794	-0.097
Mof_H 	H 	0.1863	0.9079	0.6655	0.099
Mof_C 	C 	0.1629	0.8779	0.582	0.145
Mof_C 	C 	0.1965	0.8156	0.5369	0.023
Mof_C 	C 	0.1758	0.8565	0.5386	-0.029
Mof_O 	O 	0.70895	0.45516	0.22764	-0.389
Mof_O 	O 	0.65729	0.45502	0.27984	-0.397
Mof_O 	O 	0.6642	0.4187	0.0854	-0.178
Mof_H 	H 	0.6805	0.348	0.1074	0.104
Mof_C 	C 	0.67408	0.44128	0.24466	0.335
Mof_C 	C 	0.64981	0.4055	0.22153	-0.03
Mof_C 	C 	0.6621	0.3937	0.1794	-0.095
Mof_H 	H 	0.6863	0.4079	0.1655	0.096
Mof_C 	C 	0.6629	0.3779	0.082	0.144
Mof_C 	C 	0.6965	0.3156	0.0369	0.018
Mof_C 	C 	0.6758	0.3565	0.0386	-0.026
Mof_O 	O 	0.79105	0.95516	0.27236	-0.374
Mof_O 	O 	0.84271	0.95502	0.22016	-0.381
Mof_O 	O 	0.8358	0.9187	0.4146	-0.166
Mof_H 	H 	0.8195	0.848	0.3926	0.105
Mof_C 	C 	0.82592	0.94128	0.25534	0.331
Mof_C 	C 	0.85019	0.9055	0.27847	-0.022
Mof_C 	C 	0.8379	0.8937	0.3206	-0.098
Mof_H 	H 	0.8137	0.9079	0.3345	0.1
Mof_C 	C 	0.8371	0.8779	0.418	0.146
Mof_C 	C 	0.8035	0.8156	0.4631	0.022
Mof_C 	C 	0.8242	0.8565	0.4614	-0.031
Mof_O 	O 	0.29105	0.45516	0.77236	-0.388
Mof_O 	O 	0.34271	0.45502	0.72016	-0.397
Mof_O 	O 	0.3358	0.4187	0.9146	-0.166
Mof_H 	H 	0.3195	0.348	0.8926	0.104
Mof_C 	C 	0.32592	0.44128	0.75534	0.335
Mof_C 	C 	0.35019	0.4055	0.77847	-0.029
Mof_C 	C 	0.3379	0.3937	0.8206	-0.095
Mof_H 	H 	0.3137	0.4079	0.8345	0.097
Mof_C 	C 	0.3371	0.3779	0.918	0.142
Mof_C 	C 	0.3035	0.3156	0.9631	0.029
Mof_C 	C 	0.3242	0.3565	0.9614	-0.006
Mof_O 	O 	0.20895	0.04484	0.27236	-0.395
Mof_O 	O 	0.15729	0.04498	0.22016	-0.408
Mof_O 	O 	0.1642	0.0813	0.4146	-0.184
Mof_H 	H 	0.1805	0.152	0.3926	0.104
Mof_C 	C 	0.17408	0.05872	0.25534	0.335
Mof_C 	C 	0.14981	0.0945	0.27847	-0.036
Mof_C 	C 	0.1621	0.1063	0.3206	-0.094
Mof_H 	H 	0.1863	0.0921	0.3345	0.094
Mof_C 	C 	0.1629	0.1221	0.418	0.147
Mof_C 	C 	0.1965	0.1844	0.4631	0.022
Mof_C 	C 	0.1758	0.1435	0.4614	-0.035
Mof_O 	O 	0.70895	0.54484	0.77236	-0.388
Mof_O 	O 	0.65729	0.54498	0.72016	-0.397
Mof_O 	O 	0.6642	0.5813	0.9146	-0.166
Mof_H 	H 	0.6805	0.652	0.8926	0.104
Mof_C 	C 	0.67408	0.55872	0.75534	0.334
Mof_C 	C 	0.64981	0.5945	0.77847	-0.03
Mof_C 	C 	0.6621	0.6063	0.8206	-0.095
Mof_H 	H 	0.6863	0.5921	0.8345	0.097
Mof_C 	C 	0.6629	0.6221	0.918	0.142
Mof_C 	C 	0.6965	0.6844	0.9631	0.029
Mof_C 	C 	0.6758	0.6435	0.9614	-0.006
Mof_O 	O 	0.79105	0.04484	0.72764	-0.394
Mof_O 	O 	0.84271	0.04498	0.77984	-0.401
Mof_O 	O 	0.8358	0.0813	0.5854	-0.181
Mof_H 	H 	0.8195	0.152	0.6074	0.104
Mof_C 	C 	0.82592	0.05872	0.74466	0.333
Mof_C 	C 	0.85019	0.0945	0.72153	-0.03
Mof_C 	C 	0.8379	0.1063	0.6794	-0.096
Mof_H 	H 	0.8137	0.0921	0.6655	0.095
Mof_C 	C 	0.8371	0.1221	0.582	0.149
Mof_C 	C 	0.8035	0.1844	0.5369	0.021
Mof_C 	C 	0.8242	0.1435	0.5386	-0.036
Mof_O 	O 	0.29105	0.54484	0.22764	-0.389
Mof_O 	O 	0.34271	0.54498	0.27984	-0.397
Mof_O 	O 	0.3358	0.5813	0.0854	-0.178
Mof_H 	H 	0.3195	0.652	0.1074	0.104
Mof_C 	C 	0.32592	0.55872	0.24466	0.335
Mof_C 	C 	0.35019	0.5945	0.22153	-0.03
Mof_C 	C 	0.3379	0.6063	0.1794	-0.095
Mof_H 	H 	0.3137	0.5921	0.1655	0.096
Mof_C 	C 	0.3371	0.6221	0.082	0.144
Mof_C 	C 	0.3035	0.6844	0.0369	0.018
Mof_C 	C 	0.3242	0.6435	0.0386	-0.026
Mof_O 	O 	0.20895	0.72764	0.04484	-0.395
Mof_O 	O 	0.15729	0.77984	0.04498	-0.406
Mof_O 	O 	0.1642	0.5854	0.0813	-0.184
Mof_H 	H 	0.1805	0.6074	0.152	0.104
Mof_C 	C 	0.17408	0.74466	0.05872	0.334
Mof_C 	C 	0.14981	0.72153	0.0945	-0.035
Mof_C 	C 	0.1621	0.6794	0.1063	-0.095
Mof_H 	H 	0.1863	0.6655	0.0921	0.094
Mof_C 	C 	0.1629	0.582	0.1221	0.147
Mof_C 	C 	0.1965	0.5369	0.1844	0.022
Mof_C 	C 	0.1758	0.5386	0.1435	-0.035
Mof_O 	O 	0.70895	0.22764	0.54484	-0.389
Mof_O 	O 	0.65729	0.27984	0.54498	-0.397
Mof_O 	O 	0.6642	0.0854	0.5813	-0.178
Mof_H 	H 	0.6805	0.1074	0.652	0.104
Mof_C 	C 	0.67408	0.24466	0.55872	0.335
Mof_C 	C 	0.64981	0.22153	0.5945	-0.031
Mof_C 	C 	0.6621	0.1794	0.6063	-0.095
Mof_H 	H 	0.6863	0.1655	0.5921	0.096
Mof_C 	C 	0.6629	0.082	0.6221	0.144
Mof_C 	C 	0.6965	0.0369	0.6844	0.018
Mof_C 	C 	0.6758	0.0386	0.6435	-0.026
Mof_O 	O 	0.79105	0.27236	0.04484	-0.394
Mof_O 	O 	0.84271	0.22016	0.04498	-0.403
Mof_O 	O 	0.8358	0.4146	0.0813	-0.181
Mof_H 	H 	0.8195	0.3926	0.152	0.104
Mof_C 	C 	0.82592	0.25534	0.05872	0.334
Mof_C 	C 	0.85019	0.27847	0.0945	-0.031
Mof_C 	C 	0.8379	0.3206	0.1063	-0.096
Mof_H 	H 	0.8137	0.3345	0.0921	0.095
Mof_C 	C 	0.8371	0.418	0.1221	0.149
Mof_C 	C 	0.8035	0.4631	0.1844	0.021
Mof_C 	C 	0.8242	0.4614	0.1435	-0.036
Mof_O 	O 	0.29105	0.77236	0.54484	-0.388
Mof_O 	O 	0.34271	0.72016	0.54498	-0.397
Mof_O 	O 	0.3358	0.9146	0.5813	-0.166
Mof_H 	H 	0.3195	0.8926	0.652	0.104
Mof_C 	C 	0.32592	0.75534	0.55872	0.335
Mof_C 	C 	0.35019	0.77847	0.5945	-0.029
Mof_C 	C 	0.3379	0.8206	0.6063	-0.095
Mof_H 	H 	0.3137	0.8345	0.5921	0.097
Mof_C 	C 	0.3371	0.918	0.6221	0.143
Mof_C 	C 	0.3035	0.9631	0.6844	0.029
Mof_C 	C 	0.3242	0.9614	0.6435	-0.006
Mof_O 	O 	0.20895	0.27236	0.95516	-0.375
Mof_O 	O 	0.15729	0.22016	0.95502	-0.386
Mof_O 	O 	0.1642	0.4146	0.9187	-0.17
Mof_H 	H 	0.1805	0.3926	0.848	0.105
Mof_C 	C 	0.17408	0.25534	0.94128	0.332
Mof_C 	C 	0.14981	0.27847	0.9055	-0.027
Mof_C 	C 	0.1621	0.3206	0.8937	-0.096
Mof_H 	H 	0.1863	0.3345	0.9079	0.099
Mof_C 	C 	0.1629	0.418	0.8779	0.145
Mof_C 	C 	0.1965	0.4631	0.8156	0.023
Mof_C 	C 	0.1758	0.4614	0.8565	-0.029
Mof_O 	O 	0.70895	0.77236	0.45516	-0.388
Mof_O 	O 	0.65729	0.72016	0.45502	-0.397
Mof_O 	O 	0.6642	0.9146	0.4187	-0.166
Mof_H 	H 	0.6805	0.8926	0.348	0.104
Mof_C 	C 	0.67408	0.75534	0.44128	0.334
Mof_C 	C 	0.64981	0.77847	0.4055	-0.03
Mof_C 	C 	0.6621	0.8206	0.3937	-0.095
Mof_H 	H 	0.6863	0.8345	0.4079	0.097
Mof_C 	C 	0.6629	0.918	0.3779	0.142
Mof_C 	C 	0.6965	0.9631	0.3156	0.029
Mof_C 	C 	0.6758	0.9614	0.3565	-0.006
Mof_O 	O 	0.79105	0.72764	0.95516	-0.374
Mof_O 	O 	0.84271	0.77984	0.95502	-0.38
Mof_O 	O 	0.8358	0.5854	0.9187	-0.166
Mof_H 	H 	0.8195	0.6074	0.848	0.105
Mof_C 	C 	0.82592	0.74466	0.94128	0.331
Mof_C 	C 	0.85019	0.72153	0.9055	-0.021
Mof_C 	C 	0.8379	0.6794	0.8937	-0.098
Mof_H 	H 	0.8137	0.6655	0.9079	0.1
Mof_C 	C 	0.8371	0.582	0.8779	0.146
Mof_C 	C 	0.8035	0.5369	0.8156	0.022
Mof_C 	C 	0.8242	0.5386	0.8565	-0.031
Mof_O 	O 	0.29105	0.22764	0.45516	-0.389
Mof_O 	O 	0.34271	0.27984	0.45502	-0.397
Mof_O 	O 	0.3358	0.0854	0.4187	-0.178
Mof_H 	H 	0.3195	0.1074	0.348	0.104
Mof_C 	C 	0.32592	0.24466	0.44128	0.335
Mof_C 	C 	0.35019	0.22153	0.4055	-0.03
Mof_C 	C 	0.3379	0.1794	0.3937	-0.095
Mof_H 	H 	0.3137	0.1655	0.4079	0.096
Mof_C 	C 	0.3371	0.082	0.3779	0.144
Mof_C 	C 	0.3035	0.0369	0.3156	0.018
Mof_C 	C 	0.3242	0.0386	0.3565	-0.026
Mof_O 	O 	0.72764	0.95516	0.79105	-0.374
Mof_O 	O 	0.77984	0.95502	0.84271	-0.38
Mof_O 	O 	0.5854	0.9187	0.8358	-0.166
Mof_H 	H 	0.6074	0.848	0.8195	0.105
Mof_C 	C 	0.74466	0.94128	0.82592	0.331
Mof_C 	C 	0.72153	0.9055	0.85019	-0.021
Mof_C 	C 	0.6794	0.8937	0.8379	-0.098
Mof_H 	H 	0.6655	0.9079	0.8137	0.1
Mof_C 	C 	0.582	0.8779	0.8371	0.146
Mof_C 	C 	0.5369	0.8156	0.8035	0.022
Mof_C 	C 	0.5386	0.8565	0.8242	-0.031
Mof_O 	O 	0.22764	0.45516	0.29105	-0.389
Mof_O 	O 	0.27984	0.45502	0.34271	-0.397
Mof_O 	O 	0.0854	0.4187	0.3358	-0.178
Mof_H 	H 	0.1074	0.348	0.3195	0.104
Mof_C 	C 	0.24466	0.44128	0.32592	0.335
Mof_C 	C 	0.22153	0.4055	0.35019	-0.03
Mof_C 	C 	0.1794	0.3937	0.3379	-0.095
Mof_H 	H 	0.1655	0.4079	0.3137	0.096
Mof_C 	C 	0.082	0.3779	0.3371	0.144
Mof_C 	C 	0.0369	0.3156	0.3035	0.018
Mof_C 	C 	0.0386	0.3565	0.3242	-0.026
Mof_O 	O 	0.27236	0.95516	0.20895	-0.375
Mof_O 	O 	0.22016	0.95502	0.15729	-0.386
Mof_O 	O 	0.4146	0.9187	0.1642	-0.17
Mof_H 	H 	0.3926	0.848	0.1805	0.105
Mof_C 	C 	0.25534	0.94128	0.17408	0.332
Mof_C 	C 	0.27847	0.9055	0.14981	-0.027
Mof_C 	C 	0.3206	0.8937	0.1621	-0.096
Mof_H 	H 	0.3345	0.9079	0.1863	0.099
Mof_C 	C 	0.418	0.8779	0.1629	0.145
Mof_C 	C 	0.4631	0.8156	0.1965	0.023
Mof_C 	C 	0.4614	0.8565	0.1758	-0.029
Mof_O 	O 	0.77236	0.45516	0.70895	-0.388
Mof_O 	O 	0.72016	0.45502	0.65729	-0.397
Mof_O 	O 	0.9146	0.4187	0.6642	-0.166
Mof_H 	H 	0.8926	0.348	0.6805	0.104
Mof_C 	C 	0.75534	0.44128	0.67408	0.334
Mof_C 	C 	0.77847	0.4055	0.64981	-0.03
Mof_C 	C 	0.8206	0.3937	0.6621	-0.095
Mof_H 	H 	0.8345	0.4079	0.6863	0.097
Mof_C 	C 	0.918	0.3779	0.6629	0.142
Mof_C 	C 	0.9631	0.3156	0.6965	0.029
Mof_C 	C 	0.9614	0.3565	0.6758	-0.006
Mof_O 	O 	0.27236	0.04484	0.79105	-0.394
Mof_O 	O 	0.22016	0.04498	0.84271	-0.403
Mof_O 	O 	0.4146	0.0813	0.8358	-0.181
Mof_H 	H 	0.3926	0.152	0.8195	0.104
Mof_C 	C 	0.25534	0.05872	0.82592	0.334
Mof_C 	C 	0.27847	0.0945	0.85019	-0.031
Mof_C 	C 	0.3206	0.1063	0.8379	-0.096
Mof_H 	H 	0.3345	0.0921	0.8137	0.095
Mof_C 	C 	0.418	0.1221	0.8371	0.149
Mof_C 	C 	0.4631	0.1844	0.8035	0.021
Mof_C 	C 	0.4614	0.1435	0.8242	-0.036
Mof_O 	O 	0.77236	0.54484	0.29105	-0.388
Mof_O 	O 	0.72016	0.54498	0.34271	-0.397
Mof_O 	O 	0.9146	0.5813	0.3358	-0.166
Mof_H 	H 	0.8926	0.652	0.3195	0.104
Mof_C 	C 	0.75534	0.55872	0.32592	0.335
Mof_C 	C 	0.77847	0.5945	0.35019	-0.029
Mof_C 	C 	0.8206	0.6063	0.3379	-0.095
Mof_H 	H 	0.8345	0.5921	0.3137	0.097
Mof_C 	C 	0.918	0.6221	0.3371	0.143
Mof_C 	C 	0.9631	0.6844	0.3035	0.029
Mof_C 	C 	0.9614	0.6435	0.3242	-0.006
Mof_O 	O 	0.72764	0.04484	0.20895	-0.395
Mof_O 	O 	0.77984	0.04498	0.15729	-0.406
Mof_O 	O 	0.5854	0.0813	0.1642	-0.184
Mof_H 	H 	0.6074	0.152	0.1805	0.104
Mof_C 	C 	0.74466	0.05872	0.17408	0.334
Mof_C 	C 	0.72153	0.0945	0.14981	-0.035
Mof_C 	C 	0.6794	0.1063	0.1621	-0.095
Mof_H 	H 	0.6655	0.0921	0.1863	0.094
Mof_C 	C 	0.582	0.1221	0.1629	0.147
Mof_C 	C 	0.5369	0.1844	0.1965	0.022
Mof_C 	C 	0.5386	0.1435	0.1758	-0.035
Mof_O 	O 	0.22764	0.54484	0.70895	-0.389
Mof_O 	O 	0.27984	0.54498	0.65729	-0.397
Mof_O 	O 	0.0854	0.5813	0.6642	-0.178
Mof_H 	H 	0.1074	0.652	0.6805	0.104
Mof_C 	C 	0.24466	0.55872	0.67408	0.335
Mof_C 	C 	0.22153	0.5945	0.64981	-0.031
Mof_C 	C 	0.1794	0.6063	0.6621	-0.095
Mof_H 	H 	0.1655	0.5921	0.6863	0.096
Mof_C 	C 	0.082	0.6221	0.6629	0.144
Mof_C 	C 	0.0369	0.6844	0.6965	0.018
Mof_C 	C 	0.0386	0.6435	0.6758	-0.026
Mof_O 	O 	0.95516	0.20895	0.27236	-0.375
Mof_O 	O 	0.95502	0.15729	0.22016	-0.386
Mof_O 	O 	0.9187	0.1642	0.4146	-0.17
Mof_H 	H 	0.848	0.1805	0.3926	0.105
Mof_C 	C 	0.94128	0.17408	0.25534	0.332
Mof_C 	C 	0.9055	0.14981	0.27847	-0.027
Mof_C 	C 	0.8937	0.1621	0.3206	-0.096
Mof_H 	H 	0.9079	0.1863	0.3345	0.099
Mof_C 	C 	0.8779	0.1629	0.418	0.145
Mof_C 	C 	0.8156	0.1965	0.4631	0.023
Mof_C 	C 	0.8565	0.1758	0.4614	-0.029
Mof_O 	O 	0.45516	0.70895	0.77236	-0.388
Mof_O 	O 	0.45502	0.65729	0.72016	-0.397
Mof_O 	O 	0.4187	0.6642	0.9146	-0.166
Mof_H 	H 	0.348	0.6805	0.8926	0.104
Mof_C 	C 	0.44128	0.67408	0.75534	0.334
Mof_C 	C 	0.4055	0.64981	0.77847	-0.03
Mof_C 	C 	0.3937	0.6621	0.8206	-0.095
Mof_H 	H 	0.4079	0.6863	0.8345	0.097
Mof_C 	C 	0.3779	0.6629	0.918	0.142
Mof_C 	C 	0.3156	0.6965	0.9631	0.029
Mof_C 	C 	0.3565	0.6758	0.9614	-0.006
Mof_O 	O 	0.95516	0.79105	0.72764	-0.374
Mof_O 	O 	0.95502	0.84271	0.77984	-0.38
Mof_O 	O 	0.9187	0.8358	0.5854	-0.166
Mof_H 	H 	0.848	0.8195	0.6074	0.105
Mof_C 	C 	0.94128	0.82592	0.74466	0.331
Mof_C 	C 	0.9055	0.85019	0.72153	-0.021
Mof_C 	C 	0.8937	0.8379	0.6794	-0.098
Mof_H 	H 	0.9079	0.8137	0.6655	0.1
Mof_C 	C 	0.8779	0.8371	0.582	0.146
Mof_C 	C 	0.8156	0.8035	0.5369	0.022
Mof_C 	C 	0.8565	0.8242	0.5386	-0.031
Mof_O 	O 	0.45516	0.29105	0.22764	-0.389
Mof_O 	O 	0.45502	0.34271	0.27984	-0.397
Mof_O 	O 	0.4187	0.3358	0.0854	-0.178
Mof_H 	H 	0.348	0.3195	0.1074	0.104
Mof_C 	C 	0.44128	0.32592	0.24466	0.335
Mof_C 	C 	0.4055	0.35019	0.22153	-0.03
Mof_C 	C 	0.3937	0.3379	0.1794	-0.095
Mof_H 	H 	0.4079	0.3137	0.1655	0.096
Mof_C 	C 	0.3779	0.3371	0.082	0.144
Mof_C 	C 	0.3156	0.3035	0.0369	0.018
Mof_C 	C 	0.3565	0.3242	0.0386	-0.026
Mof_O 	O 	0.04484	0.20895	0.72764	-0.395
Mof_O 	O 	0.04498	0.15729	0.77984	-0.406
Mof_O 	O 	0.0813	0.1642	0.5854	-0.184
Mof_H 	H 	0.152	0.1805	0.6074	0.104
Mof_C 	C 	0.05872	0.17408	0.74466	0.334
Mof_C 	C 	0.0945	0.14981	0.72153	-0.035
Mof_C 	C 	0.1063	0.1621	0.6794	-0.095
Mof_H 	H 	0.0921	0.1863	0.6655	0.094
Mof_C 	C 	0.1221	0.1629	0.582	0.147
Mof_C 	C 	0.1844	0.1965	0.5369	0.022
Mof_C 	C 	0.1435	0.1758	0.5386	-0.035
Mof_O 	O 	0.54484	0.70895	0.22764	-0.389
Mof_O 	O 	0.54498	0.65729	0.27984	-0.397
Mof_O 	O 	0.5813	0.6642	0.0854	-0.178
Mof_H 	H 	0.652	0.6805	0.1074	0.104
Mof_C 	C 	0.55872	0.67408	0.24466	0.335
Mof_C 	C 	0.5945	0.64981	0.22153	-0.031
Mof_C 	C 	0.6063	0.6621	0.1794	-0.095
Mof_H 	H 	0.5921	0.6863	0.1655	0.096
Mof_C 	C 	0.6221	0.6629	0.082	0.144
Mof_C 	C 	0.6844	0.6965	0.0369	0.018
Mof_C 	C 	0.6435	0.6758	0.0386	-0.026
Mof_O 	O 	0.04484	0.79105	0.27236	-0.394
Mof_O 	O 	0.04498	0.84271	0.22016	-0.403
Mof_O 	O 	0.0813	0.8358	0.4146	-0.181
Mof_H 	H 	0.152	0.8195	0.3926	0.104
Mof_C 	C 	0.05872	0.82592	0.25534	0.334
Mof_C 	C 	0.0945	0.85019	0.27847	-0.031
Mof_C 	C 	0.1063	0.8379	0.3206	-0.096
Mof_H 	H 	0.0921	0.8137	0.3345	0.095
Mof_C 	C 	0.1221	0.8371	0.418	0.149
Mof_C 	C 	0.1844	0.8035	0.4631	0.021
Mof_C 	C 	0.1435	0.8242	0.4614	-0.036
Mof_O 	O 	0.54484	0.29105	0.77236	-0.388
Mof_O 	O 	0.54498	0.34271	0.72016	-0.397
Mof_O 	O 	0.5813	0.3358	0.9146	-0.166
Mof_H 	H 	0.652	0.3195	0.8926	0.104
Mof_C 	C 	0.55872	0.32592	0.75534	0.335
Mof_C 	C 	0.5945	0.35019	0.77847	-0.029
Mof_C 	C 	0.6063	0.3379	0.8206	-0.095
Mof_H 	H 	0.5921	0.3137	0.8345	0.097
Mof_C 	C 	0.6221	0.3371	0.918	0.143
Mof_C 	C 	0.6844	0.3035	0.9631	0.029
Mof_C 	C 	0.6435	0.3242	0.9614	-0.006
Mof_Cu	Cu	0.18401	0.81599	-0	0.894
Mof_Cu	Cu	0.24503	0.75497	-0	0.91
Mof_Cu	Cu	0.68401	0.31599	0.5	0.907
Mof_Cu	Cu	0.74503	0.25497	0.5	0.922
Mof_Cu	Cu	0.81599	0.18401	-0	0.894
Mof_Cu	Cu	0.75497	0.24503	-0	0.91
Mof_Cu	Cu	0.31599	0.68401	0.5	0.907
Mof_Cu	Cu	0.25497	0.74503	0.5	0.922
Mof_Cu	Cu	0.81599	0.81599	-0	0.895
Mof_Cu	Cu	0.75497	0.75497	-0	0.909
Mof_Cu	Cu	0.31599	0.31599	0.5	0.907
Mof_Cu	Cu	0.25497	0.25497	0.5	0.922
Mof_Cu	Cu	0.18401	0.18401	-0	0.892
Mof_Cu	Cu	0.24503	0.24503	-0	0.91
Mof_Cu	Cu	0.68401	0.68401	0.5	0.907
Mof_Cu	Cu	0.74503	0.74503	0.5	0.922
Mof_Cu	Cu	-3.99907e-33	0.18401	0.81599	0.894
Mof_Cu	Cu	-4.22786e-33	0.24503	0.75497	0.91
Mof_Cu	Cu	0.5	0.68401	0.31599	0.907
Mof_Cu	Cu	0.5	0.74503	0.25497	0.922
Mof_Cu	Cu	6.89927e-34	0.81599	0.18401	0.894
Mof_Cu	Cu	9.18715e-34	0.75497	0.24503	0.91
Mof_Cu	Cu	0.5	0.31599	0.68401	0.907
Mof_Cu	Cu	0.5	0.25497	0.74503	0.922
Mof_Cu	Cu	3.05947e-33	0.81599	0.81599	0.895
Mof_Cu	Cu	2.83068e-33	0.75497	0.75497	0.909
Mof_Cu	Cu	0.5	0.31599	0.31599	0.907
Mof_Cu	Cu	0.5	0.25497	0.25497	0.922
Mof_Cu	Cu	-2.83934e-33	0.18401	0.18401	0.892
Mof_Cu	Cu	-8.4592e-34	0.24503	0.24503	0.91
Mof_Cu	Cu	0.5	0.68401	0.68401	0.907
Mof_Cu	Cu	0.5	0.74503	0.74503	0.922
Mof_Cu	Cu	0.81599	-1.76464e-33	0.18401	0.894
Mof_Cu	Cu	0.75497	0	0.24503	0.91
Mof_Cu	Cu	0.31599	0.5	0.68401	0.907
Mof_Cu	Cu	0.25497	0.5	0.74503	0.922
Mof_Cu	Cu	0.18401	0	0.81599	0.894
Mof_Cu	Cu	0.24503	0	0.75497	0.91
Mof_Cu	Cu	0.68401	0.5	0.31599	0.907
Mof_Cu	Cu	0.74503	0.5	0.25497	0.922
Mof_Cu	Cu	0.81599	0	0.81599	0.895
Mof_Cu	Cu	0.75497	0	0.75497	0.909
Mof_Cu	Cu	0.31599	0.5	0.31599	0.907
Mof_Cu	Cu	0.25497	0.5	0.25497	0.922
Mof_Cu	Cu	0.18401	-1.76464e-33	0.18401	0.892
Mof_Cu	Cu	0.24503	0	0.24503	0.91
Mof_Cu	Cu	0.68401	0.5	0.68401	0.907
Mof_Cu	Cu	0.74503	0.5	0.74503	0.922
Mof_N 	N 	0.5	0.7945	0.2055	-0.173
Mof_N 	N 	2.6452e-33	0.2945	0.7055	-0.189
Mof_N 	N 	0.5	0.2055	0.2055	-0.173
Mof_N 	N 	2.6452e-33	0.7055	0.7055	-0.189
Mof_N 	N 	0.5	0.7945	0.7945	-0.172
Mof_N 	N 	1.1042e-33	0.2945	0.2945	-0.189
Mof_N 	N 	0.5	0.2055	0.7945	-0.173
Mof_N 	N 	4.63347e-33	0.7055	0.2945	-0.189
Mof_N 	N 	0.2055	0.5	0.7945	-0.173
Mof_N 	N 	0.7055	0	0.2945	-0.189
Mof_N 	N 	0.2055	0.5	0.2055	-0.173
Mof_N 	N 	0.7055	0	0.7055	-0.189
Mof_N 	N 	0.7945	0.5	0.7945	-0.172
Mof_N 	N 	0.2945	0	0.2945	-0.189
Mof_N 	N 	0.7945	0.5	0.2055	-0.173
Mof_N 	N 	0.2945	0	0.7055	-0.189
Mof_N 	N 	0.7945	0.2055	0.5	-0.173
Mof_N 	N 	0.2945	0.7055	-0	-0.189
Mof_N 	N 	0.2055	0.2055	0.5	-0.173
Mof_N 	N 	0.7055	0.7055	-0	-0.189
Mof_N 	N 	0.7945	0.7945	0.5	-0.172
Mof_N 	N 	0.2945	0.2945	-0	-0.189
Mof_N 	N 	0.2055	0.7945	0.5	-0.173
Mof_N 	N 	0.7055	0.2945	-0	-0.189
Mof_N 	N 	0.3859	0.8481	0.1519	-0.279
Mof_C 	C 	0.258	0.8848	0.1152	-0.015
Mof_H 	H 	0.2297	0.8944	0.1056	0.068
Mof_C 	C 	0.3415	0.8606	0.1394	0.145
Mof_H 	H 	0.4361	0.7973	0.2027	0.02
Mof_N 	N 	0.8859	0.3481	0.6519	-0.278
Mof_C 	C 	0.758	0.3848	0.6152	-0.015
Mof_H 	H 	0.7297	0.3944	0.6056	0.068
Mof_C 	C 	0.8415	0.3606	0.6394	0.145
Mof_H 	H 	0.9361	0.2973	0.7027	0.019
Mof_N 	N 	0.6141	0.1519	0.1519	-0.28
Mof_C 	C 	0.742	0.1152	0.1152	-0.013
Mof_H 	H 	0.7703	0.1056	0.1056	0.064
Mof_C 	C 	0.6585	0.1394	0.1394	0.141
Mof_H 	H 	0.5639	0.2027	0.2027	0.019
Mof_N 	N 	0.1141	0.6519	0.6519	-0.278
Mof_C 	C 	0.242	0.6152	0.6152	-0.014
Mof_H 	H 	0.2703	0.6056	0.6056	0.068
Mof_C 	C 	0.1585	0.6394	0.6394	0.144
Mof_H 	H 	0.0639	0.7027	0.7027	0.021
Mof_N 	N 	0.6141	0.8481	0.8481	-0.279
Mof_C 	C 	0.742	0.8848	0.8848	-0.019
Mof_H 	H 	0.7703	0.8944	0.8944	0.075
Mof_C 	C 	0.6585	0.8606	0.8606	0.149
Mof_H 	H 	0.5639	0.7973	0.7973	0.02
Mof_N 	N 	0.1141	0.3481	0.3481	-0.278
Mof_C 	C 	0.242	0.3848	0.3848	-0.014
Mof_H 	H 	0.2703	0.3944	0.3944	0.068
Mof_C 	C 	0.1585	0.3606	0.3606	0.144
Mof_H 	H 	0.0639	0.2973	0.2973	0.021
Mof_N 	N 	0.3859	0.1519	0.8481	-0.279
Mof_C 	C 	0.258	0.1152	0.8848	-0.015
Mof_H 	H 	0.2297	0.1056	0.8944	0.068
Mof_C 	C 	0.3415	0.1394	0.8606	0.145
Mof_H 	H 	0.4361	0.2027	0.7973	0.02
Mof_N 	N 	0.8859	0.6519	0.3481	-0.278
Mof_C 	C 	0.758	0.6152	0.3848	-0.015
Mof_H 	H 	0.7297	0.6056	0.3944	0.068
Mof_C 	C 	0.8415	0.6394	0.3606	0.145
Mof_H 	H 	0.9361	0.7027	0.2973	0.019
Mof_N 	N 	0.1519	0.3859	0.8481	-0.279
Mof_C 	C 	0.1152	0.258	0.8848	-0.015
Mof_H 	H 	0.1056	0.2297	0.8944	0.068
Mof_C 	C 	0.1394	0.3415	0.8606	0.145
Mof_H 	H 	0.2027	0.4361	0.7973	0.02
Mof_N 	N 	0.6519	0.8859	0.3481	-0.278
Mof_C 	C 	0.6152	0.758	0.3848	-0.015
Mof_H 	H 	0.6056	0.7297	0.3944	0.068
Mof_C 	C 	0.6394	0.8415	0.3606	0.145
Mof_H 	H 	0.7027	0.9361	0.2973	0.019
Mof_N 	N 	0.1519	0.6141	0.1519	-0.28
Mof_C 	C 	0.1152	0.742	0.1152	-0.013
Mof_H 	H 	0.1056	0.7703	0.1056	0.064
Mof_C 	C 	0.1394	0.6585	0.1394	0.141
Mof_H 	H 	0.2027	0.5639	0.2027	0.019
Mof_N 	N 	0.6519	0.1141	0.6519	-0.278
Mof_C 	C 	0.6152	0.242	0.6152	-0.014
Mof_H 	H 	0.6056	0.2703	0.6056	0.068
Mof_C 	C 	0.6394	0.1585	0.6394	0.144
Mof_H 	H 	0.7027	0.0639	0.7027	0.021
Mof_N 	N 	0.8481	0.6141	0.8481	-0.279
Mof_C 	C 	0.8848	0.742	0.8848	-0.019
Mof_H 	H 	0.8944	0.7703	0.8944	0.075
Mof_C 	C 	0.8606	0.6585	0.8606	0.149
Mof_H 	H 	0.7973	0.5639	0.7973	0.02
Mof_N 	N 	0.3481	0.1141	0.3481	-0.278
Mof_C 	C 	0.3848	0.242	0.3848	-0.014
Mof_H 	H 	0.3944	0.2703	0.3944	0.068
Mof_C 	C 	0.3606	0.1585	0.3606	0.144
Mof_H 	H 	0.2973	0.0639	0.2973	0.021
Mof_N 	N 	0.8481	0.3859	0.1519	-0.279
Mof_C 	C 	0.8848	0.258	0.1152	-0.015
Mof_H 	H 	0.8944	0.2297	0.1056	0.068
Mof_C 	C 	0.8606	0.3415	0.1394	0.145
Mof_H 	H 	0.7973	0.4361	0.2027	0.02
Mof_N 	N 	0.3481	0.8859	0.6519	-0.278
Mof_C 	C 	0.3848	0.758	0.6152	-0.015
Mof_H 	H 	0.3944	0.7297	0.6056	0.068
Mof_C 	C 	0.3606	0.8415	0.6394	0.145
Mof_H 	H 	0.2973	0.9361	0.7027	0.019
Mof_N 	N 	0.8481	0.1519	0.3859	-0.279
Mof_C 	C 	0.8848	0.1152	0.258	-0.015
Mof_H 	H 	0.8944	0.1056	0.2297	0.068
Mof_C 	C 	0.8606	0.1394	0.3415	0.145
Mof_H 	H 	0.7973	0.2027	0.4361	0.02
Mof_N 	N 	0.3481	0.6519	0.8859	-0.278
Mof_C 	C 	0.3848	0.6152	0.758	-0.015
Mof_H 	H 	0.3944	0.6056	0.7297	0.068
Mof_C 	C 	0.3606	0.6394	0.8415	0.145
Mof_H 	H 	0.2973	0.7027	0.9361	0.019
Mof_N 	N 	0.1519	0.1519	0.6141	-0.28
Mof_C 	C 	0.1152	0.1152	0.742	-0.013
Mof_H 	H 	0.1056	0.1056	0.7703	0.064
Mof_C 	C 	0.1394	0.1394	0.6585	0.141
Mof_H 	H 	0.2027	0.2027	0.5639	0.019
Mof_N 	N 	0.6519	0.6519	0.1141	-0.278
Mof_C 	C 	0.6152	0.6152	0.242	-0.014
Mof_H 	H 	0.6056	0.6056	0.2703	0.068
Mof_C 	C 	0.6394	0.6394	0.1585	0.144
Mof_H 	H 	0.7027	0.7027	0.0639	0.021
Mof_N 	N 	0.8481	0.8481	0.6141	-0.279
Mof_C 	C 	0.8848	0.8848	0.742	-0.019
Mof_H 	H 	0.8944	0.8944	0.7703	0.075
Mof_C 	C 	0.8606	0.8606	0.6585	0.149
Mof_H 	H 	0.7973	0.7973	0.5639	0.02
Mof_N 	N 	0.3481	0.3481	0.1141	-0.278
Mof_C 	C 	0.3848	0.3848	0.242	-0.014
Mof_H 	H 	0.3944	0.3944	0.2703	0.068
Mof_C 	C 	0.3606	0.3606	0.1585	0.144
Mof_H 	H 	0.2973	0.2973	0.0639	0.021
Mof_N 	N 	0.1519	0.8481	0.3859	-0.279
Mof_C 	C 	0.1152	0.8848	0.258	-0.015
Mof_H 	H 	0.1056	0.8944	0.2297	0.068
Mof_C 	C 	0.1394	0.8606	0.3415	0.145
Mof_H 	H 	0.2027	0.7973	0.4361	0.02
Mof_N 	N 	0.6519	0.3481	0.8859	-0.278
Mof_C 	C 	0.6152	0.3848	0.758	-0.015
Mof_H 	H 	0.6056	0.3944	0.7297	0.068
Mof_C 	C 	0.6394	0.3606	0.8415	0.145
Mof_H 	H 	0.7027	0.2973	0.9361	0.019
Mof_N 	N 	0.8481	0.3859	0.8481	-0.279
Mof_C 	C 	0.8848	0.258	0.8848	-0.018
Mof_H 	H 	0.8944	0.2297	0.8944	0.074
Mof_C 	C 	0.8606	0.3415	0.8606	0.149
Mof_H 	H 	0.7973	0.4361	0.7973	0.02
Mof_N 	N 	0.3481	0.8859	0.3481	-0.278
Mof_C 	C 	0.3848	0.758	0.3848	-0.015
Mof_H 	H 	0.3944	0.7297	0.3944	0.068
Mof_C 	C 	0.3606	0.8415	0.3606	0.145
Mof_H 	H 	0.2973	0.9361	0.2973	0.019
Mof_N 	N 	0.1519	0.6141	0.8481	-0.279
Mof_C 	C 	0.1152	0.742	0.8848	-0.016
Mof_H 	H 	0.1056	0.7703	0.8944	0.07
Mof_C 	C 	0.1394	0.6585	0.8606	0.145
Mof_H 	H 	0.2027	0.5639	0.7973	0.02
Mof_N 	N 	0.6519	0.1141	0.3481	-0.278
Mof_C 	C 	0.6152	0.242	0.3848	-0.014
Mof_H 	H 	0.6056	0.2703	0.3944	0.068
Mof_C 	C 	0.6394	0.1585	0.3606	0.144
Mof_H 	H 	0.7027	0.0639	0.2973	0.021
Mof_N 	N 	0.8481	0.6141	0.1519	-0.279
Mof_C 	C 	0.8848	0.742	0.1152	-0.016
Mof_H 	H 	0.8944	0.7703	0.1056	0.07
Mof_C 	C 	0.8606	0.6585	0.1394	0.145
Mof_H 	H 	0.7973	0.5639	0.2027	0.02
Mof_N 	N 	0.3481	0.1141	0.6519	-0.278
Mof_C 	C 	0.3848	0.242	0.6152	-0.014
Mof_H 	H 	0.3944	0.2703	0.6056	0.068
Mof_C 	C 	0.3606	0.1585	0.6394	0.144
Mof_H 	H 	0.2973	0.0639	0.7027	0.021
Mof_N 	N 	0.1519	0.3859	0.1519	-0.28
Mof_C 	C 	0.1152	0.258	0.1152	-0.012
Mof_H 	H 	0.1056	0.2297	0.1056	0.062
Mof_C 	C 	0.1394	0.3415	0.1394	0.141
Mof_H 	H 	0.2027	0.4361	0.2027	0.019
Mof_N 	N 	0.6519	0.8859	0.6519	-0.278
Mof_C 	C 	0.6152	0.758	0.6152	-0.015
Mof_H 	H 	0.6056	0.7297	0.6056	0.068
Mof_C 	C 	0.6394	0.8415	0.6394	0.145
Mof_H 	H 	0.7027	0.9361	0.7027	0.019
Mof_N 	N 	0.3859	0.1519	0.1519	-0.28
Mof_C 	C 	0.258	0.1152	0.1152	-0.012
Mof_H 	H 	0.2297	0.1056	0.1056	0.062
Mof_C 	C 	0.3415	0.1394	0.1394	0.141
Mof_H 	H 	0.4361	0.2027	0.2027	0.019
Mof_N 	N 	0.8859	0.6519	0.6519	-0.278
Mof_C 	C 	0.758	0.6152	0.6152	-0.015
Mof_H 	H 	0.7297	0.6056	0.6056	0.068
Mof_C 	C 	0.8415	0.6394	0.6394	0.145
Mof_H 	H 	0.9361	0.7027	0.7027	0.019
Mof_N 	N 	0.6141	0.1519	0.8481	-0.279
Mof_C 	C 	0.742	0.1152	0.8848	-0.016
Mof_H 	H 	0.7703	0.1056	0.8944	0.07
Mof_C 	C 	0.6585	0.1394	0.8606	0.145
Mof_H 	H 	0.5639	0.2027	0.7973	0.02
Mof_N 	N 	0.1141	0.6519	0.3481	-0.278
Mof_C 	C 	0.242	0.6152	0.3848	-0.014
Mof_H 	H 	0.2703	0.6056	0.3944	0.068
Mof_C 	C 	0.1585	0.6394	0.3606	0.144
Mof_H 	H 	0.0639	0.7027	0.2973	0.021
Mof_N 	N 	0.6141	0.8481	0.1519	-0.279
Mof_C 	C 	0.742	0.8848	0.1152	-0.016
Mof_H 	H 	0.7703	0.8944	0.1056	0.07
Mof_C 	C 	0.6585	0.8606	0.1394	0.145
Mof_H 	H 	0.5639	0.7973	0.2027	0.02
Mof_N 	N 	0.1141	0.3481	0.6519	-0.278
Mof_C 	C 	0.242	0.3848	0.6152	-0.014
Mof_H 	H 	0.2703	0.3944	0.6056	0.068
Mof_C 	C 	0.1585	0.3606	0.6394	0.144
Mof_H 	H 	0.0639	0.2973	0.7027	0.021
Mof_N 	N 	0.3859	0.8481	0.8481	-0.279
Mof_C 	C 	0.258	0.8848	0.8848	-0.018
Mof_H 	H 	0.2297	0.8944	0.8944	0.074
Mof_C 	C 	0.3415	0.8606	0.8606	0.149
Mof_H 	H 	0.4361	0.7973	0.7973	0.02
Mof_N 	N 	0.8859	0.3481	0.3481	-0.278
Mof_C 	C 	0.758	0.3848	0.3848	-0.015
Mof_H 	H 	0.7297	0.3944	0.3944	0.068
Mof_C 	C 	0.8415	0.3606	0.3606	0.145
Mof_H 	H 	0.9361	0.2973	0.2973	0.019
Mof_N 	N 	0.1519	0.8481	0.6141	-0.279
Mof_C 	C 	0.1152	0.8848	0.742	-0.016
Mof_H 	H 	0.1056	0.8944	0.7703	0.07
Mof_C 	C 	0.1394	0.8606	0.6585	0.145
Mof_H 	H 	0.2027	0.7973	0.5639	0.02
Mof_N 	N 	0.6519	0.3481	0.1141	-0.278
Mof_C 	C 	0.6152	0.3848	0.242	-0.014
Mof_H 	H 	0.6056	0.3944	0.2703	0.068
Mof_C 	C 	0.6394	0.3606	0.1585	0.144
Mof_H 	H 	0.7027	0.2973	0.0639	0.021
Mof_N 	N 	0.1519	0.1519	0.3859	-0.28
Mof_C 	C 	0.1152	0.1152	0.258	-0.012
Mof_H 	H 	0.1056	0.1056	0.2297	0.062
Mof_C 	C 	0.1394	0.1394	0.3415	0.141
Mof_H 	H 	0.2027	0.2027	0.4361	0.019
Mof_N 	N 	0.6519	0.6519	0.8859	-0.278
Mof_C 	C 	0.6152	0.6152	0.758	-0.015
Mof_H 	H 	0.6056	0.6056	0.7297	0.068
Mof_C 	C 	0.6394	0.6394	0.8415	0.145
Mof_H 	H 	0.7027	0.7027	0.9361	0.019
Mof_N 	N 	0.8481	0.8481	0.3859	-0.279
Mof_C 	C 	0.8848	0.8848	0.258	-0.018
Mof_H 	H 	0.8944	0.8944	0.2297	0.074
Mof_C 	C 	0.8606	0.8606	0.3415	0.149
Mof_H 	H 	0.7973	0.7973	0.4361	0.02
Mof_N 	N 	0.3481	0.3481	0.8859	-0.278
Mof_C 	C 	0.3848	0.3848	0.758	-0.015
Mof_H 	H 	0.3944	0.3944	0.7297	0.068
Mof_C 	C 	0.3606	0.3606	0.8415	0.145
Mof_H 	H 	0.2973	0.2973	0.9361	0.019
Mof_N 	N 	0.8481	0.1519	0.6141	-0.279
Mof_C 	C 	0.8848	0.1152	0.742	-0.016
Mof_H 	H 	0.8944	0.1056	0.7703	0.07
Mof_C 	C 	0.8606	0.1394	0.6585	0.145
Mof_H 	H 	0.7973	0.2027	0.5639	0.02
Mof_N 	N 	0.3481	0.6519	0.1141	-0.278
Mof_C 	C 	0.3848	0.6152	0.242	-0.014
Mof_H 	H 	0.3944	0.6056	0.2703	0.068
Mof_C 	C 	0.3606	0.6394	0.1585	0.144
Mof_H 	H 	0.2973	0.7027	0.0639	0.021
Mof_C 	C 	0.5	0.8364	0.1238	-0.005
Mof_H 	H 	0.5	0.8492	0.0951	0.069
Mof_C 	C 	9.39742e-33	0.3364	0.6238	-0.042
Mof_H 	H 	-4.82727e-33	0.3492	0.5951	0.074
Mof_C 	C 	0.5	0.1636	0.1238	-0.006
Mof_H 	H 	0.5	0.1508	0.0951	0.066
Mof_C 	C 	9.39742e-33	0.6636	0.6238	-0.042
Mof_H 	H 	2.23127e-33	0.6508	0.5951	0.074
Mof_C 	C 	0.5	0.8364	0.8762	-0.009
Mof_H 	H 	0.5	0.8492	0.9049	0.078
Mof_C 	C 	1.41052e-33	0.3364	0.3762	-0.042
Mof_H 	H 	5.0474e-33	0.3492	0.4049	0.074
Mof_C 	C 	0.5	0.1636	0.8762	-0.01
Mof_H 	H 	0.5	0.1508	0.9049	0.075
Mof_C 	C 	8.46907e-33	0.6636	0.3762	-0.042
Mof_H 	H 	1.51813e-33	0.6508	0.4049	0.074
Mof_C 	C 	0.1238	0.5	0.8364	-0.005
Mof_H 	H 	0.0951	0.5	0.8492	0.069
Mof_C 	C 	0.6238	0	0.3364	-0.042
Mof_H 	H 	0.5951	0	0.3492	0.074
Mof_C 	C 	0.1238	0.5	0.1636	-0.006
Mof_H 	H 	0.0951	0.5	0.1508	0.066
Mof_C 	C 	0.6238	0	0.6636	-0.042
Mof_H 	H 	0.5951	-7.05854e-33	0.6508	0.074
Mof_C 	C 	0.8762	0.5	0.8364	-0.009
Mof_H 	H 	0.9049	0.5	0.8492	0.078
Mof_C 	C 	0.3762	0	0.3364	-0.042
Mof_H 	H 	0.4049	0	0.3492	0.074
Mof_C 	C 	0.8762	0.5	0.1636	-0.01
Mof_H 	H 	0.9049	0.5	0.1508	0.075
Mof_C 	C 	0.3762	0	0.6636	-0.042
Mof_H 	H 	0.4049	-7.05854e-33	0.6508	0.074
Mof_C 	C 	0.8364	0.1238	0.5	-0.005
Mof_H 	H 	0.8492	0.0951	0.5	0.069
Mof_C 	C 	0.3364	0.6238	-0	-0.042
Mof_H 	H 	0.3492	0.5951	-0	0.074
Mof_C 	C 	0.1636	0.1238	0.5	-0.006
Mof_H 	H 	0.1508	0.0951	0.5	0.066
Mof_C 	C 	0.6636	0.6238	-0	-0.042
Mof_H 	H 	0.6508	0.5951	-0	0.074
Mof_C 	C 	0.8364	0.8762	0.5	-0.009
Mof_H 	H 	0.8492	0.9049	0.5	0.078
Mof_C 	C 	0.3364	0.3762	-0	-0.042
Mof_H 	H 	0.3492	0.4049	-0	0.074
Mof_C 	C 	0.1636	0.8762	0.5	-0.01
Mof_H 	H 	0.1508	0.9049	0.5	0.075
Mof_C 	C 	0.6636	0.3762	-0	-0.042
Mof_H 	H 	0.6508	0.4049	-0	0.074
Mof_C 	C 	0.8364	0.5	0.8762	-0.009
Mof_H 	H 	0.8492	0.5	0.9049	0.078
Mof_C 	C 	0.3364	-3.52927e-33	0.3762	-0.042
Mof_H 	H 	0.3492	3.52927e-33	0.4049	0.074
Mof_C 	C 	0.1636	0.5	0.8762	-0.01
Mof_H 	H 	0.1508	0.5	0.9049	0.075
Mof_C 	C 	0.6636	-3.52927e-33	0.3762	-0.042
Mof_H 	H 	0.6508	3.52927e-33	0.4049	0.074
Mof_C 	C 	0.8364	0.5	0.1238	-0.005
Mof_H 	H 	0.8492	0.5	0.0951	0.069
Mof_C 	C 	0.3364	7.05854e-33	0.6238	-0.042
Mof_H 	H 	0.3492	0	0.5951	0.074
Mof_C 	C 	0.1636	0.5	0.1238	-0.006
Mof_H 	H 	0.1508	0.5	0.0951	0.066
Mof_C 	C 	0.6636	7.05854e-33	0.6238	-0.042
Mof_H 	H 	0.6508	0	0.5951	0.074
Mof_C 	C 	0.5	0.1238	0.1636	-0.006
Mof_H 	H 	0.5	0.0951	0.1508	0.066
Mof_C 	C 	9.54664e-33	0.6238	0.6636	-0.042
Mof_H 	H 	2.44011e-33	0.5951	0.6508	0.074
Mof_C 	C 	0.5	0.1238	0.8364	-0.005
Mof_H 	H 	0.5	0.0951	0.8492	0.069
Mof_C 	C 	8.31984e-33	0.6238	0.3364	-0.042
Mof_H 	H 	-2.21998e-33	0.5951	0.3492	0.074
Mof_C 	C 	0.5	0.8762	0.1636	-0.01
Mof_H 	H 	0.5	0.9049	0.1508	0.075
Mof_C 	C 	2.4881e-33	0.3762	0.6636	-0.042
Mof_H 	H 	2.44011e-33	0.4049	0.6508	0.074
Mof_C 	C 	0.5	0.8762	0.8364	-0.009
Mof_H 	H 	0.5	0.9049	0.8492	0.078
Mof_C 	C 	1.2613e-33	0.3762	0.3364	-0.042
Mof_H 	H 	4.83856e-33	0.4049	0.3492	0.074
Mof_C 	C 	0.1238	0.8364	0.5	-0.005
Mof_H 	H 	0.0951	0.8492	0.5	0.069
Mof_C 	C 	0.6238	0.3364	-0	-0.042
Mof_H 	H 	0.5951	0.3492	-0	0.074
Mof_C 	C 	0.1238	0.1636	0.5	-0.006
Mof_H 	H 	0.0951	0.1508	0.5	0.066
Mof_C 	C 	0.6238	0.6636	-0	-0.042
Mof_H 	H 	0.5951	0.6508	-0	0.074
Mof_C 	C 	0.8762	0.8364	0.5	-0.009
Mof_H 	H 	0.9049	0.8492	0.5	0.078
Mof_C 	C 	0.3762	0.3364	-0	-0.042
Mof_H 	H 	0.4049	0.3492	-0	0.074
Mof_C 	C 	0.8762	0.1636	0.5	-0.01
Mof_H 	H 	0.9049	0.1508	0.5	0.075
Mof_C 	C 	0.3762	0.6636	-0	-0.042
Mof_H 	H 	0.4049	0.6508	-0	0.074
_end
