data_functionalizedCrystal
_audit_creation_method	'EQeq! by Chris Wilmer'
_symmetry_space_group_name_H-M	'P1'
_symmetry_Int_Tables_number	1
_symmetry_cell_setting	triclinic
loop_
_symmetry_equiv_pos_as_xyz
  x,y,z
_cell_length_a	38.226
_cell_length_b	13.456
_cell_length_c	33.945
_cell_angle_alpha	90
_cell_angle_beta	110.132
_cell_angle_gamma	90
loop_
_atom_site_label
_atom_site_type_symbol
_atom_site_fract_x
_atom_site_fract_y
_atom_site_fract_z
_atom_site_charge
Mof_Co	Co	0.00961	0.31545	0.04214	1.153
Mof_Co	Co	0.28975	0.38202	0.46733	1.156
Mof_O 	O 	0.26213	0.3689	0.40031	-0.433
Mof_O 	O 	0.21829	0.3357	0.98424	-0.181
Mof_O 	O 	0.1185	0.2859	0.04194	-0.452
Mof_H 	H 	0.0982	0.2988	0.044	0.28
Mof_O 	O 	0.22392	0.3805	0.32096	-0.445
Mof_H 	H 	0.2405	0.3934	0.3432	0.284
Mof_O 	O 	0.02423	0.3761	0.09889	-0.479
Mof_O 	O 	0.04867	0.3215	0.01738	-0.477
Mof_N 	N 	0.956	0.4194	0.96868	-0.249
Mof_H 	H 	0.9709	0.4132	0.9548	0.136
Mof_O 	O 	0.01632	0.3453	0.94995	-0.333
Mof_O 	O 	0.06344	0.2583	0.10729	-0.404
Mof_O 	O 	0.23739	0.2982	0.4417	-0.383
Mof_C 	C 	0.20679	0.2742	0.36923	-0.193
Mof_N 	N 	0.96571	0.3983	0.00986	-0.267
Mof_O 	O 	0.12198	0.2473	0.17259	-0.455
Mof_H 	H 	0.1073	0.2328	0.1493	0.277
Mof_C 	C 	0.93528	0.419	0.0196	0.34
Mof_C 	C 	0.18163	0.2321	0.0282	-0.097
Mof_H 	H 	0.1974	0.1889	0.0187	0.081
Mof_H 	H 	0.1762	0.1979	0.0506	0.078
Mof_C 	C 	0.22082	0.3739	0.0217	0.141
Mof_C 	C 	0.23677	0.3173	0.40486	0.347
Mof_C 	C 	0.16667	0.3165	0.2504	-0.076
Mof_H 	H 	0.1707	0.264	0.2329	0.076
Mof_H 	H 	0.1857	0.3665	0.2533	0.077
Mof_N 	N 	0.9897	0.1768	0.04049	-0.266
Mof_C 	C 	0.1453	0.2475	0.9921	-0.075
Mof_C 	C 	0.04568	0.324	0.9786	0.378
Mof_C 	C 	0.07974	0.2963	0.969	-0.202
Mof_C 	C 	0.11463	0.2767	0.0012	0.248
Mof_C 	C 	0.0519	0.3294	0.1215	0.402
Mof_C 	C 	0.93292	0.9527	0.9995	0.164
Mof_H 	H 	0.943	0.9277	0.9788	-0.021
Mof_H 	H 	0.9332	0.8983	0.0184	-0.018
Mof_C 	C 	0.95828	0.0337	0.0243	-0.291
Mof_C 	C 	0.20161	0.3086	0.3273	0.233
Mof_C 	C 	0.14134	0.2272	0.9499	0.047
Mof_C 	C 	0.20357	0.3268	0.0463	-0.021
Mof_C 	C 	0.22706	0.457	0.099	0.018
Mof_N 	N 	0.99661	0.1184	0.0743	-0.229
Mof_H 	H 	0.0115	0.1345	0.0989	0.111
Mof_C 	C 	0.1501	0.1946	0.2993	0.07
Mof_C 	C 	0.96667	0.1237	0.0095	0.301
Mof_C 	C 	0.20718	0.3679	0.0862	0.016
Mof_C 	C 	0.24482	0.5018	0.0737	-0.035
Mof_H 	H 	0.2585	0.5596	0.0828	0.059
Mof_C 	C 	0.07356	0.367	0.1641	-0.232
Mof_C 	C 	0.1292	0.363	0.2274	-0.096
Mof_C 	C 	0.17271	0.2733	0.29326	-0.085
Mof_C 	C 	0.1068	0.2492	0.9162	-0.041
Mof_C 	C 	0.9214	0.4504	0.952	0.361
Mof_C 	C 	0.19001	0.3242	0.1131	-0.057
Mof_H 	H 	0.1763	0.266	0.105	0.063
Mof_C 	C 	0.1701	0.1826	0.9373	-0.098
Mof_H 	H 	0.1928	0.166	0.9577	0.083
Mof_C 	C 	0.10813	0.3264	0.1883	0.244
Mof_C 	C 	0.89342	0.9832	0.9774	-0.329
Mof_C 	C 	0.24231	0.4619	0.0359	-0.1
Mof_C 	C 	0.9038	0.4768	0.9068	-0.918
Mof_H 	H 	0.9214	0.4667	0.8927	0.301
Mof_H 	H 	0.8962	0.5452	0.9044	0.308
Mof_H 	H 	0.8824	0.4354	0.8942	0.288
Mof_C 	C 	0.1014	0.2303	0.8738	-0.044
Mof_H 	H 	0.0789	0.2445	0.8526	0.031
Mof_C 	C 	0.07717	0.2852	0.9281	0.019
Mof_H 	H 	0.0549	0.3022	0.9072	0.021
Mof_C 	C 	0.1557	0.1588	0.3398	-0.044
Mof_C 	C 	0.1332	0.0842	0.3474	-0.024
Mof_H 	H 	0.1373	0.0616	0.3745	0.025
Mof_C 	C 	0.90676	0.4528	0.9844	-0.293
Mof_C 	C 	0.9524	0.1607	0.9643	-0.79
Mof_H 	H 	0.9628	0.225	0.9629	0.236
Mof_H 	H 	0.9257	0.1654	0.9548	0.245
Mof_H 	H 	0.9597	0.1151	0.9468	0.251
Mof_C 	C 	0.2311	0.4984	0.1383	-0.082
Mof_H 	H 	0.245	0.5561	0.1471	0.057
Mof_C 	C 	0.9781	0.0333	0.066	0.325
Mof_C 	C 	0.1311	0.1896	0.8649	-0.066
Mof_H 	H 	0.1287	0.1786	0.837	0.048
Mof_C 	C 	0.1212	0.152	0.266	-0.125
Mof_H 	H 	0.1169	0.1735	0.2387	0.089
Mof_C 	C 	0.1937	0.3679	0.151	-0.047
Mof_H 	H 	0.1819	0.3392	0.168	0.054
Mof_C 	C 	0.1832	0.2017	0.3739	0.027
Mof_H 	H 	0.1857	0.1806	0.4008	0.03
Mof_C 	C 	0.1647	0.1644	0.8965	-0.004
Mof_H 	H 	0.1835	0.1347	0.8892	0.036
Mof_C 	C 	0.0993	0.0796	0.2732	0.02
Mof_H 	H 	0.0802	0.0527	0.2507	0.012
Mof_C 	C 	0.9348	0.407	0.0631	-0.885
Mof_H 	H 	0.9585	0.3824	0.081	0.273
Mof_H 	H 	0.9156	0.3607	0.0629	0.275
Mof_H 	H 	0.9299	0.47	0.0734	0.292
Mof_C 	C 	0.0794	0.4811	0.2216	-0.06
Mof_C 	C 	0.0595	0.4426	0.1805	0.051
Mof_H 	H 	0.0366	0.4701	0.1648	0.016
Mof_C 	C 	0.2142	0.4528	0.1641	-0.026
Mof_H 	H 	0.2169	0.4799	0.1902	0.036
Mof_C 	C 	0.1151	0.4434	0.2437	0.08
Mof_C 	C 	0.0647	0.5605	0.2386	-0.006
Mof_H 	H 	0.0411	0.585	0.2239	0.024
Mof_C 	C 	0.981	0.9604	0.1008	-0.827
Mof_H 	H 	0.9981	0.9855	0.1268	0.257
Mof_H 	H 	0.9899	0.8977	0.0945	0.262
Mof_H 	H 	0.9569	0.9515	0.1032	0.261
Mof_C 	C 	0.1046	0.0446	0.3135	-0.083
Mof_H 	H 	0.0893	0.9953	0.3177	0.046
Mof_C 	C 	0.1345	0.4876	0.2831	-0.134
Mof_H 	H 	0.158	0.4645	0.2991	0.092
Mof_C 	C 	0.1188	0.5637	0.2976	0.032
Mof_H 	H 	0.1319	0.5913	0.3237	0.015
Mof_C 	C 	0.0847	0.6004	0.2755	-0.098
Mof_H 	H 	0.0752	0.6537	0.286	0.055
Mof_C 	C 	0.86909	0.025	0.9955	0.38
Mof_C 	C 	0.87331	0.9727	0.9361	0.371
Mof_N 	N 	0.83849	0.0075	0.92972	-0.236
Mof_H 	H 	0.8209	0.0088	0.9057	0.115
Mof_N 	N 	0.835	0.0401	0.96607	-0.269
Mof_C 	C 	0.87526	0.0547	0.0386	-0.957
Mof_H 	H 	0.8526	0.0811	0.0406	0.29
Mof_H 	H 	0.8943	0.1046	0.047	0.3
Mof_H 	H 	0.8829	0.998	0.0567	0.308
Mof_C 	C 	0.883	0.93	0.9004	-0.911
Mof_H 	H 	0.8619	0.9355	0.8749	0.296
Mof_H 	H 	0.8897	0.8613	0.9059	0.316
Mof_H 	H 	0.9037	0.9659	0.8974	0.288
Mof_C 	C 	0.26144	0.5136	0.009	0.302
Mof_O 	O 	0.28146	0.5891	0.02358	-0.404
Mof_O 	O 	0.25726	0.4793	0.9733	-0.355
Mof_C 	C 	0.86751	0.481	0.9816	0.148
Mof_H 	H 	0.8689	0.5345	0.0012	-0.008
Mof_H 	H 	0.8541	0.5057	0.9536	-0.003
Mof_C 	C 	0.84646	0.3974	0.9907	-0.299
Mof_C 	C 	0.83318	0.3896	0.0235	0.373
Mof_C 	C 	0.83437	0.3108	0.9667	0.321
Mof_N 	N 	0.81483	0.3008	0.01855	-0.236
Mof_H 	H 	0.8042	0.2787	0.0354	0.152
Mof_N 	N 	0.81531	0.2522	0.98428	-0.251
Mof_C 	C 	0.83652	0.4556	0.06	-0.954
Mof_H 	H 	0.8501	0.5144	0.0583	0.318
Mof_H 	H 	0.8495	0.421	0.0856	0.304
Mof_H 	H 	0.8121	0.4738	0.0595	0.334
Mof_C 	C 	0.8412	0.2818	0.9273	-0.834
Mof_H 	H 	0.8296	0.219	0.9176	0.255
Mof_H 	H 	0.8676	0.2764	0.933	0.255
Mof_H 	H 	0.831	0.3314	0.9062	0.27
Mof_Co	Co	0.50961	0.81545	0.04214	1.152
Mof_Co	Co	0.78975	0.88202	0.46733	1.155
Mof_O 	O 	0.76213	0.8689	0.40031	-0.434
Mof_O 	O 	0.71829	0.8357	0.98424	-0.182
Mof_O 	O 	0.6185	0.7859	0.04194	-0.452
Mof_H 	H 	0.5982	0.7988	0.044	0.279
Mof_O 	O 	0.72392	0.8805	0.32096	-0.447
Mof_H 	H 	0.7405	0.8934	0.3432	0.283
Mof_O 	O 	0.52423	0.8761	0.09889	-0.48
Mof_O 	O 	0.54867	0.8215	0.01738	-0.478
Mof_N 	N 	0.456	0.9194	0.96868	-0.25
Mof_H 	H 	0.4709	0.9132	0.9548	0.135
Mof_O 	O 	0.51632	0.8453	0.94995	-0.334
Mof_O 	O 	0.56344	0.7583	0.10729	-0.406
Mof_O 	O 	0.73739	0.7982	0.4417	-0.384
Mof_C 	C 	0.70679	0.7742	0.36923	-0.194
Mof_N 	N 	0.46571	0.8983	0.00986	-0.268
Mof_O 	O 	0.62198	0.7473	0.17259	-0.456
Mof_H 	H 	0.6073	0.7328	0.1493	0.276
Mof_C 	C 	0.43528	0.919	0.0196	0.337
Mof_C 	C 	0.68163	0.7321	0.0282	-0.098
Mof_H 	H 	0.6974	0.6889	0.0187	0.081
Mof_H 	H 	0.6762	0.6979	0.0506	0.078
Mof_C 	C 	0.72082	0.8739	0.0217	0.142
Mof_C 	C 	0.73677	0.8173	0.40486	0.347
Mof_C 	C 	0.66667	0.8165	0.2504	-0.075
Mof_H 	H 	0.6707	0.764	0.2329	0.076
Mof_H 	H 	0.6857	0.8665	0.2533	0.077
Mof_N 	N 	0.4897	0.6768	0.04049	-0.266
Mof_C 	C 	0.6453	0.7475	0.9921	-0.074
Mof_C 	C 	0.54568	0.824	0.9786	0.378
Mof_C 	C 	0.57974	0.7963	0.969	-0.201
Mof_C 	C 	0.61463	0.7767	0.0012	0.247
Mof_C 	C 	0.5519	0.8294	0.1215	0.402
Mof_C 	C 	0.43292	0.4527	0.9995	0.165
Mof_H 	H 	0.443	0.4277	0.9788	-0.021
Mof_H 	H 	0.4332	0.3983	0.0184	-0.018
Mof_C 	C 	0.45828	0.5337	0.0243	-0.291
Mof_C 	C 	0.70161	0.8086	0.3273	0.233
Mof_C 	C 	0.64134	0.7272	0.9499	0.046
Mof_C 	C 	0.70357	0.8268	0.0463	-0.021
Mof_C 	C 	0.72706	0.957	0.099	0.017
Mof_N 	N 	0.49661	0.6184	0.0743	-0.229
Mof_H 	H 	0.5115	0.6345	0.0989	0.111
Mof_C 	C 	0.6501	0.6946	0.2993	0.071
Mof_C 	C 	0.46667	0.6237	0.0095	0.3
Mof_C 	C 	0.70718	0.8679	0.0862	0.017
Mof_C 	C 	0.74482	0.0018	0.0737	-0.033
Mof_H 	H 	0.7585	0.0596	0.0828	0.058
Mof_C 	C 	0.57356	0.867	0.1641	-0.233
Mof_C 	C 	0.6292	0.863	0.2274	-0.096
Mof_C 	C 	0.67271	0.7733	0.29326	-0.085
Mof_C 	C 	0.6068	0.7492	0.9162	-0.04
Mof_C 	C 	0.4214	0.9504	0.952	0.361
Mof_C 	C 	0.69001	0.8242	0.1131	-0.057
Mof_H 	H 	0.6763	0.766	0.105	0.063
Mof_C 	C 	0.6701	0.6826	0.9373	-0.097
Mof_H 	H 	0.6928	0.666	0.9577	0.083
Mof_C 	C 	0.60813	0.8264	0.1883	0.245
Mof_C 	C 	0.39342	0.4832	0.9774	-0.331
Mof_C 	C 	0.74231	0.9619	0.0359	-0.101
Mof_C 	C 	0.4038	0.9768	0.9068	-0.916
Mof_H 	H 	0.4214	0.9667	0.8927	0.3
Mof_H 	H 	0.3962	0.0452	0.9044	0.307
Mof_H 	H 	0.3824	0.9354	0.8942	0.288
Mof_C 	C 	0.6014	0.7303	0.8738	-0.045
Mof_H 	H 	0.5789	0.7445	0.8526	0.031
Mof_C 	C 	0.57717	0.7852	0.9281	0.019
Mof_H 	H 	0.5549	0.8022	0.9072	0.021
Mof_C 	C 	0.6557	0.6588	0.3398	-0.045
Mof_C 	C 	0.6332	0.5842	0.3474	-0.023
Mof_H 	H 	0.6373	0.5616	0.3745	0.025
Mof_C 	C 	0.40676	0.9528	0.9844	-0.292
Mof_C 	C 	0.4524	0.6607	0.9643	-0.789
Mof_H 	H 	0.4628	0.725	0.9629	0.236
Mof_H 	H 	0.4257	0.6654	0.9548	0.244
Mof_H 	H 	0.4597	0.6151	0.9468	0.25
Mof_C 	C 	0.7311	0.9984	0.1383	-0.083
Mof_H 	H 	0.745	0.0561	0.1471	0.057
Mof_C 	C 	0.4781	0.5333	0.066	0.324
Mof_C 	C 	0.6311	0.6896	0.8649	-0.065
Mof_H 	H 	0.6287	0.6786	0.837	0.048
Mof_C 	C 	0.6212	0.652	0.266	-0.125
Mof_H 	H 	0.6169	0.6735	0.2387	0.089
Mof_C 	C 	0.6937	0.8679	0.151	-0.047
Mof_H 	H 	0.6819	0.8392	0.168	0.054
Mof_C 	C 	0.6832	0.7017	0.3739	0.028
Mof_H 	H 	0.6857	0.6806	0.4008	0.03
Mof_C 	C 	0.6647	0.6644	0.8965	-0.004
Mof_H 	H 	0.6835	0.6347	0.8892	0.036
Mof_C 	C 	0.5993	0.5796	0.2732	0.021
Mof_H 	H 	0.5802	0.5527	0.2507	0.012
Mof_C 	C 	0.4348	0.907	0.0631	-0.883
Mof_H 	H 	0.4585	0.8824	0.081	0.272
Mof_H 	H 	0.4156	0.8607	0.0629	0.275
Mof_H 	H 	0.4299	0.97	0.0734	0.291
Mof_C 	C 	0.5794	0.9811	0.2216	-0.061
Mof_C 	C 	0.5595	0.9426	0.1805	0.051
Mof_H 	H 	0.5366	0.9701	0.1648	0.016
Mof_C 	C 	0.7142	0.9528	0.1641	-0.026
Mof_H 	H 	0.7169	0.9799	0.1902	0.036
Mof_C 	C 	0.6151	0.9434	0.2437	0.081
Mof_C 	C 	0.5647	0.0605	0.2386	-0.004
Mof_H 	H 	0.5411	0.085	0.2239	0.023
Mof_C 	C 	0.481	0.4604	0.1008	-0.825
Mof_H 	H 	0.4981	0.4855	0.1268	0.257
Mof_H 	H 	0.4899	0.3977	0.0945	0.262
Mof_H 	H 	0.4569	0.4515	0.1032	0.261
Mof_C 	C 	0.6046	0.5446	0.3135	-0.085
Mof_H 	H 	0.5893	0.4953	0.3177	0.046
Mof_C 	C 	0.6345	0.9876	0.2831	-0.136
Mof_H 	H 	0.658	0.9645	0.2991	0.093
Mof_C 	C 	0.6188	0.0637	0.2976	0.034
Mof_H 	H 	0.6319	0.0913	0.3237	0.015
Mof_C 	C 	0.5847	0.1004	0.2755	-0.1
Mof_H 	H 	0.5752	0.1537	0.286	0.055
Mof_C 	C 	0.36909	0.525	0.9955	0.383
Mof_C 	C 	0.37331	0.4727	0.9361	0.371
Mof_N 	N 	0.33849	0.5075	0.92972	-0.236
Mof_H 	H 	0.3209	0.5088	0.9057	0.115
Mof_N 	N 	0.335	0.5401	0.96607	-0.27
Mof_C 	C 	0.37526	0.5547	0.0386	-0.964
Mof_H 	H 	0.3526	0.5811	0.0406	0.291
Mof_H 	H 	0.3943	0.6046	0.047	0.302
Mof_H 	H 	0.3829	0.498	0.0567	0.311
Mof_C 	C 	0.383	0.43	0.9004	-0.911
Mof_H 	H 	0.3619	0.4355	0.8749	0.296
Mof_H 	H 	0.3897	0.3613	0.9059	0.316
Mof_H 	H 	0.4037	0.4659	0.8974	0.288
Mof_C 	C 	0.76144	0.0136	0.009	0.303
Mof_O 	O 	0.78146	0.0891	0.02358	-0.404
Mof_O 	O 	0.75726	0.9793	0.9733	-0.356
Mof_C 	C 	0.36751	0.981	0.9816	0.149
Mof_H 	H 	0.3689	0.0345	0.0012	-0.009
Mof_H 	H 	0.3541	0.0057	0.9536	-0.003
Mof_C 	C 	0.34646	0.8974	0.9907	-0.298
Mof_C 	C 	0.33318	0.8896	0.0235	0.372
Mof_C 	C 	0.33437	0.8108	0.9667	0.321
Mof_N 	N 	0.31483	0.8008	0.01855	-0.237
Mof_H 	H 	0.3042	0.7787	0.0354	0.152
Mof_N 	N 	0.31531	0.7522	0.98428	-0.25
Mof_C 	C 	0.33652	0.9556	0.06	-0.955
Mof_H 	H 	0.3501	0.0144	0.0583	0.319
Mof_H 	H 	0.3495	0.921	0.0856	0.304
Mof_H 	H 	0.3121	0.9738	0.0595	0.334
Mof_C 	C 	0.3412	0.7818	0.9273	-0.834
Mof_H 	H 	0.3296	0.719	0.9176	0.255
Mof_H 	H 	0.3676	0.7764	0.933	0.255
Mof_H 	H 	0.331	0.8314	0.9062	0.27
Mof_Co	Co	0.00961	0.68455	0.54214	1.152
Mof_Co	Co	0.28975	0.61798	0.96733	1.155
Mof_O 	O 	0.26213	0.6311	0.90031	-0.434
Mof_O 	O 	0.21829	0.6643	0.48424	-0.182
Mof_O 	O 	0.1185	0.7141	0.54194	-0.452
Mof_H 	H 	0.0982	0.7012	0.544	0.279
Mof_O 	O 	0.22392	0.6195	0.82096	-0.446
Mof_H 	H 	0.2405	0.6066	0.8432	0.283
Mof_O 	O 	0.02423	0.6239	0.59889	-0.48
Mof_O 	O 	0.04867	0.6785	0.51738	-0.478
Mof_N 	N 	0.956	0.5806	0.46868	-0.25
Mof_H 	H 	0.9709	0.5868	0.4548	0.135
Mof_O 	O 	0.01632	0.6547	0.44995	-0.334
Mof_O 	O 	0.06344	0.7417	0.60729	-0.405
Mof_O 	O 	0.23739	0.7018	0.9417	-0.384
Mof_C 	C 	0.20679	0.7258	0.86923	-0.194
Mof_N 	N 	0.96571	0.6017	0.50986	-0.268
Mof_O 	O 	0.12198	0.7527	0.67259	-0.456
Mof_H 	H 	0.1073	0.7672	0.6493	0.276
Mof_C 	C 	0.93528	0.581	0.5196	0.338
Mof_C 	C 	0.18163	0.7679	0.5282	-0.098
Mof_H 	H 	0.1974	0.8111	0.5187	0.081
Mof_H 	H 	0.1762	0.8021	0.5506	0.078
Mof_C 	C 	0.22082	0.6261	0.5217	0.141
Mof_C 	C 	0.23677	0.6827	0.90486	0.347
Mof_C 	C 	0.16667	0.6835	0.7504	-0.076
Mof_H 	H 	0.1707	0.736	0.7329	0.076
Mof_H 	H 	0.1857	0.6335	0.7533	0.077
Mof_N 	N 	0.9897	0.8232	0.54049	-0.266
Mof_C 	C 	0.1453	0.7525	0.4921	-0.075
Mof_C 	C 	0.04568	0.676	0.4786	0.378
Mof_C 	C 	0.07974	0.7037	0.469	-0.202
Mof_C 	C 	0.11463	0.7233	0.5012	0.248
Mof_C 	C 	0.0519	0.6706	0.6215	0.402
Mof_C 	C 	0.93292	0.0473	0.4995	0.165
Mof_H 	H 	0.943	0.0723	0.4788	-0.021
Mof_H 	H 	0.9332	0.1017	0.5184	-0.018
Mof_C 	C 	0.95828	0.9663	0.5243	-0.291
Mof_C 	C 	0.20161	0.6914	0.8273	0.233
Mof_C 	C 	0.14134	0.7728	0.4499	0.047
Mof_C 	C 	0.20357	0.6732	0.5463	-0.021
Mof_C 	C 	0.22706	0.543	0.599	0.018
Mof_N 	N 	0.99661	0.8816	0.5743	-0.229
Mof_H 	H 	0.0115	0.8655	0.5989	0.111
Mof_C 	C 	0.1501	0.8054	0.7993	0.07
Mof_C 	C 	0.96667	0.8763	0.5095	0.3
Mof_C 	C 	0.20718	0.6321	0.5862	0.016
Mof_C 	C 	0.24482	0.4982	0.5737	-0.035
Mof_H 	H 	0.2585	0.4404	0.5828	0.059
Mof_C 	C 	0.07356	0.633	0.6641	-0.232
Mof_C 	C 	0.1292	0.637	0.7274	-0.096
Mof_C 	C 	0.17271	0.7267	0.79326	-0.085
Mof_C 	C 	0.1068	0.7508	0.4162	-0.041
Mof_C 	C 	0.9214	0.5496	0.452	0.361
Mof_C 	C 	0.19001	0.6758	0.6131	-0.057
Mof_H 	H 	0.1763	0.734	0.605	0.063
Mof_C 	C 	0.1701	0.8174	0.4373	-0.098
Mof_H 	H 	0.1928	0.834	0.4577	0.083
Mof_C 	C 	0.10813	0.6736	0.6883	0.244
Mof_C 	C 	0.89342	0.0168	0.4774	-0.331
Mof_C 	C 	0.24231	0.5381	0.5359	-0.1
Mof_C 	C 	0.9038	0.5232	0.4068	-0.918
Mof_H 	H 	0.9214	0.5333	0.3927	0.301
Mof_H 	H 	0.8962	0.4548	0.4044	0.308
Mof_H 	H 	0.8824	0.5646	0.3942	0.288
Mof_C 	C 	0.1014	0.7697	0.3738	-0.044
Mof_H 	H 	0.0789	0.7555	0.3526	0.031
Mof_C 	C 	0.07717	0.7148	0.4281	0.019
Mof_H 	H 	0.0549	0.6978	0.4072	0.021
Mof_C 	C 	0.1557	0.8412	0.8398	-0.044
Mof_C 	C 	0.1332	0.9158	0.8474	-0.024
Mof_H 	H 	0.1373	0.9384	0.8745	0.026
Mof_C 	C 	0.90676	0.5472	0.4844	-0.293
Mof_C 	C 	0.9524	0.8393	0.4643	-0.789
Mof_H 	H 	0.9628	0.775	0.4629	0.236
Mof_H 	H 	0.9257	0.8346	0.4548	0.244
Mof_H 	H 	0.9597	0.8849	0.4468	0.25
Mof_C 	C 	0.2311	0.5016	0.6383	-0.082
Mof_H 	H 	0.245	0.4439	0.6471	0.057
Mof_C 	C 	0.9781	0.9667	0.566	0.324
Mof_C 	C 	0.1311	0.8104	0.3649	-0.066
Mof_H 	H 	0.1287	0.8214	0.337	0.048
Mof_C 	C 	0.1212	0.848	0.766	-0.124
Mof_H 	H 	0.1169	0.8265	0.7387	0.089
Mof_C 	C 	0.1937	0.6321	0.651	-0.047
Mof_H 	H 	0.1819	0.6608	0.668	0.054
Mof_C 	C 	0.1832	0.7983	0.8739	0.027
Mof_H 	H 	0.1857	0.8194	0.9008	0.03
Mof_C 	C 	0.1647	0.8356	0.3965	-0.004
Mof_H 	H 	0.1835	0.8653	0.3892	0.036
Mof_C 	C 	0.0993	0.9204	0.7732	0.019
Mof_H 	H 	0.0802	0.9473	0.7507	0.012
Mof_C 	C 	0.9348	0.593	0.5631	-0.884
Mof_H 	H 	0.9585	0.6176	0.581	0.273
Mof_H 	H 	0.9156	0.6393	0.5629	0.275
Mof_H 	H 	0.9299	0.53	0.5734	0.292
Mof_C 	C 	0.0794	0.5189	0.7216	-0.06
Mof_C 	C 	0.0595	0.5574	0.6805	0.051
Mof_H 	H 	0.0366	0.5299	0.6648	0.016
Mof_C 	C 	0.2142	0.5472	0.6641	-0.026
Mof_H 	H 	0.2169	0.5201	0.6902	0.036
Mof_C 	C 	0.1151	0.5566	0.7437	0.08
Mof_C 	C 	0.0647	0.4395	0.7386	-0.006
Mof_H 	H 	0.0411	0.415	0.7239	0.024
Mof_C 	C 	0.981	0.0396	0.6008	-0.826
Mof_H 	H 	0.9981	0.0145	0.6268	0.257
Mof_H 	H 	0.9899	0.1023	0.5945	0.262
Mof_H 	H 	0.9569	0.0485	0.6032	0.261
Mof_C 	C 	0.1046	0.9554	0.8135	-0.083
Mof_H 	H 	0.0893	0.0047	0.8177	0.045
Mof_C 	C 	0.1345	0.5124	0.7831	-0.134
Mof_H 	H 	0.158	0.5355	0.7991	0.092
Mof_C 	C 	0.1188	0.4363	0.7976	0.032
Mof_H 	H 	0.1319	0.4087	0.8237	0.015
Mof_C 	C 	0.0847	0.3996	0.7755	-0.098
Mof_H 	H 	0.0752	0.3463	0.786	0.055
Mof_C 	C 	0.86909	0.975	0.4955	0.383
Mof_C 	C 	0.87331	0.0273	0.4361	0.371
Mof_N 	N 	0.83849	0.9925	0.42972	-0.236
Mof_H 	H 	0.8209	0.9912	0.4057	0.115
Mof_N 	N 	0.835	0.9599	0.46607	-0.27
Mof_C 	C 	0.87526	0.9453	0.5386	-0.963
Mof_H 	H 	0.8526	0.9189	0.5406	0.291
Mof_H 	H 	0.8943	0.8954	0.547	0.302
Mof_H 	H 	0.8829	0.002	0.5567	0.311
Mof_C 	C 	0.883	0.07	0.4004	-0.911
Mof_H 	H 	0.8619	0.0645	0.3749	0.296
Mof_H 	H 	0.8897	0.1387	0.4059	0.316
Mof_H 	H 	0.9037	0.0341	0.3974	0.289
Mof_C 	C 	0.26144	0.4864	0.509	0.302
Mof_O 	O 	0.28146	0.4109	0.52358	-0.404
Mof_O 	O 	0.25726	0.5207	0.4733	-0.355
Mof_C 	C 	0.86751	0.519	0.4816	0.148
Mof_H 	H 	0.8689	0.4655	0.5012	-0.008
Mof_H 	H 	0.8541	0.4943	0.4536	-0.003
Mof_C 	C 	0.84646	0.6026	0.4907	-0.298
Mof_C 	C 	0.83318	0.6104	0.5235	0.372
Mof_C 	C 	0.83437	0.6892	0.4667	0.321
Mof_N 	N 	0.81483	0.6992	0.51855	-0.237
Mof_H 	H 	0.8042	0.7213	0.5354	0.152
Mof_N 	N 	0.81531	0.7478	0.48428	-0.25
Mof_C 	C 	0.83652	0.5444	0.56	-0.954
Mof_H 	H 	0.8501	0.4856	0.5583	0.318
Mof_H 	H 	0.8495	0.579	0.5856	0.304
Mof_H 	H 	0.8121	0.5262	0.5595	0.334
Mof_C 	C 	0.8412	0.7182	0.4273	-0.834
Mof_H 	H 	0.8296	0.781	0.4176	0.255
Mof_H 	H 	0.8676	0.7236	0.433	0.255
Mof_H 	H 	0.831	0.6686	0.4062	0.27
Mof_Co	Co	0.50961	0.18455	0.54214	1.152
Mof_Co	Co	0.78975	0.11798	0.96733	1.154
Mof_O 	O 	0.76213	0.1311	0.90031	-0.434
Mof_O 	O 	0.71829	0.1643	0.48424	-0.182
Mof_O 	O 	0.6185	0.2141	0.54194	-0.452
Mof_H 	H 	0.5982	0.2012	0.544	0.279
Mof_O 	O 	0.72392	0.1195	0.82096	-0.447
Mof_H 	H 	0.7405	0.1066	0.8432	0.283
Mof_O 	O 	0.52423	0.1239	0.59889	-0.48
Mof_O 	O 	0.54867	0.1785	0.51738	-0.478
Mof_N 	N 	0.456	0.0806	0.46868	-0.25
Mof_H 	H 	0.4709	0.0868	0.4548	0.135
Mof_O 	O 	0.51632	0.1547	0.44995	-0.334
Mof_O 	O 	0.56344	0.2417	0.60729	-0.406
Mof_O 	O 	0.73739	0.2018	0.9417	-0.384
Mof_C 	C 	0.70679	0.2258	0.86923	-0.194
Mof_N 	N 	0.46571	0.1017	0.50986	-0.268
Mof_O 	O 	0.62198	0.2527	0.67259	-0.456
Mof_H 	H 	0.6073	0.2672	0.6493	0.276
Mof_C 	C 	0.43528	0.081	0.5196	0.338
Mof_C 	C 	0.68163	0.2679	0.5282	-0.097
Mof_H 	H 	0.6974	0.3111	0.5187	0.081
Mof_H 	H 	0.6762	0.3021	0.5506	0.078
Mof_C 	C 	0.72082	0.1261	0.5217	0.141
Mof_C 	C 	0.73677	0.1827	0.90486	0.347
Mof_C 	C 	0.66667	0.1835	0.7504	-0.075
Mof_H 	H 	0.6707	0.236	0.7329	0.076
Mof_H 	H 	0.6857	0.1335	0.7533	0.077
Mof_N 	N 	0.4897	0.3232	0.54049	-0.266
Mof_C 	C 	0.6453	0.2525	0.4921	-0.075
Mof_C 	C 	0.54568	0.176	0.4786	0.378
Mof_C 	C 	0.57974	0.2037	0.469	-0.202
Mof_C 	C 	0.61463	0.2233	0.5012	0.248
Mof_C 	C 	0.5519	0.1706	0.6215	0.402
Mof_C 	C 	0.43292	0.5473	0.4995	0.165
Mof_H 	H 	0.443	0.5723	0.4788	-0.021
Mof_H 	H 	0.4332	0.6017	0.5184	-0.018
Mof_C 	C 	0.45828	0.4663	0.5243	-0.291
Mof_C 	C 	0.70161	0.1914	0.8273	0.233
Mof_C 	C 	0.64134	0.2728	0.4499	0.047
Mof_C 	C 	0.70357	0.1732	0.5463	-0.021
Mof_C 	C 	0.72706	0.043	0.599	0.018
Mof_N 	N 	0.49661	0.3816	0.5743	-0.229
Mof_H 	H 	0.5115	0.3655	0.5989	0.111
Mof_C 	C 	0.6501	0.3054	0.7993	0.071
Mof_C 	C 	0.46667	0.3763	0.5095	0.3
Mof_C 	C 	0.70718	0.1321	0.5862	0.016
Mof_C 	C 	0.74482	0.9982	0.5737	-0.034
Mof_H 	H 	0.7585	0.9404	0.5828	0.059
Mof_C 	C 	0.57356	0.133	0.6641	-0.233
Mof_C 	C 	0.6292	0.137	0.7274	-0.096
Mof_C 	C 	0.67271	0.2267	0.79326	-0.085
Mof_C 	C 	0.6068	0.2508	0.4162	-0.041
Mof_C 	C 	0.4214	0.0496	0.452	0.361
Mof_C 	C 	0.69001	0.1758	0.6131	-0.057
Mof_H 	H 	0.6763	0.234	0.605	0.063
Mof_C 	C 	0.6701	0.3174	0.4373	-0.098
Mof_H 	H 	0.6928	0.334	0.4577	0.083
Mof_C 	C 	0.60813	0.1736	0.6883	0.245
Mof_C 	C 	0.39342	0.5168	0.4774	-0.331
Mof_C 	C 	0.74231	0.0381	0.5359	-0.1
Mof_C 	C 	0.4038	0.0232	0.4068	-0.918
Mof_H 	H 	0.4214	0.0333	0.3927	0.301
Mof_H 	H 	0.3962	0.9548	0.4044	0.308
Mof_H 	H 	0.3824	0.0646	0.3942	0.288
Mof_C 	C 	0.6014	0.2697	0.3738	-0.044
Mof_H 	H 	0.5789	0.2555	0.3526	0.031
Mof_C 	C 	0.57717	0.2148	0.4281	0.019
Mof_H 	H 	0.5549	0.1978	0.4072	0.021
Mof_C 	C 	0.6557	0.3412	0.8398	-0.045
Mof_C 	C 	0.6332	0.4158	0.8474	-0.023
Mof_H 	H 	0.6373	0.4384	0.8745	0.025
Mof_C 	C 	0.40676	0.0472	0.4844	-0.293
Mof_C 	C 	0.4524	0.3393	0.4643	-0.789
Mof_H 	H 	0.4628	0.275	0.4629	0.236
Mof_H 	H 	0.4257	0.3346	0.4548	0.244
Mof_H 	H 	0.4597	0.3849	0.4468	0.25
Mof_C 	C 	0.7311	0.0016	0.6383	-0.083
Mof_H 	H 	0.745	0.9439	0.6471	0.057
Mof_C 	C 	0.4781	0.4667	0.566	0.324
Mof_C 	C 	0.6311	0.3104	0.3649	-0.066
Mof_H 	H 	0.6287	0.3214	0.337	0.048
Mof_C 	C 	0.6212	0.348	0.766	-0.125
Mof_H 	H 	0.6169	0.3265	0.7387	0.089
Mof_C 	C 	0.6937	0.1321	0.651	-0.047
Mof_H 	H 	0.6819	0.1608	0.668	0.054
Mof_C 	C 	0.6832	0.2983	0.8739	0.028
Mof_H 	H 	0.6857	0.3194	0.9008	0.03
Mof_C 	C 	0.6647	0.3356	0.3965	-0.004
Mof_H 	H 	0.6835	0.3653	0.3892	0.036
Mof_C 	C 	0.5993	0.4204	0.7732	0.021
Mof_H 	H 	0.5802	0.4473	0.7507	0.012
Mof_C 	C 	0.4348	0.093	0.5631	-0.884
Mof_H 	H 	0.4585	0.1176	0.581	0.273
Mof_H 	H 	0.4156	0.1393	0.5629	0.275
Mof_H 	H 	0.4299	0.03	0.5734	0.292
Mof_C 	C 	0.5794	0.0189	0.7216	-0.061
Mof_C 	C 	0.5595	0.0574	0.6805	0.052
Mof_H 	H 	0.5366	0.0299	0.6648	0.016
Mof_C 	C 	0.7142	0.0472	0.6641	-0.025
Mof_H 	H 	0.7169	0.0201	0.6902	0.036
Mof_C 	C 	0.6151	0.0566	0.7437	0.081
Mof_C 	C 	0.5647	0.9395	0.7386	-0.004
Mof_H 	H 	0.5411	0.915	0.7239	0.023
Mof_C 	C 	0.481	0.5396	0.6008	-0.825
Mof_H 	H 	0.4981	0.5145	0.6268	0.257
Mof_H 	H 	0.4899	0.6023	0.5945	0.262
Mof_H 	H 	0.4569	0.5485	0.6032	0.261
Mof_C 	C 	0.6046	0.4554	0.8135	-0.085
Mof_H 	H 	0.5893	0.5047	0.8177	0.046
Mof_C 	C 	0.6345	0.0124	0.7831	-0.136
Mof_H 	H 	0.658	0.0355	0.7991	0.093
Mof_C 	C 	0.6188	0.9363	0.7976	0.034
Mof_H 	H 	0.6319	0.9087	0.8237	0.015
Mof_C 	C 	0.5847	0.8996	0.7755	-0.1
Mof_H 	H 	0.5752	0.8463	0.786	0.055
Mof_C 	C 	0.36909	0.475	0.4955	0.383
Mof_C 	C 	0.37331	0.5273	0.4361	0.371
Mof_N 	N 	0.33849	0.4925	0.42972	-0.236
Mof_H 	H 	0.3209	0.4912	0.4057	0.115
Mof_N 	N 	0.335	0.4599	0.46607	-0.27
Mof_C 	C 	0.37526	0.4453	0.5386	-0.964
Mof_H 	H 	0.3526	0.4189	0.5406	0.291
Mof_H 	H 	0.3943	0.3954	0.547	0.302
Mof_H 	H 	0.3829	0.502	0.5567	0.311
Mof_C 	C 	0.383	0.57	0.4004	-0.911
Mof_H 	H 	0.3619	0.5645	0.3749	0.296
Mof_H 	H 	0.3897	0.6387	0.4059	0.316
Mof_H 	H 	0.4037	0.5341	0.3974	0.288
Mof_C 	C 	0.76144	0.9864	0.509	0.302
Mof_O 	O 	0.78146	0.9109	0.52358	-0.404
Mof_O 	O 	0.75726	0.0207	0.4733	-0.355
Mof_C 	C 	0.36751	0.019	0.4816	0.149
Mof_H 	H 	0.3689	0.9655	0.5012	-0.009
Mof_H 	H 	0.3541	0.9943	0.4536	-0.003
Mof_C 	C 	0.34646	0.1026	0.4907	-0.298
Mof_C 	C 	0.33318	0.1104	0.5235	0.373
Mof_C 	C 	0.33437	0.1892	0.4667	0.321
Mof_N 	N 	0.31483	0.1992	0.51855	-0.237
Mof_H 	H 	0.3042	0.2213	0.5354	0.152
Mof_N 	N 	0.31531	0.2478	0.48428	-0.25
Mof_C 	C 	0.33652	0.0444	0.56	-0.954
Mof_H 	H 	0.3501	0.9856	0.5583	0.318
Mof_H 	H 	0.3495	0.079	0.5856	0.304
Mof_H 	H 	0.3121	0.0262	0.5595	0.334
Mof_C 	C 	0.3412	0.2182	0.4273	-0.834
Mof_H 	H 	0.3296	0.281	0.4176	0.255
Mof_H 	H 	0.3676	0.2236	0.433	0.255
Mof_H 	H 	0.331	0.1686	0.4062	0.27
Mof_Co	Co	0.99039	0.31545	0.45786	1.152
Mof_Co	Co	0.71025	0.38202	0.03267	1.155
Mof_O 	O 	0.73787	0.3689	0.09969	-0.434
Mof_O 	O 	0.78171	0.3357	0.51576	-0.182
Mof_O 	O 	0.8815	0.2859	0.45806	-0.452
Mof_H 	H 	0.9018	0.2988	0.456	0.279
Mof_O 	O 	0.77608	0.3805	0.17904	-0.446
Mof_H 	H 	0.7595	0.3934	0.1568	0.283
Mof_O 	O 	0.97577	0.3761	0.40111	-0.48
Mof_O 	O 	0.95133	0.3215	0.48262	-0.478
Mof_N 	N 	0.044	0.4194	0.53132	-0.25
Mof_H 	H 	0.0291	0.4132	0.5452	0.135
Mof_O 	O 	0.98368	0.3453	0.55005	-0.334
Mof_O 	O 	0.93656	0.2583	0.39271	-0.405
Mof_O 	O 	0.76261	0.2982	0.0583	-0.384
Mof_C 	C 	0.79321	0.2742	0.13077	-0.194
Mof_N 	N 	0.03429	0.3983	0.49014	-0.268
Mof_O 	O 	0.87802	0.2473	0.32741	-0.456
Mof_H 	H 	0.8927	0.2328	0.3507	0.276
Mof_C 	C 	0.06472	0.419	0.4804	0.338
Mof_C 	C 	0.81837	0.2321	0.4718	-0.098
Mof_H 	H 	0.8026	0.1889	0.4813	0.081
Mof_H 	H 	0.8238	0.1979	0.4494	0.078
Mof_C 	C 	0.77918	0.3739	0.4783	0.141
Mof_C 	C 	0.76323	0.3173	0.09514	0.347
Mof_C 	C 	0.83333	0.3165	0.2496	-0.076
Mof_H 	H 	0.8293	0.264	0.2671	0.076
Mof_H 	H 	0.8143	0.3665	0.2467	0.077
Mof_N 	N 	0.0103	0.1768	0.45951	-0.266
Mof_C 	C 	0.8547	0.2475	0.5079	-0.075
Mof_C 	C 	0.95432	0.324	0.5214	0.378
Mof_C 	C 	0.92026	0.2963	0.531	-0.202
Mof_C 	C 	0.88537	0.2767	0.4988	0.248
Mof_C 	C 	0.9481	0.3294	0.3785	0.402
Mof_C 	C 	0.06708	0.9527	0.5005	0.165
Mof_H 	H 	0.057	0.9277	0.5212	-0.021
Mof_H 	H 	0.0668	0.8983	0.4816	-0.018
Mof_C 	C 	0.04172	0.0337	0.4757	-0.291
Mof_C 	C 	0.79839	0.3086	0.1727	0.233
Mof_C 	C 	0.85866	0.2272	0.5501	0.047
Mof_C 	C 	0.79643	0.3268	0.4537	-0.021
Mof_C 	C 	0.77294	0.457	0.401	0.018
Mof_N 	N 	0.00339	0.1184	0.4257	-0.229
Mof_H 	H 	0.9885	0.1345	0.4011	0.111
Mof_C 	C 	0.8499	0.1946	0.2007	0.07
Mof_C 	C 	0.03333	0.1237	0.4905	0.3
Mof_C 	C 	0.79282	0.3679	0.4138	0.016
Mof_C 	C 	0.75518	0.5018	0.4263	-0.035
Mof_H 	H 	0.7415	0.5596	0.4172	0.059
Mof_C 	C 	0.92644	0.367	0.3359	-0.232
Mof_C 	C 	0.8708	0.363	0.2726	-0.096
Mof_C 	C 	0.82729	0.2733	0.20674	-0.085
Mof_C 	C 	0.8932	0.2492	0.5838	-0.041
Mof_C 	C 	0.0786	0.4504	0.548	0.361
Mof_C 	C 	0.80999	0.3242	0.3869	-0.057
Mof_H 	H 	0.8237	0.266	0.395	0.063
Mof_C 	C 	0.8299	0.1826	0.5627	-0.098
Mof_H 	H 	0.8072	0.166	0.5423	0.083
Mof_C 	C 	0.89187	0.3264	0.3117	0.244
Mof_C 	C 	0.10658	0.9832	0.5226	-0.331
Mof_C 	C 	0.75769	0.4619	0.4641	-0.1
Mof_C 	C 	0.0962	0.4768	0.5932	-0.918
Mof_H 	H 	0.0786	0.4667	0.6073	0.301
Mof_H 	H 	0.1038	0.5452	0.5956	0.308
Mof_H 	H 	0.1176	0.4354	0.6058	0.288
Mof_C 	C 	0.8986	0.2303	0.6262	-0.044
Mof_H 	H 	0.9211	0.2445	0.6474	0.031
Mof_C 	C 	0.92283	0.2852	0.5719	0.019
Mof_H 	H 	0.9451	0.3022	0.5928	0.021
Mof_C 	C 	0.8443	0.1588	0.1602	-0.044
Mof_C 	C 	0.8668	0.0842	0.1526	-0.024
Mof_H 	H 	0.8627	0.0616	0.1255	0.026
Mof_C 	C 	0.09324	0.4528	0.5156	-0.293
Mof_C 	C 	0.0476	0.1607	0.5357	-0.789
Mof_H 	H 	0.0372	0.225	0.5371	0.236
Mof_H 	H 	0.0743	0.1654	0.5452	0.244
Mof_H 	H 	0.0403	0.1151	0.5532	0.25
Mof_C 	C 	0.7689	0.4984	0.3617	-0.082
Mof_H 	H 	0.755	0.5561	0.3529	0.057
Mof_C 	C 	0.0219	0.0333	0.434	0.324
Mof_C 	C 	0.8689	0.1896	0.6351	-0.066
Mof_H 	H 	0.8713	0.1786	0.663	0.048
Mof_C 	C 	0.8788	0.152	0.234	-0.124
Mof_H 	H 	0.8831	0.1735	0.2613	0.089
Mof_C 	C 	0.8063	0.3679	0.349	-0.047
Mof_H 	H 	0.8181	0.3392	0.332	0.054
Mof_C 	C 	0.8168	0.2017	0.1261	0.027
Mof_H 	H 	0.8143	0.1806	0.0992	0.03
Mof_C 	C 	0.8353	0.1644	0.6035	-0.004
Mof_H 	H 	0.8165	0.1347	0.6108	0.036
Mof_C 	C 	0.9007	0.0796	0.2268	0.019
Mof_H 	H 	0.9198	0.0527	0.2493	0.012
Mof_C 	C 	0.0652	0.407	0.4369	-0.884
Mof_H 	H 	0.0415	0.3824	0.419	0.273
Mof_H 	H 	0.0844	0.3607	0.4371	0.275
Mof_H 	H 	0.0701	0.47	0.4266	0.292
Mof_C 	C 	0.9206	0.4811	0.2784	-0.06
Mof_C 	C 	0.9405	0.4426	0.3195	0.051
Mof_H 	H 	0.9634	0.4701	0.3352	0.016
Mof_C 	C 	0.7858	0.4528	0.3359	-0.026
Mof_H 	H 	0.7831	0.4799	0.3098	0.036
Mof_C 	C 	0.8849	0.4434	0.2563	0.08
Mof_C 	C 	0.9353	0.5605	0.2614	-0.006
Mof_H 	H 	0.9589	0.585	0.2761	0.024
Mof_C 	C 	0.019	0.9604	0.3992	-0.826
Mof_H 	H 	0.0019	0.9855	0.3732	0.257
Mof_H 	H 	0.0101	0.8977	0.4055	0.262
Mof_H 	H 	0.0431	0.9515	0.3968	0.261
Mof_C 	C 	0.8954	0.0446	0.1865	-0.083
Mof_H 	H 	0.9107	0.9953	0.1823	0.045
Mof_C 	C 	0.8655	0.4876	0.2169	-0.134
Mof_H 	H 	0.842	0.4645	0.2009	0.092
Mof_C 	C 	0.8812	0.5637	0.2024	0.032
Mof_H 	H 	0.8681	0.5913	0.1763	0.015
Mof_C 	C 	0.9153	0.6004	0.2245	-0.098
Mof_H 	H 	0.9248	0.6537	0.214	0.055
Mof_C 	C 	0.13091	0.025	0.5045	0.383
Mof_C 	C 	0.12669	0.9727	0.5639	0.371
Mof_N 	N 	0.16151	0.0075	0.57028	-0.236
Mof_H 	H 	0.1791	0.0088	0.5943	0.115
Mof_N 	N 	0.165	0.0401	0.53393	-0.27
Mof_C 	C 	0.12474	0.0547	0.4614	-0.963
Mof_H 	H 	0.1474	0.0811	0.4594	0.291
Mof_H 	H 	0.1057	0.1046	0.453	0.302
Mof_H 	H 	0.1171	0.998	0.4433	0.311
Mof_C 	C 	0.117	0.93	0.5996	-0.911
Mof_H 	H 	0.1381	0.9355	0.6251	0.296
Mof_H 	H 	0.1103	0.8613	0.5941	0.316
Mof_H 	H 	0.0963	0.9659	0.6026	0.289
Mof_C 	C 	0.73856	0.5136	0.491	0.302
Mof_O 	O 	0.71854	0.5891	0.47642	-0.404
Mof_O 	O 	0.74274	0.4793	0.5267	-0.355
Mof_C 	C 	0.13249	0.481	0.5184	0.148
Mof_H 	H 	0.1311	0.5345	0.4988	-0.008
Mof_H 	H 	0.1459	0.5057	0.5464	-0.003
Mof_C 	C 	0.15354	0.3974	0.5093	-0.298
Mof_C 	C 	0.16682	0.3896	0.4765	0.372
Mof_C 	C 	0.16563	0.3108	0.5333	0.321
Mof_N 	N 	0.18517	0.3008	0.48145	-0.237
Mof_H 	H 	0.1958	0.2787	0.4646	0.152
Mof_N 	N 	0.18469	0.2522	0.51572	-0.25
Mof_C 	C 	0.16348	0.4556	0.44	-0.954
Mof_H 	H 	0.1499	0.5144	0.4417	0.318
Mof_H 	H 	0.1505	0.421	0.4144	0.304
Mof_H 	H 	0.1879	0.4738	0.4405	0.334
Mof_C 	C 	0.1588	0.2818	0.5727	-0.834
Mof_H 	H 	0.1704	0.219	0.5824	0.255
Mof_H 	H 	0.1324	0.2764	0.567	0.255
Mof_H 	H 	0.169	0.3314	0.5938	0.27
Mof_Co	Co	0.49039	0.81545	0.45786	1.152
Mof_Co	Co	0.21025	0.88202	0.03267	1.154
Mof_O 	O 	0.23787	0.8689	0.09969	-0.434
Mof_O 	O 	0.28171	0.8357	0.51576	-0.182
Mof_O 	O 	0.3815	0.7859	0.45806	-0.452
Mof_H 	H 	0.4018	0.7988	0.456	0.279
Mof_O 	O 	0.27608	0.8805	0.17904	-0.447
Mof_H 	H 	0.2595	0.8934	0.1568	0.283
Mof_O 	O 	0.47577	0.8761	0.40111	-0.48
Mof_O 	O 	0.45133	0.8215	0.48262	-0.478
Mof_N 	N 	0.544	0.9194	0.53132	-0.25
Mof_H 	H 	0.5291	0.9132	0.5452	0.135
Mof_O 	O 	0.48368	0.8453	0.55005	-0.334
Mof_O 	O 	0.43656	0.7583	0.39271	-0.406
Mof_O 	O 	0.26261	0.7982	0.0583	-0.384
Mof_C 	C 	0.29321	0.7742	0.13077	-0.194
Mof_N 	N 	0.53429	0.8983	0.49014	-0.268
Mof_O 	O 	0.37802	0.7473	0.32741	-0.456
Mof_H 	H 	0.3927	0.7328	0.3507	0.276
Mof_C 	C 	0.56472	0.919	0.4804	0.338
Mof_C 	C 	0.31837	0.7321	0.4718	-0.097
Mof_H 	H 	0.3026	0.6889	0.4813	0.081
Mof_H 	H 	0.3238	0.6979	0.4494	0.078
Mof_C 	C 	0.27918	0.8739	0.4783	0.141
Mof_C 	C 	0.26323	0.8173	0.09514	0.347
Mof_C 	C 	0.33333	0.8165	0.2496	-0.075
Mof_H 	H 	0.3293	0.764	0.2671	0.076
Mof_H 	H 	0.3143	0.8665	0.2467	0.077
Mof_N 	N 	0.5103	0.6768	0.45951	-0.266
Mof_C 	C 	0.3547	0.7475	0.5079	-0.075
Mof_C 	C 	0.45432	0.824	0.5214	0.378
Mof_C 	C 	0.42026	0.7963	0.531	-0.202
Mof_C 	C 	0.38537	0.7767	0.4988	0.248
Mof_C 	C 	0.4481	0.8294	0.3785	0.402
Mof_C 	C 	0.56708	0.4527	0.5005	0.165
Mof_H 	H 	0.557	0.4277	0.5212	-0.021
Mof_H 	H 	0.5668	0.3983	0.4816	-0.018
Mof_C 	C 	0.54172	0.5337	0.4757	-0.291
Mof_C 	C 	0.29839	0.8086	0.1727	0.233
Mof_C 	C 	0.35866	0.7272	0.5501	0.047
Mof_C 	C 	0.29643	0.8268	0.4537	-0.021
Mof_C 	C 	0.27294	0.957	0.401	0.018
Mof_N 	N 	0.50339	0.6184	0.4257	-0.229
Mof_H 	H 	0.4885	0.6345	0.4011	0.111
Mof_C 	C 	0.3499	0.6946	0.2007	0.071
Mof_C 	C 	0.53333	0.6237	0.4905	0.3
Mof_C 	C 	0.29282	0.8679	0.4138	0.016
Mof_C 	C 	0.25518	0.0018	0.4263	-0.034
Mof_H 	H 	0.2415	0.0596	0.4172	0.059
Mof_C 	C 	0.42644	0.867	0.3359	-0.233
Mof_C 	C 	0.3708	0.863	0.2726	-0.096
Mof_C 	C 	0.32729	0.7733	0.20674	-0.085
Mof_C 	C 	0.3932	0.7492	0.5838	-0.041
Mof_C 	C 	0.5786	0.9504	0.548	0.361
Mof_C 	C 	0.30999	0.8242	0.3869	-0.057
Mof_H 	H 	0.3237	0.766	0.395	0.063
Mof_C 	C 	0.3299	0.6826	0.5627	-0.098
Mof_H 	H 	0.3072	0.666	0.5423	0.083
Mof_C 	C 	0.39187	0.8264	0.3117	0.245
Mof_C 	C 	0.60658	0.4832	0.5226	-0.331
Mof_C 	C 	0.25769	0.9619	0.4641	-0.1
Mof_C 	C 	0.5962	0.9768	0.5932	-0.918
Mof_H 	H 	0.5786	0.9667	0.6073	0.301
Mof_H 	H 	0.6038	0.0452	0.5956	0.308
Mof_H 	H 	0.6176	0.9354	0.6058	0.288
Mof_C 	C 	0.3986	0.7303	0.6262	-0.044
Mof_H 	H 	0.4211	0.7445	0.6474	0.031
Mof_C 	C 	0.42283	0.7852	0.5719	0.019
Mof_H 	H 	0.4451	0.8022	0.5928	0.021
Mof_C 	C 	0.3443	0.6588	0.1602	-0.045
Mof_C 	C 	0.3668	0.5842	0.1526	-0.023
Mof_H 	H 	0.3627	0.5616	0.1255	0.025
Mof_C 	C 	0.59324	0.9528	0.5156	-0.293
Mof_C 	C 	0.5476	0.6607	0.5357	-0.789
Mof_H 	H 	0.5372	0.725	0.5371	0.236
Mof_H 	H 	0.5743	0.6654	0.5452	0.244
Mof_H 	H 	0.5403	0.6151	0.5532	0.25
Mof_C 	C 	0.2689	0.9984	0.3617	-0.083
Mof_H 	H 	0.255	0.0561	0.3529	0.057
Mof_C 	C 	0.5219	0.5333	0.434	0.324
Mof_C 	C 	0.3689	0.6896	0.6351	-0.066
Mof_H 	H 	0.3713	0.6786	0.663	0.048
Mof_C 	C 	0.3788	0.652	0.234	-0.125
Mof_H 	H 	0.3831	0.6735	0.2613	0.089
Mof_C 	C 	0.3063	0.8679	0.349	-0.047
Mof_H 	H 	0.3181	0.8392	0.332	0.054
Mof_C 	C 	0.3168	0.7017	0.1261	0.028
Mof_H 	H 	0.3143	0.6806	0.0992	0.03
Mof_C 	C 	0.3353	0.6644	0.6035	-0.004
Mof_H 	H 	0.3165	0.6347	0.6108	0.036
Mof_C 	C 	0.4007	0.5796	0.2268	0.021
Mof_H 	H 	0.4198	0.5527	0.2493	0.012
Mof_C 	C 	0.5652	0.907	0.4369	-0.884
Mof_H 	H 	0.5415	0.8824	0.419	0.273
Mof_H 	H 	0.5844	0.8607	0.4371	0.275
Mof_H 	H 	0.5701	0.97	0.4266	0.292
Mof_C 	C 	0.4206	0.9811	0.2784	-0.061
Mof_C 	C 	0.4405	0.9426	0.3195	0.052
Mof_H 	H 	0.4634	0.9701	0.3352	0.016
Mof_C 	C 	0.2858	0.9528	0.3359	-0.025
Mof_H 	H 	0.2831	0.9799	0.3098	0.036
Mof_C 	C 	0.3849	0.9434	0.2563	0.081
Mof_C 	C 	0.4353	0.0605	0.2614	-0.004
Mof_H 	H 	0.4589	0.085	0.2761	0.023
Mof_C 	C 	0.519	0.4604	0.3992	-0.825
Mof_H 	H 	0.5019	0.4855	0.3732	0.257
Mof_H 	H 	0.5101	0.3977	0.4055	0.262
Mof_H 	H 	0.5431	0.4515	0.3968	0.261
Mof_C 	C 	0.3954	0.5446	0.1865	-0.085
Mof_H 	H 	0.4107	0.4953	0.1823	0.046
Mof_C 	C 	0.3655	0.9876	0.2169	-0.136
Mof_H 	H 	0.342	0.9645	0.2009	0.093
Mof_C 	C 	0.3812	0.0637	0.2024	0.034
Mof_H 	H 	0.3681	0.0913	0.1763	0.015
Mof_C 	C 	0.4153	0.1004	0.2245	-0.1
Mof_H 	H 	0.4248	0.1537	0.214	0.055
Mof_C 	C 	0.63091	0.525	0.5045	0.383
Mof_C 	C 	0.62669	0.4727	0.5639	0.371
Mof_N 	N 	0.66151	0.5075	0.57028	-0.236
Mof_H 	H 	0.6791	0.5088	0.5943	0.115
Mof_N 	N 	0.665	0.5401	0.53393	-0.27
Mof_C 	C 	0.62474	0.5547	0.4614	-0.964
Mof_H 	H 	0.6474	0.5811	0.4594	0.291
Mof_H 	H 	0.6057	0.6046	0.453	0.302
Mof_H 	H 	0.6171	0.498	0.4433	0.311
Mof_C 	C 	0.617	0.43	0.5996	-0.911
Mof_H 	H 	0.6381	0.4355	0.6251	0.296
Mof_H 	H 	0.6103	0.3613	0.5941	0.316
Mof_H 	H 	0.5963	0.4659	0.6026	0.288
Mof_C 	C 	0.23856	0.0136	0.491	0.302
Mof_O 	O 	0.21854	0.0891	0.47642	-0.404
Mof_O 	O 	0.24274	0.9793	0.5267	-0.355
Mof_C 	C 	0.63249	0.981	0.5184	0.149
Mof_H 	H 	0.6311	0.0345	0.4988	-0.009
Mof_H 	H 	0.6459	0.0057	0.5464	-0.003
Mof_C 	C 	0.65354	0.8974	0.5093	-0.298
Mof_C 	C 	0.66682	0.8896	0.4765	0.373
Mof_C 	C 	0.66563	0.8108	0.5333	0.321
Mof_N 	N 	0.68517	0.8008	0.48145	-0.237
Mof_H 	H 	0.6958	0.7787	0.4646	0.152
Mof_N 	N 	0.68469	0.7522	0.51572	-0.25
Mof_C 	C 	0.66348	0.9556	0.44	-0.954
Mof_H 	H 	0.6499	0.0144	0.4417	0.318
Mof_H 	H 	0.6505	0.921	0.4144	0.304
Mof_H 	H 	0.6879	0.9738	0.4405	0.334
Mof_C 	C 	0.6588	0.7818	0.5727	-0.834
Mof_H 	H 	0.6704	0.719	0.5824	0.255
Mof_H 	H 	0.6324	0.7764	0.567	0.255
Mof_H 	H 	0.669	0.8314	0.5938	0.27
Mof_Co	Co	0.99039	0.68455	0.95786	1.152
Mof_Co	Co	0.71025	0.61798	0.53267	1.155
Mof_O 	O 	0.73787	0.6311	0.59969	-0.434
Mof_O 	O 	0.78171	0.6643	0.01576	-0.182
Mof_O 	O 	0.8815	0.7141	0.95806	-0.453
Mof_H 	H 	0.9018	0.7012	0.956	0.279
Mof_O 	O 	0.77608	0.6195	0.67904	-0.446
Mof_H 	H 	0.7595	0.6066	0.6568	0.283
Mof_O 	O 	0.97577	0.6239	0.90111	-0.48
Mof_O 	O 	0.95133	0.6785	0.98262	-0.478
Mof_N 	N 	0.044	0.5806	0.03132	-0.25
Mof_H 	H 	0.0291	0.5868	0.0452	0.135
Mof_O 	O 	0.98368	0.6547	0.05005	-0.334
Mof_O 	O 	0.93656	0.7417	0.89271	-0.405
Mof_O 	O 	0.76261	0.7018	0.5583	-0.384
Mof_C 	C 	0.79321	0.7258	0.63077	-0.194
Mof_N 	N 	0.03429	0.6017	0.99014	-0.268
Mof_O 	O 	0.87802	0.7527	0.82741	-0.456
Mof_H 	H 	0.8927	0.7672	0.8507	0.276
Mof_C 	C 	0.06472	0.581	0.9804	0.339
Mof_C 	C 	0.81837	0.7679	0.9718	-0.097
Mof_H 	H 	0.8026	0.8111	0.9813	0.081
Mof_H 	H 	0.8238	0.8021	0.9494	0.078
Mof_C 	C 	0.77918	0.6261	0.9783	0.141
Mof_C 	C 	0.76323	0.6827	0.59514	0.347
Mof_C 	C 	0.83333	0.6835	0.7496	-0.076
Mof_H 	H 	0.8293	0.736	0.7671	0.076
Mof_H 	H 	0.8143	0.6335	0.7467	0.077
Mof_N 	N 	0.0103	0.8232	0.95951	-0.266
Mof_C 	C 	0.8547	0.7525	0.0079	-0.075
Mof_C 	C 	0.95432	0.676	0.0214	0.378
Mof_C 	C 	0.92026	0.7037	0.031	-0.202
Mof_C 	C 	0.88537	0.7233	0.9988	0.248
Mof_C 	C 	0.9481	0.6706	0.8785	0.402
Mof_C 	C 	0.06708	0.0473	0.0005	0.164
Mof_H 	H 	0.057	0.0723	0.0212	-0.021
Mof_H 	H 	0.0668	0.1017	0.9816	-0.018
Mof_C 	C 	0.04172	0.9663	0.9757	-0.291
Mof_C 	C 	0.79839	0.6914	0.6727	0.233
Mof_C 	C 	0.85866	0.7728	0.0501	0.047
Mof_C 	C 	0.79643	0.6732	0.9537	-0.021
Mof_C 	C 	0.77294	0.543	0.901	0.018
Mof_N 	N 	0.00339	0.8816	0.9257	-0.229
Mof_H 	H 	0.9885	0.8655	0.9011	0.111
Mof_C 	C 	0.8499	0.8054	0.7007	0.07
Mof_C 	C 	0.03333	0.8763	0.9905	0.301
Mof_C 	C 	0.79282	0.6321	0.9138	0.016
Mof_C 	C 	0.75518	0.4982	0.9263	-0.035
Mof_H 	H 	0.7415	0.4404	0.9172	0.059
Mof_C 	C 	0.92644	0.633	0.8359	-0.232
Mof_C 	C 	0.8708	0.637	0.7726	-0.096
Mof_C 	C 	0.82729	0.7267	0.70674	-0.085
Mof_C 	C 	0.8932	0.7508	0.0838	-0.041
Mof_C 	C 	0.0786	0.5496	0.048	0.361
Mof_C 	C 	0.80999	0.6758	0.8869	-0.057
Mof_H 	H 	0.8237	0.734	0.895	0.063
Mof_C 	C 	0.8299	0.8174	0.0627	-0.098
Mof_H 	H 	0.8072	0.834	0.0423	0.083
Mof_C 	C 	0.89187	0.6736	0.8117	0.244
Mof_C 	C 	0.10658	0.0168	0.0226	-0.329
Mof_C 	C 	0.75769	0.5381	0.9641	-0.1
Mof_C 	C 	0.0962	0.5232	0.0932	-0.918
Mof_H 	H 	0.0786	0.5333	0.1073	0.301
Mof_H 	H 	0.1038	0.4548	0.0956	0.308
Mof_H 	H 	0.1176	0.5646	0.1058	0.288
Mof_C 	C 	0.8986	0.7697	0.1262	-0.044
Mof_H 	H 	0.9211	0.7555	0.1474	0.031
Mof_C 	C 	0.92283	0.7148	0.0719	0.019
Mof_H 	H 	0.9451	0.6978	0.0928	0.021
Mof_C 	C 	0.8443	0.8412	0.6602	-0.044
Mof_C 	C 	0.8668	0.9158	0.6526	-0.024
Mof_H 	H 	0.8627	0.9384	0.6255	0.025
Mof_C 	C 	0.09324	0.5472	0.0156	-0.293
Mof_C 	C 	0.0476	0.8393	0.0357	-0.79
Mof_H 	H 	0.0372	0.775	0.0371	0.236
Mof_H 	H 	0.0743	0.8346	0.0452	0.245
Mof_H 	H 	0.0403	0.8849	0.0532	0.251
Mof_C 	C 	0.7689	0.5016	0.8617	-0.082
Mof_H 	H 	0.755	0.4439	0.8529	0.057
Mof_C 	C 	0.0219	0.9667	0.934	0.325
Mof_C 	C 	0.8689	0.8104	0.1351	-0.066
Mof_H 	H 	0.8713	0.8214	0.163	0.048
Mof_C 	C 	0.8788	0.848	0.734	-0.125
Mof_H 	H 	0.8831	0.8265	0.7613	0.089
Mof_C 	C 	0.8063	0.6321	0.849	-0.047
Mof_H 	H 	0.8181	0.6608	0.832	0.054
Mof_C 	C 	0.8168	0.7983	0.6261	0.027
Mof_H 	H 	0.8143	0.8194	0.5992	0.03
Mof_C 	C 	0.8353	0.8356	0.1035	-0.004
Mof_H 	H 	0.8165	0.8653	0.1108	0.036
Mof_C 	C 	0.9007	0.9204	0.7268	0.02
Mof_H 	H 	0.9198	0.9473	0.7493	0.012
Mof_C 	C 	0.0652	0.593	0.9369	-0.885
Mof_H 	H 	0.0415	0.6176	0.919	0.273
Mof_H 	H 	0.0844	0.6393	0.9371	0.275
Mof_H 	H 	0.0701	0.53	0.9266	0.292
Mof_C 	C 	0.9206	0.5189	0.7784	-0.06
Mof_C 	C 	0.9405	0.5574	0.8195	0.051
Mof_H 	H 	0.9634	0.5299	0.8352	0.016
Mof_C 	C 	0.7858	0.5472	0.8359	-0.026
Mof_H 	H 	0.7831	0.5201	0.8098	0.036
Mof_C 	C 	0.8849	0.5566	0.7563	0.08
Mof_C 	C 	0.9353	0.4395	0.7614	-0.006
Mof_H 	H 	0.9589	0.415	0.7761	0.024
Mof_C 	C 	0.019	0.0396	0.8992	-0.827
Mof_H 	H 	0.0019	0.0145	0.8732	0.257
Mof_H 	H 	0.0101	0.1023	0.9055	0.262
Mof_H 	H 	0.0431	0.0485	0.8968	0.261
Mof_C 	C 	0.8954	0.9554	0.6865	-0.083
Mof_H 	H 	0.9107	0.0047	0.6823	0.046
Mof_C 	C 	0.8655	0.5124	0.7169	-0.134
Mof_H 	H 	0.842	0.5355	0.7009	0.092
Mof_C 	C 	0.8812	0.4363	0.7024	0.032
Mof_H 	H 	0.8681	0.4087	0.6763	0.015
Mof_C 	C 	0.9153	0.3996	0.7245	-0.098
Mof_H 	H 	0.9248	0.3463	0.714	0.055
Mof_C 	C 	0.13091	0.975	0.0045	0.38
Mof_C 	C 	0.12669	0.0273	0.0639	0.371
Mof_N 	N 	0.16151	0.9925	0.07028	-0.236
Mof_H 	H 	0.1791	0.9912	0.0943	0.115
Mof_N 	N 	0.165	0.9599	0.03393	-0.269
Mof_C 	C 	0.12474	0.9453	0.9614	-0.957
Mof_H 	H 	0.1474	0.9189	0.9594	0.29
Mof_H 	H 	0.1057	0.8954	0.953	0.3
Mof_H 	H 	0.1171	0.002	0.9433	0.308
Mof_C 	C 	0.117	0.07	0.0996	-0.911
Mof_H 	H 	0.1381	0.0645	0.1251	0.296
Mof_H 	H 	0.1103	0.1387	0.0941	0.316
Mof_H 	H 	0.0963	0.0341	0.1026	0.288
Mof_C 	C 	0.73856	0.4864	0.991	0.302
Mof_O 	O 	0.71854	0.4109	0.97642	-0.404
Mof_O 	O 	0.74274	0.5207	0.0267	-0.355
Mof_C 	C 	0.13249	0.519	0.0184	0.148
Mof_H 	H 	0.1311	0.4655	0.9988	-0.008
Mof_H 	H 	0.1459	0.4943	0.0464	-0.003
Mof_C 	C 	0.15354	0.6026	0.0093	-0.299
Mof_C 	C 	0.16682	0.6104	0.9765	0.373
Mof_C 	C 	0.16563	0.6892	0.0333	0.321
Mof_N 	N 	0.18517	0.6992	0.98145	-0.236
Mof_H 	H 	0.1958	0.7213	0.9646	0.152
Mof_N 	N 	0.18469	0.7478	0.01572	-0.251
Mof_C 	C 	0.16348	0.5444	0.94	-0.954
Mof_H 	H 	0.1499	0.4856	0.9417	0.318
Mof_H 	H 	0.1505	0.579	0.9144	0.304
Mof_H 	H 	0.1879	0.5262	0.9405	0.334
Mof_C 	C 	0.1588	0.7182	0.0727	-0.834
Mof_H 	H 	0.1704	0.781	0.0824	0.255
Mof_H 	H 	0.1324	0.7236	0.067	0.255
Mof_H 	H 	0.169	0.6686	0.0938	0.27
Mof_Co	Co	0.49039	0.18455	0.95786	1.152
Mof_Co	Co	0.21025	0.11798	0.53267	1.155
Mof_O 	O 	0.23787	0.1311	0.59969	-0.434
Mof_O 	O 	0.28171	0.1643	0.01576	-0.182
Mof_O 	O 	0.3815	0.2141	0.95806	-0.452
Mof_H 	H 	0.4018	0.2012	0.956	0.279
Mof_O 	O 	0.27608	0.1195	0.67904	-0.447
Mof_H 	H 	0.2595	0.1066	0.6568	0.283
Mof_O 	O 	0.47577	0.1239	0.90111	-0.48
Mof_O 	O 	0.45133	0.1785	0.98262	-0.478
Mof_N 	N 	0.544	0.0806	0.03132	-0.25
Mof_H 	H 	0.5291	0.0868	0.0452	0.135
Mof_O 	O 	0.48368	0.1547	0.05005	-0.334
Mof_O 	O 	0.43656	0.2417	0.89271	-0.406
Mof_O 	O 	0.26261	0.2018	0.5583	-0.384
Mof_C 	C 	0.29321	0.2258	0.63077	-0.194
Mof_N 	N 	0.53429	0.1017	0.99014	-0.268
Mof_O 	O 	0.37802	0.2527	0.82741	-0.456
Mof_H 	H 	0.3927	0.2672	0.8507	0.276
Mof_C 	C 	0.56472	0.081	0.9804	0.337
Mof_C 	C 	0.31837	0.2679	0.9718	-0.098
Mof_H 	H 	0.3026	0.3111	0.9813	0.081
Mof_H 	H 	0.3238	0.3021	0.9494	0.078
Mof_C 	C 	0.27918	0.1261	0.9783	0.142
Mof_C 	C 	0.26323	0.1827	0.59514	0.347
Mof_C 	C 	0.33333	0.1835	0.7496	-0.075
Mof_H 	H 	0.3293	0.236	0.7671	0.076
Mof_H 	H 	0.3143	0.1335	0.7467	0.077
Mof_N 	N 	0.5103	0.3232	0.95951	-0.266
Mof_C 	C 	0.3547	0.2525	0.0079	-0.074
Mof_C 	C 	0.45432	0.176	0.0214	0.378
Mof_C 	C 	0.42026	0.2037	0.031	-0.201
Mof_C 	C 	0.38537	0.2233	0.9988	0.247
Mof_C 	C 	0.4481	0.1706	0.8785	0.402
Mof_C 	C 	0.56708	0.5473	0.0005	0.165
Mof_H 	H 	0.557	0.5723	0.0212	-0.021
Mof_H 	H 	0.5668	0.6017	0.9816	-0.018
Mof_C 	C 	0.54172	0.4663	0.9757	-0.291
Mof_C 	C 	0.29839	0.1914	0.6727	0.233
Mof_C 	C 	0.35866	0.2728	0.0501	0.046
Mof_C 	C 	0.29643	0.1732	0.9537	-0.021
Mof_C 	C 	0.27294	0.043	0.901	0.017
Mof_N 	N 	0.50339	0.3816	0.9257	-0.229
Mof_H 	H 	0.4885	0.3655	0.9011	0.111
Mof_C 	C 	0.3499	0.3054	0.7007	0.071
Mof_C 	C 	0.53333	0.3763	0.9905	0.3
Mof_C 	C 	0.29282	0.1321	0.9138	0.017
Mof_C 	C 	0.25518	0.9982	0.9263	-0.033
Mof_H 	H 	0.2415	0.9404	0.9172	0.058
Mof_C 	C 	0.42644	0.133	0.8359	-0.233
Mof_C 	C 	0.3708	0.137	0.7726	-0.096
Mof_C 	C 	0.32729	0.2267	0.70674	-0.085
Mof_C 	C 	0.3932	0.2508	0.0838	-0.04
Mof_C 	C 	0.5786	0.0496	0.048	0.361
Mof_C 	C 	0.30999	0.1758	0.8869	-0.057
Mof_H 	H 	0.3237	0.234	0.895	0.063
Mof_C 	C 	0.3299	0.3174	0.0627	-0.097
Mof_H 	H 	0.3072	0.334	0.0423	0.083
Mof_C 	C 	0.39187	0.1736	0.8117	0.245
Mof_C 	C 	0.60658	0.5168	0.0226	-0.331
Mof_C 	C 	0.25769	0.0381	0.9641	-0.101
Mof_C 	C 	0.5962	0.0232	0.0932	-0.916
Mof_H 	H 	0.5786	0.0333	0.1073	0.3
Mof_H 	H 	0.6038	0.9548	0.0956	0.307
Mof_H 	H 	0.6176	0.0646	0.1058	0.288
Mof_C 	C 	0.3986	0.2697	0.1262	-0.045
Mof_H 	H 	0.4211	0.2555	0.1474	0.031
Mof_C 	C 	0.42283	0.2148	0.0719	0.019
Mof_H 	H 	0.4451	0.1978	0.0928	0.021
Mof_C 	C 	0.3443	0.3412	0.6602	-0.045
Mof_C 	C 	0.3668	0.4158	0.6526	-0.023
Mof_H 	H 	0.3627	0.4384	0.6255	0.025
Mof_C 	C 	0.59324	0.0472	0.0156	-0.292
Mof_C 	C 	0.5476	0.3393	0.0357	-0.789
Mof_H 	H 	0.5372	0.275	0.0371	0.236
Mof_H 	H 	0.5743	0.3346	0.0452	0.244
Mof_H 	H 	0.5403	0.3849	0.0532	0.25
Mof_C 	C 	0.2689	0.0016	0.8617	-0.083
Mof_H 	H 	0.255	0.9439	0.8529	0.057
Mof_C 	C 	0.5219	0.4667	0.934	0.324
Mof_C 	C 	0.3689	0.3104	0.1351	-0.065
Mof_H 	H 	0.3713	0.3214	0.163	0.048
Mof_C 	C 	0.3788	0.348	0.734	-0.125
Mof_H 	H 	0.3831	0.3265	0.7613	0.089
Mof_C 	C 	0.3063	0.1321	0.849	-0.047
Mof_H 	H 	0.3181	0.1608	0.832	0.054
Mof_C 	C 	0.3168	0.2983	0.6261	0.028
Mof_H 	H 	0.3143	0.3194	0.5992	0.03
Mof_C 	C 	0.3353	0.3356	0.1035	-0.004
Mof_H 	H 	0.3165	0.3653	0.1108	0.036
Mof_C 	C 	0.4007	0.4204	0.7268	0.021
Mof_H 	H 	0.4198	0.4473	0.7493	0.012
Mof_C 	C 	0.5652	0.093	0.9369	-0.883
Mof_H 	H 	0.5415	0.1176	0.919	0.272
Mof_H 	H 	0.5844	0.1393	0.9371	0.275
Mof_H 	H 	0.5701	0.03	0.9266	0.291
Mof_C 	C 	0.4206	0.0189	0.7784	-0.061
Mof_C 	C 	0.4405	0.0574	0.8195	0.051
Mof_H 	H 	0.4634	0.0299	0.8352	0.016
Mof_C 	C 	0.2858	0.0472	0.8359	-0.026
Mof_H 	H 	0.2831	0.0201	0.8098	0.036
Mof_C 	C 	0.3849	0.0566	0.7563	0.081
Mof_C 	C 	0.4353	0.9395	0.7614	-0.004
Mof_H 	H 	0.4589	0.915	0.7761	0.023
Mof_C 	C 	0.519	0.5396	0.8992	-0.825
Mof_H 	H 	0.5019	0.5145	0.8732	0.257
Mof_H 	H 	0.5101	0.6023	0.9055	0.262
Mof_H 	H 	0.5431	0.5485	0.8968	0.261
Mof_C 	C 	0.3954	0.4554	0.6865	-0.085
Mof_H 	H 	0.4107	0.5047	0.6823	0.046
Mof_C 	C 	0.3655	0.0124	0.7169	-0.136
Mof_H 	H 	0.342	0.0355	0.7009	0.093
Mof_C 	C 	0.3812	0.9363	0.7024	0.034
Mof_H 	H 	0.3681	0.9087	0.6763	0.015
Mof_C 	C 	0.4153	0.8996	0.7245	-0.1
Mof_H 	H 	0.4248	0.8463	0.714	0.055
Mof_C 	C 	0.63091	0.475	0.0045	0.383
Mof_C 	C 	0.62669	0.5273	0.0639	0.371
Mof_N 	N 	0.66151	0.4925	0.07028	-0.236
Mof_H 	H 	0.6791	0.4912	0.0943	0.115
Mof_N 	N 	0.665	0.4599	0.03393	-0.27
Mof_C 	C 	0.62474	0.4453	0.9614	-0.964
Mof_H 	H 	0.6474	0.4189	0.9594	0.291
Mof_H 	H 	0.6057	0.3954	0.953	0.302
Mof_H 	H 	0.6171	0.502	0.9433	0.311
Mof_C 	C 	0.617	0.57	0.0996	-0.911
Mof_H 	H 	0.6381	0.5645	0.1251	0.296
Mof_H 	H 	0.6103	0.6387	0.0941	0.316
Mof_H 	H 	0.5963	0.5341	0.1026	0.288
Mof_C 	C 	0.23856	0.9864	0.991	0.303
Mof_O 	O 	0.21854	0.9109	0.97642	-0.404
Mof_O 	O 	0.24274	0.0207	0.0267	-0.356
Mof_C 	C 	0.63249	0.019	0.0184	0.149
Mof_H 	H 	0.6311	0.9655	0.9988	-0.009
Mof_H 	H 	0.6459	0.9943	0.0464	-0.003
Mof_C 	C 	0.65354	0.1026	0.0093	-0.298
Mof_C 	C 	0.66682	0.1104	0.9765	0.372
Mof_C 	C 	0.66563	0.1892	0.0333	0.321
Mof_N 	N 	0.68517	0.1992	0.98145	-0.237
Mof_H 	H 	0.6958	0.2213	0.9646	0.152
Mof_N 	N 	0.68469	0.2478	0.01572	-0.25
Mof_C 	C 	0.66348	0.0444	0.94	-0.955
Mof_H 	H 	0.6499	0.9856	0.9417	0.319
Mof_H 	H 	0.6505	0.079	0.9144	0.304
Mof_H 	H 	0.6879	0.0262	0.9405	0.334
Mof_C 	C 	0.6588	0.2182	0.0727	-0.834
Mof_H 	H 	0.6704	0.281	0.0824	0.255
Mof_H 	H 	0.6324	0.2236	0.067	0.255
Mof_H 	H 	0.669	0.1686	0.0938	0.27
_end
