data_functionalizedCrystal
_audit_creation_method	'EQeq! by Chris Wilmer'
_symmetry_space_group_name_H-M	'P1'
_symmetry_Int_Tables_number	1
_symmetry_cell_setting	triclinic
loop_
_symmetry_equiv_pos_as_xyz
  x,y,z
_cell_length_a	15.2196
_cell_length_b	15.2196
_cell_length_c	15.4737
_cell_angle_alpha	90
_cell_angle_beta	90
_cell_angle_gamma	120
loop_
_atom_site_label
_atom_site_type_symbol
_atom_site_fract_x
_atom_site_fract_y
_atom_site_fract_z
_atom_site_charge
Mof_Dy	Dy	0.66667	0.33334	0.75	1.994
Mof_Dy	Dy	0.33333	0.66666	0.75	1.994
Mof_Dy	Dy	0.33333	0.66666	0.25	1.975
Mof_Dy	Dy	0.66667	0.33334	0.25	1.976
Mof_Co	Co	0.5	0	0.5	1.128
Mof_Co	Co	0.5	0.5	0.5	1.166
Mof_Co	Co	-2.56295e-17	0.5	0.5	1.128
Mof_Co	Co	0.5	0	-0	1.062
Mof_Co	Co	-3.66251e-17	0.5	-0	1.062
Mof_Co	Co	0.5	0.5	-0	1.098
Mof_H 	H 	0.7661	0.0545	0.6551	0.035
Mof_H 	H 	0.2884	0.2339	0.6551	0.042
Mof_H 	H 	0.9455	0.7116	0.6551	0.075
Mof_H 	H 	0.2339	0.9455	0.6551	0.066
Mof_H 	H 	0.7116	0.7661	0.6551	0.059
Mof_H 	H 	0.0545	0.2884	0.6551	0.027
Mof_H 	H 	0.7116	0.9455	0.8449	0.094
Mof_H 	H 	0.0545	0.7661	0.8449	0.056
Mof_H 	H 	0.2339	0.2884	0.8449	0.063
Mof_H 	H 	0.2884	0.0545	0.8449	0.048
Mof_H 	H 	0.9455	0.2339	0.8449	0.086
Mof_H 	H 	0.7661	0.7116	0.8449	0.079
Mof_H 	H 	0.2339	0.9455	0.3449	0.064
Mof_H 	H 	0.7116	0.7661	0.3449	0.056
Mof_H 	H 	0.0545	0.2884	0.3449	0.023
Mof_H 	H 	0.7661	0.0545	0.3449	0.032
Mof_H 	H 	0.2884	0.2339	0.3449	0.039
Mof_H 	H 	0.9455	0.7116	0.3449	0.072
Mof_H 	H 	0.2884	0.0545	0.1551	0.005
Mof_H 	H 	0.9455	0.2339	0.1551	0.045
Mof_H 	H 	0.7661	0.7116	0.1551	0.037
Mof_H 	H 	0.7116	0.9455	0.1551	0.053
Mof_H 	H 	0.0545	0.7661	0.1551	0.014
Mof_H 	H 	0.2339	0.2884	0.1551	0.02
Mof_H 	H 	0.9005	0.0995	0.75	0.042
Mof_H 	H 	0.199	0.0995	0.75	0.017
Mof_H 	H 	0.9005	0.801	0.75	0.068
Mof_H 	H 	0.0995	0.9005	0.75	0.042
Mof_H 	H 	0.801	0.9005	0.75	0.068
Mof_H 	H 	0.0995	0.199	0.75	0.017
Mof_H 	H 	0.0995	0.9005	0.25	0.037
Mof_H 	H 	0.801	0.9005	0.25	0.063
Mof_H 	H 	0.0995	0.199	0.25	0.01
Mof_H 	H 	0.9005	0.0995	0.25	0.037
Mof_H 	H 	0.199	0.0995	0.25	0.01
Mof_H 	H 	0.9005	0.801	0.25	0.063
Mof_C 	C 	0.6453	0.138	0.6392	0.365
Mof_C 	C 	0.7339	0.1613	0.6964	-0.035
Mof_C 	C 	0.7852	0.1078	0.6938	-0.03
Mof_C 	C 	0.4927	0.3547	0.6392	0.363
Mof_C 	C 	0.4274	0.2661	0.6964	-0.034
Mof_C 	C 	0.3226	0.2148	0.6938	-0.035
Mof_C 	C 	0.862	0.5073	0.6392	0.36
Mof_C 	C 	0.8387	0.5726	0.6964	-0.015
Mof_C 	C 	0.8922	0.6774	0.6938	-0.025
Mof_C 	C 	0.3547	0.862	0.6392	0.359
Mof_C 	C 	0.2661	0.8387	0.6964	-0.02
Mof_C 	C 	0.2148	0.8922	0.6938	-0.031
Mof_C 	C 	0.5073	0.6453	0.6392	0.365
Mof_C 	C 	0.5726	0.7339	0.6964	-0.023
Mof_C 	C 	0.6774	0.7852	0.6938	-0.024
Mof_C 	C 	0.138	0.4927	0.6392	0.364
Mof_C 	C 	0.1613	0.4274	0.6964	-0.041
Mof_C 	C 	0.1078	0.3226	0.6938	-0.036
Mof_C 	C 	0.5073	0.862	0.8608	0.354
Mof_C 	C 	0.5726	0.8387	0.8036	-0.001
Mof_C 	C 	0.6774	0.8922	0.8062	-0.026
Mof_C 	C 	0.138	0.6453	0.8608	0.359
Mof_C 	C 	0.1613	0.7339	0.8036	-0.021
Mof_C 	C 	0.1078	0.7852	0.8062	-0.032
Mof_C 	C 	0.3547	0.4927	0.8608	0.357
Mof_C 	C 	0.2661	0.4274	0.8036	-0.02
Mof_C 	C 	0.2148	0.3226	0.8062	-0.037
Mof_C 	C 	0.4927	0.138	0.8608	0.358
Mof_C 	C 	0.4274	0.1613	0.8036	-0.027
Mof_C 	C 	0.3226	0.1078	0.8062	-0.037
Mof_C 	C 	0.862	0.3547	0.8608	0.354
Mof_C 	C 	0.8387	0.2661	0.8036	-0.006
Mof_C 	C 	0.8922	0.2148	0.8062	-0.032
Mof_C 	C 	0.6453	0.5073	0.8608	0.359
Mof_C 	C 	0.7339	0.5726	0.8036	-0.009
Mof_C 	C 	0.7852	0.6774	0.8062	-0.026
Mof_C 	C 	0.3547	0.862	0.3608	0.361
Mof_C 	C 	0.2661	0.8387	0.3036	-0.028
Mof_C 	C 	0.2148	0.8922	0.3062	-0.022
Mof_C 	C 	0.5073	0.6453	0.3608	0.366
Mof_C 	C 	0.5726	0.7339	0.3036	-0.03
Mof_C 	C 	0.6774	0.7852	0.3062	-0.016
Mof_C 	C 	0.138	0.4927	0.3608	0.366
Mof_C 	C 	0.1613	0.4274	0.3036	-0.049
Mof_C 	C 	0.1078	0.3226	0.3062	-0.027
Mof_C 	C 	0.6453	0.138	0.3608	0.367
Mof_C 	C 	0.7339	0.1613	0.3036	-0.043
Mof_C 	C 	0.7852	0.1078	0.3062	-0.022
Mof_C 	C 	0.4927	0.3547	0.3608	0.364
Mof_C 	C 	0.4274	0.2661	0.3036	-0.042
Mof_C 	C 	0.3226	0.2148	0.3062	-0.027
Mof_C 	C 	0.862	0.5073	0.3608	0.362
Mof_C 	C 	0.8387	0.5726	0.3036	-0.022
Mof_C 	C 	0.8922	0.6774	0.3062	-0.016
Mof_C 	C 	0.4927	0.138	0.1392	0.366
Mof_C 	C 	0.4274	0.1613	0.1964	-0.06
Mof_C 	C 	0.3226	0.1078	0.1938	-0.027
Mof_C 	C 	0.862	0.3547	0.1392	0.361
Mof_C 	C 	0.8387	0.2661	0.1964	-0.039
Mof_C 	C 	0.8922	0.2148	0.1938	-0.022
Mof_C 	C 	0.6453	0.5073	0.1392	0.366
Mof_C 	C 	0.7339	0.5726	0.1964	-0.042
Mof_C 	C 	0.7852	0.6774	0.1938	-0.016
Mof_C 	C 	0.5073	0.862	0.1392	0.362
Mof_C 	C 	0.5726	0.8387	0.1964	-0.033
Mof_C 	C 	0.6774	0.8922	0.1938	-0.016
Mof_C 	C 	0.138	0.6453	0.1392	0.367
Mof_C 	C 	0.1613	0.7339	0.1964	-0.054
Mof_C 	C 	0.1078	0.7852	0.1938	-0.022
Mof_C 	C 	0.3547	0.4927	0.1392	0.365
Mof_C 	C 	0.2661	0.4274	0.1964	-0.053
Mof_C 	C 	0.2148	0.3226	0.1938	-0.026
Mof_C 	C 	0.86525	0.13475	0.75	-0.032
Mof_C 	C 	0.2695	0.13475	0.75	-0.043
Mof_C 	C 	0.86525	0.7305	0.75	-0.021
Mof_C 	C 	0.13475	0.86525	0.75	-0.032
Mof_C 	C 	0.7305	0.86525	0.75	-0.022
Mof_C 	C 	0.13475	0.2695	0.75	-0.042
Mof_C 	C 	0.13475	0.86525	0.25	-0.053
Mof_C 	C 	0.7305	0.86525	0.25	-0.043
Mof_C 	C 	0.13475	0.2695	0.25	-0.065
Mof_C 	C 	0.86525	0.13475	0.25	-0.053
Mof_C 	C 	0.2695	0.13475	0.25	-0.065
Mof_C 	C 	0.86525	0.7305	0.25	-0.043
Mof_N 	N 	0.7606	0.2394	0.75	-0.196
Mof_N 	N 	0.4788	0.2394	0.75	-0.196
Mof_N 	N 	0.7606	0.5212	0.75	-0.196
Mof_N 	N 	0.2394	0.7606	0.75	-0.197
Mof_N 	N 	0.5212	0.7606	0.75	-0.196
Mof_N 	N 	0.2394	0.4788	0.75	-0.196
Mof_N 	N 	0.2394	0.7606	0.25	-0.192
Mof_N 	N 	0.5212	0.7606	0.25	-0.192
Mof_N 	N 	0.2394	0.4788	0.25	-0.192
Mof_N 	N 	0.7606	0.2394	0.25	-0.192
Mof_N 	N 	0.4788	0.2394	0.25	-0.192
Mof_N 	N 	0.7606	0.5212	0.25	-0.192
Mof_O 	O 	0.6129	0.0616	0.5925	-0.449
Mof_O 	O 	0.6112	0.199	0.64338	-0.462
Mof_O 	O 	0.4487	0.3871	0.5925	-0.428
Mof_O 	O 	0.5878	0.3888	0.64338	-0.454
Mof_O 	O 	0.9384	0.5513	0.5925	-0.384
Mof_O 	O 	0.801	0.4122	0.64338	-0.441
Mof_O 	O 	0.3871	0.9384	0.5925	-0.387
Mof_O 	O 	0.3888	0.801	0.64338	-0.441
Mof_O 	O 	0.5513	0.6129	0.5925	-0.422
Mof_O 	O 	0.4122	0.6112	0.64338	-0.453
Mof_O 	O 	0.0616	0.4487	0.5925	-0.452
Mof_O 	O 	0.199	0.5878	0.64338	-0.463
Mof_O 	O 	0.5513	0.9384	0.9075	-0.321
Mof_O 	O 	0.4122	0.801	0.85662	-0.41
Mof_O 	O 	0.0616	0.6129	0.9075	-0.385
Mof_O 	O 	0.199	0.6112	0.85662	-0.431
Mof_O 	O 	0.3871	0.4487	0.9075	-0.363
Mof_O 	O 	0.3888	0.5878	0.85662	-0.423
Mof_O 	O 	0.4487	0.0616	0.9075	-0.387
Mof_O 	O 	0.5878	0.199	0.85662	-0.432
Mof_O 	O 	0.9384	0.3871	0.9075	-0.324
Mof_O 	O 	0.801	0.3888	0.85662	-0.411
Mof_O 	O 	0.6129	0.5513	0.9075	-0.357
Mof_O 	O 	0.6112	0.4122	0.85662	-0.422
Mof_O 	O 	0.3871	0.9384	0.4075	-0.387
Mof_O 	O 	0.3888	0.801	0.35662	-0.439
Mof_O 	O 	0.5513	0.6129	0.4075	-0.422
Mof_O 	O 	0.4122	0.6112	0.35662	-0.451
Mof_O 	O 	0.0616	0.4487	0.4075	-0.453
Mof_O 	O 	0.199	0.5878	0.35662	-0.461
Mof_O 	O 	0.6129	0.0616	0.4075	-0.449
Mof_O 	O 	0.6112	0.199	0.35662	-0.46
Mof_O 	O 	0.4487	0.3871	0.4075	-0.429
Mof_O 	O 	0.5878	0.3888	0.35662	-0.452
Mof_O 	O 	0.9384	0.5513	0.4075	-0.384
Mof_O 	O 	0.801	0.4122	0.35662	-0.438
Mof_O 	O 	0.4487	0.0616	0.0925	-0.49
Mof_O 	O 	0.5878	0.199	0.14338	-0.484
Mof_O 	O 	0.9384	0.3871	0.0925	-0.424
Mof_O 	O 	0.801	0.3888	0.14338	-0.462
Mof_O 	O 	0.6129	0.5513	0.0925	-0.46
Mof_O 	O 	0.6112	0.4122	0.14338	-0.474
Mof_O 	O 	0.5513	0.9384	0.0925	-0.421
Mof_O 	O 	0.4122	0.801	0.14338	-0.462
Mof_O 	O 	0.0616	0.6129	0.0925	-0.487
Mof_O 	O 	0.199	0.6112	0.14338	-0.483
Mof_O 	O 	0.3871	0.4487	0.0925	-0.467
Mof_O 	O 	0.3888	0.5878	0.14338	-0.476
_end
