# CIF file generated by openbabel 3.1.0, see https://openbabel.org
data_I
_chemical_name_common 'GIQXIO_clean'
_cell_length_a 9.6116
_cell_length_b 9.6116
_cell_length_c 15.548
_cell_angle_alpha 92.9302
_cell_angle_beta 92.9302
_cell_angle_gamma 99.0745
_space_group_name_H-M_alt 'P 1'
_space_group_name_Hall 'P 1'
loop_
    _symmetry_equiv_pos_as_xyz
    x,y,z
loop_
    _atom_site_label
    _atom_site_type_symbol
    _atom_site_fract_x
    _atom_site_fract_y
    _atom_site_fract_z
    _atom_site_occupancy
    Dy1      Dy       0.01085    0.98915    0.75000    1.000
    Dy2      Dy       0.98915    0.01085    0.25000    1.000
    P1       P        0.35393    0.04483    0.64557    1.000
    P2       P        0.65150    0.97608    0.65429    1.000
    P3       P        0.95517    0.64607    0.85443    1.000
    P4       P        0.02392    0.34850    0.84571    1.000
    P5       P        0.64607    0.95517    0.35443    1.000
    P6       P        0.34850    0.02392    0.34571    1.000
    P7       P        0.04483    0.35393    0.14557    1.000
    P8       P        0.97608    0.65150    0.15429    1.000
    H1       H        0.47520    0.16080    0.81470    1.000
    H2       H        0.63430    0.13110    0.81490    1.000
    H3       H        0.57790    0.22830    0.74470    1.000
    H4       H        0.42200    0.82400    0.73000    1.000
    H5       H        0.83920    0.52480    0.68530    1.000
    H6       H        0.86890    0.36570    0.68510    1.000
    H7       H        0.77170    0.42210    0.75530    1.000
    H8       H        0.17600    0.57800    0.77000    1.000
    H9       H        0.52480    0.83920    0.18530    1.000
    H10      H        0.36570    0.86890    0.18510    1.000
    H11      H        0.42210    0.77170    0.25530    1.000
    H12      H        0.57800    0.17600    0.27000    1.000
    H13      H        0.16080    0.47520    0.31470    1.000
    H14      H        0.13110    0.63430    0.31490    1.000
    H15      H        0.22830    0.57790    0.24470    1.000
    H16      H        0.82400    0.42200    0.23000    1.000
    Ru1      Ru       0.54552    0.12160    0.50202    1.000
    Ru2      Ru       0.87840    0.45448    0.99798    1.000
    Ru3      Ru       0.45448    0.87840    0.49798    1.000
    Ru4      Ru       0.12160    0.54552    0.00202    1.000
    C1       C        0.50630    0.01910    0.71890    1.000
    C2       C        0.55240    0.14560    0.77840    1.000
    C3       C        0.98090    0.49370    0.78110    1.000
    C4       C        0.85440    0.44760    0.72160    1.000
    C5       C        0.49370    0.98090    0.28110    1.000
    C6       C        0.44760    0.85440    0.22160    1.000
    C7       C        0.01910    0.50630    0.21890    1.000
    C8       C        0.14560    0.55240    0.27840    1.000
    O1       O        0.40840    0.16840    0.58940    1.000
    O2       O        0.31000    0.90920    0.58630    1.000
    O3       O        0.23420    0.07580    0.69990    1.000
    O4       O        0.69190    0.10390    0.59860    1.000
    O5       O        0.59530    0.84310    0.59460    1.000
    O6       O        0.77220    0.95440    0.71440    1.000
    O7       O        0.44960    0.89960    0.76780    1.000
    O8       O        0.83160    0.59160    0.91060    1.000
    O9       O        0.09080    0.69000    0.91370    1.000
    O10      O        0.92420    0.76580    0.80010    1.000
    O11      O        0.89610    0.30810    0.90140    1.000
    O12      O        0.15690    0.40470    0.90540    1.000
    O13      O        0.04560    0.22780    0.78560    1.000
    O14      O        0.10040    0.55040    0.73220    1.000
    O15      O        0.59160    0.83160    0.41060    1.000
    O16      O        0.69000    0.09080    0.41370    1.000
    O17      O        0.76580    0.92420    0.30010    1.000
    O18      O        0.30810    0.89610    0.40140    1.000
    O19      O        0.40470    0.15690    0.40540    1.000
    O20      O        0.22780    0.04560    0.28560    1.000
    O21      O        0.55040    0.10040    0.23220    1.000
    O22      O        0.16840    0.40840    0.08940    1.000
    O23      O        0.90920    0.31000    0.08630    1.000
    O24      O        0.07580    0.23420    0.19990    1.000
    O25      O        0.10390    0.69190    0.09860    1.000
    O26      O        0.84310    0.59530    0.09460    1.000
    O27      O        0.95440    0.77220    0.21440    1.000
    O28      O        0.89960    0.44960    0.26780    1.000
