# CIF file generated by openbabel 3.1.0, see https://openbabel.org
data_I
_chemical_name_common 'image0'
_cell_length_a 9.9545
_cell_length_b 13.1364
_cell_length_c 11.0094
_cell_angle_alpha 90
_cell_angle_beta 101.703
_cell_angle_gamma 90
_space_group_name_H-M_alt 'P 1'
_space_group_name_Hall 'P 1'
loop_
    _symmetry_equiv_pos_as_xyz
    x,y,z
loop_
    _atom_site_label
    _atom_site_type_symbol
    _atom_site_fract_x
    _atom_site_fract_y
    _atom_site_fract_z
    _atom_site_occupancy
    C1       C        0.40150    0.50470    0.98830    1.000
    C2       C        0.15060    0.38250    0.48100    1.000
    C3       C        0.16420    0.47870    0.43600    1.000
    H1       H        0.17890    0.48800    0.35600    1.000
    C4       C        0.13060    0.37210    0.60020    1.000
    H2       H        0.11780    0.30810    0.63200    1.000
    C5       C        0.12980    0.45690    0.67130    1.000
    H3       H        0.12020    0.44860    0.75300    1.000
    C6       C        0.46550    0.90020    0.46510    1.000
    H4       H        0.54280    0.85930    0.48750    1.000
    C7       C        0.15580    0.56140    0.51160    1.000
    H5       H        0.15980    0.62660    0.47960    1.000
    C8       C        0.50880    0.36270    0.10760    1.000
    H6       H        0.58780    0.32520    0.13790    1.000
    C9       C        0.46720    0.98390    0.38930    1.000
    H7       H        0.54740    0.99860    0.36170    1.000
    C10      C        0.15570    0.29090    0.39720    1.000
    C11      C        0.23460    0.94010    0.47010    1.000
    H8       H        0.15320    0.92710    0.49640    1.000
    C12      C        0.24360    0.02230    0.39280    1.000
    H9       H        0.16670    0.06310    0.36730    1.000
    C13      C        0.28160    0.47710    0.02530    1.000
    H10      H        0.20230    0.51560    0.00050    1.000
    C14      C        0.51740    0.44610    0.03210    1.000
    H11      H        0.60050    0.46270    0.01090    1.000
    C15      C        0.28040    0.39300    0.09850    1.000
    H12      H        0.19860    0.37570    0.12170    1.000
    C16      C        0.40980    0.59590    0.90700    1.000
    C17      C        0.09000    0.09650    0.09690    1.000
    C18      C        0.10140    0.00410    0.01930    1.000
    C19      C        0.09900    0.90540    0.06310    1.000
    H13      H        0.09280    0.89420    0.14520    1.000
    C20      C        0.11170    0.92780    0.82290    1.000
    H14      H        0.11460    0.93680    0.73970    1.000
    C21      C        0.10790    0.01360    0.89570    1.000
    H15      H        0.10970    0.07800    0.86100    1.000
    C22      C        0.34600    0.87820    0.50740    1.000
    C23      C        0.10580    0.82310    0.98570    1.000
    H16      H        0.10630    0.75790    0.01870    1.000
    C24      C        0.34240    0.79070    0.59880    1.000
    Mn1      Mn       0.87371    0.19264    0.25222    1.000
    Mn2      Mn       0.37558    0.19159    0.24664    1.000
    N1       N        0.14190    0.55070    0.63010    1.000
    N2       N        0.39030    0.33410    0.13850    1.000
    N3       N        0.35810    0.04480    0.35400    1.000
    N4       N        0.11150    0.83280    0.86650    1.000
    O1       O        0.26140    0.28380    0.35590    1.000
    O2       O        0.05810    0.22850    0.38890    1.000
    O3       O        0.18410    0.15900    0.11470    1.000
    O4       O        0.98590    0.09900    0.14570    1.000
    O5       O        0.51830    0.60690    0.86900    1.000
    O6       O        0.44040    0.72980    0.61570    1.000
    O7       O        0.23350    0.78650    0.63790    1.000
    O8       O        0.30550    0.65000    0.87780    1.000
    C25      C        0.59850    0.00470    0.01170    1.000
    C26      C        0.84940    0.88250    0.51900    1.000
    C27      C        0.83580    0.97870    0.56400    1.000
    H17      H        0.82110    0.98800    0.64400    1.000
    C28      C        0.86940    0.87210    0.39980    1.000
    H18      H        0.88220    0.80810    0.36800    1.000
    C29      C        0.87020    0.95690    0.32870    1.000
    H19      H        0.87980    0.94860    0.24700    1.000
    C30      C        0.53450    0.40020    0.53490    1.000
    H20      H        0.45720    0.35930    0.51250    1.000
    C31      C        0.84420    0.06140    0.48840    1.000
    H21      H        0.84020    0.12660    0.52040    1.000
    C32      C        0.49120    0.86270    0.89240    1.000
    H22      H        0.41220    0.82520    0.86210    1.000
    C33      C        0.53280    0.48390    0.61070    1.000
    H23      H        0.45260    0.49860    0.63830    1.000
    C34      C        0.84430    0.79090    0.60280    1.000
    C35      C        0.76540    0.44010    0.52990    1.000
    H24      H        0.84680    0.42710    0.50360    1.000
    C36      C        0.75640    0.52230    0.60720    1.000
    H25      H        0.83330    0.56310    0.63270    1.000
    C37      C        0.71840    0.97710    0.97470    1.000
    H26      H        0.79770    0.01560    0.99950    1.000
    C38      C        0.48260    0.94610    0.96790    1.000
    H27      H        0.39950    0.96270    0.98910    1.000
    C39      C        0.71960    0.89300    0.90150    1.000
    H28      H        0.80140    0.87570    0.87830    1.000
    C40      C        0.59020    0.09590    0.09300    1.000
    C41      C        0.91000    0.59650    0.90310    1.000
    C42      C        0.89860    0.50410    0.98070    1.000
    C43      C        0.90100    0.40540    0.93690    1.000
    H29      H        0.90720    0.39420    0.85480    1.000
    C44      C        0.88830    0.42780    0.17710    1.000
    H30      H        0.88540    0.43680    0.26030    1.000
    C45      C        0.89210    0.51360    0.10430    1.000
    H31      H        0.89030    0.57800    0.13900    1.000
    C46      C        0.65400    0.37820    0.49260    1.000
    C47      C        0.89420    0.32310    0.01430    1.000
    H32      H        0.89370    0.25790    0.98130    1.000
    C48      C        0.65760    0.29070    0.40120    1.000
    Mn3      Mn       0.12629    0.69264    0.74778    1.000
    Mn4      Mn       0.62442    0.69159    0.75336    1.000
    N5       N        0.85810    0.05070    0.36990    1.000
    N6       N        0.60970    0.83410    0.86150    1.000
    N7       N        0.64190    0.54480    0.64600    1.000
    N8       N        0.88850    0.33280    0.13350    1.000
    O9       O        0.73860    0.78380    0.64410    1.000
    O10      O        0.94190    0.72850    0.61110    1.000
    O11      O        0.81590    0.65900    0.88530    1.000
    O12      O        0.01410    0.59900    0.85430    1.000
    O13      O        0.48170    0.10690    0.13100    1.000
    O14      O        0.55960    0.22980    0.38430    1.000
    O15      O        0.76650    0.28650    0.36210    1.000
    O16      O        0.69450    0.15000    0.12220    1.000
