data_functionalizedCrystal
_audit_creation_method	'EQeq! by Chris Wilmer'
_symmetry_space_group_name_H-M	'P1'
_symmetry_Int_Tables_number	1
_symmetry_cell_setting	triclinic
loop_
_symmetry_equiv_pos_as_xyz
  x,y,z
_cell_length_a	18.691
_cell_length_b	18.691
_cell_length_c	9.423
_cell_angle_alpha	90
_cell_angle_beta	90
_cell_angle_gamma	90
loop_
_atom_site_label
_atom_site_type_symbol
_atom_site_fract_x
_atom_site_fract_y
_atom_site_fract_z
_atom_site_charge
Mof_P 	P 	0.06489	0.5572	0.33558	1.696
Mof_O 	O 	0.05926	0.62405	0.2451	-1.936
Mof_O 	O 	0.07494	0.58091	0.4891	-1.877
Mof_O 	O 	0.12878	0.51258	0.2938	-1.77
Mof_O 	O 	0.99539	0.51641	0.3214	-2.021
Mof_Al	Al	0.06521	0.66548	0.08049	6.137
Mof_P 	P 	0.94966	0.66641	0.83978	1.638
Mof_O 	O 	0.98524	0.65644	0.9836	-2.021
Mof_O 	O 	0.99713	0.63711	0.7216	-1.992
Mof_O 	O 	0.87815	0.62916	0.8426	-1.698
Mof_O 	O 	0.93742	0.74461	0.8088	-1.663
Mof_Al	Al	0.16393	0.45581	0.15605	5.271
Mof_P 	P 	0.16582	0.56733	0.90451	1.72
Mof_O 	O 	0.1541	0.49995	0.9886	-1.831
Mof_O 	O 	0.13802	0.63261	0.983	-2.002
Mof_O 	O 	0.13009	0.56064	0.7609	-1.944
Mof_O 	O 	0.24457	0.58017	0.8777	-1.892
Mof_Al	Al	0.05065	0.56577	0.66541	6.169
Mof_P 	P 	0.43511	0.9428	0.33558	1.705
Mof_O 	O 	0.44074	0.87595	0.2451	-1.952
Mof_O 	O 	0.42506	0.91909	0.4891	-1.875
Mof_O 	O 	0.37122	0.98742	0.2938	-1.77
Mof_O 	O 	0.50461	0.98359	0.3214	-2.021
Mof_Al	Al	0.43479	0.83452	0.08049	6.235
Mof_P 	P 	0.55034	0.83359	0.83978	1.644
Mof_O 	O 	0.51476	0.84356	0.9836	-2.044
Mof_O 	O 	0.50287	0.86289	0.7216	-1.994
Mof_O 	O 	0.62185	0.87084	0.8426	-1.697
Mof_O 	O 	0.56258	0.75539	0.8088	-1.672
Mof_Al	Al	0.33607	0.04419	0.15605	5.257
Mof_P 	P 	0.33418	0.93267	0.90451	1.702
Mof_O 	O 	0.3459	5e-05	0.9886	-1.811
Mof_O 	O 	0.36198	0.86739	0.983	-2.027
Mof_O 	O 	0.36991	0.93936	0.7609	-1.945
Mof_O 	O 	0.25543	0.91983	0.8777	-1.872
Mof_Al	Al	0.44935	0.93423	0.66541	6.16
Mof_P 	P 	0.9428	0.06489	0.33558	1.654
Mof_O 	O 	0.87595	0.05926	0.2451	-1.926
Mof_O 	O 	0.91909	0.07494	0.4891	-1.835
Mof_O 	O 	0.98742	0.12878	0.2938	-1.769
Mof_O 	O 	0.98359	0.99539	0.3214	-1.941
Mof_Al	Al	0.83452	0.06521	0.08049	6.111
Mof_P 	P 	0.83359	0.94966	0.83978	1.627
Mof_O 	O 	0.84356	0.98524	0.9836	-2.006
Mof_O 	O 	0.86289	0.99713	0.7216	-1.938
Mof_O 	O 	0.87084	0.87815	0.8426	-1.692
Mof_O 	O 	0.75539	0.93742	0.8088	-1.66
Mof_Al	Al	0.04419	0.16393	0.15605	5.268
Mof_P 	P 	0.93267	0.16582	0.90451	1.679
Mof_O 	O 	5e-05	0.1541	0.9886	-1.794
Mof_O 	O 	0.86739	0.13802	0.983	-1.994
Mof_O 	O 	0.93936	0.13009	0.7609	-1.906
Mof_O 	O 	0.91983	0.24457	0.8777	-1.876
Mof_Al	Al	0.93423	0.05065	0.66541	5.979
Mof_P 	P 	0.5572	0.43511	0.33558	1.708
Mof_O 	O 	0.62405	0.44074	0.2451	-1.949
Mof_O 	O 	0.58091	0.42506	0.4891	-1.881
Mof_O 	O 	0.51258	0.37122	0.2938	-1.775
Mof_O 	O 	0.51641	0.50461	0.3214	-2.031
Mof_Al	Al	0.66548	0.43479	0.08049	6.212
Mof_P 	P 	0.66641	0.55034	0.83978	1.644
Mof_O 	O 	0.65644	0.51476	0.9836	-2.037
Mof_O 	O 	0.63711	0.50287	0.7216	-2
Mof_O 	O 	0.62916	0.62185	0.8426	-1.703
Mof_O 	O 	0.74461	0.56258	0.8088	-1.668
Mof_Al	Al	0.45581	0.33607	0.15605	5.288
Mof_P 	P 	0.56733	0.33418	0.90451	1.727
Mof_O 	O 	0.49995	0.3459	0.9886	-1.84
Mof_O 	O 	0.63261	0.36198	0.983	-2.023
Mof_O 	O 	0.56064	0.36991	0.7609	-1.951
Mof_O 	O 	0.58017	0.25543	0.8777	-1.898
Mof_Al	Al	0.56577	0.44935	0.66541	6.185
Mof_P 	P 	0.93511	0.4428	0.66442	1.697
Mof_O 	O 	0.94074	0.37595	0.7549	-1.935
Mof_O 	O 	0.92506	0.41909	0.5109	-1.876
Mof_O 	O 	0.87122	0.48742	0.7062	-1.769
Mof_O 	O 	0.00461	0.48359	0.6786	-2.02
Mof_Al	Al	0.93479	0.33452	0.91951	6.138
Mof_P 	P 	0.05034	0.33359	0.16022	1.639
Mof_O 	O 	0.01476	0.34356	0.0164	-2.02
Mof_O 	O 	0.00287	0.36289	0.2784	-1.992
Mof_O 	O 	0.12185	0.37084	0.1574	-1.698
Mof_O 	O 	0.06258	0.25539	0.1912	-1.663
Mof_Al	Al	0.83607	0.54419	0.84395	5.271
Mof_P 	P 	0.83418	0.43267	0.09549	1.72
Mof_O 	O 	0.8459	0.50005	0.0114	-1.831
Mof_O 	O 	0.86198	0.36739	0.017	-2.002
Mof_O 	O 	0.86991	0.43936	0.2391	-1.944
Mof_O 	O 	0.75543	0.41983	0.1223	-1.892
Mof_Al	Al	0.94935	0.43423	0.33459	6.169
Mof_P 	P 	0.56489	0.0572	0.66442	1.705
Mof_O 	O 	0.55926	0.12405	0.7549	-1.952
Mof_O 	O 	0.57494	0.08091	0.5109	-1.875
Mof_O 	O 	0.62878	0.01258	0.7062	-1.77
Mof_O 	O 	0.49539	0.01641	0.6786	-2.021
Mof_Al	Al	0.56521	0.16548	0.91951	6.235
Mof_P 	P 	0.44966	0.16641	0.16022	1.644
Mof_O 	O 	0.48524	0.15644	0.0164	-2.044
Mof_O 	O 	0.49713	0.13711	0.2784	-1.994
Mof_O 	O 	0.37815	0.12916	0.1574	-1.697
Mof_O 	O 	0.43742	0.24461	0.1912	-1.672
Mof_Al	Al	0.66393	0.95581	0.84395	5.257
Mof_P 	P 	0.66582	0.06733	0.09549	1.702
Mof_O 	O 	0.6541	0.99995	0.0114	-1.811
Mof_O 	O 	0.63802	0.13261	0.017	-2.027
Mof_O 	O 	0.63009	0.06064	0.2391	-1.945
Mof_O 	O 	0.74457	0.08017	0.1223	-1.872
Mof_Al	Al	0.55065	0.06577	0.33459	6.16
Mof_P 	P 	0.0572	0.93511	0.66442	1.654
Mof_O 	O 	0.12405	0.94074	0.7549	-1.926
Mof_O 	O 	0.08091	0.92506	0.5109	-1.835
Mof_O 	O 	0.01258	0.87122	0.7062	-1.769
Mof_O 	O 	0.01641	0.00461	0.6786	-1.941
Mof_Al	Al	0.16548	0.93479	0.91951	6.111
Mof_P 	P 	0.16641	0.05034	0.16022	1.627
Mof_O 	O 	0.15644	0.01476	0.0164	-2.006
Mof_O 	O 	0.13711	0.00287	0.2784	-1.938
Mof_O 	O 	0.12916	0.12185	0.1574	-1.692
Mof_O 	O 	0.24461	0.06258	0.1912	-1.66
Mof_Al	Al	0.95581	0.83607	0.84395	5.268
Mof_P 	P 	0.06733	0.83418	0.09549	1.679
Mof_O 	O 	0.99995	0.8459	0.0114	-1.794
Mof_O 	O 	0.13261	0.86198	0.017	-1.994
Mof_O 	O 	0.06064	0.86991	0.2391	-1.906
Mof_O 	O 	0.08017	0.75543	0.1223	-1.876
Mof_Al	Al	0.06577	0.94935	0.33459	5.979
Mof_P 	P 	0.4428	0.56489	0.66442	1.708
Mof_O 	O 	0.37595	0.55926	0.7549	-1.949
Mof_O 	O 	0.41909	0.57494	0.5109	-1.881
Mof_O 	O 	0.48742	0.62878	0.7062	-1.775
Mof_O 	O 	0.48359	0.49539	0.6786	-2.031
Mof_Al	Al	0.33452	0.56521	0.91951	6.212
Mof_P 	P 	0.33359	0.44966	0.16022	1.644
Mof_O 	O 	0.34356	0.48524	0.0164	-2.037
Mof_O 	O 	0.36289	0.49713	0.2784	-2
Mof_O 	O 	0.37084	0.37815	0.1574	-1.703
Mof_O 	O 	0.25539	0.43742	0.1912	-1.668
Mof_Al	Al	0.54419	0.66393	0.84395	5.288
Mof_P 	P 	0.43267	0.66582	0.09549	1.727
Mof_O 	O 	0.50005	0.6541	0.0114	-1.84
Mof_O 	O 	0.36739	0.63802	0.017	-2.023
Mof_O 	O 	0.43936	0.63009	0.2391	-1.951
Mof_O 	O 	0.41983	0.74457	0.1223	-1.898
Mof_Al	Al	0.43423	0.55065	0.33459	6.185
_end
