data_functionalizedCrystal
_audit_creation_method	'EQeq! by Chris Wilmer'
_symmetry_space_group_name_H-M	'P1'
_symmetry_Int_Tables_number	1
_symmetry_cell_setting	triclinic
loop_
_symmetry_equiv_pos_as_xyz
  x,y,z
_cell_length_a	11.5288
_cell_length_b	12.3565
_cell_length_c	21.861
_cell_angle_alpha	90
_cell_angle_beta	90
_cell_angle_gamma	117.808
loop_
_atom_site_label
_atom_site_type_symbol
_atom_site_fract_x
_atom_site_fract_y
_atom_site_fract_z
_atom_site_charge
Mof_Pr	Pr	0.95752	-9.16421e-33	0.34657	1.716
Mof_Pr	Pr	0.04248	0	0.84657	1.805
Mof_Pr	Pr	0.95752	0	0.15343	1.713
Mof_Pr	Pr	0.04248	1.83284e-32	0.65343	1.807
Mof_Pr	Pr	0.27634	0.18688	0.25	1.93
Mof_Pr	Pr	0.72366	0.81312	0.75	2.323
Mof_Pr	Pr	0.08946	0.81312	0.25	2.295
Mof_Pr	Pr	0.91054	0.18688	0.75	1.897
Mof_H 	H 	0.4245	0.4388	0.3863	0.033
Mof_H 	H 	0.7669	0.7788	0.4733	0.024
Mof_H 	H 	0.5755	0.5612	0.8863	0.035
Mof_H 	H 	0.2331	0.2212	0.9733	-0.015
Mof_H 	H 	0.9857	0.5612	0.1137	0.037
Mof_H 	H 	0.9881	0.2212	0.0267	-0.019
Mof_H 	H 	0.0143	0.4388	0.6137	0.031
Mof_H 	H 	0.0119	0.7788	0.5267	0.019
Mof_H 	H 	0.5755	0.5612	0.6137	0.036
Mof_H 	H 	0.2331	0.2212	0.5267	-0.016
Mof_H 	H 	0.4245	0.4388	0.1137	0.034
Mof_H 	H 	0.7669	0.7788	0.0267	0.023
Mof_H 	H 	0.0143	0.4388	0.8863	0.032
Mof_H 	H 	0.0119	0.7788	0.9733	0.02
Mof_H 	H 	0.9857	0.5612	0.3863	0.035
Mof_H 	H 	0.9881	0.2212	0.4733	-0.02
Mof_H 	H 	0.1933	0	0.3457	0.255
Mof_H 	H 	0.8067	3.66569e-32	0.8457	0.254
Mof_H 	H 	0.1933	0	0.1543	0.256
Mof_H 	H 	0.8067	1.83284e-32	0.6543	0.254
Mof_H 	H 	0.0353	0.1884	0.25	0.302
Mof_H 	H 	0.9647	0.8116	0.75	0.28
Mof_H 	H 	0.8469	0.8116	0.25	0.277
Mof_H 	H 	0.1531	0.1884	0.75	0.302
Mof_C 	C 	0.2264	0.2244	0.4048	0.452
Mof_C 	C 	0.317	0.3166	0.449	-0.179
Mof_C 	C 	0.4165	0.424	0.4282	0.009
Mof_C 	C 	0.5068	0.5126	0.4675	0.023
Mof_C 	C 	0.6135	0.6246	0.4476	-0.132
Mof_C 	C 	0.698	0.7064	0.4877	0.075
Mof_C 	C 	0.7736	0.7756	0.9048	0.454
Mof_C 	C 	0.683	0.6834	0.949	-0.15
Mof_C 	C 	0.5835	0.576	0.9282	-0.003
Mof_C 	C 	0.4932	0.4874	0.9675	0.036
Mof_C 	C 	0.3865	0.3754	0.9476	-0.157
Mof_C 	C 	0.302	0.2936	0.9877	0.088
Mof_C 	C 	0.002	0.7756	0.0952	0.446
Mof_C 	C 	0.0004	0.6834	0.051	-0.14
Mof_C 	C 	0.9925	0.576	0.0718	-0.01
Mof_C 	C 	0.9942	0.4874	0.0325	0.04
Mof_C 	C 	0.9889	0.3754	0.0524	-0.16
Mof_C 	C 	0.9916	0.2936	0.0123	0.091
Mof_C 	C 	0.998	0.2244	0.5952	0.445
Mof_C 	C 	0.9996	0.3166	0.551	-0.186
Mof_C 	C 	0.0075	0.424	0.5718	0.018
Mof_C 	C 	0.0058	0.5126	0.5325	0.026
Mof_C 	C 	0.0111	0.6246	0.5524	-0.135
Mof_C 	C 	0.0084	0.7064	0.5123	0.078
Mof_C 	C 	0.7736	0.7756	0.5952	0.453
Mof_C 	C 	0.683	0.6834	0.551	-0.148
Mof_C 	C 	0.5835	0.576	0.5718	-0.006
Mof_C 	C 	0.4932	0.4874	0.5325	0.04
Mof_C 	C 	0.3865	0.3754	0.5524	-0.16
Mof_C 	C 	0.302	0.2936	0.5123	0.094
Mof_C 	C 	0.2264	0.2244	0.0952	0.45
Mof_C 	C 	0.317	0.3166	0.051	-0.174
Mof_C 	C 	0.4165	0.424	0.0718	0.005
Mof_C 	C 	0.5068	0.5126	0.0325	0.027
Mof_C 	C 	0.6135	0.6246	0.0524	-0.134
Mof_C 	C 	0.698	0.7064	0.0123	0.078
Mof_C 	C 	0.998	0.2244	0.9048	0.445
Mof_C 	C 	0.9996	0.3166	0.949	-0.183
Mof_C 	C 	0.0075	0.424	0.9282	0.016
Mof_C 	C 	0.0058	0.5126	0.9675	0.022
Mof_C 	C 	0.0111	0.6246	0.9476	-0.132
Mof_C 	C 	0.0084	0.7064	0.9877	0.067
Mof_C 	C 	0.002	0.7756	0.4048	0.447
Mof_C 	C 	0.0004	0.6834	0.449	-0.149
Mof_C 	C 	0.9925	0.576	0.4282	-0.003
Mof_C 	C 	0.9942	0.4874	0.4675	0.036
Mof_C 	C 	0.9889	0.3754	0.4476	-0.159
Mof_C 	C 	0.9916	0.2936	0.4877	0.094
Mof_S 	S 	0.63976	0.65964	0.36795	0.572
Mof_S 	S 	0.36024	0.34036	0.86795	0.588
Mof_S 	S 	0.98012	0.34036	0.13205	0.576
Mof_S 	S 	0.01988	0.65964	0.63205	0.576
Mof_S 	S 	0.36024	0.34036	0.63205	0.589
Mof_S 	S 	0.63976	0.65964	0.13205	0.572
Mof_S 	S 	0.01988	0.65964	0.86795	0.573
Mof_S 	S 	0.98012	0.34036	0.36795	0.577
Mof_O 	O 	0.2509	0.2512	0.3485	-0.589
Mof_O 	O 	0.1332	0.1268	0.4235	-0.506
Mof_O 	O 	0.7489	0.7808	0.363	-0.413
Mof_O 	O 	0.5191	0.651	0.3438	-0.3
Mof_O 	O 	0.6683	0.5658	0.3423	-0.316
Mof_O 	O 	0.7491	0.7488	0.8485	-0.606
Mof_O 	O 	0.8668	0.8732	0.9235	-0.398
Mof_O 	O 	0.2511	0.2192	0.863	-0.486
Mof_O 	O 	0.4809	0.349	0.8438	-0.345
Mof_O 	O 	0.3317	0.4342	0.8423	-0.312
Mof_O 	O 	0.9997	0.7488	0.1515	-0.599
Mof_O 	O 	0.0064	0.8732	0.0765	-0.395
Mof_O 	O 	0.9681	0.2192	0.137	-0.483
Mof_O 	O 	0.8681	0.349	0.1562	-0.342
Mof_O 	O 	0.1025	0.4342	0.1577	-0.303
Mof_O 	O 	0.0003	0.2512	0.6515	-0.579
Mof_O 	O 	0.9936	0.1268	0.5765	-0.526
Mof_O 	O 	0.0319	0.7808	0.637	-0.43
Mof_O 	O 	0.1319	0.651	0.6562	-0.303
Mof_O 	O 	0.8975	0.5658	0.6577	-0.318
Mof_O 	O 	0.7491	0.7488	0.6515	-0.606
Mof_O 	O 	0.8668	0.8732	0.5765	-0.397
Mof_O 	O 	0.2511	0.2192	0.637	-0.487
Mof_O 	O 	0.4809	0.349	0.6562	-0.345
Mof_O 	O 	0.3317	0.4342	0.6577	-0.312
Mof_O 	O 	0.2509	0.2512	0.1515	-0.589
Mof_O 	O 	0.1332	0.1268	0.0765	-0.505
Mof_O 	O 	0.7489	0.7808	0.137	-0.413
Mof_O 	O 	0.5191	0.651	0.1562	-0.301
Mof_O 	O 	0.6683	0.5658	0.1577	-0.316
Mof_O 	O 	0.0003	0.2512	0.8485	-0.58
Mof_O 	O 	0.9936	0.1268	0.9235	-0.525
Mof_O 	O 	0.0319	0.7808	0.863	-0.43
Mof_O 	O 	0.1319	0.651	0.8438	-0.303
Mof_O 	O 	0.8975	0.5658	0.8423	-0.316
Mof_O 	O 	0.9997	0.7488	0.3485	-0.599
Mof_O 	O 	0.0064	0.8732	0.4235	-0.396
Mof_O 	O 	0.9681	0.2192	0.363	-0.483
Mof_O 	O 	0.8681	0.349	0.3438	-0.342
Mof_O 	O 	0.1025	0.4342	0.3423	-0.304
Mof_O 	O 	0.1597	0	0.3111	-1.031
Mof_O 	O 	0.8403	0	0.8111	-1.051
Mof_O 	O 	0.1597	0	0.1889	-1.031
Mof_O 	O 	0.8403	1.83284e-32	0.6889	-1.051
Mof_O 	O 	0.0365	0.1202	0.25	-0.889
Mof_O 	O 	0.9635	0.8798	0.75	-0.799
Mof_O 	O 	0.9163	0.8798	0.25	-0.776
Mof_O 	O 	0.0837	0.1202	0.75	-0.907
_end
