# CIF file generated by openbabel 3.1.0, see https://openbabel.org
data_I
_chemical_name_common 'image0'
_cell_length_a 6.6031
_cell_length_b 18.0599
_cell_length_c 10.8579
_cell_angle_alpha 90
_cell_angle_beta 90.3736
_cell_angle_gamma 90
_space_group_name_H-M_alt 'P 1'
_space_group_name_Hall 'P 1'
loop_
    _symmetry_equiv_pos_as_xyz
    x,y,z
loop_
    _atom_site_label
    _atom_site_type_symbol
    _atom_site_fract_x
    _atom_site_fract_y
    _atom_site_fract_z
    _atom_site_occupancy
    Al1      Al       0.23660    0.23460    0.24400    1.000
    O1       O        0.98910    0.23210    0.15980    1.000
    O2       O        0.83540    0.66110    0.63590    1.000
    O3       O        0.32350    0.15840    0.13350    1.000
    O4       O        0.16180    0.30790    0.35480    1.000
    O5       O        0.68120    0.80480    0.88030    1.000
    Al2      Al       0.25460    0.73650    0.75510    1.000
    O6       O        0.50750    0.73050    0.68300    1.000
    O7       O        0.36510    0.80220    0.87300    1.000
    O8       O        0.85020    0.29990    0.36570    1.000
    O9       O        0.67540    0.14450    0.16620    1.000
    O10      O        0.15940    0.65010    0.65700    1.000
    C1       C        0.81605    0.51082    0.53472    1.000
    C2       C        0.83051    0.43997    0.45969    1.000
    C3       C        0.20423    0.43876    0.47907    1.000
    C4       C        0.19948    0.51212    0.55077    1.000
    C5       C        0.00581    0.55652    0.53137    1.000
    C6       C        0.01323    0.39260    0.49139    1.000
    C7       C        0.99297    0.62640    0.60648    1.000
    C8       C        0.01834    0.32484    0.41053    1.000
    C9       C        0.32210    0.95536    0.94692    1.000
    C10      C        0.31436    0.02639    0.02474    1.000
    C11      C        0.68266    0.01781    0.06629    1.000
    C12      C        0.70091    0.94921    0.98600    1.000
    C13      C        0.50607    0.90697    0.97362    1.000
    C14      C        0.51198    0.06935    0.02833    1.000
    C15      C        0.52285    0.83936    0.89322    1.000
    C16      C        0.50168    0.13451    0.11469    1.000
    Al3      Al       0.76340    0.73460    0.75600    1.000
    O11      O        0.01090    0.73210    0.84020    1.000
    O12      O        0.16460    0.16110    0.36410    1.000
    O13      O        0.67650    0.65840    0.86650    1.000
    O14      O        0.83820    0.80790    0.64520    1.000
    O15      O        0.31880    0.30480    0.11970    1.000
    Al4      Al       0.74540    0.23650    0.24490    1.000
    O16      O        0.49250    0.23050    0.31700    1.000
    O17      O        0.63490    0.30220    0.12700    1.000
    O18      O        0.14980    0.79990    0.63430    1.000
    O19      O        0.32460    0.64450    0.83380    1.000
    O20      O        0.84060    0.15010    0.34300    1.000
    C17      C        0.18395    0.01082    0.46528    1.000
    C18      C        0.16949    0.93997    0.54031    1.000
    C19      C        0.79577    0.93876    0.52093    1.000
    C20      C        0.80052    0.01212    0.44923    1.000
    C21      C        0.99419    0.05652    0.46863    1.000
    C22      C        0.98677    0.89260    0.50861    1.000
    C23      C        0.00703    0.12640    0.39352    1.000
    C24      C        0.98166    0.82484    0.58947    1.000
    C25      C        0.67790    0.45536    0.05308    1.000
    C26      C        0.68564    0.52639    0.97526    1.000
    C27      C        0.31734    0.51781    0.93371    1.000
    C28      C        0.29909    0.44921    0.01400    1.000
    C29      C        0.49393    0.40697    0.02638    1.000
    C30      C        0.48802    0.56935    0.97167    1.000
    C31      C        0.47715    0.33936    0.10678    1.000
    C32      C        0.49832    0.63451    0.88531    1.000
