data_functionalizedCrystal
_audit_creation_method	'EQeq! by Chris Wilmer'
_symmetry_space_group_name_H-M	'P1'
_symmetry_Int_Tables_number	1
_symmetry_cell_setting	triclinic
loop_
_symmetry_equiv_pos_as_xyz
  x,y,z
_cell_length_a	7.9025
_cell_length_b	12.355
_cell_length_c	12.355
_cell_angle_alpha	90
_cell_angle_beta	90
_cell_angle_gamma	90
loop_
_atom_site_label
_atom_site_type_symbol
_atom_site_fract_x
_atom_site_fract_y
_atom_site_fract_z
_atom_site_charge
Mof_Cu	Cu	0.96648	0.32318	0.01525	0.879
Mof_Cu	Cu	0.46648	0.67682	0.98475	0.891
Mof_Cu	Cu	0.21648	0.98475	0.32318	0.894
Mof_Cu	Cu	0.71648	0.01525	0.67682	0.891
Mof_H 	H 	0.8181	0.0981	0.1067	0.155
Mof_H 	H 	0.8528	0.0554	0.224	0.157
Mof_H 	H 	0.7984	0.2281	0.294	-0.034
Mof_H 	H 	0.6404	0.1846	0.2302	-0.036
Mof_H 	H 	0.5341	0.3653	0.1584	-0.016
Mof_H 	H 	0.645	0.3912	0.2608	-0.027
Mof_H 	H 	0.8107	0.5095	0.1588	0.143
Mof_H 	H 	0.6211	0.5465	0.157	0.136
Mof_H 	H 	0.3181	0.9019	0.8933	0.145
Mof_H 	H 	0.3528	0.9446	0.776	0.15
Mof_H 	H 	0.2984	0.7719	0.706	-0.017
Mof_H 	H 	0.1404	0.8154	0.7698	-0.022
Mof_H 	H 	0.0341	0.6347	0.8416	-0.008
Mof_H 	H 	0.145	0.6088	0.7392	-0.02
Mof_H 	H 	0.3107	0.4905	0.8412	0.151
Mof_H 	H 	0.1211	0.4535	0.843	0.142
Mof_H 	H 	0.0681	0.8933	0.0981	0.165
Mof_H 	H 	0.1028	0.776	0.0554	0.168
Mof_H 	H 	0.0484	0.706	0.2281	-0.034
Mof_H 	H 	0.8904	0.7698	0.1846	-0.067
Mof_H 	H 	0.7841	0.8416	0.3653	-0.018
Mof_H 	H 	0.895	0.7392	0.3912	-0.034
Mof_H 	H 	0.0607	0.8412	0.5095	0.18
Mof_H 	H 	0.8711	0.843	0.5465	0.148
Mof_H 	H 	0.5681	0.1067	0.9019	0.144
Mof_H 	H 	0.6028	0.224	0.9446	0.149
Mof_H 	H 	0.5484	0.294	0.7719	-0.019
Mof_H 	H 	0.3904	0.2302	0.8154	-0.026
Mof_H 	H 	0.2841	0.1584	0.6347	-0.012
Mof_H 	H 	0.395	0.2608	0.6088	-0.023
Mof_H 	H 	0.5607	0.1588	0.4905	0.15
Mof_H 	H 	0.3711	0.157	0.4535	0.138
Mof_C 	C 	0.0459	0.1458	0.165	0.251
Mof_C 	C 	0.8628	0.118	0.1771	-0.456
Mof_C 	C 	0.7568	0.2083	0.2229	0.236
Mof_C 	C 	0.647	0.3845	0.1825	0.21
Mof_C 	C 	0.6987	0.4907	0.1328	-0.399
Mof_C 	C 	0.7009	0.4893	0.0123	0.202
Mof_C 	C 	0.5459	0.8542	0.835	0.211
Mof_C 	C 	0.3628	0.882	0.8229	-0.397
Mof_C 	C 	0.2568	0.7917	0.7771	0.204
Mof_C 	C 	0.147	0.6155	0.8175	0.204
Mof_C 	C 	0.1987	0.5093	0.8672	-0.4
Mof_C 	C 	0.2009	0.5107	0.9877	0.207
Mof_C 	C 	0.2959	0.835	0.1458	0.225
Mof_C 	C 	0.1128	0.8229	0.118	-0.444
Mof_C 	C 	0.0068	0.7771	0.2083	0.284
Mof_C 	C 	0.897	0.8175	0.3845	0.21
Mof_C 	C 	0.9487	0.8672	0.4907	-0.451
Mof_C 	C 	0.9509	0.9877	0.4893	0.2
Mof_C 	C 	0.7959	0.165	0.8542	0.209
Mof_C 	C 	0.6128	0.1771	0.882	-0.399
Mof_C 	C 	0.5068	0.2229	0.7917	0.208
Mof_C 	C 	0.397	0.1825	0.6155	0.207
Mof_C 	C 	0.4487	0.1328	0.5093	-0.401
Mof_C 	C 	0.4509	0.0123	0.5107	0.208
Mof_N 	N 	0.1037	0.2254	0.1007	-0.207
Mof_N 	N 	0.2751	0.225	0.1081	-0.052
Mof_N 	N 	0.3202	0.146	0.1726	-0.065
Mof_N 	N 	0.1775	0.0952	0.2104	-0.222
Mof_N 	N 	0.7974	0.4222	0.9543	-0.216
Mof_N 	N 	0.7666	0.444	0.8491	-0.06
Mof_N 	N 	0.6578	0.5224	0.8432	-0.056
Mof_N 	N 	0.614	0.5518	0.9465	-0.215
Mof_N 	N 	0.6037	0.7746	0.8993	-0.211
Mof_N 	N 	0.7751	0.775	0.8919	-0.059
Mof_N 	N 	0.8202	0.854	0.8274	-0.071
Mof_N 	N 	0.6775	0.9048	0.7896	-0.218
Mof_N 	N 	0.2974	0.5778	0.0457	-0.213
Mof_N 	N 	0.2666	0.556	0.1509	-0.055
Mof_N 	N 	0.1578	0.4776	0.1568	-0.048
Mof_N 	N 	0.114	0.4482	0.0535	-0.205
Mof_N 	N 	0.3537	0.8993	0.2254	-0.213
Mof_N 	N 	0.5251	0.8919	0.225	-0.054
Mof_N 	N 	0.5702	0.8274	0.146	-0.067
Mof_N 	N 	0.4275	0.7896	0.0952	-0.22
Mof_N 	N 	0.0474	0.0457	0.4222	-0.202
Mof_N 	N 	0.0166	0.1509	0.444	-0.04
Mof_N 	N 	0.9078	0.1568	0.5224	-0.069
Mof_N 	N 	0.864	0.0535	0.5518	-0.22
Mof_N 	N 	0.8537	0.1007	0.7746	-0.221
Mof_N 	N 	0.0251	0.1081	0.775	-0.041
Mof_N 	N 	0.0702	0.1726	0.854	-0.056
Mof_N 	N 	0.9275	0.2104	0.9048	-0.229
Mof_N 	N 	0.5474	0.9543	0.5778	-0.214
Mof_N 	N 	0.5166	0.8491	0.556	-0.057
Mof_N 	N 	0.4078	0.8432	0.4776	-0.053
Mof_N 	N 	0.364	0.9465	0.4482	-0.214
Mof_O 	O 	0.765	0.301	0.1513	-0.346
Mof_O 	O 	0.265	0.699	0.8487	-0.334
Mof_O 	O 	0.015	0.8487	0.301	-0.334
Mof_O 	O 	0.515	0.1513	0.699	-0.335
_end
