# CIF file generated by openbabel 3.1.0, see https://openbabel.org
data_I
_chemical_name_common 'image0'
_cell_length_a 9.4277
_cell_length_b 9.8665
_cell_length_c 12.8805
_cell_angle_alpha 108.81
_cell_angle_beta 94.996
_cell_angle_gamma 105.387
_space_group_name_H-M_alt 'P 1'
_space_group_name_Hall 'P 1'
loop_
    _symmetry_equiv_pos_as_xyz
    x,y,z
loop_
    _atom_site_label
    _atom_site_type_symbol
    _atom_site_fract_x
    _atom_site_fract_y
    _atom_site_fract_z
    _atom_site_occupancy
    Zn1      Zn       0.27192    0.63836    0.25999    1.000
    Zn2      Zn       0.87740    0.55882    0.24182    1.000
    Zn3      Zn       0.10364    0.18954    0.47715    1.000
    P1       P        0.12851    0.87081    0.36803    1.000
    O1       O        0.00870    0.75820    0.26630    1.000
    O2       O        0.27890    0.83770    0.35960    1.000
    O3       O        0.15200    0.03030    0.36810    1.000
    O4       O        0.08440    0.86350    0.47780    1.000
    C1       C        0.18840    0.40640    0.36130    1.000
    H1       H        0.28860    0.40370    0.37060    1.000
    C2       C        0.95770    0.36540    0.36790    1.000
    C3       C        0.19110    0.50820    0.00560    1.000
    C4       C        0.57360    0.72350    0.40460    1.000
    C5       C        0.56320    0.56210    0.24680    1.000
    H2       H        0.52690    0.49030    0.17310    1.000
    N1       N        0.14240    0.48560    0.30880    1.000
    N2       N        0.99010    0.45890    0.31340    1.000
    N3       N        0.08030    0.33010    0.40020    1.000
    N4       N        0.82510    0.31430    0.39340    1.000
    H3       H        0.74940    0.34280    0.37360    1.000
    H4       H        0.81300    0.25190    0.43000    1.000
    N5       N        0.18420    0.55090    0.91980    1.000
    C6       C        0.26240    0.70360    0.96210    1.000
    N6       N        0.24300    0.61500    0.10420    1.000
    N7       N        0.30000    0.74670    0.07600    1.000
    N8       N        0.12870    0.35800    0.99020    1.000
    N9       N        0.70920    0.70560    0.40560    1.000
    N10      N        0.70110    0.59950    0.30090    1.000
    N11      N        0.47960    0.63570    0.30650    1.000
    N12      N        0.53210    0.81180    0.49340    1.000
    H5       H        0.59630    0.86190    0.55690    1.000
    H6       H        0.44090    0.81900    0.48750    1.000
    C7       C        0.81700    0.29810    0.03470    1.000
    N13      N        0.77700    0.37400    0.89610    1.000
    N14      N        0.79300    0.26200    0.92700    1.000
    N15      N        0.76900    0.62500    0.99930    1.000
    Zn4      Zn       0.72808    0.36164    0.74001    1.000
    Zn5      Zn       0.12260    0.44118    0.75818    1.000
    Zn6      Zn       0.89636    0.81046    0.52285    1.000
    P2       P        0.87149    0.12919    0.63197    1.000
    O5       O        0.99130    0.24180    0.73370    1.000
    O6       O        0.72110    0.16230    0.64040    1.000
    O7       O        0.84800    0.96970    0.63190    1.000
    O8       O        0.91560    0.13650    0.52220    1.000
    C8       C        0.81160    0.59360    0.63870    1.000
    H7       H        0.71140    0.59630    0.62940    1.000
    C9       C        0.04230    0.63460    0.63210    1.000
    C10      C        0.80890    0.49180    0.99440    1.000
    C11      C        0.42640    0.27650    0.59540    1.000
    C12      C        0.43680    0.43790    0.75320    1.000
    H8       H        0.47310    0.50970    0.82690    1.000
    N16      N        0.85760    0.51440    0.69120    1.000
    N17      N        0.00990    0.54110    0.68660    1.000
    N18      N        0.91970    0.66990    0.59980    1.000
    N19      N        0.17490    0.68570    0.60660    1.000
    H9       H        0.25060    0.65720    0.62640    1.000
    H10      H        0.18700    0.74810    0.57000    1.000
    N20      N        0.81580    0.44910    0.08020    1.000
    C13      C        0.73760    0.29640    0.03790    1.000
    N21      N        0.75700    0.38500    0.89580    1.000
    N22      N        0.70000    0.25330    0.92400    1.000
    N23      N        0.87130    0.64200    0.00980    1.000
    N24      N        0.29080    0.29440    0.59440    1.000
    N25      N        0.29890    0.40050    0.69910    1.000
    N26      N        0.52040    0.36430    0.69350    1.000
    N27      N        0.46790    0.18820    0.50660    1.000
    H11      H        0.40370    0.13810    0.44310    1.000
    H12      H        0.55910    0.18100    0.51250    1.000
    C14      C        0.18300    0.70190    0.96530    1.000
    N28      N        0.22300    0.62600    0.10390    1.000
    N29      N        0.20700    0.73800    0.07300    1.000
    N30      N        0.23100    0.37500    0.00070    1.000
