data_functionalizedCrystal
_audit_creation_method	'EQeq! by Chris Wilmer'
_symmetry_space_group_name_H-M	'P1'
_symmetry_Int_Tables_number	1
_symmetry_cell_setting	triclinic
loop_
_symmetry_equiv_pos_as_xyz
  x,y,z
_cell_length_a	14.107
_cell_length_b	15.163
_cell_length_c	17.765
_cell_angle_alpha	90
_cell_angle_beta	111.025
_cell_angle_gamma	90
loop_
_atom_site_label
_atom_site_type_symbol
_atom_site_fract_x
_atom_site_fract_y
_atom_site_fract_z
_atom_site_charge
Mof_Mn	Mn	0.65196	0.17218	0.44483	0.928
Mof_Mn	Mn	0.61865	0.40549	0.37389	0.858
Mof_O 	O 	0.1465	0.2646	0.8351	-0.389
Mof_O 	O 	0.0282	0.1672	0.7669	-0.361
Mof_O 	O 	0.768	0.3915	0.4602	-0.395
Mof_O 	O 	0.7675	0.2583	0.5123	-0.405
Mof_O 	O 	0.537	0.3536	0.4424	-0.388
Mof_O 	O 	0.497	0.2111	0.4219	-0.374
Mof_O 	O 	0.2753	0.5706	0.4502	-0.32
Mof_O 	O 	0.1175	0.5271	0.4098	-0.336
Mof_C 	C 	0.0708	0.242	0.7737	0.333
Mof_C 	C 	0.028	0.307	0.7075	-0.087
Mof_C 	C 	0.9417	0.2903	0.6425	0.022
Mof_H 	H 	0.9084	0.2369	0.6402	0.046
Mof_C 	C 	0.9013	0.3506	0.5791	-0.099
Mof_C 	C 	0.9508	0.4315	0.5831	-0.03
Mof_H 	H 	0.9236	0.4735	0.5429	0.054
Mof_C 	C 	0.0406	0.4493	0.6469	0.014
Mof_C 	C 	0.079	0.3851	0.7106	-0.027
Mof_H 	H 	0.1385	0.3966	0.754	0.051
Mof_C 	C 	0.802	0.3323	0.5116	0.409
Mof_C 	C 	0.0949	0.5323	0.6484	-0.018
Mof_C 	C 	0.1456	0.5818	0.7178	-0.016
Mof_H 	H 	0.143	0.5642	0.7672	0.046
Mof_C 	C 	0.1982	0.6554	0.7136	-0.093
Mof_H 	H 	0.2342	0.6869	0.76	0.071
Mof_C 	C 	0.1975	0.6829	0.6386	0.064
Mof_H 	H 	0.2315	0.7346	0.6357	0.019
Mof_C 	C 	0.1004	0.5642	0.5768	0.022
Mof_H 	H 	0.0677	0.5322	0.53	0.031
Mof_C 	C 	0.1978	0.2612	0.4094	-0.007
Mof_C 	C 	0.1702	0.3498	0.4155	-0.003
Mof_H 	H 	0.1014	0.3644	0.4086	0.031
Mof_C 	C 	0.2982	0.2438	0.421	-0.019
Mof_H 	H 	0.3184	0.1835	0.42	0.032
Mof_C 	C 	0.9758	0.0537	0.3598	0.058
Mof_H 	H 	0.9279	0.0087	0.3488	0.007
Mof_N 	N 	0.0764	0.0341	0.3719	-0.179
Mof_C 	C 	0.148	0.1014	0.3883	0.015
Mof_H 	H 	0.2175	0.0878	0.3967	0.005
Mof_C 	C 	0.1188	0.1882	0.3927	-0.017
Mof_C 	C 	0.0182	0.2078	0.3806	0.005
Mof_H 	H 	0.9987	0.2659	0.3835	0.03
Mof_C 	C 	0.9466	0.1406	0.3642	-0.098
Mof_H 	H 	0.8793	0.1537	0.3561	0.077
Mof_C 	C 	0.2452	0.4174	0.4323	-0.072
Mof_C 	C 	0.3423	0.3975	0.4336	0.014
Mof_H 	H 	0.387	0.4427	0.4339	0.042
Mof_C 	C 	0.372	0.3101	0.4344	-0.089
Mof_C 	C 	0.2084	0.511	0.4317	0.303
Mof_C 	C 	0.4773	0.2895	0.4328	0.362
Mof_N 	N 	0.1499	0.6383	0.5704	-0.167
Mof_C 	C 	0.2284	0.2638	0.463	0.013
Mof_C 	C 	0.1919	0.3506	0.4523	-0.031
Mof_H 	H 	0.1287	0.3639	0.4587	0.035
Mof_C 	C 	0.3205	0.2443	0.4558	-0.005
Mof_H 	H 	0.3478	0.1857	0.4657	0.029
Mof_C 	C 	0.0726	0.0439	0.5114	0.036
Mof_H 	H 	0.0404	0.995	0.523	0.034
Mof_N 	N 	0.1251	0.0361	0.4588	-0.116
Mof_C 	C 	0.1732	0.1092	0.4416	0.034
Mof_H 	H 	0.2095	0.1038	0.4053	0.01
Mof_C 	C 	0.1688	0.1901	0.4769	-0.006
Mof_C 	C 	0.1163	0.198	0.5295	-0.032
Mof_H 	H 	0.1134	0.2521	0.5532	0.049
Mof_C 	C 	0.0682	0.1249	0.5468	-0.066
Mof_H 	H 	0.0331	0.1301	0.582	0.065
Mof_Mn	Mn	0.15196	0.67218	0.44483	0.929
Mof_Mn	Mn	0.11865	0.90549	0.37389	0.858
Mof_O 	O 	0.6465	0.7646	0.8351	-0.392
Mof_O 	O 	0.5282	0.6672	0.7669	-0.364
Mof_O 	O 	0.268	0.8915	0.4602	-0.396
Mof_O 	O 	0.2675	0.7583	0.5123	-0.407
Mof_O 	O 	0.037	0.8536	0.4424	-0.384
Mof_O 	O 	0.997	0.7111	0.4219	-0.376
Mof_O 	O 	0.7753	0.0706	0.4502	-0.32
Mof_O 	O 	0.6175	0.0271	0.4098	-0.337
Mof_C 	C 	0.5708	0.742	0.7737	0.336
Mof_C 	C 	0.528	0.807	0.7075	-0.099
Mof_C 	C 	0.4417	0.7903	0.6425	0.036
Mof_H 	H 	0.4084	0.7369	0.6402	0.042
Mof_C 	C 	0.4013	0.8506	0.5791	-0.107
Mof_C 	C 	0.4508	0.9315	0.5831	-0.017
Mof_H 	H 	0.4236	0.9735	0.5429	0.051
Mof_C 	C 	0.5406	0.9493	0.6469	0.003
Mof_C 	C 	0.579	0.8851	0.7106	-0.018
Mof_H 	H 	0.6385	0.8966	0.754	0.048
Mof_C 	C 	0.302	0.8323	0.5116	0.412
Mof_C 	C 	0.5949	0.0323	0.6484	-0.013
Mof_C 	C 	0.6456	0.0818	0.7178	-0.019
Mof_H 	H 	0.643	0.0642	0.7672	0.047
Mof_C 	C 	0.6982	0.1554	0.7136	-0.091
Mof_H 	H 	0.7342	0.1869	0.76	0.07
Mof_C 	C 	0.6975	0.1829	0.6386	0.063
Mof_H 	H 	0.7315	0.2346	0.6357	0.02
Mof_C 	C 	0.6004	0.0642	0.5768	0.02
Mof_H 	H 	0.5677	0.0322	0.53	0.031
Mof_C 	C 	0.6978	0.7612	0.4094	-0.013
Mof_C 	C 	0.6702	0.8498	0.4155	-0.007
Mof_H 	H 	0.6014	0.8644	0.4086	0.031
Mof_C 	C 	0.7982	0.7438	0.421	-0.023
Mof_H 	H 	0.8184	0.6835	0.42	0.033
Mof_C 	C 	0.4758	0.5537	0.3598	0.054
Mof_H 	H 	0.4279	0.5087	0.3488	0.009
Mof_N 	N 	0.5764	0.5341	0.3719	-0.177
Mof_C 	C 	0.648	0.6014	0.3883	-0.003
Mof_H 	H 	0.7175	0.5878	0.3967	0.007
Mof_C 	C 	0.6188	0.6882	0.3927	-0
Mof_C 	C 	0.5182	0.7078	0.3806	-0.022
Mof_H 	H 	0.4987	0.7659	0.3835	0.043
Mof_C 	C 	0.4466	0.6406	0.3642	-0.078
Mof_H 	H 	0.3793	0.6537	0.3561	0.071
Mof_C 	C 	0.7452	0.9174	0.4323	-0.073
Mof_C 	C 	0.8423	0.8975	0.4336	0.013
Mof_H 	H 	0.887	0.9427	0.4339	0.041
Mof_C 	C 	0.872	0.8101	0.4344	-0.089
Mof_C 	C 	0.7084	0.011	0.4317	0.304
Mof_C 	C 	0.9773	0.7895	0.4328	0.357
Mof_N 	N 	0.6499	0.1383	0.5704	-0.167
Mof_C 	C 	0.7284	0.7638	0.463	0.018
Mof_C 	C 	0.6919	0.8506	0.4523	-0.027
Mof_H 	H 	0.6287	0.8639	0.4587	0.034
Mof_C 	C 	0.8205	0.7443	0.4558	-0.002
Mof_H 	H 	0.8478	0.6857	0.4657	0.026
Mof_C 	C 	0.5726	0.5439	0.5114	0.037
Mof_H 	H 	0.5404	0.495	0.523	0.032
Mof_N 	N 	0.6251	0.5361	0.4588	-0.118
Mof_C 	C 	0.6732	0.6092	0.4416	0.046
Mof_H 	H 	0.7095	0.6038	0.4053	0.012
Mof_C 	C 	0.6688	0.6901	0.4769	-0.018
Mof_C 	C 	0.6163	0.698	0.5295	-0.024
Mof_H 	H 	0.6134	0.7521	0.5532	0.045
Mof_C 	C 	0.5682	0.6249	0.5468	-0.071
Mof_H 	H 	0.5331	0.6301	0.582	0.066
Mof_Mn	Mn	0.65196	0.82782	0.94483	0.926
Mof_Mn	Mn	0.61865	0.59451	0.87389	0.857
Mof_O 	O 	0.1465	0.7354	0.3351	-0.39
Mof_O 	O 	0.0282	0.8328	0.2669	-0.362
Mof_O 	O 	0.768	0.6085	0.9602	-0.397
Mof_O 	O 	0.7675	0.7417	0.0123	-0.406
Mof_O 	O 	0.537	0.6464	0.9424	-0.389
Mof_O 	O 	0.497	0.7889	0.9219	-0.374
Mof_O 	O 	0.2753	0.4294	0.9502	-0.32
Mof_O 	O 	0.1175	0.4729	0.9098	-0.336
Mof_C 	C 	0.0708	0.758	0.2737	0.333
Mof_C 	C 	0.028	0.693	0.2075	-0.087
Mof_C 	C 	0.9417	0.7097	0.1425	0.022
Mof_H 	H 	0.9084	0.7631	0.1402	0.046
Mof_C 	C 	0.9013	0.6494	0.0791	-0.099
Mof_C 	C 	0.9508	0.5685	0.0831	-0.03
Mof_H 	H 	0.9236	0.5265	0.0429	0.055
Mof_C 	C 	0.0406	0.5507	0.1469	0.015
Mof_C 	C 	0.079	0.6149	0.2106	-0.027
Mof_H 	H 	0.1385	0.6034	0.254	0.051
Mof_C 	C 	0.802	0.6677	0.0116	0.41
Mof_C 	C 	0.0949	0.4677	0.1484	-0.017
Mof_C 	C 	0.1456	0.4182	0.2178	-0.016
Mof_H 	H 	0.143	0.4358	0.2672	0.046
Mof_C 	C 	0.1982	0.3446	0.2136	-0.093
Mof_H 	H 	0.2342	0.3131	0.26	0.071
Mof_C 	C 	0.1975	0.3171	0.1386	0.065
Mof_H 	H 	0.2315	0.2654	0.1357	0.02
Mof_C 	C 	0.1004	0.4358	0.0768	0.023
Mof_H 	H 	0.0677	0.4678	0.03	0.032
Mof_C 	C 	0.1978	0.7388	0.9094	-0.008
Mof_C 	C 	0.1702	0.6502	0.9155	-0.004
Mof_H 	H 	0.1014	0.6356	0.9086	0.031
Mof_C 	C 	0.2982	0.7562	0.921	-0.02
Mof_H 	H 	0.3184	0.8165	0.92	0.032
Mof_C 	C 	0.9758	0.9463	0.8598	0.057
Mof_H 	H 	0.9279	0.9913	0.8488	0.007
Mof_N 	N 	0.0764	0.9659	0.8719	-0.178
Mof_C 	C 	0.148	0.8986	0.8883	0.011
Mof_H 	H 	0.2175	0.9122	0.8967	0.005
Mof_C 	C 	0.1188	0.8118	0.8927	-0.014
Mof_C 	C 	0.0182	0.7922	0.8806	0.002
Mof_H 	H 	0.9987	0.7341	0.8835	0.031
Mof_C 	C 	0.9466	0.8594	0.8642	-0.096
Mof_H 	H 	0.8793	0.8463	0.8561	0.077
Mof_C 	C 	0.2452	0.5826	0.9323	-0.072
Mof_C 	C 	0.3423	0.6025	0.9336	0.014
Mof_H 	H 	0.387	0.5573	0.9339	0.042
Mof_C 	C 	0.372	0.6899	0.9344	-0.089
Mof_C 	C 	0.2084	0.489	0.9317	0.303
Mof_C 	C 	0.4773	0.7105	0.9328	0.362
Mof_N 	N 	0.1499	0.3617	0.0704	-0.167
Mof_C 	C 	0.2284	0.7362	0.963	0.014
Mof_C 	C 	0.1919	0.6494	0.9523	-0.03
Mof_H 	H 	0.1287	0.6361	0.9587	0.035
Mof_C 	C 	0.3205	0.7557	0.9558	-0.004
Mof_H 	H 	0.3478	0.8143	0.9657	0.028
Mof_C 	C 	0.0726	0.9561	0.0114	0.037
Mof_H 	H 	0.0404	0.005	0.023	0.034
Mof_N 	N 	0.1251	0.9639	0.9588	-0.118
Mof_C 	C 	0.1732	0.8908	0.9416	0.038
Mof_H 	H 	0.2095	0.8962	0.9053	0.011
Mof_C 	C 	0.1688	0.8099	0.9769	-0.011
Mof_C 	C 	0.1163	0.802	0.0295	-0.028
Mof_H 	H 	0.1134	0.7479	0.0532	0.047
Mof_C 	C 	0.0682	0.8751	0.0468	-0.068
Mof_H 	H 	0.0331	0.8699	0.082	0.066
Mof_Mn	Mn	0.15196	0.32782	0.94483	0.928
Mof_Mn	Mn	0.11865	0.09451	0.87389	0.858
Mof_O 	O 	0.6465	0.2354	0.3351	-0.392
Mof_O 	O 	0.5282	0.3328	0.2669	-0.364
Mof_O 	O 	0.268	0.1085	0.9602	-0.398
Mof_O 	O 	0.2675	0.2417	0.0123	-0.406
Mof_O 	O 	0.037	0.1464	0.9424	-0.385
Mof_O 	O 	0.997	0.2889	0.9219	-0.376
Mof_O 	O 	0.7753	0.9294	0.9502	-0.321
Mof_O 	O 	0.6175	0.9729	0.9098	-0.337
Mof_C 	C 	0.5708	0.258	0.2737	0.336
Mof_C 	C 	0.528	0.193	0.2075	-0.098
Mof_C 	C 	0.4417	0.2097	0.1425	0.036
Mof_H 	H 	0.4084	0.2631	0.1402	0.042
Mof_C 	C 	0.4013	0.1494	0.0791	-0.107
Mof_C 	C 	0.4508	0.0685	0.0831	-0.017
Mof_H 	H 	0.4236	0.0265	0.0429	0.052
Mof_C 	C 	0.5406	0.0507	0.1469	0.004
Mof_C 	C 	0.579	0.1149	0.2106	-0.019
Mof_H 	H 	0.6385	0.1034	0.254	0.048
Mof_C 	C 	0.302	0.1677	0.0116	0.414
Mof_C 	C 	0.5949	0.9677	0.1484	-0.014
Mof_C 	C 	0.6456	0.9182	0.2178	-0.019
Mof_H 	H 	0.643	0.9358	0.2672	0.047
Mof_C 	C 	0.6982	0.8446	0.2136	-0.092
Mof_H 	H 	0.7342	0.8131	0.26	0.07
Mof_C 	C 	0.6975	0.8171	0.1386	0.063
Mof_H 	H 	0.7315	0.7654	0.1357	0.02
Mof_C 	C 	0.6004	0.9358	0.0768	0.02
Mof_H 	H 	0.5677	0.9678	0.03	0.032
Mof_C 	C 	0.6978	0.2388	0.9094	-0.014
Mof_C 	C 	0.6702	0.1502	0.9155	-0.008
Mof_H 	H 	0.6014	0.1356	0.9086	0.031
Mof_C 	C 	0.7982	0.2562	0.921	-0.024
Mof_H 	H 	0.8184	0.3165	0.92	0.034
Mof_C 	C 	0.4758	0.4463	0.8598	0.053
Mof_H 	H 	0.4279	0.4913	0.8488	0.009
Mof_N 	N 	0.5764	0.4659	0.8719	-0.176
Mof_C 	C 	0.648	0.3986	0.8883	-0.008
Mof_H 	H 	0.7175	0.4122	0.8967	0.007
Mof_C 	C 	0.6188	0.3118	0.8927	0.002
Mof_C 	C 	0.5182	0.2922	0.8806	-0.024
Mof_H 	H 	0.4987	0.2341	0.8835	0.043
Mof_C 	C 	0.4466	0.3594	0.8642	-0.077
Mof_H 	H 	0.3793	0.3463	0.8561	0.071
Mof_C 	C 	0.7452	0.0826	0.9323	-0.073
Mof_C 	C 	0.8423	0.1025	0.9336	0.013
Mof_H 	H 	0.887	0.0573	0.9339	0.041
Mof_C 	C 	0.872	0.1899	0.9344	-0.089
Mof_C 	C 	0.7084	0.989	0.9317	0.304
Mof_C 	C 	0.9773	0.2105	0.9328	0.357
Mof_N 	N 	0.6499	0.8617	0.0704	-0.166
Mof_C 	C 	0.7284	0.2362	0.963	0.019
Mof_C 	C 	0.6919	0.1494	0.9523	-0.026
Mof_H 	H 	0.6287	0.1361	0.9587	0.033
Mof_C 	C 	0.8205	0.2557	0.9558	-0.001
Mof_H 	H 	0.8478	0.3143	0.9657	0.026
Mof_C 	C 	0.5726	0.4561	0.0114	0.04
Mof_H 	H 	0.5404	0.505	0.023	0.032
Mof_N 	N 	0.6251	0.4639	0.9588	-0.12
Mof_C 	C 	0.6732	0.3908	0.9416	0.05
Mof_H 	H 	0.7095	0.3962	0.9053	0.013
Mof_C 	C 	0.6688	0.3099	0.9769	-0.023
Mof_C 	C 	0.6163	0.302	0.0295	-0.019
Mof_H 	H 	0.6134	0.2479	0.0532	0.044
Mof_C 	C 	0.5682	0.3751	0.0468	-0.074
Mof_H 	H 	0.5331	0.3699	0.082	0.067
_end
