# CIF file generated by openbabel 3.1.0, see https://openbabel.org
data_I
_chemical_name_common 'image0'
_cell_length_a 13.2928
_cell_length_b 6.57
_cell_length_c 13.6461
_cell_angle_alpha 90
_cell_angle_beta 119.069
_cell_angle_gamma 90
_space_group_name_H-M_alt 'P 1'
_space_group_name_Hall 'P 1'
loop_
    _symmetry_equiv_pos_as_xyz
    x,y,z
loop_
    _atom_site_label
    _atom_site_type_symbol
    _atom_site_fract_x
    _atom_site_fract_y
    _atom_site_fract_z
    _atom_site_occupancy
    Fe1      Fe       0.24739    0.24548    0.49570    1.000
    Fe2      Fe       0.49483    0.59155    0.99451    1.000
    Zn1      Zn       0.95027    0.40171    0.99672    1.000
    F1       F        0.10760    0.14890    0.48620    1.000
    F2       F        0.18680    0.51780    0.46460    1.000
    F3       F        0.30770    0.97700    0.52330    1.000
    F4       F        0.38670    0.34470    0.50330    1.000
    F5       F        0.97010    0.15600    0.92290    1.000
    F6       F        0.47580    0.34360    0.07140    1.000
    N1       N        0.17550    0.18720    0.31880    1.000
    N2       N        0.12460    0.34200    0.24310    1.000
    N3       N        0.07710    0.26390    0.14390    1.000
    N4       N        0.09190    0.05540    0.14930    1.000
    N5       N        0.18920    0.82690    0.30130    1.000
    H1       H        0.17400    0.72430    0.25720    1.000
    H2       H        0.22800    0.81000    0.37280    1.000
    C1       C        0.15250    0.01380    0.25860    1.000
    N6       N        0.80310    0.35640    0.00130    1.000
    N7       N        0.73780    0.51550    0.99960    1.000
    N8       N        0.64900    0.44490    0.00500    1.000
    N9       N        0.65190    0.23970    0.00910    1.000
    N10      N        0.78430    0.99120    0.01240    1.000
    H3       H        0.74520    0.89260    0.01870    1.000
    H4       H        0.84660    0.96630    0.01010    1.000
    C2       C        0.74700    0.18930    0.00610    1.000
    N11      N        0.31520    0.30430    0.66820    1.000
    N12      N        0.35470    0.15250    0.74470    1.000
    N13      N        0.40330    0.23300    0.84410    1.000
    N14      N        0.39910    0.43740    0.83880    1.000
    N15      N        0.31830    0.66980    0.68350    1.000
    H5       H        0.33810    0.77450    0.72670    1.000
    H6       H        0.28250    0.68530    0.61190    1.000
    C3       C        0.34350    0.48020    0.72830    1.000
    Zn2      Zn       0.50517    0.09155    0.00549    1.000
    Fe3      Fe       0.75261    0.74548    0.50430    1.000
    Zn3      Zn       0.04973    0.90171    0.00328    1.000
    F7       F        0.89240    0.64890    0.51380    1.000
    F8       F        0.81320    0.01780    0.53540    1.000
    F9       F        0.69230    0.47700    0.47670    1.000
    F10      F        0.61330    0.84470    0.49670    1.000
    F11      F        0.02990    0.65600    0.07710    1.000
    F12      F        0.52420    0.84360    0.92860    1.000
    N16      N        0.82450    0.68720    0.68120    1.000
    N17      N        0.87540    0.84200    0.75690    1.000
    N18      N        0.92290    0.76390    0.85610    1.000
    N19      N        0.90810    0.55540    0.85070    1.000
    N20      N        0.81080    0.32690    0.69870    1.000
    H7       H        0.82600    0.22430    0.74280    1.000
    H8       H        0.77200    0.31000    0.62720    1.000
    C4       C        0.84750    0.51380    0.74140    1.000
    N21      N        0.19690    0.85640    0.99870    1.000
    N22      N        0.26220    0.01550    0.00040    1.000
    N23      N        0.35100    0.94490    0.99500    1.000
    N24      N        0.34810    0.73970    0.99090    1.000
    N25      N        0.21570    0.49120    0.98760    1.000
    H9       H        0.25480    0.39260    0.98130    1.000
    H10      H        0.15340    0.46630    0.98990    1.000
    C5       C        0.25300    0.68930    0.99390    1.000
    N26      N        0.68480    0.80430    0.33180    1.000
    N27      N        0.64530    0.65250    0.25530    1.000
    N28      N        0.59670    0.73300    0.15590    1.000
    N29      N        0.60090    0.93740    0.16120    1.000
    N30      N        0.68170    0.16980    0.31650    1.000
    H11      H        0.66190    0.27450    0.27330    1.000
    H12      H        0.71750    0.18530    0.38810    1.000
    C6       C        0.65650    0.98020    0.27170    1.000
