# CIF file generated by openbabel 3.1.0, see https://openbabel.org
data_I
_chemical_name_common 'KIFXOO_clean'
_cell_length_a 11.275
_cell_length_b 13.288
_cell_length_c 18.774
_cell_angle_alpha 92.211
_cell_angle_beta 100.988
_cell_angle_gamma 104.96
_space_group_name_H-M_alt 'P 1'
_space_group_name_Hall 'P 1'
loop_
    _symmetry_equiv_pos_as_xyz
    x,y,z
loop_
    _atom_site_label
    _atom_site_type_symbol
    _atom_site_fract_x
    _atom_site_fract_y
    _atom_site_fract_z
    _atom_site_occupancy
    Ni1      Ni       0.04928    0.60947    0.92827    1.000
    Ni2      Ni       0.95072    0.39053    0.07173    1.000
    Ni3      Ni       0.50000    0.50000    0.50000    1.000
    Ni4      Ni       0.50000    0.00000    0.00000    1.000
    H1       H        0.84740    0.26430    0.42510    1.000
    H2       H        0.63530    0.06400    0.33750    1.000
    H3       H        0.44620    0.94150    0.29270    1.000
    H4       H        0.29880    0.05260    0.44660    1.000
    H5       H        0.48810    0.17320    0.49130    1.000
    H6       H        0.21870    0.95850    0.21050    1.000
    H7       H        0.15280    0.84070    0.10660    1.000
    H8       H        0.10260    0.60280    0.23120    1.000
    H9       H        0.17930    0.71950    0.33490    1.000
    H10      H        0.89310    0.69950    0.01620    1.000
    H11      H        0.69130    0.68980    0.02090    1.000
    H12      H        0.58350    0.50840    0.83400    1.000
    H13      H        0.79020    0.52220    0.83540    1.000
    H14      H        0.13670    0.93960    0.82460    1.000
    H15      H        0.10510    0.04130    0.72830    1.000
    H16      H        0.90240    0.78410    0.60060    1.000
    H17      H        0.93350    0.68270    0.69550    1.000
    H18      H        0.21100    0.03040    0.60060    1.000
    H19      H        0.32700    0.18740    0.56930    1.000
    H20      H        0.02390    0.29550    0.54050    1.000
    H21      H        0.90870    0.13970    0.57210    1.000
    H22      H        0.68480    0.66290    0.61630    1.000
    H23      H        0.69410    0.76840    0.71770    1.000
    H24      H        0.33100    0.62500    0.70680    1.000
    H25      H        0.33200    0.53040    0.60310    1.000
    H26      H        0.69280    0.80440    0.83890    1.000
    H27      H        0.68420    0.90530    0.93900    1.000
    H28      H        0.33150    0.88150    0.86370    1.000
    H29      H        0.32950    0.77690    0.76320    1.000
    H30      H        0.39030    0.49250    0.84060    1.000
    H31      H        0.51320    0.68950    0.01990    1.000
    H32      H        0.19260    0.50060    0.84330    1.000
    H33      H        0.31140    0.69220    0.01790    1.000
    H34      H        0.15260    0.73570    0.57490    1.000
    H35      H        0.36470    0.93600    0.66250    1.000
    H36      H        0.55380    0.05850    0.70730    1.000
    H37      H        0.70120    0.94740    0.55340    1.000
    H38      H        0.51190    0.82680    0.50870    1.000
    H39      H        0.78130    0.04150    0.78950    1.000
    H40      H        0.84720    0.15930    0.89340    1.000
    H41      H        0.89740    0.39720    0.76880    1.000
    H42      H        0.82070    0.28050    0.66510    1.000
    H43      H        0.10690    0.30050    0.98380    1.000
    H44      H        0.30870    0.31020    0.97910    1.000
    H45      H        0.41650    0.49160    0.16600    1.000
    H46      H        0.20980    0.47780    0.16460    1.000
    H47      H        0.86330    0.06040    0.17540    1.000
    H48      H        0.89490    0.95870    0.27170    1.000
    H49      H        0.09760    0.21590    0.39940    1.000
    H50      H        0.06650    0.31730    0.30450    1.000
    H51      H        0.78900    0.96960    0.39940    1.000
    H52      H        0.67300    0.81260    0.43070    1.000
    H53      H        0.97610    0.70450    0.45950    1.000
    H54      H        0.09130    0.86030    0.42790    1.000
    H55      H        0.31520    0.33710    0.38370    1.000
    H56      H        0.30590    0.23160    0.28230    1.000
    H57      H        0.66900    0.37500    0.29320    1.000
    H58      H        0.66800    0.46960    0.39690    1.000
    H59      H        0.30720    0.19560    0.16110    1.000
    H60      H        0.31580    0.09470    0.06100    1.000
    H61      H        0.66850    0.11850    0.13630    1.000
    H62      H        0.67050    0.22310    0.23680    1.000
    H63      H        0.60970    0.50750    0.15940    1.000
    H64      H        0.48680    0.31050    0.98010    1.000
    H65      H        0.80740    0.49940    0.15670    1.000
    H66      H        0.68860    0.30780    0.98210    1.000
    C1       C        0.69734    0.21570    0.44670    1.000
    C2       C        0.58047    0.13158    0.41838    1.000
    C3       C        0.56739    0.06171    0.35942    1.000
    C4       C        0.45469    0.98852    0.33257    1.000
    C5       C        0.35430    0.98564    0.36538    1.000
    C6       C        0.36668    0.05488    0.42465    1.000
    C7       C        0.47938    0.12695    0.45105    1.000
    C8       C        0.20709    0.84880    0.28129    1.000
    C9       C        0.19790    0.88681    0.21452    1.000
    C10      C        0.15664    0.81593    0.15246    1.000
    C11      C        0.12169    0.71040    0.15799    1.000
    C12      C        0.12828    0.67427    0.22682    1.000
    C13      C        0.17278    0.74374    0.28885    1.000
    C14      C        0.07538    0.63364    0.09199    1.000
    C15      C        0.82984    0.65938    0.97901    1.000
    C16      C        0.70828    0.65422    0.98203    1.000
    C17      C        0.61058    0.59701    0.92823    1.000
    C18      C        0.64480    0.54760    0.87240    1.000
    C19      C        0.76997    0.55635    0.87366    1.000
    C20      C        0.05483    0.73466    0.83113    1.000
    C21      C        0.03806    0.80174    0.77074    1.000
    C22      C        0.08901    0.90787    0.77950    1.000
    C23      C        0.07047    0.96919    0.72181    1.000
    C24      C        0.00071    0.92185    0.65563    1.000
    C25      C        0.94962    0.81541    0.64582    1.000
    C26      C        0.96788    0.75484    0.70252    1.000
    C27      C        0.04854    0.07045    0.58695    1.000
    C28      C        0.17318    0.08336    0.58763    1.000
    C29      C        0.24196    0.17730    0.56853    1.000
    C30      C        0.18629    0.25616    0.54837    1.000
    C31      C        0.06170    0.24189    0.55141    1.000
    C32      C        0.99272    0.14894    0.57047    1.000
    C33      C        0.25731    0.35419    0.52123    1.000
    C34      C        0.61186    0.65707    0.63389    1.000
    C35      C        0.61904    0.72012    0.69568    1.000
    C36      C        0.51229    0.71018    0.72435    1.000
    C37      C        0.40422    0.63602    0.68873    1.000
    C38      C        0.40605    0.57880    0.62655    1.000
    C39      C        0.51167    0.77782    0.78911    1.000
    C40      C        0.61751    0.81834    0.84285    1.000
    C41      C        0.61208    0.87991    0.90287    1.000
    C42      C        0.40531    0.86544    0.85887    1.000
    C43      C        0.40339    0.80249    0.79799    1.000
    C44      C        0.47840    0.59366    0.92892    1.000
    C45      C        0.37736    0.53526    0.87711    1.000
    C46      C        0.44943    0.65088    0.98240    1.000
    C47      C        0.25834    0.54012    0.87938    1.000
    C48      C        0.32724    0.65179    0.98113    1.000
    C49      C        0.30266    0.78430    0.55330    1.000
    C50      C        0.41953    0.86842    0.58162    1.000
    C51      C        0.43261    0.93829    0.64058    1.000
    C52      C        0.54531    0.01148    0.66743    1.000
    C53      C        0.64570    0.01436    0.63462    1.000
    C54      C        0.63332    0.94512    0.57535    1.000
    C55      C        0.52062    0.87305    0.54895    1.000
    C56      C        0.79291    0.15120    0.71871    1.000
    C57      C        0.80210    0.11319    0.78548    1.000
    C58      C        0.84336    0.18407    0.84754    1.000
    C59      C        0.87831    0.28960    0.84201    1.000
    C60      C        0.87172    0.32573    0.77318    1.000
    C61      C        0.82722    0.25626    0.71115    1.000
    C62      C        0.92462    0.36636    0.90801    1.000
    C63      C        0.17016    0.34062    0.02099    1.000
    C64      C        0.29172    0.34578    0.01797    1.000
    C65      C        0.38942    0.40299    0.07177    1.000
    C66      C        0.35520    0.45240    0.12760    1.000
    C67      C        0.23003    0.44365    0.12634    1.000
    C68      C        0.94517    0.26534    0.16887    1.000
    C69      C        0.96194    0.19826    0.22926    1.000
    C70      C        0.91099    0.09213    0.22050    1.000
    C71      C        0.92953    0.03081    0.27819    1.000
    C72      C        0.99929    0.07815    0.34437    1.000
    C73      C        0.05038    0.18459    0.35418    1.000
    C74      C        0.03212    0.24516    0.29748    1.000
    C75      C        0.95146    0.92955    0.41305    1.000
    C76      C        0.82682    0.91664    0.41237    1.000
    C77      C        0.75804    0.82270    0.43147    1.000
    C78      C        0.81371    0.74384    0.45163    1.000
    C79      C        0.93830    0.75811    0.44859    1.000
    C80      C        0.00728    0.85106    0.42953    1.000
    C81      C        0.74269    0.64581    0.47877    1.000
    C82      C        0.38814    0.34293    0.36611    1.000
    C83      C        0.38096    0.27988    0.30432    1.000
    C84      C        0.48771    0.28982    0.27565    1.000
    C85      C        0.59578    0.36398    0.31127    1.000
    C86      C        0.59395    0.42120    0.37345    1.000
    C87      C        0.48833    0.22218    0.21089    1.000
    C88      C        0.38249    0.18166    0.15715    1.000
    C89      C        0.38792    0.12009    0.09713    1.000
    C90      C        0.59469    0.13456    0.14113    1.000
    C91      C        0.59661    0.19751    0.20201    1.000
    C92      C        0.52160    0.40634    0.07108    1.000
    C93      C        0.62264    0.46474    0.12289    1.000
    C94      C        0.55057    0.34912    0.01760    1.000
    C95      C        0.74166    0.45988    0.12062    1.000
    C96      C        0.67276    0.34821    0.01887    1.000
    N1       N        0.50682    0.58830    0.59787    1.000
    N2       N        0.50716    0.90409    0.91082    1.000
    N3       N        0.86265    0.61065    0.92631    1.000
    N4       N        0.23097    0.59795    0.93010    1.000
    N5       N        0.49318    0.41170    0.40213    1.000
    N6       N        0.49284    0.09591    0.08918    1.000
    N7       N        0.13735    0.38935    0.07369    1.000
    N8       N        0.76903    0.40205    0.06990    1.000
    O1       O        0.78021    0.22453    0.40412    1.000
    O2       O        0.71552    0.27322    0.50092    1.000
    O3       O        0.23966    0.91596    0.34477    1.000
    O4       O        0.10278    0.66426    0.03366    1.000
    O5       O        0.00945    0.54564    0.10021    1.000
    O6       O        0.02292    0.63602    0.81726    1.000
    O7       O        0.09700    0.77349    0.89569    1.000
    O8       O        0.97000    0.97503    0.59660    1.000
    O9       O        0.19448    0.41009    0.48906    1.000
    O10      O        0.37448    0.37254    0.53011    1.000
    O11      O        0.21979    0.77547    0.59588    1.000
    O12      O        0.28448    0.72678    0.49908    1.000
    O13      O        0.76034    0.08404    0.65523    1.000
    O14      O        0.89722    0.33574    0.96634    1.000
    O15      O        0.99055    0.45436    0.89979    1.000
    O16      O        0.97708    0.36398    0.18274    1.000
    O17      O        0.90300    0.22651    0.10431    1.000
    O18      O        0.03000    0.02497    0.40340    1.000
    O19      O        0.80552    0.58991    0.51094    1.000
    O20      O        0.62552    0.62746    0.46989    1.000
