# CIF file generated by openbabel 3.1.0, see https://openbabel.org
data_I
_chemical_name_common 'image0'
_cell_length_a 14.0822
_cell_length_b 15.2781
_cell_length_c 18.5374
_cell_angle_alpha 90
_cell_angle_beta 105.36
_cell_angle_gamma 90
_space_group_name_H-M_alt 'P 1'
_space_group_name_Hall 'P 1'
loop_
    _symmetry_equiv_pos_as_xyz
    x,y,z
loop_
    _atom_site_label
    _atom_site_type_symbol
    _atom_site_fract_x
    _atom_site_fract_y
    _atom_site_fract_z
    _atom_site_occupancy
    Co1      Co       0.86579    0.62735    0.21686    1.000
    O1       O        0.90120    0.68790    0.31950    1.000
    C1       C        0.98750    0.70550    0.35850    1.000
    C2       C        0.77580    0.54130    0.95460    1.000
    H1       H        0.73180    0.57250    0.97610    1.000
    C3       C        0.99920    0.71270    0.44230    1.000
    H2       H        0.94560    0.69860    0.46240    1.000
    C4       C        0.85630    0.50820    0.00120    1.000
    H3       H        0.89990    0.47570    0.98020    1.000
    C5       C        0.88330    0.51870    0.08540    1.000
    O2       O        0.82680    0.55870    0.11550    1.000
    O3       O        0.96400    0.48530    0.11890    1.000
    C6       C        0.65750    0.57530    0.75130    1.000
    H4       H        0.60770    0.60980    0.71920    1.000
    C7       C        0.67510    0.58450    0.82780    1.000
    H5       H        0.63790    0.62400    0.84890    1.000
    C8       C        0.74920    0.53360    0.87260    1.000
    C9       C        0.70970    0.51850    0.72120    1.000
    H6       H        0.69430    0.51340    0.66830    1.000
    C10      C        0.79920    0.47680    0.83820    1.000
    H7       H        0.84840    0.44110    0.86940    1.000
    N1       N        0.78390    0.46800    0.76380    1.000
    O4       O        0.06250    0.71550    0.33560    1.000
    N2       N        0.23460    0.79760    0.67820    1.000
    C11      C        0.19700    0.78950    0.60340    1.000
    H8       H        0.23020    0.81820    0.57170    1.000
    C12      C        0.11350    0.74220    0.57020    1.000
    C13      C        0.06600    0.69720    0.61580    1.000
    H9       H        0.00960    0.66190    0.59550    1.000
    C14      C        0.08400    0.73860    0.48710    1.000
    H10      H        0.13220    0.75730    0.46300    1.000
    C15      C        0.18760    0.75680    0.72140    1.000
    H11      H        0.21130    0.76240    0.77420    1.000
    C16      C        0.10500    0.70640    0.69200    1.000
    H12      H        0.07420    0.67730    0.72510    1.000
    Co2      Co       0.36579    0.12735    0.21686    1.000
    O5       O        0.40120    0.18790    0.31950    1.000
    C17      C        0.48750    0.20550    0.35850    1.000
    C18      C        0.27580    0.04130    0.95460    1.000
    H13      H        0.23180    0.07250    0.97610    1.000
    C19      C        0.49920    0.21270    0.44230    1.000
    H14      H        0.44560    0.19860    0.46240    1.000
    C20      C        0.35630    0.00820    0.00120    1.000
    H15      H        0.39990    0.97570    0.98020    1.000
    C21      C        0.38330    0.01870    0.08540    1.000
    O6       O        0.32680    0.05870    0.11550    1.000
    O7       O        0.46400    0.98530    0.11890    1.000
    C22      C        0.15750    0.07530    0.75130    1.000
    H16      H        0.10770    0.10980    0.71920    1.000
    C23      C        0.17510    0.08450    0.82780    1.000
    H17      H        0.13790    0.12400    0.84890    1.000
    C24      C        0.24920    0.03360    0.87260    1.000
    C25      C        0.20970    0.01850    0.72120    1.000
    H18      H        0.19430    0.01340    0.66830    1.000
    C26      C        0.29920    0.97680    0.83820    1.000
    H19      H        0.34840    0.94110    0.86940    1.000
    N3       N        0.28390    0.96800    0.76380    1.000
    O8       O        0.56250    0.21550    0.33560    1.000
    N4       N        0.73460    0.29760    0.67820    1.000
    C27      C        0.69700    0.28950    0.60340    1.000
    H20      H        0.73020    0.31820    0.57170    1.000
    C28      C        0.61350    0.24220    0.57020    1.000
    C29      C        0.56600    0.19720    0.61580    1.000
    H21      H        0.50960    0.16190    0.59550    1.000
    C30      C        0.58400    0.23860    0.48710    1.000
    H22      H        0.63220    0.25730    0.46300    1.000
    C31      C        0.68760    0.25680    0.72140    1.000
    H23      H        0.71130    0.26240    0.77420    1.000
    C32      C        0.60500    0.20640    0.69200    1.000
    H24      H        0.57420    0.17730    0.72510    1.000
    Co3      Co       0.13421    0.62735    0.28314    1.000
    O9       O        0.09880    0.68790    0.18050    1.000
    C33      C        0.01250    0.70550    0.14150    1.000
    C34      C        0.22420    0.54130    0.54540    1.000
    H25      H        0.26820    0.57250    0.52390    1.000
    C35      C        0.00080    0.71270    0.05770    1.000
    H26      H        0.05440    0.69860    0.03760    1.000
    C36      C        0.14370    0.50820    0.49880    1.000
    H27      H        0.10010    0.47570    0.51980    1.000
    C37      C        0.11670    0.51870    0.41460    1.000
    O10      O        0.17320    0.55870    0.38450    1.000
    O11      O        0.03600    0.48530    0.38110    1.000
    C38      C        0.34250    0.57530    0.74870    1.000
    H28      H        0.39230    0.60980    0.78080    1.000
    C39      C        0.32490    0.58450    0.67220    1.000
    H29      H        0.36210    0.62400    0.65110    1.000
    C40      C        0.25080    0.53360    0.62740    1.000
    C41      C        0.29030    0.51850    0.77880    1.000
    H30      H        0.30570    0.51340    0.83170    1.000
    C42      C        0.20080    0.47680    0.66180    1.000
    H31      H        0.15160    0.44110    0.63060    1.000
    N5       N        0.21610    0.46800    0.73620    1.000
    O12      O        0.93750    0.71550    0.16440    1.000
    N6       N        0.76540    0.79760    0.82180    1.000
    C43      C        0.80300    0.78950    0.89660    1.000
    H32      H        0.76980    0.81820    0.92830    1.000
    C44      C        0.88650    0.74220    0.92980    1.000
    C45      C        0.93400    0.69720    0.88420    1.000
    H33      H        0.99040    0.66190    0.90450    1.000
    C46      C        0.91600    0.73860    0.01290    1.000
    H34      H        0.86780    0.75730    0.03700    1.000
    C47      C        0.81240    0.75680    0.77860    1.000
    H35      H        0.78870    0.76240    0.72580    1.000
    C48      C        0.89500    0.70640    0.80800    1.000
    H36      H        0.92580    0.67730    0.77490    1.000
    Co4      Co       0.63421    0.12735    0.28314    1.000
    O13      O        0.59880    0.18790    0.18050    1.000
    C49      C        0.51250    0.20550    0.14150    1.000
    C50      C        0.72420    0.04130    0.54540    1.000
    H37      H        0.76820    0.07250    0.52390    1.000
    C51      C        0.50080    0.21270    0.05770    1.000
    H38      H        0.55440    0.19860    0.03760    1.000
    C52      C        0.64370    0.00820    0.49880    1.000
    H39      H        0.60010    0.97570    0.51980    1.000
    C53      C        0.61670    0.01870    0.41460    1.000
    O14      O        0.67320    0.05870    0.38450    1.000
    O15      O        0.53600    0.98530    0.38110    1.000
    C54      C        0.84250    0.07530    0.74870    1.000
    H40      H        0.89230    0.10980    0.78080    1.000
    C55      C        0.82490    0.08450    0.67220    1.000
    H41      H        0.86210    0.12400    0.65110    1.000
    C56      C        0.75080    0.03360    0.62740    1.000
    C57      C        0.79030    0.01850    0.77880    1.000
    H42      H        0.80570    0.01340    0.83170    1.000
    C58      C        0.70080    0.97680    0.66180    1.000
    H43      H        0.65160    0.94110    0.63060    1.000
    N7       N        0.71610    0.96800    0.73620    1.000
    O16      O        0.43750    0.21550    0.16440    1.000
    N8       N        0.26540    0.29760    0.82180    1.000
    C59      C        0.30300    0.28950    0.89660    1.000
    H44      H        0.26980    0.31820    0.92830    1.000
    C60      C        0.38650    0.24220    0.92980    1.000
    C61      C        0.43400    0.19720    0.88420    1.000
    H45      H        0.49040    0.16190    0.90450    1.000
    C62      C        0.41600    0.23860    0.01290    1.000
    H46      H        0.36780    0.25730    0.03700    1.000
    C63      C        0.31240    0.25680    0.77860    1.000
    H47      H        0.28870    0.26240    0.72580    1.000
    C64      C        0.39500    0.20640    0.80800    1.000
    H48      H        0.42580    0.17730    0.77490    1.000
    Co5      Co       0.13421    0.37265    0.78314    1.000
    O17      O        0.09880    0.31210    0.68050    1.000
    C65      C        0.01250    0.29450    0.64150    1.000
    C66      C        0.22420    0.45870    0.04540    1.000
    H49      H        0.26820    0.42750    0.02390    1.000
    C67      C        0.00080    0.28730    0.55770    1.000
    H50      H        0.05440    0.30140    0.53760    1.000
    C68      C        0.14370    0.49180    0.99880    1.000
    H51      H        0.10010    0.52430    0.01980    1.000
    C69      C        0.11670    0.48130    0.91460    1.000
    O18      O        0.17320    0.44130    0.88450    1.000
    O19      O        0.03600    0.51470    0.88110    1.000
    C70      C        0.34250    0.42470    0.24870    1.000
    H52      H        0.39230    0.39020    0.28080    1.000
    C71      C        0.32490    0.41550    0.17220    1.000
    H53      H        0.36210    0.37600    0.15110    1.000
    C72      C        0.25080    0.46640    0.12740    1.000
    C73      C        0.29030    0.48150    0.27880    1.000
    H54      H        0.30570    0.48660    0.33170    1.000
    C74      C        0.20080    0.52320    0.16180    1.000
    H55      H        0.15160    0.55890    0.13060    1.000
    N9       N        0.21610    0.53200    0.23620    1.000
    O20      O        0.93750    0.28450    0.66440    1.000
    N10      N        0.76540    0.20240    0.32180    1.000
    C75      C        0.80300    0.21050    0.39660    1.000
    H56      H        0.76980    0.18180    0.42830    1.000
    C76      C        0.88650    0.25780    0.42980    1.000
    C77      C        0.93400    0.30280    0.38420    1.000
    H57      H        0.99040    0.33810    0.40450    1.000
    C78      C        0.91600    0.26140    0.51290    1.000
    H58      H        0.86780    0.24270    0.53700    1.000
    C79      C        0.81240    0.24320    0.27860    1.000
    H59      H        0.78870    0.23760    0.22580    1.000
    C80      C        0.89500    0.29360    0.30800    1.000
    H60      H        0.92580    0.32270    0.27490    1.000
    Co6      Co       0.63421    0.87265    0.78314    1.000
    O21      O        0.59880    0.81210    0.68050    1.000
    C81      C        0.51250    0.79450    0.64150    1.000
    C82      C        0.72420    0.95870    0.04540    1.000
    H61      H        0.76820    0.92750    0.02390    1.000
    C83      C        0.50080    0.78730    0.55770    1.000
    H62      H        0.55440    0.80140    0.53760    1.000
    C84      C        0.64370    0.99180    0.99880    1.000
    H63      H        0.60010    0.02430    0.01980    1.000
    C85      C        0.61670    0.98130    0.91460    1.000
    O22      O        0.67320    0.94130    0.88450    1.000
    O23      O        0.53600    0.01470    0.88110    1.000
    C86      C        0.84250    0.92470    0.24870    1.000
    H64      H        0.89230    0.89020    0.28080    1.000
    C87      C        0.82490    0.91550    0.17220    1.000
    H65      H        0.86210    0.87600    0.15110    1.000
    C88      C        0.75080    0.96640    0.12740    1.000
    C89      C        0.79030    0.98150    0.27880    1.000
    H66      H        0.80570    0.98660    0.33170    1.000
    C90      C        0.70080    0.02320    0.16180    1.000
    H67      H        0.65160    0.05890    0.13060    1.000
    N11      N        0.71610    0.03200    0.23620    1.000
    O24      O        0.43750    0.78450    0.66440    1.000
    N12      N        0.26540    0.70240    0.32180    1.000
    C91      C        0.30300    0.71050    0.39660    1.000
    H68      H        0.26980    0.68180    0.42830    1.000
    C92      C        0.38650    0.75780    0.42980    1.000
    C93      C        0.43400    0.80280    0.38420    1.000
    H69      H        0.49040    0.83810    0.40450    1.000
    C94      C        0.41600    0.76140    0.51290    1.000
    H70      H        0.36780    0.74270    0.53700    1.000
    C95      C        0.31240    0.74320    0.27860    1.000
    H71      H        0.28870    0.73760    0.22580    1.000
    C96      C        0.39500    0.79360    0.30800    1.000
    H72      H        0.42580    0.82270    0.27490    1.000
    Co7      Co       0.86579    0.37265    0.71686    1.000
    O25      O        0.90120    0.31210    0.81950    1.000
    C97      C        0.98750    0.29450    0.85850    1.000
    C98      C        0.77580    0.45870    0.45460    1.000
    H73      H        0.73180    0.42750    0.47610    1.000
    C99      C        0.99920    0.28730    0.94230    1.000
    H74      H        0.94560    0.30140    0.96240    1.000
    C100     C        0.85630    0.49180    0.50120    1.000
    H75      H        0.89990    0.52430    0.48020    1.000
    C101     C        0.88330    0.48130    0.58540    1.000
    O26      O        0.82680    0.44130    0.61550    1.000
    O27      O        0.96400    0.51470    0.61890    1.000
    C102     C        0.65750    0.42470    0.25130    1.000
    H76      H        0.60770    0.39020    0.21920    1.000
    C103     C        0.67510    0.41550    0.32780    1.000
    H77      H        0.63790    0.37600    0.34890    1.000
    C104     C        0.74920    0.46640    0.37260    1.000
    C105     C        0.70970    0.48150    0.22120    1.000
    H78      H        0.69430    0.48660    0.16830    1.000
    C106     C        0.79920    0.52320    0.33820    1.000
    H79      H        0.84840    0.55890    0.36940    1.000
    N13      N        0.78390    0.53200    0.26380    1.000
    O28      O        0.06250    0.28450    0.83560    1.000
    N14      N        0.23460    0.20240    0.17820    1.000
    C107     C        0.19700    0.21050    0.10340    1.000
    H80      H        0.23020    0.18180    0.07170    1.000
    C108     C        0.11350    0.25780    0.07020    1.000
    C109     C        0.06600    0.30280    0.11580    1.000
    H81      H        0.00960    0.33810    0.09550    1.000
    C110     C        0.08400    0.26140    0.98710    1.000
    H82      H        0.13220    0.24270    0.96300    1.000
    C111     C        0.18760    0.24320    0.22140    1.000
    H83      H        0.21130    0.23760    0.27420    1.000
    C112     C        0.10500    0.29360    0.19200    1.000
    H84      H        0.07420    0.32270    0.22510    1.000
    Co8      Co       0.36579    0.87265    0.71686    1.000
    O29      O        0.40120    0.81210    0.81950    1.000
    C113     C        0.48750    0.79450    0.85850    1.000
    C114     C        0.27580    0.95870    0.45460    1.000
    H85      H        0.23180    0.92750    0.47610    1.000
    C115     C        0.49920    0.78730    0.94230    1.000
    H86      H        0.44560    0.80140    0.96240    1.000
    C116     C        0.35630    0.99180    0.50120    1.000
    H87      H        0.39990    0.02430    0.48020    1.000
    C117     C        0.38330    0.98130    0.58540    1.000
    O30      O        0.32680    0.94130    0.61550    1.000
    O31      O        0.46400    0.01470    0.61890    1.000
    C118     C        0.15750    0.92470    0.25130    1.000
    H88      H        0.10770    0.89020    0.21920    1.000
    C119     C        0.17510    0.91550    0.32780    1.000
    H89      H        0.13790    0.87600    0.34890    1.000
    C120     C        0.24920    0.96640    0.37260    1.000
    C121     C        0.20970    0.98150    0.22120    1.000
    H90      H        0.19430    0.98660    0.16830    1.000
    C122     C        0.29920    0.02320    0.33820    1.000
    H91      H        0.34840    0.05890    0.36940    1.000
    N15      N        0.28390    0.03200    0.26380    1.000
    O32      O        0.56250    0.78450    0.83560    1.000
    N16      N        0.73460    0.70240    0.17820    1.000
    C123     C        0.69700    0.71050    0.10340    1.000
    H92      H        0.73020    0.68180    0.07170    1.000
    C124     C        0.61350    0.75780    0.07020    1.000
    C125     C        0.56600    0.80280    0.11580    1.000
    H93      H        0.50960    0.83810    0.09550    1.000
    C126     C        0.58400    0.76140    0.98710    1.000
    H94      H        0.63220    0.74270    0.96300    1.000
    C127     C        0.68760    0.74320    0.22140    1.000
    H95      H        0.71130    0.73760    0.27420    1.000
    C128     C        0.60500    0.79360    0.19200    1.000
    H96      H        0.57420    0.82270    0.22510    1.000
    O33      O        0.00000    0.55300    0.25000    1.000
    H97      H        0.00000    0.49080    0.25000    1.000
    O34      O        0.50000    0.05300    0.25000    1.000
    H98      H        0.50000    0.99080    0.25000    1.000
    O35      O        0.00000    0.44700    0.75000    1.000
    H99      H        0.00000    0.50920    0.75000    1.000
    O36      O        0.50000    0.94700    0.75000    1.000
    H100     H        0.50000    0.00920    0.75000    1.000
