# CIF file generated by openbabel 3.1.0, see https://openbabel.org
data_I
_chemical_name_common 'image0'
_cell_length_a 15.749
_cell_length_b 16.425
_cell_length_c 15.725
_cell_angle_alpha 90
_cell_angle_beta 90
_cell_angle_gamma 90
_space_group_name_H-M_alt 'P 1'
_space_group_name_Hall 'P 1'
loop_
    _symmetry_equiv_pos_as_xyz
    x,y,z
loop_
    _atom_site_label
    _atom_site_type_symbol
    _atom_site_fract_x
    _atom_site_fract_y
    _atom_site_fract_z
    _atom_site_occupancy
    Zn1      Zn       0.37410    0.03660    0.13500    1.000
    O1       O        0.37400    0.91310    0.14200    1.000
    O2       O        0.26000    0.54200    0.13600    1.000
    O3       O        0.19800    0.66300    0.14400    1.000
    O4       O        0.51200    0.90300    0.13700    1.000
    O5       O        0.57000    0.59900    0.16600    1.000
    N1       N        0.37700    0.04000    0.27100    1.000
    N2       N        0.38400    0.04400    0.99600    1.000
    C1       C        0.43500    0.78100    0.13100    1.000
    C2       C        0.44100    0.87300    0.13700    1.000
    C3       C        0.39000    0.05000    0.81800    1.000
    C4       C        0.36900    0.97500    0.32300    1.000
    H1       H        0.36660    0.92460    0.29580    1.000
    C5       C        0.50800    0.73600    0.15000    1.000
    H2       H        0.55530    0.75560    0.17860    1.000
    C6       C        0.36500    0.97300    0.40700    1.000
    H3       H        0.35220    0.92440    0.43460    1.000
    C7       C        0.26500    0.61900    0.12300    1.000
    C8       C        0.35000    0.66000    0.12100    1.000
    C9       C        0.50000    0.65000    0.11600    1.000
    C10      C        0.41300    0.10900    0.87500    1.000
    H4       H        0.43210    0.15720    0.85160    1.000
    C11      C        0.38900    0.04800    0.72600    1.000
    C12      C        0.42200    0.61300    0.13200    1.000
    H5       H        0.41780    0.55890    0.14820    1.000
    C13      C        0.35500    0.74300    0.12500    1.000
    H6       H        0.30580    0.77410    0.12300    1.000
    C14      C        0.39200    0.11100    0.31700    1.000
    H7       H        0.40080    0.15950    0.28680    1.000
    C15      C        0.41000    0.10500    0.95600    1.000
    H8       H        0.42930    0.14990    0.98670    1.000
    C16      C        0.36400    0.99500    0.87700    1.000
    H9       H        0.35420    0.94530    0.85020    1.000
    C17      C        0.39400    0.11400    0.40800    1.000
    H10      H        0.40310    0.16250    0.43610    1.000
    C18      C        0.38100    0.04400    0.45400    1.000
    C19      C        0.69600    0.69000    0.43200    1.000
    C20      C        0.69000    0.69600    0.34300    1.000
    C21      C        0.77800    0.71900    0.32500    1.000
    H11      H        0.78910    0.71810    0.26700    1.000
    C22      C        0.63200    0.64400    0.49100    1.000
    C23      C        0.85600    0.74300    0.37600    1.000
    H12      H        0.90370    0.76670    0.35060    1.000
    C24      C        0.85200    0.72700    0.46800    1.000
    C25      C        0.64400    0.64100    0.30400    1.000
    C26      C        0.64800    0.63200    0.19800    1.000
    H13      H        0.65840    0.68510    0.17330    1.000
    H14      H        0.69540    0.59670    0.18280    1.000
    C27      C        0.58100    0.61200    0.43100    1.000
    H15      H        0.53950    0.58240    0.45940    1.000
    C28      C        0.56500    0.60400    0.35200    1.000
    H16      H        0.51710    0.58140    0.32760    1.000
    C29      C        0.76100    0.71400    0.49400    1.000
    C30      C        0.67900    0.67400    0.61500    1.000
    H17      H        0.68070    0.66420    0.67320    1.000
    C31      C        0.84200    0.73400    0.62000    1.000
    H18      H        0.85310    0.71950    0.67590    1.000
    C32      C        0.92000    0.78400    0.48000    1.000
    H19      H        0.94950    0.81820    0.44740    1.000
    C33      C        0.60500    0.63600    0.57600    1.000
    H20      H        0.55600    0.61450    0.59900    1.000
    C34      C        0.75400    0.72300    0.59000    1.000
    C35      C        0.91100    0.76600    0.56800    1.000
    H21      H        0.96110    0.77550    0.59840    1.000
    C36      C        0.35000    0.99200    0.58600    1.000
    H22      H        0.32880    0.94790    0.55630    1.000
    C37      C        0.42000    0.10900    0.68800    1.000
    H23      H        0.44670    0.15030    0.71820    1.000
    C38      C        0.35100    0.98700    0.67700    1.000
    H24      H        0.32590    0.94220    0.70310    1.000
    C39      C        0.41300    0.11300    0.59800    1.000
    H25      H        0.43390    0.15910    0.57060    1.000
    C40      C        0.37400    0.04700    0.54500    1.000
    C41      C        0.34500    0.98600    0.96400    1.000
    H26      H        0.31210    0.94600    0.99000    1.000
    Zn2      Zn       0.62590    0.96340    0.13500    1.000
    O6       O        0.62600    0.08690    0.14200    1.000
    O7       O        0.74000    0.45800    0.13600    1.000
    O8       O        0.80200    0.33700    0.14400    1.000
    O9       O        0.48800    0.09700    0.13700    1.000
    O10      O        0.43000    0.40100    0.16600    1.000
    N3       N        0.62300    0.96000    0.27100    1.000
    N4       N        0.61600    0.95600    0.99600    1.000
    C42      C        0.56500    0.21900    0.13100    1.000
    C43      C        0.55900    0.12700    0.13700    1.000
    C44      C        0.61000    0.95000    0.81800    1.000
    C45      C        0.63100    0.02500    0.32300    1.000
    H27      H        0.63340    0.07540    0.29580    1.000
    C46      C        0.49200    0.26400    0.15000    1.000
    H28      H        0.44470    0.24440    0.17860    1.000
    C47      C        0.63500    0.02700    0.40700    1.000
    H29      H        0.64780    0.07560    0.43460    1.000
    C48      C        0.73500    0.38100    0.12300    1.000
    C49      C        0.65000    0.34000    0.12100    1.000
    C50      C        0.50000    0.35000    0.11600    1.000
    C51      C        0.58700    0.89100    0.87500    1.000
    H30      H        0.56790    0.84280    0.85160    1.000
    C52      C        0.61100    0.95200    0.72600    1.000
    C53      C        0.57800    0.38700    0.13200    1.000
    H31      H        0.58220    0.44110    0.14820    1.000
    C54      C        0.64500    0.25700    0.12500    1.000
    H32      H        0.69420    0.22590    0.12300    1.000
    C55      C        0.60800    0.88900    0.31700    1.000
    H33      H        0.59920    0.84050    0.28680    1.000
    C56      C        0.59000    0.89500    0.95600    1.000
    H34      H        0.57070    0.85010    0.98670    1.000
    C57      C        0.63600    0.00500    0.87700    1.000
    H35      H        0.64580    0.05470    0.85020    1.000
    C58      C        0.60600    0.88600    0.40800    1.000
    H36      H        0.59690    0.83750    0.43610    1.000
    C59      C        0.61900    0.95600    0.45400    1.000
    C60      C        0.30400    0.31000    0.43200    1.000
    C61      C        0.31000    0.30400    0.34300    1.000
    C62      C        0.22200    0.28100    0.32500    1.000
    H37      H        0.21090    0.28190    0.26700    1.000
    C63      C        0.36800    0.35600    0.49100    1.000
    C64      C        0.14400    0.25700    0.37600    1.000
    H38      H        0.09630    0.23330    0.35060    1.000
    C65      C        0.14800    0.27300    0.46800    1.000
    C66      C        0.35600    0.35900    0.30400    1.000
    C67      C        0.35200    0.36800    0.19800    1.000
    H39      H        0.34160    0.31490    0.17330    1.000
    H40      H        0.30460    0.40330    0.18280    1.000
    C68      C        0.41900    0.38800    0.43100    1.000
    H41      H        0.46050    0.41760    0.45940    1.000
    C69      C        0.43500    0.39600    0.35200    1.000
    H42      H        0.48290    0.41860    0.32760    1.000
    C70      C        0.23900    0.28600    0.49400    1.000
    C71      C        0.32100    0.32600    0.61500    1.000
    H43      H        0.31930    0.33580    0.67320    1.000
    C72      C        0.15800    0.26600    0.62000    1.000
    H44      H        0.14690    0.28050    0.67590    1.000
    C73      C        0.08000    0.21600    0.48000    1.000
    H45      H        0.05050    0.18180    0.44740    1.000
    C74      C        0.39500    0.36400    0.57600    1.000
    H46      H        0.44400    0.38550    0.59900    1.000
    C75      C        0.24600    0.27700    0.59000    1.000
    C76      C        0.08900    0.23400    0.56800    1.000
    H47      H        0.03890    0.22450    0.59840    1.000
    C77      C        0.65000    0.00800    0.58600    1.000
    H48      H        0.67120    0.05210    0.55630    1.000
    C78      C        0.58000    0.89100    0.68800    1.000
    H49      H        0.55330    0.84970    0.71820    1.000
    C79      C        0.64900    0.01300    0.67700    1.000
    H50      H        0.67410    0.05780    0.70310    1.000
    C80      C        0.58700    0.88700    0.59800    1.000
    H51      H        0.56610    0.84090    0.57060    1.000
    C81      C        0.62600    0.95300    0.54500    1.000
    C82      C        0.65500    0.01400    0.96400    1.000
    H52      H        0.68790    0.05400    0.99000    1.000
    Zn3      Zn       0.87410    0.46340    0.13500    1.000
    O11      O        0.87400    0.58690    0.14200    1.000
    O12      O        0.76000    0.95800    0.13600    1.000
    O13      O        0.69800    0.83700    0.14400    1.000
    O14      O        0.01200    0.59700    0.13700    1.000
    O15      O        0.07000    0.90100    0.16600    1.000
    N5       N        0.87700    0.46000    0.27100    1.000
    N6       N        0.88400    0.45600    0.99600    1.000
    C83      C        0.93500    0.71900    0.13100    1.000
    C84      C        0.94100    0.62700    0.13700    1.000
    C85      C        0.89000    0.45000    0.81800    1.000
    C86      C        0.86900    0.52500    0.32300    1.000
    H53      H        0.86660    0.57540    0.29580    1.000
    C87      C        0.00800    0.76400    0.15000    1.000
    H54      H        0.05530    0.74440    0.17860    1.000
    C88      C        0.86500    0.52700    0.40700    1.000
    H55      H        0.85220    0.57560    0.43460    1.000
    C89      C        0.76500    0.88100    0.12300    1.000
    C90      C        0.85000    0.84000    0.12100    1.000
    C91      C        0.00000    0.85000    0.11600    1.000
    C92      C        0.91300    0.39100    0.87500    1.000
    H56      H        0.93210    0.34280    0.85160    1.000
    C93      C        0.88900    0.45200    0.72600    1.000
    C94      C        0.92200    0.88700    0.13200    1.000
    H57      H        0.91780    0.94110    0.14820    1.000
    C95      C        0.85500    0.75700    0.12500    1.000
    H58      H        0.80580    0.72590    0.12300    1.000
    C96      C        0.89200    0.38900    0.31700    1.000
    H59      H        0.90080    0.34050    0.28680    1.000
    C97      C        0.91000    0.39500    0.95600    1.000
    H60      H        0.92930    0.35010    0.98670    1.000
    C98      C        0.86400    0.50500    0.87700    1.000
    H61      H        0.85420    0.55470    0.85020    1.000
    C99      C        0.89400    0.38600    0.40800    1.000
    H62      H        0.90310    0.33750    0.43610    1.000
    C100     C        0.88100    0.45600    0.45400    1.000
    C101     C        0.19600    0.81000    0.43200    1.000
    C102     C        0.19000    0.80400    0.34300    1.000
    C103     C        0.27800    0.78100    0.32500    1.000
    H63      H        0.28910    0.78190    0.26700    1.000
    C104     C        0.13200    0.85600    0.49100    1.000
    C105     C        0.35600    0.75700    0.37600    1.000
    H64      H        0.40370    0.73330    0.35060    1.000
    C106     C        0.35200    0.77300    0.46800    1.000
    C107     C        0.14400    0.85900    0.30400    1.000
    C108     C        0.14800    0.86800    0.19800    1.000
    H65      H        0.15840    0.81490    0.17330    1.000
    H66      H        0.19540    0.90330    0.18280    1.000
    C109     C        0.08100    0.88800    0.43100    1.000
    H67      H        0.03950    0.91760    0.45940    1.000
    C110     C        0.06500    0.89600    0.35200    1.000
    H68      H        0.01710    0.91860    0.32760    1.000
    C111     C        0.26100    0.78600    0.49400    1.000
    C112     C        0.17900    0.82600    0.61500    1.000
    H69      H        0.18070    0.83580    0.67320    1.000
    C113     C        0.34200    0.76600    0.62000    1.000
    H70      H        0.35310    0.78050    0.67590    1.000
    C114     C        0.42000    0.71600    0.48000    1.000
    H71      H        0.44950    0.68180    0.44740    1.000
    C115     C        0.10500    0.86400    0.57600    1.000
    H72      H        0.05600    0.88550    0.59900    1.000
    C116     C        0.25400    0.77700    0.59000    1.000
    C117     C        0.41100    0.73400    0.56800    1.000
    H73      H        0.46110    0.72450    0.59840    1.000
    C118     C        0.85000    0.50800    0.58600    1.000
    H74      H        0.82880    0.55210    0.55630    1.000
    C119     C        0.92000    0.39100    0.68800    1.000
    H75      H        0.94670    0.34970    0.71820    1.000
    C120     C        0.85100    0.51300    0.67700    1.000
    H76      H        0.82590    0.55780    0.70310    1.000
    C121     C        0.91300    0.38700    0.59800    1.000
    H77      H        0.93390    0.34090    0.57060    1.000
    C122     C        0.87400    0.45300    0.54500    1.000
    C123     C        0.84500    0.51400    0.96400    1.000
    H78      H        0.81210    0.55400    0.99000    1.000
    Zn4      Zn       0.12590    0.53660    0.13500    1.000
    O16      O        0.12600    0.41310    0.14200    1.000
    O17      O        0.24000    0.04200    0.13600    1.000
    O18      O        0.30200    0.16300    0.14400    1.000
    O19      O        0.98800    0.40300    0.13700    1.000
    O20      O        0.93000    0.09900    0.16600    1.000
    N7       N        0.12300    0.54000    0.27100    1.000
    N8       N        0.11600    0.54400    0.99600    1.000
    C124     C        0.06500    0.28100    0.13100    1.000
    C125     C        0.05900    0.37300    0.13700    1.000
    C126     C        0.11000    0.55000    0.81800    1.000
    C127     C        0.13100    0.47500    0.32300    1.000
    H79      H        0.13340    0.42460    0.29580    1.000
    C128     C        0.99200    0.23600    0.15000    1.000
    H80      H        0.94470    0.25560    0.17860    1.000
    C129     C        0.13500    0.47300    0.40700    1.000
    H81      H        0.14780    0.42440    0.43460    1.000
    C130     C        0.23500    0.11900    0.12300    1.000
    C131     C        0.15000    0.16000    0.12100    1.000
    C132     C        0.00000    0.15000    0.11600    1.000
    C133     C        0.08700    0.60900    0.87500    1.000
    H82      H        0.06790    0.65720    0.85160    1.000
    C134     C        0.11100    0.54800    0.72600    1.000
    C135     C        0.07800    0.11300    0.13200    1.000
    H83      H        0.08220    0.05890    0.14820    1.000
    C136     C        0.14500    0.24300    0.12500    1.000
    H84      H        0.19420    0.27410    0.12300    1.000
    C137     C        0.10800    0.61100    0.31700    1.000
    H85      H        0.09920    0.65950    0.28680    1.000
    C138     C        0.09000    0.60500    0.95600    1.000
    H86      H        0.07070    0.64990    0.98670    1.000
    C139     C        0.13600    0.49500    0.87700    1.000
    H87      H        0.14580    0.44530    0.85020    1.000
    C140     C        0.10600    0.61400    0.40800    1.000
    H88      H        0.09690    0.66250    0.43610    1.000
    C141     C        0.11900    0.54400    0.45400    1.000
    C142     C        0.80400    0.19000    0.43200    1.000
    C143     C        0.81000    0.19600    0.34300    1.000
    C144     C        0.72200    0.21900    0.32500    1.000
    H89      H        0.71090    0.21810    0.26700    1.000
    C145     C        0.86800    0.14400    0.49100    1.000
    C146     C        0.64400    0.24300    0.37600    1.000
    H90      H        0.59630    0.26670    0.35060    1.000
    C147     C        0.64800    0.22700    0.46800    1.000
    C148     C        0.85600    0.14100    0.30400    1.000
    C149     C        0.85200    0.13200    0.19800    1.000
    H91      H        0.84160    0.18510    0.17330    1.000
    H92      H        0.80460    0.09670    0.18280    1.000
    C150     C        0.91900    0.11200    0.43100    1.000
    H93      H        0.96050    0.08240    0.45940    1.000
    C151     C        0.93500    0.10400    0.35200    1.000
    H94      H        0.98290    0.08140    0.32760    1.000
    C152     C        0.73900    0.21400    0.49400    1.000
    C153     C        0.82100    0.17400    0.61500    1.000
    H95      H        0.81930    0.16420    0.67320    1.000
    C154     C        0.65800    0.23400    0.62000    1.000
    H96      H        0.64690    0.21950    0.67590    1.000
    C155     C        0.58000    0.28400    0.48000    1.000
    H97      H        0.55050    0.31820    0.44740    1.000
    C156     C        0.89500    0.13600    0.57600    1.000
    H98      H        0.94400    0.11450    0.59900    1.000
    C157     C        0.74600    0.22300    0.59000    1.000
    C158     C        0.58900    0.26600    0.56800    1.000
    H99      H        0.53890    0.27550    0.59840    1.000
    C159     C        0.15000    0.49200    0.58600    1.000
    H100     H        0.17120    0.44790    0.55630    1.000
    C160     C        0.08000    0.60900    0.68800    1.000
    H101     H        0.05330    0.65030    0.71820    1.000
    C161     C        0.14900    0.48700    0.67700    1.000
    H102     H        0.17410    0.44220    0.70310    1.000
    C162     C        0.08700    0.61300    0.59800    1.000
    H103     H        0.06610    0.65910    0.57060    1.000
    C163     C        0.12600    0.54700    0.54500    1.000
    C164     C        0.15500    0.48600    0.96400    1.000
    H104     H        0.18790    0.44600    0.99000    1.000
