data_functionalizedCrystal
_audit_creation_method	'EQeq! by Chris Wilmer'
_symmetry_space_group_name_H-M	'P1'
_symmetry_Int_Tables_number	1
_symmetry_cell_setting	triclinic
loop_
_symmetry_equiv_pos_as_xyz
  x,y,z
_cell_length_a	21.4638
_cell_length_b	21.4638
_cell_length_c	21.4638
_cell_angle_alpha	109.471
_cell_angle_beta	109.471
_cell_angle_gamma	109.471
loop_
_atom_site_label
_atom_site_type_symbol
_atom_site_fract_x
_atom_site_fract_y
_atom_site_fract_z
_atom_site_charge
Mof_Cd	Cd	0.5	0.5	0.5	0.38
Mof_Cd	Cd	0.5	0	-0	0.362
Mof_Cd	Cd	-0	0	0.5	0.363
Mof_Cd	Cd	-0	0.5	-0	0.362
Mof_H 	H 	0.185	0.5484	0.3866	0.198
Mof_H 	H 	0.1245	0.5995	0.3344	0.063
Mof_H 	H 	0.3421	0.4228	0.3383	-0.006
Mof_H 	H 	0.2303	0.4235	0.2844	0.169
Mof_H 	H 	0.2999	0.5923	0.4884	0.179
Mof_H 	H 	0.4119	0.5912	0.5343	-0.008
Mof_H 	H 	0.6618	0.7984	0.1134	0.196
Mof_H 	H 	0.7651	0.7901	0.1656	0.069
Mof_H 	H 	0.5845	0.0038	0.1617	-0.019
Mof_H 	H 	0.6391	0.9459	0.2156	0.175
Mof_H 	H 	0.6039	0.8115	0.0116	0.172
Mof_H 	H 	0.5569	0.8776	0.9657	0.006
Mof_H 	H 	0.8382	0.9516	0.1366	0.197
Mof_H 	H 	0.7349	0.9005	0.025	0.068
Mof_H 	H 	0.9155	0.0772	0.4193	-0.004
Mof_H 	H 	0.8609	0.0765	0.3068	0.173
Mof_H 	H 	0.8961	0.9077	0.2076	0.181
Mof_H 	H 	0.9431	0.9088	0.3207	-0.008
Mof_H 	H 	0.315	0.7016	0.3634	0.197
Mof_H 	H 	0.3755	0.7099	0.475	0.069
Mof_H 	H 	0.1579	0.4962	0.0807	-0.009
Mof_H 	H 	0.2697	0.5541	0.1932	0.169
Mof_H 	H 	0.2001	0.6885	0.2924	0.178
Mof_H 	H 	0.0881	0.6224	0.1793	-0.011
Mof_H 	H 	0.6366	0.8382	0.4516	0.197
Mof_H 	H 	0.525	0.7349	0.4005	0.068
Mof_H 	H 	0.9193	0.9155	0.5772	-0.001
Mof_H 	H 	0.8068	0.8609	0.5765	0.171
Mof_H 	H 	0.7076	0.8961	0.4077	0.178
Mof_H 	H 	0.8207	0.9431	0.4088	-0.006
Mof_H 	H 	0.8634	0.315	0.2016	0.197
Mof_H 	H 	0.975	0.3755	0.2099	0.06
Mof_H 	H 	0.5807	0.1579	0.9962	0.009
Mof_H 	H 	0.6932	0.2697	0.0541	0.162
Mof_H 	H 	0.7924	0.2001	0.1885	0.176
Mof_H 	H 	0.6793	0.0881	0.1224	-0.01
Mof_H 	H 	0.8866	0.185	0.0484	0.196
Mof_H 	H 	0.8344	0.1245	0.0995	0.071
Mof_H 	H 	0.8383	0.3421	0.9228	-0.006
Mof_H 	H 	0.7844	0.2303	0.9235	0.168
Mof_H 	H 	0.9884	0.2999	0.0923	0.182
Mof_H 	H 	0.0343	0.4119	0.0912	-0.022
Mof_H 	H 	0.6134	0.6618	0.2984	0.196
Mof_H 	H 	0.6656	0.7651	0.2901	0.069
Mof_H 	H 	0.6617	0.5845	0.5038	-0.006
Mof_H 	H 	0.7156	0.6391	0.4459	0.17
Mof_H 	H 	0.5116	0.6039	0.3115	0.177
Mof_H 	H 	0.4657	0.5569	0.3776	-0.009
Mof_H 	H 	0.7984	0.6134	0.1618	0.197
Mof_H 	H 	0.7901	0.6656	0.2651	0.069
Mof_H 	H 	0.0038	0.6617	0.0845	-0.022
Mof_H 	H 	0.9459	0.7156	0.1391	0.176
Mof_H 	H 	0.8115	0.5116	0.1039	0.179
Mof_H 	H 	0.8776	0.4657	0.0569	-0.011
Mof_H 	H 	0.5484	0.8866	0.685	0.197
Mof_H 	H 	0.5995	0.8344	0.6245	0.069
Mof_H 	H 	0.4228	0.8383	0.8421	-0.005
Mof_H 	H 	0.4235	0.7844	0.7303	0.171
Mof_H 	H 	0.5923	0.9884	0.7999	0.185
Mof_H 	H 	0.5912	0.0343	0.9119	-0.02
Mof_H 	H 	0.7016	0.8634	0.815	0.197
Mof_H 	H 	0.7099	0.975	0.8755	0.067
Mof_H 	H 	0.4962	0.5807	0.6579	-0.006
Mof_H 	H 	0.5541	0.6932	0.7697	0.17
Mof_H 	H 	0.6885	0.7924	0.7001	0.178
Mof_H 	H 	0.6224	0.6793	0.5881	-0.009
Mof_H 	H 	0.9516	0.6366	0.3382	0.198
Mof_H 	H 	0.9005	0.525	0.2349	0.06
Mof_H 	H 	0.0772	0.9193	0.4155	-0.003
Mof_H 	H 	0.0765	0.8068	0.3609	0.173
Mof_H 	H 	0.9077	0.7076	0.3961	0.18
Mof_H 	H 	0.9088	0.8207	0.4431	-0.009
Mof_H 	H 	0.815	0.4516	0.6134	0.196
Mof_H 	H 	0.8755	0.4005	0.6656	0.075
Mof_H 	H 	0.6579	0.5772	0.6617	-0.005
Mof_H 	H 	0.7697	0.5765	0.7156	0.171
Mof_H 	H 	0.7001	0.4077	0.5116	0.178
Mof_H 	H 	0.5881	0.4088	0.4657	-0.009
Mof_H 	H 	0.3382	0.2016	0.8866	0.197
Mof_H 	H 	0.2349	0.2099	0.8344	0.069
Mof_H 	H 	0.4155	0.9962	0.8383	0.008
Mof_H 	H 	0.3609	0.0541	0.7844	0.165
Mof_H 	H 	0.3961	0.1885	0.9884	0.184
Mof_H 	H 	0.4431	0.1224	0.0343	-0.024
Mof_H 	H 	0.1618	0.0484	0.8634	0.196
Mof_H 	H 	0.2651	0.0995	0.975	0.068
Mof_H 	H 	0.0845	0.9228	0.5807	-0.007
Mof_H 	H 	0.1391	0.9235	0.6932	0.166
Mof_H 	H 	0.1039	0.0923	0.7924	0.175
Mof_H 	H 	0.0569	0.0912	0.6793	-0.009
Mof_H 	H 	0.685	0.2984	0.6366	0.196
Mof_H 	H 	0.6245	0.2901	0.525	0.069
Mof_H 	H 	0.8421	0.5038	0.9193	-0.002
Mof_H 	H 	0.7303	0.4459	0.8068	0.17
Mof_H 	H 	0.7999	0.3115	0.7076	0.177
Mof_H 	H 	0.9119	0.3776	0.8207	-0.006
Mof_H 	H 	0.3634	0.1618	0.5484	0.196
Mof_H 	H 	0.475	0.2651	0.5995	0.069
Mof_H 	H 	0.0807	0.0845	0.4228	-0.01
Mof_H 	H 	0.1932	0.1391	0.4235	0.168
Mof_H 	H 	0.2924	0.1039	0.5923	0.177
Mof_H 	H 	0.1793	0.0569	0.5912	-0.01
Mof_H 	H 	0.1366	0.685	0.7984	0.196
Mof_H 	H 	0.025	0.6245	0.7901	0.076
Mof_H 	H 	0.4193	0.8421	0.0038	-0.02
Mof_H 	H 	0.3068	0.7303	0.9459	0.177
Mof_H 	H 	0.2076	0.7999	0.8115	0.179
Mof_H 	H 	0.3207	0.9119	0.8776	-0.007
Mof_H 	H 	0.1134	0.815	0.9516	0.197
Mof_H 	H 	0.1656	0.8755	0.9005	0.066
Mof_H 	H 	0.1617	0.6579	0.0772	-0.005
Mof_H 	H 	0.2156	0.7697	0.0765	0.172
Mof_H 	H 	0.0116	0.7001	0.9077	0.174
Mof_H 	H 	0.9657	0.5881	0.9088	0.003
Mof_H 	H 	0.3866	0.3382	0.7016	0.197
Mof_H 	H 	0.3344	0.2349	0.7099	0.069
Mof_H 	H 	0.3383	0.4155	0.4962	-0.006
Mof_H 	H 	0.2844	0.3609	0.5541	0.169
Mof_H 	H 	0.4884	0.3961	0.6885	0.178
Mof_H 	H 	0.5343	0.4431	0.6224	-0.009
Mof_H 	H 	0.2016	0.3866	0.8382	0.196
Mof_H 	H 	0.2099	0.3344	0.7349	0.068
Mof_H 	H 	0.9962	0.3383	0.9155	0.008
Mof_H 	H 	0.0541	0.2844	0.8609	0.164
Mof_H 	H 	0.1885	0.4884	0.8961	0.177
Mof_H 	H 	0.1224	0.5343	0.9431	-0.006
Mof_H 	H 	0.4516	0.1134	0.315	0.196
Mof_H 	H 	0.4005	0.1656	0.3755	0.068
Mof_H 	H 	0.5772	0.1617	0.1579	-0.005
Mof_H 	H 	0.5765	0.2156	0.2697	0.168
Mof_H 	H 	0.4077	0.0116	0.2001	0.17
Mof_H 	H 	0.4088	0.9657	0.0881	0.004
Mof_H 	H 	0.2984	0.1366	0.185	0.196
Mof_H 	H 	0.2901	0.025	0.1245	0.069
Mof_H 	H 	0.5038	0.4193	0.3421	-0.006
Mof_H 	H 	0.4459	0.3068	0.2303	0.169
Mof_H 	H 	0.3115	0.2076	0.2999	0.177
Mof_H 	H 	0.3776	0.3207	0.4119	-0.009
Mof_H 	H 	0.0484	0.3634	0.6618	0.195
Mof_H 	H 	0.0995	0.475	0.7651	0.076
Mof_H 	H 	0.9228	0.0807	0.5845	-0.008
Mof_H 	H 	0.9235	0.1932	0.6391	0.166
Mof_H 	H 	0.0923	0.2924	0.6039	0.175
Mof_H 	H 	0.0912	0.1793	0.5569	-0.008
Mof_C 	C 	0.0743	0.5595	0.3046	0.016
Mof_C 	C 	0.059	0.4844	0.2746	-0.062
Mof_C 	C 	0.1218	0.465	0.2856	0.26
Mof_C 	C 	0.3338	0.4579	0.3689	0.163
Mof_C 	C 	0.2658	0.4572	0.336	-0.27
Mof_C 	C 	0.2512	0.5069	0.3805	0.286
Mof_C 	C 	0.3074	0.5576	0.4564	-0.281
Mof_C 	C 	0.3742	0.5558	0.4838	0.167
Mof_C 	C 	0.7549	0.7697	0.1954	-0.004
Mof_C 	C 	0.7098	0.7844	0.2254	-0.035
Mof_C 	C 	0.6794	0.8362	0.2144	0.253
Mof_C 	C 	0.589	0.9649	0.1311	0.185
Mof_C 	C 	0.6212	0.9298	0.164	-0.277
Mof_C 	C 	0.6264	0.8707	0.1195	0.287
Mof_C 	C 	0.6012	0.851	0.0436	-0.272
Mof_C 	C 	0.572	0.8904	0.0162	0.147
Mof_C 	C 	0.7451	0.9405	0.0148	-0.005
Mof_C 	C 	0.7902	0.0156	0.0746	-0.042
Mof_C 	C 	0.8206	0.035	0.1568	0.246
Mof_C 	C 	0.911	0.0421	0.3759	0.159
Mof_C 	C 	0.8788	0.0428	0.3086	-0.283
Mof_C 	C 	0.8736	0.9931	0.2443	0.301
Mof_C 	C 	0.8988	0.9424	0.2498	-0.285
Mof_C 	C 	0.928	0.9442	0.3184	0.173
Mof_C 	C 	0.4257	0.7303	0.4852	-0.004
Mof_C 	C 	0.441	0.7156	0.4254	-0.036
Mof_C 	C 	0.3782	0.6638	0.3432	0.253
Mof_C 	C 	0.1662	0.5351	0.1241	0.164
Mof_C 	C 	0.2342	0.5702	0.1914	-0.27
Mof_C 	C 	0.2488	0.6293	0.2557	0.287
Mof_C 	C 	0.1926	0.649	0.2502	-0.281
Mof_C 	C 	0.1258	0.6096	0.1816	0.167
Mof_C 	C 	0.5148	0.7451	0.4405	-0.004
Mof_C 	C 	0.5746	0.7902	0.5156	-0.035
Mof_C 	C 	0.6568	0.8206	0.535	0.253
Mof_C 	C 	0.8759	0.911	0.5421	0.164
Mof_C 	C 	0.8086	0.8788	0.5428	-0.268
Mof_C 	C 	0.7443	0.8736	0.4931	0.287
Mof_C 	C 	0.7498	0.8988	0.4424	-0.28
Mof_C 	C 	0.8184	0.928	0.4442	0.168
Mof_C 	C 	0.9852	0.4257	0.2303	0.026
Mof_C 	C 	0.9254	0.441	0.2156	-0.054
Mof_C 	C 	0.8432	0.3782	0.1638	0.259
Mof_C 	C 	0.6241	0.1662	0.0351	0.138
Mof_C 	C 	0.6914	0.2342	0.0702	-0.257
Mof_C 	C 	0.7557	0.2488	0.1293	0.28
Mof_C 	C 	0.7502	0.1926	0.149	-0.277
Mof_C 	C 	0.6816	0.1258	0.1096	0.163
Mof_C 	C 	0.8046	0.0743	0.0595	-0.013
Mof_C 	C 	0.7746	0.059	0.9844	-0.037
Mof_C 	C 	0.7856	0.1218	0.965	0.261
Mof_C 	C 	0.8689	0.3338	0.9579	0.171
Mof_C 	C 	0.836	0.2658	0.9572	-0.26
Mof_C 	C 	0.8805	0.2512	0.0069	0.279
Mof_C 	C 	0.9564	0.3074	0.0576	-0.289
Mof_C 	C 	0.9838	0.3742	0.0558	0.186
Mof_C 	C 	0.6954	0.7549	0.2697	-0.004
Mof_C 	C 	0.7254	0.7098	0.2844	-0.036
Mof_C 	C 	0.7144	0.6794	0.3362	0.252
Mof_C 	C 	0.6311	0.589	0.4649	0.163
Mof_C 	C 	0.664	0.6212	0.4298	-0.269
Mof_C 	C 	0.6195	0.6264	0.3707	0.286
Mof_C 	C 	0.5436	0.6012	0.351	-0.281
Mof_C 	C 	0.5162	0.572	0.3904	0.167
Mof_C 	C 	0.7697	0.6954	0.2549	-0.004
Mof_C 	C 	0.7844	0.7254	0.2098	-0.036
Mof_C 	C 	0.8362	0.7144	0.1794	0.253
Mof_C 	C 	0.9649	0.6311	0.089	0.187
Mof_C 	C 	0.9298	0.664	0.1212	-0.283
Mof_C 	C 	0.8707	0.6195	0.1264	0.293
Mof_C 	C 	0.851	0.5436	0.1012	-0.286
Mof_C 	C 	0.8904	0.5162	0.072	0.17
Mof_C 	C 	0.5595	0.8046	0.5743	-0.004
Mof_C 	C 	0.4844	0.7746	0.559	-0.036
Mof_C 	C 	0.465	0.7856	0.6218	0.253
Mof_C 	C 	0.4579	0.8689	0.8338	0.166
Mof_C 	C 	0.4572	0.836	0.7658	-0.273
Mof_C 	C 	0.5069	0.8805	0.7512	0.292
Mof_C 	C 	0.5576	0.9564	0.8074	-0.293
Mof_C 	C 	0.5558	0.9838	0.8742	0.19
Mof_C 	C 	0.7303	0.9852	0.9257	0.006
Mof_C 	C 	0.7156	0.9254	0.941	-0.029
Mof_C 	C 	0.6638	0.8432	0.8782	0.252
Mof_C 	C 	0.5351	0.6241	0.6662	0.164
Mof_C 	C 	0.5702	0.6914	0.7342	-0.269
Mof_C 	C 	0.6293	0.7557	0.7488	0.287
Mof_C 	C 	0.649	0.7502	0.6926	-0.281
Mof_C 	C 	0.6096	0.6816	0.6258	0.168
Mof_C 	C 	0.9405	0.5148	0.2451	0.025
Mof_C 	C 	0.0156	0.5746	0.2902	-0.06
Mof_C 	C 	0.035	0.6568	0.3206	0.252
Mof_C 	C 	0.0421	0.8759	0.411	0.158
Mof_C 	C 	0.0428	0.8086	0.3788	-0.283
Mof_C 	C 	0.9931	0.7443	0.3736	0.3
Mof_C 	C 	0.9424	0.7498	0.3988	-0.286
Mof_C 	C 	0.9442	0.8184	0.428	0.172
Mof_C 	C 	0.9257	0.4405	0.6954	-0.022
Mof_C 	C 	0.941	0.5156	0.7254	-0.012
Mof_C 	C 	0.8782	0.535	0.7144	0.246
Mof_C 	C 	0.6662	0.5421	0.6311	0.164
Mof_C 	C 	0.7342	0.5428	0.664	-0.269
Mof_C 	C 	0.7488	0.4931	0.6195	0.287
Mof_C 	C 	0.6926	0.4424	0.5436	-0.281
Mof_C 	C 	0.6258	0.4442	0.5162	0.167
Mof_C 	C 	0.2451	0.2303	0.8046	-0.004
Mof_C 	C 	0.2902	0.2156	0.7746	-0.036
Mof_C 	C 	0.3206	0.1638	0.7856	0.253
Mof_C 	C 	0.411	0.0351	0.8689	0.143
Mof_C 	C 	0.3788	0.0702	0.836	-0.262
Mof_C 	C 	0.3736	0.1293	0.8805	0.287
Mof_C 	C 	0.3988	0.149	0.9564	-0.291
Mof_C 	C 	0.428	0.1096	0.9838	0.189
Mof_C 	C 	0.2549	0.0595	0.9852	0.002
Mof_C 	C 	0.2098	0.9844	0.9254	-0.033
Mof_C 	C 	0.1794	0.965	0.8432	0.26
Mof_C 	C 	0.089	0.9579	0.6241	0.167
Mof_C 	C 	0.1212	0.9572	0.6914	-0.257
Mof_C 	C 	0.1264	0.0069	0.7557	0.273
Mof_C 	C 	0.1012	0.0576	0.7502	-0.276
Mof_C 	C 	0.072	0.0558	0.6816	0.161
Mof_C 	C 	0.5743	0.2697	0.5148	-0.004
Mof_C 	C 	0.559	0.2844	0.5746	-0.036
Mof_C 	C 	0.6218	0.3362	0.6568	0.253
Mof_C 	C 	0.8338	0.4649	0.8759	0.163
Mof_C 	C 	0.7658	0.4298	0.8086	-0.268
Mof_C 	C 	0.7512	0.3707	0.7443	0.286
Mof_C 	C 	0.8074	0.351	0.7498	-0.28
Mof_C 	C 	0.8742	0.3904	0.8184	0.166
Mof_C 	C 	0.4852	0.2549	0.5595	-0.004
Mof_C 	C 	0.4254	0.2098	0.4844	-0.036
Mof_C 	C 	0.3432	0.1794	0.465	0.252
Mof_C 	C 	0.1241	0.089	0.4579	0.162
Mof_C 	C 	0.1914	0.1212	0.4572	-0.27
Mof_C 	C 	0.2557	0.1264	0.5069	0.286
Mof_C 	C 	0.2502	0.1012	0.5576	-0.282
Mof_C 	C 	0.1816	0.072	0.5558	0.166
Mof_C 	C 	0.0148	0.5743	0.7697	-0.031
Mof_C 	C 	0.0746	0.559	0.7844	-0.019
Mof_C 	C 	0.1568	0.6218	0.8362	0.247
Mof_C 	C 	0.3759	0.8338	0.9649	0.188
Mof_C 	C 	0.3086	0.7658	0.9298	-0.281
Mof_C 	C 	0.2443	0.7512	0.8707	0.293
Mof_C 	C 	0.2498	0.8074	0.851	-0.284
Mof_C 	C 	0.3184	0.8742	0.8904	0.17
Mof_C 	C 	0.1954	0.9257	0.9405	0.007
Mof_C 	C 	0.2254	0.941	0.0156	-0.036
Mof_C 	C 	0.2144	0.8782	0.035	0.244
Mof_C 	C 	0.1311	0.6662	0.0421	0.155
Mof_C 	C 	0.164	0.7342	0.0428	-0.281
Mof_C 	C 	0.1195	0.7488	0.9931	0.296
Mof_C 	C 	0.0436	0.6926	0.9424	-0.275
Mof_C 	C 	0.0162	0.6258	0.9442	0.152
Mof_C 	C 	0.3046	0.2451	0.7303	-0.004
Mof_C 	C 	0.2746	0.2902	0.7156	-0.036
Mof_C 	C 	0.2856	0.3206	0.6638	0.253
Mof_C 	C 	0.3689	0.411	0.5351	0.163
Mof_C 	C 	0.336	0.3788	0.5702	-0.269
Mof_C 	C 	0.3805	0.3736	0.6293	0.287
Mof_C 	C 	0.4564	0.3988	0.649	-0.281
Mof_C 	C 	0.4838	0.428	0.6096	0.167
Mof_C 	C 	0.2303	0.3046	0.7451	-0.004
Mof_C 	C 	0.2156	0.2746	0.7902	-0.036
Mof_C 	C 	0.1638	0.2856	0.8206	0.253
Mof_C 	C 	0.0351	0.3689	0.911	0.144
Mof_C 	C 	0.0702	0.336	0.8788	-0.258
Mof_C 	C 	0.1293	0.3805	0.8736	0.281
Mof_C 	C 	0.149	0.4564	0.8988	-0.276
Mof_C 	C 	0.1096	0.4838	0.928	0.165
Mof_C 	C 	0.4405	0.1954	0.4257	-0.004
Mof_C 	C 	0.5156	0.2254	0.441	-0.036
Mof_C 	C 	0.535	0.2144	0.3782	0.252
Mof_C 	C 	0.5421	0.1311	0.1662	0.16
Mof_C 	C 	0.5428	0.164	0.2342	-0.265
Mof_C 	C 	0.4931	0.1195	0.2488	0.28
Mof_C 	C 	0.4424	0.0436	0.1926	-0.268
Mof_C 	C 	0.4442	0.0162	0.1258	0.143
Mof_C 	C 	0.2697	0.0148	0.0743	-0.012
Mof_C 	C 	0.2844	0.0746	0.059	-0.046
Mof_C 	C 	0.3362	0.1568	0.1218	0.254
Mof_C 	C 	0.4649	0.3759	0.3338	0.163
Mof_C 	C 	0.4298	0.3086	0.2658	-0.269
Mof_C 	C 	0.3707	0.2443	0.2512	0.286
Mof_C 	C 	0.351	0.2498	0.3074	-0.281
Mof_C 	C 	0.3904	0.3184	0.3742	0.167
Mof_C 	C 	0.0595	0.4852	0.7549	-0.03
Mof_C 	C 	0.9844	0.4254	0.7098	-0.014
Mof_C 	C 	0.965	0.3432	0.6794	0.253
Mof_C 	C 	0.9579	0.1241	0.589	0.168
Mof_C 	C 	0.9572	0.1914	0.6212	-0.257
Mof_C 	C 	0.0069	0.2557	0.6264	0.274
Mof_C 	C 	0.0576	0.2502	0.6012	-0.276
Mof_C 	C 	0.0558	0.1816	0.572	0.162
Mof_N 	N 	0.38793	0.50584	0.44161	-0.185
Mof_N 	N 	0.1853	0.5115	0.3546	-0.285
Mof_N 	N 	0.56423	0.94632	0.05839	-0.182
Mof_N 	N 	0.6569	0.8307	0.1454	-0.282
Mof_N 	N 	0.93577	0.99416	0.38209	-0.176
Mof_N 	N 	0.8431	0.9885	0.1738	-0.279
Mof_N 	N 	0.11207	0.55368	0.11791	-0.186
Mof_N 	N 	0.3147	0.6693	0.3262	-0.283
Mof_N 	N 	0.88209	0.93577	0.49416	-0.18
Mof_N 	N 	0.6738	0.8431	0.4885	-0.282
Mof_N 	N 	0.61791	0.11207	0.05368	-0.182
Mof_N 	N 	0.8262	0.3147	0.1693	-0.283
Mof_N 	N 	0.94161	0.38793	0.00584	-0.191
Mof_N 	N 	0.8546	0.1853	0.0115	-0.287
Mof_N 	N 	0.55839	0.56423	0.44632	-0.185
Mof_N 	N 	0.6454	0.6569	0.3307	-0.283
Mof_N 	N 	0.94632	0.55839	0.06423	-0.187
Mof_N 	N 	0.8307	0.6454	0.1569	-0.284
Mof_N 	N 	0.50584	0.94161	0.88793	-0.184
Mof_N 	N 	0.5115	0.8546	0.6853	-0.284
Mof_N 	N 	0.55368	0.61791	0.61207	-0.185
Mof_N 	N 	0.6693	0.8262	0.8147	-0.282
Mof_N 	N 	0.99416	0.88209	0.43577	-0.177
Mof_N 	N 	0.9885	0.6738	0.3431	-0.281
Mof_N 	N 	0.61207	0.49416	0.55839	-0.185
Mof_N 	N 	0.8147	0.4885	0.6454	-0.281
Mof_N 	N 	0.43577	0.05368	0.94161	-0.184
Mof_N 	N 	0.3431	0.1693	0.8546	-0.283
Mof_N 	N 	0.06423	0.00584	0.61791	-0.189
Mof_N 	N 	0.1569	0.0115	0.8262	-0.286
Mof_N 	N 	0.88793	0.44632	0.88209	-0.18
Mof_N 	N 	0.6853	0.3307	0.6738	-0.282
Mof_N 	N 	0.11791	0.06423	0.50584	-0.186
Mof_N 	N 	0.3262	0.1569	0.5115	-0.283
Mof_N 	N 	0.38209	0.88793	0.94632	-0.184
Mof_N 	N 	0.1738	0.6853	0.8307	-0.282
Mof_N 	N 	0.05839	0.61207	0.99416	-0.175
Mof_N 	N 	0.1454	0.8147	0.9885	-0.278
Mof_N 	N 	0.44161	0.43577	0.55368	-0.185
Mof_N 	N 	0.3546	0.3431	0.6693	-0.283
Mof_N 	N 	0.05368	0.44161	0.93577	-0.179
Mof_N 	N 	0.1693	0.3546	0.8431	-0.282
Mof_N 	N 	0.49416	0.05839	0.11207	-0.181
Mof_N 	N 	0.4885	0.1454	0.3147	-0.281
Mof_N 	N 	0.44632	0.38209	0.38793	-0.185
Mof_N 	N 	0.3307	0.1738	0.1853	-0.283
Mof_N 	N 	0.00584	0.11791	0.56423	-0.189
Mof_N 	N 	0.0115	0.3262	0.6569	-0.284
Mof_O 	O 	0.1135	0.4104	0.2343	-0.225
Mof_O 	O 	0.6761	0.8792	0.2657	-0.218
Mof_O 	O 	0.8239	0.0896	0.2031	-0.219
Mof_O 	O 	0.3865	0.6208	0.2969	-0.22
Mof_O 	O 	0.7031	0.8239	0.5896	-0.218
Mof_O 	O 	0.7969	0.3865	0.1208	-0.222
Mof_O 	O 	0.7343	0.1135	0.9104	-0.223
Mof_O 	O 	0.7657	0.6761	0.3792	-0.219
Mof_O 	O 	0.8792	0.7657	0.1761	-0.218
Mof_O 	O 	0.4104	0.7343	0.6135	-0.219
Mof_O 	O 	0.6208	0.7969	0.8865	-0.215
Mof_O 	O 	0.0896	0.7031	0.3239	-0.221
Mof_O 	O 	0.8865	0.5896	0.7657	-0.214
Mof_O 	O 	0.3239	0.1208	0.7343	-0.221
Mof_O 	O 	0.1761	0.9104	0.7969	-0.22
Mof_O 	O 	0.6135	0.3792	0.7031	-0.219
Mof_O 	O 	0.2969	0.1761	0.4104	-0.22
Mof_O 	O 	0.2031	0.6135	0.8792	-0.216
Mof_O 	O 	0.2657	0.8865	0.0896	-0.216
Mof_O 	O 	0.2343	0.3239	0.6208	-0.22
Mof_O 	O 	0.1208	0.2343	0.8239	-0.22
Mof_O 	O 	0.5896	0.2657	0.3865	-0.219
Mof_O 	O 	0.3792	0.2031	0.1135	-0.224
Mof_O 	O 	0.9104	0.2969	0.6761	-0.218
Mof_Cl	Cl	0.188	0.6191	0.4839	-0.255
Mof_Cl	Cl	0.6352	0.7041	0.0161	-0.259
Mof_Cl	Cl	0.8648	0.8809	0.0689	-0.252
Mof_Cl	Cl	0.312	0.7959	0.4311	-0.252
Mof_Cl	Cl	0.5689	0.8648	0.3809	-0.251
Mof_Cl	Cl	0.9311	0.312	0.2959	-0.25
Mof_Cl	Cl	0.9839	0.188	0.1191	-0.254
Mof_Cl	Cl	0.5161	0.6352	0.2041	-0.257
Mof_Cl	Cl	0.7041	0.5161	0.1352	-0.257
Mof_Cl	Cl	0.6191	0.9839	0.688	-0.248
Mof_Cl	Cl	0.7959	0.9311	0.812	-0.246
Mof_Cl	Cl	0.8809	0.5689	0.3648	-0.251
Mof_Cl	Cl	0.812	0.3809	0.5161	-0.253
Mof_Cl	Cl	0.3648	0.2959	0.9839	-0.249
Mof_Cl	Cl	0.1352	0.1191	0.9311	-0.254
Mof_Cl	Cl	0.688	0.2041	0.5689	-0.256
Mof_Cl	Cl	0.4311	0.1352	0.6191	-0.257
Mof_Cl	Cl	0.0689	0.688	0.7041	-0.257
Mof_Cl	Cl	0.0161	0.812	0.8809	-0.254
Mof_Cl	Cl	0.4839	0.3648	0.7959	-0.251
Mof_Cl	Cl	0.2959	0.4839	0.8648	-0.251
Mof_Cl	Cl	0.3809	0.0161	0.312	-0.26
Mof_Cl	Cl	0.2041	0.0689	0.188	-0.262
Mof_Cl	Cl	0.1191	0.4311	0.6352	-0.257
_end
