data_functionalizedCrystal
_audit_creation_method	'EQeq! by Chris Wilmer'
_symmetry_space_group_name_H-M	'P1'
_symmetry_Int_Tables_number	1
_symmetry_cell_setting	triclinic
loop_
_symmetry_equiv_pos_as_xyz
  x,y,z
_cell_length_a	27.31
_cell_length_b	28.43
_cell_length_c	30.556
_cell_angle_alpha	90
_cell_angle_beta	90
_cell_angle_gamma	90
loop_
_atom_site_label
_atom_site_type_symbol
_atom_site_fract_x
_atom_site_fract_y
_atom_site_fract_z
_atom_site_charge
Mof_Cu	Cu	0.42036	0.96441	0.28246	0.891
Mof_N 	N 	0.425	0.9474	0.2206	-0.233
Mof_O 	O 	0.4102	0.0278	0.2628	-0.388
Mof_C 	C 	0.4187	0.9866	0.1964	0.074
Mof_C 	C 	0.4325	0.9045	0.202	0.094
Mof_C 	C 	0.4082	0.0308	0.2211	0.26
Mof_O 	O 	0.4188	0.9872	0.1543	-0.293
Mof_C 	C 	0.4804	0.8885	0.1977	-0.043
Mof_C 	C 	0.3938	0.877	0.1871	-0.047
Mof_O 	O 	0.4021	0.0661	0.198	-0.326
Mof_Mn	Mn	0.39542	0.0534	0.12896	0.958
Mof_C 	C 	0.4895	0.845	0.1785	-0.029
Mof_C 	C 	0.5276	0.9197	0.2113	0.034
Mof_C 	C 	0.403	0.8336	0.168	-0.026
Mof_C 	C 	0.3382	0.8911	0.1904	0.077
Mof_O 	O 	0.4647	0.0764	0.1055	-0.314
Mof_O 	O 	0.386	0.1289	0.1182	-0.297
Mof_O 	O 	0.369	0.0301	0.069	-0.29
Mof_O 	O 	0.3166	0.0485	0.1393	-0.321
Mof_H 	H 	0.5216	0.8344	0.1757	0.036
Mof_C 	C 	0.4509	0.8176	0.1637	-0.051
Mof_H 	H 	0.543	0.9067	0.2372	0.004
Mof_H 	H 	0.5179	0.9518	0.2174	0.001
Mof_C 	C 	0.5655	0.9181	0.1696	-0.495
Mof_H 	H 	0.3771	0.8152	0.158	0.033
Mof_H 	H 	0.3339	0.9147	0.213	0.001
Mof_H 	H 	0.3188	0.8638	0.1982	0.001
Mof_C 	C 	0.32	0.912	0.1442	-0.567
Mof_C 	C 	0.4662	0.118	0.0955	0.123
Mof_C 	C 	0.4238	0.1502	0.0999	0.228
Mof_C 	C 	0.3219	0.0389	0.0651	0.053
Mof_C 	C 	0.2966	0.0479	0.1041	0.242
Mof_H 	H 	0.457	0.7885	0.1509	0.046
Mof_H 	H 	0.5947	0.9352	0.1768	0.161
Mof_H 	H 	0.5502	0.9322	0.1445	0.173
Mof_H 	H 	0.5737	0.886	0.1631	0.176
Mof_H 	H 	0.2863	0.9211	0.1466	0.195
Mof_H 	H 	0.323	0.8877	0.1222	0.188
Mof_H 	H 	0.3397	0.9382	0.1363	0.215
Mof_N 	N 	0.5037	0.1429	0.0802	-0.245
Mof_O 	O 	0.4239	0.1914	0.0898	-0.376
Mof_N 	N 	0.2978	0.0413	0.025	-0.229
Mof_O 	O 	0.2482	0.0563	0.0966	-0.365
Mof_C 	C 	0.5482	0.1152	0.067	0.101
Mof_Cu	Cu	0.49114	0.20915	0.07318	0.887
Mof_C 	C 	0.3232	0.0324	0.9877	0.098
Mof_Cu	Cu	0.23425	0.0671	0.03628	0.892
Mof_C 	C 	0.5601	0.1095	0.0231	-0.077
Mof_C 	C 	0.5773	0.0948	0.0991	-0.096
Mof_N 	N 	0.4776	0.2726	0.0536	-0.249
Mof_O 	O 	0.5595	0.2288	0.0661	-0.364
Mof_C 	C 	0.3074	0.9938	0.9635	-0.037
Mof_C 	C 	0.359	0.0621	0.9708	-0.05
Mof_O 	O 	0.2251	0.0828	0.974	-0.352
Mof_N 	N 	0.1637	0.0734	0.0416	-0.24
Mof_C 	C 	0.601	0.0834	0.0113	0.001
Mof_C 	C 	0.5244	0.1304	0.9867	0.122
Mof_C 	C 	0.6182	0.0687	0.0874	0.008
Mof_C 	C 	0.5697	0.1071	0.1491	0.233
Mof_C 	C 	0.5162	0.2988	0.0532	0.104
Mof_C 	C 	0.4322	0.2931	0.0405	0.118
Mof_C 	C 	0.5626	0.2728	0.0592	0.22
Mof_C 	C 	0.3274	0.9849	0.9225	-0.032
Mof_C 	C 	0.2669	0.9638	0.9828	0.004
Mof_C 	C 	0.379	0.0532	0.9298	-0.024
Mof_C 	C 	0.3768	0.1068	0.9961	0.073
Mof_H 	H 	0.609	0.0796	0.9819	0.025
Mof_C 	C 	0.6301	0.063	0.0434	-0.085
Mof_H 	H 	0.5092	0.1049	0.9706	-0.011
Mof_H 	H 	0.4987	0.1487	0.0006	-0.037
Mof_C 	C 	0.5541	0.1622	0.9549	-0.589
Mof_H 	H 	0.6377	0.0551	0.1089	0.014
Mof_H 	H 	0.5997	0.121	0.1603	-0.043
Mof_H 	H 	0.5442	0.1307	0.1515	-0.041
Mof_C 	C 	0.5564	0.0662	0.1774	-0.743
Mof_O 	O 	0.5176	0.3428	0.0473	-0.306
Mof_C 	C 	0.4202	0.2903	0.9964	-0.122
Mof_C 	C 	0.3995	0.3132	0.07	-0.086
Mof_O 	O 	0.603	0.2951	0.06	-0.299
Mof_H 	H 	0.3169	0.9591	0.9064	0.031
Mof_C 	C 	0.3632	0.0146	0.9057	-0.052
Mof_H 	H 	0.2762	0.9553	0.0124	0.021
Mof_H 	H 	0.2647	0.935	0.966	0.012
Mof_C 	C 	0.2145	0.9872	0.9843	-0.379
Mof_H 	H 	0.4029	0.073	0.9185	0.033
Mof_H 	H 	0.4099	0.1004	0.006	0.011
Mof_H 	H 	0.3566	0.1096	0.022	0.011
Mof_C 	C 	0.378	0.1566	0.9738	-0.54
Mof_H 	H 	0.6575	0.0455	0.0356	0.049
Mof_H 	H 	0.5325	0.175	0.9331	0.183
Mof_H 	H 	0.5791	0.1439	0.9409	0.197
Mof_H 	H 	0.569	0.1874	0.971	0.199
Mof_H 	H 	0.5528	0.0766	0.2071	0.246
Mof_H 	H 	0.5817	0.0429	0.1758	0.241
Mof_H 	H 	0.5261	0.0529	0.1674	0.259
Mof_Mn	Mn	0.588	0.37101	0.06438	0.928
Mof_C 	C 	0.4532	0.2695	0.9657	0.174
Mof_C 	C 	0.3755	0.3076	0.9817	0.023
Mof_C 	C 	0.4121	0.3121	0.1185	0.134
Mof_C 	C 	0.3549	0.3305	0.0553	0.01
Mof_H 	H 	0.3766	0.0087	0.8782	0.045
Mof_H 	H 	0.1912	0.9649	0.9953	0.128
Mof_H 	H 	0.2052	0.9967	0.9554	0.148
Mof_H 	H 	0.2153	0.0142	0.0032	0.068
Mof_H 	H 	0.3905	0.1794	0.994	0.187
Mof_H 	H 	0.3451	0.1653	0.9654	0.186
Mof_H 	H 	0.3983	0.1555	0.9482	0.18
Mof_O 	O 	0.5919	0.3605	0.1363	-0.316
Mof_O 	O 	0.5634	0.4387	0.091	-0.291
Mof_O 	O 	0.6015	0.3988	0.0013	-0.308
Mof_O 	O 	0.6646	0.3884	0.0676	-0.303
Mof_C 	C 	0.447	0.275	0.9156	-0.623
Mof_H 	H 	0.4535	0.236	0.9718	-0.049
Mof_H 	H 	0.4856	0.2812	0.9728	-0.03
Mof_C 	C 	0.3429	0.3277	0.0112	-0.096
Mof_H 	H 	0.3675	0.3057	0.9522	0.012
Mof_C 	C 	0.439	0.3586	0.1317	-0.605
Mof_H 	H 	0.3824	0.3087	0.1355	-0.01
Mof_H 	H 	0.4331	0.2853	0.1246	-0.018
Mof_H 	H 	0.333	0.344	0.075	0.021
Mof_C 	C 	0.5836	0.3968	0.156	0.252
Mof_C 	C 	0.5706	0.441	0.1313	0.085
Mof_C 	C 	0.6444	0.4097	0.9953	0.112
Mof_C 	C 	0.6799	0.4037	0.0315	0.205
Mof_H 	H 	0.4182	0.2586	0.9063	0.199
Mof_H 	H 	0.4753	0.2613	0.9012	0.182
Mof_H 	H 	0.4448	0.3074	0.9082	0.203
Mof_H 	H 	0.313	0.3393	0.0014	0.058
Mof_H 	H 	0.4182	0.385	0.1257	0.199
Mof_H 	H 	0.4465	0.3578	0.1624	0.2
Mof_H 	H 	0.4688	0.3614	0.1153	0.215
Mof_O 	O 	0.5865	0.4006	0.1975	-0.38
Mof_N 	N 	0.5696	0.4788	0.1562	-0.24
Mof_C 	C 	0.5584	0.5245	0.1391	0.088
Mof_C 	C 	0.6311	0.4343	0.9211	0.086
Mof_C 	C 	0.5145	0.5458	0.1506	-0.058
Mof_C 	C 	0.5903	0.547	0.1104	-0.072
Mof_C 	C 	0.6117	0.3976	0.8965	-0.048
Mof_C 	C 	0.621	0.4806	0.9097	-0.063
Mof_C 	C 	0.4746	0.5207	0.1794	0.075
Mof_C 	C 	0.5024	0.5895	0.1335	-0.017
Mof_C 	C 	0.5781	0.5908	0.0933	-0.009
Mof_C 	C 	0.6409	0.5289	0.1031	0.127
Mof_C 	C 	0.6168	0.3488	0.9083	0.079
Mof_C 	C 	0.5823	0.4073	0.8605	-0.024
Mof_C 	C 	0.6448	0.5259	0.929	0.113
Mof_C 	C 	0.5915	0.4903	0.8737	-0.019
Mof_C 	C 	0.4578	0.4787	0.1471	-0.547
Mof_H 	H 	0.4475	0.5416	0.1861	-0.009
Mof_H 	H 	0.4883	0.5086	0.2064	-0.028
Mof_C 	C 	0.5342	0.612	0.1049	-0.068
Mof_H 	H 	0.473	0.6038	0.1413	0.031
Mof_H 	H 	0.5994	0.6058	0.0741	0.016
Mof_H 	H 	0.6536	0.5423	0.0761	-0.027
Mof_H 	H 	0.6396	0.495	0.0994	-0.003
Mof_C 	C 	0.6766	0.5407	0.141	-0.602
Mof_H 	H 	0.6325	0.3309	0.8852	-0.002
Mof_C 	C 	0.561	0.3336	0.9145	-0.538
Mof_H 	H 	0.6352	0.3451	0.9352	0.006
Mof_C 	C 	0.5722	0.4536	0.8491	-0.059
Mof_H 	H 	0.5694	0.3827	0.844	0.025
Mof_C 	C 	0.6144	0.5483	0.9673	-0.593
Mof_H 	H 	0.6484	0.5489	0.9058	-0.012
Mof_H 	H 	0.6773	0.5182	0.9397	-0.027
Mof_H 	H 	0.5848	0.5213	0.866	0.037
Mof_H 	H 	0.4443	0.4918	0.1208	0.188
Mof_H 	H 	0.4334	0.4598	0.1614	0.169
Mof_H 	H 	0.4856	0.4595	0.14	0.191
Mof_H 	H 	0.5261	0.6413	0.0935	0.049
Mof_H 	H 	0.6792	0.5742	0.144	0.204
Mof_H 	H 	0.6643	0.5274	0.1677	0.204
Mof_H 	H 	0.7082	0.5276	0.1347	0.202
Mof_H 	H 	0.5594	0.3005	0.9207	0.174
Mof_H 	H 	0.547	0.3508	0.9384	0.202
Mof_H 	H 	0.5431	0.3402	0.8882	0.176
Mof_H 	H 	0.5525	0.46	0.825	0.046
Mof_H 	H 	0.5828	0.5577	0.9566	0.205
Mof_H 	H 	0.6104	0.5257	0.9903	0.206
Mof_H 	H 	0.6314	0.5753	0.9784	0.185
Mof_Cu	Cu	0.07964	0.03559	0.78246	0.89
Mof_N 	N 	0.075	0.0526	0.7206	-0.234
Mof_O 	O 	0.0898	0.9722	0.7628	-0.389
Mof_C 	C 	0.0813	0.0134	0.6964	0.073
Mof_C 	C 	0.0675	0.0955	0.702	0.093
Mof_C 	C 	0.0918	0.9692	0.7211	0.259
Mof_O 	O 	0.0812	0.0128	0.6543	-0.294
Mof_C 	C 	0.0196	0.1115	0.6977	-0.044
Mof_C 	C 	0.1062	0.123	0.6871	-0.048
Mof_O 	O 	0.0979	0.9339	0.698	-0.327
Mof_Mn	Mn	0.10458	0.9466	0.62896	0.958
Mof_C 	C 	0.0105	0.155	0.6785	-0.028
Mof_C 	C 	0.9724	0.0803	0.7113	0.034
Mof_C 	C 	0.097	0.1664	0.668	-0.025
Mof_C 	C 	0.1618	0.1089	0.6904	0.077
Mof_O 	O 	0.0353	0.9236	0.6055	-0.314
Mof_O 	O 	0.114	0.8711	0.6182	-0.297
Mof_O 	O 	0.131	0.9699	0.569	-0.29
Mof_O 	O 	0.1834	0.9515	0.6393	-0.321
Mof_H 	H 	0.9784	0.1656	0.6757	0.036
Mof_C 	C 	0.0491	0.1824	0.6637	-0.051
Mof_H 	H 	0.957	0.0933	0.7372	0.004
Mof_H 	H 	0.9821	0.0482	0.7174	0.001
Mof_C 	C 	0.9345	0.0819	0.6696	-0.495
Mof_H 	H 	0.1229	0.1848	0.658	0.033
Mof_H 	H 	0.1661	0.0853	0.713	0.001
Mof_H 	H 	0.1812	0.1362	0.6982	0.001
Mof_C 	C 	0.18	0.088	0.6442	-0.567
Mof_C 	C 	0.0338	0.882	0.5955	0.123
Mof_C 	C 	0.0762	0.8498	0.5999	0.228
Mof_C 	C 	0.1781	0.9611	0.5651	0.053
Mof_C 	C 	0.2034	0.9521	0.6041	0.242
Mof_H 	H 	0.043	0.2115	0.6509	0.046
Mof_H 	H 	0.9053	0.0648	0.6768	0.161
Mof_H 	H 	0.9498	0.0678	0.6445	0.173
Mof_H 	H 	0.9263	0.114	0.6631	0.176
Mof_H 	H 	0.2137	0.0789	0.6466	0.195
Mof_H 	H 	0.177	0.1123	0.6222	0.188
Mof_H 	H 	0.1603	0.0618	0.6363	0.215
Mof_N 	N 	0.9963	0.8571	0.5802	-0.245
Mof_O 	O 	0.0761	0.8086	0.5898	-0.376
Mof_N 	N 	0.2022	0.9587	0.525	-0.229
Mof_O 	O 	0.2518	0.9437	0.5966	-0.365
Mof_C 	C 	0.9518	0.8848	0.567	0.101
Mof_Cu	Cu	0.00886	0.79085	0.57318	0.887
Mof_C 	C 	0.1768	0.9676	0.4877	0.098
Mof_Cu	Cu	0.26575	0.9329	0.53628	0.892
Mof_C 	C 	0.9399	0.8905	0.5231	-0.077
Mof_C 	C 	0.9227	0.9052	0.5991	-0.096
Mof_N 	N 	0.0224	0.7274	0.5536	-0.249
Mof_O 	O 	0.9405	0.7712	0.5661	-0.364
Mof_C 	C 	0.1926	0.0062	0.4635	-0.038
Mof_C 	C 	0.141	0.9379	0.4708	-0.05
Mof_O 	O 	0.2749	0.9172	0.474	-0.352
Mof_N 	N 	0.3363	0.9266	0.5416	-0.24
Mof_C 	C 	0.899	0.9166	0.5113	0.001
Mof_C 	C 	0.9756	0.8696	0.4867	0.123
Mof_C 	C 	0.8818	0.9313	0.5874	0.008
Mof_C 	C 	0.9303	0.8929	0.6491	0.233
Mof_C 	C 	0.9838	0.7012	0.5532	0.104
Mof_C 	C 	0.0678	0.7069	0.5405	0.118
Mof_C 	C 	0.9374	0.7272	0.5592	0.22
Mof_C 	C 	0.1726	0.0151	0.4225	-0.032
Mof_C 	C 	0.2331	0.0362	0.4828	0.003
Mof_C 	C 	0.121	0.9468	0.4298	-0.024
Mof_C 	C 	0.1232	0.8932	0.4961	0.074
Mof_H 	H 	0.891	0.9204	0.4819	0.025
Mof_C 	C 	0.8699	0.937	0.5434	-0.085
Mof_H 	H 	0.9908	0.8951	0.4706	-0.011
Mof_H 	H 	0.0013	0.8513	0.5006	-0.038
Mof_C 	C 	0.9459	0.8378	0.4549	-0.589
Mof_H 	H 	0.8623	0.9449	0.6089	0.015
Mof_H 	H 	0.9003	0.879	0.6603	-0.043
Mof_H 	H 	0.9558	0.8693	0.6515	-0.041
Mof_C 	C 	0.9436	0.9338	0.6774	-0.743
Mof_O 	O 	0.9824	0.6572	0.5473	-0.306
Mof_C 	C 	0.0798	0.7097	0.4964	-0.121
Mof_C 	C 	0.1005	0.6868	0.57	-0.086
Mof_O 	O 	0.897	0.7049	0.56	-0.299
Mof_H 	H 	0.1831	0.0409	0.4064	0.031
Mof_C 	C 	0.1368	0.9854	0.4057	-0.051
Mof_H 	H 	0.2238	0.0447	0.5124	0.022
Mof_H 	H 	0.2353	0.065	0.466	0.012
Mof_C 	C 	0.2855	0.0128	0.4843	-0.379
Mof_H 	H 	0.0971	0.927	0.4185	0.033
Mof_H 	H 	0.0901	0.8996	0.506	0.011
Mof_H 	H 	0.1434	0.8904	0.522	0.011
Mof_C 	C 	0.122	0.8434	0.4738	-0.54
Mof_H 	H 	0.8425	0.9545	0.5356	0.049
Mof_H 	H 	0.9675	0.825	0.4331	0.183
Mof_H 	H 	0.9209	0.8561	0.4409	0.197
Mof_H 	H 	0.931	0.8126	0.471	0.2
Mof_H 	H 	0.9472	0.9234	0.7071	0.246
Mof_H 	H 	0.9183	0.9571	0.6758	0.241
Mof_H 	H 	0.9739	0.9471	0.6674	0.259
Mof_Mn	Mn	0.912	0.62899	0.56438	0.928
Mof_C 	C 	0.0468	0.7305	0.4657	0.173
Mof_C 	C 	0.1245	0.6924	0.4817	0.023
Mof_C 	C 	0.0879	0.6879	0.6185	0.134
Mof_C 	C 	0.1451	0.6695	0.5553	0.01
Mof_H 	H 	0.1234	0.9913	0.3782	0.045
Mof_H 	H 	0.3088	0.0351	0.4953	0.127
Mof_H 	H 	0.2948	0.0033	0.4554	0.148
Mof_H 	H 	0.2847	0.9858	0.5032	0.068
Mof_H 	H 	0.1095	0.8206	0.494	0.187
Mof_H 	H 	0.1549	0.8347	0.4654	0.186
Mof_H 	H 	0.1017	0.8445	0.4482	0.18
Mof_O 	O 	0.9081	0.6395	0.6363	-0.316
Mof_O 	O 	0.9366	0.5613	0.591	-0.291
Mof_O 	O 	0.8985	0.6012	0.5013	-0.308
Mof_O 	O 	0.8354	0.6116	0.5676	-0.303
Mof_C 	C 	0.053	0.725	0.4156	-0.623
Mof_H 	H 	0.0465	0.764	0.4718	-0.049
Mof_H 	H 	0.0144	0.7188	0.4728	-0.029
Mof_C 	C 	0.1571	0.6723	0.5112	-0.096
Mof_H 	H 	0.1325	0.6943	0.4522	0.012
Mof_C 	C 	0.061	0.6414	0.6317	-0.605
Mof_H 	H 	0.1176	0.6913	0.6355	-0.01
Mof_H 	H 	0.0669	0.7147	0.6246	-0.018
Mof_H 	H 	0.167	0.656	0.575	0.021
Mof_C 	C 	0.9164	0.6032	0.656	0.252
Mof_C 	C 	0.9294	0.559	0.6313	0.085
Mof_C 	C 	0.8556	0.5903	0.4953	0.113
Mof_C 	C 	0.8201	0.5963	0.5315	0.205
Mof_H 	H 	0.0818	0.7414	0.4063	0.199
Mof_H 	H 	0.0247	0.7387	0.4012	0.181
Mof_H 	H 	0.0552	0.6926	0.4082	0.203
Mof_H 	H 	0.187	0.6607	0.5014	0.058
Mof_H 	H 	0.0818	0.615	0.6257	0.199
Mof_H 	H 	0.0535	0.6422	0.6624	0.2
Mof_H 	H 	0.0312	0.6386	0.6153	0.215
Mof_O 	O 	0.9135	0.5994	0.6975	-0.38
Mof_N 	N 	0.9304	0.5212	0.6562	-0.24
Mof_C 	C 	0.9416	0.4755	0.6391	0.088
Mof_C 	C 	0.8689	0.5657	0.4211	0.086
Mof_C 	C 	0.9855	0.4542	0.6506	-0.058
Mof_C 	C 	0.9097	0.453	0.6104	-0.072
Mof_C 	C 	0.8883	0.6024	0.3965	-0.048
Mof_C 	C 	0.879	0.5194	0.4097	-0.063
Mof_C 	C 	0.0254	0.4793	0.6794	0.075
Mof_C 	C 	0.9976	0.4105	0.6335	-0.016
Mof_C 	C 	0.9219	0.4092	0.5933	-0.009
Mof_C 	C 	0.8591	0.4711	0.6031	0.127
Mof_C 	C 	0.8832	0.6512	0.4083	0.079
Mof_C 	C 	0.9177	0.5927	0.3605	-0.024
Mof_C 	C 	0.8552	0.4741	0.429	0.113
Mof_C 	C 	0.9085	0.5097	0.3737	-0.019
Mof_C 	C 	0.0422	0.5213	0.6471	-0.547
Mof_H 	H 	0.0525	0.4584	0.6861	-0.009
Mof_H 	H 	0.0117	0.4914	0.7064	-0.028
Mof_C 	C 	0.9658	0.388	0.6049	-0.068
Mof_H 	H 	0.027	0.3962	0.6413	0.031
Mof_H 	H 	0.9006	0.3942	0.5741	0.016
Mof_H 	H 	0.8464	0.4577	0.5761	-0.027
Mof_H 	H 	0.8604	0.505	0.5994	-0.003
Mof_C 	C 	0.8234	0.4593	0.641	-0.602
Mof_H 	H 	0.8675	0.6691	0.3852	-0.002
Mof_C 	C 	0.939	0.6664	0.4145	-0.538
Mof_H 	H 	0.8648	0.6549	0.4352	0.006
Mof_C 	C 	0.9278	0.5464	0.3491	-0.059
Mof_H 	H 	0.9306	0.6173	0.344	0.025
Mof_C 	C 	0.8856	0.4517	0.4673	-0.593
Mof_H 	H 	0.8516	0.4511	0.4058	-0.012
Mof_H 	H 	0.8227	0.4818	0.4397	-0.027
Mof_H 	H 	0.9152	0.4787	0.366	0.037
Mof_H 	H 	0.0557	0.5082	0.6208	0.189
Mof_H 	H 	0.0666	0.5402	0.6614	0.169
Mof_H 	H 	0.0144	0.5405	0.64	0.191
Mof_H 	H 	0.9739	0.3587	0.5935	0.049
Mof_H 	H 	0.8208	0.4258	0.644	0.204
Mof_H 	H 	0.8357	0.4726	0.6677	0.204
Mof_H 	H 	0.7918	0.4724	0.6347	0.202
Mof_H 	H 	0.9406	0.6995	0.4207	0.175
Mof_H 	H 	0.953	0.6492	0.4384	0.202
Mof_H 	H 	0.9569	0.6598	0.3882	0.176
Mof_H 	H 	0.9475	0.54	0.325	0.047
Mof_H 	H 	0.9172	0.4423	0.4566	0.205
Mof_H 	H 	0.8896	0.4743	0.4903	0.206
Mof_H 	H 	0.8686	0.4247	0.4784	0.185
Mof_Cu	Cu	0.57964	0.46441	0.21754	0.89
Mof_N 	N 	0.575	0.4474	0.2794	-0.234
Mof_O 	O 	0.5898	0.5278	0.2372	-0.389
Mof_C 	C 	0.5813	0.4866	0.3036	0.073
Mof_C 	C 	0.5675	0.4045	0.298	0.093
Mof_C 	C 	0.5918	0.5308	0.2789	0.259
Mof_O 	O 	0.5812	0.4872	0.3457	-0.294
Mof_C 	C 	0.5196	0.3885	0.3023	-0.044
Mof_C 	C 	0.6062	0.377	0.3129	-0.048
Mof_O 	O 	0.5979	0.5661	0.302	-0.327
Mof_Mn	Mn	0.60458	0.5534	0.37104	0.958
Mof_C 	C 	0.5105	0.345	0.3215	-0.029
Mof_C 	C 	0.4724	0.4197	0.2887	0.034
Mof_C 	C 	0.597	0.3336	0.332	-0.026
Mof_C 	C 	0.6618	0.3911	0.3096	0.077
Mof_O 	O 	0.5353	0.5764	0.3945	-0.314
Mof_O 	O 	0.614	0.6289	0.3818	-0.297
Mof_O 	O 	0.631	0.5301	0.431	-0.29
Mof_O 	O 	0.6834	0.5485	0.3607	-0.321
Mof_H 	H 	0.4784	0.3344	0.3243	0.036
Mof_C 	C 	0.5491	0.3176	0.3363	-0.051
Mof_H 	H 	0.457	0.4067	0.2628	0.004
Mof_H 	H 	0.4821	0.4518	0.2826	0.001
Mof_C 	C 	0.4345	0.4181	0.3304	-0.495
Mof_H 	H 	0.6229	0.3152	0.342	0.033
Mof_H 	H 	0.6661	0.4147	0.287	0.001
Mof_H 	H 	0.6812	0.3638	0.3018	0.001
Mof_C 	C 	0.68	0.412	0.3558	-0.567
Mof_C 	C 	0.5338	0.618	0.4045	0.123
Mof_C 	C 	0.5762	0.6502	0.4001	0.228
Mof_C 	C 	0.6781	0.5389	0.4349	0.053
Mof_C 	C 	0.7034	0.5479	0.3959	0.242
Mof_H 	H 	0.543	0.2885	0.3491	0.046
Mof_H 	H 	0.4053	0.4352	0.3232	0.161
Mof_H 	H 	0.4498	0.4322	0.3555	0.173
Mof_H 	H 	0.4263	0.386	0.3369	0.176
Mof_H 	H 	0.7137	0.4211	0.3534	0.195
Mof_H 	H 	0.677	0.3877	0.3778	0.188
Mof_H 	H 	0.6603	0.4382	0.3637	0.215
Mof_N 	N 	0.4963	0.6429	0.4198	-0.245
Mof_O 	O 	0.5761	0.6914	0.4102	-0.376
Mof_N 	N 	0.7022	0.5413	0.475	-0.229
Mof_O 	O 	0.7518	0.5563	0.4034	-0.365
Mof_C 	C 	0.4518	0.6152	0.433	0.101
Mof_Cu	Cu	0.50886	0.70915	0.42682	0.887
Mof_C 	C 	0.6768	0.5324	0.5123	0.098
Mof_Cu	Cu	0.76575	0.5671	0.46372	0.892
Mof_C 	C 	0.4399	0.6095	0.4769	-0.077
Mof_C 	C 	0.4227	0.5948	0.4009	-0.096
Mof_N 	N 	0.5224	0.7726	0.4464	-0.249
Mof_O 	O 	0.4405	0.7288	0.4339	-0.364
Mof_C 	C 	0.6926	0.4938	0.5365	-0.038
Mof_C 	C 	0.641	0.5621	0.5292	-0.05
Mof_O 	O 	0.7749	0.5828	0.526	-0.352
Mof_N 	N 	0.8363	0.5734	0.4584	-0.24
Mof_C 	C 	0.399	0.5834	0.4887	0.001
Mof_C 	C 	0.4756	0.6304	0.5133	0.123
Mof_C 	C 	0.3818	0.5687	0.4126	0.008
Mof_C 	C 	0.4303	0.6071	0.3509	0.233
Mof_C 	C 	0.4838	0.7988	0.4468	0.104
Mof_C 	C 	0.5678	0.7931	0.4595	0.118
Mof_C 	C 	0.4374	0.7728	0.4408	0.22
Mof_C 	C 	0.6726	0.4849	0.5775	-0.032
Mof_C 	C 	0.7331	0.4638	0.5172	0.003
Mof_C 	C 	0.621	0.5532	0.5702	-0.024
Mof_C 	C 	0.6232	0.6068	0.5039	0.074
Mof_H 	H 	0.391	0.5796	0.5181	0.025
Mof_C 	C 	0.3699	0.563	0.4566	-0.085
Mof_H 	H 	0.4908	0.6049	0.5294	-0.011
Mof_H 	H 	0.5013	0.6487	0.4994	-0.038
Mof_C 	C 	0.4459	0.6622	0.5451	-0.589
Mof_H 	H 	0.3623	0.5551	0.3911	0.015
Mof_H 	H 	0.4003	0.621	0.3397	-0.043
Mof_H 	H 	0.4558	0.6307	0.3485	-0.041
Mof_C 	C 	0.4436	0.5662	0.3226	-0.743
Mof_O 	O 	0.4824	0.8428	0.4527	-0.306
Mof_C 	C 	0.5798	0.7903	0.5036	-0.121
Mof_C 	C 	0.6005	0.8132	0.43	-0.086
Mof_O 	O 	0.397	0.7951	0.44	-0.299
Mof_H 	H 	0.6831	0.4591	0.5936	0.031
Mof_C 	C 	0.6368	0.5146	0.5943	-0.051
Mof_H 	H 	0.7238	0.4553	0.4876	0.022
Mof_H 	H 	0.7353	0.435	0.534	0.012
Mof_C 	C 	0.7855	0.4872	0.5157	-0.379
Mof_H 	H 	0.5971	0.573	0.5815	0.033
Mof_H 	H 	0.5901	0.6004	0.494	0.011
Mof_H 	H 	0.6434	0.6096	0.478	0.011
Mof_C 	C 	0.622	0.6566	0.5262	-0.54
Mof_H 	H 	0.3425	0.5455	0.4644	0.049
Mof_H 	H 	0.4675	0.675	0.5669	0.183
Mof_H 	H 	0.4209	0.6439	0.5591	0.197
Mof_H 	H 	0.431	0.6874	0.529	0.2
Mof_H 	H 	0.4472	0.5766	0.2929	0.246
Mof_H 	H 	0.4183	0.5429	0.3242	0.241
Mof_H 	H 	0.4739	0.5529	0.3326	0.259
Mof_Mn	Mn	0.412	0.87101	0.43562	0.928
Mof_C 	C 	0.5468	0.7695	0.5343	0.174
Mof_C 	C 	0.6245	0.8076	0.5183	0.023
Mof_C 	C 	0.5879	0.8121	0.3815	0.134
Mof_C 	C 	0.6451	0.8305	0.4447	0.01
Mof_H 	H 	0.6234	0.5087	0.6218	0.045
Mof_H 	H 	0.8088	0.4649	0.5047	0.127
Mof_H 	H 	0.7948	0.4967	0.5446	0.148
Mof_H 	H 	0.7847	0.5142	0.4968	0.068
Mof_H 	H 	0.6095	0.6794	0.506	0.187
Mof_H 	H 	0.6549	0.6653	0.5346	0.186
Mof_H 	H 	0.6017	0.6555	0.5518	0.18
Mof_O 	O 	0.4081	0.8605	0.3637	-0.316
Mof_O 	O 	0.4366	0.9387	0.409	-0.291
Mof_O 	O 	0.3985	0.8988	0.4987	-0.308
Mof_O 	O 	0.3354	0.8884	0.4324	-0.303
Mof_C 	C 	0.553	0.775	0.5844	-0.623
Mof_H 	H 	0.5465	0.736	0.5282	-0.049
Mof_H 	H 	0.5144	0.7812	0.5272	-0.029
Mof_C 	C 	0.6571	0.8277	0.4888	-0.096
Mof_H 	H 	0.6325	0.8057	0.5478	0.012
Mof_C 	C 	0.561	0.8586	0.3683	-0.605
Mof_H 	H 	0.6176	0.8087	0.3645	-0.01
Mof_H 	H 	0.5669	0.7853	0.3754	-0.018
Mof_H 	H 	0.667	0.844	0.425	0.021
Mof_C 	C 	0.4164	0.8968	0.344	0.252
Mof_C 	C 	0.4294	0.941	0.3687	0.085
Mof_C 	C 	0.3556	0.9097	0.5047	0.113
Mof_C 	C 	0.3201	0.9037	0.4685	0.205
Mof_H 	H 	0.5818	0.7586	0.5937	0.199
Mof_H 	H 	0.5247	0.7613	0.5988	0.181
Mof_H 	H 	0.5552	0.8074	0.5918	0.203
Mof_H 	H 	0.687	0.8393	0.4986	0.058
Mof_H 	H 	0.5818	0.885	0.3743	0.199
Mof_H 	H 	0.5535	0.8578	0.3376	0.2
Mof_H 	H 	0.5312	0.8614	0.3847	0.215
Mof_O 	O 	0.4135	0.9006	0.3025	-0.38
Mof_N 	N 	0.4304	0.9788	0.3438	-0.24
Mof_C 	C 	0.4416	0.0245	0.3609	0.088
Mof_C 	C 	0.3689	0.9343	0.5789	0.086
Mof_C 	C 	0.4855	0.0458	0.3494	-0.058
Mof_C 	C 	0.4097	0.047	0.3896	-0.072
Mof_C 	C 	0.3883	0.8976	0.6035	-0.048
Mof_C 	C 	0.379	0.9806	0.5903	-0.063
Mof_C 	C 	0.5254	0.0207	0.3206	0.075
Mof_C 	C 	0.4976	0.0895	0.3665	-0.016
Mof_C 	C 	0.4219	0.0908	0.4067	-0.009
Mof_C 	C 	0.3591	0.0289	0.3969	0.127
Mof_C 	C 	0.3832	0.8488	0.5917	0.079
Mof_C 	C 	0.4177	0.9073	0.6395	-0.024
Mof_C 	C 	0.3552	0.0259	0.571	0.113
Mof_C 	C 	0.4085	0.9903	0.6263	-0.019
Mof_C 	C 	0.5422	0.9787	0.3529	-0.547
Mof_H 	H 	0.5525	0.0416	0.3139	-0.009
Mof_H 	H 	0.5117	0.0086	0.2936	-0.028
Mof_C 	C 	0.4658	0.112	0.3951	-0.068
Mof_H 	H 	0.527	0.1038	0.3587	0.031
Mof_H 	H 	0.4006	0.1058	0.4259	0.016
Mof_H 	H 	0.3464	0.0423	0.4239	-0.027
Mof_H 	H 	0.3604	0.995	0.4006	-0.003
Mof_C 	C 	0.3234	0.0407	0.359	-0.602
Mof_H 	H 	0.3675	0.8309	0.6148	-0.002
Mof_C 	C 	0.439	0.8336	0.5855	-0.538
Mof_H 	H 	0.3648	0.8451	0.5648	0.006
Mof_C 	C 	0.4278	0.9536	0.6509	-0.059
Mof_H 	H 	0.4306	0.8827	0.656	0.025
Mof_C 	C 	0.3856	0.0483	0.5327	-0.593
Mof_H 	H 	0.3516	0.0489	0.5942	-0.012
Mof_H 	H 	0.3227	0.0182	0.5603	-0.027
Mof_H 	H 	0.4152	0.0213	0.634	0.037
Mof_H 	H 	0.5557	0.9918	0.3792	0.189
Mof_H 	H 	0.5666	0.9598	0.3386	0.169
Mof_H 	H 	0.5144	0.9595	0.36	0.191
Mof_H 	H 	0.4739	0.1413	0.4065	0.049
Mof_H 	H 	0.3208	0.0742	0.356	0.204
Mof_H 	H 	0.3357	0.0274	0.3323	0.204
Mof_H 	H 	0.2918	0.0276	0.3653	0.202
Mof_H 	H 	0.4406	0.8005	0.5793	0.175
Mof_H 	H 	0.453	0.8508	0.5616	0.202
Mof_H 	H 	0.4569	0.8402	0.6118	0.176
Mof_H 	H 	0.4475	0.96	0.675	0.047
Mof_H 	H 	0.4172	0.0577	0.5434	0.205
Mof_H 	H 	0.3896	0.0257	0.5097	0.206
Mof_H 	H 	0.3686	0.0753	0.5216	0.185
Mof_Cu	Cu	0.92036	0.53559	0.71754	0.89
Mof_N 	N 	0.925	0.5526	0.7794	-0.234
Mof_O 	O 	0.9102	0.4722	0.7372	-0.389
Mof_C 	C 	0.9187	0.5134	0.8036	0.073
Mof_C 	C 	0.9325	0.5955	0.798	0.093
Mof_C 	C 	0.9082	0.4692	0.7789	0.259
Mof_O 	O 	0.9188	0.5128	0.8457	-0.294
Mof_C 	C 	0.9804	0.6115	0.8023	-0.044
Mof_C 	C 	0.8938	0.623	0.8129	-0.048
Mof_O 	O 	0.9021	0.4339	0.802	-0.327
Mof_Mn	Mn	0.89542	0.4466	0.87104	0.958
Mof_C 	C 	0.9895	0.655	0.8215	-0.029
Mof_C 	C 	0.0276	0.5803	0.7887	0.034
Mof_C 	C 	0.903	0.6664	0.832	-0.026
Mof_C 	C 	0.8382	0.6089	0.8096	0.077
Mof_O 	O 	0.9647	0.4236	0.8945	-0.314
Mof_O 	O 	0.886	0.3711	0.8818	-0.297
Mof_O 	O 	0.869	0.4699	0.931	-0.29
Mof_O 	O 	0.8166	0.4515	0.8607	-0.321
Mof_H 	H 	0.0216	0.6656	0.8243	0.037
Mof_C 	C 	0.9509	0.6824	0.8363	-0.051
Mof_H 	H 	0.043	0.5933	0.7628	0.004
Mof_H 	H 	0.0179	0.5482	0.7826	0.001
Mof_C 	C 	0.0655	0.5819	0.8304	-0.496
Mof_H 	H 	0.8771	0.6848	0.842	0.033
Mof_H 	H 	0.8339	0.5853	0.787	0.001
Mof_H 	H 	0.8188	0.6362	0.8018	0.001
Mof_C 	C 	0.82	0.588	0.8558	-0.567
Mof_C 	C 	0.9662	0.382	0.9045	0.123
Mof_C 	C 	0.9238	0.3498	0.9001	0.228
Mof_C 	C 	0.8219	0.4611	0.9349	0.053
Mof_C 	C 	0.7966	0.4521	0.8959	0.242
Mof_H 	H 	0.957	0.7115	0.8491	0.046
Mof_H 	H 	0.0947	0.5648	0.8232	0.161
Mof_H 	H 	0.0502	0.5678	0.8555	0.174
Mof_H 	H 	0.0737	0.614	0.8369	0.176
Mof_H 	H 	0.7863	0.5789	0.8534	0.195
Mof_H 	H 	0.823	0.6123	0.8778	0.188
Mof_H 	H 	0.8397	0.5618	0.8637	0.215
Mof_N 	N 	0.0037	0.3571	0.9198	-0.245
Mof_O 	O 	0.9239	0.3086	0.9102	-0.376
Mof_N 	N 	0.7978	0.4587	0.975	-0.229
Mof_O 	O 	0.7482	0.4437	0.9034	-0.365
Mof_C 	C 	0.0482	0.3848	0.933	0.101
Mof_Cu	Cu	0.99114	0.29085	0.92682	0.887
Mof_C 	C 	0.8232	0.4676	0.0123	0.099
Mof_Cu	Cu	0.73425	0.4329	0.96372	0.892
Mof_C 	C 	0.0601	0.3905	0.9769	-0.077
Mof_C 	C 	0.0773	0.4052	0.9009	-0.096
Mof_N 	N 	0.9776	0.2274	0.9464	-0.249
Mof_O 	O 	0.0595	0.2712	0.9339	-0.364
Mof_C 	C 	0.8074	0.5062	0.0365	-0.038
Mof_C 	C 	0.859	0.4379	0.0292	-0.052
Mof_O 	O 	0.7251	0.4172	0.026	-0.352
Mof_N 	N 	0.6637	0.4266	0.9584	-0.24
Mof_C 	C 	0.101	0.4166	0.9887	0.001
Mof_C 	C 	0.0244	0.3696	0.0133	0.122
Mof_C 	C 	0.1182	0.4313	0.9126	0.008
Mof_C 	C 	0.0697	0.3929	0.8509	0.233
Mof_C 	C 	0.0162	0.2012	0.9468	0.104
Mof_C 	C 	0.9322	0.2069	0.9595	0.117
Mof_C 	C 	0.0626	0.2272	0.9408	0.22
Mof_C 	C 	0.8274	0.5151	0.0775	-0.031
Mof_C 	C 	0.7669	0.5362	0.0172	0.004
Mof_C 	C 	0.879	0.4468	0.0702	-0.023
Mof_C 	C 	0.8768	0.3932	0.0039	0.077
Mof_H 	H 	0.109	0.4204	0.0181	0.025
Mof_C 	C 	0.1301	0.437	0.9566	-0.085
Mof_H 	H 	0.0092	0.3951	0.0294	-0.011
Mof_H 	H 	0.9987	0.3513	0.9994	-0.038
Mof_C 	C 	0.0541	0.3378	0.0451	-0.589
Mof_H 	H 	0.1377	0.4449	0.8911	0.014
Mof_H 	H 	0.0997	0.379	0.8397	-0.043
Mof_H 	H 	0.0442	0.3693	0.8485	-0.041
Mof_C 	C 	0.0564	0.4338	0.8226	-0.743
Mof_O 	O 	0.0176	0.1572	0.9527	-0.306
Mof_C 	C 	0.9202	0.2097	0.0036	-0.121
Mof_C 	C 	0.8995	0.1868	0.93	-0.086
Mof_O 	O 	0.103	0.2049	0.94	-0.299
Mof_H 	H 	0.8169	0.5409	0.0936	0.031
Mof_C 	C 	0.8632	0.4854	0.0943	-0.052
Mof_H 	H 	0.7762	0.5447	0.9876	0.021
Mof_H 	H 	0.7647	0.565	0.034	0.012
Mof_C 	C 	0.7145	0.5128	0.0157	-0.379
Mof_H 	H 	0.9029	0.427	0.0815	0.033
Mof_H 	H 	0.9099	0.3996	0.994	0.01
Mof_H 	H 	0.8566	0.3904	0.978	0.01
Mof_C 	C 	0.878	0.3434	0.0262	-0.543
Mof_H 	H 	0.1575	0.4545	0.9644	0.049
Mof_H 	H 	0.0325	0.325	0.0669	0.183
Mof_H 	H 	0.0791	0.3561	0.0591	0.197
Mof_H 	H 	0.069	0.3126	0.029	0.199
Mof_H 	H 	0.0528	0.4234	0.7929	0.246
Mof_H 	H 	0.0817	0.4571	0.8242	0.241
Mof_H 	H 	0.0261	0.4471	0.8326	0.259
Mof_Mn	Mn	0.088	0.12899	0.93562	0.929
Mof_C 	C 	0.9532	0.2305	0.0343	0.173
Mof_C 	C 	0.8755	0.1924	0.0183	0.023
Mof_C 	C 	0.9121	0.1879	0.8815	0.134
Mof_C 	C 	0.8549	0.1695	0.9447	0.01
Mof_H 	H 	0.8766	0.4913	0.1218	0.045
Mof_H 	H 	0.6912	0.5351	0.0047	0.127
Mof_H 	H 	0.7052	0.5033	0.0446	0.148
Mof_H 	H 	0.7153	0.4858	0.9968	0.068
Mof_H 	H 	0.8905	0.3206	0.006	0.188
Mof_H 	H 	0.8451	0.3347	0.0346	0.187
Mof_H 	H 	0.8983	0.3445	0.0518	0.181
Mof_O 	O 	0.0919	0.1395	0.8637	-0.316
Mof_O 	O 	0.0634	0.0613	0.909	-0.291
Mof_O 	O 	0.1015	0.1012	0.9987	-0.308
Mof_O 	O 	0.1646	0.1116	0.9324	-0.303
Mof_C 	C 	0.947	0.225	0.0844	-0.623
Mof_H 	H 	0.9535	0.264	0.0282	-0.048
Mof_H 	H 	0.9856	0.2188	0.0272	-0.029
Mof_C 	C 	0.8429	0.1723	0.9888	-0.096
Mof_H 	H 	0.8675	0.1943	0.0478	0.012
Mof_C 	C 	0.939	0.1414	0.8683	-0.605
Mof_H 	H 	0.8824	0.1913	0.8645	-0.01
Mof_H 	H 	0.9331	0.2147	0.8754	-0.018
Mof_H 	H 	0.833	0.156	0.925	0.021
Mof_C 	C 	0.0836	0.1032	0.844	0.252
Mof_C 	C 	0.0706	0.059	0.8687	0.085
Mof_C 	C 	0.1444	0.0903	0.0047	0.113
Mof_C 	C 	0.1799	0.0963	0.9685	0.205
Mof_H 	H 	0.9182	0.2414	0.0937	0.199
Mof_H 	H 	0.9753	0.2387	0.0988	0.182
Mof_H 	H 	0.9448	0.1926	0.0918	0.203
Mof_H 	H 	0.813	0.1607	0.9986	0.058
Mof_H 	H 	0.9182	0.115	0.8743	0.199
Mof_H 	H 	0.9465	0.1422	0.8376	0.2
Mof_H 	H 	0.9688	0.1386	0.8847	0.215
Mof_O 	O 	0.0865	0.0994	0.8025	-0.38
Mof_N 	N 	0.0696	0.0212	0.8438	-0.241
Mof_C 	C 	0.0584	0.9755	0.8609	0.088
Mof_C 	C 	0.1311	0.0657	0.0789	0.086
Mof_C 	C 	0.0145	0.9542	0.8494	-0.058
Mof_C 	C 	0.0903	0.953	0.8896	-0.072
Mof_C 	C 	0.1117	0.1024	0.1035	-0.048
Mof_C 	C 	0.121	0.0194	0.0903	-0.063
Mof_C 	C 	0.9746	0.9793	0.8206	0.075
Mof_C 	C 	0.0024	0.9105	0.8665	-0.015
Mof_C 	C 	0.0781	0.9092	0.9067	-0.009
Mof_C 	C 	0.1409	0.9711	0.8969	0.128
Mof_C 	C 	0.1168	0.1512	0.0917	0.079
Mof_C 	C 	0.0823	0.0927	0.1395	-0.024
Mof_C 	C 	0.1448	0.9741	0.071	0.112
Mof_C 	C 	0.0915	0.0097	0.1263	-0.019
Mof_C 	C 	0.9578	0.0213	0.8529	-0.548
Mof_H 	H 	0.9475	0.9584	0.8139	-0.009
Mof_H 	H 	0.9883	0.9914	0.7936	-0.028
Mof_C 	C 	0.0342	0.888	0.8951	-0.069
Mof_H 	H 	0.973	0.8962	0.8587	0.03
Mof_H 	H 	0.0994	0.8942	0.9259	0.015
Mof_H 	H 	0.1536	0.9577	0.9239	-0.028
Mof_H 	H 	0.1396	0.005	0.9006	-0.003
Mof_C 	C 	0.1766	0.9593	0.859	-0.603
Mof_H 	H 	0.1325	0.1691	0.1148	-0.002
Mof_C 	C 	0.061	0.1664	0.0855	-0.538
Mof_H 	H 	0.1352	0.1549	0.0648	0.006
Mof_C 	C 	0.0722	0.0464	0.1509	-0.059
Mof_H 	H 	0.0694	0.1173	0.156	0.025
Mof_C 	C 	0.1144	0.9517	0.0327	-0.592
Mof_H 	H 	0.1484	0.9511	0.0942	-0.012
Mof_H 	H 	0.1773	0.9818	0.0603	-0.027
Mof_H 	H 	0.0848	0.9787	0.134	0.037
Mof_H 	H 	0.9443	0.0082	0.8792	0.188
Mof_H 	H 	0.9334	0.0402	0.8386	0.169
Mof_H 	H 	0.9856	0.0405	0.86	0.191
Mof_H 	H 	0.0261	0.8587	0.9065	0.05
Mof_H 	H 	0.1792	0.9258	0.856	0.204
Mof_H 	H 	0.1643	0.9726	0.8323	0.204
Mof_H 	H 	0.2082	0.9724	0.8653	0.203
Mof_H 	H 	0.0594	0.1995	0.0793	0.174
Mof_H 	H 	0.047	0.1492	0.0616	0.201
Mof_H 	H 	0.0431	0.1598	0.1118	0.176
Mof_H 	H 	0.0525	0.04	0.175	0.047
Mof_H 	H 	0.0828	0.9423	0.0434	0.205
Mof_H 	H 	0.1104	0.9743	0.0097	0.206
Mof_H 	H 	0.1314	0.9247	0.0216	0.185
Mof_Mn	Mn	0.66769	0.85462	0.83716	0.911
Mof_Mn	Mn	0.82438	0.82745	0.15538	0.929
Mof_Cu	Cu	0.68414	0.01372	0.7468	0.883
Mof_Cu	Cu	0.74433	0.81463	0.9963	0.896
Mof_Cu	Cu	0.99767	0.73849	0.16389	0.888
Mof_C 	C 	0.6831	0.952	0.8095	0.239
Mof_C 	C 	0.6916	0.9222	0.7719	0.081
Mof_C 	C 	0.7447	0.9196	0.6742	-0.03
Mof_C 	C 	0.6985	0.9231	0.6929	0.063
Mof_C 	C 	0.658	0.9046	0.6713	-0.027
Mof_C 	C 	0.6638	0.8827	0.631	-0.042
Mof_H 	H 	0.6367	0.8704	0.6165	0.035
Mof_C 	C 	0.71	0.8793	0.6122	-0.037
Mof_H 	H 	0.7139	0.8646	0.5853	0.039
Mof_C 	C 	0.7505	0.8977	0.6339	-0.043
Mof_H 	H 	0.7814	0.8954	0.6213	0.046
Mof_C 	C 	0.6036	0.909	0.6899	0.054
Mof_H 	H 	0.6037	0.9232	0.7187	0.01
Mof_H 	H 	0.5836	0.9281	0.6706	0.009
Mof_C 	C 	0.7908	0.9399	0.6988	0.053
Mof_H 	H 	0.7872	0.936	0.7301	0.004
Mof_H 	H 	0.8202	0.9235	0.6895	0.007
Mof_C 	C 	0.795	0.9933	0.687	-0.512
Mof_H 	H 	0.8223	0.0068	0.7019	0.164
Mof_H 	H 	0.7653	0.0091	0.696	0.163
Mof_H 	H 	0.7988	0.9967	0.656	0.18
Mof_C 	C 	0.5832	0.8575	0.692	-0.499
Mof_H 	H 	0.5525	0.8574	0.7075	0.161
Mof_H 	H 	0.6062	0.8379	0.7075	0.173
Mof_H 	H 	0.5785	0.8456	0.6631	0.16
Mof_C 	C 	0.5622	0.8296	0.8296	0.325
Mof_C 	C 	0.5912	0.7876	0.824	0.033
Mof_C 	C 	0.5497	0.6967	0.7472	0.112
Mof_H 	H 	0.5445	0.6692	0.7291	-0.014
Mof_H 	H 	0.5182	0.7055	0.7595	-0.026
Mof_C 	C 	0.5889	0.7066	0.8257	0.128
Mof_C 	C 	0.6172	0.6881	0.8594	-0.085
Mof_C 	C 	0.6415	0.6456	0.8535	0.003
Mof_H 	H 	0.6604	0.6332	0.8761	0.016
Mof_C 	C 	0.6377	0.6217	0.814	-0.083
Mof_H 	H 	0.654	0.5933	0.8101	0.054
Mof_C 	C 	0.6095	0.6402	0.7803	0.002
Mof_H 	H 	0.6069	0.6242	0.7539	0.026
Mof_C 	C 	0.5851	0.6827	0.7861	-0.08
Mof_C 	C 	0.568	0.7379	0.7172	-0.578
Mof_H 	H 	0.5434	0.7444	0.6954	0.173
Mof_H 	H 	0.5978	0.729	0.7032	0.196
Mof_H 	H 	0.5731	0.7655	0.7347	0.19
Mof_C 	C 	0.6218	0.7176	0.9026	0.109
Mof_H 	H 	0.6373	0.7473	0.8952	0.005
Mof_H 	H 	0.5889	0.7249	0.9126	-0.011
Mof_C 	C 	0.65	0.6964	0.9417	-0.563
Mof_H 	H 	0.6504	0.7186	0.9655	0.192
Mof_H 	H 	0.683	0.6895	0.933	0.18
Mof_H 	H 	0.6342	0.668	0.9511	0.185
Mof_C 	C 	0.6837	0.8339	0.9283	0.186
Mof_C 	C 	0.7327	0.8266	0.9088	0.09
Mof_C 	C 	0.8184	0.8084	0.9262	0.095
Mof_C 	C 	0.8488	0.8473	0.9219	-0.062
Mof_C 	C 	0.8988	0.8412	0.9158	-0.011
Mof_H 	H 	0.9192	0.8673	0.9129	0.031
Mof_C 	C 	0.9185	0.7961	0.9141	-0.066
Mof_H 	H 	0.952	0.7921	0.91	0.049
Mof_C 	C 	0.8881	0.7572	0.9184	-0.01
Mof_H 	H 	0.9012	0.7271	0.9173	0.031
Mof_C 	C 	0.8381	0.7633	0.9245	-0.072
Mof_C 	C 	0.8028	0.7216	0.9389	0.124
Mof_H 	H 	0.8217	0.6953	0.95	-0.019
Mof_H 	H 	0.7806	0.7321	0.9617	-0.046
Mof_C 	C 	0.8265	0.8977	0.9242	0.119
Mof_H 	H 	0.8513	0.9193	0.9347	-0.009
Mof_H 	H 	0.7999	0.8977	0.9452	-0.012
Mof_C 	C 	0.7732	0.7065	0.897	-0.598
Mof_H 	H 	0.752	0.6807	0.9041	0.188
Mof_H 	H 	0.7956	0.6971	0.8744	0.204
Mof_H 	H 	0.7539	0.7326	0.8868	0.212
Mof_C 	C 	0.807	0.9159	0.8789	-0.597
Mof_H 	H 	0.7944	0.9473	0.8823	0.198
Mof_H 	H 	0.781	0.8956	0.8689	0.221
Mof_H 	H 	0.8329	0.9159	0.8579	0.202
Mof_C 	C 	0.8078	0.8158	0.0645	0.234
Mof_C 	C 	0.7577	0.8097	0.0847	0.11
Mof_C 	C 	0.673	0.7968	0.0689	0.092
Mof_C 	C 	0.6386	0.8327	0.0761	-0.076
Mof_C 	C 	0.59	0.8192	0.0846	0.005
Mof_C 	C 	0.5787	0.7695	0.0814	-0.025
Mof_C 	C 	0.6074	0.7351	0.0692	0.007
Mof_C 	C 	0.6555	0.7485	0.0655	-0.079
Mof_C 	C 	0.6585	0.882	0.0713	0.114
Mof_H 	H 	0.6916	0.8789	0.0603	-0.01
Mof_H 	H 	0.6612	0.8948	0.1007	-0.008
Mof_C 	C 	0.6956	0.7128	0.0558	0.102
Mof_H 	H 	0.7256	0.7254	0.0681	-0.013
Mof_H 	H 	0.6999	0.7126	0.0242	-0.031
Mof_C 	C 	0.692	0.6593	0.071	-0.575
Mof_H 	H 	0.7224	0.6436	0.0632	0.176
Mof_H 	H 	0.6656	0.6443	0.056	0.191
Mof_H 	H 	0.6876	0.6578	0.1017	0.2
Mof_C 	C 	0.633	0.9214	0.042	-0.609
Mof_H 	H 	0.651	0.9501	0.0442	0.207
Mof_H 	H 	0.6	0.9267	0.0531	0.202
Mof_H 	H 	0.6313	0.9112	0.0125	0.226
Mof_C 	C 	0.8122	0.9233	0.1811	0.215
Mof_C 	C 	0.8005	0.8961	0.221	0.099
Mof_C 	C 	0.7887	0.8978	0.2961	0.102
Mof_C 	C 	0.8227	0.868	0.3156	-0.067
Mof_C 	C 	0.8101	0.8429	0.3529	-0.007
Mof_H 	H 	0.8328	0.8229	0.3659	0.024
Mof_C 	C 	0.7635	0.8475	0.3708	-0.072
Mof_H 	H 	0.7551	0.8307	0.3957	0.052
Mof_C 	C 	0.7296	0.8773	0.3513	-0.006
Mof_H 	H 	0.6984	0.8804	0.3632	0.025
Mof_C 	C 	0.7422	0.9025	0.3139	-0.07
Mof_C 	C 	0.7028	0.934	0.2946	0.084
Mof_H 	H 	0.6745	0.9147	0.2879	-0.004
Mof_H 	H 	0.7149	0.9467	0.2673	-0.02
Mof_C 	C 	0.8751	0.8648	0.2985	0.098
Mof_H 	H 	0.8872	0.8969	0.2983	-0.007
Mof_H 	H 	0.8721	0.8557	0.268	0.012
Mof_C 	C 	0.9176	0.835	0.3166	-0.547
Mof_H 	H 	0.9466	0.8404	0.2996	0.183
Mof_H 	H 	0.9091	0.8021	0.3151	0.177
Mof_H 	H 	0.9237	0.8434	0.3465	0.176
Mof_C 	C 	0.685	0.977	0.325	-0.555
Mof_H 	H 	0.6606	0.9949	0.3094	0.174
Mof_H 	H 	0.7125	0.9969	0.3314	0.187
Mof_H 	H 	0.6713	0.965	0.3514	0.184
Mof_C 	C 	0.9266	0.8066	0.168	0.2
Mof_C 	C 	0.8974	0.7638	0.1706	0.105
Mof_C 	C 	0.9041	0.6772	0.1758	0.049
Mof_C 	C 	0.8805	0.661	0.1385	-0.016
Mof_C 	C 	0.8563	0.618	0.1391	-0.054
Mof_H 	H 	0.8405	0.6072	0.1141	0.041
Mof_C 	C 	0.8557	0.5912	0.1772	-0.026
Mof_H 	H 	0.8395	0.5625	0.1776	0.033
Mof_C 	C 	0.8793	0.6074	0.2145	-0.055
Mof_H 	H 	0.8788	0.5895	0.24	0.049
Mof_C 	C 	0.9035	0.6504	0.2139	-0.014
Mof_C 	C 	0.8674	0.688	0.0942	0.04
Mof_H 	H 	0.8788	0.6699	0.0693	0.014
Mof_H 	H 	0.8834	0.7184	0.0937	0.018
Mof_C 	C 	0.898	0.6814	0.2585	0.02
Mof_H 	H 	0.8732	0.7053	0.2537	0.033
Mof_H 	H 	0.8862	0.661	0.2816	0.02
Mof_C 	C 	0.8094	0.695	0.092	-0.504
Mof_H 	H 	0.8013	0.7133	0.0664	0.169
Mof_H 	H 	0.798	0.7103	0.1175	0.194
Mof_H 	H 	0.7939	0.6645	0.0893	0.165
Mof_C 	C 	0.946	0.706	0.2745	-0.461
Mof_H 	H 	0.9385	0.7248	0.2997	0.144
Mof_H 	H 	0.9583	0.7255	0.2515	0.145
Mof_H 	H 	0.9695	0.6824	0.282	0.149
Mof_N 	N 	0.6907	0.9469	0.7358	-0.233
Mof_N 	N 	0.5667	0.7471	0.8259	-0.238
Mof_N 	N 	0.769	0.8174	0.9387	-0.24
Mof_N 	N 	0.7223	0.8064	0.0551	-0.248
Mof_N 	N 	0.8007	0.9193	0.2565	-0.244
Mof_N 	N 	0.9306	0.7258	0.174	-0.234
Mof_O 	O 	0.684	0.9943	0.8084	-0.384
Mof_O 	O 	0.6778	0.9303	0.8471	-0.304
Mof_O 	O 	0.692	0.8767	0.7757	-0.297
Mof_O 	O 	0.521	0.8273	0.8347	-0.418
Mof_O 	O 	0.5851	0.8683	0.8287	-0.311
Mof_O 	O 	0.6385	0.7864	0.819	-0.271
Mof_O 	O 	0.7373	0.831	0.8676	-0.298
Mof_O 	O 	0.6442	0.8485	0.9045	-0.285
Mof_O 	O 	0.6812	0.8251	0.9698	-0.363
Mof_O 	O 	0.8076	0.8196	0.0211	-0.367
Mof_O 	O 	0.8422	0.8266	0.0864	-0.317
Mof_O 	O 	0.7546	0.8075	0.1245	-0.296
Mof_O 	O 	0.798	0.8507	0.2183	-0.286
Mof_O 	O 	0.8161	0.903	0.1453	-0.297
Mof_O 	O 	0.8159	0.9691	0.1846	-0.36
Mof_O 	O 	0.853	0.7614	0.1747	-0.306
Mof_O 	O 	0.9028	0.8449	0.1662	-0.288
Mof_O 	O 	0.9754	0.8033	0.1667	-0.353
Mof_Mn	Mn	0.83231	0.14538	0.33716	0.911
Mof_Mn	Mn	0.67562	0.17255	0.65538	0.929
Mof_Cu	Cu	0.81586	0.98628	0.2468	0.883
Mof_Cu	Cu	0.75567	0.18537	0.4963	0.897
Mof_Cu	Cu	0.50233	0.26151	0.66389	0.888
Mof_C 	C 	0.8169	0.048	0.3095	0.239
Mof_C 	C 	0.8084	0.0778	0.2719	0.081
Mof_C 	C 	0.7553	0.0804	0.1742	-0.03
Mof_C 	C 	0.8015	0.0769	0.1929	0.063
Mof_C 	C 	0.842	0.0954	0.1713	-0.027
Mof_C 	C 	0.8362	0.1173	0.131	-0.042
Mof_H 	H 	0.8633	0.1296	0.1165	0.035
Mof_C 	C 	0.79	0.1207	0.1122	-0.037
Mof_H 	H 	0.7861	0.1354	0.0853	0.039
Mof_C 	C 	0.7495	0.1023	0.1339	-0.043
Mof_H 	H 	0.7186	0.1046	0.1213	0.046
Mof_C 	C 	0.8964	0.091	0.1899	0.054
Mof_H 	H 	0.8963	0.0768	0.2187	0.01
Mof_H 	H 	0.9164	0.0719	0.1706	0.009
Mof_C 	C 	0.7092	0.0601	0.1988	0.052
Mof_H 	H 	0.7128	0.064	0.2301	0.004
Mof_H 	H 	0.6798	0.0765	0.1895	0.007
Mof_C 	C 	0.705	0.0067	0.187	-0.512
Mof_H 	H 	0.6777	0.9932	0.2019	0.164
Mof_H 	H 	0.7347	0.9909	0.196	0.162
Mof_H 	H 	0.7012	0.0033	0.156	0.18
Mof_C 	C 	0.9168	0.1425	0.192	-0.499
Mof_H 	H 	0.9475	0.1426	0.2075	0.162
Mof_H 	H 	0.8938	0.1621	0.2075	0.173
Mof_H 	H 	0.9215	0.1544	0.1631	0.16
Mof_C 	C 	0.9378	0.1704	0.3296	0.324
Mof_C 	C 	0.9088	0.2124	0.324	0.033
Mof_C 	C 	0.9503	0.3033	0.2472	0.112
Mof_H 	H 	0.9555	0.3308	0.2291	-0.014
Mof_H 	H 	0.9818	0.2945	0.2595	-0.026
Mof_C 	C 	0.9111	0.2934	0.3257	0.128
Mof_C 	C 	0.8828	0.3119	0.3594	-0.085
Mof_C 	C 	0.8585	0.3544	0.3535	0.003
Mof_H 	H 	0.8396	0.3668	0.3761	0.016
Mof_C 	C 	0.8623	0.3783	0.314	-0.083
Mof_H 	H 	0.846	0.4067	0.3101	0.054
Mof_C 	C 	0.8905	0.3598	0.2803	0.002
Mof_H 	H 	0.8931	0.3758	0.2539	0.026
Mof_C 	C 	0.9149	0.3173	0.2861	-0.08
Mof_C 	C 	0.932	0.2621	0.2172	-0.578
Mof_H 	H 	0.9566	0.2556	0.1954	0.173
Mof_H 	H 	0.9022	0.271	0.2032	0.196
Mof_H 	H 	0.9269	0.2345	0.2347	0.19
Mof_C 	C 	0.8782	0.2824	0.4026	0.109
Mof_H 	H 	0.8627	0.2527	0.3952	0.005
Mof_H 	H 	0.9111	0.2751	0.4126	-0.01
Mof_C 	C 	0.85	0.3036	0.4417	-0.563
Mof_H 	H 	0.8496	0.2814	0.4655	0.192
Mof_H 	H 	0.817	0.3105	0.433	0.18
Mof_H 	H 	0.8658	0.332	0.4511	0.185
Mof_C 	C 	0.8163	0.1661	0.4283	0.186
Mof_C 	C 	0.7673	0.1734	0.4088	0.09
Mof_C 	C 	0.6816	0.1916	0.4262	0.095
Mof_C 	C 	0.6512	0.1527	0.4219	-0.062
Mof_C 	C 	0.6012	0.1588	0.4158	-0.011
Mof_H 	H 	0.5808	0.1327	0.4129	0.031
Mof_C 	C 	0.5815	0.2039	0.4141	-0.066
Mof_H 	H 	0.548	0.2079	0.41	0.05
Mof_C 	C 	0.6119	0.2428	0.4184	-0.01
Mof_H 	H 	0.5988	0.2729	0.4173	0.031
Mof_C 	C 	0.6619	0.2367	0.4245	-0.072
Mof_C 	C 	0.6972	0.2784	0.4389	0.124
Mof_H 	H 	0.6783	0.3047	0.45	-0.019
Mof_H 	H 	0.7194	0.2679	0.4617	-0.046
Mof_C 	C 	0.6735	0.1023	0.4242	0.119
Mof_H 	H 	0.6487	0.0807	0.4347	-0.009
Mof_H 	H 	0.7001	0.1023	0.4452	-0.012
Mof_C 	C 	0.7268	0.2935	0.397	-0.597
Mof_H 	H 	0.748	0.3193	0.4041	0.188
Mof_H 	H 	0.7044	0.3029	0.3744	0.204
Mof_H 	H 	0.7461	0.2674	0.3868	0.212
Mof_C 	C 	0.693	0.0841	0.3789	-0.597
Mof_H 	H 	0.7056	0.0527	0.3823	0.198
Mof_H 	H 	0.719	0.1044	0.3689	0.221
Mof_H 	H 	0.6671	0.0841	0.3579	0.202
Mof_C 	C 	0.6922	0.1842	0.5645	0.235
Mof_C 	C 	0.7423	0.1903	0.5847	0.11
Mof_C 	C 	0.827	0.2032	0.5689	0.092
Mof_C 	C 	0.8614	0.1673	0.5761	-0.076
Mof_C 	C 	0.91	0.1808	0.5846	0.005
Mof_C 	C 	0.9213	0.2305	0.5814	-0.025
Mof_C 	C 	0.8926	0.2649	0.5692	0.007
Mof_C 	C 	0.8445	0.2515	0.5655	-0.08
Mof_C 	C 	0.8415	0.118	0.5713	0.114
Mof_H 	H 	0.8084	0.1211	0.5603	-0.01
Mof_H 	H 	0.8388	0.1052	0.6007	-0.008
Mof_C 	C 	0.8044	0.2872	0.5558	0.102
Mof_H 	H 	0.7744	0.2746	0.5681	-0.013
Mof_H 	H 	0.8001	0.2874	0.5242	-0.031
Mof_C 	C 	0.808	0.3407	0.571	-0.575
Mof_H 	H 	0.7776	0.3564	0.5632	0.176
Mof_H 	H 	0.8344	0.3557	0.556	0.191
Mof_H 	H 	0.8124	0.3422	0.6017	0.2
Mof_C 	C 	0.867	0.0786	0.542	-0.609
Mof_H 	H 	0.849	0.0499	0.5442	0.207
Mof_H 	H 	0.9	0.0733	0.5531	0.202
Mof_H 	H 	0.8687	0.0888	0.5125	0.226
Mof_C 	C 	0.6878	0.0767	0.6811	0.215
Mof_C 	C 	0.6995	0.1039	0.721	0.099
Mof_C 	C 	0.7113	0.1022	0.7961	0.102
Mof_C 	C 	0.6773	0.132	0.8156	-0.067
Mof_C 	C 	0.6899	0.1571	0.8529	-0.007
Mof_H 	H 	0.6672	0.1771	0.8659	0.024
Mof_C 	C 	0.7365	0.1525	0.8708	-0.072
Mof_H 	H 	0.7449	0.1693	0.8957	0.052
Mof_C 	C 	0.7704	0.1227	0.8513	-0.006
Mof_H 	H 	0.8016	0.1196	0.8632	0.025
Mof_C 	C 	0.7578	0.0975	0.8139	-0.07
Mof_C 	C 	0.7972	0.066	0.7946	0.084
Mof_H 	H 	0.8255	0.0853	0.7879	-0.004
Mof_H 	H 	0.7851	0.0533	0.7673	-0.02
Mof_C 	C 	0.6249	0.1352	0.7985	0.097
Mof_H 	H 	0.6128	0.1031	0.7983	-0.007
Mof_H 	H 	0.6279	0.1443	0.768	0.012
Mof_C 	C 	0.5824	0.165	0.8166	-0.547
Mof_H 	H 	0.5534	0.1596	0.7996	0.183
Mof_H 	H 	0.5909	0.1979	0.8151	0.177
Mof_H 	H 	0.5763	0.1566	0.8465	0.176
Mof_C 	C 	0.815	0.023	0.825	-0.555
Mof_H 	H 	0.8394	0.0051	0.8094	0.174
Mof_H 	H 	0.7875	0.0031	0.8314	0.187
Mof_H 	H 	0.8287	0.035	0.8514	0.184
Mof_C 	C 	0.5734	0.1934	0.668	0.2
Mof_C 	C 	0.6026	0.2362	0.6706	0.105
Mof_C 	C 	0.5959	0.3228	0.6758	0.049
Mof_C 	C 	0.6195	0.339	0.6385	-0.016
Mof_C 	C 	0.6437	0.382	0.6391	-0.054
Mof_H 	H 	0.6595	0.3928	0.6141	0.041
Mof_C 	C 	0.6443	0.4088	0.6772	-0.026
Mof_H 	H 	0.6605	0.4375	0.6776	0.033
Mof_C 	C 	0.6207	0.3926	0.7145	-0.055
Mof_H 	H 	0.6212	0.4105	0.74	0.049
Mof_C 	C 	0.5965	0.3496	0.7139	-0.014
Mof_C 	C 	0.6326	0.312	0.5942	0.04
Mof_H 	H 	0.6212	0.3301	0.5693	0.013
Mof_H 	H 	0.6166	0.2816	0.5937	0.018
Mof_C 	C 	0.602	0.3186	0.7585	0.019
Mof_H 	H 	0.6268	0.2947	0.7537	0.033
Mof_H 	H 	0.6138	0.339	0.7816	0.021
Mof_C 	C 	0.6906	0.305	0.592	-0.504
Mof_H 	H 	0.6987	0.2867	0.5664	0.169
Mof_H 	H 	0.702	0.2897	0.6175	0.194
Mof_H 	H 	0.7061	0.3355	0.5893	0.165
Mof_C 	C 	0.554	0.294	0.7745	-0.46
Mof_H 	H 	0.5615	0.2752	0.7997	0.144
Mof_H 	H 	0.5417	0.2745	0.7515	0.145
Mof_H 	H 	0.5305	0.3176	0.782	0.148
Mof_N 	N 	0.8093	0.0531	0.2358	-0.233
Mof_N 	N 	0.9333	0.2529	0.3259	-0.238
Mof_N 	N 	0.731	0.1826	0.4387	-0.24
Mof_N 	N 	0.7777	0.1936	0.5551	-0.248
Mof_N 	N 	0.6993	0.0807	0.7565	-0.244
Mof_N 	N 	0.5694	0.2742	0.674	-0.234
Mof_O 	O 	0.816	0.0057	0.3084	-0.384
Mof_O 	O 	0.8222	0.0697	0.3471	-0.304
Mof_O 	O 	0.808	0.1233	0.2757	-0.297
Mof_O 	O 	0.979	0.1727	0.3347	-0.418
Mof_O 	O 	0.9149	0.1317	0.3287	-0.311
Mof_O 	O 	0.8615	0.2136	0.319	-0.271
Mof_O 	O 	0.7627	0.169	0.3676	-0.298
Mof_O 	O 	0.8558	0.1515	0.4045	-0.285
Mof_O 	O 	0.8188	0.1749	0.4698	-0.363
Mof_O 	O 	0.6924	0.1804	0.5211	-0.367
Mof_O 	O 	0.6578	0.1734	0.5864	-0.318
Mof_O 	O 	0.7454	0.1925	0.6245	-0.296
Mof_O 	O 	0.702	0.1493	0.7183	-0.286
Mof_O 	O 	0.6839	0.097	0.6453	-0.297
Mof_O 	O 	0.6841	0.0309	0.6846	-0.36
Mof_O 	O 	0.647	0.2386	0.6747	-0.306
Mof_O 	O 	0.5972	0.1551	0.6662	-0.288
Mof_O 	O 	0.5246	0.1967	0.6667	-0.353
Mof_Mn	Mn	0.33231	0.35462	0.66284	0.911
Mof_Mn	Mn	0.17562	0.32745	0.34462	0.929
Mof_Cu	Cu	0.31586	0.51372	0.7532	0.883
Mof_Cu	Cu	0.25567	0.31463	0.5037	0.897
Mof_Cu	Cu	0.00233	0.23849	0.33611	0.888
Mof_C 	C 	0.3169	0.452	0.6905	0.239
Mof_C 	C 	0.3084	0.4222	0.7281	0.081
Mof_C 	C 	0.2553	0.4196	0.8258	-0.03
Mof_C 	C 	0.3015	0.4231	0.8071	0.063
Mof_C 	C 	0.342	0.4046	0.8287	-0.027
Mof_C 	C 	0.3362	0.3827	0.869	-0.042
Mof_H 	H 	0.3633	0.3704	0.8835	0.035
Mof_C 	C 	0.29	0.3793	0.8878	-0.037
Mof_H 	H 	0.2861	0.3646	0.9147	0.039
Mof_C 	C 	0.2495	0.3977	0.8661	-0.043
Mof_H 	H 	0.2186	0.3954	0.8787	0.046
Mof_C 	C 	0.3964	0.409	0.8101	0.054
Mof_H 	H 	0.3963	0.4232	0.7813	0.01
Mof_H 	H 	0.4164	0.4281	0.8294	0.009
Mof_C 	C 	0.2092	0.4399	0.8012	0.053
Mof_H 	H 	0.2128	0.436	0.7699	0.004
Mof_H 	H 	0.1798	0.4235	0.8105	0.006
Mof_C 	C 	0.205	0.4933	0.813	-0.513
Mof_H 	H 	0.1777	0.5068	0.7981	0.164
Mof_H 	H 	0.2347	0.5091	0.804	0.163
Mof_H 	H 	0.2012	0.4967	0.844	0.181
Mof_C 	C 	0.4168	0.3575	0.808	-0.499
Mof_H 	H 	0.4475	0.3574	0.7925	0.161
Mof_H 	H 	0.3938	0.3379	0.7925	0.173
Mof_H 	H 	0.4215	0.3456	0.8369	0.16
Mof_C 	C 	0.4378	0.3296	0.6704	0.325
Mof_C 	C 	0.4088	0.2876	0.676	0.033
Mof_C 	C 	0.4503	0.1967	0.7528	0.112
Mof_H 	H 	0.4555	0.1692	0.7709	-0.014
Mof_H 	H 	0.4818	0.2055	0.7405	-0.026
Mof_C 	C 	0.4111	0.2066	0.6743	0.128
Mof_C 	C 	0.3828	0.1881	0.6406	-0.085
Mof_C 	C 	0.3585	0.1456	0.6465	0.003
Mof_H 	H 	0.3396	0.1332	0.6239	0.016
Mof_C 	C 	0.3623	0.1217	0.686	-0.083
Mof_H 	H 	0.346	0.0933	0.6899	0.054
Mof_C 	C 	0.3905	0.1402	0.7197	0.002
Mof_H 	H 	0.3931	0.1242	0.7461	0.026
Mof_C 	C 	0.4149	0.1827	0.7139	-0.08
Mof_C 	C 	0.432	0.2379	0.7828	-0.578
Mof_H 	H 	0.4566	0.2444	0.8046	0.173
Mof_H 	H 	0.4022	0.229	0.7968	0.196
Mof_H 	H 	0.4269	0.2655	0.7653	0.19
Mof_C 	C 	0.3782	0.2176	0.5974	0.109
Mof_H 	H 	0.3627	0.2473	0.6048	0.005
Mof_H 	H 	0.4111	0.2249	0.5874	-0.011
Mof_C 	C 	0.35	0.1964	0.5583	-0.563
Mof_H 	H 	0.3496	0.2186	0.5345	0.192
Mof_H 	H 	0.317	0.1895	0.567	0.18
Mof_H 	H 	0.3658	0.168	0.5489	0.185
Mof_C 	C 	0.3163	0.3339	0.5717	0.186
Mof_C 	C 	0.2673	0.3266	0.5912	0.09
Mof_C 	C 	0.1816	0.3084	0.5738	0.095
Mof_C 	C 	0.1512	0.3473	0.5781	-0.062
Mof_C 	C 	0.1012	0.3412	0.5842	-0.011
Mof_H 	H 	0.0808	0.3673	0.5871	0.031
Mof_C 	C 	0.0815	0.2961	0.5859	-0.066
Mof_H 	H 	0.048	0.2921	0.59	0.05
Mof_C 	C 	0.1119	0.2572	0.5816	-0.01
Mof_H 	H 	0.0988	0.2271	0.5827	0.031
Mof_C 	C 	0.1619	0.2633	0.5755	-0.072
Mof_C 	C 	0.1972	0.2216	0.5611	0.124
Mof_H 	H 	0.1783	0.1953	0.55	-0.019
Mof_H 	H 	0.2194	0.2321	0.5383	-0.046
Mof_C 	C 	0.1735	0.3977	0.5758	0.119
Mof_H 	H 	0.1487	0.4193	0.5653	-0.009
Mof_H 	H 	0.2001	0.3977	0.5548	-0.012
Mof_C 	C 	0.2268	0.2065	0.603	-0.598
Mof_H 	H 	0.248	0.1807	0.5959	0.188
Mof_H 	H 	0.2044	0.1971	0.6256	0.204
Mof_H 	H 	0.2461	0.2326	0.6132	0.212
Mof_C 	C 	0.193	0.4159	0.6211	-0.597
Mof_H 	H 	0.2056	0.4473	0.6177	0.198
Mof_H 	H 	0.219	0.3956	0.6311	0.221
Mof_H 	H 	0.1671	0.4159	0.6421	0.202
Mof_C 	C 	0.1922	0.3158	0.4355	0.235
Mof_C 	C 	0.2423	0.3097	0.4153	0.11
Mof_C 	C 	0.327	0.2968	0.4311	0.092
Mof_C 	C 	0.3614	0.3327	0.4239	-0.076
Mof_C 	C 	0.41	0.3192	0.4154	0.005
Mof_C 	C 	0.4213	0.2695	0.4186	-0.025
Mof_C 	C 	0.3926	0.2351	0.4308	0.007
Mof_C 	C 	0.3445	0.2485	0.4345	-0.079
Mof_C 	C 	0.3415	0.382	0.4287	0.114
Mof_H 	H 	0.3084	0.3789	0.4397	-0.01
Mof_H 	H 	0.3388	0.3948	0.3993	-0.008
Mof_C 	C 	0.3044	0.2128	0.4442	0.102
Mof_H 	H 	0.2744	0.2254	0.4319	-0.013
Mof_H 	H 	0.3001	0.2126	0.4758	-0.031
Mof_C 	C 	0.308	0.1593	0.429	-0.575
Mof_H 	H 	0.2776	0.1436	0.4368	0.176
Mof_H 	H 	0.3344	0.1443	0.444	0.191
Mof_H 	H 	0.3124	0.1578	0.3983	0.2
Mof_C 	C 	0.367	0.4214	0.458	-0.609
Mof_H 	H 	0.349	0.4501	0.4558	0.207
Mof_H 	H 	0.4	0.4267	0.4469	0.202
Mof_H 	H 	0.3687	0.4112	0.4875	0.226
Mof_C 	C 	0.1878	0.4233	0.3189	0.215
Mof_C 	C 	0.1995	0.3961	0.279	0.099
Mof_C 	C 	0.2113	0.3978	0.2039	0.102
Mof_C 	C 	0.1773	0.368	0.1844	-0.067
Mof_C 	C 	0.1899	0.3429	0.1471	-0.007
Mof_H 	H 	0.1672	0.3229	0.1341	0.024
Mof_C 	C 	0.2365	0.3475	0.1292	-0.072
Mof_H 	H 	0.2449	0.3307	0.1043	0.052
Mof_C 	C 	0.2704	0.3773	0.1487	-0.006
Mof_H 	H 	0.3016	0.3804	0.1368	0.025
Mof_C 	C 	0.2578	0.4025	0.1861	-0.07
Mof_C 	C 	0.2972	0.434	0.2054	0.084
Mof_H 	H 	0.3255	0.4147	0.2121	-0.004
Mof_H 	H 	0.2851	0.4467	0.2327	-0.02
Mof_C 	C 	0.1249	0.3648	0.2015	0.097
Mof_H 	H 	0.1128	0.3969	0.2017	-0.007
Mof_H 	H 	0.1279	0.3557	0.232	0.012
Mof_C 	C 	0.0824	0.335	0.1834	-0.546
Mof_H 	H 	0.0534	0.3404	0.2004	0.183
Mof_H 	H 	0.0909	0.3021	0.1849	0.177
Mof_H 	H 	0.0763	0.3434	0.1535	0.176
Mof_C 	C 	0.315	0.477	0.175	-0.555
Mof_H 	H 	0.3394	0.4949	0.1906	0.174
Mof_H 	H 	0.2875	0.4969	0.1686	0.187
Mof_H 	H 	0.3287	0.465	0.1486	0.184
Mof_C 	C 	0.0734	0.3066	0.332	0.2
Mof_C 	C 	0.1026	0.2638	0.3294	0.105
Mof_C 	C 	0.0959	0.1772	0.3242	0.049
Mof_C 	C 	0.1195	0.161	0.3615	-0.016
Mof_C 	C 	0.1437	0.118	0.3609	-0.054
Mof_H 	H 	0.1595	0.1072	0.3859	0.041
Mof_C 	C 	0.1443	0.0912	0.3228	-0.026
Mof_H 	H 	0.1605	0.0625	0.3224	0.033
Mof_C 	C 	0.1207	0.1074	0.2855	-0.055
Mof_H 	H 	0.1212	0.0895	0.26	0.049
Mof_C 	C 	0.0965	0.1504	0.2861	-0.014
Mof_C 	C 	0.1326	0.188	0.4058	0.04
Mof_H 	H 	0.1212	0.1699	0.4307	0.013
Mof_H 	H 	0.1166	0.2184	0.4063	0.018
Mof_C 	C 	0.102	0.1814	0.2415	0.019
Mof_H 	H 	0.1268	0.2053	0.2463	0.033
Mof_H 	H 	0.1138	0.161	0.2184	0.021
Mof_C 	C 	0.1906	0.195	0.408	-0.504
Mof_H 	H 	0.1987	0.2133	0.4336	0.169
Mof_H 	H 	0.202	0.2103	0.3825	0.194
Mof_H 	H 	0.2061	0.1645	0.4107	0.165
Mof_C 	C 	0.054	0.206	0.2255	-0.46
Mof_H 	H 	0.0615	0.2248	0.2003	0.144
Mof_H 	H 	0.0417	0.2255	0.2485	0.145
Mof_H 	H 	0.0305	0.1824	0.218	0.148
Mof_N 	N 	0.3093	0.4469	0.7642	-0.233
Mof_N 	N 	0.4333	0.2471	0.6741	-0.238
Mof_N 	N 	0.231	0.3174	0.5613	-0.24
Mof_N 	N 	0.2777	0.3064	0.4449	-0.248
Mof_N 	N 	0.1993	0.4193	0.2435	-0.244
Mof_N 	N 	0.0694	0.2258	0.326	-0.234
Mof_O 	O 	0.316	0.4943	0.6916	-0.384
Mof_O 	O 	0.3222	0.4303	0.6529	-0.304
Mof_O 	O 	0.308	0.3767	0.7243	-0.297
Mof_O 	O 	0.479	0.3273	0.6653	-0.418
Mof_O 	O 	0.4149	0.3683	0.6713	-0.311
Mof_O 	O 	0.3615	0.2864	0.681	-0.271
Mof_O 	O 	0.2627	0.331	0.6324	-0.298
Mof_O 	O 	0.3558	0.3485	0.5955	-0.285
Mof_O 	O 	0.3188	0.3251	0.5302	-0.363
Mof_O 	O 	0.1924	0.3196	0.4789	-0.367
Mof_O 	O 	0.1578	0.3266	0.4136	-0.318
Mof_O 	O 	0.2454	0.3075	0.3755	-0.296
Mof_O 	O 	0.202	0.3507	0.2817	-0.286
Mof_O 	O 	0.1839	0.403	0.3547	-0.297
Mof_O 	O 	0.1841	0.4691	0.3154	-0.36
Mof_O 	O 	0.147	0.2614	0.3253	-0.306
Mof_O 	O 	0.0972	0.3449	0.3338	-0.288
Mof_O 	O 	0.0246	0.3033	0.3333	-0.353
Mof_Mn	Mn	0.16769	0.64538	0.16284	0.911
Mof_Mn	Mn	0.32438	0.67255	0.84462	0.929
Mof_Cu	Cu	0.18414	0.48628	0.2532	0.883
Mof_Cu	Cu	0.24433	0.68537	0.0037	0.896
Mof_Cu	Cu	0.49767	0.76151	0.83611	0.888
Mof_C 	C 	0.1831	0.548	0.1905	0.239
Mof_C 	C 	0.1916	0.5778	0.2281	0.081
Mof_C 	C 	0.2447	0.5804	0.3258	-0.03
Mof_C 	C 	0.1985	0.5769	0.3071	0.063
Mof_C 	C 	0.158	0.5954	0.3287	-0.027
Mof_C 	C 	0.1638	0.6173	0.369	-0.042
Mof_H 	H 	0.1367	0.6296	0.3835	0.035
Mof_C 	C 	0.21	0.6207	0.3878	-0.037
Mof_H 	H 	0.2139	0.6354	0.4147	0.039
Mof_C 	C 	0.2505	0.6023	0.3661	-0.043
Mof_H 	H 	0.2814	0.6046	0.3787	0.046
Mof_C 	C 	0.1036	0.591	0.3101	0.054
Mof_H 	H 	0.1037	0.5768	0.2813	0.01
Mof_H 	H 	0.0836	0.5719	0.3294	0.009
Mof_C 	C 	0.2908	0.5601	0.3012	0.053
Mof_H 	H 	0.2872	0.564	0.2699	0.004
Mof_H 	H 	0.3202	0.5765	0.3105	0.006
Mof_C 	C 	0.295	0.5067	0.313	-0.513
Mof_H 	H 	0.3223	0.4932	0.2981	0.164
Mof_H 	H 	0.2653	0.4909	0.304	0.163
Mof_H 	H 	0.2988	0.5033	0.344	0.181
Mof_C 	C 	0.0832	0.6425	0.308	-0.499
Mof_H 	H 	0.0525	0.6426	0.2925	0.161
Mof_H 	H 	0.1062	0.6621	0.2925	0.173
Mof_H 	H 	0.0785	0.6544	0.3369	0.16
Mof_C 	C 	0.0622	0.6704	0.1704	0.325
Mof_C 	C 	0.0912	0.7124	0.176	0.033
Mof_C 	C 	0.0497	0.8033	0.2528	0.112
Mof_H 	H 	0.0445	0.8308	0.2709	-0.015
Mof_H 	H 	0.0182	0.7945	0.2405	-0.026
Mof_C 	C 	0.0889	0.7934	0.1743	0.128
Mof_C 	C 	0.1172	0.8119	0.1406	-0.085
Mof_C 	C 	0.1415	0.8544	0.1465	0.003
Mof_H 	H 	0.1604	0.8668	0.1239	0.016
Mof_C 	C 	0.1377	0.8783	0.186	-0.083
Mof_H 	H 	0.154	0.9067	0.1899	0.054
Mof_C 	C 	0.1095	0.8598	0.2197	0.002
Mof_H 	H 	0.1069	0.8758	0.2461	0.026
Mof_C 	C 	0.0851	0.8173	0.2139	-0.08
Mof_C 	C 	0.068	0.7621	0.2828	-0.578
Mof_H 	H 	0.0434	0.7556	0.3046	0.173
Mof_H 	H 	0.0978	0.771	0.2968	0.196
Mof_H 	H 	0.0731	0.7345	0.2653	0.19
Mof_C 	C 	0.1218	0.7824	0.0974	0.109
Mof_H 	H 	0.1373	0.7527	0.1048	0.005
Mof_H 	H 	0.0889	0.7751	0.0874	-0.011
Mof_C 	C 	0.15	0.8036	0.0583	-0.563
Mof_H 	H 	0.1504	0.7814	0.0345	0.192
Mof_H 	H 	0.183	0.8105	0.067	0.18
Mof_H 	H 	0.1342	0.832	0.0489	0.185
Mof_C 	C 	0.1837	0.6661	0.0717	0.186
Mof_C 	C 	0.2327	0.6734	0.0912	0.09
Mof_C 	C 	0.3184	0.6916	0.0738	0.095
Mof_C 	C 	0.3488	0.6527	0.0781	-0.062
Mof_C 	C 	0.3988	0.6588	0.0842	-0.011
Mof_H 	H 	0.4192	0.6327	0.0871	0.031
Mof_C 	C 	0.4185	0.7039	0.0859	-0.066
Mof_H 	H 	0.452	0.7079	0.09	0.05
Mof_C 	C 	0.3881	0.7428	0.0816	-0.01
Mof_H 	H 	0.4012	0.7729	0.0827	0.031
Mof_C 	C 	0.3381	0.7367	0.0755	-0.072
Mof_C 	C 	0.3028	0.7784	0.0611	0.124
Mof_H 	H 	0.3217	0.8047	0.05	-0.019
Mof_H 	H 	0.2806	0.7679	0.0383	-0.046
Mof_C 	C 	0.3265	0.6023	0.0758	0.119
Mof_H 	H 	0.3513	0.5807	0.0653	-0.009
Mof_H 	H 	0.2999	0.6023	0.0548	-0.012
Mof_C 	C 	0.2732	0.7935	0.103	-0.598
Mof_H 	H 	0.252	0.8193	0.0959	0.188
Mof_H 	H 	0.2956	0.8029	0.1256	0.204
Mof_H 	H 	0.2539	0.7674	0.1132	0.212
Mof_C 	C 	0.307	0.5841	0.1211	-0.597
Mof_H 	H 	0.2944	0.5527	0.1177	0.198
Mof_H 	H 	0.281	0.6044	0.1311	0.221
Mof_H 	H 	0.3329	0.5841	0.1421	0.202
Mof_C 	C 	0.3078	0.6842	0.9355	0.234
Mof_C 	C 	0.2577	0.6903	0.9153	0.11
Mof_C 	C 	0.173	0.7032	0.9311	0.092
Mof_C 	C 	0.1386	0.6673	0.9239	-0.076
Mof_C 	C 	0.09	0.6808	0.9154	0.005
Mof_C 	C 	0.0787	0.7305	0.9186	-0.025
Mof_C 	C 	0.1074	0.7649	0.9308	0.007
Mof_C 	C 	0.1555	0.7515	0.9345	-0.079
Mof_C 	C 	0.1585	0.618	0.9287	0.114
Mof_H 	H 	0.1916	0.6211	0.9397	-0.01
Mof_H 	H 	0.1612	0.6052	0.8993	-0.008
Mof_C 	C 	0.1956	0.7872	0.9442	0.102
Mof_H 	H 	0.2256	0.7746	0.9319	-0.013
Mof_H 	H 	0.1999	0.7874	0.9758	-0.031
Mof_C 	C 	0.192	0.8407	0.929	-0.575
Mof_H 	H 	0.2224	0.8564	0.9368	0.176
Mof_H 	H 	0.1656	0.8557	0.944	0.191
Mof_H 	H 	0.1876	0.8422	0.8983	0.2
Mof_C 	C 	0.133	0.5786	0.958	-0.609
Mof_H 	H 	0.151	0.5499	0.9558	0.207
Mof_H 	H 	0.1	0.5733	0.9469	0.202
Mof_H 	H 	0.1313	0.5888	0.9875	0.226
Mof_C 	C 	0.3122	0.5767	0.8189	0.215
Mof_C 	C 	0.3005	0.6039	0.779	0.099
Mof_C 	C 	0.2887	0.6022	0.7039	0.102
Mof_C 	C 	0.3227	0.632	0.6844	-0.067
Mof_C 	C 	0.3101	0.6571	0.6471	-0.007
Mof_H 	H 	0.3328	0.6771	0.6341	0.024
Mof_C 	C 	0.2635	0.6525	0.6292	-0.072
Mof_H 	H 	0.2551	0.6693	0.6043	0.052
Mof_C 	C 	0.2296	0.6227	0.6487	-0.006
Mof_H 	H 	0.1984	0.6196	0.6368	0.025
Mof_C 	C 	0.2422	0.5975	0.6861	-0.07
Mof_C 	C 	0.2028	0.566	0.7054	0.084
Mof_H 	H 	0.1745	0.5853	0.7121	-0.004
Mof_H 	H 	0.2149	0.5533	0.7327	-0.02
Mof_C 	C 	0.3751	0.6352	0.7015	0.097
Mof_H 	H 	0.3872	0.6031	0.7017	-0.007
Mof_H 	H 	0.3721	0.6443	0.732	0.012
Mof_C 	C 	0.4176	0.665	0.6834	-0.547
Mof_H 	H 	0.4466	0.6596	0.7004	0.183
Mof_H 	H 	0.4091	0.6979	0.6849	0.177
Mof_H 	H 	0.4237	0.6566	0.6535	0.176
Mof_C 	C 	0.185	0.523	0.675	-0.555
Mof_H 	H 	0.1606	0.5051	0.6906	0.174
Mof_H 	H 	0.2125	0.5031	0.6686	0.187
Mof_H 	H 	0.1713	0.535	0.6486	0.184
Mof_C 	C 	0.4266	0.6934	0.832	0.2
Mof_C 	C 	0.3974	0.7362	0.8294	0.105
Mof_C 	C 	0.4041	0.8228	0.8242	0.049
Mof_C 	C 	0.3805	0.839	0.8615	-0.016
Mof_C 	C 	0.3563	0.882	0.8609	-0.054
Mof_H 	H 	0.3405	0.8928	0.8859	0.041
Mof_C 	C 	0.3557	0.9088	0.8228	-0.026
Mof_H 	H 	0.3395	0.9375	0.8224	0.033
Mof_C 	C 	0.3793	0.8926	0.7855	-0.055
Mof_H 	H 	0.3788	0.9105	0.76	0.049
Mof_C 	C 	0.4035	0.8496	0.7861	-0.014
Mof_C 	C 	0.3674	0.812	0.9058	0.04
Mof_H 	H 	0.3788	0.8301	0.9307	0.013
Mof_H 	H 	0.3834	0.7816	0.9063	0.018
Mof_C 	C 	0.398	0.8186	0.7415	0.019
Mof_H 	H 	0.3732	0.7947	0.7463	0.033
Mof_H 	H 	0.3862	0.839	0.7184	0.021
Mof_C 	C 	0.3094	0.805	0.908	-0.504
Mof_H 	H 	0.3013	0.7867	0.9336	0.169
Mof_H 	H 	0.298	0.7897	0.8825	0.194
Mof_H 	H 	0.2939	0.8355	0.9107	0.165
Mof_C 	C 	0.446	0.794	0.7255	-0.46
Mof_H 	H 	0.4385	0.7752	0.7003	0.144
Mof_H 	H 	0.4583	0.7745	0.7485	0.145
Mof_H 	H 	0.4695	0.8176	0.718	0.148
Mof_N 	N 	0.1907	0.5531	0.2642	-0.233
Mof_N 	N 	0.0667	0.7529	0.1741	-0.238
Mof_N 	N 	0.269	0.6826	0.0613	-0.24
Mof_N 	N 	0.2223	0.6936	0.9449	-0.248
Mof_N 	N 	0.3007	0.5807	0.7435	-0.244
Mof_N 	N 	0.4306	0.7742	0.826	-0.234
Mof_O 	O 	0.184	0.5057	0.1916	-0.384
Mof_O 	O 	0.1778	0.5697	0.1529	-0.304
Mof_O 	O 	0.192	0.6233	0.2243	-0.297
Mof_O 	O 	0.021	0.6727	0.1653	-0.418
Mof_O 	O 	0.0851	0.6317	0.1713	-0.311
Mof_O 	O 	0.1385	0.7136	0.181	-0.271
Mof_O 	O 	0.2373	0.669	0.1324	-0.298
Mof_O 	O 	0.1442	0.6515	0.0955	-0.285
Mof_O 	O 	0.1812	0.6749	0.0302	-0.363
Mof_O 	O 	0.3076	0.6804	0.9789	-0.367
Mof_O 	O 	0.3422	0.6734	0.9136	-0.318
Mof_O 	O 	0.2546	0.6925	0.8755	-0.296
Mof_O 	O 	0.298	0.6493	0.7817	-0.286
Mof_O 	O 	0.3161	0.597	0.8547	-0.297
Mof_O 	O 	0.3159	0.5309	0.8154	-0.36
Mof_O 	O 	0.353	0.7386	0.8253	-0.306
Mof_O 	O 	0.4028	0.6551	0.8338	-0.288
Mof_O 	O 	0.4754	0.6967	0.8333	-0.353
_end
