data_functionalizedCrystal
_audit_creation_method	'EQeq! by Chris Wilmer'
_symmetry_space_group_name_H-M	'P1'
_symmetry_Int_Tables_number	1
_symmetry_cell_setting	triclinic
loop_
_symmetry_equiv_pos_as_xyz
  x,y,z
_cell_length_a	8.6514
_cell_length_b	10.1531
_cell_length_c	11.1703
_cell_angle_alpha	65.437
_cell_angle_beta	71.666
_cell_angle_gamma	78.421
loop_
_atom_site_label
_atom_site_type_symbol
_atom_site_fract_x
_atom_site_fract_y
_atom_site_fract_z
_atom_site_charge
Mof_Tm	Tm	0.13213	0.44028	0.65276	1.455
Mof_Tm	Tm	0.86787	0.55972	0.34724	1.455
Mof_H 	H 	0.6347	0.1125	0.7708	0.043
Mof_H 	H 	0.228	0.0721	0.0818	0.056
Mof_H 	H 	0.5443	0.3531	0.8756	0.048
Mof_H 	H 	0.7153	0.6188	0.9852	0.055
Mof_H 	H 	0.925	0.7804	0.6819	0.039
Mof_H 	H 	0.0199	0.0273	0.2777	0.049
Mof_H 	H 	0.3653	0.8875	0.2292	0.044
Mof_H 	H 	0.772	0.9279	0.9182	0.057
Mof_H 	H 	0.4557	0.6469	0.1244	0.048
Mof_H 	H 	0.2847	0.3812	0.0148	0.055
Mof_H 	H 	0.075	0.2196	0.3181	0.039
Mof_H 	H 	0.9801	0.9727	0.7223	0.049
Mof_C 	C 	0.3266	0.2316	0.8204	0.304
Mof_C 	C 	0.4183	0.112	0.9106	-0.061
Mof_C 	C 	0.5793	0.0673	0.864	-0.015
Mof_C 	C 	0.339	0.043	0.0482	-0.024
Mof_C 	C 	0.8203	0.4616	0.8312	0.307
Mof_C 	C 	0.654	0.4828	0.9174	-0.062
Mof_C 	C 	0.5261	0.4128	0.9263	-0.026
Mof_C 	C 	0.628	0.5706	0.9913	-0.029
Mof_C 	C 	0.9302	0.7668	0.4473	0.353
Mof_C 	C 	0.9667	0.8856	0.4759	-0.098
Mof_C 	C 	0.9552	0.8692	0.608	-0.024
Mof_C 	C 	0.0117	0.0162	0.3681	-0.017
Mof_C 	C 	0.6734	0.7684	0.1796	0.304
Mof_C 	C 	0.5817	0.888	0.0894	-0.061
Mof_C 	C 	0.4207	0.9327	0.136	-0.015
Mof_C 	C 	0.661	0.957	0.9518	-0.024
Mof_C 	C 	0.1797	0.5384	0.1688	0.307
Mof_C 	C 	0.346	0.5172	0.0826	-0.062
Mof_C 	C 	0.4739	0.5872	0.0737	-0.026
Mof_C 	C 	0.372	0.4294	0.0087	-0.029
Mof_C 	C 	0.0698	0.2332	0.5527	0.353
Mof_C 	C 	0.0333	0.1144	0.5241	-0.098
Mof_C 	C 	0.0448	0.1308	0.392	-0.024
Mof_C 	C 	0.9883	0.9838	0.6319	-0.017
Mof_O 	O 	0.3983	0.2989	0.696	-0.39
Mof_O 	O 	0.1788	0.2655	0.8688	-0.365
Mof_O 	O 	0.8432	0.3813	0.7636	-0.362
Mof_O 	O 	0.9353	0.5239	0.825	-0.375
Mof_O 	O 	0.9621	0.6343	0.5187	-0.483
Mof_O 	O 	0.8684	0.7995	0.3498	-0.379
Mof_O 	O 	0.6017	0.7011	0.304	-0.39
Mof_O 	O 	0.8212	0.7345	0.1312	-0.365
Mof_O 	O 	0.1568	0.6187	0.2364	-0.362
Mof_O 	O 	0.0647	0.4761	0.175	-0.375
Mof_O 	O 	0.0379	0.3657	0.4813	-0.483
Mof_O 	O 	0.1316	0.2005	0.6502	-0.379
_end
