data_functionalizedCrystal
_audit_creation_method	'EQeq! by Chris Wilmer'
_symmetry_space_group_name_H-M	'P1'
_symmetry_Int_Tables_number	1
_symmetry_cell_setting	triclinic
loop_
_symmetry_equiv_pos_as_xyz
  x,y,z
_cell_length_a	84.043
_cell_length_b	66.298
_cell_length_c	10.0356
_cell_angle_alpha	90
_cell_angle_beta	90
_cell_angle_gamma	90
loop_
_atom_site_label
_atom_site_type_symbol
_atom_site_fract_x
_atom_site_fract_y
_atom_site_fract_z
_atom_site_charge
Mof_Zn	Zn	0.14112	0.98366	0.17131	1.234
Mof_Zn	Zn	0.1778	0.98677	0.67371	1.23
Mof_Zn	Zn	0.26026	0.90857	0.42416	1.231
Mof_Zn	Zn	0.263	0.86197	0.92154	1.247
Mof_Zn	Zn	0.07069	0.9849	0.1636	1.227
Mof_Zn	Zn	0.03514	0.98488	0.6636	1.232
Mof_Zn	Zn	0.26199	0.7725	0.9141	1.239
Mof_P 	P 	0.25909	0.95546	0.4735	0.665
Mof_P 	P 	0.10566	0.97538	0.2182	0.484
Mof_P 	P 	0.27254	0.8907	0.1481	0.423
Mof_P 	P 	0.15423	0.9726	0.8921	0.485
Mof_P 	P 	0.16367	0.97108	0.3974	0.454
Mof_P 	P 	0.26965	0.81679	0.97	0.521
Mof_P 	P 	0.27157	0.87826	0.6429	0.44
Mof_P 	P 	0.05761	0.97173	0.8962	0.48
Mof_P 	P 	0.04834	0.97205	0.3944	0.421
Mof_P 	P 	0.21485	0.98852	0.7226	0.626
Mof_P 	P 	0.2282	0.75604	0.8591	0.454
Mof_O 	O 	0.27149	0.97217	0.4531	-0.996
Mof_O 	O 	0.25394	0.95244	0.6193	-0.972
Mof_O 	O 	0.26561	0.93604	0.4143	-0.473
Mof_O 	O 	0.12011	0.97444	0.1345	-0.468
Mof_O 	O 	0.0919	0.97584	0.1266	-0.471
Mof_O 	O 	0.10605	0.99242	0.3078	-0.548
Mof_O 	O 	0.27076	0.89104	0.2983	-0.467
Mof_O 	O 	0.27005	0.8693	0.1001	-0.499
Mof_O 	O 	0.26275	0.90625	0.0743	-0.498
Mof_O 	O 	0.15393	0.97141	0.0429	-0.503
Mof_O 	O 	0.17047	0.97793	0.8506	-0.424
Mof_O 	O 	0.14149	0.98707	0.8366	-0.466
Mof_O 	O 	0.14672	0.97514	0.347	-0.481
Mof_O 	O 	0.17559	0.98316	0.3286	-0.484
Mof_O 	O 	0.16417	0.97375	0.5442	-0.475
Mof_O 	O 	0.27009	0.83569	0.8847	-0.442
Mof_O 	O 	0.26901	0.79951	0.8749	-0.439
Mof_O 	O 	0.2563	0.81734	0.0566	-0.602
Mof_O 	O 	0.2675	0.89883	0.6029	-0.421
Mof_O 	O 	0.26023	0.86226	0.5855	-0.474
Mof_O 	O 	0.27268	0.87851	0.7933	-0.433
Mof_O 	O 	0.05671	0.97232	0.0424	-0.527
Mof_O 	O 	0.0408	0.97659	0.8431	-0.465
Mof_O 	O 	0.07019	0.986	0.8428	-0.484
Mof_O 	O 	0.04878	0.97152	0.5415	-0.474
Mof_O 	O 	0.03525	0.9865	0.3384	-0.493
Mof_O 	O 	0.06469	0.97585	0.3446	-0.477
Mof_O 	O 	0.19974	0.98033	0.6636	-0.468
Mof_O 	O 	0.22792	0.97248	0.7033	-0.964
Mof_O 	O 	0.21246	0.99478	0.8675	-0.89
Mof_O 	O 	0.23918	0.7725	0.9117	-0.478
Mof_O 	O 	0.23092	0.73507	0.9063	-0.457
Mof_O 	O 	0.22782	0.7552	0.7138	-0.472
Mof_O 	O 	0.01397	0.97619	0.628	-0.432
Mof_F 	F 	0.25406	0.99492	0.6244	-1.444
Mof_H 	H 	0.2446	0.9607	0.3851	-0.069
Mof_H 	H 	0.1043	0.954	0.3039	-0.047
Mof_H 	H 	0.2902	0.8953	0.1156	-0.021
Mof_H 	H 	0.1497	0.9497	0.8461	0.005
Mof_H 	H 	0.1681	0.9473	0.3654	-0.009
Mof_H 	H 	0.2873	0.8753	0.5673	-0.012
Mof_H 	H 	0.0626	0.9491	0.8393	-0.003
Mof_H 	H 	0.2132	0.7627	0.9264	-0.007
Mof_Zn	Zn	0.64112	0.48366	0.17131	1.233
Mof_Zn	Zn	0.6778	0.48677	0.67371	1.229
Mof_Zn	Zn	0.76026	0.40857	0.42416	1.23
Mof_Zn	Zn	0.763	0.36197	0.92154	1.246
Mof_Zn	Zn	0.57069	0.4849	0.1636	1.226
Mof_Zn	Zn	0.53514	0.48488	0.6636	1.231
Mof_Zn	Zn	0.76199	0.2725	0.9141	1.238
Mof_P 	P 	0.75909	0.45546	0.4735	0.664
Mof_P 	P 	0.60566	0.47538	0.2182	0.483
Mof_P 	P 	0.77254	0.3907	0.1481	0.422
Mof_P 	P 	0.65423	0.4726	0.8921	0.484
Mof_P 	P 	0.66367	0.47108	0.3974	0.453
Mof_P 	P 	0.76965	0.31679	0.97	0.521
Mof_P 	P 	0.77157	0.37826	0.6429	0.44
Mof_P 	P 	0.55761	0.47173	0.8962	0.48
Mof_P 	P 	0.54834	0.47205	0.3944	0.421
Mof_P 	P 	0.71485	0.48852	0.7226	0.625
Mof_P 	P 	0.7282	0.25604	0.8591	0.454
Mof_O 	O 	0.77149	0.47217	0.4531	-0.996
Mof_O 	O 	0.75394	0.45244	0.6193	-0.972
Mof_O 	O 	0.76561	0.43604	0.4143	-0.473
Mof_O 	O 	0.62011	0.47444	0.1345	-0.468
Mof_O 	O 	0.5919	0.47584	0.1266	-0.471
Mof_O 	O 	0.60605	0.49242	0.3078	-0.548
Mof_O 	O 	0.77076	0.39104	0.2983	-0.467
Mof_O 	O 	0.77005	0.3693	0.1001	-0.499
Mof_O 	O 	0.76275	0.40625	0.0743	-0.498
Mof_O 	O 	0.65393	0.47141	0.0429	-0.503
Mof_O 	O 	0.67047	0.47793	0.8506	-0.424
Mof_O 	O 	0.64149	0.48707	0.8366	-0.466
Mof_O 	O 	0.64672	0.47514	0.347	-0.481
Mof_O 	O 	0.67559	0.48316	0.3286	-0.485
Mof_O 	O 	0.66417	0.47375	0.5442	-0.475
Mof_O 	O 	0.77009	0.33569	0.8847	-0.442
Mof_O 	O 	0.76901	0.29951	0.8749	-0.439
Mof_O 	O 	0.7563	0.31734	0.0566	-0.602
Mof_O 	O 	0.7675	0.39883	0.6029	-0.421
Mof_O 	O 	0.76023	0.36226	0.5855	-0.474
Mof_O 	O 	0.77268	0.37851	0.7933	-0.433
Mof_O 	O 	0.55671	0.47232	0.0424	-0.527
Mof_O 	O 	0.5408	0.47659	0.8431	-0.465
Mof_O 	O 	0.57019	0.486	0.8428	-0.484
Mof_O 	O 	0.54878	0.47152	0.5415	-0.474
Mof_O 	O 	0.53525	0.4865	0.3384	-0.493
Mof_O 	O 	0.56469	0.47585	0.3446	-0.477
Mof_O 	O 	0.69974	0.48033	0.6636	-0.468
Mof_O 	O 	0.72792	0.47248	0.7033	-0.964
Mof_O 	O 	0.71246	0.49478	0.8675	-0.89
Mof_O 	O 	0.73918	0.2725	0.9117	-0.478
Mof_O 	O 	0.73092	0.23507	0.9063	-0.457
Mof_O 	O 	0.72782	0.2552	0.7138	-0.472
Mof_O 	O 	0.51397	0.47619	0.628	-0.432
Mof_F 	F 	0.75406	0.49492	0.6244	-1.444
Mof_H 	H 	0.7446	0.4607	0.3851	-0.069
Mof_H 	H 	0.6043	0.454	0.3039	-0.047
Mof_H 	H 	0.7902	0.3953	0.1156	-0.021
Mof_H 	H 	0.6497	0.4497	0.8461	0.005
Mof_H 	H 	0.6681	0.4473	0.3654	-0.009
Mof_H 	H 	0.7873	0.3753	0.5673	-0.012
Mof_H 	H 	0.5626	0.4491	0.8393	-0.003
Mof_H 	H 	0.7132	0.2627	0.9264	-0.007
Mof_Zn	Zn	0.85888	0.51634	0.67131	1.237
Mof_Zn	Zn	0.8222	0.51323	0.17371	1.224
Mof_Zn	Zn	0.73974	0.59143	0.92416	1.242
Mof_Zn	Zn	0.737	0.63803	0.42154	1.233
Mof_Zn	Zn	0.92931	0.5151	0.6636	1.23
Mof_Zn	Zn	0.96486	0.51512	0.1636	1.228
Mof_Zn	Zn	0.73801	0.7275	0.4141	1.226
Mof_P 	P 	0.74091	0.54454	0.9735	0.706
Mof_P 	P 	0.89434	0.52462	0.7182	0.484
Mof_P 	P 	0.72746	0.6093	0.6481	0.424
Mof_P 	P 	0.84577	0.5274	0.3921	0.434
Mof_P 	P 	0.83633	0.52892	0.8974	0.505
Mof_P 	P 	0.73035	0.68321	0.47	0.456
Mof_P 	P 	0.72843	0.62174	0.1429	0.439
Mof_P 	P 	0.94239	0.52827	0.3962	0.43
Mof_P 	P 	0.95166	0.52795	0.8944	0.474
Mof_P 	P 	0.78515	0.51148	0.2226	0.623
Mof_P 	P 	0.7718	0.74396	0.3591	0.453
Mof_O 	O 	0.72851	0.52783	0.9531	-0.914
Mof_O 	O 	0.74606	0.54756	0.1193	-1.017
Mof_O 	O 	0.73439	0.56396	0.9143	-0.46
Mof_O 	O 	0.87989	0.52556	0.6345	-0.448
Mof_O 	O 	0.9081	0.52416	0.6266	-0.45
Mof_O 	O 	0.89395	0.50758	0.8078	-0.523
Mof_O 	O 	0.72924	0.60896	0.7983	-0.447
Mof_O 	O 	0.72995	0.6307	0.6001	-0.466
Mof_O 	O 	0.73725	0.59375	0.5743	-0.476
Mof_O 	O 	0.84607	0.52859	0.5429	-0.451
Mof_O 	O 	0.82953	0.52207	0.3506	-0.437
Mof_O 	O 	0.85851	0.51293	0.3366	-0.479
Mof_O 	O 	0.85328	0.52486	0.847	-0.471
Mof_O 	O 	0.82441	0.51684	0.8286	-0.476
Mof_O 	O 	0.83583	0.52625	0.0442	-0.529
Mof_O 	O 	0.72991	0.66431	0.3847	-0.45
Mof_O 	O 	0.73099	0.70049	0.3749	-0.445
Mof_O 	O 	0.7437	0.68266	0.5566	-0.537
Mof_O 	O 	0.7325	0.60117	0.1029	-0.454
Mof_O 	O 	0.73977	0.63774	0.0855	-0.496
Mof_O 	O 	0.72732	0.62149	0.2933	-0.452
Mof_O 	O 	0.94329	0.52768	0.5424	-0.476
Mof_O 	O 	0.9592	0.52341	0.3431	-0.475
Mof_O 	O 	0.92981	0.514	0.3428	-0.495
Mof_O 	O 	0.95122	0.52848	0.0415	-0.522
Mof_O 	O 	0.96475	0.5135	0.8384	-0.482
Mof_O 	O 	0.93531	0.52415	0.8446	-0.468
Mof_O 	O 	0.80026	0.51967	0.1636	-0.491
Mof_O 	O 	0.77208	0.52752	0.2033	-0.984
Mof_O 	O 	0.78754	0.50522	0.3675	-0.972
Mof_O 	O 	0.76082	0.7275	0.4117	-0.498
Mof_O 	O 	0.76908	0.76493	0.4063	-0.489
Mof_O 	O 	0.77218	0.7448	0.2138	-0.491
Mof_O 	O 	0.98603	0.52381	0.128	-0.45
Mof_F 	F 	0.74594	0.50508	0.1244	-1.422
Mof_H 	H 	0.7554	0.5393	0.8851	-0.058
Mof_H 	H 	0.8957	0.546	0.8039	-0.032
Mof_H 	H 	0.7098	0.6047	0.6156	-0.003
Mof_H 	H 	0.8503	0.5503	0.3461	-0.013
Mof_H 	H 	0.8319	0.5527	0.8654	0.006
Mof_H 	H 	0.7127	0.6247	0.0673	-0.032
Mof_H 	H 	0.9374	0.5509	0.3393	-0.018
Mof_H 	H 	0.7868	0.7373	0.4264	-0.025
Mof_Zn	Zn	0.35888	0.01634	0.67131	1.237
Mof_Zn	Zn	0.3222	0.01323	0.17371	1.224
Mof_Zn	Zn	0.23974	0.09143	0.92416	1.242
Mof_Zn	Zn	0.237	0.13803	0.42154	1.233
Mof_Zn	Zn	0.42931	0.0151	0.6636	1.23
Mof_Zn	Zn	0.46486	0.01512	0.1636	1.228
Mof_Zn	Zn	0.23801	0.2275	0.4141	1.226
Mof_P 	P 	0.24091	0.04454	0.9735	0.706
Mof_P 	P 	0.39434	0.02462	0.7182	0.484
Mof_P 	P 	0.22746	0.1093	0.6481	0.424
Mof_P 	P 	0.34577	0.0274	0.3921	0.434
Mof_P 	P 	0.33633	0.02892	0.8974	0.505
Mof_P 	P 	0.23035	0.18321	0.47	0.457
Mof_P 	P 	0.22843	0.12174	0.1429	0.439
Mof_P 	P 	0.44239	0.02827	0.3962	0.43
Mof_P 	P 	0.45166	0.02795	0.8944	0.474
Mof_P 	P 	0.28515	0.01148	0.2226	0.623
Mof_P 	P 	0.2718	0.24396	0.3591	0.453
Mof_O 	O 	0.22851	0.02783	0.9531	-0.914
Mof_O 	O 	0.24606	0.04756	0.1193	-1.017
Mof_O 	O 	0.23439	0.06396	0.9143	-0.46
Mof_O 	O 	0.37989	0.02556	0.6345	-0.449
Mof_O 	O 	0.4081	0.02416	0.6266	-0.451
Mof_O 	O 	0.39395	0.00758	0.8078	-0.523
Mof_O 	O 	0.22924	0.10896	0.7983	-0.447
Mof_O 	O 	0.22995	0.1307	0.6001	-0.466
Mof_O 	O 	0.23725	0.09375	0.5743	-0.476
Mof_O 	O 	0.34607	0.02859	0.5429	-0.451
Mof_O 	O 	0.32953	0.02207	0.3506	-0.437
Mof_O 	O 	0.35851	0.01293	0.3366	-0.479
Mof_O 	O 	0.35328	0.02486	0.847	-0.471
Mof_O 	O 	0.32441	0.01684	0.8286	-0.476
Mof_O 	O 	0.33583	0.02625	0.0442	-0.529
Mof_O 	O 	0.22991	0.16431	0.3847	-0.45
Mof_O 	O 	0.23099	0.20049	0.3749	-0.445
Mof_O 	O 	0.2437	0.18266	0.5566	-0.537
Mof_O 	O 	0.2325	0.10117	0.1029	-0.454
Mof_O 	O 	0.23977	0.13774	0.0855	-0.496
Mof_O 	O 	0.22732	0.12149	0.2933	-0.452
Mof_O 	O 	0.44329	0.02768	0.5424	-0.476
Mof_O 	O 	0.4592	0.02341	0.3431	-0.475
Mof_O 	O 	0.42981	0.014	0.3428	-0.495
Mof_O 	O 	0.45122	0.02848	0.0415	-0.522
Mof_O 	O 	0.46475	0.0135	0.8384	-0.482
Mof_O 	O 	0.43531	0.02415	0.8446	-0.468
Mof_O 	O 	0.30026	0.01967	0.1636	-0.491
Mof_O 	O 	0.27208	0.02752	0.2033	-0.984
Mof_O 	O 	0.28754	0.00522	0.3675	-0.972
Mof_O 	O 	0.26082	0.2275	0.4117	-0.498
Mof_O 	O 	0.26908	0.26493	0.4063	-0.489
Mof_O 	O 	0.27218	0.2448	0.2138	-0.491
Mof_O 	O 	0.48603	0.02381	0.128	-0.45
Mof_F 	F 	0.24594	0.00508	0.1244	-1.422
Mof_H 	H 	0.2554	0.0393	0.8851	-0.058
Mof_H 	H 	0.3957	0.046	0.8039	-0.032
Mof_H 	H 	0.2098	0.1047	0.6156	-0.003
Mof_H 	H 	0.3503	0.0503	0.3461	-0.013
Mof_H 	H 	0.3319	0.0527	0.8654	0.006
Mof_H 	H 	0.2127	0.1247	0.0673	-0.032
Mof_H 	H 	0.4374	0.0509	0.3393	-0.018
Mof_H 	H 	0.2868	0.2373	0.4264	-0.025
Mof_Zn	Zn	0.85888	0.48366	0.32869	1.236
Mof_Zn	Zn	0.8222	0.48677	0.82629	1.232
Mof_Zn	Zn	0.73974	0.40857	0.07584	1.218
Mof_Zn	Zn	0.737	0.36197	0.57846	1.233
Mof_Zn	Zn	0.92931	0.4849	0.3364	1.228
Mof_Zn	Zn	0.96486	0.48488	0.8364	1.234
Mof_Zn	Zn	0.73801	0.2725	0.5859	1.226
Mof_P 	P 	0.74091	0.45546	0.0265	0.602
Mof_P 	P 	0.89434	0.47538	0.2818	0.481
Mof_P 	P 	0.72746	0.3907	0.3519	0.425
Mof_P 	P 	0.84577	0.4726	0.6079	0.436
Mof_P 	P 	0.83633	0.47108	0.1026	0.402
Mof_P 	P 	0.73035	0.31679	0.53	0.451
Mof_P 	P 	0.72843	0.37826	0.8571	0.441
Mof_P 	P 	0.94239	0.47173	0.6038	0.432
Mof_P 	P 	0.95166	0.47205	0.1056	0.373
Mof_P 	P 	0.78515	0.48852	0.7774	0.642
Mof_P 	P 	0.7718	0.25604	0.6409	0.452
Mof_O 	O 	0.72851	0.47217	0.0469	-0.957
Mof_O 	O 	0.74606	0.45244	0.8807	-0.923
Mof_O 	O 	0.73439	0.43604	0.0857	-0.481
Mof_O 	O 	0.87989	0.47444	0.3655	-0.451
Mof_O 	O 	0.9081	0.47584	0.3734	-0.452
Mof_O 	O 	0.89395	0.49242	0.1922	-0.555
Mof_O 	O 	0.72924	0.39104	0.2017	-0.483
Mof_O 	O 	0.72995	0.3693	0.3999	-0.476
Mof_O 	O 	0.73725	0.40625	0.4257	-0.475
Mof_O 	O 	0.84607	0.47141	0.4571	-0.452
Mof_O 	O 	0.82953	0.47793	0.6494	-0.433
Mof_O 	O 	0.85851	0.48707	0.6634	-0.469
Mof_O 	O 	0.85328	0.47514	0.153	-0.487
Mof_O 	O 	0.82441	0.48316	0.1714	-0.484
Mof_O 	O 	0.83583	0.47375	0.9558	-0.421
Mof_O 	O 	0.72991	0.33569	0.6153	-0.444
Mof_O 	O 	0.73099	0.29951	0.6251	-0.439
Mof_O 	O 	0.7437	0.31734	0.4434	-0.544
Mof_O 	O 	0.7325	0.39883	0.8971	-0.397
Mof_O 	O 	0.73977	0.36226	0.9145	-0.452
Mof_O 	O 	0.72732	0.37851	0.7067	-0.447
Mof_O 	O 	0.94329	0.47232	0.4576	-0.478
Mof_O 	O 	0.9592	0.47659	0.6569	-0.472
Mof_O 	O 	0.92981	0.486	0.6572	-0.486
Mof_O 	O 	0.95122	0.47152	0.9585	-0.427
Mof_O 	O 	0.96475	0.4865	0.1616	-0.496
Mof_O 	O 	0.93531	0.47585	0.1554	-0.482
Mof_O 	O 	0.80026	0.48033	0.8364	-0.457
Mof_O 	O 	0.77208	0.47248	0.7967	-0.962
Mof_O 	O 	0.78754	0.49478	0.6325	-0.972
Mof_O 	O 	0.76082	0.2725	0.5883	-0.498
Mof_O 	O 	0.76908	0.23507	0.5937	-0.48
Mof_O 	O 	0.77218	0.2552	0.7862	-0.459
Mof_O 	O 	0.98603	0.47619	0.872	-0.416
Mof_F 	F 	0.74594	0.49492	0.8756	-1.383
Mof_H 	H 	0.7554	0.4607	0.1149	-0.073
Mof_H 	H 	0.8957	0.454	0.1961	-0.053
Mof_H 	H 	0.7098	0.3953	0.3844	-0.011
Mof_H 	H 	0.8503	0.4497	0.6539	0
Mof_H 	H 	0.8319	0.4473	0.1346	-0.015
Mof_H 	H 	0.7127	0.3753	0.9327	0.003
Mof_H 	H 	0.9374	0.4491	0.6607	-0.007
Mof_H 	H 	0.7868	0.2627	0.5736	-0.021
Mof_Zn	Zn	0.35888	0.98366	0.32869	1.236
Mof_Zn	Zn	0.3222	0.98677	0.82629	1.232
Mof_Zn	Zn	0.23974	0.90857	0.07584	1.218
Mof_Zn	Zn	0.237	0.86197	0.57846	1.233
Mof_Zn	Zn	0.42931	0.9849	0.3364	1.228
Mof_Zn	Zn	0.46486	0.98488	0.8364	1.234
Mof_Zn	Zn	0.23801	0.7725	0.5859	1.226
Mof_P 	P 	0.24091	0.95546	0.0265	0.602
Mof_P 	P 	0.39434	0.97538	0.2818	0.481
Mof_P 	P 	0.22746	0.8907	0.3519	0.425
Mof_P 	P 	0.34577	0.9726	0.6079	0.436
Mof_P 	P 	0.33633	0.97108	0.1026	0.402
Mof_P 	P 	0.23035	0.81679	0.53	0.451
Mof_P 	P 	0.22843	0.87826	0.8571	0.441
Mof_P 	P 	0.44239	0.97173	0.6038	0.432
Mof_P 	P 	0.45166	0.97205	0.1056	0.373
Mof_P 	P 	0.28515	0.98852	0.7774	0.642
Mof_P 	P 	0.2718	0.75604	0.6409	0.452
Mof_O 	O 	0.22851	0.97217	0.0469	-0.957
Mof_O 	O 	0.24606	0.95244	0.8807	-0.923
Mof_O 	O 	0.23439	0.93604	0.0857	-0.481
Mof_O 	O 	0.37989	0.97444	0.3655	-0.451
Mof_O 	O 	0.4081	0.97584	0.3734	-0.452
Mof_O 	O 	0.39395	0.99242	0.1922	-0.555
Mof_O 	O 	0.22924	0.89104	0.2017	-0.483
Mof_O 	O 	0.22995	0.8693	0.3999	-0.476
Mof_O 	O 	0.23725	0.90625	0.4257	-0.475
Mof_O 	O 	0.34607	0.97141	0.4571	-0.452
Mof_O 	O 	0.32953	0.97793	0.6494	-0.433
Mof_O 	O 	0.35851	0.98707	0.6634	-0.469
Mof_O 	O 	0.35328	0.97514	0.153	-0.487
Mof_O 	O 	0.32441	0.98316	0.1714	-0.484
Mof_O 	O 	0.33583	0.97375	0.9558	-0.421
Mof_O 	O 	0.22991	0.83569	0.6153	-0.444
Mof_O 	O 	0.23099	0.79951	0.6251	-0.439
Mof_O 	O 	0.2437	0.81734	0.4434	-0.544
Mof_O 	O 	0.2325	0.89883	0.8971	-0.397
Mof_O 	O 	0.23977	0.86226	0.9145	-0.452
Mof_O 	O 	0.22732	0.87851	0.7067	-0.447
Mof_O 	O 	0.44329	0.97232	0.4576	-0.478
Mof_O 	O 	0.4592	0.97659	0.6569	-0.472
Mof_O 	O 	0.42981	0.986	0.6572	-0.486
Mof_O 	O 	0.45122	0.97152	0.9585	-0.427
Mof_O 	O 	0.46475	0.9865	0.1616	-0.496
Mof_O 	O 	0.43531	0.97585	0.1554	-0.482
Mof_O 	O 	0.30026	0.98033	0.8364	-0.457
Mof_O 	O 	0.27208	0.97248	0.7967	-0.962
Mof_O 	O 	0.28754	0.99478	0.6325	-0.972
Mof_O 	O 	0.26082	0.7725	0.5883	-0.498
Mof_O 	O 	0.26908	0.73507	0.5937	-0.48
Mof_O 	O 	0.27218	0.7552	0.7862	-0.459
Mof_O 	O 	0.48603	0.97619	0.872	-0.416
Mof_F 	F 	0.24594	0.99492	0.8756	-1.383
Mof_H 	H 	0.2554	0.9607	0.1149	-0.073
Mof_H 	H 	0.3957	0.954	0.1961	-0.053
Mof_H 	H 	0.2098	0.8953	0.3844	-0.011
Mof_H 	H 	0.3503	0.9497	0.6539	0
Mof_H 	H 	0.3319	0.9473	0.1346	-0.015
Mof_H 	H 	0.2127	0.8753	0.9327	0.003
Mof_H 	H 	0.4374	0.9491	0.6607	-0.007
Mof_H 	H 	0.2868	0.7627	0.5736	-0.021
Mof_Zn	Zn	0.14112	0.01634	0.82869	1.239
Mof_Zn	Zn	0.1778	0.01323	0.32629	1.227
Mof_Zn	Zn	0.26026	0.09143	0.57584	1.23
Mof_Zn	Zn	0.263	0.13803	0.07846	1.221
Mof_Zn	Zn	0.07069	0.0151	0.8364	1.232
Mof_Zn	Zn	0.03514	0.01512	0.3364	1.23
Mof_Zn	Zn	0.26199	0.2275	0.0859	1.215
Mof_P 	P 	0.25909	0.04454	0.5265	0.664
Mof_P 	P 	0.10566	0.02462	0.7818	0.482
Mof_P 	P 	0.27254	0.1093	0.8519	0.427
Mof_P 	P 	0.15423	0.0274	0.1079	0.386
Mof_P 	P 	0.16367	0.02892	0.6026	0.454
Mof_P 	P 	0.26965	0.18321	0.03	0.386
Mof_P 	P 	0.27157	0.12174	0.3571	0.44
Mof_P 	P 	0.05761	0.02827	0.1038	0.382
Mof_P 	P 	0.04834	0.02795	0.6056	0.427
Mof_P 	P 	0.21485	0.01148	0.2774	0.625
Mof_P 	P 	0.2282	0.24396	0.1409	0.451
Mof_O 	O 	0.27149	0.02783	0.5469	-0.993
Mof_O 	O 	0.25394	0.04756	0.3807	-0.975
Mof_O 	O 	0.26561	0.06396	0.5857	-0.471
Mof_O 	O 	0.12011	0.02556	0.8655	-0.431
Mof_O 	O 	0.0919	0.02416	0.8734	-0.432
Mof_O 	O 	0.10605	0.00758	0.6922	-0.54
Mof_O 	O 	0.27076	0.10896	0.7017	-0.463
Mof_O 	O 	0.27005	0.1307	0.8999	-0.442
Mof_O 	O 	0.26275	0.09375	0.9257	-0.452
Mof_O 	O 	0.15393	0.02859	0.9571	-0.4
Mof_O 	O 	0.17047	0.02207	0.1494	-0.445
Mof_O 	O 	0.14149	0.01293	0.1634	-0.482
Mof_O 	O 	0.14672	0.02486	0.653	-0.478
Mof_O 	O 	0.17559	0.01684	0.6714	-0.475
Mof_O 	O 	0.16417	0.02625	0.4558	-0.476
Mof_O 	O 	0.27009	0.16431	0.1153	-0.452
Mof_O 	O 	0.26901	0.20049	0.1251	-0.445
Mof_O 	O 	0.2563	0.18266	0.9434	-0.478
Mof_O 	O 	0.2675	0.10117	0.3971	-0.43
Mof_O 	O 	0.26023	0.13774	0.4145	-0.474
Mof_O 	O 	0.27268	0.12149	0.2067	-0.467
Mof_O 	O 	0.05671	0.02768	0.9576	-0.427
Mof_O 	O 	0.0408	0.02341	0.1569	-0.481
Mof_O 	O 	0.07019	0.014	0.1572	-0.498
Mof_O 	O 	0.04878	0.02848	0.4585	-0.475
Mof_O 	O 	0.03525	0.0135	0.6616	-0.484
Mof_O 	O 	0.06469	0.02415	0.6554	-0.474
Mof_O 	O 	0.19974	0.01967	0.3364	-0.477
Mof_O 	O 	0.22792	0.02752	0.2967	-0.973
Mof_O 	O 	0.21246	0.00522	0.1325	-0.942
Mof_O 	O 	0.23918	0.2275	0.0883	-0.518
Mof_O 	O 	0.23092	0.26493	0.0937	-0.512
Mof_O 	O 	0.22782	0.2448	0.2862	-0.478
Mof_O 	O 	0.01397	0.02381	0.372	-0.433
Mof_F 	F 	0.25406	0.00508	0.3756	-1.444
Mof_H 	H 	0.2446	0.0393	0.6149	-0.068
Mof_H 	H 	0.1043	0.046	0.6961	-0.039
Mof_H 	H 	0.2902	0.1047	0.8844	0.007
Mof_H 	H 	0.1497	0.0503	0.1539	-0.018
Mof_H 	H 	0.1681	0.0527	0.6346	-0
Mof_H 	H 	0.2873	0.1247	0.4327	-0.016
Mof_H 	H 	0.0626	0.0509	0.1607	-0.022
Mof_H 	H 	0.2132	0.2373	0.0736	-0.039
Mof_Zn	Zn	0.64112	0.51634	0.82869	1.239
Mof_Zn	Zn	0.6778	0.51323	0.32629	1.227
Mof_Zn	Zn	0.76026	0.59143	0.57584	1.23
Mof_Zn	Zn	0.763	0.63803	0.07846	1.221
Mof_Zn	Zn	0.57069	0.5151	0.8364	1.232
Mof_Zn	Zn	0.53514	0.51512	0.3364	1.23
Mof_Zn	Zn	0.76199	0.7275	0.0859	1.215
Mof_P 	P 	0.75909	0.54454	0.5265	0.664
Mof_P 	P 	0.60566	0.52462	0.7818	0.482
Mof_P 	P 	0.77254	0.6093	0.8519	0.427
Mof_P 	P 	0.65423	0.5274	0.1079	0.386
Mof_P 	P 	0.66367	0.52892	0.6026	0.454
Mof_P 	P 	0.76965	0.68321	0.03	0.386
Mof_P 	P 	0.77157	0.62174	0.3571	0.44
Mof_P 	P 	0.55761	0.52827	0.1038	0.382
Mof_P 	P 	0.54834	0.52795	0.6056	0.427
Mof_P 	P 	0.71485	0.51148	0.2774	0.625
Mof_P 	P 	0.7282	0.74396	0.1409	0.451
Mof_O 	O 	0.77149	0.52783	0.5469	-0.993
Mof_O 	O 	0.75394	0.54756	0.3807	-0.975
Mof_O 	O 	0.76561	0.56396	0.5857	-0.471
Mof_O 	O 	0.62011	0.52556	0.8655	-0.431
Mof_O 	O 	0.5919	0.52416	0.8734	-0.432
Mof_O 	O 	0.60605	0.50758	0.6922	-0.54
Mof_O 	O 	0.77076	0.60896	0.7017	-0.463
Mof_O 	O 	0.77005	0.6307	0.8999	-0.442
Mof_O 	O 	0.76275	0.59375	0.9257	-0.452
Mof_O 	O 	0.65393	0.52859	0.9571	-0.4
Mof_O 	O 	0.67047	0.52207	0.1494	-0.445
Mof_O 	O 	0.64149	0.51293	0.1634	-0.482
Mof_O 	O 	0.64672	0.52486	0.653	-0.478
Mof_O 	O 	0.67559	0.51684	0.6714	-0.475
Mof_O 	O 	0.66417	0.52625	0.4558	-0.476
Mof_O 	O 	0.77009	0.66431	0.1153	-0.452
Mof_O 	O 	0.76901	0.70049	0.1251	-0.445
Mof_O 	O 	0.7563	0.68266	0.9434	-0.478
Mof_O 	O 	0.7675	0.60117	0.3971	-0.43
Mof_O 	O 	0.76023	0.63774	0.4145	-0.474
Mof_O 	O 	0.77268	0.62149	0.2067	-0.467
Mof_O 	O 	0.55671	0.52768	0.9576	-0.427
Mof_O 	O 	0.5408	0.52341	0.1569	-0.481
Mof_O 	O 	0.57019	0.514	0.1572	-0.498
Mof_O 	O 	0.54878	0.52848	0.4585	-0.475
Mof_O 	O 	0.53525	0.5135	0.6616	-0.484
Mof_O 	O 	0.56469	0.52415	0.6554	-0.474
Mof_O 	O 	0.69974	0.51967	0.3364	-0.477
Mof_O 	O 	0.72792	0.52752	0.2967	-0.973
Mof_O 	O 	0.71246	0.50522	0.1325	-0.942
Mof_O 	O 	0.73918	0.7275	0.0883	-0.518
Mof_O 	O 	0.73092	0.76493	0.0937	-0.512
Mof_O 	O 	0.72782	0.7448	0.2862	-0.478
Mof_O 	O 	0.51397	0.52381	0.372	-0.433
Mof_F 	F 	0.75406	0.50508	0.3756	-1.444
Mof_H 	H 	0.7446	0.5393	0.6149	-0.068
Mof_H 	H 	0.6043	0.546	0.6961	-0.039
Mof_H 	H 	0.7902	0.6047	0.8844	0.007
Mof_H 	H 	0.6497	0.5503	0.1539	-0.018
Mof_H 	H 	0.6681	0.5527	0.6346	-0
Mof_H 	H 	0.7873	0.6247	0.4327	-0.016
Mof_H 	H 	0.5626	0.5509	0.1607	-0.022
Mof_H 	H 	0.7132	0.7373	0.0736	-0.039
Mof_Zn	Zn	0.85888	0.01634	0.82869	1.239
Mof_Zn	Zn	0.8222	0.01323	0.32629	1.227
Mof_Zn	Zn	0.73974	0.09143	0.57584	1.23
Mof_Zn	Zn	0.737	0.13803	0.07846	1.221
Mof_Zn	Zn	0.92931	0.0151	0.8364	1.232
Mof_Zn	Zn	0.96486	0.01512	0.3364	1.23
Mof_Zn	Zn	0.73801	0.2275	0.0859	1.215
Mof_P 	P 	0.74091	0.04454	0.5265	0.664
Mof_P 	P 	0.89434	0.02462	0.7818	0.482
Mof_P 	P 	0.72746	0.1093	0.8519	0.427
Mof_P 	P 	0.84577	0.0274	0.1079	0.386
Mof_P 	P 	0.83633	0.02892	0.6026	0.454
Mof_P 	P 	0.73035	0.18321	0.03	0.386
Mof_P 	P 	0.72843	0.12174	0.3571	0.44
Mof_P 	P 	0.94239	0.02827	0.1038	0.382
Mof_P 	P 	0.95166	0.02795	0.6056	0.427
Mof_P 	P 	0.78515	0.01148	0.2774	0.625
Mof_P 	P 	0.7718	0.24396	0.1409	0.451
Mof_O 	O 	0.72851	0.02783	0.5469	-0.993
Mof_O 	O 	0.74606	0.04756	0.3807	-0.975
Mof_O 	O 	0.73439	0.06396	0.5857	-0.471
Mof_O 	O 	0.87989	0.02556	0.8655	-0.431
Mof_O 	O 	0.9081	0.02416	0.8734	-0.432
Mof_O 	O 	0.89395	0.00758	0.6922	-0.54
Mof_O 	O 	0.72924	0.10896	0.7017	-0.463
Mof_O 	O 	0.72995	0.1307	0.8999	-0.442
Mof_O 	O 	0.73725	0.09375	0.9257	-0.452
Mof_O 	O 	0.84607	0.02859	0.9571	-0.4
Mof_O 	O 	0.82953	0.02207	0.1494	-0.445
Mof_O 	O 	0.85851	0.01293	0.1634	-0.482
Mof_O 	O 	0.85328	0.02486	0.653	-0.478
Mof_O 	O 	0.82441	0.01684	0.6714	-0.475
Mof_O 	O 	0.83583	0.02625	0.4558	-0.476
Mof_O 	O 	0.72991	0.16431	0.1153	-0.452
Mof_O 	O 	0.73099	0.20049	0.1251	-0.445
Mof_O 	O 	0.7437	0.18266	0.9434	-0.478
Mof_O 	O 	0.7325	0.10117	0.3971	-0.43
Mof_O 	O 	0.73977	0.13774	0.4145	-0.474
Mof_O 	O 	0.72732	0.12149	0.2067	-0.467
Mof_O 	O 	0.94329	0.02768	0.9576	-0.427
Mof_O 	O 	0.9592	0.02341	0.1569	-0.481
Mof_O 	O 	0.92981	0.014	0.1572	-0.498
Mof_O 	O 	0.95122	0.02848	0.4585	-0.475
Mof_O 	O 	0.96475	0.0135	0.6616	-0.484
Mof_O 	O 	0.93531	0.02415	0.6554	-0.474
Mof_O 	O 	0.80026	0.01967	0.3364	-0.477
Mof_O 	O 	0.77208	0.02752	0.2967	-0.973
Mof_O 	O 	0.78754	0.00522	0.1325	-0.942
Mof_O 	O 	0.76082	0.2275	0.0883	-0.518
Mof_O 	O 	0.76908	0.26493	0.0937	-0.512
Mof_O 	O 	0.77218	0.2448	0.2862	-0.478
Mof_O 	O 	0.98603	0.02381	0.372	-0.433
Mof_F 	F 	0.74594	0.00508	0.3756	-1.444
Mof_H 	H 	0.7554	0.0393	0.6149	-0.068
Mof_H 	H 	0.8957	0.046	0.6961	-0.039
Mof_H 	H 	0.7098	0.1047	0.8844	0.007
Mof_H 	H 	0.8503	0.0503	0.1539	-0.018
Mof_H 	H 	0.8319	0.0527	0.6346	-0
Mof_H 	H 	0.7127	0.1247	0.4327	-0.016
Mof_H 	H 	0.9374	0.0509	0.1607	-0.022
Mof_H 	H 	0.7868	0.2373	0.0736	-0.039
Mof_Zn	Zn	0.35888	0.51634	0.82869	1.239
Mof_Zn	Zn	0.3222	0.51323	0.32629	1.227
Mof_Zn	Zn	0.23974	0.59143	0.57584	1.23
Mof_Zn	Zn	0.237	0.63803	0.07846	1.221
Mof_Zn	Zn	0.42931	0.5151	0.8364	1.232
Mof_Zn	Zn	0.46486	0.51512	0.3364	1.23
Mof_Zn	Zn	0.23801	0.7275	0.0859	1.215
Mof_P 	P 	0.24091	0.54454	0.5265	0.664
Mof_P 	P 	0.39434	0.52462	0.7818	0.482
Mof_P 	P 	0.22746	0.6093	0.8519	0.427
Mof_P 	P 	0.34577	0.5274	0.1079	0.386
Mof_P 	P 	0.33633	0.52892	0.6026	0.454
Mof_P 	P 	0.23035	0.68321	0.03	0.386
Mof_P 	P 	0.22843	0.62174	0.3571	0.44
Mof_P 	P 	0.44239	0.52827	0.1038	0.382
Mof_P 	P 	0.45166	0.52795	0.6056	0.427
Mof_P 	P 	0.28515	0.51148	0.2774	0.625
Mof_P 	P 	0.2718	0.74396	0.1409	0.451
Mof_O 	O 	0.22851	0.52783	0.5469	-0.993
Mof_O 	O 	0.24606	0.54756	0.3807	-0.975
Mof_O 	O 	0.23439	0.56396	0.5857	-0.471
Mof_O 	O 	0.37989	0.52556	0.8655	-0.431
Mof_O 	O 	0.4081	0.52416	0.8734	-0.432
Mof_O 	O 	0.39395	0.50758	0.6922	-0.54
Mof_O 	O 	0.22924	0.60896	0.7017	-0.463
Mof_O 	O 	0.22995	0.6307	0.8999	-0.442
Mof_O 	O 	0.23725	0.59375	0.9257	-0.452
Mof_O 	O 	0.34607	0.52859	0.9571	-0.4
Mof_O 	O 	0.32953	0.52207	0.1494	-0.445
Mof_O 	O 	0.35851	0.51293	0.1634	-0.482
Mof_O 	O 	0.35328	0.52486	0.653	-0.478
Mof_O 	O 	0.32441	0.51684	0.6714	-0.475
Mof_O 	O 	0.33583	0.52625	0.4558	-0.476
Mof_O 	O 	0.22991	0.66431	0.1153	-0.452
Mof_O 	O 	0.23099	0.70049	0.1251	-0.445
Mof_O 	O 	0.2437	0.68266	0.9434	-0.478
Mof_O 	O 	0.2325	0.60117	0.3971	-0.43
Mof_O 	O 	0.23977	0.63774	0.4145	-0.474
Mof_O 	O 	0.22732	0.62149	0.2067	-0.467
Mof_O 	O 	0.44329	0.52768	0.9576	-0.427
Mof_O 	O 	0.4592	0.52341	0.1569	-0.481
Mof_O 	O 	0.42981	0.514	0.1572	-0.498
Mof_O 	O 	0.45122	0.52848	0.4585	-0.475
Mof_O 	O 	0.46475	0.5135	0.6616	-0.484
Mof_O 	O 	0.43531	0.52415	0.6554	-0.474
Mof_O 	O 	0.30026	0.51967	0.3364	-0.477
Mof_O 	O 	0.27208	0.52752	0.2967	-0.973
Mof_O 	O 	0.28754	0.50522	0.1325	-0.942
Mof_O 	O 	0.26082	0.7275	0.0883	-0.518
Mof_O 	O 	0.26908	0.76493	0.0937	-0.512
Mof_O 	O 	0.27218	0.7448	0.2862	-0.478
Mof_O 	O 	0.48603	0.52381	0.372	-0.433
Mof_F 	F 	0.24594	0.50508	0.3756	-1.444
Mof_H 	H 	0.2554	0.5393	0.6149	-0.068
Mof_H 	H 	0.3957	0.546	0.6961	-0.039
Mof_H 	H 	0.2098	0.6047	0.8844	0.007
Mof_H 	H 	0.3503	0.5503	0.1539	-0.018
Mof_H 	H 	0.3319	0.5527	0.6346	-0
Mof_H 	H 	0.2127	0.6247	0.4327	-0.016
Mof_H 	H 	0.4374	0.5509	0.1607	-0.022
Mof_H 	H 	0.2868	0.7373	0.0736	-0.039
Mof_Zn	Zn	0.14112	0.48366	0.32869	1.236
Mof_Zn	Zn	0.1778	0.48677	0.82629	1.232
Mof_Zn	Zn	0.26026	0.40857	0.07584	1.218
Mof_Zn	Zn	0.263	0.36197	0.57846	1.233
Mof_Zn	Zn	0.07069	0.4849	0.3364	1.228
Mof_Zn	Zn	0.03514	0.48488	0.8364	1.234
Mof_Zn	Zn	0.26199	0.2725	0.5859	1.226
Mof_P 	P 	0.25909	0.45546	0.0265	0.602
Mof_P 	P 	0.10566	0.47538	0.2818	0.481
Mof_P 	P 	0.27254	0.3907	0.3519	0.425
Mof_P 	P 	0.15423	0.4726	0.6079	0.436
Mof_P 	P 	0.16367	0.47108	0.1026	0.402
Mof_P 	P 	0.26965	0.31679	0.53	0.451
Mof_P 	P 	0.27157	0.37826	0.8571	0.441
Mof_P 	P 	0.05761	0.47173	0.6038	0.432
Mof_P 	P 	0.04834	0.47205	0.1056	0.373
Mof_P 	P 	0.21485	0.48852	0.7774	0.642
Mof_P 	P 	0.2282	0.25604	0.6409	0.452
Mof_O 	O 	0.27149	0.47217	0.0469	-0.957
Mof_O 	O 	0.25394	0.45244	0.8807	-0.923
Mof_O 	O 	0.26561	0.43604	0.0857	-0.481
Mof_O 	O 	0.12011	0.47444	0.3655	-0.451
Mof_O 	O 	0.0919	0.47584	0.3734	-0.452
Mof_O 	O 	0.10605	0.49242	0.1922	-0.555
Mof_O 	O 	0.27076	0.39104	0.2017	-0.483
Mof_O 	O 	0.27005	0.3693	0.3999	-0.476
Mof_O 	O 	0.26275	0.40625	0.4257	-0.475
Mof_O 	O 	0.15393	0.47141	0.4571	-0.452
Mof_O 	O 	0.17047	0.47793	0.6494	-0.433
Mof_O 	O 	0.14149	0.48707	0.6634	-0.469
Mof_O 	O 	0.14672	0.47514	0.153	-0.487
Mof_O 	O 	0.17559	0.48316	0.1714	-0.484
Mof_O 	O 	0.16417	0.47375	0.9558	-0.421
Mof_O 	O 	0.27009	0.33569	0.6153	-0.444
Mof_O 	O 	0.26901	0.29951	0.6251	-0.439
Mof_O 	O 	0.2563	0.31734	0.4434	-0.544
Mof_O 	O 	0.2675	0.39883	0.8971	-0.397
Mof_O 	O 	0.26023	0.36226	0.9145	-0.452
Mof_O 	O 	0.27268	0.37851	0.7067	-0.447
Mof_O 	O 	0.05671	0.47232	0.4576	-0.478
Mof_O 	O 	0.0408	0.47659	0.6569	-0.472
Mof_O 	O 	0.07019	0.486	0.6572	-0.486
Mof_O 	O 	0.04878	0.47152	0.9585	-0.427
Mof_O 	O 	0.03525	0.4865	0.1616	-0.496
Mof_O 	O 	0.06469	0.47585	0.1554	-0.482
Mof_O 	O 	0.19974	0.48033	0.8364	-0.457
Mof_O 	O 	0.22792	0.47248	0.7967	-0.962
Mof_O 	O 	0.21246	0.49478	0.6325	-0.972
Mof_O 	O 	0.23918	0.2725	0.5883	-0.498
Mof_O 	O 	0.23092	0.23507	0.5937	-0.48
Mof_O 	O 	0.22782	0.2552	0.7862	-0.459
Mof_O 	O 	0.01397	0.47619	0.872	-0.416
Mof_F 	F 	0.25406	0.49492	0.8756	-1.383
Mof_H 	H 	0.2446	0.4607	0.1149	-0.073
Mof_H 	H 	0.1043	0.454	0.1961	-0.053
Mof_H 	H 	0.2902	0.3953	0.3844	-0.011
Mof_H 	H 	0.1497	0.4497	0.6539	0
Mof_H 	H 	0.1681	0.4473	0.1346	-0.015
Mof_H 	H 	0.2873	0.3753	0.9327	0.003
Mof_H 	H 	0.0626	0.4491	0.6607	-0.007
Mof_H 	H 	0.2132	0.2627	0.5736	-0.021
Mof_Zn	Zn	0.64112	0.98366	0.32869	1.236
Mof_Zn	Zn	0.6778	0.98677	0.82629	1.232
Mof_Zn	Zn	0.76026	0.90857	0.07584	1.218
Mof_Zn	Zn	0.763	0.86197	0.57846	1.233
Mof_Zn	Zn	0.57069	0.9849	0.3364	1.228
Mof_Zn	Zn	0.53514	0.98488	0.8364	1.234
Mof_Zn	Zn	0.76199	0.7725	0.5859	1.226
Mof_P 	P 	0.75909	0.95546	0.0265	0.602
Mof_P 	P 	0.60566	0.97538	0.2818	0.481
Mof_P 	P 	0.77254	0.8907	0.3519	0.425
Mof_P 	P 	0.65423	0.9726	0.6079	0.436
Mof_P 	P 	0.66367	0.97108	0.1026	0.402
Mof_P 	P 	0.76965	0.81679	0.53	0.451
Mof_P 	P 	0.77157	0.87826	0.8571	0.441
Mof_P 	P 	0.55761	0.97173	0.6038	0.432
Mof_P 	P 	0.54834	0.97205	0.1056	0.373
Mof_P 	P 	0.71485	0.98852	0.7774	0.642
Mof_P 	P 	0.7282	0.75604	0.6409	0.452
Mof_O 	O 	0.77149	0.97217	0.0469	-0.957
Mof_O 	O 	0.75394	0.95244	0.8807	-0.923
Mof_O 	O 	0.76561	0.93604	0.0857	-0.481
Mof_O 	O 	0.62011	0.97444	0.3655	-0.451
Mof_O 	O 	0.5919	0.97584	0.3734	-0.452
Mof_O 	O 	0.60605	0.99242	0.1922	-0.555
Mof_O 	O 	0.77076	0.89104	0.2017	-0.483
Mof_O 	O 	0.77005	0.8693	0.3999	-0.476
Mof_O 	O 	0.76275	0.90625	0.4257	-0.475
Mof_O 	O 	0.65393	0.97141	0.4571	-0.452
Mof_O 	O 	0.67047	0.97793	0.6494	-0.433
Mof_O 	O 	0.64149	0.98707	0.6634	-0.469
Mof_O 	O 	0.64672	0.97514	0.153	-0.487
Mof_O 	O 	0.67559	0.98316	0.1714	-0.484
Mof_O 	O 	0.66417	0.97375	0.9558	-0.421
Mof_O 	O 	0.77009	0.83569	0.6153	-0.444
Mof_O 	O 	0.76901	0.79951	0.6251	-0.439
Mof_O 	O 	0.7563	0.81734	0.4434	-0.544
Mof_O 	O 	0.7675	0.89883	0.8971	-0.397
Mof_O 	O 	0.76023	0.86226	0.9145	-0.452
Mof_O 	O 	0.77268	0.87851	0.7067	-0.447
Mof_O 	O 	0.55671	0.97232	0.4576	-0.478
Mof_O 	O 	0.5408	0.97659	0.6569	-0.472
Mof_O 	O 	0.57019	0.986	0.6572	-0.486
Mof_O 	O 	0.54878	0.97152	0.9585	-0.427
Mof_O 	O 	0.53525	0.9865	0.1616	-0.496
Mof_O 	O 	0.56469	0.97585	0.1554	-0.482
Mof_O 	O 	0.69974	0.98033	0.8364	-0.457
Mof_O 	O 	0.72792	0.97248	0.7967	-0.962
Mof_O 	O 	0.71246	0.99478	0.6325	-0.972
Mof_O 	O 	0.73918	0.7725	0.5883	-0.498
Mof_O 	O 	0.73092	0.73507	0.5937	-0.48
Mof_O 	O 	0.72782	0.7552	0.7862	-0.459
Mof_O 	O 	0.51397	0.97619	0.872	-0.416
Mof_F 	F 	0.75406	0.99492	0.8756	-1.383
Mof_H 	H 	0.7446	0.9607	0.1149	-0.073
Mof_H 	H 	0.6043	0.954	0.1961	-0.053
Mof_H 	H 	0.7902	0.8953	0.3844	-0.011
Mof_H 	H 	0.6497	0.9497	0.6539	0
Mof_H 	H 	0.6681	0.9473	0.1346	-0.015
Mof_H 	H 	0.7873	0.8753	0.9327	0.003
Mof_H 	H 	0.5626	0.9491	0.6607	-0.007
Mof_H 	H 	0.7132	0.7627	0.5736	-0.021
Mof_Zn	Zn	0.14112	0.51634	0.67131	1.237
Mof_Zn	Zn	0.1778	0.51323	0.17371	1.224
Mof_Zn	Zn	0.26026	0.59143	0.92416	1.242
Mof_Zn	Zn	0.263	0.63803	0.42154	1.233
Mof_Zn	Zn	0.07069	0.5151	0.6636	1.23
Mof_Zn	Zn	0.03514	0.51512	0.1636	1.228
Mof_Zn	Zn	0.26199	0.7275	0.4141	1.226
Mof_P 	P 	0.25909	0.54454	0.9735	0.706
Mof_P 	P 	0.10566	0.52462	0.7182	0.484
Mof_P 	P 	0.27254	0.6093	0.6481	0.424
Mof_P 	P 	0.15423	0.5274	0.3921	0.434
Mof_P 	P 	0.16367	0.52892	0.8974	0.505
Mof_P 	P 	0.26965	0.68321	0.47	0.456
Mof_P 	P 	0.27157	0.62174	0.1429	0.439
Mof_P 	P 	0.05761	0.52827	0.3962	0.43
Mof_P 	P 	0.04834	0.52795	0.8944	0.474
Mof_P 	P 	0.21485	0.51148	0.2226	0.623
Mof_P 	P 	0.2282	0.74396	0.3591	0.453
Mof_O 	O 	0.27149	0.52783	0.9531	-0.914
Mof_O 	O 	0.25394	0.54756	0.1193	-1.017
Mof_O 	O 	0.26561	0.56396	0.9143	-0.46
Mof_O 	O 	0.12011	0.52556	0.6345	-0.448
Mof_O 	O 	0.0919	0.52416	0.6266	-0.45
Mof_O 	O 	0.10605	0.50758	0.8078	-0.523
Mof_O 	O 	0.27076	0.60896	0.7983	-0.447
Mof_O 	O 	0.27005	0.6307	0.6001	-0.466
Mof_O 	O 	0.26275	0.59375	0.5743	-0.476
Mof_O 	O 	0.15393	0.52859	0.5429	-0.451
Mof_O 	O 	0.17047	0.52207	0.3506	-0.437
Mof_O 	O 	0.14149	0.51293	0.3366	-0.479
Mof_O 	O 	0.14672	0.52486	0.847	-0.471
Mof_O 	O 	0.17559	0.51684	0.8286	-0.476
Mof_O 	O 	0.16417	0.52625	0.0442	-0.529
Mof_O 	O 	0.27009	0.66431	0.3847	-0.45
Mof_O 	O 	0.26901	0.70049	0.3749	-0.445
Mof_O 	O 	0.2563	0.68266	0.5566	-0.537
Mof_O 	O 	0.2675	0.60117	0.1029	-0.454
Mof_O 	O 	0.26023	0.63774	0.0855	-0.496
Mof_O 	O 	0.27268	0.62149	0.2933	-0.452
Mof_O 	O 	0.05671	0.52768	0.5424	-0.476
Mof_O 	O 	0.0408	0.52341	0.3431	-0.475
Mof_O 	O 	0.07019	0.514	0.3428	-0.495
Mof_O 	O 	0.04878	0.52848	0.0415	-0.522
Mof_O 	O 	0.03525	0.5135	0.8384	-0.482
Mof_O 	O 	0.06469	0.52415	0.8446	-0.468
Mof_O 	O 	0.19974	0.51967	0.1636	-0.491
Mof_O 	O 	0.22792	0.52752	0.2033	-0.984
Mof_O 	O 	0.21246	0.50522	0.3675	-0.972
Mof_O 	O 	0.23918	0.7275	0.4117	-0.498
Mof_O 	O 	0.23092	0.76493	0.4063	-0.489
Mof_O 	O 	0.22782	0.7448	0.2138	-0.491
Mof_O 	O 	0.01397	0.52381	0.128	-0.45
Mof_F 	F 	0.25406	0.50508	0.1244	-1.422
Mof_H 	H 	0.2446	0.5393	0.8851	-0.058
Mof_H 	H 	0.1043	0.546	0.8039	-0.032
Mof_H 	H 	0.2902	0.6047	0.6156	-0.003
Mof_H 	H 	0.1497	0.5503	0.3461	-0.013
Mof_H 	H 	0.1681	0.5527	0.8654	0.006
Mof_H 	H 	0.2873	0.6247	0.0673	-0.032
Mof_H 	H 	0.0626	0.5509	0.3393	-0.018
Mof_H 	H 	0.2132	0.7373	0.4264	-0.025
Mof_Zn	Zn	0.64112	0.01634	0.67131	1.237
Mof_Zn	Zn	0.6778	0.01323	0.17371	1.224
Mof_Zn	Zn	0.76026	0.09143	0.92416	1.242
Mof_Zn	Zn	0.763	0.13803	0.42154	1.233
Mof_Zn	Zn	0.57069	0.0151	0.6636	1.23
Mof_Zn	Zn	0.53514	0.01512	0.1636	1.228
Mof_Zn	Zn	0.76199	0.2275	0.4141	1.226
Mof_P 	P 	0.75909	0.04454	0.9735	0.706
Mof_P 	P 	0.60566	0.02462	0.7182	0.484
Mof_P 	P 	0.77254	0.1093	0.6481	0.424
Mof_P 	P 	0.65423	0.0274	0.3921	0.434
Mof_P 	P 	0.66367	0.02892	0.8974	0.505
Mof_P 	P 	0.76965	0.18321	0.47	0.457
Mof_P 	P 	0.77157	0.12174	0.1429	0.439
Mof_P 	P 	0.55761	0.02827	0.3962	0.43
Mof_P 	P 	0.54834	0.02795	0.8944	0.474
Mof_P 	P 	0.71485	0.01148	0.2226	0.623
Mof_P 	P 	0.7282	0.24396	0.3591	0.453
Mof_O 	O 	0.77149	0.02783	0.9531	-0.914
Mof_O 	O 	0.75394	0.04756	0.1193	-1.017
Mof_O 	O 	0.76561	0.06396	0.9143	-0.46
Mof_O 	O 	0.62011	0.02556	0.6345	-0.449
Mof_O 	O 	0.5919	0.02416	0.6266	-0.451
Mof_O 	O 	0.60605	0.00758	0.8078	-0.523
Mof_O 	O 	0.77076	0.10896	0.7983	-0.447
Mof_O 	O 	0.77005	0.1307	0.6001	-0.466
Mof_O 	O 	0.76275	0.09375	0.5743	-0.476
Mof_O 	O 	0.65393	0.02859	0.5429	-0.451
Mof_O 	O 	0.67047	0.02207	0.3506	-0.437
Mof_O 	O 	0.64149	0.01293	0.3366	-0.479
Mof_O 	O 	0.64672	0.02486	0.847	-0.471
Mof_O 	O 	0.67559	0.01684	0.8286	-0.476
Mof_O 	O 	0.66417	0.02625	0.0442	-0.529
Mof_O 	O 	0.77009	0.16431	0.3847	-0.45
Mof_O 	O 	0.76901	0.20049	0.3749	-0.445
Mof_O 	O 	0.7563	0.18266	0.5566	-0.537
Mof_O 	O 	0.7675	0.10117	0.1029	-0.454
Mof_O 	O 	0.76023	0.13774	0.0855	-0.496
Mof_O 	O 	0.77268	0.12149	0.2933	-0.452
Mof_O 	O 	0.55671	0.02768	0.5424	-0.476
Mof_O 	O 	0.5408	0.02341	0.3431	-0.475
Mof_O 	O 	0.57019	0.014	0.3428	-0.495
Mof_O 	O 	0.54878	0.02848	0.0415	-0.522
Mof_O 	O 	0.53525	0.0135	0.8384	-0.482
Mof_O 	O 	0.56469	0.02415	0.8446	-0.468
Mof_O 	O 	0.69974	0.01967	0.1636	-0.491
Mof_O 	O 	0.72792	0.02752	0.2033	-0.984
Mof_O 	O 	0.71246	0.00522	0.3675	-0.972
Mof_O 	O 	0.73918	0.2275	0.4117	-0.498
Mof_O 	O 	0.73092	0.26493	0.4063	-0.489
Mof_O 	O 	0.72782	0.2448	0.2138	-0.491
Mof_O 	O 	0.51397	0.02381	0.128	-0.45
Mof_F 	F 	0.75406	0.00508	0.1244	-1.422
Mof_H 	H 	0.7446	0.0393	0.8851	-0.058
Mof_H 	H 	0.6043	0.046	0.8039	-0.032
Mof_H 	H 	0.7902	0.1047	0.6156	-0.003
Mof_H 	H 	0.6497	0.0503	0.3461	-0.013
Mof_H 	H 	0.6681	0.0527	0.8654	0.006
Mof_H 	H 	0.7873	0.1247	0.0673	-0.032
Mof_H 	H 	0.5626	0.0509	0.3393	-0.018
Mof_H 	H 	0.7132	0.2373	0.4264	-0.025
Mof_Zn	Zn	0.85888	0.98366	0.17131	1.233
Mof_Zn	Zn	0.8222	0.98677	0.67371	1.229
Mof_Zn	Zn	0.73974	0.90857	0.42416	1.23
Mof_Zn	Zn	0.737	0.86197	0.92154	1.246
Mof_Zn	Zn	0.92931	0.9849	0.1636	1.226
Mof_Zn	Zn	0.96486	0.98488	0.6636	1.231
Mof_Zn	Zn	0.73801	0.7725	0.9141	1.238
Mof_P 	P 	0.74091	0.95546	0.4735	0.664
Mof_P 	P 	0.89434	0.97538	0.2182	0.483
Mof_P 	P 	0.72746	0.8907	0.1481	0.422
Mof_P 	P 	0.84577	0.9726	0.8921	0.484
Mof_P 	P 	0.83633	0.97108	0.3974	0.453
Mof_P 	P 	0.73035	0.81679	0.97	0.521
Mof_P 	P 	0.72843	0.87826	0.6429	0.44
Mof_P 	P 	0.94239	0.97173	0.8962	0.48
Mof_P 	P 	0.95166	0.97205	0.3944	0.421
Mof_P 	P 	0.78515	0.98852	0.7226	0.626
Mof_P 	P 	0.7718	0.75604	0.8591	0.454
Mof_O 	O 	0.72851	0.97217	0.4531	-0.996
Mof_O 	O 	0.74606	0.95244	0.6193	-0.972
Mof_O 	O 	0.73439	0.93604	0.4143	-0.473
Mof_O 	O 	0.87989	0.97444	0.1345	-0.468
Mof_O 	O 	0.9081	0.97584	0.1266	-0.471
Mof_O 	O 	0.89395	0.99242	0.3078	-0.548
Mof_O 	O 	0.72924	0.89104	0.2983	-0.467
Mof_O 	O 	0.72995	0.8693	0.1001	-0.499
Mof_O 	O 	0.73725	0.90625	0.0743	-0.498
Mof_O 	O 	0.84607	0.97141	0.0429	-0.503
Mof_O 	O 	0.82953	0.97793	0.8506	-0.424
Mof_O 	O 	0.85851	0.98707	0.8366	-0.466
Mof_O 	O 	0.85328	0.97514	0.347	-0.481
Mof_O 	O 	0.82441	0.98316	0.3286	-0.484
Mof_O 	O 	0.83583	0.97375	0.5442	-0.475
Mof_O 	O 	0.72991	0.83569	0.8847	-0.442
Mof_O 	O 	0.73099	0.79951	0.8749	-0.439
Mof_O 	O 	0.7437	0.81734	0.0566	-0.602
Mof_O 	O 	0.7325	0.89883	0.6029	-0.421
Mof_O 	O 	0.73977	0.86226	0.5855	-0.474
Mof_O 	O 	0.72732	0.87851	0.7933	-0.433
Mof_O 	O 	0.94329	0.97232	0.0424	-0.527
Mof_O 	O 	0.9592	0.97659	0.8431	-0.465
Mof_O 	O 	0.92981	0.986	0.8428	-0.484
Mof_O 	O 	0.95122	0.97152	0.5415	-0.474
Mof_O 	O 	0.96475	0.9865	0.3384	-0.493
Mof_O 	O 	0.93531	0.97585	0.3446	-0.477
Mof_O 	O 	0.80026	0.98033	0.6636	-0.468
Mof_O 	O 	0.77208	0.97248	0.7033	-0.964
Mof_O 	O 	0.78754	0.99478	0.8675	-0.89
Mof_O 	O 	0.76082	0.7725	0.9117	-0.478
Mof_O 	O 	0.76908	0.73507	0.9063	-0.457
Mof_O 	O 	0.77218	0.7552	0.7138	-0.472
Mof_O 	O 	0.98603	0.97619	0.628	-0.432
Mof_F 	F 	0.74594	0.99492	0.6244	-1.444
Mof_H 	H 	0.7554	0.9607	0.3851	-0.069
Mof_H 	H 	0.8957	0.954	0.3039	-0.047
Mof_H 	H 	0.7098	0.8953	0.1156	-0.021
Mof_H 	H 	0.8503	0.9497	0.8461	0.005
Mof_H 	H 	0.8319	0.9473	0.3654	-0.009
Mof_H 	H 	0.7127	0.8753	0.5673	-0.012
Mof_H 	H 	0.9374	0.9491	0.8393	-0.003
Mof_H 	H 	0.7868	0.7627	0.9264	-0.007
Mof_Zn	Zn	0.35888	0.48366	0.17131	1.233
Mof_Zn	Zn	0.3222	0.48677	0.67371	1.229
Mof_Zn	Zn	0.23974	0.40857	0.42416	1.23
Mof_Zn	Zn	0.237	0.36197	0.92154	1.246
Mof_Zn	Zn	0.42931	0.4849	0.1636	1.226
Mof_Zn	Zn	0.46486	0.48488	0.6636	1.231
Mof_Zn	Zn	0.23801	0.2725	0.9141	1.238
Mof_P 	P 	0.24091	0.45546	0.4735	0.664
Mof_P 	P 	0.39434	0.47538	0.2182	0.483
Mof_P 	P 	0.22746	0.3907	0.1481	0.422
Mof_P 	P 	0.34577	0.4726	0.8921	0.484
Mof_P 	P 	0.33633	0.47108	0.3974	0.453
Mof_P 	P 	0.23035	0.31679	0.97	0.521
Mof_P 	P 	0.22843	0.37826	0.6429	0.44
Mof_P 	P 	0.44239	0.47173	0.8962	0.48
Mof_P 	P 	0.45166	0.47205	0.3944	0.421
Mof_P 	P 	0.28515	0.48852	0.7226	0.625
Mof_P 	P 	0.2718	0.25604	0.8591	0.454
Mof_O 	O 	0.22851	0.47217	0.4531	-0.996
Mof_O 	O 	0.24606	0.45244	0.6193	-0.972
Mof_O 	O 	0.23439	0.43604	0.4143	-0.473
Mof_O 	O 	0.37989	0.47444	0.1345	-0.468
Mof_O 	O 	0.4081	0.47584	0.1266	-0.471
Mof_O 	O 	0.39395	0.49242	0.3078	-0.548
Mof_O 	O 	0.22924	0.39104	0.2983	-0.467
Mof_O 	O 	0.22995	0.3693	0.1001	-0.499
Mof_O 	O 	0.23725	0.40625	0.0743	-0.498
Mof_O 	O 	0.34607	0.47141	0.0429	-0.503
Mof_O 	O 	0.32953	0.47793	0.8506	-0.424
Mof_O 	O 	0.35851	0.48707	0.8366	-0.466
Mof_O 	O 	0.35328	0.47514	0.347	-0.481
Mof_O 	O 	0.32441	0.48316	0.3286	-0.485
Mof_O 	O 	0.33583	0.47375	0.5442	-0.475
Mof_O 	O 	0.22991	0.33569	0.8847	-0.442
Mof_O 	O 	0.23099	0.29951	0.8749	-0.439
Mof_O 	O 	0.2437	0.31734	0.0566	-0.602
Mof_O 	O 	0.2325	0.39883	0.6029	-0.421
Mof_O 	O 	0.23977	0.36226	0.5855	-0.474
Mof_O 	O 	0.22732	0.37851	0.7933	-0.433
Mof_O 	O 	0.44329	0.47232	0.0424	-0.527
Mof_O 	O 	0.4592	0.47659	0.8431	-0.465
Mof_O 	O 	0.42981	0.486	0.8428	-0.484
Mof_O 	O 	0.45122	0.47152	0.5415	-0.474
Mof_O 	O 	0.46475	0.4865	0.3384	-0.493
Mof_O 	O 	0.43531	0.47585	0.3446	-0.477
Mof_O 	O 	0.30026	0.48033	0.6636	-0.468
Mof_O 	O 	0.27208	0.47248	0.7033	-0.964
Mof_O 	O 	0.28754	0.49478	0.8675	-0.89
Mof_O 	O 	0.26082	0.2725	0.9117	-0.478
Mof_O 	O 	0.26908	0.23507	0.9063	-0.457
Mof_O 	O 	0.27218	0.2552	0.7138	-0.472
Mof_O 	O 	0.48603	0.47619	0.628	-0.432
Mof_F 	F 	0.24594	0.49492	0.6244	-1.444
Mof_H 	H 	0.2554	0.4607	0.3851	-0.069
Mof_H 	H 	0.3957	0.454	0.3039	-0.047
Mof_H 	H 	0.2098	0.3953	0.1156	-0.021
Mof_H 	H 	0.3503	0.4497	0.8461	0.005
Mof_H 	H 	0.3319	0.4473	0.3654	-0.009
Mof_H 	H 	0.2127	0.3753	0.5673	-0.012
Mof_H 	H 	0.4374	0.4491	0.8393	-0.003
Mof_H 	H 	0.2868	0.2627	0.9264	-0.007
Mof_Ga	Ga	0.25	0.97286	0.75	4.388
Mof_Ga	Ga	0.75	0.52714	0.25	4.376
Mof_Ga	Ga	0.75	0.47286	0.75	4.388
Mof_Ga	Ga	0.25	0.02714	0.25	4.376
Mof_Ga	Ga	0.75	0.02714	0.25	4.376
Mof_Ga	Ga	0.25	0.52714	0.25	4.376
Mof_Ga	Ga	0.25	0.47286	0.75	4.388
Mof_Ga	Ga	0.75	0.97286	0.75	4.388
Mof_Ga	Ga	0.22855	0	-0	4.099
Mof_Ga	Ga	0.72855	0.5	-0	4.099
Mof_Ga	Ga	0.77145	0.5	0.5	4.418
Mof_Ga	Ga	0.27145	9.02891e-34	0.5	4.418
Mof_Ga	Ga	0.77145	0	-0	4.099
Mof_Ga	Ga	0.27145	0.5	-0	4.099
Mof_Ga	Ga	0.22855	0.5	0.5	4.418
Mof_Ga	Ga	0.72855	9.02891e-34	0.5	4.418
Mof_Zn	Zn	0.25	0.81729	0.25	1.139
Mof_Zn	Zn	0.75	0.68271	0.75	1.148
Mof_Zn	Zn	0.75	0.31729	0.25	1.139
Mof_Zn	Zn	0.25	0.18271	0.75	1.148
Mof_Zn	Zn	0.75	0.18271	0.75	1.148
Mof_Zn	Zn	0.25	0.31729	0.25	1.139
Mof_Zn	Zn	0.25	0.68271	0.75	1.148
Mof_Zn	Zn	0.75	0.81729	0.25	1.139
Mof_Zn	Zn	-0	0	-0	1.12
Mof_Zn	Zn	0.5	0.5	-0	1.12
Mof_Zn	Zn	-4.29059e-33	0.5	0.5	1.138
Mof_Zn	Zn	0.5	9.02891e-34	0.5	1.138
Mof_Zn	Zn	0.10596	9.02891e-34	0.5	1.147
Mof_Zn	Zn	0.60596	0.5	0.5	1.147
Mof_Zn	Zn	0.89404	0.5	-0	1.128
Mof_Zn	Zn	0.39404	0	-0	1.128
Mof_Zn	Zn	0.89404	9.02891e-34	0.5	1.147
Mof_Zn	Zn	0.39404	0.5	0.5	1.147
Mof_Zn	Zn	0.10596	0.5	-0	1.128
Mof_Zn	Zn	0.60596	0	-0	1.128
Mof_P 	P 	1.29634e-32	0.97484	0.7212	0.414
Mof_O 	O 	-5.05854e-33	0.9937	0.8014	-0.487
Mof_P 	P 	0.5	0.47484	0.7212	0.414
Mof_O 	O 	0.5	0.4937	0.8014	-0.487
Mof_P 	P 	-8.03856e-34	0.52516	0.2212	0.406
Mof_O 	O 	-4.37951e-33	0.5063	0.3014	-0.51
Mof_P 	P 	0.5	0.02516	0.2212	0.406
Mof_O 	O 	0.5	0.0063	0.3014	-0.51
Mof_P 	P 	2.15446e-33	0.47484	0.7788	0.408
Mof_O 	O 	-4.20168e-33	0.4937	0.6986	-0.502
Mof_P 	P 	0.5	0.97484	0.7788	0.408
Mof_O 	O 	0.5	0.9937	0.6986	-0.502
Mof_P 	P 	1.24823e-34	0.02516	0.2788	0.4
Mof_O 	O 	3.14639e-34	0.0063	0.1986	-0.516
Mof_P 	P 	0.5	0.52516	0.2788	0.4
Mof_O 	O 	0.5	0.5063	0.1986	-0.516
_end
