# CIF file generated by openbabel 3.1.0, see https://openbabel.org
data_I
_chemical_name_common 'image0'
_cell_length_a 17.6726
_cell_length_b 20.0232
_cell_length_c 10.5553
_cell_angle_alpha 90
_cell_angle_beta 91.129
_cell_angle_gamma 90
_space_group_name_H-M_alt 'P 1'
_space_group_name_Hall 'P 1'
loop_
    _symmetry_equiv_pos_as_xyz
    x,y,z
loop_
    _atom_site_label
    _atom_site_type_symbol
    _atom_site_fract_x
    _atom_site_fract_y
    _atom_site_fract_z
    _atom_site_occupancy
    Eu1      Eu       0.49184    0.48190    0.75354    1.000
    Eu2      Eu       0.00007    0.26563    0.32222    1.000
    O1       O        0.40820    0.47200    0.91600    1.000
    O2       O        0.39980    0.49750    0.12030    1.000
    O3       O        0.10040    0.25800    0.96690    1.000
    O4       O        0.08000    0.29750    0.16120    1.000
    O5       O        0.56330    0.45220    0.58410    1.000
    O6       O        0.59670    0.46570    0.38470    1.000
    O7       O        0.92020    0.27560    0.48970    1.000
    O8       O        0.90640    0.28870    0.69770    1.000
    O9       O        0.47960    0.59900    0.83590    1.000
    O10      O        0.55310    0.58770    0.67840    1.000
    O11      O        0.54440    0.68370    0.77060    1.000
    O12      O        0.98460    0.14550    0.39650    1.000
    O13      O        0.05940    0.16150    0.24060    1.000
    O14      O        0.03090    0.06020    0.29750    1.000
    N1       N        0.52570    0.62500    0.76120    1.000
    N2       N        0.02480    0.12060    0.31180    1.000
    C1       C        0.11460    0.29610    0.05950    1.000
    C2       C        0.17960    0.34380    0.04660    1.000
    C3       C        0.21700    0.35080    0.93290    1.000
    H1       H        0.19960    0.32670    0.86060    1.000
    C4       C        0.27840    0.39180    0.92310    1.000
    H2       H        0.30290    0.39640    0.84430    1.000
    C5       C        0.30510    0.42700    0.02910    1.000
    C6       C        0.26760    0.42130    0.14160    1.000
    H3       H        0.28500    0.44560    0.21370    1.000
    C7       C        0.20490    0.38070    0.15040    1.000
    H4       H        0.17880    0.37800    0.22810    1.000
    C8       C        0.37570    0.46910    0.02100    1.000
    C9       C        0.60750    0.44350    0.49410    1.000
    C10      C        0.67780    0.40240    0.51820    1.000
    C11      C        0.71910    0.38010    0.41740    1.000
    H5       H        0.70260    0.38970    0.33320    1.000
    C12      C        0.78470    0.34350    0.43860    1.000
    H6       H        0.81260    0.32740    0.36890    1.000
    C13      C        0.80960    0.33050    0.56090    1.000
    C14      C        0.76830    0.35220    0.66050    1.000
    H7       H        0.78510    0.34220    0.74440    1.000
    C15      C        0.70260    0.38820    0.64190    1.000
    H8       H        0.67450    0.40320    0.71230    1.000
    C16      C        0.88460    0.29530    0.58520    1.000
    Eu3      Eu       0.50816    0.98190    0.74646    1.000
    Eu4      Eu       0.99993    0.76563    0.17778    1.000
    O15      O        0.59180    0.97200    0.58400    1.000
    O16      O        0.60020    0.99750    0.37970    1.000
    O17      O        0.89960    0.75800    0.53310    1.000
    O18      O        0.92000    0.79750    0.33880    1.000
    O19      O        0.43670    0.95220    0.91590    1.000
    O20      O        0.40330    0.96570    0.11530    1.000
    O21      O        0.07980    0.77560    0.01030    1.000
    O22      O        0.09360    0.78870    0.80230    1.000
    O23      O        0.52040    0.09900    0.66410    1.000
    O24      O        0.44690    0.08770    0.82160    1.000
    O25      O        0.45560    0.18370    0.72940    1.000
    O26      O        0.01540    0.64550    0.10350    1.000
    O27      O        0.94060    0.66150    0.25940    1.000
    O28      O        0.96910    0.56020    0.20250    1.000
    N3       N        0.47430    0.12500    0.73880    1.000
    N4       N        0.97520    0.62060    0.18820    1.000
    C17      C        0.88540    0.79610    0.44050    1.000
    C18      C        0.82040    0.84380    0.45340    1.000
    C19      C        0.78300    0.85080    0.56710    1.000
    H9       H        0.80040    0.82670    0.63940    1.000
    C20      C        0.72160    0.89180    0.57690    1.000
    H10      H        0.69710    0.89640    0.65570    1.000
    C21      C        0.69490    0.92700    0.47090    1.000
    C22      C        0.73240    0.92130    0.35840    1.000
    H11      H        0.71500    0.94560    0.28630    1.000
    C23      C        0.79510    0.88070    0.34960    1.000
    H12      H        0.82120    0.87800    0.27190    1.000
    C24      C        0.62430    0.96910    0.47900    1.000
    C25      C        0.39250    0.94350    0.00590    1.000
    C26      C        0.32220    0.90240    0.98180    1.000
    C27      C        0.28090    0.88010    0.08260    1.000
    H13      H        0.29740    0.88970    0.16680    1.000
    C28      C        0.21530    0.84350    0.06140    1.000
    H14      H        0.18740    0.82740    0.13110    1.000
    C29      C        0.19040    0.83050    0.93910    1.000
    C30      C        0.23170    0.85220    0.83950    1.000
    H15      H        0.21490    0.84220    0.75560    1.000
    C31      C        0.29740    0.88820    0.85810    1.000
    H16      H        0.32550    0.90320    0.78770    1.000
    C32      C        0.11540    0.79530    0.91480    1.000
    Eu5      Eu       0.50816    0.51810    0.24646    1.000
    Eu6      Eu       0.99993    0.73437    0.67778    1.000
    O29      O        0.59180    0.52800    0.08400    1.000
    O30      O        0.60020    0.50250    0.87970    1.000
    O31      O        0.89960    0.74200    0.03310    1.000
    O32      O        0.92000    0.70250    0.83880    1.000
    O33      O        0.43670    0.54780    0.41590    1.000
    O34      O        0.40330    0.53430    0.61530    1.000
    O35      O        0.07980    0.72440    0.51030    1.000
    O36      O        0.09360    0.71130    0.30230    1.000
    O37      O        0.52040    0.40100    0.16410    1.000
    O38      O        0.44690    0.41230    0.32160    1.000
    O39      O        0.45560    0.31630    0.22940    1.000
    O40      O        0.01540    0.85450    0.60350    1.000
    O41      O        0.94060    0.83850    0.75940    1.000
    O42      O        0.96910    0.93980    0.70250    1.000
    N5       N        0.47430    0.37500    0.23880    1.000
    N6       N        0.97520    0.87940    0.68820    1.000
    C33      C        0.88540    0.70390    0.94050    1.000
    C34      C        0.82040    0.65620    0.95340    1.000
    C35      C        0.78300    0.64920    0.06710    1.000
    H17      H        0.80040    0.67330    0.13940    1.000
    C36      C        0.72160    0.60820    0.07690    1.000
    H18      H        0.69710    0.60360    0.15570    1.000
    C37      C        0.69490    0.57300    0.97090    1.000
    C38      C        0.73240    0.57870    0.85840    1.000
    H19      H        0.71500    0.55440    0.78630    1.000
    C39      C        0.79510    0.61930    0.84960    1.000
    H20      H        0.82120    0.62200    0.77190    1.000
    C40      C        0.62430    0.53090    0.97900    1.000
    C41      C        0.39250    0.55650    0.50590    1.000
    C42      C        0.32220    0.59760    0.48180    1.000
    C43      C        0.28090    0.61990    0.58260    1.000
    H21      H        0.29740    0.61030    0.66680    1.000
    C44      C        0.21530    0.65650    0.56140    1.000
    H22      H        0.18740    0.67260    0.63110    1.000
    C45      C        0.19040    0.66950    0.43910    1.000
    C46      C        0.23170    0.64780    0.33950    1.000
    H23      H        0.21490    0.65780    0.25560    1.000
    C47      C        0.29740    0.61180    0.35810    1.000
    H24      H        0.32550    0.59680    0.28770    1.000
    C48      C        0.11540    0.70470    0.41480    1.000
    Eu7      Eu       0.49184    0.01810    0.25354    1.000
    Eu8      Eu       0.00007    0.23437    0.82222    1.000
    O43      O        0.40820    0.02800    0.41600    1.000
    O44      O        0.39980    0.00250    0.62030    1.000
    O45      O        0.10040    0.24200    0.46690    1.000
    O46      O        0.08000    0.20250    0.66120    1.000
    O47      O        0.56330    0.04780    0.08410    1.000
    O48      O        0.59670    0.03430    0.88470    1.000
    O49      O        0.92020    0.22440    0.98970    1.000
    O50      O        0.90640    0.21130    0.19770    1.000
    O51      O        0.47960    0.90100    0.33590    1.000
    O52      O        0.55310    0.91230    0.17840    1.000
    O53      O        0.54440    0.81630    0.27060    1.000
    O54      O        0.98460    0.35450    0.89650    1.000
    O55      O        0.05940    0.33850    0.74060    1.000
    O56      O        0.03090    0.43980    0.79750    1.000
    N7       N        0.52570    0.87500    0.26120    1.000
    N8       N        0.02480    0.37940    0.81180    1.000
    C49      C        0.11460    0.20390    0.55950    1.000
    C50      C        0.17960    0.15620    0.54660    1.000
    C51      C        0.21700    0.14920    0.43290    1.000
    H25      H        0.19960    0.17330    0.36060    1.000
    C52      C        0.27840    0.10820    0.42310    1.000
    H26      H        0.30290    0.10360    0.34430    1.000
    C53      C        0.30510    0.07300    0.52910    1.000
    C54      C        0.26760    0.07870    0.64160    1.000
    H27      H        0.28500    0.05440    0.71370    1.000
    C55      C        0.20490    0.11930    0.65040    1.000
    H28      H        0.17880    0.12200    0.72810    1.000
    C56      C        0.37570    0.03090    0.52100    1.000
    C57      C        0.60750    0.05650    0.99410    1.000
    C58      C        0.67780    0.09760    0.01820    1.000
    C59      C        0.71910    0.11990    0.91740    1.000
    H29      H        0.70260    0.11030    0.83320    1.000
    C60      C        0.78470    0.15650    0.93860    1.000
    H30      H        0.81260    0.17260    0.86890    1.000
    C61      C        0.80960    0.16950    0.06090    1.000
    C62      C        0.76830    0.14780    0.16050    1.000
    H31      H        0.78510    0.15780    0.24440    1.000
    C63      C        0.70260    0.11180    0.14190    1.000
    H32      H        0.67450    0.09680    0.21230    1.000
    C64      C        0.88460    0.20470    0.08520    1.000
