data_functionalizedCrystal
_audit_creation_method	'EQeq! by Chris Wilmer'
_symmetry_space_group_name_H-M	'P1'
_symmetry_Int_Tables_number	1
_symmetry_cell_setting	triclinic
loop_
_symmetry_equiv_pos_as_xyz
  x,y,z
_cell_length_a	18.283
_cell_length_b	18.283
_cell_length_c	18.283
_cell_angle_alpha	60
_cell_angle_beta	60
_cell_angle_gamma	60
loop_
_atom_site_label
_atom_site_type_symbol
_atom_site_fract_x
_atom_site_fract_y
_atom_site_fract_z
_atom_site_charge
Mof_Zn	Zn	0.20657	0.38031	0.20656	1.211
Mof_Zn	Zn	0.38032	0.20656	0.20656	1.211
Mof_Zn	Zn	0.20657	0.20656	0.20656	1.211
Mof_Zn	Zn	0.20657	0.20656	0.38031	1.211
Mof_Zn	Zn	0.61968	0.79344	0.79344	1.211
Mof_Zn	Zn	0.79343	0.61969	0.79344	1.211
Mof_Zn	Zn	0.79343	0.79344	0.79344	1.211
Mof_Zn	Zn	0.79343	0.79344	0.61969	1.211
Mof_H 	H 	0.045	0.5654	0.045	0.047
Mof_H 	H 	0.5654	0.045	0.3446	0.047
Mof_H 	H 	0.045	0.3446	0.045	0.047
Mof_H 	H 	0.3446	0.045	0.5654	0.047
Mof_H 	H 	0.045	0.045	0.3446	0.048
Mof_H 	H 	0.5654	0.3446	0.045	0.048
Mof_H 	H 	0.045	0.045	0.5654	0.048
Mof_H 	H 	0.3446	0.5654	0.045	0.048
Mof_H 	H 	0.045	0.3446	0.5654	0.048
Mof_H 	H 	0.5654	0.045	0.045	0.048
Mof_H 	H 	0.045	0.5654	0.3446	0.048
Mof_H 	H 	0.3446	0.045	0.045	0.048
Mof_H 	H 	0.4346	0.955	0.955	0.048
Mof_H 	H 	0.955	0.4346	0.6554	0.048
Mof_H 	H 	0.6554	0.955	0.955	0.048
Mof_H 	H 	0.955	0.6554	0.4346	0.048
Mof_H 	H 	0.955	0.955	0.6554	0.048
Mof_H 	H 	0.6554	0.4346	0.955	0.048
Mof_H 	H 	0.955	0.955	0.4346	0.048
Mof_H 	H 	0.4346	0.6554	0.955	0.048
Mof_H 	H 	0.6554	0.955	0.4346	0.048
Mof_H 	H 	0.955	0.4346	0.955	0.048
Mof_H 	H 	0.4346	0.955	0.6554	0.048
Mof_H 	H 	0.955	0.6554	0.955	0.048
Mof_C 	C 	0.0267	0.53864	0.0267	-0.013
Mof_C 	C 	0.53864	0.0267	0.40796	-0.013
Mof_C 	C 	0.0267	0.40796	0.0267	-0.013
Mof_C 	C 	0.40796	0.0267	0.53864	-0.013
Mof_C 	C 	0.0267	0.0267	0.40796	-0.013
Mof_C 	C 	0.53864	0.40796	0.0267	-0.013
Mof_C 	C 	0.0267	0.0267	0.53864	-0.013
Mof_C 	C 	0.40796	0.53864	0.0267	-0.013
Mof_C 	C 	0.0267	0.40796	0.53864	-0.013
Mof_C 	C 	0.53864	0.0267	0.0267	-0.013
Mof_C 	C 	0.0267	0.53864	0.40796	-0.013
Mof_C 	C 	0.40796	0.0267	0.0267	-0.013
Mof_C 	C 	0.46136	0.9733	0.9733	-0.013
Mof_C 	C 	0.9733	0.46136	0.59204	-0.013
Mof_C 	C 	0.59204	0.9733	0.9733	-0.013
Mof_C 	C 	0.9733	0.59204	0.46136	-0.013
Mof_C 	C 	0.9733	0.9733	0.59204	-0.013
Mof_C 	C 	0.59204	0.46136	0.9733	-0.013
Mof_C 	C 	0.9733	0.9733	0.46136	-0.013
Mof_C 	C 	0.46136	0.59204	0.9733	-0.013
Mof_C 	C 	0.59204	0.9733	0.46136	-0.013
Mof_C 	C 	0.9733	0.46136	0.9733	-0.013
Mof_C 	C 	0.46136	0.9733	0.59204	-0.013
Mof_C 	C 	0.9733	0.59204	0.9733	-0.013
Mof_C 	C 	0.11148	0.38852	0.11148	0.389
Mof_C 	C 	0.05372	0.44628	0.05372	-0.09
Mof_C 	C 	0.38852	0.11148	0.38852	0.389
Mof_C 	C 	0.44628	0.05372	0.44628	-0.09
Mof_C 	C 	0.11148	0.11148	0.38852	0.389
Mof_C 	C 	0.05372	0.05372	0.44628	-0.09
Mof_C 	C 	0.38852	0.38852	0.11148	0.389
Mof_C 	C 	0.44628	0.44628	0.05372	-0.09
Mof_C 	C 	0.11148	0.38852	0.38852	0.389
Mof_C 	C 	0.05372	0.44628	0.44628	-0.09
Mof_C 	C 	0.38852	0.11148	0.11148	0.389
Mof_C 	C 	0.44628	0.05372	0.05372	-0.09
Mof_C 	C 	0.61148	0.88852	0.88852	0.389
Mof_C 	C 	0.55372	0.94628	0.94628	-0.09
Mof_C 	C 	0.88852	0.61148	0.61148	0.389
Mof_C 	C 	0.94628	0.55372	0.55372	-0.09
Mof_C 	C 	0.88852	0.88852	0.61148	0.389
Mof_C 	C 	0.94628	0.94628	0.55372	-0.09
Mof_C 	C 	0.61148	0.61148	0.88852	0.389
Mof_C 	C 	0.55372	0.55372	0.94628	-0.09
Mof_C 	C 	0.61148	0.88852	0.61148	0.389
Mof_C 	C 	0.55372	0.94628	0.55372	-0.09
Mof_C 	C 	0.88852	0.61148	0.88852	0.389
Mof_C 	C 	0.94628	0.55372	0.94628	-0.09
Mof_O 	O 	0.25	0.25	0.25	-0.96
Mof_O 	O 	0.75	0.75	0.75	-0.96
Mof_O 	O 	0.13373	0.42751	0.13373	-0.508
Mof_O 	O 	0.42751	0.13373	0.30503	-0.508
Mof_O 	O 	0.13373	0.30503	0.13373	-0.508
Mof_O 	O 	0.30503	0.13373	0.42751	-0.508
Mof_O 	O 	0.13373	0.13373	0.30503	-0.508
Mof_O 	O 	0.42751	0.30503	0.13373	-0.508
Mof_O 	O 	0.13373	0.13373	0.42751	-0.508
Mof_O 	O 	0.30503	0.42751	0.13373	-0.508
Mof_O 	O 	0.13373	0.30503	0.42751	-0.508
Mof_O 	O 	0.42751	0.13373	0.13373	-0.508
Mof_O 	O 	0.13373	0.42751	0.30503	-0.508
Mof_O 	O 	0.30503	0.13373	0.13373	-0.508
Mof_O 	O 	0.57249	0.86627	0.86627	-0.508
Mof_O 	O 	0.86627	0.57249	0.69497	-0.508
Mof_O 	O 	0.69497	0.86627	0.86627	-0.508
Mof_O 	O 	0.86627	0.69497	0.57249	-0.508
Mof_O 	O 	0.86627	0.86627	0.69497	-0.508
Mof_O 	O 	0.69497	0.57249	0.86627	-0.508
Mof_O 	O 	0.86627	0.86627	0.57249	-0.508
Mof_O 	O 	0.57249	0.69497	0.86627	-0.508
Mof_O 	O 	0.69497	0.86627	0.57249	-0.508
Mof_O 	O 	0.86627	0.57249	0.86627	-0.508
Mof_O 	O 	0.57249	0.86627	0.69497	-0.508
Mof_O 	O 	0.86627	0.69497	0.86627	-0.508
_end
