data_functionalizedCrystal
_audit_creation_method	'EQeq! by Chris Wilmer'
_symmetry_space_group_name_H-M	'P1'
_symmetry_Int_Tables_number	1
_symmetry_cell_setting	triclinic
loop_
_symmetry_equiv_pos_as_xyz
  x,y,z
_cell_length_a	15.744
_cell_length_b	17.892
_cell_length_c	18.302
_cell_angle_alpha	98.086
_cell_angle_beta	111.634
_cell_angle_gamma	104.923
loop_
_atom_site_label
_atom_site_type_symbol
_atom_site_fract_x
_atom_site_fract_y
_atom_site_fract_z
_atom_site_charge
Mof_Co	Co	0.26062	0.24466	0.26093	1.134
Mof_Co	Co	0.26184	0.26517	0.76806	1.229
Mof_Co	Co	0.98105	0.36516	0.59961	1.231
Mof_Co	Co	0.72679	0.10107	0.39485	1.252
Mof_Co	Co	0.23669	0.72437	0.21782	1.243
Mof_P 	P 	0.36674	0.34492	0.36961	-0.082
Mof_P 	P 	0.15942	0.14708	0.1489	-0.082
Mof_P 	P 	0.21488	0.38886	0.64937	0.411
Mof_P 	P 	0.41081	0.6495	0.22172	0.404
Mof_P 	P 	0.75061	0.25524	0.5297	0.419
Mof_P 	P 	0.75302	0.98578	0.16244	0.438
Mof_P 	P 	0.30414	0.84755	0.10284	0.413
Mof_P 	P 	0.08454	0.2721	0.82723	0.398
Mof_H 	H 	0.6484	0.045	0.135	0.254
Mof_H 	H 	0.0316	0.9847	0.1113	0.069
Mof_H 	H 	0.882	0.9273	0.1144	0.031
Mof_H 	H 	0.8741	0.1489	0.1881	0.027
Mof_H 	H 	0.0238	0.2064	0.185	0.056
Mof_H 	H 	0.5757	0.4341	0.4311	0.068
Mof_H 	H 	0.7159	0.402	0.4931	0.038
Mof_H 	H 	0.5502	0.1807	0.4785	0.012
Mof_H 	H 	0.4101	0.2128	0.4165	0.055
Mof_H 	H 	0.1993	0.3747	0.3775	0.049
Mof_H 	H 	0.1426	0.3907	0.4782	0.034
Mof_H 	H 	0.3859	0.3693	0.6422	0.034
Mof_H 	H 	0.4426	0.3533	0.5415	0.066
Mof_H 	H 	0.339	0.4982	0.4021	0.061
Mof_H 	H 	0.3494	0.606	0.3429	0.034
Mof_H 	H 	0.4603	0.5041	0.2041	0.018
Mof_H 	H 	0.45	0.3964	0.2634	0.061
Mof_H 	H 	0.2262	0.0792	0.033	0.069
Mof_H 	H 	0.2774	0.9687	0.0167	0.048
Mof_H 	H 	0.2496	0.9217	0.2185	0.055
Mof_H 	H 	0.1985	0.0322	0.2349	0.062
Mof_H 	H 	0.4347	0.374	0.827	0.35
Mof_H 	H 	0.37	0.411	0.799	0.336
Mof_H 	H 	0.167	0.116	0.73	0.346
Mof_H 	H 	0.109	0.16	0.729	0.318
Mof_H 	H 	0.39	0.233	0.702	0.286
Mof_H 	H 	0.3956	0.243	0.887	0.342
Mof_H 	H 	0.317	0.1818	0.874	0.365
Mof_H 	H 	0.2532	0.2826	0.9673	0.042
Mof_H 	H 	0.9626	0.1803	0.8897	0.032
Mof_H 	H 	0.9886	0.1353	0.0073	0.064
Mof_H 	H 	0.2788	0.2409	0.087	0.055
Mof_H 	H 	0.022	0.387	0.753	0.354
Mof_H 	H 	0.072	0.4577	0.749	0.365
Mof_H 	H 	0.999	0.229	0.656	0.349
Mof_H 	H 	0.0537	0.262	0.621	0.327
Mof_H 	H 	0.94	0.494	0.608	0.303
Mof_H 	H 	0.017	0.509	0.59	0.315
Mof_H 	H 	0.967	0.291	0.458	0.327
Mof_H 	H 	0.878	0.282	0.456	0.362
Mof_H 	H 	0.731	0.98	0.311	0.368
Mof_H 	H 	0.657	0.9415	0.327	0.362
Mof_H 	H 	0.673	0.0973	0.506	0.329
Mof_H 	H 	0.5944	0.038	0.448	0.304
Mof_H 	H 	0.353	0.798	0.3681	0.346
Mof_H 	H 	0.401	0.766	0.333	0.355
Mof_H 	H 	0.1195	0.796	0.262	0.369
Mof_H 	H 	0.208	0.806	0.3181	0.356
Mof_H 	H 	0.056	0.663	0.124	0.34
Mof_H 	H 	0.1	0.675	0.0735	0.329
Mof_H 	H 	0.171	0.648	0.313	0.381
Mof_H 	H 	0.15	0.5904	0.248	0.368
Mof_H 	H 	0.768	0.112	0.2732	0.341
Mof_H 	H 	0.851	0.162	0.333	0.31
Mof_H 	H 	0.569	0.082	0.2612	0.306
Mof_H 	H 	0.542	0.074	0.32	0.29
Mof_H 	H 	0.895	0.076	0.478	0.324
Mof_H 	H 	0.907	0.147	0.523	0.343
Mof_C 	C 	0.36	0.2284	0.2427	-0.254
Mof_C 	C 	0.2154	0.1913	0.3224	-0.256
Mof_C 	C 	0.203	0.3127	0.2181	-0.252
Mof_C 	C 	0.04173	0.10094	0.14788	0.029
Mof_C 	C 	0.99962	0.01805	0.12692	-0.094
Mof_C 	C 	0.9107	0.98393	0.12874	0.019
Mof_C 	C 	0.86398	0.03269	0.15153	-0.081
Mof_C 	C 	0.9061	0.11558	0.17249	0.022
Mof_C 	C 	0.995	0.1497	0.17067	-0.103
Mof_C 	C 	0.47973	0.32645	0.41797	0.025
Mof_C 	C 	0.5706	0.38267	0.44073	-0.088
Mof_C 	C 	0.65381	0.36361	0.47757	0.016
Mof_C 	C 	0.64623	0.28833	0.49165	-0.08
Mof_C 	C 	0.5554	0.23212	0.46889	0.018
Mof_C 	C 	0.47215	0.25118	0.43205	-0.098
Mof_C 	C 	0.32626	0.36247	0.45	0.02
Mof_C 	C 	0.23717	0.37357	0.43121	-0.091
Mof_C 	C 	0.2035	0.38308	0.49106	0.004
Mof_C 	C 	0.25892	0.38149	0.5697	-0.061
Mof_C 	C 	0.34801	0.37039	0.58849	0.009
Mof_C 	C 	0.38169	0.36089	0.52864	-0.079
Mof_C 	C 	0.3935	0.43719	0.33834	0.021
Mof_C 	C 	0.3636	0.49942	0.36194	-0.084
Mof_C 	C 	0.3698	0.56342	0.32673	0.008
Mof_C 	C 	0.4058	0.56517	0.26792	-0.077
Mof_C 	C 	0.4357	0.50294	0.24432	0.021
Mof_C 	C 	0.4295	0.43894	0.27953	-0.101
Mof_C 	C 	0.2075	0.06605	0.13553	0.017
Mof_C 	C 	0.231	0.04721	0.0707	-0.076
Mof_C 	C 	0.2614	0.9816	0.06096	0.003
Mof_C 	C 	0.2683	0.93483	0.11605	-0.064
Mof_C 	C 	0.2449	0.95367	0.18088	-0.005
Mof_C 	C 	0.2145	0.01928	0.19062	-0.087
Mof_C 	C 	0.1354	0.182	0.0577	0.018
Mof_C 	C 	0.1053	0.2358	0.9173	-0.084
Mof_C 	C 	0.1995	0.2533	0.9757	0.006
Mof_C 	C 	0.0269	0.192	0.9295	0.001
Mof_C 	C 	0.0424	0.1653	0.9994	-0.082
Mof_C 	C 	0.2147	0.2276	0.0463	-0.09
Mof_O 	O 	0.4225	0.2172	0.23117	-0.097
Mof_O 	O 	0.1871	0.1586	0.3623	-0.094
Mof_O 	O 	0.1681	0.3555	0.1895	-0.11
Mof_O 	O 	0.2957	0.45362	0.72285	-0.314
Mof_O 	O 	0.1234	0.41037	0.61534	-0.38
Mof_O 	O 	0.1937	0.3062	0.66679	-0.394
Mof_O 	O 	0.4786	0.72484	0.28912	-0.29
Mof_O 	O 	0.3056	0.64828	0.18221	-0.375
Mof_O 	O 	0.4479	0.63314	0.15697	-0.322
Mof_O 	O 	0.7242	0.19271	0.57405	-0.349
Mof_O 	O 	0.8384	0.32791	0.58545	-0.392
Mof_O 	O 	0.7612	0.218	0.45459	-0.388
Mof_O 	O 	0.7888	0.96528	0.24493	-0.324
Mof_O 	O 	0.7061	0.04962	0.16702	-0.476
Mof_O 	O 	0.6932	0.9122	0.09222	-0.286
Mof_O 	O 	0.4114	0.87495	0.12306	-0.237
Mof_O 	O 	0.2481	0.80226	0.00894	-0.249
Mof_O 	O 	0.2715	0.79537	0.15	-0.39
Mof_O 	O 	0.0392	0.33717	0.83736	-0.394
Mof_O 	O 	0.013	0.20163	0.75448	-0.324
Mof_O 	O 	0.3794	0.37464	0.82333	-0.795
Mof_O 	O 	0.1821	0.30693	0.82437	-0.407
Mof_O 	O 	0.1513	0.15443	0.71213	-0.766
Mof_O 	O 	0.337	0.22206	0.7054	-0.481
Mof_O 	O 	0.3345	0.22921	0.86931	-0.814
Mof_O 	O 	0.0203	0.41786	0.72154	-0.838
Mof_O 	O 	0.9965	0.25185	0.61782	-0.803
Mof_O 	O 	0.9614	0.47474	0.57601	-0.724
Mof_O 	O 	0.935	0.31467	0.47502	-0.795
Mof_O 	O 	0.7053	0.98437	0.34401	-0.818
Mof_O 	O 	0.6559	0.05502	0.46852	-0.731
Mof_O 	O 	0.3603	0.7901	0.32419	-0.797
Mof_O 	O 	0.1765	0.80042	0.2678	-0.805
Mof_O 	O 	0.1042	0.6593	0.1158	-0.801
Mof_O 	O 	0.1856	0.63792	0.27388	-0.844
Mof_O 	O 	0.7904	0.1443	0.32059	-0.767
Mof_O 	O 	0.5907	0.0998	0.3128	-0.73
Mof_O 	O 	0.8641	0.1081	0.4831	-0.761
Mof_Co	Co	0.23811	0.55591	0.92972	1.308
Mof_H 	H 	0.26	0.643	0.067	0.357
Mof_H 	H 	0.234	0.6898	0.019	0.362
Mof_H 	H 	0.124	0.491	0.9859	0.751
Mof_H 	H 	0.097	0.442	0.914	1.114
Mof_H 	H 	0.367	0.646	0.884	0.327
Mof_H 	H 	0.391	0.671	0.963	0.327
Mof_H 	H 	0.369	0.553	0.0641	0.355
Mof_H 	H 	0.355	0.49	0.007	0.324
Mof_H 	H 	0.094	0.596	0.839	0.336
Mof_H 	H 	0.161	0.622	0.813	0.324
Mof_H 	H 	0.259	0.471	0.81	0.377
Mof_H 	H 	0.214	0.416	0.836	0.371
Mof_O 	O 	0.2354	0.64247	0.01721	-0.799
Mof_O 	O 	0.1172	0.48017	0.93723	-1.897
Mof_O 	O 	0.3435	0.6433	0.9191	-0.797
Mof_O 	O 	0.3253	0.5183	0.02166	-0.796
Mof_O 	O 	0.1399	0.585	0.8323	-0.767
Mof_O 	O 	0.2347	0.4663	0.84359	-0.854
Mof_Co	Co	0.73938	0.75534	0.73907	1.135
Mof_Co	Co	0.73816	0.73483	0.23194	1.23
Mof_Co	Co	0.01895	0.63484	0.40039	1.231
Mof_Co	Co	0.27321	0.89893	0.60515	1.252
Mof_Co	Co	0.76331	0.27563	0.78218	1.243
Mof_P 	P 	0.63326	0.65508	0.63039	-0.082
Mof_P 	P 	0.84058	0.85292	0.8511	-0.082
Mof_P 	P 	0.78512	0.61114	0.35063	0.411
Mof_P 	P 	0.58919	0.3505	0.77828	0.404
Mof_P 	P 	0.24939	0.74476	0.4703	0.419
Mof_P 	P 	0.24698	0.01422	0.83756	0.438
Mof_P 	P 	0.69586	0.15245	0.89716	0.413
Mof_P 	P 	0.91546	0.7279	0.17277	0.398
Mof_H 	H 	0.3516	0.955	0.865	0.254
Mof_H 	H 	0.9684	0.0153	0.8887	0.069
Mof_H 	H 	0.118	0.0727	0.8856	0.031
Mof_H 	H 	0.1259	0.8511	0.8119	0.027
Mof_H 	H 	0.9762	0.7936	0.815	0.056
Mof_H 	H 	0.4243	0.5659	0.5689	0.068
Mof_H 	H 	0.2841	0.598	0.5069	0.038
Mof_H 	H 	0.4498	0.8193	0.5215	0.012
Mof_H 	H 	0.5899	0.7872	0.5835	0.055
Mof_H 	H 	0.8007	0.6253	0.6225	0.049
Mof_H 	H 	0.8574	0.6093	0.5218	0.034
Mof_H 	H 	0.6141	0.6307	0.3578	0.034
Mof_H 	H 	0.5574	0.6467	0.4585	0.066
Mof_H 	H 	0.661	0.5018	0.5979	0.061
Mof_H 	H 	0.6506	0.394	0.6571	0.034
Mof_H 	H 	0.5397	0.4959	0.7959	0.018
Mof_H 	H 	0.55	0.6036	0.7366	0.061
Mof_H 	H 	0.7738	0.9208	0.967	0.069
Mof_H 	H 	0.7226	0.0313	0.9833	0.048
Mof_H 	H 	0.7504	0.0783	0.7815	0.055
Mof_H 	H 	0.8015	0.9678	0.7651	0.062
Mof_H 	H 	0.5653	0.626	0.173	0.35
Mof_H 	H 	0.63	0.589	0.201	0.336
Mof_H 	H 	0.833	0.884	0.27	0.346
Mof_H 	H 	0.891	0.84	0.271	0.318
Mof_H 	H 	0.61	0.767	0.298	0.286
Mof_H 	H 	0.6044	0.757	0.113	0.342
Mof_H 	H 	0.683	0.8182	0.126	0.365
Mof_H 	H 	0.7468	0.7174	0.0327	0.042
Mof_H 	H 	0.0374	0.8197	0.1103	0.032
Mof_H 	H 	0.0114	0.8647	0.9927	0.064
Mof_H 	H 	0.7212	0.7591	0.913	0.055
Mof_H 	H 	0.978	0.613	0.247	0.354
Mof_H 	H 	0.928	0.5423	0.251	0.365
Mof_H 	H 	0.001	0.771	0.344	0.349
Mof_H 	H 	0.9463	0.738	0.379	0.327
Mof_H 	H 	0.06	0.506	0.392	0.303
Mof_H 	H 	0.983	0.491	0.41	0.315
Mof_H 	H 	0.033	0.709	0.542	0.327
Mof_H 	H 	0.122	0.718	0.544	0.362
Mof_H 	H 	0.269	0.02	0.689	0.368
Mof_H 	H 	0.343	0.0585	0.673	0.362
Mof_H 	H 	0.327	0.9027	0.494	0.329
Mof_H 	H 	0.4056	0.962	0.552	0.304
Mof_H 	H 	0.647	0.202	0.6319	0.346
Mof_H 	H 	0.599	0.234	0.667	0.355
Mof_H 	H 	0.8805	0.204	0.738	0.369
Mof_H 	H 	0.792	0.194	0.6819	0.356
Mof_H 	H 	0.944	0.337	0.876	0.34
Mof_H 	H 	0.9	0.325	0.9265	0.329
Mof_H 	H 	0.829	0.352	0.687	0.381
Mof_H 	H 	0.85	0.4096	0.752	0.368
Mof_H 	H 	0.232	0.888	0.7268	0.341
Mof_H 	H 	0.149	0.838	0.667	0.31
Mof_H 	H 	0.431	0.918	0.7388	0.306
Mof_H 	H 	0.458	0.926	0.68	0.29
Mof_H 	H 	0.105	0.924	0.522	0.324
Mof_H 	H 	0.093	0.853	0.477	0.343
Mof_C 	C 	0.64	0.7716	0.7573	-0.254
Mof_C 	C 	0.7846	0.8087	0.6776	-0.256
Mof_C 	C 	0.797	0.6873	0.7819	-0.252
Mof_C 	C 	0.95827	0.89906	0.85212	0.029
Mof_C 	C 	0.00038	0.98195	0.87308	-0.094
Mof_C 	C 	0.0893	0.01607	0.87126	0.019
Mof_C 	C 	0.13602	0.96731	0.84847	-0.081
Mof_C 	C 	0.0939	0.88442	0.82751	0.022
Mof_C 	C 	0.005	0.8503	0.82933	-0.103
Mof_C 	C 	0.52027	0.67355	0.58203	0.025
Mof_C 	C 	0.4294	0.61733	0.55927	-0.088
Mof_C 	C 	0.34619	0.63639	0.52243	0.016
Mof_C 	C 	0.35377	0.71167	0.50835	-0.08
Mof_C 	C 	0.4446	0.76788	0.53111	0.018
Mof_C 	C 	0.52785	0.74882	0.56795	-0.098
Mof_C 	C 	0.67374	0.63753	0.55	0.02
Mof_C 	C 	0.76283	0.62643	0.56879	-0.091
Mof_C 	C 	0.7965	0.61692	0.50894	0.004
Mof_C 	C 	0.74108	0.61851	0.4303	-0.061
Mof_C 	C 	0.65199	0.62961	0.41151	0.009
Mof_C 	C 	0.61831	0.63911	0.47136	-0.079
Mof_C 	C 	0.6065	0.56281	0.66166	0.021
Mof_C 	C 	0.6364	0.50058	0.63806	-0.084
Mof_C 	C 	0.6302	0.43658	0.67327	0.008
Mof_C 	C 	0.5942	0.43483	0.73208	-0.077
Mof_C 	C 	0.5643	0.49706	0.75568	0.021
Mof_C 	C 	0.5705	0.56106	0.72047	-0.101
Mof_C 	C 	0.7925	0.93395	0.86447	0.017
Mof_C 	C 	0.769	0.95279	0.9293	-0.076
Mof_C 	C 	0.7386	0.0184	0.93904	0.003
Mof_C 	C 	0.7317	0.06517	0.88395	-0.064
Mof_C 	C 	0.7551	0.04633	0.81912	-0.005
Mof_C 	C 	0.7855	0.98072	0.80938	-0.087
Mof_C 	C 	0.8646	0.818	0.9423	0.018
Mof_C 	C 	0.8947	0.7642	0.0827	-0.084
Mof_C 	C 	0.8005	0.7467	0.0243	0.006
Mof_C 	C 	0.9731	0.808	0.0705	0.001
Mof_C 	C 	0.9576	0.8347	0.0006	-0.082
Mof_C 	C 	0.7853	0.7724	0.9537	-0.09
Mof_O 	O 	0.5775	0.7828	0.76883	-0.097
Mof_O 	O 	0.8129	0.8414	0.6377	-0.094
Mof_O 	O 	0.8319	0.6445	0.8105	-0.11
Mof_O 	O 	0.7043	0.54638	0.27715	-0.314
Mof_O 	O 	0.8766	0.58963	0.38466	-0.38
Mof_O 	O 	0.8063	0.6938	0.33321	-0.394
Mof_O 	O 	0.5214	0.27516	0.71088	-0.29
Mof_O 	O 	0.6944	0.35172	0.81779	-0.375
Mof_O 	O 	0.5521	0.36686	0.84303	-0.322
Mof_O 	O 	0.2758	0.80729	0.42595	-0.349
Mof_O 	O 	0.1616	0.67209	0.41455	-0.392
Mof_O 	O 	0.2388	0.782	0.54541	-0.388
Mof_O 	O 	0.2112	0.03472	0.75507	-0.324
Mof_O 	O 	0.2939	0.95038	0.83298	-0.476
Mof_O 	O 	0.3068	0.0878	0.90778	-0.286
Mof_O 	O 	0.5886	0.12505	0.87694	-0.237
Mof_O 	O 	0.7519	0.19774	0.99106	-0.249
Mof_O 	O 	0.7285	0.20463	0.85	-0.39
Mof_O 	O 	0.9608	0.66283	0.16264	-0.394
Mof_O 	O 	0.987	0.79837	0.24552	-0.324
Mof_O 	O 	0.6206	0.62536	0.17667	-0.795
Mof_O 	O 	0.8179	0.69307	0.17563	-0.407
Mof_O 	O 	0.8487	0.84557	0.28787	-0.766
Mof_O 	O 	0.663	0.77794	0.2946	-0.481
Mof_O 	O 	0.6655	0.77079	0.13069	-0.814
Mof_O 	O 	0.9797	0.58214	0.27846	-0.838
Mof_O 	O 	0.0035	0.74815	0.38218	-0.803
Mof_O 	O 	0.0386	0.52526	0.42399	-0.724
Mof_O 	O 	0.065	0.68533	0.52498	-0.795
Mof_O 	O 	0.2947	0.01563	0.65599	-0.818
Mof_O 	O 	0.3441	0.94498	0.53148	-0.731
Mof_O 	O 	0.6397	0.2099	0.67581	-0.797
Mof_O 	O 	0.8235	0.19958	0.7322	-0.805
Mof_O 	O 	0.8958	0.3407	0.8842	-0.801
Mof_O 	O 	0.8144	0.36208	0.72612	-0.844
Mof_O 	O 	0.2096	0.8557	0.67941	-0.767
Mof_O 	O 	0.4093	0.9002	0.6872	-0.73
Mof_O 	O 	0.1359	0.8919	0.5169	-0.761
Mof_Co	Co	0.76189	0.44409	0.07028	1.308
Mof_H 	H 	0.74	0.357	0.933	0.357
Mof_H 	H 	0.766	0.3102	0.981	0.362
Mof_H 	H 	0.876	0.509	0.0141	0.751
Mof_H 	H 	0.903	0.558	0.086	1.114
Mof_H 	H 	0.633	0.354	0.116	0.327
Mof_H 	H 	0.609	0.329	0.037	0.327
Mof_H 	H 	0.631	0.447	0.9359	0.355
Mof_H 	H 	0.645	0.51	0.993	0.324
Mof_H 	H 	0.906	0.404	0.161	0.336
Mof_H 	H 	0.839	0.378	0.187	0.324
Mof_H 	H 	0.741	0.529	0.19	0.377
Mof_H 	H 	0.786	0.584	0.164	0.371
Mof_O 	O 	0.7646	0.35753	0.98279	-0.799
Mof_O 	O 	0.8828	0.51983	0.06277	-1.897
Mof_O 	O 	0.6565	0.3567	0.0809	-0.797
Mof_O 	O 	0.6747	0.4817	0.97834	-0.796
Mof_O 	O 	0.8601	0.415	0.1677	-0.767
Mof_O 	O 	0.7653	0.5337	0.15641	-0.854
_end
