# CIF file generated by openbabel 3.1.0, see https://openbabel.org
data_I
_chemical_name_common 'image0'
_cell_length_a 14.29
_cell_length_b 12.973
_cell_length_c 17.818
_cell_angle_alpha 90
_cell_angle_beta 95.33
_cell_angle_gamma 90
_space_group_name_H-M_alt 'P 1'
_space_group_name_Hall 'P 1'
loop_
    _symmetry_equiv_pos_as_xyz
    x,y,z
loop_
    _atom_site_label
    _atom_site_type_symbol
    _atom_site_fract_x
    _atom_site_fract_y
    _atom_site_fract_z
    _atom_site_occupancy
    Zn1      Zn       0.00990    0.94595    0.22538    1.000
    Zn2      Zn       0.07056    0.77955    0.36340    1.000
    C1       C        0.80180    0.79560    0.31910    1.000
    C2       C        0.73440    0.73030    0.28430    1.000
    H1       H        0.73490    0.71450    0.23340    1.000
    C3       C        0.66650    0.68890    0.32560    1.000
    C4       C        0.66180    0.71740    0.40020    1.000
    H2       H        0.61440    0.69070    0.42690    1.000
    C5       C        0.72770    0.78590    0.43610    1.000
    C6       C        0.79910    0.82300    0.39400    1.000
    H3       H        0.84510    0.86650    0.41670    1.000
    C7       C        0.72410    0.81630    0.51580    1.000
    C8       C        0.77490    0.90200    0.54610    1.000
    H4       H        0.80740    0.94360    0.51480    1.000
    C9       C        0.77690    0.92480    0.62190    1.000
    C10      C        0.72530    0.86710    0.66900    1.000
    H5       H        0.72740    0.88230    0.72010    1.000
    C11      C        0.67060    0.78660    0.63890    1.000
    C12      C        0.67210    0.76060    0.56400    1.000
    H6       H        0.63730    0.70420    0.54510    1.000
    C13      C        0.87530    0.83960    0.27380    1.000
    C14      C        0.59790    0.61120    0.28950    1.000
    C15      C        0.84200    0.00910    0.65570    1.000
    C16      C        0.61480    0.72320    0.68970    1.000
    O1       O        0.86020    0.85100    0.20570    1.000
    O2       O        0.95380    0.86970    0.31010    1.000
    O3       O        0.59420    0.59670    0.22120    1.000
    O4       O        0.54910    0.56100    0.33270    1.000
    O5       O        0.87370    0.99490    0.72260    1.000
    O6       O        0.86050    0.08310    0.61400    1.000
    O7       O        0.61850    0.74620    0.75750    1.000
    O8       O        0.56860    0.64900    0.65840    1.000
    Zn3      Zn       0.49010    0.44595    0.27462    1.000
    Zn4      Zn       0.42944    0.27955    0.13660    1.000
    C17      C        0.69820    0.29560    0.18090    1.000
    C18      C        0.76560    0.23030    0.21570    1.000
    H7       H        0.76510    0.21450    0.26660    1.000
    C19      C        0.83350    0.18890    0.17440    1.000
    C20      C        0.83820    0.21740    0.09980    1.000
    H8       H        0.88560    0.19070    0.07310    1.000
    C21      C        0.77230    0.28590    0.06390    1.000
    C22      C        0.70090    0.32300    0.10600    1.000
    H9       H        0.65490    0.36650    0.08330    1.000
    C23      C        0.77590    0.31630    0.98420    1.000
    C24      C        0.72510    0.40200    0.95390    1.000
    H10      H        0.69260    0.44360    0.98520    1.000
    C25      C        0.72310    0.42480    0.87810    1.000
    C26      C        0.77470    0.36710    0.83100    1.000
    H11      H        0.77260    0.38230    0.77990    1.000
    C27      C        0.82940    0.28660    0.86110    1.000
    C28      C        0.82790    0.26060    0.93600    1.000
    H12      H        0.86270    0.20420    0.95490    1.000
    C29      C        0.62470    0.33960    0.22620    1.000
    C30      C        0.90210    0.11120    0.21050    1.000
    C31      C        0.65800    0.50910    0.84430    1.000
    C32      C        0.88520    0.22320    0.81030    1.000
    O9       O        0.63980    0.35100    0.29430    1.000
    O10      O        0.54620    0.36970    0.18990    1.000
    O11      O        0.90580    0.09670    0.27880    1.000
    O12      O        0.95090    0.06100    0.16730    1.000
    O13      O        0.62630    0.49490    0.77740    1.000
    O14      O        0.63950    0.58310    0.88600    1.000
    O15      O        0.88150    0.24620    0.74250    1.000
    O16      O        0.93140    0.14900    0.84160    1.000
    Zn5      Zn       0.99010    0.05405    0.77462    1.000
    Zn6      Zn       0.92944    0.22045    0.63660    1.000
    C33      C        0.19820    0.20440    0.68090    1.000
    C34      C        0.26560    0.26970    0.71570    1.000
    H13      H        0.26510    0.28550    0.76660    1.000
    C35      C        0.33350    0.31110    0.67440    1.000
    C36      C        0.33820    0.28260    0.59980    1.000
    H14      H        0.38560    0.30930    0.57310    1.000
    C37      C        0.27230    0.21410    0.56390    1.000
    C38      C        0.20090    0.17700    0.60600    1.000
    H15      H        0.15490    0.13350    0.58330    1.000
    C39      C        0.27590    0.18370    0.48420    1.000
    C40      C        0.22510    0.09800    0.45390    1.000
    H16      H        0.19260    0.05640    0.48520    1.000
    C41      C        0.22310    0.07520    0.37810    1.000
    C42      C        0.27470    0.13290    0.33100    1.000
    H17      H        0.27260    0.11770    0.27990    1.000
    C43      C        0.32940    0.21340    0.36110    1.000
    C44      C        0.32790    0.23940    0.43600    1.000
    H18      H        0.36270    0.29580    0.45490    1.000
    C45      C        0.12470    0.16040    0.72620    1.000
    C46      C        0.40210    0.38880    0.71050    1.000
    C47      C        0.15800    0.99090    0.34430    1.000
    C48      C        0.38520    0.27680    0.31030    1.000
    O17      O        0.13980    0.14900    0.79430    1.000
    O18      O        0.04620    0.13030    0.68990    1.000
    O19      O        0.40580    0.40330    0.77880    1.000
    O20      O        0.45090    0.43900    0.66730    1.000
    O21      O        0.12630    0.00510    0.27740    1.000
    O22      O        0.13950    0.91690    0.38600    1.000
    O23      O        0.38150    0.25380    0.24250    1.000
    O24      O        0.43140    0.35100    0.34160    1.000
    Zn7      Zn       0.50990    0.55405    0.72538    1.000
    Zn8      Zn       0.57056    0.72045    0.86340    1.000
    C49      C        0.30180    0.70440    0.81910    1.000
    C50      C        0.23440    0.76970    0.78430    1.000
    H19      H        0.23490    0.78550    0.73340    1.000
    C51      C        0.16650    0.81110    0.82560    1.000
    C52      C        0.16180    0.78260    0.90020    1.000
    H20      H        0.11440    0.80930    0.92690    1.000
    C53      C        0.22770    0.71410    0.93610    1.000
    C54      C        0.29910    0.67700    0.89400    1.000
    H21      H        0.34510    0.63350    0.91670    1.000
    C55      C        0.22410    0.68370    0.01580    1.000
    C56      C        0.27490    0.59800    0.04610    1.000
    H22      H        0.30740    0.55640    0.01480    1.000
    C57      C        0.27690    0.57520    0.12190    1.000
    C58      C        0.22530    0.63290    0.16900    1.000
    H23      H        0.22740    0.61770    0.22010    1.000
    C59      C        0.17060    0.71340    0.13890    1.000
    C60      C        0.17210    0.73940    0.06400    1.000
    H24      H        0.13730    0.79580    0.04510    1.000
    C61      C        0.37530    0.66040    0.77380    1.000
    C62      C        0.09790    0.88880    0.78950    1.000
    C63      C        0.34200    0.49090    0.15570    1.000
    C64      C        0.11480    0.77680    0.18970    1.000
    O25      O        0.36020    0.64900    0.70570    1.000
    O26      O        0.45380    0.63030    0.81010    1.000
    O27      O        0.09420    0.90330    0.72120    1.000
    O28      O        0.04910    0.93900    0.83270    1.000
    O29      O        0.37370    0.50510    0.22260    1.000
    O30      O        0.36050    0.41690    0.11400    1.000
    O31      O        0.11850    0.75380    0.25750    1.000
    O32      O        0.06860    0.85100    0.15840    1.000
