data_functionalizedCrystal
_audit_creation_method	'EQeq! by Chris Wilmer'
_symmetry_space_group_name_H-M	'P1'
_symmetry_Int_Tables_number	1
_symmetry_cell_setting	triclinic
loop_
_symmetry_equiv_pos_as_xyz
  x,y,z
_cell_length_a	9.241
_cell_length_b	9.5545
_cell_length_c	21.6026
_cell_angle_alpha	90
_cell_angle_beta	90
_cell_angle_gamma	116.151
loop_
_atom_site_label
_atom_site_type_symbol
_atom_site_fract_x
_atom_site_fract_y
_atom_site_fract_z
_atom_site_charge
Mof_Eu	Eu	0.12381	0.8588	0.49151	2.544
Mof_Eu	Eu	0.37619	0.1412	0.99151	2.516
Mof_Eu	Eu	0.87619	0.1412	0.50849	2.545
Mof_Eu	Eu	0.62381	0.8588	0.00849	2.517
Mof_Cu	Cu	0.04049	0.19135	0.85427	0.85
Mof_Cu	Cu	0.45951	0.80865	0.35427	0.851
Mof_Cu	Cu	0.95951	0.80865	0.14573	0.85
Mof_Cu	Cu	0.54049	0.19135	0.64573	0.851
Mof_H 	H 	0.9964	0.1541	0.7236	-0.032
Mof_H 	H 	0.1054	0.8154	0.6664	-0.021
Mof_H 	H 	0.1487	0.7725	0.7687	0.099
Mof_H 	H 	0.1224	0.9256	0.8449	-0.021
Mof_H 	H 	0.7931	0.2976	0.8438	-0.048
Mof_H 	H 	0.746	0.5029	0.8747	0.119
Mof_H 	H 	0.9394	0.703	0.9304	-0.023
Mof_H 	H 	0.2077	0.4716	0.9297	-0.034
Mof_H 	H 	0.5036	0.8459	0.2236	-0.032
Mof_H 	H 	0.3946	0.1846	0.1664	-0.018
Mof_H 	H 	0.3513	0.2275	0.2687	0.097
Mof_H 	H 	0.3776	0.0744	0.3449	-0.022
Mof_H 	H 	0.7069	0.7024	0.3438	-0.049
Mof_H 	H 	0.754	0.4971	0.3747	0.121
Mof_H 	H 	0.5606	0.297	0.4304	-0.026
Mof_H 	H 	0.2923	0.5284	0.4297	-0.035
Mof_H 	H 	0.0036	0.8459	0.2764	-0.032
Mof_H 	H 	0.8946	0.1846	0.3336	-0.021
Mof_H 	H 	0.8513	0.2275	0.2313	0.099
Mof_H 	H 	0.8776	0.0744	0.1551	-0.021
Mof_H 	H 	0.2069	0.7024	0.1562	-0.048
Mof_H 	H 	0.254	0.4971	0.1253	0.119
Mof_H 	H 	0.0606	0.297	0.0696	-0.023
Mof_H 	H 	0.7923	0.5284	0.0703	-0.034
Mof_H 	H 	0.4964	0.1541	0.7764	-0.032
Mof_H 	H 	0.6054	0.8154	0.8336	-0.018
Mof_H 	H 	0.6487	0.7725	0.7313	0.097
Mof_H 	H 	0.6224	0.9256	0.6551	-0.022
Mof_H 	H 	0.2931	0.2976	0.6562	-0.049
Mof_H 	H 	0.246	0.5029	0.6253	0.121
Mof_H 	H 	0.4394	0.703	0.5696	-0.026
Mof_H 	H 	0.7077	0.4716	0.5703	-0.035
Mof_C 	C 	0.0294	0.0775	0.7327	0.11
Mof_C 	C 	0.0464	0.992	0.6844	-0.231
Mof_C 	C 	0.0927	0.8755	0.6978	0.131
Mof_C 	C 	0.1193	0.851	0.7585	-0.21
Mof_C 	C 	0.1023	0.9428	0.8042	0.13
Mof_C 	C 	0.0115	0.0262	0.6199	0.525
Mof_C 	C 	0.8705	0.3761	0.8676	0.124
Mof_C 	C 	0.842	0.4998	0.8853	-0.219
Mof_C 	C 	0.9559	0.6174	0.9186	0.163
Mof_C 	C 	0.0965	0.609	0.9349	-0.241
Mof_C 	C 	0.1152	0.4795	0.9173	0.142
Mof_C 	C 	0.2286	0.7413	0.97	0.543
Mof_C 	C 	0.9882	0.4919	0.4648	0.27
Mof_C 	C 	0.997	0.0231	0.9658	0.258
Mof_C 	C 	0.4706	0.9225	0.2327	0.107
Mof_C 	C 	0.4536	0.008	0.1844	-0.224
Mof_C 	C 	0.4073	0.1245	0.1978	0.125
Mof_C 	C 	0.3807	0.149	0.2585	-0.205
Mof_C 	C 	0.3977	0.0572	0.3042	0.124
Mof_C 	C 	0.4885	0.9738	0.1199	0.515
Mof_C 	C 	0.6295	0.6239	0.3676	0.128
Mof_C 	C 	0.658	0.5002	0.3853	-0.225
Mof_C 	C 	0.5441	0.3826	0.4186	0.171
Mof_C 	C 	0.4035	0.391	0.4349	-0.249
Mof_C 	C 	0.3848	0.5205	0.4173	0.145
Mof_C 	C 	0.2714	0.2587	0.47	0.547
Mof_C 	C 	0.5118	0.5081	0.9648	0.27
Mof_C 	C 	0.503	0.9769	0.4658	0.267
Mof_C 	C 	0.9706	0.9225	0.2673	0.11
Mof_C 	C 	0.9536	0.008	0.3156	-0.231
Mof_C 	C 	0.9073	0.1245	0.3022	0.131
Mof_C 	C 	0.8807	0.149	0.2415	-0.21
Mof_C 	C 	0.8977	0.0572	0.1958	0.13
Mof_C 	C 	0.9885	0.9738	0.3801	0.525
Mof_C 	C 	0.1295	0.6239	0.1324	0.124
Mof_C 	C 	0.158	0.5002	0.1147	-0.219
Mof_C 	C 	0.0441	0.3826	0.0814	0.163
Mof_C 	C 	0.9035	0.391	0.0651	-0.241
Mof_C 	C 	0.8848	0.5205	0.0827	0.142
Mof_C 	C 	0.7714	0.2587	0.03	0.543
Mof_C 	C 	0.0118	0.5081	0.5352	0.27
Mof_C 	C 	0.003	0.9769	0.0342	0.258
Mof_C 	C 	0.5294	0.0775	0.7673	0.107
Mof_C 	C 	0.5464	0.992	0.8156	-0.224
Mof_C 	C 	0.5927	0.8755	0.8022	0.125
Mof_C 	C 	0.6193	0.851	0.7415	-0.205
Mof_C 	C 	0.6023	0.9428	0.6958	0.124
Mof_C 	C 	0.5115	0.0262	0.8801	0.515
Mof_C 	C 	0.3705	0.3761	0.6324	0.128
Mof_C 	C 	0.342	0.4998	0.6147	-0.225
Mof_C 	C 	0.4559	0.6174	0.5814	0.171
Mof_C 	C 	0.5965	0.609	0.5651	-0.249
Mof_C 	C 	0.6152	0.4795	0.5827	0.145
Mof_C 	C 	0.7286	0.7413	0.53	0.547
Mof_C 	C 	0.4882	0.4919	0.0352	0.27
Mof_C 	C 	0.497	0.0231	0.5342	0.267
Mof_N 	N 	0.0577	0.0568	0.7922	-0.281
Mof_N 	N 	0.0049	0.3634	0.8829	-0.284
Mof_N 	N 	0.4423	0.9432	0.2922	-0.278
Mof_N 	N 	0.4951	0.6366	0.3829	-0.285
Mof_N 	N 	0.9423	0.9432	0.2078	-0.281
Mof_N 	N 	0.9951	0.6366	0.1171	-0.284
Mof_N 	N 	0.5577	0.0568	0.7078	-0.278
Mof_N 	N 	0.5049	0.3634	0.6171	-0.285
Mof_O 	O 	0.0515	0.9664	0.57535	-0.661
Mof_O 	O 	0.944	0.1133	0.61333	-0.567
Mof_O 	O 	0.3362	0.7129	0.9945	-0.567
Mof_O 	O 	0.2209	0.8683	0.9704	-0.58
Mof_O 	O 	0.0511	0.6162	0.43382	-0.462
Mof_O 	O 	0.9088	0.3575	0.44344	-0.478
Mof_O 	O 	0.1286	0.1179	0.94203	-0.551
Mof_O 	O 	0.8628	0.9619	0.939	-0.478
Mof_O 	O 	0.4485	0.0336	0.07535	-0.651
Mof_O 	O 	0.556	0.8867	0.11333	-0.565
Mof_O 	O 	0.1638	0.2871	0.4945	-0.574
Mof_O 	O 	0.2791	0.1317	0.4704	-0.59
Mof_O 	O 	0.4489	0.3838	0.93382	-0.46
Mof_O 	O 	0.5912	0.6425	0.94344	-0.475
Mof_O 	O 	0.3714	0.8821	0.44203	-0.554
Mof_O 	O 	0.6372	0.0381	0.439	-0.487
Mof_O 	O 	0.9485	0.0336	0.42465	-0.661
Mof_O 	O 	0.056	0.8867	0.38667	-0.567
Mof_O 	O 	0.6638	0.2871	0.0055	-0.567
Mof_O 	O 	0.7791	0.1317	0.0296	-0.58
Mof_O 	O 	0.9489	0.3838	0.56618	-0.462
Mof_O 	O 	0.0912	0.6425	0.55656	-0.478
Mof_O 	O 	0.8714	0.8821	0.05797	-0.551
Mof_O 	O 	0.1372	0.0381	0.061	-0.478
Mof_O 	O 	0.5515	0.9664	0.92465	-0.651
Mof_O 	O 	0.444	0.1133	0.88667	-0.565
Mof_O 	O 	0.8362	0.7129	0.5055	-0.574
Mof_O 	O 	0.7209	0.8683	0.5296	-0.59
Mof_O 	O 	0.5511	0.6162	0.06618	-0.46
Mof_O 	O 	0.4088	0.3575	0.05656	-0.475
Mof_O 	O 	0.6286	0.1179	0.55797	-0.554
Mof_O 	O 	0.3628	0.9619	0.561	-0.487
_end
