# CIF file generated by openbabel 3.1.0, see https://openbabel.org
data_I
_chemical_name_common 'image0'
_cell_length_a 15.8809
_cell_length_b 15.8809
_cell_length_c 21.81
_cell_angle_alpha 90
_cell_angle_beta 90
_cell_angle_gamma 90
_space_group_name_H-M_alt 'P 1'
_space_group_name_Hall 'P 1'
loop_
    _symmetry_equiv_pos_as_xyz
    x,y,z
loop_
    _atom_site_label
    _atom_site_type_symbol
    _atom_site_fract_x
    _atom_site_fract_y
    _atom_site_fract_z
    _atom_site_occupancy
    C1       C        0.19930    0.15680    0.57560    1.000
    H1       H        0.23010    0.14010    0.54020    1.000
    C2       C        0.23390    0.21750    0.61390    1.000
    H2       H        0.28750    0.24070    0.60460    1.000
    C3       C        0.19160    0.24420    0.66480    1.000
    C4       C        0.11690    0.20130    0.67880    1.000
    H3       H        0.08730    0.21370    0.71550    1.000
    C5       C        0.08680    0.14100    0.63910    1.000
    H4       H        0.03650    0.11220    0.64980    1.000
    C6       C        0.22220    0.31740    0.70220    1.000
    C7       C        0.28190    0.37110    0.67670    1.000
    H5       H        0.30250    0.36030    0.63650    1.000
    C8       C        0.31160    0.43980    0.70900    1.000
    C9       C        0.28300    0.45550    0.76800    1.000
    H6       H        0.30290    0.50260    0.79060    1.000
    C10      C        0.22350    0.39970    0.79370    1.000
    H7       H        0.20300    0.40960    0.83400    1.000
    C11      C        0.19470    0.33110    0.76130    1.000
    H8       H        0.15590    0.29330    0.77970    1.000
    C12      C        0.37290    0.49510    0.67950    1.000
    C13      C        0.42420    0.59110    0.61830    1.000
    C14      C        0.43200    0.66100    0.57420    1.000
    C15      C        0.50400    0.66360    0.53720    1.000
    H9       H        0.54540    0.62070    0.54020    1.000
    C16      C        0.51400    0.72850    0.49690    1.000
    H10      H        0.56290    0.73000    0.47180    1.000
    C17      C        0.45580    0.79140    0.49150    1.000
    H11      H        0.46360    0.83490    0.46220    1.000
    C18      C        0.38420    0.79130    0.52960    1.000
    C19      C        0.37330    0.72500    0.56990    1.000
    H12      H        0.32450    0.72340    0.59500    1.000
    C20      C        0.31830    0.85790    0.52350    1.000
    C21      C        0.30860    0.90420    0.47170    1.000
    H13      H        0.34810    0.89770    0.43940    1.000
    C22      C        0.24210    0.96140    0.46450    1.000
    H14      H        0.23680    0.99110    0.42680    1.000
    C23      C        0.19740    0.93190    0.56160    1.000
    H15      H        0.15900    0.94150    0.59420    1.000
    C24      C        0.26080    0.87520    0.57060    1.000
    H16      H        0.26590    0.84730    0.60890    1.000
    N1       N        0.12420    0.12070    0.58630    1.000
    N2       N        0.45600    0.49400    0.68400    1.000
    N3       N        0.48830    0.55570    0.64530    1.000
    N4       N        0.35100    0.55530    0.63910    1.000
    N5       N        0.27000    0.57300    0.61690    1.000
    H17      H        0.24400    0.52380    0.60680    1.000
    H18      H        0.23990    0.59960    0.64660    1.000
    N6       N        0.18630    0.97520    0.50880    1.000
    C25      C        0.80070    0.84320    0.07560    1.000
    H19      H        0.76990    0.85990    0.04020    1.000
    C26      C        0.76610    0.78250    0.11390    1.000
    H20      H        0.71250    0.75930    0.10460    1.000
    C27      C        0.80840    0.75580    0.16480    1.000
    C28      C        0.88310    0.79870    0.17880    1.000
    H21      H        0.91270    0.78630    0.21550    1.000
    C29      C        0.91320    0.85900    0.13910    1.000
    H22      H        0.96350    0.88780    0.14980    1.000
    C30      C        0.77780    0.68260    0.20220    1.000
    C31      C        0.71810    0.62890    0.17670    1.000
    H23      H        0.69750    0.63970    0.13650    1.000
    C32      C        0.68840    0.56020    0.20900    1.000
    C33      C        0.71700    0.54450    0.26800    1.000
    H24      H        0.69710    0.49740    0.29060    1.000
    C34      C        0.77650    0.60030    0.29370    1.000
    H25      H        0.79700    0.59040    0.33400    1.000
    C35      C        0.80530    0.66890    0.26130    1.000
    H26      H        0.84410    0.70670    0.27970    1.000
    C36      C        0.62710    0.50490    0.17950    1.000
    C37      C        0.57580    0.40890    0.11830    1.000
    C38      C        0.56800    0.33900    0.07420    1.000
    C39      C        0.49600    0.33640    0.03720    1.000
    H27      H        0.45460    0.37930    0.04020    1.000
    C40      C        0.48600    0.27150    0.99690    1.000
    H28      H        0.43710    0.27000    0.97180    1.000
    C41      C        0.54420    0.20860    0.99150    1.000
    H29      H        0.53640    0.16510    0.96220    1.000
    C42      C        0.61580    0.20870    0.02960    1.000
    C43      C        0.62670    0.27500    0.06990    1.000
    H30      H        0.67550    0.27660    0.09500    1.000
    C44      C        0.68170    0.14210    0.02350    1.000
    C45      C        0.69140    0.09580    0.97170    1.000
    H31      H        0.65190    0.10230    0.93940    1.000
    C46      C        0.75790    0.03860    0.96450    1.000
    H32      H        0.76320    0.00890    0.92680    1.000
    C47      C        0.80260    0.06810    0.06160    1.000
    H33      H        0.84100    0.05850    0.09420    1.000
    C48      C        0.73920    0.12480    0.07060    1.000
    H34      H        0.73410    0.15270    0.10890    1.000
    N7       N        0.87580    0.87930    0.08630    1.000
    N8       N        0.54400    0.50600    0.18400    1.000
    N9       N        0.51170    0.44430    0.14530    1.000
    N10      N        0.64900    0.44470    0.13910    1.000
    N11      N        0.73000    0.42700    0.11690    1.000
    H35      H        0.75600    0.47620    0.10680    1.000
    H36      H        0.76010    0.40040    0.14660    1.000
    N12      N        0.81370    0.02480    0.00880    1.000
    C49      C        0.34320    0.69930    0.32560    1.000
    H37      H        0.35990    0.73010    0.29020    1.000
    C50      C        0.28250    0.73390    0.36390    1.000
    H38      H        0.25930    0.78750    0.35460    1.000
    C51      C        0.25580    0.69160    0.41480    1.000
    C52      C        0.29870    0.61690    0.42880    1.000
    H39      H        0.28630    0.58730    0.46550    1.000
    C53      C        0.35900    0.58680    0.38910    1.000
    H40      H        0.38780    0.53650    0.39980    1.000
    C54      C        0.18260    0.72220    0.45220    1.000
    C55      C        0.12890    0.78190    0.42670    1.000
    H41      H        0.13970    0.80250    0.38650    1.000
    C56      C        0.06020    0.81160    0.45900    1.000
    C57      C        0.04450    0.78300    0.51800    1.000
    H42      H        0.99740    0.80290    0.54060    1.000
    C58      C        0.10030    0.72350    0.54370    1.000
    H43      H        0.09040    0.70300    0.58400    1.000
    C59      C        0.16890    0.69470    0.51130    1.000
    H44      H        0.20670    0.65590    0.52970    1.000
    C60      C        0.00490    0.87290    0.42950    1.000
    C61      C        0.90890    0.92420    0.36830    1.000
    C62      C        0.83900    0.93200    0.32420    1.000
    C63      C        0.83640    0.00400    0.28720    1.000
    H45      H        0.87930    0.04540    0.29020    1.000
    C64      C        0.77150    0.01400    0.24690    1.000
    H46      H        0.77000    0.06290    0.22180    1.000
    C65      C        0.70860    0.95580    0.24150    1.000
    H47      H        0.66510    0.96360    0.21220    1.000
    C66      C        0.70870    0.88420    0.27960    1.000
    C67      C        0.77500    0.87330    0.31990    1.000
    H48      H        0.77660    0.82450    0.34500    1.000
    C68      C        0.64210    0.81830    0.27350    1.000
    C69      C        0.59580    0.80860    0.22170    1.000
    H49      H        0.60230    0.84810    0.18940    1.000
    C70      C        0.53860    0.74210    0.21450    1.000
    H50      H        0.50890    0.73680    0.17680    1.000
    C71      C        0.56810    0.69740    0.31160    1.000
    H51      H        0.55850    0.65900    0.34420    1.000
    C72      C        0.62480    0.76080    0.32060    1.000
    H52      H        0.65270    0.76590    0.35890    1.000
    N13      N        0.37930    0.62420    0.33630    1.000
    N14      N        0.00600    0.95600    0.43400    1.000
    N15      N        0.94430    0.98830    0.39530    1.000
    N16      N        0.94470    0.85100    0.38910    1.000
    N17      N        0.92700    0.77000    0.36690    1.000
    H53      H        0.97620    0.74400    0.35680    1.000
    H54      H        0.90040    0.73990    0.39660    1.000
    N18      N        0.52480    0.68630    0.25880    1.000
    C73      C        0.65680    0.30070    0.82560    1.000
    H55      H        0.64010    0.26990    0.79020    1.000
    C74      C        0.71750    0.26610    0.86390    1.000
    H56      H        0.74070    0.21250    0.85460    1.000
    C75      C        0.74420    0.30840    0.91480    1.000
    C76      C        0.70130    0.38310    0.92880    1.000
    H57      H        0.71370    0.41270    0.96550    1.000
    C77      C        0.64100    0.41320    0.88910    1.000
    H58      H        0.61220    0.46350    0.89980    1.000
    C78      C        0.81740    0.27780    0.95220    1.000
    C79      C        0.87110    0.21810    0.92670    1.000
    H59      H        0.86030    0.19750    0.88650    1.000
    C80      C        0.93980    0.18840    0.95900    1.000
    C81      C        0.95550    0.21700    0.01800    1.000
    H60      H        0.00260    0.19710    0.04060    1.000
    C82      C        0.89970    0.27650    0.04370    1.000
    H61      H        0.90960    0.29700    0.08400    1.000
    C83      C        0.83110    0.30530    0.01130    1.000
    H62      H        0.79330    0.34410    0.02970    1.000
    C84      C        0.99510    0.12710    0.92950    1.000
    C85      C        0.09110    0.07580    0.86830    1.000
    C86      C        0.16100    0.06800    0.82420    1.000
    C87      C        0.16360    0.99600    0.78720    1.000
    H63      H        0.12070    0.95460    0.79020    1.000
    C88      C        0.22850    0.98600    0.74690    1.000
    H64      H        0.23000    0.93710    0.72180    1.000
    C89      C        0.29140    0.04420    0.74150    1.000
    H65      H        0.33490    0.03640    0.71220    1.000
    C90      C        0.29130    0.11580    0.77960    1.000
    C91      C        0.22500    0.12670    0.81990    1.000
    H66      H        0.22340    0.17550    0.84500    1.000
    C92      C        0.35790    0.18170    0.77350    1.000
    C93      C        0.40420    0.19140    0.72170    1.000
    H67      H        0.39770    0.15190    0.68940    1.000
    C94      C        0.46140    0.25790    0.71450    1.000
    H68      H        0.49110    0.26320    0.67680    1.000
    C95      C        0.43190    0.30260    0.81160    1.000
    H69      H        0.44150    0.34100    0.84420    1.000
    C96      C        0.37520    0.23920    0.82060    1.000
    H70      H        0.34730    0.23410    0.85890    1.000
    N19      N        0.62070    0.37580    0.83630    1.000
    N20      N        0.99400    0.04400    0.93400    1.000
    N21      N        0.05570    0.01170    0.89530    1.000
    N22      N        0.05530    0.14900    0.88910    1.000
    N23      N        0.07300    0.23000    0.86690    1.000
    H71      H        0.02380    0.25600    0.85680    1.000
    H72      H        0.09960    0.26010    0.89660    1.000
    N24      N        0.47520    0.31370    0.75880    1.000
    C97      C        0.30070    0.65680    0.17440    1.000
    H73      H        0.26990    0.64010    0.20980    1.000
    C98      C        0.26610    0.71750    0.13610    1.000
    H74      H        0.21250    0.74070    0.14540    1.000
    C99      C        0.30840    0.74420    0.08520    1.000
    C100     C        0.38310    0.70130    0.07120    1.000
    H75      H        0.41270    0.71370    0.03450    1.000
    C101     C        0.41320    0.64100    0.11090    1.000
    H76      H        0.46350    0.61220    0.10020    1.000
    C102     C        0.27780    0.81740    0.04780    1.000
    C103     C        0.21810    0.87110    0.07330    1.000
    H77      H        0.19750    0.86030    0.11350    1.000
    C104     C        0.18840    0.93980    0.04100    1.000
    C105     C        0.21700    0.95550    0.98200    1.000
    H78      H        0.19710    0.00260    0.95940    1.000
    C106     C        0.27650    0.89970    0.95630    1.000
    H79      H        0.29700    0.90960    0.91600    1.000
    C107     C        0.30530    0.83110    0.98870    1.000
    H80      H        0.34410    0.79330    0.97030    1.000
    C108     C        0.12710    0.99510    0.07050    1.000
    C109     C        0.07580    0.09110    0.13170    1.000
    C110     C        0.06800    0.16100    0.17580    1.000
    C111     C        0.99600    0.16360    0.21280    1.000
    H81      H        0.95460    0.12070    0.20980    1.000
    C112     C        0.98600    0.22850    0.25310    1.000
    H82      H        0.93710    0.23000    0.27820    1.000
    C113     C        0.04420    0.29140    0.25850    1.000
    H83      H        0.03640    0.33490    0.28780    1.000
    C114     C        0.11580    0.29130    0.22040    1.000
    C115     C        0.12670    0.22500    0.18010    1.000
    H84      H        0.17550    0.22340    0.15500    1.000
    C116     C        0.18170    0.35790    0.22650    1.000
    C117     C        0.19140    0.40420    0.27830    1.000
    H85      H        0.15190    0.39770    0.31060    1.000
    C118     C        0.25790    0.46140    0.28550    1.000
    H86      H        0.26320    0.49110    0.32320    1.000
    C119     C        0.30260    0.43190    0.18840    1.000
    H87      H        0.34100    0.44150    0.15580    1.000
    C120     C        0.23920    0.37520    0.17940    1.000
    H88      H        0.23410    0.34730    0.14110    1.000
    N25      N        0.37580    0.62070    0.16370    1.000
    N26      N        0.04400    0.99400    0.06600    1.000
    N27      N        0.01170    0.05570    0.10470    1.000
    N28      N        0.14900    0.05530    0.11090    1.000
    N29      N        0.23000    0.07300    0.13310    1.000
    H89      H        0.25600    0.02380    0.14320    1.000
    H90      H        0.26010    0.09960    0.10340    1.000
    N30      N        0.31370    0.47520    0.24120    1.000
    C121     C        0.69930    0.34320    0.67440    1.000
    H91      H        0.73010    0.35990    0.70980    1.000
    C122     C        0.73390    0.28250    0.63610    1.000
    H92      H        0.78750    0.25930    0.64540    1.000
    C123     C        0.69160    0.25580    0.58520    1.000
    C124     C        0.61690    0.29870    0.57120    1.000
    H93      H        0.58730    0.28630    0.53450    1.000
    C125     C        0.58680    0.35900    0.61090    1.000
    H94      H        0.53650    0.38780    0.60020    1.000
    C126     C        0.72220    0.18260    0.54780    1.000
    C127     C        0.78190    0.12890    0.57330    1.000
    H95      H        0.80250    0.13970    0.61350    1.000
    C128     C        0.81160    0.06020    0.54100    1.000
    C129     C        0.78300    0.04450    0.48200    1.000
    H96      H        0.80290    0.99740    0.45940    1.000
    C130     C        0.72350    0.10030    0.45630    1.000
    H97      H        0.70300    0.09040    0.41600    1.000
    C131     C        0.69470    0.16890    0.48870    1.000
    H98      H        0.65590    0.20670    0.47030    1.000
    C132     C        0.87290    0.00490    0.57050    1.000
    C133     C        0.92420    0.90890    0.63170    1.000
    C134     C        0.93200    0.83900    0.67580    1.000
    C135     C        0.00400    0.83640    0.71280    1.000
    H99      H        0.04540    0.87930    0.70980    1.000
    C136     C        0.01400    0.77150    0.75310    1.000
    H100     H        0.06290    0.77000    0.77820    1.000
    C137     C        0.95580    0.70860    0.75850    1.000
    H101     H        0.96360    0.66510    0.78780    1.000
    C138     C        0.88420    0.70870    0.72040    1.000
    C139     C        0.87330    0.77500    0.68010    1.000
    H102     H        0.82450    0.77660    0.65500    1.000
    C140     C        0.81830    0.64210    0.72650    1.000
    C141     C        0.80860    0.59580    0.77830    1.000
    H103     H        0.84810    0.60230    0.81060    1.000
    C142     C        0.74210    0.53860    0.78550    1.000
    H104     H        0.73680    0.50890    0.82320    1.000
    C143     C        0.69740    0.56810    0.68840    1.000
    H105     H        0.65900    0.55850    0.65580    1.000
    C144     C        0.76080    0.62480    0.67940    1.000
    H106     H        0.76590    0.65270    0.64110    1.000
    N31      N        0.62420    0.37930    0.66370    1.000
    N32      N        0.95600    0.00600    0.56600    1.000
    N33      N        0.98830    0.94430    0.60470    1.000
    N34      N        0.85100    0.94470    0.61090    1.000
    N35      N        0.77000    0.92700    0.63310    1.000
    H107     H        0.74400    0.97620    0.64320    1.000
    H108     H        0.73990    0.90040    0.60340    1.000
    N36      N        0.68630    0.52480    0.74120    1.000
    C145     C        0.15680    0.19930    0.42440    1.000
    H109     H        0.14010    0.23010    0.45980    1.000
    C146     C        0.21750    0.23390    0.38610    1.000
    H110     H        0.24070    0.28750    0.39540    1.000
    C147     C        0.24420    0.19160    0.33520    1.000
    C148     C        0.20130    0.11690    0.32120    1.000
    H111     H        0.21370    0.08730    0.28450    1.000
    C149     C        0.14100    0.08680    0.36090    1.000
    H112     H        0.11220    0.03650    0.35020    1.000
    C150     C        0.31740    0.22220    0.29780    1.000
    C151     C        0.37110    0.28190    0.32330    1.000
    H113     H        0.36030    0.30250    0.36350    1.000
    C152     C        0.43980    0.31160    0.29100    1.000
    C153     C        0.45550    0.28300    0.23200    1.000
    H114     H        0.50260    0.30290    0.20940    1.000
    C154     C        0.39970    0.22350    0.20630    1.000
    H115     H        0.40960    0.20300    0.16600    1.000
    C155     C        0.33110    0.19470    0.23870    1.000
    H116     H        0.29330    0.15590    0.22030    1.000
    C156     C        0.49510    0.37290    0.32050    1.000
    C157     C        0.59110    0.42420    0.38170    1.000
    C158     C        0.66100    0.43200    0.42580    1.000
    C159     C        0.66360    0.50400    0.46280    1.000
    H117     H        0.62070    0.54540    0.45980    1.000
    C160     C        0.72850    0.51400    0.50310    1.000
    H118     H        0.73000    0.56290    0.52820    1.000
    C161     C        0.79140    0.45580    0.50850    1.000
    H119     H        0.83490    0.46360    0.53780    1.000
    C162     C        0.79130    0.38420    0.47040    1.000
    C163     C        0.72500    0.37330    0.43010    1.000
    H120     H        0.72340    0.32450    0.40500    1.000
    C164     C        0.85790    0.31830    0.47650    1.000
    C165     C        0.90420    0.30860    0.52830    1.000
    H121     H        0.89770    0.34810    0.56060    1.000
    C166     C        0.96140    0.24210    0.53550    1.000
    H122     H        0.99110    0.23680    0.57320    1.000
    C167     C        0.93190    0.19740    0.43840    1.000
    H123     H        0.94150    0.15900    0.40580    1.000
    C168     C        0.87520    0.26080    0.42940    1.000
    H124     H        0.84730    0.26590    0.39110    1.000
    N37      N        0.12070    0.12420    0.41370    1.000
    N38      N        0.49400    0.45600    0.31600    1.000
    N39      N        0.55570    0.48830    0.35470    1.000
    N40      N        0.55530    0.35100    0.36090    1.000
    N41      N        0.57300    0.27000    0.38310    1.000
    H125     H        0.52380    0.24400    0.39320    1.000
    H126     H        0.59960    0.23990    0.35340    1.000
    N42      N        0.97520    0.18630    0.49120    1.000
    C169     C        0.84320    0.80070    0.92440    1.000
    H127     H        0.85990    0.76990    0.95980    1.000
    C170     C        0.78250    0.76610    0.88610    1.000
    H128     H        0.75930    0.71250    0.89540    1.000
    C171     C        0.75580    0.80840    0.83520    1.000
    C172     C        0.79870    0.88310    0.82120    1.000
    H129     H        0.78630    0.91270    0.78450    1.000
    C173     C        0.85900    0.91320    0.86090    1.000
    H130     H        0.88780    0.96350    0.85020    1.000
    C174     C        0.68260    0.77780    0.79780    1.000
    C175     C        0.62890    0.71810    0.82330    1.000
    H131     H        0.63970    0.69750    0.86350    1.000
    C176     C        0.56020    0.68840    0.79100    1.000
    C177     C        0.54450    0.71700    0.73200    1.000
    H132     H        0.49740    0.69710    0.70940    1.000
    C178     C        0.60030    0.77650    0.70630    1.000
    H133     H        0.59040    0.79700    0.66600    1.000
    C179     C        0.66890    0.80530    0.73870    1.000
    H134     H        0.70670    0.84410    0.72030    1.000
    C180     C        0.50490    0.62710    0.82050    1.000
    C181     C        0.40890    0.57580    0.88170    1.000
    C182     C        0.33900    0.56800    0.92580    1.000
    C183     C        0.33640    0.49600    0.96280    1.000
    H135     H        0.37930    0.45460    0.95980    1.000
    C184     C        0.27150    0.48600    0.00310    1.000
    H136     H        0.27000    0.43710    0.02820    1.000
    C185     C        0.20860    0.54420    0.00850    1.000
    H137     H        0.16510    0.53640    0.03780    1.000
    C186     C        0.20870    0.61580    0.97040    1.000
    C187     C        0.27500    0.62670    0.93010    1.000
    H138     H        0.27660    0.67550    0.90500    1.000
    C188     C        0.14210    0.68170    0.97650    1.000
    C189     C        0.09580    0.69140    0.02830    1.000
    H139     H        0.10230    0.65190    0.06060    1.000
    C190     C        0.03860    0.75790    0.03550    1.000
    H140     H        0.00890    0.76320    0.07320    1.000
    C191     C        0.06810    0.80260    0.93840    1.000
    H141     H        0.05850    0.84100    0.90580    1.000
    C192     C        0.12480    0.73920    0.92940    1.000
    H142     H        0.15270    0.73410    0.89110    1.000
    N43      N        0.87930    0.87580    0.91370    1.000
    N44      N        0.50600    0.54400    0.81600    1.000
    N45      N        0.44430    0.51170    0.85470    1.000
    N46      N        0.44470    0.64900    0.86090    1.000
    N47      N        0.42700    0.73000    0.88310    1.000
    H143     H        0.47620    0.75600    0.89320    1.000
    H144     H        0.40040    0.76010    0.85340    1.000
    N48      N        0.02480    0.81370    0.99120    1.000
    Cd1      Cd       0.55807    0.44193    0.75000    1.000
    Cd2      Cd       0.44193    0.55807    0.25000    1.000
    Cd3      Cd       0.05807    0.05807    0.50000    1.000
    Cd4      Cd       0.94193    0.94193    0.00000    1.000
