data_functionalizedCrystal
_audit_creation_method	'EQeq! by Chris Wilmer'
_symmetry_space_group_name_H-M	'P1'
_symmetry_Int_Tables_number	1
_symmetry_cell_setting	triclinic
loop_
_symmetry_equiv_pos_as_xyz
  x,y,z
_cell_length_a	8.6987
_cell_length_b	34.1408
_cell_length_c	8.6081
_cell_angle_alpha	90
_cell_angle_beta	107.578
_cell_angle_gamma	90
loop_
_atom_site_label
_atom_site_type_symbol
_atom_site_fract_x
_atom_site_fract_y
_atom_site_fract_z
_atom_site_charge
Mof_Cu	Cu	0.74864	0.20347	0.48079	0.95
Mof_Cu	Cu	0.73786	0.04553	0.49831	0.949
Mof_O 	O 	0.89569	0.1535	0.61058	-0.253
Mof_O 	O 	0.84819	0.08994	0.62824	-0.29
Mof_O 	O 	0.62075	0.1601	0.35884	-0.288
Mof_O 	O 	0.61146	0.09515	0.33749	-0.247
Mof_O 	O 	0.62359	0.20582	0.64187	-0.277
Mof_O 	O 	0.58668	0.24811	0.82436	-0.241
Mof_O 	O 	0.87411	0.24625	0.61525	-0.293
Mof_O 	O 	0.85792	0.28752	0.80976	-0.29
Mof_O 	O 	0.90586	0.0408	0.38504	-0.281
Mof_O 	O 	0.0885	0.00016	0.34263	-0.243
Mof_O 	O 	0.5697	0.04222	0.6127	-0.286
Mof_O 	O 	0.37848	3e-05	0.6278	-0.289
Mof_C 	C 	0.8178	0.12323	0.5622	0.228
Mof_C 	C 	0.6695	0.12595	0.4053	0.23
Mof_C 	C 	0.8104	0.25863	0.7193	0.238
Mof_C 	C 	0.6599	0.23615	0.7323	0.212
Mof_C 	C 	0.9999	0.01136	0.4212	0.231
Mof_C 	C 	0.485	0.01226	0.5695	0.224
Mof_Cu	Cu	0.25136	0.70347	0.01921	0.943
Mof_Cu	Cu	0.26214	0.54553	0.00169	0.947
Mof_O 	O 	0.10431	0.6535	0.88942	-0.248
Mof_O 	O 	0.15181	0.58994	0.87176	-0.288
Mof_O 	O 	0.37925	0.6601	0.14116	-0.29
Mof_O 	O 	0.38854	0.59515	0.16251	-0.247
Mof_O 	O 	0.37641	0.70582	0.85813	-0.269
Mof_O 	O 	0.41332	0.74811	0.67564	-0.236
Mof_O 	O 	0.12589	0.74625	0.88475	-0.283
Mof_O 	O 	0.14208	0.78752	0.69024	-0.284
Mof_O 	O 	0.09414	0.5408	0.11496	-0.283
Mof_O 	O 	0.9115	0.50016	0.15737	-0.239
Mof_O 	O 	0.4303	0.54222	0.8873	-0.283
Mof_O 	O 	0.62152	0.50003	0.8722	-0.289
Mof_C 	C 	0.1822	0.62323	0.9378	0.241
Mof_C 	C 	0.3305	0.62595	0.0947	0.219
Mof_C 	C 	0.1896	0.75863	0.7807	0.239
Mof_C 	C 	0.3401	0.73615	0.7677	0.214
Mof_C 	C 	0.0001	0.51136	0.0788	0.228
Mof_C 	C 	0.515	0.51226	0.9305	0.224
Mof_Cu	Cu	0.25136	0.79653	0.51921	0.95
Mof_Cu	Cu	0.26214	0.95447	0.50169	0.949
Mof_O 	O 	0.10431	0.8465	0.38942	-0.253
Mof_O 	O 	0.15181	0.91006	0.37176	-0.29
Mof_O 	O 	0.37925	0.8399	0.64116	-0.288
Mof_O 	O 	0.38854	0.90485	0.66251	-0.247
Mof_O 	O 	0.37641	0.79418	0.35813	-0.277
Mof_O 	O 	0.41332	0.75189	0.17564	-0.241
Mof_O 	O 	0.12589	0.75375	0.38475	-0.293
Mof_O 	O 	0.14208	0.71248	0.19024	-0.29
Mof_O 	O 	0.09414	0.9592	0.61496	-0.281
Mof_O 	O 	0.9115	0.99984	0.65737	-0.243
Mof_O 	O 	0.4303	0.95778	0.3873	-0.286
Mof_O 	O 	0.62152	0.99997	0.3722	-0.289
Mof_C 	C 	0.1822	0.87677	0.4378	0.228
Mof_C 	C 	0.3305	0.87405	0.5947	0.23
Mof_C 	C 	0.1896	0.74137	0.2807	0.238
Mof_C 	C 	0.3401	0.76385	0.2677	0.212
Mof_C 	C 	0.0001	0.98864	0.5788	0.231
Mof_C 	C 	0.515	0.98774	0.4305	0.224
Mof_Cu	Cu	0.74864	0.29653	0.98079	0.943
Mof_Cu	Cu	0.73786	0.45447	0.99831	0.947
Mof_O 	O 	0.89569	0.3465	0.11058	-0.248
Mof_O 	O 	0.84819	0.41006	0.12824	-0.288
Mof_O 	O 	0.62075	0.3399	0.85884	-0.29
Mof_O 	O 	0.61146	0.40485	0.83749	-0.247
Mof_O 	O 	0.62359	0.29418	0.14187	-0.269
Mof_O 	O 	0.58668	0.25189	0.32436	-0.236
Mof_O 	O 	0.87411	0.25375	0.11525	-0.283
Mof_O 	O 	0.85792	0.21248	0.30976	-0.284
Mof_O 	O 	0.90586	0.4592	0.88504	-0.283
Mof_O 	O 	0.0885	0.49984	0.84263	-0.239
Mof_O 	O 	0.5697	0.45778	0.1127	-0.283
Mof_O 	O 	0.37848	0.49997	0.1278	-0.289
Mof_C 	C 	0.8178	0.37677	0.0622	0.241
Mof_C 	C 	0.6695	0.37405	0.9053	0.219
Mof_C 	C 	0.8104	0.24137	0.2193	0.239
Mof_C 	C 	0.6599	0.26385	0.2323	0.214
Mof_C 	C 	0.9999	0.48864	0.9212	0.228
Mof_C 	C 	0.485	0.48774	0.0695	0.224
_end
