data_functionalizedCrystal
_audit_creation_method	'EQeq! by Chris Wilmer'
_symmetry_space_group_name_H-M	'P1'
_symmetry_Int_Tables_number	1
_symmetry_cell_setting	triclinic
loop_
_symmetry_equiv_pos_as_xyz
  x,y,z
_cell_length_a	6.804
_cell_length_b	10.347
_cell_length_c	11.498
_cell_angle_alpha	68.145
_cell_angle_beta	77.492
_cell_angle_gamma	73.837
loop_
_atom_site_label
_atom_site_type_symbol
_atom_site_fract_x
_atom_site_fract_y
_atom_site_fract_z
_atom_site_charge
Mof_Cd	Cd	0.89	0.57719	0.62964	0.469
Mof_Cd	Cd	0.63799	0.32123	0.92237	0.451
Mof_Cd	Cd	0.11	0.42281	0.37036	0.468
Mof_Cd	Cd	0.36201	0.67877	0.07763	0.45
Mof_H 	H 	0.3291	0.945	0.6727	0.044
Mof_H 	H 	0.1988	0.9561	0.3435	0.042
Mof_H 	H 	0.4036	0.58	0.6041	0.042
Mof_H 	H 	0.192	0.195	0.144	0.174
Mof_H 	H 	0.987	0.206	0.14	0.173
Mof_H 	H 	0.6709	0.055	0.3273	0.044
Mof_H 	H 	0.8012	0.0439	0.6565	0.042
Mof_H 	H 	0.5964	0.42	0.3959	0.042
Mof_H 	H 	0.808	0.805	0.856	0.174
Mof_H 	H 	0.013	0.794	0.86	0.173
Mof_C 	C 	0.3754	0.7499	0.6572	-0.098
Mof_C 	C 	0.3211	0.8982	0.6193	0.037
Mof_C 	C 	0.255	0.9764	0.5014	-0.091
Mof_C 	C 	0.2405	0.9046	0.423	0.04
Mof_C 	C 	0.2884	0.7562	0.4638	-0.093
Mof_C 	C 	0.3627	0.6789	0.5794	0.041
Mof_C 	C 	0.455	0.6677	0.7833	0.329
Mof_C 	C 	0.2012	0.1368	0.456	0.306
Mof_C 	C 	0.2489	0.6779	0.387	0.334
Mof_C 	C 	0.123	0.2902	0.9812	0.208
Mof_C 	C 	0.6246	0.2501	0.3428	-0.098
Mof_C 	C 	0.6789	0.1018	0.3807	0.037
Mof_C 	C 	0.745	0.0236	0.4986	-0.091
Mof_C 	C 	0.7595	0.0954	0.577	0.04
Mof_C 	C 	0.7116	0.2438	0.5362	-0.093
Mof_C 	C 	0.6373	0.3211	0.4206	0.041
Mof_C 	C 	0.545	0.3323	0.2167	0.329
Mof_C 	C 	0.7988	0.8632	0.544	0.306
Mof_C 	C 	0.7511	0.3221	0.613	0.334
Mof_C 	C 	0.877	0.7098	0.0188	0.208
Mof_N 	N 	0.9737	0.3434	0.906	-0.122
Mof_N 	N 	0.0562	0.4293	0.7986	-0.068
Mof_N 	N 	0.2439	0.4311	0.8062	-0.048
Mof_N 	N 	0.2944	0.342	0.9213	-0.127
Mof_N 	N 	0.1088	0.1907	0.0994	-0.319
Mof_N 	N 	0.0263	0.6566	0.094	-0.122
Mof_N 	N 	0.9438	0.5707	0.2014	-0.068
Mof_N 	N 	0.7561	0.5689	0.1938	-0.048
Mof_N 	N 	0.7056	0.658	0.0787	-0.127
Mof_N 	N 	0.8912	0.8093	0.9006	-0.319
Mof_O 	O 	0.6019	0.5576	0.791	-0.296
Mof_O 	O 	0.3657	0.7115	0.8727	-0.301
Mof_O 	O 	0.2032	0.2008	0.5302	-0.261
Mof_O 	O 	0.159	0.2033	0.3465	-0.288
Mof_O 	O 	0.2873	0.7225	0.2716	-0.281
Mof_O 	O 	0.1794	0.565	0.4532	-0.296
Mof_O 	O 	0.3981	0.4424	0.209	-0.296
Mof_O 	O 	0.6343	0.2885	0.1273	-0.301
Mof_O 	O 	0.7968	0.7992	0.4698	-0.261
Mof_O 	O 	0.841	0.7967	0.6535	-0.288
Mof_O 	O 	0.7127	0.2775	0.7284	-0.281
Mof_O 	O 	0.8206	0.435	0.5468	-0.296
_end
