data_functionalizedCrystal
_audit_creation_method	'EQeq! by Chris Wilmer'
_symmetry_space_group_name_H-M	'P1'
_symmetry_Int_Tables_number	1
_symmetry_cell_setting	triclinic
loop_
_symmetry_equiv_pos_as_xyz
  x,y,z
_cell_length_a	9.5475
_cell_length_b	11.44
_cell_length_c	13.2092
_cell_angle_alpha	90
_cell_angle_beta	109.974
_cell_angle_gamma	90
loop_
_atom_site_label
_atom_site_type_symbol
_atom_site_fract_x
_atom_site_fract_y
_atom_site_fract_z
_atom_site_charge
Mof_Ag	Ag	0.98325	0.27836	0.62728	0.451
Mof_Ag	Ag	0.44741	0.22008	0.85547	0.392
Mof_Ag	Ag	0.41368	0.7298	0.39374	0.377
Mof_Ag	Ag	0.07082	0.14702	0.91383	0.453
Mof_Ag	Ag	0.01675	0.77836	0.37272	0.445
Mof_Ag	Ag	0.55259	0.72008	0.14453	0.385
Mof_Ag	Ag	0.58632	0.2298	0.60626	0.381
Mof_Ag	Ag	0.92918	0.64702	0.08617	0.445
Mof_P 	P 	0.19736	0.44898	0.88594	0.153
Mof_P 	P 	0.18829	0.48041	0.38441	0.151
Mof_P 	P 	0.80264	0.94898	0.11406	0.141
Mof_P 	P 	0.81171	0.98041	0.61559	0.147
Mof_H 	H 	0.0416	0.5502	0.7344	0.041
Mof_H 	H 	0.2125	0.5626	0.7418	0.041
Mof_H 	H 	0.4522	0.499	0.9438	0.017
Mof_H 	H 	0.4096	0.4501	0.0436	0.022
Mof_H 	H 	0.0946	0.4253	0.0235	0.025
Mof_H 	H 	0.9663	0.4614	0.913	0.019
Mof_H 	H 	0.2711	0.5705	0.1256	-0.008
Mof_H 	H 	0.2455	0.7065	0.0976	-0.029
Mof_H 	H 	0.0481	0.7634	0.9247	-0.002
Mof_H 	H 	0.9497	0.6627	0.8498	0.011
Mof_H 	H 	0.3763	0.6908	0.8747	-0.001
Mof_H 	H 	0.3109	0.7823	0.9385	-0.012
Mof_H 	H 	0.9798	0.4704	0.4409	0.022
Mof_H 	H 	0.1253	0.5061	0.5405	0.028
Mof_H 	H 	0.4206	0.4811	0.5262	0.016
Mof_H 	H 	0.4405	0.4303	0.4185	0.018
Mof_H 	H 	0.1755	0.3626	0.2368	0.044
Mof_H 	H 	0.0131	0.3757	0.2464	0.044
Mof_H 	H 	0.279	0.2257	0.603	-0.036
Mof_H 	H 	0.3091	0.3618	0.6282	-0.021
Mof_H 	H 	0.949	0.2666	0.3772	0.008
Mof_H 	H 	0.0565	0.1666	0.4464	-0.003
Mof_H 	H 	0.3063	0.146	0.4329	-0.009
Mof_H 	H 	0.3545	0.2347	0.3572	0
Mof_H 	H 	0.9584	0.0502	0.2656	0.041
Mof_H 	H 	0.7875	0.0626	0.2582	0.041
Mof_H 	H 	0.5478	0.999	0.0562	0
Mof_H 	H 	0.5904	0.9501	0.9564	0.009
Mof_H 	H 	0.9054	0.9253	0.9765	0.029
Mof_H 	H 	0.0337	0.9614	0.087	0.019
Mof_H 	H 	0.7289	0.0705	0.8744	-0.006
Mof_H 	H 	0.7545	0.2065	0.9024	-0.029
Mof_H 	H 	0.9519	0.2634	0.0753	-0.002
Mof_H 	H 	0.0503	0.1627	0.1502	0.012
Mof_H 	H 	0.6237	0.1908	0.1253	0
Mof_H 	H 	0.6891	0.2823	0.0615	-0.012
Mof_H 	H 	0.0202	0.9704	0.5591	0.023
Mof_H 	H 	0.8747	0.0061	0.4595	0.037
Mof_H 	H 	0.5794	0.9811	0.4738	0.013
Mof_H 	H 	0.5595	0.9303	0.5815	0.016
Mof_H 	H 	0.8245	0.8626	0.7632	0.042
Mof_H 	H 	0.9869	0.8757	0.7536	0.043
Mof_H 	H 	0.721	0.7257	0.397	-0.036
Mof_H 	H 	0.6909	0.8618	0.3718	-0.022
Mof_H 	H 	0.051	0.7666	0.6228	0.007
Mof_H 	H 	0.9435	0.6666	0.5536	-0.004
Mof_H 	H 	0.6937	0.646	0.5671	-0.011
Mof_H 	H 	0.6455	0.7347	0.6428	-0.001
Mof_C 	C 	0.1447	0.563	0.7842	-0.123
Mof_C 	C 	0.3758	0.5007	0.979	-0.113
Mof_C 	C 	0.0703	0.4771	0.9597	-0.117
Mof_C 	C 	0.2424	0.6278	0.0658	0.011
Mof_C 	C 	0.0507	0.682	0.8999	0.008
Mof_C 	C 	0.3057	0.7	0.9143	0.015
Mof_C 	C 	0.0872	0.454	0.4771	-0.12
Mof_C 	C 	0.3759	0.4293	0.4633	-0.115
Mof_C 	C 	0.1201	0.3635	0.2879	-0.122
Mof_C 	C 	0.2699	0.304	0.5695	0.024
Mof_C 	C 	0.054	0.2473	0.4187	0.006
Mof_C 	C 	0.2967	0.2276	0.4065	0.011
Mof_C 	C 	0.8553	0.063	0.2158	-0.116
Mof_C 	C 	0.6242	0.0007	0.021	-0.079
Mof_C 	C 	0.9297	0.9771	0.0403	-0.129
Mof_C 	C 	0.7576	0.1278	0.9342	0.012
Mof_C 	C 	0.9493	0.182	0.1001	0.008
Mof_C 	C 	0.6943	0.2	0.0857	0.015
Mof_C 	C 	0.9128	0.954	0.5229	-0.131
Mof_C 	C 	0.6241	0.9293	0.5367	-0.114
Mof_C 	C 	0.8799	0.8635	0.7121	-0.121
Mof_C 	C 	0.7301	0.804	0.4305	0.024
Mof_C 	C 	0.946	0.7473	0.5813	0.007
Mof_C 	C 	0.7033	0.7276	0.5935	0.012
Mof_S 	S 	0.19045	0.28596	0.82719	-0.391
Mof_S 	S 	0.16997	0.63589	0.31111	-0.362
Mof_S 	S 	0.80955	0.78596	0.17281	-0.39
Mof_S 	S 	0.83003	0.13589	0.68889	-0.358
Mof_N 	N 	0.1554	0.6759	0.8411	-0.103
Mof_N 	N 	0.3533	0.6229	0.01003	-0.149
Mof_N 	N 	0.0868	0.6028	0.9945	-0.15
Mof_N 	N 	0.1093	0.329	0.51178	-0.151
Mof_N 	N 	0.3628	0.3075	0.5003	-0.153
Mof_N 	N 	0.1409	0.2515	0.3466	-0.102
Mof_N 	N 	0.8446	0.1759	0.1589	-0.104
Mof_N 	N 	0.6467	0.1229	0.98997	-0.151
Mof_N 	N 	0.9132	0.1028	0.0055	-0.147
Mof_N 	N 	0.8907	0.829	0.48822	-0.15
Mof_N 	N 	0.6372	0.8075	0.4997	-0.154
Mof_N 	N 	0.8591	0.7515	0.6534	-0.103
_end
