# CIF file generated by openbabel 3.1.0, see https://openbabel.org
data_I
_chemical_name_common 'QOPHEI_clean'
_cell_length_a 6.468
_cell_length_b 9.9391
_cell_length_c 9.9391
_cell_angle_alpha 119.448
_cell_angle_beta 105.376
_cell_angle_gamma 74.6243
_space_group_name_H-M_alt 'P 1'
_space_group_name_Hall 'P 1'
loop_
    _symmetry_equiv_pos_as_xyz
    x,y,z
loop_
    _atom_site_label
    _atom_site_type_symbol
    _atom_site_fract_x
    _atom_site_fract_y
    _atom_site_fract_z
    _atom_site_occupancy
    Co1      Co       0.50000    0.00000    0.00000    1.000
    Co2      Co       0.00000    0.84774    0.84774    1.000
    Co3      Co       0.00000    0.15226    0.15226    1.000
    H1       H        0.68820    0.57780    0.06240    1.000
    H2       H        0.61550    0.45570    0.88390    1.000
    H3       H        0.72250    0.67690    0.79530    1.000
    H4       H        0.94160    0.67350    0.80330    1.000
    H5       H        0.31180    0.06240    0.57780    1.000
    H6       H        0.38450    0.88390    0.45570    1.000
    H7       H        0.27750    0.79530    0.67690    1.000
    H8       H        0.05840    0.80330    0.67350    1.000
    H9       H        0.31180    0.42220    0.93760    1.000
    H10      H        0.38450    0.54430    0.11610    1.000
    H11      H        0.27750    0.32310    0.20470    1.000
    H12      H        0.05840    0.32650    0.19670    1.000
    H13      H        0.68820    0.93760    0.42220    1.000
    H14      H        0.61550    0.11610    0.54430    1.000
    H15      H        0.72250    0.20470    0.32310    1.000
    H16      H        0.94160    0.19670    0.32650    1.000
    H17      H        0.15730    0.08210    0.91790    1.000
    H18      H        0.84270    0.91790    0.08210    1.000
    C1       C        0.42800    0.68191    0.95789    1.000
    C2       C        0.56100    0.54544    0.98696    1.000
    C3       C        0.57200    0.95789    0.68191    1.000
    C4       C        0.43900    0.98696    0.54544    1.000
    C5       C        0.57200    0.31809    0.04211    1.000
    C6       C        0.43900    0.45456    0.01304    1.000
    C7       C        0.42800    0.04211    0.31809    1.000
    C8       C        0.56100    0.01304    0.45456    1.000
    O1       O        0.22550    0.71037    0.95303    1.000
    O2       O        0.53290    0.75884    0.93774    1.000
    O3       O        0.82150    0.65789    0.73971    1.000
    O4       O        0.77450    0.95303    0.71037    1.000
    O5       O        0.46710    0.93774    0.75884    1.000
    O6       O        0.17850    0.73971    0.65789    1.000
    O7       O        0.77450    0.28963    0.04697    1.000
    O8       O        0.46710    0.24116    0.06226    1.000
    O9       O        0.17850    0.34211    0.26029    1.000
    O10      O        0.22550    0.04697    0.28963    1.000
    O11      O        0.53290    0.06226    0.24116    1.000
    O12      O        0.82150    0.26029    0.34211    1.000
    O13      O        0.16830    0.03458    0.96542    1.000
    O14      O        0.83170    0.96542    0.03458    1.000
