data_functionalizedCrystal
_audit_creation_method	'EQeq! by Chris Wilmer'
_symmetry_space_group_name_H-M	'P1'
_symmetry_Int_Tables_number	1
_symmetry_cell_setting	triclinic
loop_
_symmetry_equiv_pos_as_xyz
  x,y,z
_cell_length_a	18.658
_cell_length_b	20.089
_cell_length_c	21.137
_cell_angle_alpha	90
_cell_angle_beta	90
_cell_angle_gamma	90
loop_
_atom_site_label
_atom_site_type_symbol
_atom_site_fract_x
_atom_site_fract_y
_atom_site_fract_z
_atom_site_charge
Mof_Ni	Ni	0.54918	0.14384	0.81094	1.074
Mof_Ni	Ni	0.21956	0.99255	0.0136	1.102
Mof_Ni	Ni	0.95082	0.85616	0.31094	1.073
Mof_Ni	Ni	0.28044	0.00745	0.5136	1.1
Mof_Ni	Ni	0.45082	0.64384	0.68906	1.074
Mof_Ni	Ni	0.78044	0.49255	0.4864	1.101
Mof_Ni	Ni	0.04918	0.35616	0.18906	1.073
Mof_Ni	Ni	0.71956	0.50745	0.9864	1.101
Mof_Mo	Mo	0.60955	0.54809	0.72467	1.678
Mof_Mo	Mo	0.63708	0.44204	0.60055	1.657
Mof_Mo	Mo	0.6874	0.29288	0.65843	1.156
Mof_Mo	Mo	0.66984	0.29437	0.81954	1.609
Mof_Mo	Mo	0.59189	0.44097	0.86202	1.741
Mof_Mo	Mo	0.89045	0.45191	0.22467	1.679
Mof_Mo	Mo	0.86292	0.55796	0.10055	1.658
Mof_Mo	Mo	0.8126	0.70712	0.15843	1.157
Mof_Mo	Mo	0.83016	0.70563	0.31954	1.609
Mof_Mo	Mo	0.90811	0.55903	0.36202	1.741
Mof_Mo	Mo	0.39045	0.04809	0.77533	1.679
Mof_Mo	Mo	0.36292	0.94204	0.89945	1.659
Mof_Mo	Mo	0.3126	0.79288	0.84157	1.158
Mof_Mo	Mo	0.33016	0.79437	0.68046	1.61
Mof_Mo	Mo	0.40811	0.94097	0.63798	1.743
Mof_Mo	Mo	0.10955	0.95191	0.27533	1.68
Mof_Mo	Mo	0.13708	0.05796	0.39945	1.655
Mof_Mo	Mo	0.1874	0.20712	0.34157	1.157
Mof_Mo	Mo	0.16984	0.20563	0.18046	1.61
Mof_Mo	Mo	0.09189	0.05903	0.13798	1.738
Mof_P 	P 	0.7323	0.4325	0.74499	0.611
Mof_P 	P 	0.541	0.37906	0.72352	0.611
Mof_P 	P 	0.7677	0.5675	0.24499	0.611
Mof_P 	P 	0.959	0.62094	0.22352	0.611
Mof_P 	P 	0.2677	0.9325	0.75501	0.612
Mof_P 	P 	0.459	0.87906	0.77648	0.611
Mof_P 	P 	0.2323	0.0675	0.25501	0.609
Mof_P 	P 	0.041	0.12094	0.27648	0.609
Mof_H 	H 	0.5815	0.9945	0.7618	0.003
Mof_H 	H 	0.7149	0.1423	0.7501	-0.03
Mof_H 	H 	0.8372	0.0584	0.7407	0.065
Mof_H 	H 	0.8173	0.9976	0.6975	0.074
Mof_H 	H 	0.871	0.8999	0.7341	0.062
Mof_H 	H 	0.9351	0.8517	0.8246	0.054
Mof_H 	H 	0.8601	0.0079	0.9332	0.051
Mof_H 	H 	0.7933	0.0449	0.8516	0.064
Mof_H 	H 	0.9487	0.8485	0.9387	0.06
Mof_H 	H 	0.9284	0.9109	0.98	0.051
Mof_H 	H 	0.0455	0.972	0.0175	-0.054
Mof_H 	H 	0.1737	0.9138	0.8846	-0.007
Mof_H 	H 	0.678	0.3498	0.9709	-0.034
Mof_H 	H 	0.7377	0.4377	0.1239	0.005
Mof_H 	H 	0.7256	0.2165	0.0682	0.075
Mof_H 	H 	0.6862	0.2292	0.0038	0.054
Mof_H 	H 	0.5705	0.2039	0.9914	0.049
Mof_H 	H 	0.4593	0.1712	0.0329	0.072
Mof_H 	H 	0.5283	0.1869	0.2057	0.061
Mof_H 	H 	0.6414	0.2253	0.1706	0.061
Mof_H 	H 	0.4281	0.1269	0.1911	0.089
Mof_H 	H 	0.3851	0.1793	0.1518	0.062
Mof_H 	H 	0.2867	0.1212	0.0866	-0.037
Mof_H 	H 	0.3817	0.9524	0.069	-0.027
Mof_H 	H 	0.6845	0.1425	0.9054	-0.031
Mof_H 	H 	0.5226	0.0271	0.9154	-0.039
Mof_H 	H 	0.619	0.9848	0.0504	0.071
Mof_H 	H 	0.5581	0.9529	0.0089	0.049
Mof_H 	H 	0.6204	0.9144	0.8993	0.078
Mof_H 	H 	0.6974	0.8397	0.8629	0.055
Mof_H 	H 	0.7867	0.8201	0.0325	-0.002
Mof_H 	H 	0.7161	0.902	0.0648	0.053
Mof_H 	H 	0.8339	0.7719	0.8844	0.071
Mof_H 	H 	0.8456	0.7583	0.9569	0.049
Mof_H 	H 	0.6994	0.5879	0.8499	-0.025
Mof_H 	H 	0.7657	0.6582	0.0066	-0.03
Mof_H 	H 	0.4079	0.1272	0.904	-0.022
Mof_H 	H 	0.4959	0.2898	0.8498	-0
Mof_H 	H 	0.3425	0.346	0.9374	0.064
Mof_H 	H 	0.418	0.3737	0.9179	0.041
Mof_H 	H 	0.3225	0.3053	0.0452	0.036
Mof_H 	H 	0.3516	0.3122	0.1511	0.039
Mof_H 	H 	0.5475	0.378	0.1037	0.08
Mof_H 	H 	0.5128	0.3795	0.9972	0.016
Mof_H 	H 	0.423	0.3944	0.2234	0.068
Mof_H 	H 	0.4566	0.3233	0.2318	0.075
Mof_H 	H 	0.6856	0.4048	0.2497	-0.011
Mof_H 	H 	0.5128	0.4957	0.2052	-0.005
Mof_H 	H 	0.6294	0.5101	0.2406	0.187
Mof_H 	H 	0.9185	0.0055	0.2618	0.006
Mof_H 	H 	0.7851	0.8577	0.2501	-0.029
Mof_H 	H 	0.6628	0.9416	0.2407	0.068
Mof_H 	H 	0.6827	0.0024	0.1975	0.078
Mof_H 	H 	0.629	0.1001	0.2341	0.064
Mof_H 	H 	0.5649	0.1483	0.3246	0.052
Mof_H 	H 	0.6399	0.9921	0.4332	0.046
Mof_H 	H 	0.7067	0.9551	0.3516	0.069
Mof_H 	H 	0.5513	0.1515	0.4387	0.059
Mof_H 	H 	0.5716	0.0891	0.48	0.051
Mof_H 	H 	0.4545	0.028	0.5175	-0.055
Mof_H 	H 	0.3263	0.0862	0.3846	-0.007
Mof_H 	H 	0.822	0.6502	0.4709	-0.033
Mof_H 	H 	0.7623	0.5623	0.6239	0.005
Mof_H 	H 	0.7744	0.7835	0.5682	0.075
Mof_H 	H 	0.8138	0.7708	0.5038	0.053
Mof_H 	H 	0.9295	0.7961	0.4914	0.05
Mof_H 	H 	0.0407	0.8288	0.5329	0.071
Mof_H 	H 	0.9717	0.8131	0.7057	0.062
Mof_H 	H 	0.8586	0.7747	0.6706	0.06
Mof_H 	H 	0.0719	0.8731	0.6911	0.09
Mof_H 	H 	0.1149	0.8207	0.6518	0.063
Mof_H 	H 	0.2133	0.8788	0.5866	-0.037
Mof_H 	H 	0.1183	0.0476	0.569	-0.025
Mof_H 	H 	0.8155	0.8575	0.4054	-0.031
Mof_H 	H 	0.9774	0.9729	0.4154	-0.039
Mof_H 	H 	0.881	0.0152	0.5504	0.072
Mof_H 	H 	0.9419	0.0471	0.5089	0.05
Mof_H 	H 	0.8796	0.0856	0.3993	0.079
Mof_H 	H 	0.8026	0.1603	0.3629	0.055
Mof_H 	H 	0.7133	0.1799	0.5325	-0.002
Mof_H 	H 	0.7839	0.098	0.5648	0.054
Mof_H 	H 	0.6661	0.2281	0.3844	0.071
Mof_H 	H 	0.6544	0.2417	0.4569	0.049
Mof_H 	H 	0.8006	0.4121	0.3499	-0.025
Mof_H 	H 	0.7343	0.3418	0.5066	-0.032
Mof_H 	H 	0.0921	0.8728	0.404	-0.021
Mof_H 	H 	0.0041	0.7102	0.3498	-0
Mof_H 	H 	0.1575	0.654	0.4374	0.063
Mof_H 	H 	0.082	0.6263	0.4179	0.041
Mof_H 	H 	0.1775	0.6947	0.5452	0.035
Mof_H 	H 	0.1484	0.6878	0.6511	0.04
Mof_H 	H 	0.9525	0.622	0.6037	0.082
Mof_H 	H 	0.9872	0.6205	0.4972	0.014
Mof_H 	H 	0.077	0.6056	0.7234	0.069
Mof_H 	H 	0.0434	0.6767	0.7318	0.075
Mof_H 	H 	0.8144	0.5952	0.7497	-0.011
Mof_H 	H 	0.9872	0.5043	0.7052	-0.005
Mof_H 	H 	0.8706	0.4899	0.7406	0.187
Mof_H 	H 	0.4185	0.4945	0.7382	0.003
Mof_H 	H 	0.2851	0.6423	0.7499	-0.029
Mof_H 	H 	0.1628	0.5584	0.7593	0.067
Mof_H 	H 	0.1827	0.4976	0.8025	0.078
Mof_H 	H 	0.129	0.3999	0.7659	0.064
Mof_H 	H 	0.0649	0.3517	0.6754	0.052
Mof_H 	H 	0.1399	0.5079	0.5668	0.046
Mof_H 	H 	0.2067	0.5449	0.6484	0.069
Mof_H 	H 	0.0513	0.3485	0.5613	0.059
Mof_H 	H 	0.0716	0.4109	0.52	0.051
Mof_H 	H 	0.9545	0.472	0.4825	-0.054
Mof_H 	H 	0.8263	0.4138	0.6154	-0.007
Mof_H 	H 	0.322	0.8498	0.5291	-0.033
Mof_H 	H 	0.2623	0.9377	0.3761	0.005
Mof_H 	H 	0.2744	0.7165	0.4318	0.075
Mof_H 	H 	0.3138	0.7292	0.4962	0.053
Mof_H 	H 	0.4295	0.7039	0.5086	0.05
Mof_H 	H 	0.5407	0.6712	0.4671	0.071
Mof_H 	H 	0.4717	0.6869	0.2943	0.061
Mof_H 	H 	0.3586	0.7253	0.3294	0.061
Mof_H 	H 	0.5719	0.6269	0.3089	0.089
Mof_H 	H 	0.6149	0.6793	0.3482	0.062
Mof_H 	H 	0.7133	0.6212	0.4134	-0.037
Mof_H 	H 	0.6183	0.4524	0.431	-0.026
Mof_H 	H 	0.3155	0.6425	0.5946	-0.031
Mof_H 	H 	0.4774	0.5271	0.5846	-0.038
Mof_H 	H 	0.381	0.4848	0.4496	0.072
Mof_H 	H 	0.4419	0.4529	0.4911	0.05
Mof_H 	H 	0.3796	0.4144	0.6007	0.079
Mof_H 	H 	0.3026	0.3397	0.6371	0.054
Mof_H 	H 	0.2133	0.3201	0.4675	-0.002
Mof_H 	H 	0.2839	0.402	0.4352	0.054
Mof_H 	H 	0.1661	0.2719	0.6156	0.071
Mof_H 	H 	0.1544	0.2583	0.5431	0.049
Mof_H 	H 	0.3006	0.0879	0.6501	-0.025
Mof_H 	H 	0.2343	0.1582	0.4934	-0.032
Mof_H 	H 	0.5921	0.6272	0.596	-0.022
Mof_H 	H 	0.5041	0.7898	0.6502	-0
Mof_H 	H 	0.6575	0.846	0.5626	0.064
Mof_H 	H 	0.582	0.8737	0.5821	0.041
Mof_H 	H 	0.6775	0.8053	0.4548	0.036
Mof_H 	H 	0.6484	0.8122	0.3489	0.039
Mof_H 	H 	0.4525	0.878	0.3963	0.08
Mof_H 	H 	0.4872	0.8795	0.5028	0.016
Mof_H 	H 	0.577	0.8944	0.2766	0.068
Mof_H 	H 	0.5434	0.8233	0.2682	0.075
Mof_H 	H 	0.3144	0.9048	0.2503	-0.011
Mof_H 	H 	0.4872	0.9957	0.2948	-0.004
Mof_H 	H 	0.3706	0.0101	0.2594	0.186
Mof_H 	H 	0.0815	0.5055	0.2382	0.003
Mof_H 	H 	0.2149	0.3577	0.2499	-0.029
Mof_H 	H 	0.3372	0.4416	0.2593	0.067
Mof_H 	H 	0.3173	0.5024	0.3025	0.078
Mof_H 	H 	0.371	0.6001	0.2659	0.064
Mof_H 	H 	0.4351	0.6483	0.1754	0.052
Mof_H 	H 	0.3601	0.4921	0.0668	0.046
Mof_H 	H 	0.2933	0.4551	0.1484	0.069
Mof_H 	H 	0.4487	0.6515	0.0613	0.059
Mof_H 	H 	0.4284	0.5891	0.02	0.051
Mof_H 	H 	0.5455	0.528	0.9825	-0.055
Mof_H 	H 	0.6737	0.5862	0.1154	-0.007
Mof_H 	H 	0.178	0.1502	0.0291	-0.034
Mof_H 	H 	0.2377	0.0623	0.8761	0.005
Mof_H 	H 	0.2256	0.2835	0.9318	0.075
Mof_H 	H 	0.1862	0.2708	0.9962	0.053
Mof_H 	H 	0.0705	0.2961	0.0086	0.048
Mof_H 	H 	0.9593	0.3288	0.9671	0.072
Mof_H 	H 	0.0283	0.3131	0.7943	0.061
Mof_H 	H 	0.1414	0.2747	0.8294	0.06
Mof_H 	H 	0.9281	0.3731	0.8089	0.089
Mof_H 	H 	0.8851	0.3207	0.8482	0.062
Mof_H 	H 	0.7867	0.3788	0.9134	-0.037
Mof_H 	H 	0.8817	0.5476	0.931	-0.026
Mof_H 	H 	0.1845	0.3575	0.0946	-0.031
Mof_H 	H 	0.0226	0.4729	0.0846	-0.039
Mof_H 	H 	0.119	0.5152	0.9496	0.071
Mof_H 	H 	0.0581	0.5471	0.9911	0.05
Mof_H 	H 	0.1204	0.5856	0.1007	0.078
Mof_H 	H 	0.1974	0.6603	0.1371	0.055
Mof_H 	H 	0.2867	0.6799	0.9675	-0.002
Mof_H 	H 	0.2161	0.598	0.9352	0.053
Mof_H 	H 	0.3339	0.7281	0.1156	0.071
Mof_H 	H 	0.3456	0.7417	0.0431	0.049
Mof_H 	H 	0.1994	0.9121	0.1501	-0.025
Mof_H 	H 	0.2657	0.8418	0.9934	-0.032
Mof_H 	H 	0.9079	0.3728	0.096	-0.021
Mof_H 	H 	0.9959	0.2102	0.1502	0.001
Mof_H 	H 	0.8425	0.154	0.0626	0.063
Mof_H 	H 	0.918	0.1263	0.0821	0.041
Mof_H 	H 	0.8225	0.1947	0.9548	0.034
Mof_H 	H 	0.8516	0.1878	0.8489	0.041
Mof_H 	H 	0.0475	0.122	0.8963	0.082
Mof_H 	H 	0.0128	0.1205	0.0028	0.012
Mof_H 	H 	0.923	0.1056	0.7766	0.069
Mof_H 	H 	0.9566	0.1767	0.7682	0.075
Mof_H 	H 	0.1856	0.0952	0.7503	-0.011
Mof_H 	H 	0.0128	0.0043	0.7948	-0.006
Mof_H 	H 	0.1294	0.9899	0.7594	0.189
Mof_C 	C 	0.6233	0.0187	0.7555	0.117
Mof_C 	C 	0.694	0.1003	0.7497	0.07
Mof_C 	C 	0.8065	0.0195	0.7373	-0.139
Mof_C 	C 	0.822	0.9753	0.7879	0.083
Mof_C 	C 	0.8679	0.9183	0.7744	-0.086
Mof_C 	C 	0.9094	0.8912	0.8286	-0.062
Mof_C 	C 	0.9089	0.9258	0.885	0.051
Mof_C 	C 	0.8615	0.9861	0.8944	-0.055
Mof_C 	C 	0.8219	0.0074	0.8462	-0.077
Mof_C 	C 	0.9501	0.8967	0.9405	-0.113
Mof_C 	C 	0.064	0.9533	0.9808	0.108
Mof_C 	C 	0.1322	0.9216	0.9078	0.107
Mof_C 	C 	0.6918	0.3583	0.0124	0.113
Mof_C 	C 	0.7243	0.4044	0.0957	0.096
Mof_C 	C 	0.6858	0.2398	0.0486	-0.119
Mof_C 	C 	0.6193	0.2158	0.076	0.061
Mof_C 	C 	0.5642	0.2004	0.0349	-0.055
Mof_C 	C 	0.497	0.1787	0.0608	-0.085
Mof_C 	C 	0.4851	0.1686	0.1232	0.09
Mof_C 	C 	0.5372	0.1885	0.1625	-0.092
Mof_C 	C 	0.6065	0.2125	0.1416	-0.057
Mof_C 	C 	0.419	0.1429	0.1486	-0.136
Mof_C 	C 	0.3202	0.0868	0.0871	0.105
Mof_C 	C 	0.3737	0.9967	0.0796	0.106
Mof_C 	C 	0.6531	0.1089	0.9175	0.113
Mof_C 	C 	0.5668	0.0468	0.9234	0.109
Mof_C 	C 	0.6066	0.9704	0.008	-0.115
Mof_C 	C 	0.6587	0.916	0.9862	0.08
Mof_C 	C 	0.655	0.8965	0.926	-0.098
Mof_C 	C 	0.702	0.8495	0.9058	-0.034
Mof_C 	C 	0.7581	0.811	0.9386	0.023
Mof_C 	C 	0.7552	0.8381	0.003	-0.027
Mof_C 	C 	0.711	0.887	0.0234	-0.109
Mof_C 	C 	0.8099	0.7609	0.9237	-0.106
Mof_C 	C 	0.7235	0.6154	0.8781	0.103
Mof_C 	C 	0.7578	0.6513	0.9637	0.101
Mof_C 	C 	0.418	0.1724	0.9007	0.092
Mof_C 	C 	0.468	0.2582	0.8705	0.086
Mof_C 	C 	0.3938	0.3392	0.9419	-0.101
Mof_C 	C 	0.4142	0.3445	0.0103	0.033
Mof_C 	C 	0.3667	0.3227	0.057	-0.047
Mof_C 	C 	0.3844	0.3266	0.1209	-0.094
Mof_C 	C 	0.4504	0.3518	0.1403	0.084
Mof_C 	C 	0.5007	0.367	0.0927	-0.095
Mof_C 	C 	0.4804	0.3657	0.0279	-0.034
Mof_C 	C 	0.4604	0.3648	0.2086	-0.139
Mof_C 	C 	0.637	0.4122	0.2428	0.154
Mof_C 	C 	0.5453	0.4632	0.2178	0.139
Mof_C 	C 	0.8767	0.9813	0.2555	0.112
Mof_C 	C 	0.806	0.8997	0.2497	0.069
Mof_C 	C 	0.6935	0.9805	0.2373	-0.15
Mof_C 	C 	0.678	0.0247	0.2879	0.094
Mof_C 	C 	0.6321	0.0817	0.2744	-0.093
Mof_C 	C 	0.5906	0.1088	0.3286	-0.056
Mof_C 	C 	0.5911	0.0742	0.385	0.045
Mof_C 	C 	0.6385	0.0139	0.3944	-0.041
Mof_C 	C 	0.6781	0.9926	0.3462	-0.092
Mof_C 	C 	0.5499	0.1033	0.4405	-0.108
Mof_C 	C 	0.436	0.0467	0.4808	0.107
Mof_C 	C 	0.3678	0.0784	0.4078	0.107
Mof_C 	C 	0.8082	0.6417	0.5124	0.111
Mof_C 	C 	0.7757	0.5956	0.5957	0.096
Mof_C 	C 	0.8142	0.7602	0.5486	-0.119
Mof_C 	C 	0.8807	0.7842	0.576	0.062
Mof_C 	C 	0.9358	0.7996	0.5349	-0.058
Mof_C 	C 	0.003	0.8213	0.5608	-0.084
Mof_C 	C 	0.0149	0.8314	0.6232	0.093
Mof_C 	C 	0.9628	0.8115	0.6625	-0.096
Mof_C 	C 	0.8935	0.7875	0.6416	-0.056
Mof_C 	C 	0.081	0.8571	0.6486	-0.138
Mof_C 	C 	0.1798	0.9132	0.5871	0.105
Mof_C 	C 	0.1263	0.0033	0.5796	0.098
Mof_C 	C 	0.8469	0.8911	0.4175	0.113
Mof_C 	C 	0.9332	0.9532	0.4234	0.109
Mof_C 	C 	0.8934	0.0296	0.508	-0.119
Mof_C 	C 	0.8413	0.084	0.4862	0.084
Mof_C 	C 	0.845	0.1035	0.426	-0.1
Mof_C 	C 	0.798	0.1505	0.4058	-0.032
Mof_C 	C 	0.7419	0.189	0.4386	0.024
Mof_C 	C 	0.7448	0.1619	0.503	-0.027
Mof_C 	C 	0.789	0.113	0.5234	-0.113
Mof_C 	C 	0.6901	0.2391	0.4237	-0.106
Mof_C 	C 	0.7765	0.3846	0.3781	0.103
Mof_C 	C 	0.7422	0.3487	0.4637	0.104
Mof_C 	C 	0.082	0.8276	0.4007	0.092
Mof_C 	C 	0.032	0.7418	0.3705	0.086
Mof_C 	C 	0.1062	0.6608	0.4419	-0.099
Mof_C 	C 	0.0858	0.6555	0.5103	0.03
Mof_C 	C 	0.1333	0.6773	0.557	-0.044
Mof_C 	C 	0.1156	0.6734	0.6209	-0.097
Mof_C 	C 	0.0496	0.6482	0.6403	0.087
Mof_C 	C 	0.9993	0.633	0.5927	-0.1
Mof_C 	C 	0.0196	0.6343	0.5279	-0.029
Mof_C 	C 	0.0396	0.6352	0.7086	-0.14
Mof_C 	C 	0.863	0.5878	0.7428	0.154
Mof_C 	C 	0.9547	0.5368	0.7178	0.139
Mof_C 	C 	0.3767	0.5187	0.7445	0.116
Mof_C 	C 	0.306	0.6003	0.7503	0.069
Mof_C 	C 	0.1935	0.5195	0.7627	-0.148
Mof_C 	C 	0.178	0.4753	0.7121	0.093
Mof_C 	C 	0.1321	0.4183	0.7256	-0.092
Mof_C 	C 	0.0906	0.3912	0.6714	-0.057
Mof_C 	C 	0.0911	0.4258	0.615	0.046
Mof_C 	C 	0.1385	0.4861	0.6056	-0.043
Mof_C 	C 	0.1781	0.5074	0.6538	-0.091
Mof_C 	C 	0.0499	0.3967	0.5595	-0.108
Mof_C 	C 	0.936	0.4533	0.5192	0.107
Mof_C 	C 	0.8678	0.4216	0.5922	0.107
Mof_C 	C 	0.3082	0.8583	0.4876	0.112
Mof_C 	C 	0.2757	0.9044	0.4043	0.096
Mof_C 	C 	0.3142	0.7398	0.4514	-0.119
Mof_C 	C 	0.3807	0.7158	0.424	0.062
Mof_C 	C 	0.4358	0.7004	0.4651	-0.057
Mof_C 	C 	0.503	0.6787	0.4392	-0.085
Mof_C 	C 	0.5149	0.6686	0.3768	0.089
Mof_C 	C 	0.4628	0.6885	0.3375	-0.092
Mof_C 	C 	0.3935	0.7125	0.3584	-0.058
Mof_C 	C 	0.581	0.6429	0.3514	-0.136
Mof_C 	C 	0.6798	0.5868	0.4129	0.105
Mof_C 	C 	0.6263	0.4967	0.4204	0.103
Mof_C 	C 	0.3469	0.6089	0.5825	0.113
Mof_C 	C 	0.4332	0.5468	0.5766	0.109
Mof_C 	C 	0.3934	0.4704	0.492	-0.12
Mof_C 	C 	0.3413	0.416	0.5138	0.084
Mof_C 	C 	0.345	0.3965	0.574	-0.101
Mof_C 	C 	0.298	0.3495	0.5942	-0.032
Mof_C 	C 	0.2419	0.311	0.5614	0.024
Mof_C 	C 	0.2448	0.3381	0.497	-0.027
Mof_C 	C 	0.289	0.387	0.4766	-0.113
Mof_C 	C 	0.1901	0.2609	0.5763	-0.106
Mof_C 	C 	0.2765	0.1154	0.6219	0.103
Mof_C 	C 	0.2422	0.1513	0.5363	0.103
Mof_C 	C 	0.582	0.6724	0.5993	0.092
Mof_C 	C 	0.532	0.7582	0.6295	0.086
Mof_C 	C 	0.6062	0.8392	0.5581	-0.101
Mof_C 	C 	0.5858	0.8445	0.4897	0.033
Mof_C 	C 	0.6333	0.8227	0.443	-0.047
Mof_C 	C 	0.6156	0.8266	0.3791	-0.094
Mof_C 	C 	0.5496	0.8518	0.3597	0.084
Mof_C 	C 	0.4993	0.867	0.4073	-0.094
Mof_C 	C 	0.5196	0.8657	0.4721	-0.035
Mof_C 	C 	0.5396	0.8648	0.2914	-0.139
Mof_C 	C 	0.363	0.9122	0.2572	0.154
Mof_C 	C 	0.4547	0.9632	0.2822	0.139
Mof_C 	C 	0.1233	0.4813	0.2445	0.116
Mof_C 	C 	0.194	0.3997	0.2503	0.069
Mof_C 	C 	0.3065	0.4805	0.2627	-0.148
Mof_C 	C 	0.322	0.5247	0.2121	0.093
Mof_C 	C 	0.3679	0.5817	0.2256	-0.092
Mof_C 	C 	0.4094	0.6088	0.1714	-0.057
Mof_C 	C 	0.4089	0.5742	0.115	0.046
Mof_C 	C 	0.3615	0.5139	0.1056	-0.043
Mof_C 	C 	0.3219	0.4926	0.1538	-0.091
Mof_C 	C 	0.4501	0.6033	0.0595	-0.108
Mof_C 	C 	0.564	0.5467	0.0192	0.108
Mof_C 	C 	0.6322	0.5784	0.0922	0.107
Mof_C 	C 	0.1918	0.1417	0.9876	0.113
Mof_C 	C 	0.2243	0.0956	0.9043	0.096
Mof_C 	C 	0.1858	0.2602	0.9514	-0.118
Mof_C 	C 	0.1193	0.2842	0.924	0.06
Mof_C 	C 	0.0642	0.2996	0.9651	-0.052
Mof_C 	C 	0.997	0.3213	0.9392	-0.088
Mof_C 	C 	0.9851	0.3314	0.8768	0.091
Mof_C 	C 	0.0372	0.3115	0.8375	-0.093
Mof_C 	C 	0.1065	0.2875	0.8584	-0.056
Mof_C 	C 	0.919	0.3571	0.8514	-0.137
Mof_C 	C 	0.8202	0.4132	0.9129	0.105
Mof_C 	C 	0.8737	0.5033	0.9204	0.102
Mof_C 	C 	0.1531	0.3911	0.0825	0.113
Mof_C 	C 	0.0668	0.4532	0.0766	0.109
Mof_C 	C 	0.1066	0.5296	0.992	-0.118
Mof_C 	C 	0.1587	0.584	0.0138	0.082
Mof_C 	C 	0.155	0.6035	0.074	-0.099
Mof_C 	C 	0.202	0.6505	0.0942	-0.033
Mof_C 	C 	0.2581	0.689	0.0614	0.025
Mof_C 	C 	0.2552	0.6619	0.997	-0.029
Mof_C 	C 	0.211	0.613	0.9766	-0.11
Mof_C 	C 	0.3099	0.7391	0.0763	-0.106
Mof_C 	C 	0.2235	0.8846	0.1219	0.103
Mof_C 	C 	0.2578	0.8487	0.0363	0.104
Mof_C 	C 	0.918	0.3276	0.0993	0.092
Mof_C 	C 	0.968	0.2418	0.1295	0.086
Mof_C 	C 	0.8938	0.1608	0.0581	-0.097
Mof_C 	C 	0.9142	0.1555	0.9897	0.027
Mof_C 	C 	0.8667	0.1773	0.943	-0.042
Mof_C 	C 	0.8844	0.1734	0.8791	-0.098
Mof_C 	C 	0.9504	0.1482	0.8597	0.088
Mof_C 	C 	0.0007	0.133	0.9073	-0.101
Mof_C 	C 	0.9804	0.1343	0.9721	-0.026
Mof_C 	C 	0.9604	0.1352	0.7914	-0.141
Mof_C 	C 	0.137	0.0878	0.7572	0.154
Mof_C 	C 	0.0453	0.0368	0.7822	0.14
Mof_N 	N 	0.6248	0.0861	0.7616	-0.247
Mof_N 	N 	0.6779	0.9925	0.7416	-0.109
Mof_N 	N 	0.7273	0.042	0.7372	-0.085
Mof_N 	N 	0.1316	0.955	0.9635	-0.244
Mof_N 	N 	0.0713	0.9022	0.8904	-0.105
Mof_N 	N 	0.0262	0.9204	0.9373	-0.09
Mof_N 	N 	0.7086	0.4169	0.0348	-0.242
Mof_N 	N 	0.7192	0.3396	0.113	-0.099
Mof_N 	N 	0.6971	0.3137	0.0565	-0.093
Mof_N 	N 	0.3111	0.0263	0.062	-0.242
Mof_N 	N 	0.4227	0.0295	0.111	-0.103
Mof_N 	N 	0.3856	0.0897	0.1129	-0.085
Mof_N 	N 	0.5913	0.1007	0.8916	-0.246
Mof_N 	N 	0.6691	0.0643	0.9644	-0.1
Mof_N 	N 	0.6102	0.0258	0.9655	-0.093
Mof_N 	N 	0.7315	0.598	0.9407	-0.246
Mof_N 	N 	0.773	0.6971	0.9175	-0.091
Mof_N 	N 	0.7511	0.6717	0.8601	-0.111
Mof_N 	N 	0.4718	0.195	0.8636	-0.259
Mof_N 	N 	0.3805	0.2171	0.9319	-0.1
Mof_N 	N 	0.414	0.2713	0.9154	-0.084
Mof_N 	N 	0.5906	0.3657	0.2397	-0.107
Mof_N 	N 	0.6085	0.4725	0.235	-0.255
Mof_N 	N 	0.5328	0.3959	0.221	-0.084
Mof_N 	N 	0.8752	0.9139	0.2616	-0.246
Mof_N 	N 	0.8221	0.0075	0.2416	-0.107
Mof_N 	N 	0.7727	0.958	0.2372	-0.085
Mof_N 	N 	0.3684	0.045	0.4635	-0.245
Mof_N 	N 	0.4287	0.0978	0.3904	-0.106
Mof_N 	N 	0.4738	0.0796	0.4373	-0.092
Mof_N 	N 	0.7914	0.5831	0.5348	-0.242
Mof_N 	N 	0.7808	0.6604	0.613	-0.099
Mof_N 	N 	0.8029	0.6863	0.5565	-0.093
Mof_N 	N 	0.1889	0.9737	0.562	-0.239
Mof_N 	N 	0.0773	0.9705	0.611	-0.1
Mof_N 	N 	0.1144	0.9103	0.6129	-0.084
Mof_N 	N 	0.9087	0.8993	0.3916	-0.246
Mof_N 	N 	0.8309	0.9357	0.4644	-0.1
Mof_N 	N 	0.8898	0.9742	0.4655	-0.093
Mof_N 	N 	0.7685	0.402	0.4407	-0.246
Mof_N 	N 	0.727	0.3029	0.4175	-0.091
Mof_N 	N 	0.7489	0.3283	0.3601	-0.111
Mof_N 	N 	0.0282	0.805	0.3636	-0.259
Mof_N 	N 	0.1195	0.7829	0.4319	-0.1
Mof_N 	N 	0.086	0.7287	0.4154	-0.084
Mof_N 	N 	0.9094	0.6343	0.7397	-0.107
Mof_N 	N 	0.8915	0.5275	0.735	-0.255
Mof_N 	N 	0.9672	0.6041	0.721	-0.085
Mof_N 	N 	0.3752	0.5861	0.7384	-0.247
Mof_N 	N 	0.3221	0.4925	0.7584	-0.109
Mof_N 	N 	0.2727	0.542	0.7628	-0.084
Mof_N 	N 	0.8684	0.455	0.5365	-0.245
Mof_N 	N 	0.9287	0.4022	0.6096	-0.106
Mof_N 	N 	0.9738	0.4204	0.5627	-0.092
Mof_N 	N 	0.2914	0.9169	0.4652	-0.242
Mof_N 	N 	0.2808	0.8396	0.387	-0.099
Mof_N 	N 	0.3029	0.8137	0.4435	-0.092
Mof_N 	N 	0.6889	0.5263	0.438	-0.241
Mof_N 	N 	0.5773	0.5295	0.389	-0.102
Mof_N 	N 	0.6144	0.5897	0.3871	-0.085
Mof_N 	N 	0.4087	0.6007	0.6084	-0.246
Mof_N 	N 	0.3309	0.5643	0.5356	-0.1
Mof_N 	N 	0.3898	0.5258	0.5345	-0.092
Mof_N 	N 	0.2685	0.098	0.5593	-0.247
Mof_N 	N 	0.227	0.1971	0.5825	-0.092
Mof_N 	N 	0.2489	0.1717	0.6399	-0.111
Mof_N 	N 	0.5282	0.695	0.6364	-0.259
Mof_N 	N 	0.6195	0.7171	0.5681	-0.1
Mof_N 	N 	0.586	0.7713	0.5846	-0.084
Mof_N 	N 	0.4094	0.8657	0.2603	-0.107
Mof_N 	N 	0.3915	0.9725	0.265	-0.253
Mof_N 	N 	0.4672	0.8959	0.279	-0.084
Mof_N 	N 	0.1248	0.4139	0.2384	-0.247
Mof_N 	N 	0.1779	0.5075	0.2584	-0.109
Mof_N 	N 	0.2273	0.458	0.2628	-0.084
Mof_N 	N 	0.6316	0.545	0.0365	-0.245
Mof_N 	N 	0.5713	0.5978	0.1096	-0.106
Mof_N 	N 	0.5262	0.5796	0.0627	-0.092
Mof_N 	N 	0.2086	0.0831	0.9652	-0.243
Mof_N 	N 	0.2192	0.1604	0.887	-0.099
Mof_N 	N 	0.1971	0.1863	0.9435	-0.093
Mof_N 	N 	0.8111	0.4737	0.938	-0.241
Mof_N 	N 	0.9227	0.4705	0.889	-0.102
Mof_N 	N 	0.8856	0.4103	0.8871	-0.085
Mof_N 	N 	0.0913	0.3993	0.1084	-0.246
Mof_N 	N 	0.1691	0.4357	0.0356	-0.1
Mof_N 	N 	0.1102	0.4742	0.0345	-0.093
Mof_N 	N 	0.2315	0.902	0.0593	-0.246
Mof_N 	N 	0.273	0.8029	0.0825	-0.091
Mof_N 	N 	0.2511	0.8283	0.1399	-0.111
Mof_N 	N 	0.9718	0.305	0.1364	-0.259
Mof_N 	N 	0.8805	0.2829	0.0681	-0.1
Mof_N 	N 	0.914	0.2287	0.0846	-0.084
Mof_N 	N 	0.0906	0.1343	0.7603	-0.107
Mof_N 	N 	0.1085	0.0275	0.765	-0.257
Mof_N 	N 	0.0328	0.1041	0.779	-0.085
Mof_O 	O 	0.5222	0.5679	0.7058	-0.684
Mof_O 	O 	0.5931	0.5125	0.8083	-0.744
Mof_O 	O 	0.6416	0.5263	0.643	-0.695
Mof_O 	O 	0.5755	0.4369	0.6906	-0.518
Mof_O 	O 	0.7147	0.5053	0.7443	-0.447
Mof_O 	O 	0.7106	0.4553	0.5558	-0.67
Mof_O 	O 	0.6341	0.3461	0.6012	-0.648
Mof_O 	O 	0.7129	0.4008	0.6808	-0.471
Mof_O 	O 	0.7233	0.2808	0.744	-0.64
Mof_O 	O 	0.5926	0.3196	0.7271	-0.461
Mof_O 	O 	0.6198	0.2221	0.822	-0.668
Mof_O 	O 	0.6063	0.3466	0.8709	-0.683
Mof_O 	O 	0.6557	0.468	0.9141	-0.68
Mof_O 	O 	0.5193	0.401	0.7903	-0.449
Mof_O 	O 	0.6897	0.3991	0.799	-0.525
Mof_O 	O 	0.8132	0.4246	0.7569	-0.287
Mof_O 	O 	0.4735	0.3596	0.689	-0.287
Mof_O 	O 	0.9778	0.4321	0.2058	-0.683
Mof_O 	O 	0.9069	0.4875	0.3083	-0.744
Mof_O 	O 	0.8584	0.4737	0.143	-0.695
Mof_O 	O 	0.9245	0.5631	0.1906	-0.518
Mof_O 	O 	0.7853	0.4947	0.2443	-0.447
Mof_O 	O 	0.7894	0.5447	0.0558	-0.67
Mof_O 	O 	0.8659	0.6539	0.1012	-0.647
Mof_O 	O 	0.7871	0.5992	0.1808	-0.471
Mof_O 	O 	0.7767	0.7192	0.244	-0.64
Mof_O 	O 	0.9074	0.6804	0.2271	-0.461
Mof_O 	O 	0.8802	0.7779	0.322	-0.668
Mof_O 	O 	0.8937	0.6534	0.3709	-0.683
Mof_O 	O 	0.8443	0.532	0.4141	-0.679
Mof_O 	O 	0.9807	0.599	0.2903	-0.45
Mof_O 	O 	0.8103	0.6009	0.299	-0.525
Mof_O 	O 	0.6868	0.5754	0.2569	-0.287
Mof_O 	O 	0.0265	0.6404	0.189	-0.288
Mof_O 	O 	0.4778	0.0679	0.7942	-0.684
Mof_O 	O 	0.4069	0.0125	0.6917	-0.744
Mof_O 	O 	0.3584	0.0263	0.857	-0.696
Mof_O 	O 	0.4245	0.9369	0.8094	-0.518
Mof_O 	O 	0.2853	0.0053	0.7557	-0.448
Mof_O 	O 	0.2894	0.9553	0.9442	-0.67
Mof_O 	O 	0.3659	0.8461	0.8988	-0.648
Mof_O 	O 	0.2871	0.9008	0.8192	-0.471
Mof_O 	O 	0.2767	0.7808	0.756	-0.64
Mof_O 	O 	0.4074	0.8196	0.7729	-0.461
Mof_O 	O 	0.3802	0.7221	0.678	-0.668
Mof_O 	O 	0.3937	0.8466	0.6291	-0.683
Mof_O 	O 	0.3443	0.968	0.5859	-0.679
Mof_O 	O 	0.4807	0.901	0.7097	-0.449
Mof_O 	O 	0.3103	0.8991	0.701	-0.525
Mof_O 	O 	0.1868	0.9246	0.7431	-0.287
Mof_O 	O 	0.5265	0.8596	0.811	-0.287
Mof_O 	O 	0.0222	0.9321	0.2942	-0.683
Mof_O 	O 	0.0931	0.9875	0.1917	-0.741
Mof_O 	O 	0.1416	0.9737	0.357	-0.693
Mof_O 	O 	0.0755	0.0631	0.3094	-0.519
Mof_O 	O 	0.2147	0.9947	0.2557	-0.446
Mof_O 	O 	0.2106	0.0447	0.4442	-0.67
Mof_O 	O 	0.1341	0.1539	0.3988	-0.647
Mof_O 	O 	0.2129	0.0992	0.3192	-0.471
Mof_O 	O 	0.2233	0.2192	0.256	-0.64
Mof_O 	O 	0.0926	0.1804	0.2729	-0.461
Mof_O 	O 	0.1198	0.2779	0.178	-0.669
Mof_O 	O 	0.1063	0.1534	0.1291	-0.683
Mof_O 	O 	0.1557	0.032	0.0859	-0.68
Mof_O 	O 	0.0193	0.099	0.2097	-0.45
Mof_O 	O 	0.1897	0.1009	0.201	-0.525
Mof_O 	O 	0.3132	0.0754	0.2431	-0.287
Mof_O 	O 	0.9735	0.1404	0.311	-0.286
_end
