# CIF file generated by openbabel 3.1.0, see https://openbabel.org
data_I
_chemical_name_common 'image0'
_cell_length_a 46.33
_cell_length_b 10.727
_cell_length_c 23.714
_cell_angle_alpha 90
_cell_angle_beta 95.872
_cell_angle_gamma 90
_space_group_name_H-M_alt 'P 1'
_space_group_name_Hall 'P 1'
loop_
    _symmetry_equiv_pos_as_xyz
    x,y,z
loop_
    _atom_site_label
    _atom_site_type_symbol
    _atom_site_fract_x
    _atom_site_fract_y
    _atom_site_fract_z
    _atom_site_occupancy
    C1       C        0.96536    0.24580    0.00762    1.000
    C2       C        0.93969    0.18600    0.97441    1.000
    C3       C        0.90251    0.18170    0.89718    1.000
    H1       H        0.89220    0.22080    0.86640    1.000
    C4       C        0.89628    0.06170    0.91107    1.000
    C5       C        0.93237    0.06570    0.98902    1.000
    H2       H        0.94240    0.02700    0.02030    1.000
    C6       C        0.91025    0.00320    0.95717    1.000
    H3       H        0.90500    0.92300    0.96700    1.000
    C7       C        0.92442    0.24410    0.92977    1.000
    H4       H        0.92870    0.32610    0.92120    1.000
    C8       C        0.82867    0.70840    0.93031    1.000
    C9       C        0.86151    0.89960    0.89500    1.000
    C10      C        0.84323    0.92060    0.93470    1.000
    H5       H        0.84150    0.00040    0.94920    1.000
    C11      C        0.86390    0.78690    0.87166    1.000
    H6       H        0.87650    0.77350    0.84420    1.000
    C12      C        0.84701    0.69020    0.88961    1.000
    H7       H        0.84830    0.61160    0.87350    1.000
    C13      C        0.82726    0.82510    0.95368    1.000
    H8       H        0.81540    0.83910    0.98240    1.000
    C14      C        0.81027    0.60340    0.94887    1.000
    C15      C        0.76232    0.23740    0.12012    1.000
    C16      C        0.78956    0.28950    0.15004    1.000
    C17      C        0.80483    0.22360    0.19302    1.000
    H9       H        0.79840    0.14510    0.20270    1.000
    C18      C        0.79952    0.40220    0.13581    1.000
    H10      H        0.78940    0.44670    0.10640    1.000
    C19      C        0.83914    0.38840    0.20702    1.000
    C20      C        0.82972    0.27300    0.22212    1.000
    H11      H        0.83990    0.22850    0.25140    1.000
    C21      C        0.82485    0.45400    0.16435    1.000
    H12      H        0.83160    0.53160    0.15410    1.000
    C22      C        0.93684    0.52710    0.22180    1.000
    H13      H        0.95110    0.57750    0.24030    1.000
    C23      C        0.94286    0.46100    0.17419    1.000
    C24      C        0.89375    0.38520    0.16580    1.000
    H14      H        0.87900    0.33940    0.14590    1.000
    C25      C        0.88858    0.44750    0.21384    1.000
    C26      C        0.97223    0.46330    0.15247    1.000
    C27      C        0.91002    0.51970    0.24241    1.000
    H15      H        0.90650    0.56270    0.27510    1.000
    C28      C        0.92094    0.39000    0.14666    1.000
    H16      H        0.92450    0.34470    0.11470    1.000
    C29      C        0.06705    0.07330    0.20704    1.000
    C30      C        0.05143    0.26920    0.17036    1.000
    H17      H        0.05250    0.35550    0.17350    1.000
    C31      C        0.06783    0.19980    0.21029    1.000
    H18      H        0.07940    0.23900    0.23940    1.000
    C32      C        0.03384    0.10090    0.12481    1.000
    H19      H        0.02260    0.06460    0.09440    1.000
    C33      C        0.04889    0.02270    0.16342    1.000
    H20      H        0.04680    0.93670    0.16010    1.000
    C34      C        0.10135    0.04270    0.28628    1.000
    H21      H        0.09160    0.10230    0.30860    1.000
    H22      H        0.11720    0.08470    0.27030    1.000
    C35      C        0.02922    0.75540    0.45765    1.000
    H23      H        0.00980    0.77860    0.45140    1.000
    C36      C        0.06505    0.65400    0.51022    1.000
    H24      H        0.07130    0.60510    0.54150    1.000
    C37      C        0.08454    0.68230    0.47365    1.000
    H25      H        0.10360    0.65400    0.48020    1.000
    C38      C        0.04689    0.79000    0.41776    1.000
    H26      H        0.03980    0.83590    0.38610    1.000
    C39      C        0.07587    0.75420    0.42607    1.000
    C40      C        0.08723    0.88200    0.34971    1.000
    H27      H        0.07730    0.94900    0.36730    1.000
    H28      H        0.07370    0.84510    0.32050    1.000
    C41      C        0.12668    0.83690    0.28835    1.000
    H29      H        0.13500    0.77060    0.31270    1.000
    H30      H        0.11240    0.80110    0.26010    1.000
    C42      C        0.11279    0.93480    0.32289    1.000
    C43      C        0.13647    0.97900    0.36780    1.000
    H31      H        0.14270    0.90990    0.39250    1.000
    H32      H        0.15310    0.00740    0.34950    1.000
    C44      C        0.17679    0.66320    0.17204    1.000
    H33      H        0.17500    0.57830    0.16460    1.000
    C45      C        0.16326    0.83730    0.22508    1.000
    C46      C        0.19675    0.84630    0.15546    1.000
    H34      H        0.20940    0.89390    0.13620    1.000
    C47      C        0.16083    0.71200    0.21318    1.000
    H35      H        0.14880    0.66130    0.23230    1.000
    C48      C        0.18213    0.90660    0.19552    1.000
    H36      H        0.18480    0.99140    0.20250    1.000
    C49      C        0.15653    0.28730    0.50885    1.000
    H37      H        0.14970    0.35060    0.53080    1.000
    C50      C        0.14606    0.13330    0.43777    1.000
    C51      C        0.13705    0.22690    0.47039    1.000
    H38      H        0.11760    0.25040    0.46670    1.000
    C52      C        0.17467    0.10070    0.44502    1.000
    H39      H        0.18180    0.03640    0.42410    1.000
    C53      C        0.19254    0.16600    0.48430    1.000
    H40      H        0.21200    0.14260    0.48910    1.000
    Co1      Co       0.00854    0.33105    0.06911    1.000
    Co2      Co       0.71490    0.15164    0.07469    1.000
    N1       N        0.03733    0.69150    0.50475    1.000
    N2       N        0.18474    0.25940    0.51605    1.000
    N3       N        0.03426    0.22260    0.12791    1.000
    N4       N        0.19441    0.72830    0.14228    1.000
    O1       O        0.74815    0.29807    0.08169    1.000
    O2       O        0.75372    0.13046    0.13415    1.000
    O3       O        0.97763    0.37051    0.12293    1.000
    O4       O        0.98889    0.55155    0.16421    1.000
    O5       O        0.98100    0.18032    0.04303    1.000
    O6       O        0.97132    0.35876    0.99970    1.000
    O7       O        0.80818    0.50827    0.91864    1.000
    O8       O        0.79819    0.61910    0.99293    1.000
    O9       O        0.87618    0.00029    0.87326    1.000
    O10      O        0.86324    0.43980    0.23925    1.000
    O11      O        0.08142    0.99262    0.24222    1.000
    O12      O        0.12621    0.07824    0.40072    1.000
    O13      O        0.09613    0.78881    0.39189    1.000
    O14      O        0.14870    0.89930    0.26183    1.000
    C54      C        0.46536    0.74580    0.00762    1.000
    C55      C        0.43969    0.68600    0.97441    1.000
    C56      C        0.40251    0.68170    0.89718    1.000
    H41      H        0.39220    0.72080    0.86640    1.000
    C57      C        0.39628    0.56170    0.91107    1.000
    C58      C        0.43237    0.56570    0.98902    1.000
    H42      H        0.44240    0.52700    0.02030    1.000
    C59      C        0.41025    0.50320    0.95717    1.000
    H43      H        0.40500    0.42300    0.96700    1.000
    C60      C        0.42442    0.74410    0.92977    1.000
    H44      H        0.42870    0.82610    0.92120    1.000
    C61      C        0.32867    0.20840    0.93031    1.000
    C62      C        0.36151    0.39960    0.89500    1.000
    C63      C        0.34323    0.42060    0.93470    1.000
    H45      H        0.34150    0.50040    0.94920    1.000
    C64      C        0.36390    0.28690    0.87166    1.000
    H46      H        0.37650    0.27350    0.84420    1.000
    C65      C        0.34701    0.19020    0.88961    1.000
    H47      H        0.34830    0.11160    0.87350    1.000
    C66      C        0.32726    0.32510    0.95368    1.000
    H48      H        0.31540    0.33910    0.98240    1.000
    C67      C        0.31027    0.10340    0.94887    1.000
    C68      C        0.26232    0.73740    0.12012    1.000
    C69      C        0.28956    0.78950    0.15004    1.000
    C70      C        0.30483    0.72360    0.19302    1.000
    H49      H        0.29840    0.64510    0.20270    1.000
    C71      C        0.29952    0.90220    0.13581    1.000
    H50      H        0.28940    0.94670    0.10640    1.000
    C72      C        0.33914    0.88840    0.20702    1.000
    C73      C        0.32972    0.77300    0.22212    1.000
    H51      H        0.33990    0.72850    0.25140    1.000
    C74      C        0.32485    0.95400    0.16435    1.000
    H52      H        0.33160    0.03160    0.15410    1.000
    C75      C        0.43684    0.02710    0.22180    1.000
    H53      H        0.45110    0.07750    0.24030    1.000
    C76      C        0.44286    0.96100    0.17419    1.000
    C77      C        0.39375    0.88520    0.16580    1.000
    H54      H        0.37900    0.83940    0.14590    1.000
    C78      C        0.38858    0.94750    0.21384    1.000
    C79      C        0.47223    0.96330    0.15247    1.000
    C80      C        0.41002    0.01970    0.24241    1.000
    H55      H        0.40650    0.06270    0.27510    1.000
    C81      C        0.42094    0.89000    0.14666    1.000
    H56      H        0.42450    0.84470    0.11470    1.000
    C82      C        0.56705    0.57330    0.20704    1.000
    C83      C        0.55143    0.76920    0.17036    1.000
    H57      H        0.55250    0.85550    0.17350    1.000
    C84      C        0.56783    0.69980    0.21029    1.000
    H58      H        0.57940    0.73900    0.23940    1.000
    C85      C        0.53384    0.60090    0.12481    1.000
    H59      H        0.52260    0.56460    0.09440    1.000
    C86      C        0.54889    0.52270    0.16342    1.000
    H60      H        0.54680    0.43670    0.16010    1.000
    C87      C        0.60135    0.54270    0.28628    1.000
    H61      H        0.59160    0.60230    0.30860    1.000
    H62      H        0.61720    0.58470    0.27030    1.000
    C88      C        0.52922    0.25540    0.45765    1.000
    H63      H        0.50980    0.27860    0.45140    1.000
    C89      C        0.56505    0.15400    0.51022    1.000
    H64      H        0.57130    0.10510    0.54150    1.000
    C90      C        0.58454    0.18230    0.47365    1.000
    H65      H        0.60360    0.15400    0.48020    1.000
    C91      C        0.54689    0.29000    0.41776    1.000
    H66      H        0.53980    0.33590    0.38610    1.000
    C92      C        0.57587    0.25420    0.42607    1.000
    C93      C        0.58723    0.38200    0.34971    1.000
    H67      H        0.57730    0.44900    0.36730    1.000
    H68      H        0.57370    0.34510    0.32050    1.000
    C94      C        0.62668    0.33690    0.28835    1.000
    H69      H        0.63500    0.27060    0.31270    1.000
    H70      H        0.61240    0.30110    0.26010    1.000
    C95      C        0.61279    0.43480    0.32289    1.000
    C96      C        0.63647    0.47900    0.36780    1.000
    H71      H        0.64270    0.40990    0.39250    1.000
    H72      H        0.65310    0.50740    0.34950    1.000
    C97      C        0.67679    0.16320    0.17204    1.000
    H73      H        0.67500    0.07830    0.16460    1.000
    C98      C        0.66326    0.33730    0.22508    1.000
    C99      C        0.69675    0.34630    0.15546    1.000
    H74      H        0.70940    0.39390    0.13620    1.000
    C100     C        0.66083    0.21200    0.21318    1.000
    H75      H        0.64880    0.16130    0.23230    1.000
    C101     C        0.68213    0.40660    0.19552    1.000
    H76      H        0.68480    0.49140    0.20250    1.000
    C102     C        0.65653    0.78730    0.50885    1.000
    H77      H        0.64970    0.85060    0.53080    1.000
    C103     C        0.64606    0.63330    0.43777    1.000
    C104     C        0.63705    0.72690    0.47039    1.000
    H78      H        0.61760    0.75040    0.46670    1.000
    C105     C        0.67467    0.60070    0.44502    1.000
    H79      H        0.68180    0.53640    0.42410    1.000
    C106     C        0.69254    0.66600    0.48430    1.000
    H80      H        0.71200    0.64260    0.48910    1.000
    Co3      Co       0.50854    0.83105    0.06911    1.000
    Co4      Co       0.21490    0.65164    0.07469    1.000
    N5       N        0.53733    0.19150    0.50475    1.000
    N6       N        0.68474    0.75940    0.51605    1.000
    N7       N        0.53426    0.72260    0.12791    1.000
    N8       N        0.69441    0.22830    0.14228    1.000
    O15      O        0.24815    0.79807    0.08169    1.000
    O16      O        0.25372    0.63046    0.13415    1.000
    O17      O        0.47763    0.87051    0.12293    1.000
    O18      O        0.48889    0.05155    0.16421    1.000
    O19      O        0.48100    0.68032    0.04303    1.000
    O20      O        0.47132    0.85876    0.99970    1.000
    O21      O        0.30818    0.00827    0.91864    1.000
    O22      O        0.29819    0.11910    0.99293    1.000
    O23      O        0.37618    0.50029    0.87326    1.000
    O24      O        0.36324    0.93980    0.23925    1.000
    O25      O        0.58142    0.49262    0.24222    1.000
    O26      O        0.62621    0.57824    0.40072    1.000
    O27      O        0.59613    0.28881    0.39189    1.000
    O28      O        0.64870    0.39930    0.26183    1.000
    C107     C        0.03464    0.24580    0.49238    1.000
    C108     C        0.06031    0.18600    0.52559    1.000
    C109     C        0.09749    0.18170    0.60282    1.000
    H81      H        0.10780    0.22080    0.63360    1.000
    C110     C        0.10372    0.06170    0.58893    1.000
    C111     C        0.06763    0.06570    0.51098    1.000
    H82      H        0.05760    0.02700    0.47970    1.000
    C112     C        0.08975    0.00320    0.54283    1.000
    H83      H        0.09500    0.92300    0.53300    1.000
    C113     C        0.07558    0.24410    0.57023    1.000
    H84      H        0.07130    0.32610    0.57880    1.000
    C114     C        0.17133    0.70840    0.56969    1.000
    C115     C        0.13849    0.89960    0.60500    1.000
    C116     C        0.15677    0.92060    0.56530    1.000
    H85      H        0.15850    0.00040    0.55080    1.000
    C117     C        0.13610    0.78690    0.62834    1.000
    H86      H        0.12350    0.77350    0.65580    1.000
    C118     C        0.15299    0.69020    0.61039    1.000
    H87      H        0.15170    0.61160    0.62650    1.000
    C119     C        0.17274    0.82510    0.54632    1.000
    H88      H        0.18460    0.83910    0.51760    1.000
    C120     C        0.18973    0.60340    0.55113    1.000
    C121     C        0.23768    0.23740    0.37988    1.000
    C122     C        0.21044    0.28950    0.34996    1.000
    C123     C        0.19517    0.22360    0.30698    1.000
    H89      H        0.20160    0.14510    0.29730    1.000
    C124     C        0.20048    0.40220    0.36419    1.000
    H90      H        0.21060    0.44670    0.39360    1.000
    C125     C        0.16086    0.38840    0.29298    1.000
    C126     C        0.17028    0.27300    0.27788    1.000
    H91      H        0.16010    0.22850    0.24860    1.000
    C127     C        0.17515    0.45400    0.33565    1.000
    H92      H        0.16840    0.53160    0.34590    1.000
    C128     C        0.06316    0.52710    0.27820    1.000
    H93      H        0.04890    0.57750    0.25970    1.000
    C129     C        0.05714    0.46100    0.32581    1.000
    C130     C        0.10625    0.38520    0.33420    1.000
    H94      H        0.12100    0.33940    0.35410    1.000
    C131     C        0.11142    0.44750    0.28616    1.000
    C132     C        0.02777    0.46330    0.34753    1.000
    C133     C        0.08998    0.51970    0.25759    1.000
    H95      H        0.09350    0.56270    0.22490    1.000
    C134     C        0.07906    0.39000    0.35334    1.000
    H96      H        0.07550    0.34470    0.38530    1.000
    C135     C        0.93295    0.07330    0.29296    1.000
    C136     C        0.94857    0.26920    0.32964    1.000
    H97      H        0.94750    0.35550    0.32650    1.000
    C137     C        0.93217    0.19980    0.28971    1.000
    H98      H        0.92060    0.23900    0.26060    1.000
    C138     C        0.96616    0.10090    0.37519    1.000
    H99      H        0.97740    0.06460    0.40560    1.000
    C139     C        0.95111    0.02270    0.33658    1.000
    H100     H        0.95320    0.93670    0.33990    1.000
    C140     C        0.89865    0.04270    0.21372    1.000
    H101     H        0.90840    0.10230    0.19140    1.000
    H102     H        0.88280    0.08470    0.22970    1.000
    C141     C        0.97078    0.75540    0.04235    1.000
    H103     H        0.99020    0.77860    0.04860    1.000
    C142     C        0.93495    0.65400    0.98978    1.000
    H104     H        0.92870    0.60510    0.95850    1.000
    C143     C        0.91546    0.68230    0.02635    1.000
    H105     H        0.89640    0.65400    0.01980    1.000
    C144     C        0.95311    0.79000    0.08224    1.000
    H106     H        0.96020    0.83590    0.11390    1.000
    C145     C        0.92413    0.75420    0.07393    1.000
    C146     C        0.91277    0.88200    0.15029    1.000
    H107     H        0.92270    0.94900    0.13270    1.000
    H108     H        0.92630    0.84510    0.17950    1.000
    C147     C        0.87332    0.83690    0.21165    1.000
    H109     H        0.86500    0.77060    0.18730    1.000
    H110     H        0.88760    0.80110    0.23990    1.000
    C148     C        0.88721    0.93480    0.17711    1.000
    C149     C        0.86353    0.97900    0.13220    1.000
    H111     H        0.85730    0.90990    0.10750    1.000
    H112     H        0.84690    0.00740    0.15050    1.000
    C150     C        0.82321    0.66320    0.32796    1.000
    H113     H        0.82500    0.57830    0.33540    1.000
    C151     C        0.83674    0.83730    0.27492    1.000
    C152     C        0.80325    0.84630    0.34454    1.000
    H114     H        0.79060    0.89390    0.36380    1.000
    C153     C        0.83917    0.71200    0.28682    1.000
    H115     H        0.85120    0.66130    0.26770    1.000
    C154     C        0.81787    0.90660    0.30448    1.000
    H116     H        0.81520    0.99140    0.29750    1.000
    C155     C        0.84347    0.28730    0.99115    1.000
    H117     H        0.85030    0.35060    0.96920    1.000
    C156     C        0.85394    0.13330    0.06223    1.000
    C157     C        0.86295    0.22690    0.02961    1.000
    H118     H        0.88240    0.25040    0.03330    1.000
    C158     C        0.82533    0.10070    0.05498    1.000
    H119     H        0.81820    0.03640    0.07590    1.000
    C159     C        0.80746    0.16600    0.01570    1.000
    H120     H        0.78800    0.14260    0.01090    1.000
    Co5      Co       0.99146    0.33105    0.43089    1.000
    Co6      Co       0.28510    0.15164    0.42531    1.000
    N9       N        0.96267    0.69150    0.99525    1.000
    N10      N        0.81526    0.25940    0.98395    1.000
    N11      N        0.96574    0.22260    0.37209    1.000
    N12      N        0.80559    0.72830    0.35772    1.000
    O29      O        0.25185    0.29807    0.41831    1.000
    O30      O        0.24628    0.13046    0.36585    1.000
    O31      O        0.02237    0.37051    0.37707    1.000
    O32      O        0.01111    0.55155    0.33579    1.000
    O33      O        0.01900    0.18032    0.45697    1.000
    O34      O        0.02868    0.35876    0.50030    1.000
    O35      O        0.19182    0.50827    0.58136    1.000
    O36      O        0.20181    0.61910    0.50707    1.000
    O37      O        0.12382    0.00029    0.62674    1.000
    O38      O        0.13676    0.43980    0.26075    1.000
    O39      O        0.91858    0.99262    0.25778    1.000
    O40      O        0.87379    0.07824    0.09928    1.000
    O41      O        0.90387    0.78881    0.10811    1.000
    O42      O        0.85130    0.89930    0.23817    1.000
    C160     C        0.53464    0.74580    0.49238    1.000
    C161     C        0.56031    0.68600    0.52559    1.000
    C162     C        0.59749    0.68170    0.60282    1.000
    H121     H        0.60780    0.72080    0.63360    1.000
    C163     C        0.60372    0.56170    0.58893    1.000
    C164     C        0.56763    0.56570    0.51098    1.000
    H122     H        0.55760    0.52700    0.47970    1.000
    C165     C        0.58975    0.50320    0.54283    1.000
    H123     H        0.59500    0.42300    0.53300    1.000
    C166     C        0.57558    0.74410    0.57023    1.000
    H124     H        0.57130    0.82610    0.57880    1.000
    C167     C        0.67133    0.20840    0.56969    1.000
    C168     C        0.63849    0.39960    0.60500    1.000
    C169     C        0.65677    0.42060    0.56530    1.000
    H125     H        0.65850    0.50040    0.55080    1.000
    C170     C        0.63610    0.28690    0.62834    1.000
    H126     H        0.62350    0.27350    0.65580    1.000
    C171     C        0.65299    0.19020    0.61039    1.000
    H127     H        0.65170    0.11160    0.62650    1.000
    C172     C        0.67274    0.32510    0.54632    1.000
    H128     H        0.68460    0.33910    0.51760    1.000
    C173     C        0.68973    0.10340    0.55113    1.000
    C174     C        0.73768    0.73740    0.37988    1.000
    C175     C        0.71044    0.78950    0.34996    1.000
    C176     C        0.69517    0.72360    0.30698    1.000
    H129     H        0.70160    0.64510    0.29730    1.000
    C177     C        0.70048    0.90220    0.36419    1.000
    H130     H        0.71060    0.94670    0.39360    1.000
    C178     C        0.66086    0.88840    0.29298    1.000
    C179     C        0.67028    0.77300    0.27788    1.000
    H131     H        0.66010    0.72850    0.24860    1.000
    C180     C        0.67515    0.95400    0.33565    1.000
    H132     H        0.66840    0.03160    0.34590    1.000
    C181     C        0.56316    0.02710    0.27820    1.000
    H133     H        0.54890    0.07750    0.25970    1.000
    C182     C        0.55714    0.96100    0.32581    1.000
    C183     C        0.60625    0.88520    0.33420    1.000
    H134     H        0.62100    0.83940    0.35410    1.000
    C184     C        0.61142    0.94750    0.28616    1.000
    C185     C        0.52777    0.96330    0.34753    1.000
    C186     C        0.58998    0.01970    0.25759    1.000
    H135     H        0.59350    0.06270    0.22490    1.000
    C187     C        0.57906    0.89000    0.35334    1.000
    H136     H        0.57550    0.84470    0.38530    1.000
    C188     C        0.43295    0.57330    0.29296    1.000
    C189     C        0.44857    0.76920    0.32964    1.000
    H137     H        0.44750    0.85550    0.32650    1.000
    C190     C        0.43217    0.69980    0.28971    1.000
    H138     H        0.42060    0.73900    0.26060    1.000
    C191     C        0.46616    0.60090    0.37519    1.000
    H139     H        0.47740    0.56460    0.40560    1.000
    C192     C        0.45111    0.52270    0.33658    1.000
    H140     H        0.45320    0.43670    0.33990    1.000
    C193     C        0.39865    0.54270    0.21372    1.000
    H141     H        0.40840    0.60230    0.19140    1.000
    H142     H        0.38280    0.58470    0.22970    1.000
    C194     C        0.47078    0.25540    0.04235    1.000
    H143     H        0.49020    0.27860    0.04860    1.000
    C195     C        0.43495    0.15400    0.98978    1.000
    H144     H        0.42870    0.10510    0.95850    1.000
    C196     C        0.41546    0.18230    0.02635    1.000
    H145     H        0.39640    0.15400    0.01980    1.000
    C197     C        0.45311    0.29000    0.08224    1.000
    H146     H        0.46020    0.33590    0.11390    1.000
    C198     C        0.42413    0.25420    0.07393    1.000
    C199     C        0.41277    0.38200    0.15029    1.000
    H147     H        0.42270    0.44900    0.13270    1.000
    H148     H        0.42630    0.34510    0.17950    1.000
    C200     C        0.37332    0.33690    0.21165    1.000
    H149     H        0.36500    0.27060    0.18730    1.000
    H150     H        0.38760    0.30110    0.23990    1.000
    C201     C        0.38721    0.43480    0.17711    1.000
    C202     C        0.36353    0.47900    0.13220    1.000
    H151     H        0.35730    0.40990    0.10750    1.000
    H152     H        0.34690    0.50740    0.15050    1.000
    C203     C        0.32321    0.16320    0.32796    1.000
    H153     H        0.32500    0.07830    0.33540    1.000
    C204     C        0.33674    0.33730    0.27492    1.000
    C205     C        0.30325    0.34630    0.34454    1.000
    H154     H        0.29060    0.39390    0.36380    1.000
    C206     C        0.33917    0.21200    0.28682    1.000
    H155     H        0.35120    0.16130    0.26770    1.000
    C207     C        0.31787    0.40660    0.30448    1.000
    H156     H        0.31520    0.49140    0.29750    1.000
    C208     C        0.34347    0.78730    0.99115    1.000
    H157     H        0.35030    0.85060    0.96920    1.000
    C209     C        0.35394    0.63330    0.06223    1.000
    C210     C        0.36295    0.72690    0.02961    1.000
    H158     H        0.38240    0.75040    0.03330    1.000
    C211     C        0.32533    0.60070    0.05498    1.000
    H159     H        0.31820    0.53640    0.07590    1.000
    C212     C        0.30746    0.66600    0.01570    1.000
    H160     H        0.28800    0.64260    0.01090    1.000
    Co7      Co       0.49146    0.83105    0.43089    1.000
    Co8      Co       0.78510    0.65164    0.42531    1.000
    N13      N        0.46267    0.19150    0.99525    1.000
    N14      N        0.31526    0.75940    0.98395    1.000
    N15      N        0.46574    0.72260    0.37209    1.000
    N16      N        0.30559    0.22830    0.35772    1.000
    O43      O        0.75185    0.79807    0.41831    1.000
    O44      O        0.74628    0.63046    0.36585    1.000
    O45      O        0.52237    0.87051    0.37707    1.000
    O46      O        0.51111    0.05155    0.33579    1.000
    O47      O        0.51900    0.68032    0.45697    1.000
    O48      O        0.52868    0.85876    0.50030    1.000
    O49      O        0.69182    0.00827    0.58136    1.000
    O50      O        0.70181    0.11910    0.50707    1.000
    O51      O        0.62382    0.50029    0.62674    1.000
    O52      O        0.63676    0.93980    0.26075    1.000
    O53      O        0.41858    0.49262    0.25778    1.000
    O54      O        0.37379    0.57824    0.09928    1.000
    O55      O        0.40387    0.28881    0.10811    1.000
    O56      O        0.35130    0.39930    0.23817    1.000
    C213     C        0.03464    0.75420    0.99238    1.000
    C214     C        0.06031    0.81400    0.02559    1.000
    C215     C        0.09749    0.81830    0.10282    1.000
    H161     H        0.10780    0.77920    0.13360    1.000
    C216     C        0.10372    0.93830    0.08893    1.000
    C217     C        0.06763    0.93430    0.01098    1.000
    H162     H        0.05760    0.97300    0.97970    1.000
    C218     C        0.08975    0.99680    0.04283    1.000
    H163     H        0.09500    0.07700    0.03300    1.000
    C219     C        0.07558    0.75590    0.07023    1.000
    H164     H        0.07130    0.67390    0.07880    1.000
    C220     C        0.17133    0.29160    0.06969    1.000
    C221     C        0.13849    0.10040    0.10500    1.000
    C222     C        0.15677    0.07940    0.06530    1.000
    H165     H        0.15850    0.99960    0.05080    1.000
    C223     C        0.13610    0.21310    0.12834    1.000
    H166     H        0.12350    0.22650    0.15580    1.000
    C224     C        0.15299    0.30980    0.11039    1.000
    H167     H        0.15170    0.38840    0.12650    1.000
    C225     C        0.17274    0.17490    0.04632    1.000
    H168     H        0.18460    0.16090    0.01760    1.000
    C226     C        0.18973    0.39660    0.05113    1.000
    C227     C        0.23768    0.76260    0.87988    1.000
    C228     C        0.21044    0.71050    0.84996    1.000
    C229     C        0.19517    0.77640    0.80698    1.000
    H169     H        0.20160    0.85490    0.79730    1.000
    C230     C        0.20048    0.59780    0.86419    1.000
    H170     H        0.21060    0.55330    0.89360    1.000
    C231     C        0.16086    0.61160    0.79298    1.000
    C232     C        0.17028    0.72700    0.77788    1.000
    H171     H        0.16010    0.77150    0.74860    1.000
    C233     C        0.17515    0.54600    0.83565    1.000
    H172     H        0.16840    0.46840    0.84590    1.000
    C234     C        0.06316    0.47290    0.77820    1.000
    H173     H        0.04890    0.42250    0.75970    1.000
    C235     C        0.05714    0.53900    0.82581    1.000
    C236     C        0.10625    0.61480    0.83420    1.000
    H174     H        0.12100    0.66060    0.85410    1.000
    C237     C        0.11142    0.55250    0.78616    1.000
    C238     C        0.02777    0.53670    0.84753    1.000
    C239     C        0.08998    0.48030    0.75759    1.000
    H175     H        0.09350    0.43730    0.72490    1.000
    C240     C        0.07906    0.61000    0.85334    1.000
    H176     H        0.07550    0.65530    0.88530    1.000
    C241     C        0.93295    0.92670    0.79296    1.000
    C242     C        0.94857    0.73080    0.82964    1.000
    H177     H        0.94750    0.64450    0.82650    1.000
    C243     C        0.93217    0.80020    0.78971    1.000
    H178     H        0.92060    0.76100    0.76060    1.000
    C244     C        0.96616    0.89910    0.87519    1.000
    H179     H        0.97740    0.93540    0.90560    1.000
    C245     C        0.95111    0.97730    0.83658    1.000
    H180     H        0.95320    0.06330    0.83990    1.000
    C246     C        0.89865    0.95730    0.71372    1.000
    H181     H        0.90840    0.89770    0.69140    1.000
    H182     H        0.88280    0.91530    0.72970    1.000
    C247     C        0.97078    0.24460    0.54235    1.000
    H183     H        0.99020    0.22140    0.54860    1.000
    C248     C        0.93495    0.34600    0.48978    1.000
    H184     H        0.92870    0.39490    0.45850    1.000
    C249     C        0.91546    0.31770    0.52635    1.000
    H185     H        0.89640    0.34600    0.51980    1.000
    C250     C        0.95311    0.21000    0.58224    1.000
    H186     H        0.96020    0.16410    0.61390    1.000
    C251     C        0.92413    0.24580    0.57393    1.000
    C252     C        0.91277    0.11800    0.65029    1.000
    H187     H        0.92270    0.05100    0.63270    1.000
    H188     H        0.92630    0.15490    0.67950    1.000
    C253     C        0.87332    0.16310    0.71165    1.000
    H189     H        0.86500    0.22940    0.68730    1.000
    H190     H        0.88760    0.19890    0.73990    1.000
    C254     C        0.88721    0.06520    0.67711    1.000
    C255     C        0.86353    0.02100    0.63220    1.000
    H191     H        0.85730    0.09010    0.60750    1.000
    H192     H        0.84690    0.99260    0.65050    1.000
    C256     C        0.82321    0.33680    0.82796    1.000
    H193     H        0.82500    0.42170    0.83540    1.000
    C257     C        0.83674    0.16270    0.77492    1.000
    C258     C        0.80325    0.15370    0.84454    1.000
    H194     H        0.79060    0.10610    0.86380    1.000
    C259     C        0.83917    0.28800    0.78682    1.000
    H195     H        0.85120    0.33870    0.76770    1.000
    C260     C        0.81787    0.09340    0.80448    1.000
    H196     H        0.81520    0.00860    0.79750    1.000
    C261     C        0.84347    0.71270    0.49115    1.000
    H197     H        0.85030    0.64940    0.46920    1.000
    C262     C        0.85394    0.86670    0.56223    1.000
    C263     C        0.86295    0.77310    0.52961    1.000
    H198     H        0.88240    0.74960    0.53330    1.000
    C264     C        0.82533    0.89930    0.55498    1.000
    H199     H        0.81820    0.96360    0.57590    1.000
    C265     C        0.80746    0.83400    0.51570    1.000
    H200     H        0.78800    0.85740    0.51090    1.000
    Co9      Co       0.99146    0.66895    0.93089    1.000
    Co10     Co       0.28510    0.84836    0.92531    1.000
    N17      N        0.96267    0.30850    0.49525    1.000
    N18      N        0.81526    0.74060    0.48395    1.000
    N19      N        0.96574    0.77740    0.87209    1.000
    N20      N        0.80559    0.27170    0.85772    1.000
    O57      O        0.25185    0.70193    0.91831    1.000
    O58      O        0.24628    0.86954    0.86585    1.000
    O59      O        0.02237    0.62949    0.87707    1.000
    O60      O        0.01111    0.44845    0.83579    1.000
    O61      O        0.01900    0.81968    0.95697    1.000
    O62      O        0.02868    0.64124    0.00030    1.000
    O63      O        0.19182    0.49173    0.08136    1.000
    O64      O        0.20181    0.38090    0.00707    1.000
    O65      O        0.12382    0.99971    0.12674    1.000
    O66      O        0.13676    0.56020    0.76075    1.000
    O67      O        0.91858    0.00738    0.75778    1.000
    O68      O        0.87379    0.92176    0.59928    1.000
    O69      O        0.90387    0.21119    0.60811    1.000
    O70      O        0.85130    0.10070    0.73817    1.000
    C266     C        0.53464    0.25420    0.99238    1.000
    C267     C        0.56031    0.31400    0.02559    1.000
    C268     C        0.59749    0.31830    0.10282    1.000
    H201     H        0.60780    0.27920    0.13360    1.000
    C269     C        0.60372    0.43830    0.08893    1.000
    C270     C        0.56763    0.43430    0.01098    1.000
    H202     H        0.55760    0.47300    0.97970    1.000
    C271     C        0.58975    0.49680    0.04283    1.000
    H203     H        0.59500    0.57700    0.03300    1.000
    C272     C        0.57558    0.25590    0.07023    1.000
    H204     H        0.57130    0.17390    0.07880    1.000
    C273     C        0.67133    0.79160    0.06969    1.000
    C274     C        0.63849    0.60040    0.10500    1.000
    C275     C        0.65677    0.57940    0.06530    1.000
    H205     H        0.65850    0.49960    0.05080    1.000
    C276     C        0.63610    0.71310    0.12834    1.000
    H206     H        0.62350    0.72650    0.15580    1.000
    C277     C        0.65299    0.80980    0.11039    1.000
    H207     H        0.65170    0.88840    0.12650    1.000
    C278     C        0.67274    0.67490    0.04632    1.000
    H208     H        0.68460    0.66090    0.01760    1.000
    C279     C        0.68973    0.89660    0.05113    1.000
    C280     C        0.73768    0.26260    0.87988    1.000
    C281     C        0.71044    0.21050    0.84996    1.000
    C282     C        0.69517    0.27640    0.80698    1.000
    H209     H        0.70160    0.35490    0.79730    1.000
    C283     C        0.70048    0.09780    0.86419    1.000
    H210     H        0.71060    0.05330    0.89360    1.000
    C284     C        0.66086    0.11160    0.79298    1.000
    C285     C        0.67028    0.22700    0.77788    1.000
    H211     H        0.66010    0.27150    0.74860    1.000
    C286     C        0.67515    0.04600    0.83565    1.000
    H212     H        0.66840    0.96840    0.84590    1.000
    C287     C        0.56316    0.97290    0.77820    1.000
    H213     H        0.54890    0.92250    0.75970    1.000
    C288     C        0.55714    0.03900    0.82581    1.000
    C289     C        0.60625    0.11480    0.83420    1.000
    H214     H        0.62100    0.16060    0.85410    1.000
    C290     C        0.61142    0.05250    0.78616    1.000
    C291     C        0.52777    0.03670    0.84753    1.000
    C292     C        0.58998    0.98030    0.75759    1.000
    H215     H        0.59350    0.93730    0.72490    1.000
    C293     C        0.57906    0.11000    0.85334    1.000
    H216     H        0.57550    0.15530    0.88530    1.000
    C294     C        0.43295    0.42670    0.79296    1.000
    C295     C        0.44857    0.23080    0.82964    1.000
    H217     H        0.44750    0.14450    0.82650    1.000
    C296     C        0.43217    0.30020    0.78971    1.000
    H218     H        0.42060    0.26100    0.76060    1.000
    C297     C        0.46616    0.39910    0.87519    1.000
    H219     H        0.47740    0.43540    0.90560    1.000
    C298     C        0.45111    0.47730    0.83658    1.000
    H220     H        0.45320    0.56330    0.83990    1.000
    C299     C        0.39865    0.45730    0.71372    1.000
    H221     H        0.40840    0.39770    0.69140    1.000
    H222     H        0.38280    0.41530    0.72970    1.000
    C300     C        0.47078    0.74460    0.54235    1.000
    H223     H        0.49020    0.72140    0.54860    1.000
    C301     C        0.43495    0.84600    0.48978    1.000
    H224     H        0.42870    0.89490    0.45850    1.000
    C302     C        0.41546    0.81770    0.52635    1.000
    H225     H        0.39640    0.84600    0.51980    1.000
    C303     C        0.45311    0.71000    0.58224    1.000
    H226     H        0.46020    0.66410    0.61390    1.000
    C304     C        0.42413    0.74580    0.57393    1.000
    C305     C        0.41277    0.61800    0.65029    1.000
    H227     H        0.42270    0.55100    0.63270    1.000
    H228     H        0.42630    0.65490    0.67950    1.000
    C306     C        0.37332    0.66310    0.71165    1.000
    H229     H        0.36500    0.72940    0.68730    1.000
    H230     H        0.38760    0.69890    0.73990    1.000
    C307     C        0.38721    0.56520    0.67711    1.000
    C308     C        0.36353    0.52100    0.63220    1.000
    H231     H        0.35730    0.59010    0.60750    1.000
    H232     H        0.34690    0.49260    0.65050    1.000
    C309     C        0.32321    0.83680    0.82796    1.000
    H233     H        0.32500    0.92170    0.83540    1.000
    C310     C        0.33674    0.66270    0.77492    1.000
    C311     C        0.30325    0.65370    0.84454    1.000
    H234     H        0.29060    0.60610    0.86380    1.000
    C312     C        0.33917    0.78800    0.78682    1.000
    H235     H        0.35120    0.83870    0.76770    1.000
    C313     C        0.31787    0.59340    0.80448    1.000
    H236     H        0.31520    0.50860    0.79750    1.000
    C314     C        0.34347    0.21270    0.49115    1.000
    H237     H        0.35030    0.14940    0.46920    1.000
    C315     C        0.35394    0.36670    0.56223    1.000
    C316     C        0.36295    0.27310    0.52961    1.000
    H238     H        0.38240    0.24960    0.53330    1.000
    C317     C        0.32533    0.39930    0.55498    1.000
    H239     H        0.31820    0.46360    0.57590    1.000
    C318     C        0.30746    0.33400    0.51570    1.000
    H240     H        0.28800    0.35740    0.51090    1.000
    Co11     Co       0.49146    0.16895    0.93089    1.000
    Co12     Co       0.78510    0.34836    0.92531    1.000
    N21      N        0.46267    0.80850    0.49525    1.000
    N22      N        0.31526    0.24060    0.48395    1.000
    N23      N        0.46574    0.27740    0.87209    1.000
    N24      N        0.30559    0.77170    0.85772    1.000
    O71      O        0.75185    0.20193    0.91831    1.000
    O72      O        0.74628    0.36954    0.86585    1.000
    O73      O        0.52237    0.12949    0.87707    1.000
    O74      O        0.51111    0.94845    0.83579    1.000
    O75      O        0.51900    0.31968    0.95697    1.000
    O76      O        0.52868    0.14124    0.00030    1.000
    O77      O        0.69182    0.99173    0.08136    1.000
    O78      O        0.70181    0.88090    0.00707    1.000
    O79      O        0.62382    0.49971    0.12674    1.000
    O80      O        0.63676    0.06020    0.76075    1.000
    O81      O        0.41858    0.50738    0.75778    1.000
    O82      O        0.37379    0.42176    0.59928    1.000
    O83      O        0.40387    0.71119    0.60811    1.000
    O84      O        0.35130    0.60070    0.73817    1.000
    C319     C        0.96536    0.75420    0.50762    1.000
    C320     C        0.93969    0.81400    0.47441    1.000
    C321     C        0.90251    0.81830    0.39718    1.000
    H241     H        0.89220    0.77920    0.36640    1.000
    C322     C        0.89628    0.93830    0.41107    1.000
    C323     C        0.93237    0.93430    0.48902    1.000
    H242     H        0.94240    0.97300    0.52030    1.000
    C324     C        0.91025    0.99680    0.45717    1.000
    H243     H        0.90500    0.07700    0.46700    1.000
    C325     C        0.92442    0.75590    0.42977    1.000
    H244     H        0.92870    0.67390    0.42120    1.000
    C326     C        0.82867    0.29160    0.43031    1.000
    C327     C        0.86151    0.10040    0.39500    1.000
    C328     C        0.84323    0.07940    0.43470    1.000
    H245     H        0.84150    0.99960    0.44920    1.000
    C329     C        0.86390    0.21310    0.37166    1.000
    H246     H        0.87650    0.22650    0.34420    1.000
    C330     C        0.84701    0.30980    0.38961    1.000
    H247     H        0.84830    0.38840    0.37350    1.000
    C331     C        0.82726    0.17490    0.45368    1.000
    H248     H        0.81540    0.16090    0.48240    1.000
    C332     C        0.81027    0.39660    0.44887    1.000
    C333     C        0.76232    0.76260    0.62012    1.000
    C334     C        0.78956    0.71050    0.65004    1.000
    C335     C        0.80483    0.77640    0.69302    1.000
    H249     H        0.79840    0.85490    0.70270    1.000
    C336     C        0.79952    0.59780    0.63581    1.000
    H250     H        0.78940    0.55330    0.60640    1.000
    C337     C        0.83914    0.61160    0.70702    1.000
    C338     C        0.82972    0.72700    0.72212    1.000
    H251     H        0.83990    0.77150    0.75140    1.000
    C339     C        0.82485    0.54600    0.66435    1.000
    H252     H        0.83160    0.46840    0.65410    1.000
    C340     C        0.93684    0.47290    0.72180    1.000
    H253     H        0.95110    0.42250    0.74030    1.000
    C341     C        0.94286    0.53900    0.67419    1.000
    C342     C        0.89375    0.61480    0.66580    1.000
    H254     H        0.87900    0.66060    0.64590    1.000
    C343     C        0.88858    0.55250    0.71384    1.000
    C344     C        0.97223    0.53670    0.65247    1.000
    C345     C        0.91002    0.48030    0.74241    1.000
    H255     H        0.90650    0.43730    0.77510    1.000
    C346     C        0.92094    0.61000    0.64666    1.000
    H256     H        0.92450    0.65530    0.61470    1.000
    C347     C        0.06705    0.92670    0.70704    1.000
    C348     C        0.05143    0.73080    0.67036    1.000
    H257     H        0.05250    0.64450    0.67350    1.000
    C349     C        0.06783    0.80020    0.71029    1.000
    H258     H        0.07940    0.76100    0.73940    1.000
    C350     C        0.03384    0.89910    0.62481    1.000
    H259     H        0.02260    0.93540    0.59440    1.000
    C351     C        0.04889    0.97730    0.66342    1.000
    H260     H        0.04680    0.06330    0.66010    1.000
    C352     C        0.10135    0.95730    0.78628    1.000
    H261     H        0.09160    0.89770    0.80860    1.000
    H262     H        0.11720    0.91530    0.77030    1.000
    C353     C        0.02922    0.24460    0.95765    1.000
    H263     H        0.00980    0.22140    0.95140    1.000
    C354     C        0.06505    0.34600    0.01022    1.000
    H264     H        0.07130    0.39490    0.04150    1.000
    C355     C        0.08454    0.31770    0.97365    1.000
    H265     H        0.10360    0.34600    0.98020    1.000
    C356     C        0.04689    0.21000    0.91776    1.000
    H266     H        0.03980    0.16410    0.88610    1.000
    C357     C        0.07587    0.24580    0.92607    1.000
    C358     C        0.08723    0.11800    0.84971    1.000
    H267     H        0.07730    0.05100    0.86730    1.000
    H268     H        0.07370    0.15490    0.82050    1.000
    C359     C        0.12668    0.16310    0.78835    1.000
    H269     H        0.13500    0.22940    0.81270    1.000
    H270     H        0.11240    0.19890    0.76010    1.000
    C360     C        0.11279    0.06520    0.82289    1.000
    C361     C        0.13647    0.02100    0.86780    1.000
    H271     H        0.14270    0.09010    0.89250    1.000
    H272     H        0.15310    0.99260    0.84950    1.000
    C362     C        0.17679    0.33680    0.67204    1.000
    H273     H        0.17500    0.42170    0.66460    1.000
    C363     C        0.16326    0.16270    0.72508    1.000
    C364     C        0.19675    0.15370    0.65546    1.000
    H274     H        0.20940    0.10610    0.63620    1.000
    C365     C        0.16083    0.28800    0.71318    1.000
    H275     H        0.14880    0.33870    0.73230    1.000
    C366     C        0.18213    0.09340    0.69552    1.000
    H276     H        0.18480    0.00860    0.70250    1.000
    C367     C        0.15653    0.71270    0.00885    1.000
    H277     H        0.14970    0.64940    0.03080    1.000
    C368     C        0.14606    0.86670    0.93777    1.000
    C369     C        0.13705    0.77310    0.97039    1.000
    H278     H        0.11760    0.74960    0.96670    1.000
    C370     C        0.17467    0.89930    0.94502    1.000
    H279     H        0.18180    0.96360    0.92410    1.000
    C371     C        0.19254    0.83400    0.98430    1.000
    H280     H        0.21200    0.85740    0.98910    1.000
    Co13     Co       0.00854    0.66895    0.56911    1.000
    Co14     Co       0.71490    0.84836    0.57469    1.000
    N25      N        0.03733    0.30850    0.00475    1.000
    N26      N        0.18474    0.74060    0.01605    1.000
    N27      N        0.03426    0.77740    0.62791    1.000
    N28      N        0.19441    0.27170    0.64228    1.000
    O85      O        0.74815    0.70193    0.58169    1.000
    O86      O        0.75372    0.86954    0.63415    1.000
    O87      O        0.97763    0.62949    0.62293    1.000
    O88      O        0.98889    0.44845    0.66421    1.000
    O89      O        0.98100    0.81968    0.54303    1.000
    O90      O        0.97132    0.64124    0.49970    1.000
    O91      O        0.80818    0.49173    0.41864    1.000
    O92      O        0.79819    0.38090    0.49293    1.000
    O93      O        0.87618    0.99971    0.37326    1.000
    O94      O        0.86324    0.56020    0.73925    1.000
    O95      O        0.08142    0.00738    0.74222    1.000
    O96      O        0.12621    0.92176    0.90072    1.000
    O97      O        0.09613    0.21119    0.89189    1.000
    O98      O        0.14870    0.10070    0.76183    1.000
    C372     C        0.46536    0.25420    0.50762    1.000
    C373     C        0.43969    0.31400    0.47441    1.000
    C374     C        0.40251    0.31830    0.39718    1.000
    H281     H        0.39220    0.27920    0.36640    1.000
    C375     C        0.39628    0.43830    0.41107    1.000
    C376     C        0.43237    0.43430    0.48902    1.000
    H282     H        0.44240    0.47300    0.52030    1.000
    C377     C        0.41025    0.49680    0.45717    1.000
    H283     H        0.40500    0.57700    0.46700    1.000
    C378     C        0.42442    0.25590    0.42977    1.000
    H284     H        0.42870    0.17390    0.42120    1.000
    C379     C        0.32867    0.79160    0.43031    1.000
    C380     C        0.36151    0.60040    0.39500    1.000
    C381     C        0.34323    0.57940    0.43470    1.000
    H285     H        0.34150    0.49960    0.44920    1.000
    C382     C        0.36390    0.71310    0.37166    1.000
    H286     H        0.37650    0.72650    0.34420    1.000
    C383     C        0.34701    0.80980    0.38961    1.000
    H287     H        0.34830    0.88840    0.37350    1.000
    C384     C        0.32726    0.67490    0.45368    1.000
    H288     H        0.31540    0.66090    0.48240    1.000
    C385     C        0.31027    0.89660    0.44887    1.000
    C386     C        0.26232    0.26260    0.62012    1.000
    C387     C        0.28956    0.21050    0.65004    1.000
    C388     C        0.30483    0.27640    0.69302    1.000
    H289     H        0.29840    0.35490    0.70270    1.000
    C389     C        0.29952    0.09780    0.63581    1.000
    H290     H        0.28940    0.05330    0.60640    1.000
    C390     C        0.33914    0.11160    0.70702    1.000
    C391     C        0.32972    0.22700    0.72212    1.000
    H291     H        0.33990    0.27150    0.75140    1.000
    C392     C        0.32485    0.04600    0.66435    1.000
    H292     H        0.33160    0.96840    0.65410    1.000
    C393     C        0.43684    0.97290    0.72180    1.000
    H293     H        0.45110    0.92250    0.74030    1.000
    C394     C        0.44286    0.03900    0.67419    1.000
    C395     C        0.39375    0.11480    0.66580    1.000
    H294     H        0.37900    0.16060    0.64590    1.000
    C396     C        0.38858    0.05250    0.71384    1.000
    C397     C        0.47223    0.03670    0.65247    1.000
    C398     C        0.41002    0.98030    0.74241    1.000
    H295     H        0.40650    0.93730    0.77510    1.000
    C399     C        0.42094    0.11000    0.64666    1.000
    H296     H        0.42450    0.15530    0.61470    1.000
    C400     C        0.56705    0.42670    0.70704    1.000
    C401     C        0.55143    0.23080    0.67036    1.000
    H297     H        0.55250    0.14450    0.67350    1.000
    C402     C        0.56783    0.30020    0.71029    1.000
    H298     H        0.57940    0.26100    0.73940    1.000
    C403     C        0.53384    0.39910    0.62481    1.000
    H299     H        0.52260    0.43540    0.59440    1.000
    C404     C        0.54889    0.47730    0.66342    1.000
    H300     H        0.54680    0.56330    0.66010    1.000
    C405     C        0.60135    0.45730    0.78628    1.000
    H301     H        0.59160    0.39770    0.80860    1.000
    H302     H        0.61720    0.41530    0.77030    1.000
    C406     C        0.52922    0.74460    0.95765    1.000
    H303     H        0.50980    0.72140    0.95140    1.000
    C407     C        0.56505    0.84600    0.01022    1.000
    H304     H        0.57130    0.89490    0.04150    1.000
    C408     C        0.58454    0.81770    0.97365    1.000
    H305     H        0.60360    0.84600    0.98020    1.000
    C409     C        0.54689    0.71000    0.91776    1.000
    H306     H        0.53980    0.66410    0.88610    1.000
    C410     C        0.57587    0.74580    0.92607    1.000
    C411     C        0.58723    0.61800    0.84971    1.000
    H307     H        0.57730    0.55100    0.86730    1.000
    H308     H        0.57370    0.65490    0.82050    1.000
    C412     C        0.62668    0.66310    0.78835    1.000
    H309     H        0.63500    0.72940    0.81270    1.000
    H310     H        0.61240    0.69890    0.76010    1.000
    C413     C        0.61279    0.56520    0.82289    1.000
    C414     C        0.63647    0.52100    0.86780    1.000
    H311     H        0.64270    0.59010    0.89250    1.000
    H312     H        0.65310    0.49260    0.84950    1.000
    C415     C        0.67679    0.83680    0.67204    1.000
    H313     H        0.67500    0.92170    0.66460    1.000
    C416     C        0.66326    0.66270    0.72508    1.000
    C417     C        0.69675    0.65370    0.65546    1.000
    H314     H        0.70940    0.60610    0.63620    1.000
    C418     C        0.66083    0.78800    0.71318    1.000
    H315     H        0.64880    0.83870    0.73230    1.000
    C419     C        0.68213    0.59340    0.69552    1.000
    H316     H        0.68480    0.50860    0.70250    1.000
    C420     C        0.65653    0.21270    0.00885    1.000
    H317     H        0.64970    0.14940    0.03080    1.000
    C421     C        0.64606    0.36670    0.93777    1.000
    C422     C        0.63705    0.27310    0.97039    1.000
    H318     H        0.61760    0.24960    0.96670    1.000
    C423     C        0.67467    0.39930    0.94502    1.000
    H319     H        0.68180    0.46360    0.92410    1.000
    C424     C        0.69254    0.33400    0.98430    1.000
    H320     H        0.71200    0.35740    0.98910    1.000
    Co15     Co       0.50854    0.16895    0.56911    1.000
    Co16     Co       0.21490    0.34836    0.57469    1.000
    N29      N        0.53733    0.80850    0.00475    1.000
    N30      N        0.68474    0.24060    0.01605    1.000
    N31      N        0.53426    0.27740    0.62791    1.000
    N32      N        0.69441    0.77170    0.64228    1.000
    O99      O        0.24815    0.20193    0.58169    1.000
    O100     O        0.25372    0.36954    0.63415    1.000
    O101     O        0.47763    0.12949    0.62293    1.000
    O102     O        0.48889    0.94845    0.66421    1.000
    O103     O        0.48100    0.31968    0.54303    1.000
    O104     O        0.47132    0.14124    0.49970    1.000
    O105     O        0.30818    0.99173    0.41864    1.000
    O106     O        0.29819    0.88090    0.49293    1.000
    O107     O        0.37618    0.49971    0.37326    1.000
    O108     O        0.36324    0.06020    0.73925    1.000
    O109     O        0.58142    0.50738    0.74222    1.000
    O110     O        0.62621    0.42176    0.90072    1.000
    O111     O        0.59613    0.71119    0.89189    1.000
    O112     O        0.64870    0.60070    0.76183    1.000
