# CIF file generated by openbabel 3.1.0, see https://openbabel.org
data_I
_chemical_name_common 'image0'
_cell_length_a 25.847
_cell_length_b 16.9043
_cell_length_c 13.2251
_cell_angle_alpha 90
_cell_angle_beta 105.9
_cell_angle_gamma 90
_space_group_name_H-M_alt 'P 1'
_space_group_name_Hall 'P 1'
loop_
    _symmetry_equiv_pos_as_xyz
    x,y,z
loop_
    _atom_site_label
    _atom_site_type_symbol
    _atom_site_fract_x
    _atom_site_fract_y
    _atom_site_fract_z
    _atom_site_occupancy
    O1       O        0.89600    0.60350    0.14390    1.000
    C1       C        0.06735    0.95630    0.45040    1.000
    C2       C        0.02018    0.90070    0.42020    1.000
    C3       C        0.02475    0.82430    0.46120    1.000
    H1       H        0.05630    0.80790    0.50950    1.000
    C4       C        0.98195    0.77340    0.42930    1.000
    C5       C        0.93310    0.79480    0.35670    1.000
    C6       C        0.92941    0.87210    0.31730    1.000
    C7       C        0.97272    0.92390    0.34850    1.000
    H2       H        0.96980    0.97480    0.32090    1.000
    C8       C        0.88362    0.74470    0.33550    1.000
    C9       C        0.86730    0.69050    0.25360    1.000
    C10      C        0.81875    0.65080    0.23380    1.000
    H3       H        0.80860    0.61580    0.17750    1.000
    C11      C        0.78536    0.66350    0.29830    1.000
    C12      C        0.80141    0.71630    0.38230    1.000
    H4       H        0.77960    0.72430    0.42680    1.000
    C13      C        0.84952    0.75690    0.39950    1.000
    C14      C        0.86570    0.81270    0.49190    1.000
    C15      C        0.73213    0.62270    0.27730    1.000
    C16      C        0.87906    0.90040    0.23710    1.000
    Mn1      Mn       0.13609    0.07142    0.35519    1.000
    N1       N        0.99040    0.69300    0.47190    1.000
    N2       N        0.90260    0.67150    0.18820    1.000
    O2       O        0.07029    0.00753    0.38350    1.000
    O3       O        0.10079    0.94692    0.53940    1.000
    O4       O        0.94160    0.70760    0.19260    1.000
    O5       O        0.02180    0.68400    0.55970    1.000
    O6       O        0.96590    0.63850    0.42020    1.000
    O7       O        0.71495    0.58930    0.18950    1.000
    O8       O        0.70890    0.62320    0.34900    1.000
    O9       O        0.85020    0.88250    0.48130    1.000
    O10      O        0.89580    0.78720    0.57590    1.000
    O11      O        0.86089    0.96826    0.25550    1.000
    O12      O        0.85893    0.86020    0.15820    1.000
    Mn2      Mn       0.17446    0.01080    0.61609    1.000
    O13      O        0.88100    0.64010    0.09920    1.000
    O14      O        0.39600    0.10350    0.14390    1.000
    C17      C        0.56735    0.45630    0.45040    1.000
    C18      C        0.52018    0.40070    0.42020    1.000
    C19      C        0.52475    0.32430    0.46120    1.000
    H5       H        0.55630    0.30790    0.50950    1.000
    C20      C        0.48195    0.27340    0.42930    1.000
    C21      C        0.43310    0.29480    0.35670    1.000
    C22      C        0.42941    0.37210    0.31730    1.000
    C23      C        0.47272    0.42390    0.34850    1.000
    H6       H        0.46980    0.47480    0.32090    1.000
    C24      C        0.38362    0.24470    0.33550    1.000
    C25      C        0.36730    0.19050    0.25360    1.000
    C26      C        0.31875    0.15080    0.23380    1.000
    H7       H        0.30860    0.11580    0.17750    1.000
    C27      C        0.28536    0.16350    0.29830    1.000
    C28      C        0.30141    0.21630    0.38230    1.000
    H8       H        0.27960    0.22430    0.42680    1.000
    C29      C        0.34952    0.25690    0.39950    1.000
    C30      C        0.36570    0.31270    0.49190    1.000
    C31      C        0.23213    0.12270    0.27730    1.000
    C32      C        0.37906    0.40040    0.23710    1.000
    Mn3      Mn       0.63609    0.57142    0.35519    1.000
    N3       N        0.49040    0.19300    0.47190    1.000
    N4       N        0.40260    0.17150    0.18820    1.000
    O15      O        0.57029    0.50753    0.38350    1.000
    O16      O        0.60079    0.44692    0.53940    1.000
    O17      O        0.44160    0.20760    0.19260    1.000
    O18      O        0.52180    0.18400    0.55970    1.000
    O19      O        0.46590    0.13850    0.42020    1.000
    O20      O        0.21495    0.08930    0.18950    1.000
    O21      O        0.20890    0.12320    0.34900    1.000
    O22      O        0.35020    0.38250    0.48130    1.000
    O23      O        0.39580    0.28720    0.57590    1.000
    O24      O        0.36089    0.46826    0.25550    1.000
    O25      O        0.35893    0.36020    0.15820    1.000
    Mn4      Mn       0.67446    0.51080    0.61609    1.000
    O26      O        0.38100    0.14010    0.09920    1.000
    O27      O        0.10400    0.60350    0.35610    1.000
    C33      C        0.93265    0.95630    0.04960    1.000
    C34      C        0.97982    0.90070    0.07980    1.000
    C35      C        0.97525    0.82430    0.03880    1.000
    H9       H        0.94370    0.80790    0.99050    1.000
    C36      C        0.01805    0.77340    0.07070    1.000
    C37      C        0.06690    0.79480    0.14330    1.000
    C38      C        0.07059    0.87210    0.18270    1.000
    C39      C        0.02728    0.92390    0.15150    1.000
    H10      H        0.03020    0.97480    0.17910    1.000
    C40      C        0.11638    0.74470    0.16450    1.000
    C41      C        0.13270    0.69050    0.24640    1.000
    C42      C        0.18125    0.65080    0.26620    1.000
    H11      H        0.19140    0.61580    0.32250    1.000
    C43      C        0.21464    0.66350    0.20170    1.000
    C44      C        0.19859    0.71630    0.11770    1.000
    H12      H        0.22040    0.72430    0.07320    1.000
    C45      C        0.15048    0.75690    0.10050    1.000
    C46      C        0.13430    0.81270    0.00810    1.000
    C47      C        0.26787    0.62270    0.22270    1.000
    C48      C        0.12094    0.90040    0.26290    1.000
    Mn5      Mn       0.86391    0.07142    0.14481    1.000
    N5       N        0.00960    0.69300    0.02810    1.000
    N6       N        0.09740    0.67150    0.31180    1.000
    O28      O        0.92971    0.00753    0.11650    1.000
    O29      O        0.89921    0.94692    0.96060    1.000
    O30      O        0.05840    0.70760    0.30740    1.000
    O31      O        0.97820    0.68400    0.94030    1.000
    O32      O        0.03410    0.63850    0.07980    1.000
    O33      O        0.28505    0.58930    0.31050    1.000
    O34      O        0.29110    0.62320    0.15100    1.000
    O35      O        0.14980    0.88250    0.01870    1.000
    O36      O        0.10420    0.78720    0.92410    1.000
    O37      O        0.13911    0.96826    0.24450    1.000
    O38      O        0.14107    0.86020    0.34180    1.000
    Mn6      Mn       0.82554    0.01080    0.88391    1.000
    O39      O        0.11900    0.64010    0.40080    1.000
    O40      O        0.60400    0.10350    0.35610    1.000
    C49      C        0.43265    0.45630    0.04960    1.000
    C50      C        0.47982    0.40070    0.07980    1.000
    C51      C        0.47525    0.32430    0.03880    1.000
    H13      H        0.44370    0.30790    0.99050    1.000
    C52      C        0.51805    0.27340    0.07070    1.000
    C53      C        0.56690    0.29480    0.14330    1.000
    C54      C        0.57059    0.37210    0.18270    1.000
    C55      C        0.52728    0.42390    0.15150    1.000
    H14      H        0.53020    0.47480    0.17910    1.000
    C56      C        0.61638    0.24470    0.16450    1.000
    C57      C        0.63270    0.19050    0.24640    1.000
    C58      C        0.68125    0.15080    0.26620    1.000
    H15      H        0.69140    0.11580    0.32250    1.000
    C59      C        0.71464    0.16350    0.20170    1.000
    C60      C        0.69859    0.21630    0.11770    1.000
    H16      H        0.72040    0.22430    0.07320    1.000
    C61      C        0.65048    0.25690    0.10050    1.000
    C62      C        0.63430    0.31270    0.00810    1.000
    C63      C        0.76787    0.12270    0.22270    1.000
    C64      C        0.62094    0.40040    0.26290    1.000
    Mn7      Mn       0.36391    0.57142    0.14481    1.000
    N7       N        0.50960    0.19300    0.02810    1.000
    N8       N        0.59740    0.17150    0.31180    1.000
    O41      O        0.42971    0.50753    0.11650    1.000
    O42      O        0.39921    0.44692    0.96060    1.000
    O43      O        0.55840    0.20760    0.30740    1.000
    O44      O        0.47820    0.18400    0.94030    1.000
    O45      O        0.53410    0.13850    0.07980    1.000
    O46      O        0.78505    0.08930    0.31050    1.000
    O47      O        0.79110    0.12320    0.15100    1.000
    O48      O        0.64980    0.38250    0.01870    1.000
    O49      O        0.60420    0.28720    0.92410    1.000
    O50      O        0.63911    0.46826    0.24450    1.000
    O51      O        0.64107    0.36020    0.34180    1.000
    Mn8      Mn       0.32554    0.51080    0.88391    1.000
    O52      O        0.61900    0.14010    0.40080    1.000
    O53      O        0.10400    0.39650    0.85610    1.000
    C65      C        0.93265    0.04370    0.54960    1.000
    C66      C        0.97982    0.09930    0.57980    1.000
    C67      C        0.97525    0.17570    0.53880    1.000
    H17      H        0.94370    0.19210    0.49050    1.000
    C68      C        0.01805    0.22660    0.57070    1.000
    C69      C        0.06690    0.20520    0.64330    1.000
    C70      C        0.07059    0.12790    0.68270    1.000
    C71      C        0.02728    0.07610    0.65150    1.000
    H18      H        0.03020    0.02520    0.67910    1.000
    C72      C        0.11638    0.25530    0.66450    1.000
    C73      C        0.13270    0.30950    0.74640    1.000
    C74      C        0.18125    0.34920    0.76620    1.000
    H19      H        0.19140    0.38420    0.82250    1.000
    C75      C        0.21464    0.33650    0.70170    1.000
    C76      C        0.19859    0.28370    0.61770    1.000
    H20      H        0.22040    0.27570    0.57320    1.000
    C77      C        0.15048    0.24310    0.60050    1.000
    C78      C        0.13430    0.18730    0.50810    1.000
    C79      C        0.26787    0.37730    0.72270    1.000
    C80      C        0.12094    0.09960    0.76290    1.000
    Mn9      Mn       0.86391    0.92858    0.64481    1.000
    N9       N        0.00960    0.30700    0.52810    1.000
    N10      N        0.09740    0.32850    0.81180    1.000
    O54      O        0.92971    0.99247    0.61650    1.000
    O55      O        0.89921    0.05308    0.46060    1.000
    O56      O        0.05840    0.29240    0.80740    1.000
    O57      O        0.97820    0.31600    0.44030    1.000
    O58      O        0.03410    0.36150    0.57980    1.000
    O59      O        0.28505    0.41070    0.81050    1.000
    O60      O        0.29110    0.37680    0.65100    1.000
    O61      O        0.14980    0.11750    0.51870    1.000
    O62      O        0.10420    0.21280    0.42410    1.000
    O63      O        0.13911    0.03174    0.74450    1.000
    O64      O        0.14107    0.13980    0.84180    1.000
    Mn10     Mn       0.82554    0.98920    0.38391    1.000
    O65      O        0.11900    0.35990    0.90080    1.000
    O66      O        0.60400    0.89650    0.85610    1.000
    C81      C        0.43265    0.54370    0.54960    1.000
    C82      C        0.47982    0.59930    0.57980    1.000
    C83      C        0.47525    0.67570    0.53880    1.000
    H21      H        0.44370    0.69210    0.49050    1.000
    C84      C        0.51805    0.72660    0.57070    1.000
    C85      C        0.56690    0.70520    0.64330    1.000
    C86      C        0.57059    0.62790    0.68270    1.000
    C87      C        0.52728    0.57610    0.65150    1.000
    H22      H        0.53020    0.52520    0.67910    1.000
    C88      C        0.61638    0.75530    0.66450    1.000
    C89      C        0.63270    0.80950    0.74640    1.000
    C90      C        0.68125    0.84920    0.76620    1.000
    H23      H        0.69140    0.88420    0.82250    1.000
    C91      C        0.71464    0.83650    0.70170    1.000
    C92      C        0.69859    0.78370    0.61770    1.000
    H24      H        0.72040    0.77570    0.57320    1.000
    C93      C        0.65048    0.74310    0.60050    1.000
    C94      C        0.63430    0.68730    0.50810    1.000
    C95      C        0.76787    0.87730    0.72270    1.000
    C96      C        0.62094    0.59960    0.76290    1.000
    Mn11     Mn       0.36391    0.42858    0.64481    1.000
    N11      N        0.50960    0.80700    0.52810    1.000
    N12      N        0.59740    0.82850    0.81180    1.000
    O67      O        0.42971    0.49247    0.61650    1.000
    O68      O        0.39921    0.55308    0.46060    1.000
    O69      O        0.55840    0.79240    0.80740    1.000
    O70      O        0.47820    0.81600    0.44030    1.000
    O71      O        0.53410    0.86150    0.57980    1.000
    O72      O        0.78505    0.91070    0.81050    1.000
    O73      O        0.79110    0.87680    0.65100    1.000
    O74      O        0.64980    0.61750    0.51870    1.000
    O75      O        0.60420    0.71280    0.42410    1.000
    O76      O        0.63911    0.53174    0.74450    1.000
    O77      O        0.64107    0.63980    0.84180    1.000
    Mn12     Mn       0.32554    0.48920    0.38391    1.000
    O78      O        0.61900    0.85990    0.90080    1.000
    O79      O        0.89600    0.39650    0.64390    1.000
    C97      C        0.06735    0.04370    0.95040    1.000
    C98      C        0.02018    0.09930    0.92020    1.000
    C99      C        0.02475    0.17570    0.96120    1.000
    H25      H        0.05630    0.19210    0.00950    1.000
    C100     C        0.98195    0.22660    0.92930    1.000
    C101     C        0.93310    0.20520    0.85670    1.000
    C102     C        0.92941    0.12790    0.81730    1.000
    C103     C        0.97272    0.07610    0.84850    1.000
    H26      H        0.96980    0.02520    0.82090    1.000
    C104     C        0.88362    0.25530    0.83550    1.000
    C105     C        0.86730    0.30950    0.75360    1.000
    C106     C        0.81875    0.34920    0.73380    1.000
    H27      H        0.80860    0.38420    0.67750    1.000
    C107     C        0.78536    0.33650    0.79830    1.000
    C108     C        0.80141    0.28370    0.88230    1.000
    H28      H        0.77960    0.27570    0.92680    1.000
    C109     C        0.84952    0.24310    0.89950    1.000
    C110     C        0.86570    0.18730    0.99190    1.000
    C111     C        0.73213    0.37730    0.77730    1.000
    C112     C        0.87906    0.09960    0.73710    1.000
    Mn13     Mn       0.13609    0.92858    0.85519    1.000
    N13      N        0.99040    0.30700    0.97190    1.000
    N14      N        0.90260    0.32850    0.68820    1.000
    O80      O        0.07029    0.99247    0.88350    1.000
    O81      O        0.10079    0.05308    0.03940    1.000
    O82      O        0.94160    0.29240    0.69260    1.000
    O83      O        0.02180    0.31600    0.05970    1.000
    O84      O        0.96590    0.36150    0.92020    1.000
    O85      O        0.71495    0.41070    0.68950    1.000
    O86      O        0.70890    0.37680    0.84900    1.000
    O87      O        0.85020    0.11750    0.98130    1.000
    O88      O        0.89580    0.21280    0.07590    1.000
    O89      O        0.86089    0.03174    0.75550    1.000
    O90      O        0.85893    0.13980    0.65820    1.000
    Mn14     Mn       0.17446    0.98920    0.11609    1.000
    O91      O        0.88100    0.35990    0.59920    1.000
    O92      O        0.39600    0.89650    0.64390    1.000
    C113     C        0.56735    0.54370    0.95040    1.000
    C114     C        0.52018    0.59930    0.92020    1.000
    C115     C        0.52475    0.67570    0.96120    1.000
    H29      H        0.55630    0.69210    0.00950    1.000
    C116     C        0.48195    0.72660    0.92930    1.000
    C117     C        0.43310    0.70520    0.85670    1.000
    C118     C        0.42941    0.62790    0.81730    1.000
    C119     C        0.47272    0.57610    0.84850    1.000
    H30      H        0.46980    0.52520    0.82090    1.000
    C120     C        0.38362    0.75530    0.83550    1.000
    C121     C        0.36730    0.80950    0.75360    1.000
    C122     C        0.31875    0.84920    0.73380    1.000
    H31      H        0.30860    0.88420    0.67750    1.000
    C123     C        0.28536    0.83650    0.79830    1.000
    C124     C        0.30141    0.78370    0.88230    1.000
    H32      H        0.27960    0.77570    0.92680    1.000
    C125     C        0.34952    0.74310    0.89950    1.000
    C126     C        0.36570    0.68730    0.99190    1.000
    C127     C        0.23213    0.87730    0.77730    1.000
    C128     C        0.37906    0.59960    0.73710    1.000
    Mn15     Mn       0.63609    0.42858    0.85519    1.000
    N15      N        0.49040    0.80700    0.97190    1.000
    N16      N        0.40260    0.82850    0.68820    1.000
    O93      O        0.57029    0.49247    0.88350    1.000
    O94      O        0.60079    0.55308    0.03940    1.000
    O95      O        0.44160    0.79240    0.69260    1.000
    O96      O        0.52180    0.81600    0.05970    1.000
    O97      O        0.46590    0.86150    0.92020    1.000
    O98      O        0.21495    0.91070    0.68950    1.000
    O99      O        0.20890    0.87680    0.84900    1.000
    O100     O        0.35020    0.61750    0.98130    1.000
    O101     O        0.39580    0.71280    0.07590    1.000
    O102     O        0.36089    0.53174    0.75550    1.000
    O103     O        0.35893    0.63980    0.65820    1.000
    Mn16     Mn       0.67446    0.48920    0.11609    1.000
    O104     O        0.38100    0.85990    0.59920    1.000
