data_functionalizedCrystal
_audit_creation_method	'EQeq! by Chris Wilmer'
_symmetry_space_group_name_H-M	'P1'
_symmetry_Int_Tables_number	1
_symmetry_cell_setting	triclinic
loop_
_symmetry_equiv_pos_as_xyz
  x,y,z
_cell_length_a	24.3984
_cell_length_b	24.3984
_cell_length_c	24.3984
_cell_angle_alpha	90
_cell_angle_beta	90
_cell_angle_gamma	90
loop_
_atom_site_label
_atom_site_type_symbol
_atom_site_fract_x
_atom_site_fract_y
_atom_site_fract_z
_atom_site_charge
Mof_Cu	Cu	0.78169	0.10923	0.06471	0.933
Mof_Cu	Cu	0.00803	0.15265	0.80254	0.93
Mof_O 	O 	0.80422	0.1049	0.98774	-0.441
Mof_O 	O 	0.7264	0.0627	0.9713	-0.264
Mof_O 	O 	0.93839	0.13081	0.83571	-0.487
Mof_O 	O 	0.73521	0.0266	0.71563	-0.415
Mof_O 	O 	0.9176	0.101	0.7529	-0.617
Mof_O 	O 	0.66735	0.04946	0.77287	-0.396
Mof_O 	O 	0.81379	0.04013	0.08234	-0.634
Mof_H 	H 	0.829	0.0217	0.0573	0.284
Mof_N 	N 	0.7791	0.0794	0.1789	-0.187
Mof_N 	N 	0.7705	0.1211	0.1431	-0.188
Mof_C 	C 	0.7849	0.0803	0.8956	-0.161
Mof_C 	C 	0.77	0.0823	0.9559	0.361
Mof_C 	C 	0.8502	0.092	0.8226	-0.24
Mof_C 	C 	0.8371	0.0953	0.8777	0.128
Mof_H 	H 	0.863	0.1076	0.9027	-0.008
Mof_C 	C 	0.7459	0.063	0.8577	0.105
Mof_H 	H 	0.7109	0.0535	0.8694	0.032
Mof_C 	C 	0.7591	0.0599	0.8025	-0.184
Mof_C 	C 	0.7174	0.0437	0.7606	0.384
Mof_C 	C 	0.8112	0.0737	0.7853	0.168
Mof_H 	H 	0.8202	0.0708	0.7483	-0.044
Mof_C 	C 	0.9056	0.1088	0.8021	0.504
Mof_C 	C 	0.761	0.1661	0.1727	0.093
Mof_H 	H 	0.753	0.2004	0.158	-0.004
Mof_C 	C 	0.7757	0.1003	0.2299	0.095
Mof_H 	H 	0.7803	0.0802	0.2619	0.009
Mof_C 	C 	0.7645	0.1549	0.228	-0.149
Mof_H 	H 	0.7603	0.1791	0.2572	0.086
Mof_Na	Na	0.9244	0.0772	0.6616	2.196
Mof_O 	O 	0.8435	0.0132	0.6524	-0.562
Mof_O 	O 	0.9449	0.9891	0.702	-0.34
Mof_O 	O 	0.0179	0.0627	0.6736	-0.38
Mof_Cu	Cu	0.71831	0.89077	0.56471	0.932
Mof_Cu	Cu	0.49197	0.84735	0.30254	0.929
Mof_O 	O 	0.69578	0.8951	0.48774	-0.441
Mof_O 	O 	0.7736	0.9373	0.4713	-0.264
Mof_O 	O 	0.56161	0.86919	0.33571	-0.487
Mof_O 	O 	0.76479	0.9734	0.21563	-0.415
Mof_O 	O 	0.5824	0.899	0.2529	-0.617
Mof_O 	O 	0.83265	0.95054	0.27287	-0.396
Mof_O 	O 	0.68621	0.95987	0.58234	-0.634
Mof_H 	H 	0.671	0.9783	0.5573	0.284
Mof_N 	N 	0.7209	0.9206	0.6789	-0.187
Mof_N 	N 	0.7295	0.8789	0.6431	-0.188
Mof_C 	C 	0.7151	0.9197	0.3956	-0.16
Mof_C 	C 	0.73	0.9177	0.4559	0.361
Mof_C 	C 	0.6498	0.908	0.3226	-0.239
Mof_C 	C 	0.6629	0.9047	0.3777	0.128
Mof_H 	H 	0.637	0.8924	0.4027	-0.008
Mof_C 	C 	0.7541	0.937	0.3577	0.105
Mof_H 	H 	0.7891	0.9465	0.3694	0.032
Mof_C 	C 	0.7409	0.9401	0.3025	-0.183
Mof_C 	C 	0.7826	0.9563	0.2606	0.384
Mof_C 	C 	0.6888	0.9263	0.2853	0.168
Mof_H 	H 	0.6798	0.9292	0.2483	-0.044
Mof_C 	C 	0.5944	0.8912	0.3021	0.504
Mof_C 	C 	0.739	0.8339	0.6727	0.093
Mof_H 	H 	0.747	0.7996	0.658	-0.004
Mof_C 	C 	0.7243	0.8997	0.7299	0.095
Mof_H 	H 	0.7197	0.9198	0.7619	0.009
Mof_C 	C 	0.7355	0.8451	0.728	-0.149
Mof_H 	H 	0.7397	0.8209	0.7572	0.086
Mof_Na	Na	0.5756	0.9228	0.1616	2.199
Mof_O 	O 	0.6565	0.9868	0.1524	-0.562
Mof_O 	O 	0.5551	0.0109	0.202	-0.341
Mof_O 	O 	0.4821	0.9373	0.1736	-0.381
Mof_Cu	Cu	0.21831	0.60923	0.43529	0.932
Mof_Cu	Cu	0.99197	0.65265	0.69746	0.93
Mof_O 	O 	0.19578	0.6049	0.51226	-0.441
Mof_O 	O 	0.2736	0.5627	0.5287	-0.264
Mof_O 	O 	0.06161	0.63081	0.66429	-0.487
Mof_O 	O 	0.26479	0.5266	0.78437	-0.415
Mof_O 	O 	0.0824	0.601	0.7471	-0.617
Mof_O 	O 	0.33265	0.54946	0.72713	-0.396
Mof_O 	O 	0.18621	0.54013	0.41766	-0.634
Mof_H 	H 	0.171	0.5217	0.4427	0.284
Mof_N 	N 	0.2209	0.5794	0.3211	-0.187
Mof_N 	N 	0.2295	0.6211	0.3569	-0.188
Mof_C 	C 	0.2151	0.5803	0.6044	-0.16
Mof_C 	C 	0.23	0.5823	0.5441	0.361
Mof_C 	C 	0.1498	0.592	0.6774	-0.24
Mof_C 	C 	0.1629	0.5953	0.6223	0.128
Mof_H 	H 	0.137	0.6076	0.5973	-0.008
Mof_C 	C 	0.2541	0.563	0.6423	0.105
Mof_H 	H 	0.2891	0.5535	0.6306	0.032
Mof_C 	C 	0.2409	0.5599	0.6975	-0.183
Mof_C 	C 	0.2826	0.5437	0.7394	0.384
Mof_C 	C 	0.1888	0.5737	0.7147	0.168
Mof_H 	H 	0.1798	0.5708	0.7517	-0.044
Mof_C 	C 	0.0944	0.6088	0.6979	0.504
Mof_C 	C 	0.239	0.6661	0.3273	0.093
Mof_H 	H 	0.247	0.7004	0.342	-0.004
Mof_C 	C 	0.2243	0.6003	0.2701	0.095
Mof_H 	H 	0.2197	0.5802	0.2381	0.009
Mof_C 	C 	0.2355	0.6549	0.272	-0.149
Mof_H 	H 	0.2397	0.6791	0.2428	0.086
Mof_Na	Na	0.0756	0.5772	0.8384	2.198
Mof_O 	O 	0.1565	0.5132	0.8476	-0.562
Mof_O 	O 	0.0551	0.4891	0.798	-0.342
Mof_O 	O 	0.9821	0.5627	0.8264	-0.38
Mof_Cu	Cu	0.28169	0.39077	0.93529	0.932
Mof_Cu	Cu	0.50803	0.34735	0.19746	0.929
Mof_O 	O 	0.30422	0.3951	0.01226	-0.441
Mof_O 	O 	0.2264	0.4373	0.0287	-0.264
Mof_O 	O 	0.43839	0.36919	0.16429	-0.487
Mof_O 	O 	0.23521	0.4734	0.28437	-0.415
Mof_O 	O 	0.4176	0.399	0.2471	-0.617
Mof_O 	O 	0.16735	0.45054	0.22713	-0.396
Mof_O 	O 	0.31379	0.45987	0.91766	-0.634
Mof_H 	H 	0.329	0.4783	0.9427	0.284
Mof_N 	N 	0.2791	0.4206	0.8211	-0.187
Mof_N 	N 	0.2705	0.3789	0.8569	-0.188
Mof_C 	C 	0.2849	0.4197	0.1044	-0.16
Mof_C 	C 	0.27	0.4177	0.0441	0.361
Mof_C 	C 	0.3502	0.408	0.1774	-0.239
Mof_C 	C 	0.3371	0.4047	0.1223	0.128
Mof_H 	H 	0.363	0.3924	0.0973	-0.008
Mof_C 	C 	0.2459	0.437	0.1423	0.105
Mof_H 	H 	0.2109	0.4465	0.1306	0.032
Mof_C 	C 	0.2591	0.4401	0.1975	-0.183
Mof_C 	C 	0.2174	0.4563	0.2394	0.384
Mof_C 	C 	0.3112	0.4263	0.2147	0.168
Mof_H 	H 	0.3202	0.4292	0.2517	-0.044
Mof_C 	C 	0.4056	0.3912	0.1979	0.504
Mof_C 	C 	0.261	0.3339	0.8273	0.093
Mof_H 	H 	0.253	0.2996	0.842	-0.004
Mof_C 	C 	0.2757	0.3997	0.7701	0.095
Mof_H 	H 	0.2803	0.4198	0.7381	0.009
Mof_C 	C 	0.2645	0.3451	0.772	-0.149
Mof_H 	H 	0.2603	0.3209	0.7428	0.086
Mof_Na	Na	0.4244	0.4228	0.3384	2.199
Mof_O 	O 	0.3435	0.4868	0.3476	-0.562
Mof_O 	O 	0.4449	0.5109	0.298	-0.341
Mof_O 	O 	0.5179	0.4373	0.3264	-0.38
Mof_Cu	Cu	0.06471	0.78169	0.10923	0.932
Mof_Cu	Cu	0.80254	0.00803	0.15265	0.929
Mof_O 	O 	0.98774	0.80422	0.1049	-0.442
Mof_O 	O 	0.9713	0.7264	0.0627	-0.265
Mof_O 	O 	0.83571	0.93839	0.13081	-0.487
Mof_O 	O 	0.71563	0.73521	0.0266	-0.415
Mof_O 	O 	0.7529	0.9176	0.101	-0.617
Mof_O 	O 	0.77287	0.66735	0.04946	-0.396
Mof_O 	O 	0.08234	0.81379	0.04013	-0.634
Mof_H 	H 	0.0573	0.829	0.0217	0.284
Mof_N 	N 	0.1789	0.7791	0.0794	-0.187
Mof_N 	N 	0.1431	0.7705	0.1211	-0.188
Mof_C 	C 	0.8956	0.7849	0.0803	-0.161
Mof_C 	C 	0.9559	0.77	0.0823	0.361
Mof_C 	C 	0.8226	0.8502	0.092	-0.24
Mof_C 	C 	0.8777	0.8371	0.0953	0.128
Mof_H 	H 	0.9027	0.863	0.1076	-0.008
Mof_C 	C 	0.8577	0.7459	0.063	0.105
Mof_H 	H 	0.8694	0.7109	0.0535	0.032
Mof_C 	C 	0.8025	0.7591	0.0599	-0.184
Mof_C 	C 	0.7606	0.7174	0.0437	0.384
Mof_C 	C 	0.7853	0.8112	0.0737	0.168
Mof_H 	H 	0.7483	0.8202	0.0708	-0.044
Mof_C 	C 	0.8021	0.9056	0.1088	0.504
Mof_C 	C 	0.1727	0.761	0.1661	0.093
Mof_H 	H 	0.158	0.753	0.2004	-0.004
Mof_C 	C 	0.2299	0.7757	0.1003	0.095
Mof_H 	H 	0.2619	0.7803	0.0802	0.009
Mof_C 	C 	0.228	0.7645	0.1549	-0.149
Mof_H 	H 	0.2572	0.7603	0.1791	0.086
Mof_Na	Na	0.6616	0.9244	0.0772	2.196
Mof_O 	O 	0.6524	0.8435	0.0132	-0.562
Mof_O 	O 	0.702	0.9449	0.9891	-0.34
Mof_O 	O 	0.6736	0.0179	0.0627	-0.38
Mof_Cu	Cu	0.56471	0.71831	0.89077	0.932
Mof_Cu	Cu	0.30254	0.49197	0.84735	0.929
Mof_O 	O 	0.48774	0.69578	0.8951	-0.441
Mof_O 	O 	0.4713	0.7736	0.9373	-0.264
Mof_O 	O 	0.33571	0.56161	0.86919	-0.487
Mof_O 	O 	0.21563	0.76479	0.9734	-0.415
Mof_O 	O 	0.2529	0.5824	0.899	-0.617
Mof_O 	O 	0.27287	0.83265	0.95054	-0.396
Mof_O 	O 	0.58234	0.68621	0.95987	-0.634
Mof_H 	H 	0.5573	0.671	0.9783	0.284
Mof_N 	N 	0.6789	0.7209	0.9206	-0.187
Mof_N 	N 	0.6431	0.7295	0.8789	-0.188
Mof_C 	C 	0.3956	0.7151	0.9197	-0.16
Mof_C 	C 	0.4559	0.73	0.9177	0.361
Mof_C 	C 	0.3226	0.6498	0.908	-0.239
Mof_C 	C 	0.3777	0.6629	0.9047	0.128
Mof_H 	H 	0.4027	0.637	0.8924	-0.008
Mof_C 	C 	0.3577	0.7541	0.937	0.105
Mof_H 	H 	0.3694	0.7891	0.9465	0.032
Mof_C 	C 	0.3025	0.7409	0.9401	-0.183
Mof_C 	C 	0.2606	0.7826	0.9563	0.384
Mof_C 	C 	0.2853	0.6888	0.9263	0.168
Mof_H 	H 	0.2483	0.6798	0.9292	-0.044
Mof_C 	C 	0.3021	0.5944	0.8912	0.504
Mof_C 	C 	0.6727	0.739	0.8339	0.093
Mof_H 	H 	0.658	0.747	0.7996	-0.004
Mof_C 	C 	0.7299	0.7243	0.8997	0.095
Mof_H 	H 	0.7619	0.7197	0.9198	0.009
Mof_C 	C 	0.728	0.7355	0.8451	-0.149
Mof_H 	H 	0.7572	0.7397	0.8209	0.086
Mof_Na	Na	0.1616	0.5756	0.9228	2.199
Mof_O 	O 	0.1524	0.6565	0.9868	-0.562
Mof_O 	O 	0.202	0.5551	0.0109	-0.341
Mof_O 	O 	0.1736	0.4821	0.9373	-0.381
Mof_Cu	Cu	0.43529	0.21831	0.60923	0.932
Mof_Cu	Cu	0.69746	0.99197	0.65265	0.93
Mof_O 	O 	0.51226	0.19578	0.6049	-0.441
Mof_O 	O 	0.5287	0.2736	0.5627	-0.264
Mof_O 	O 	0.66429	0.06161	0.63081	-0.487
Mof_O 	O 	0.78437	0.26479	0.5266	-0.415
Mof_O 	O 	0.7471	0.0824	0.601	-0.617
Mof_O 	O 	0.72713	0.33265	0.54946	-0.396
Mof_O 	O 	0.41766	0.18621	0.54013	-0.634
Mof_H 	H 	0.4427	0.171	0.5217	0.284
Mof_N 	N 	0.3211	0.2209	0.5794	-0.187
Mof_N 	N 	0.3569	0.2295	0.6211	-0.188
Mof_C 	C 	0.6044	0.2151	0.5803	-0.16
Mof_C 	C 	0.5441	0.23	0.5823	0.361
Mof_C 	C 	0.6774	0.1498	0.592	-0.24
Mof_C 	C 	0.6223	0.1629	0.5953	0.128
Mof_H 	H 	0.5973	0.137	0.6076	-0.008
Mof_C 	C 	0.6423	0.2541	0.563	0.105
Mof_H 	H 	0.6306	0.2891	0.5535	0.032
Mof_C 	C 	0.6975	0.2409	0.5599	-0.183
Mof_C 	C 	0.7394	0.2826	0.5437	0.384
Mof_C 	C 	0.7147	0.1888	0.5737	0.168
Mof_H 	H 	0.7517	0.1798	0.5708	-0.044
Mof_C 	C 	0.6979	0.0944	0.6088	0.504
Mof_C 	C 	0.3273	0.239	0.6661	0.093
Mof_H 	H 	0.342	0.247	0.7004	-0.004
Mof_C 	C 	0.2701	0.2243	0.6003	0.095
Mof_H 	H 	0.2381	0.2197	0.5802	0.009
Mof_C 	C 	0.272	0.2355	0.6549	-0.149
Mof_H 	H 	0.2428	0.2397	0.6791	0.086
Mof_Na	Na	0.8384	0.0756	0.5772	2.198
Mof_O 	O 	0.8476	0.1565	0.5132	-0.562
Mof_O 	O 	0.798	0.0551	0.4891	-0.342
Mof_O 	O 	0.8264	0.9821	0.5627	-0.38
Mof_Cu	Cu	0.93529	0.28169	0.39077	0.932
Mof_Cu	Cu	0.19746	0.50803	0.34735	0.929
Mof_O 	O 	0.01226	0.30422	0.3951	-0.441
Mof_O 	O 	0.0287	0.2264	0.4373	-0.264
Mof_O 	O 	0.16429	0.43839	0.36919	-0.487
Mof_O 	O 	0.28437	0.23521	0.4734	-0.415
Mof_O 	O 	0.2471	0.4176	0.399	-0.617
Mof_O 	O 	0.22713	0.16735	0.45054	-0.396
Mof_O 	O 	0.91766	0.31379	0.45987	-0.634
Mof_H 	H 	0.9427	0.329	0.4783	0.284
Mof_N 	N 	0.8211	0.2791	0.4206	-0.187
Mof_N 	N 	0.8569	0.2705	0.3789	-0.188
Mof_C 	C 	0.1044	0.2849	0.4197	-0.16
Mof_C 	C 	0.0441	0.27	0.4177	0.361
Mof_C 	C 	0.1774	0.3502	0.408	-0.239
Mof_C 	C 	0.1223	0.3371	0.4047	0.128
Mof_H 	H 	0.0973	0.363	0.3924	-0.008
Mof_C 	C 	0.1423	0.2459	0.437	0.105
Mof_H 	H 	0.1306	0.2109	0.4465	0.032
Mof_C 	C 	0.1975	0.2591	0.4401	-0.183
Mof_C 	C 	0.2394	0.2174	0.4563	0.384
Mof_C 	C 	0.2147	0.3112	0.4263	0.168
Mof_H 	H 	0.2517	0.3202	0.4292	-0.044
Mof_C 	C 	0.1979	0.4056	0.3912	0.504
Mof_C 	C 	0.8273	0.261	0.3339	0.093
Mof_H 	H 	0.842	0.253	0.2996	-0.004
Mof_C 	C 	0.7701	0.2757	0.3997	0.095
Mof_H 	H 	0.7381	0.2803	0.4198	0.009
Mof_C 	C 	0.772	0.2645	0.3451	-0.149
Mof_H 	H 	0.7428	0.2603	0.3209	0.086
Mof_Na	Na	0.3384	0.4244	0.4228	2.199
Mof_O 	O 	0.3476	0.3435	0.4868	-0.562
Mof_O 	O 	0.298	0.4449	0.5109	-0.341
Mof_O 	O 	0.3264	0.5179	0.4373	-0.38
Mof_Cu	Cu	0.10923	0.06471	0.78169	0.932
Mof_Cu	Cu	0.15265	0.80254	0.00803	0.929
Mof_O 	O 	0.1049	0.98774	0.80422	-0.442
Mof_O 	O 	0.0627	0.9713	0.7264	-0.265
Mof_O 	O 	0.13081	0.83571	0.93839	-0.487
Mof_O 	O 	0.0266	0.71563	0.73521	-0.415
Mof_O 	O 	0.101	0.7529	0.9176	-0.617
Mof_O 	O 	0.04946	0.77287	0.66735	-0.396
Mof_O 	O 	0.04013	0.08234	0.81379	-0.634
Mof_H 	H 	0.0217	0.0573	0.829	0.284
Mof_N 	N 	0.0794	0.1789	0.7791	-0.187
Mof_N 	N 	0.1211	0.1431	0.7705	-0.188
Mof_C 	C 	0.0803	0.8956	0.7849	-0.161
Mof_C 	C 	0.0823	0.9559	0.77	0.361
Mof_C 	C 	0.092	0.8226	0.8502	-0.24
Mof_C 	C 	0.0953	0.8777	0.8371	0.128
Mof_H 	H 	0.1076	0.9027	0.863	-0.008
Mof_C 	C 	0.063	0.8577	0.7459	0.105
Mof_H 	H 	0.0535	0.8694	0.7109	0.032
Mof_C 	C 	0.0599	0.8025	0.7591	-0.184
Mof_C 	C 	0.0437	0.7606	0.7174	0.384
Mof_C 	C 	0.0737	0.7853	0.8112	0.168
Mof_H 	H 	0.0708	0.7483	0.8202	-0.044
Mof_C 	C 	0.1088	0.8021	0.9056	0.504
Mof_C 	C 	0.1661	0.1727	0.761	0.093
Mof_H 	H 	0.2004	0.158	0.753	-0.004
Mof_C 	C 	0.1003	0.2299	0.7757	0.095
Mof_H 	H 	0.0802	0.2619	0.7803	0.009
Mof_C 	C 	0.1549	0.228	0.7645	-0.149
Mof_H 	H 	0.1791	0.2572	0.7603	0.086
Mof_Na	Na	0.0772	0.6616	0.9244	2.196
Mof_O 	O 	0.0132	0.6524	0.8435	-0.562
Mof_O 	O 	0.9891	0.702	0.9449	-0.34
Mof_O 	O 	0.0627	0.6736	0.0179	-0.38
Mof_Cu	Cu	0.89077	0.56471	0.71831	0.932
Mof_Cu	Cu	0.84735	0.30254	0.49197	0.929
Mof_O 	O 	0.8951	0.48774	0.69578	-0.441
Mof_O 	O 	0.9373	0.4713	0.7736	-0.264
Mof_O 	O 	0.86919	0.33571	0.56161	-0.487
Mof_O 	O 	0.9734	0.21563	0.76479	-0.415
Mof_O 	O 	0.899	0.2529	0.5824	-0.617
Mof_O 	O 	0.95054	0.27287	0.83265	-0.396
Mof_O 	O 	0.95987	0.58234	0.68621	-0.634
Mof_H 	H 	0.9783	0.5573	0.671	0.284
Mof_N 	N 	0.9206	0.6789	0.7209	-0.187
Mof_N 	N 	0.8789	0.6431	0.7295	-0.188
Mof_C 	C 	0.9197	0.3956	0.7151	-0.16
Mof_C 	C 	0.9177	0.4559	0.73	0.361
Mof_C 	C 	0.908	0.3226	0.6498	-0.239
Mof_C 	C 	0.9047	0.3777	0.6629	0.128
Mof_H 	H 	0.8924	0.4027	0.637	-0.008
Mof_C 	C 	0.937	0.3577	0.7541	0.105
Mof_H 	H 	0.9465	0.3694	0.7891	0.032
Mof_C 	C 	0.9401	0.3025	0.7409	-0.183
Mof_C 	C 	0.9563	0.2606	0.7826	0.384
Mof_C 	C 	0.9263	0.2853	0.6888	0.168
Mof_H 	H 	0.9292	0.2483	0.6798	-0.044
Mof_C 	C 	0.8912	0.3021	0.5944	0.504
Mof_C 	C 	0.8339	0.6727	0.739	0.093
Mof_H 	H 	0.7996	0.658	0.747	-0.004
Mof_C 	C 	0.8997	0.7299	0.7243	0.095
Mof_H 	H 	0.9198	0.7619	0.7197	0.009
Mof_C 	C 	0.8451	0.728	0.7355	-0.149
Mof_H 	H 	0.8209	0.7572	0.7397	0.086
Mof_Na	Na	0.9228	0.1616	0.5756	2.199
Mof_O 	O 	0.9868	0.1524	0.6565	-0.562
Mof_O 	O 	0.0109	0.202	0.5551	-0.341
Mof_O 	O 	0.9373	0.1736	0.4821	-0.381
Mof_Cu	Cu	0.60923	0.43529	0.21831	0.932
Mof_Cu	Cu	0.65265	0.69746	0.99197	0.93
Mof_O 	O 	0.6049	0.51226	0.19578	-0.441
Mof_O 	O 	0.5627	0.5287	0.2736	-0.264
Mof_O 	O 	0.63081	0.66429	0.06161	-0.487
Mof_O 	O 	0.5266	0.78437	0.26479	-0.415
Mof_O 	O 	0.601	0.7471	0.0824	-0.617
Mof_O 	O 	0.54946	0.72713	0.33265	-0.396
Mof_O 	O 	0.54013	0.41766	0.18621	-0.634
Mof_H 	H 	0.5217	0.4427	0.171	0.284
Mof_N 	N 	0.5794	0.3211	0.2209	-0.187
Mof_N 	N 	0.6211	0.3569	0.2295	-0.188
Mof_C 	C 	0.5803	0.6044	0.2151	-0.16
Mof_C 	C 	0.5823	0.5441	0.23	0.361
Mof_C 	C 	0.592	0.6774	0.1498	-0.24
Mof_C 	C 	0.5953	0.6223	0.1629	0.128
Mof_H 	H 	0.6076	0.5973	0.137	-0.008
Mof_C 	C 	0.563	0.6423	0.2541	0.105
Mof_H 	H 	0.5535	0.6306	0.2891	0.032
Mof_C 	C 	0.5599	0.6975	0.2409	-0.183
Mof_C 	C 	0.5437	0.7394	0.2826	0.384
Mof_C 	C 	0.5737	0.7147	0.1888	0.168
Mof_H 	H 	0.5708	0.7517	0.1798	-0.044
Mof_C 	C 	0.6088	0.6979	0.0944	0.504
Mof_C 	C 	0.6661	0.3273	0.239	0.093
Mof_H 	H 	0.7004	0.342	0.247	-0.004
Mof_C 	C 	0.6003	0.2701	0.2243	0.095
Mof_H 	H 	0.5802	0.2381	0.2197	0.009
Mof_C 	C 	0.6549	0.272	0.2355	-0.149
Mof_H 	H 	0.6791	0.2428	0.2397	0.086
Mof_Na	Na	0.5772	0.8384	0.0756	2.198
Mof_O 	O 	0.5132	0.8476	0.1565	-0.562
Mof_O 	O 	0.4891	0.798	0.0551	-0.342
Mof_O 	O 	0.5627	0.8264	0.9821	-0.38
Mof_Cu	Cu	0.39077	0.93529	0.28169	0.932
Mof_Cu	Cu	0.34735	0.19746	0.50803	0.929
Mof_O 	O 	0.3951	0.01226	0.30422	-0.441
Mof_O 	O 	0.4373	0.0287	0.2264	-0.264
Mof_O 	O 	0.36919	0.16429	0.43839	-0.487
Mof_O 	O 	0.4734	0.28437	0.23521	-0.415
Mof_O 	O 	0.399	0.2471	0.4176	-0.617
Mof_O 	O 	0.45054	0.22713	0.16735	-0.396
Mof_O 	O 	0.45987	0.91766	0.31379	-0.634
Mof_H 	H 	0.4783	0.9427	0.329	0.284
Mof_N 	N 	0.4206	0.8211	0.2791	-0.187
Mof_N 	N 	0.3789	0.8569	0.2705	-0.188
Mof_C 	C 	0.4197	0.1044	0.2849	-0.16
Mof_C 	C 	0.4177	0.0441	0.27	0.361
Mof_C 	C 	0.408	0.1774	0.3502	-0.239
Mof_C 	C 	0.4047	0.1223	0.3371	0.128
Mof_H 	H 	0.3924	0.0973	0.363	-0.008
Mof_C 	C 	0.437	0.1423	0.2459	0.105
Mof_H 	H 	0.4465	0.1306	0.2109	0.032
Mof_C 	C 	0.4401	0.1975	0.2591	-0.183
Mof_C 	C 	0.4563	0.2394	0.2174	0.384
Mof_C 	C 	0.4263	0.2147	0.3112	0.168
Mof_H 	H 	0.4292	0.2517	0.3202	-0.044
Mof_C 	C 	0.3912	0.1979	0.4056	0.504
Mof_C 	C 	0.3339	0.8273	0.261	0.093
Mof_H 	H 	0.2996	0.842	0.253	-0.004
Mof_C 	C 	0.3997	0.7701	0.2757	0.095
Mof_H 	H 	0.4198	0.7381	0.2803	0.009
Mof_C 	C 	0.3451	0.772	0.2645	-0.149
Mof_H 	H 	0.3209	0.7428	0.2603	0.086
Mof_Na	Na	0.4228	0.3384	0.4244	2.199
Mof_O 	O 	0.4868	0.3476	0.3435	-0.562
Mof_O 	O 	0.5109	0.298	0.4449	-0.341
Mof_O 	O 	0.4373	0.3264	0.5179	-0.38
Mof_Cu	Cu	0.21831	0.89077	0.93529	0.932
Mof_Cu	Cu	0.99197	0.84735	0.19746	0.929
Mof_O 	O 	0.19578	0.8951	0.01226	-0.442
Mof_O 	O 	0.2736	0.9373	0.0287	-0.265
Mof_O 	O 	0.06161	0.86919	0.16429	-0.487
Mof_O 	O 	0.26479	0.9734	0.28437	-0.415
Mof_O 	O 	0.0824	0.899	0.2471	-0.617
Mof_O 	O 	0.33265	0.95054	0.22713	-0.396
Mof_O 	O 	0.18621	0.95987	0.91766	-0.634
Mof_H 	H 	0.171	0.9783	0.9427	0.284
Mof_N 	N 	0.2209	0.9206	0.8211	-0.187
Mof_N 	N 	0.2295	0.8789	0.8569	-0.188
Mof_C 	C 	0.2151	0.9197	0.1044	-0.161
Mof_C 	C 	0.23	0.9177	0.0441	0.361
Mof_C 	C 	0.1498	0.908	0.1774	-0.24
Mof_C 	C 	0.1629	0.9047	0.1223	0.128
Mof_H 	H 	0.137	0.8924	0.0973	-0.008
Mof_C 	C 	0.2541	0.937	0.1423	0.105
Mof_H 	H 	0.2891	0.9465	0.1306	0.032
Mof_C 	C 	0.2409	0.9401	0.1975	-0.184
Mof_C 	C 	0.2826	0.9563	0.2394	0.384
Mof_C 	C 	0.1888	0.9263	0.2147	0.168
Mof_H 	H 	0.1798	0.9292	0.2517	-0.044
Mof_C 	C 	0.0944	0.8912	0.1979	0.504
Mof_C 	C 	0.239	0.8339	0.8273	0.093
Mof_H 	H 	0.247	0.7996	0.842	-0.004
Mof_C 	C 	0.2243	0.8997	0.7701	0.095
Mof_H 	H 	0.2197	0.9198	0.7381	0.009
Mof_C 	C 	0.2355	0.8451	0.772	-0.149
Mof_H 	H 	0.2397	0.8209	0.7428	0.086
Mof_Na	Na	0.0756	0.9228	0.3384	2.196
Mof_O 	O 	0.1565	0.9868	0.3476	-0.562
Mof_O 	O 	0.0551	0.0109	0.298	-0.34
Mof_O 	O 	0.9821	0.9373	0.3264	-0.38
Mof_Cu	Cu	0.28169	0.10923	0.43529	0.932
Mof_Cu	Cu	0.50803	0.15265	0.69746	0.929
Mof_O 	O 	0.30422	0.1049	0.51226	-0.441
Mof_O 	O 	0.2264	0.0627	0.5287	-0.264
Mof_O 	O 	0.43839	0.13081	0.66429	-0.487
Mof_O 	O 	0.23521	0.0266	0.78437	-0.415
Mof_O 	O 	0.4176	0.101	0.7471	-0.617
Mof_O 	O 	0.16735	0.04946	0.72713	-0.396
Mof_O 	O 	0.31379	0.04013	0.41766	-0.634
Mof_H 	H 	0.329	0.0217	0.4427	0.284
Mof_N 	N 	0.2791	0.0794	0.3211	-0.187
Mof_N 	N 	0.2705	0.1211	0.3569	-0.188
Mof_C 	C 	0.2849	0.0803	0.6044	-0.16
Mof_C 	C 	0.27	0.0823	0.5441	0.361
Mof_C 	C 	0.3502	0.092	0.6774	-0.239
Mof_C 	C 	0.3371	0.0953	0.6223	0.128
Mof_H 	H 	0.363	0.1076	0.5973	-0.008
Mof_C 	C 	0.2459	0.063	0.6423	0.105
Mof_H 	H 	0.2109	0.0535	0.6306	0.032
Mof_C 	C 	0.2591	0.0599	0.6975	-0.183
Mof_C 	C 	0.2174	0.0437	0.7394	0.384
Mof_C 	C 	0.3112	0.0737	0.7147	0.168
Mof_H 	H 	0.3202	0.0708	0.7517	-0.044
Mof_C 	C 	0.4056	0.1088	0.6979	0.504
Mof_C 	C 	0.261	0.1661	0.3273	0.093
Mof_H 	H 	0.253	0.2004	0.342	-0.004
Mof_C 	C 	0.2757	0.1003	0.2701	0.095
Mof_H 	H 	0.2803	0.0802	0.2381	0.009
Mof_C 	C 	0.2645	0.1549	0.272	-0.149
Mof_H 	H 	0.2603	0.1791	0.2428	0.086
Mof_Na	Na	0.4244	0.0772	0.8384	2.199
Mof_O 	O 	0.3435	0.0132	0.8476	-0.562
Mof_O 	O 	0.4449	0.9891	0.798	-0.341
Mof_O 	O 	0.5179	0.0627	0.8264	-0.381
Mof_Cu	Cu	0.78169	0.39077	0.56471	0.932
Mof_Cu	Cu	0.00803	0.34735	0.30254	0.93
Mof_O 	O 	0.80422	0.3951	0.48774	-0.441
Mof_O 	O 	0.7264	0.4373	0.4713	-0.264
Mof_O 	O 	0.93839	0.36919	0.33571	-0.487
Mof_O 	O 	0.73521	0.4734	0.21563	-0.415
Mof_O 	O 	0.9176	0.399	0.2529	-0.617
Mof_O 	O 	0.66735	0.45054	0.27287	-0.396
Mof_O 	O 	0.81379	0.45987	0.58234	-0.634
Mof_H 	H 	0.829	0.4783	0.5573	0.284
Mof_N 	N 	0.7791	0.4206	0.6789	-0.187
Mof_N 	N 	0.7705	0.3789	0.6431	-0.188
Mof_C 	C 	0.7849	0.4197	0.3956	-0.16
Mof_C 	C 	0.77	0.4177	0.4559	0.361
Mof_C 	C 	0.8502	0.408	0.3226	-0.24
Mof_C 	C 	0.8371	0.4047	0.3777	0.128
Mof_H 	H 	0.863	0.3924	0.4027	-0.008
Mof_C 	C 	0.7459	0.437	0.3577	0.105
Mof_H 	H 	0.7109	0.4465	0.3694	0.032
Mof_C 	C 	0.7591	0.4401	0.3025	-0.183
Mof_C 	C 	0.7174	0.4563	0.2606	0.384
Mof_C 	C 	0.8112	0.4263	0.2853	0.168
Mof_H 	H 	0.8202	0.4292	0.2483	-0.044
Mof_C 	C 	0.9056	0.3912	0.3021	0.504
Mof_C 	C 	0.761	0.3339	0.6727	0.093
Mof_H 	H 	0.753	0.2996	0.658	-0.004
Mof_C 	C 	0.7757	0.3997	0.7299	0.095
Mof_H 	H 	0.7803	0.4198	0.7619	0.009
Mof_C 	C 	0.7645	0.3451	0.728	-0.149
Mof_H 	H 	0.7603	0.3209	0.7572	0.086
Mof_Na	Na	0.9244	0.4228	0.1616	2.198
Mof_O 	O 	0.8435	0.4868	0.1524	-0.562
Mof_O 	O 	0.9449	0.5109	0.202	-0.342
Mof_O 	O 	0.0179	0.4373	0.1736	-0.38
Mof_Cu	Cu	0.71831	0.60923	0.06471	0.932
Mof_Cu	Cu	0.49197	0.65265	0.80254	0.929
Mof_O 	O 	0.69578	0.6049	0.98774	-0.441
Mof_O 	O 	0.7736	0.5627	0.9713	-0.264
Mof_O 	O 	0.56161	0.63081	0.83571	-0.487
Mof_O 	O 	0.76479	0.5266	0.71563	-0.415
Mof_O 	O 	0.5824	0.601	0.7529	-0.617
Mof_O 	O 	0.83265	0.54946	0.77287	-0.396
Mof_O 	O 	0.68621	0.54013	0.08234	-0.634
Mof_H 	H 	0.671	0.5217	0.0573	0.284
Mof_N 	N 	0.7209	0.5794	0.1789	-0.187
Mof_N 	N 	0.7295	0.6211	0.1431	-0.188
Mof_C 	C 	0.7151	0.5803	0.8956	-0.16
Mof_C 	C 	0.73	0.5823	0.9559	0.361
Mof_C 	C 	0.6498	0.592	0.8226	-0.239
Mof_C 	C 	0.6629	0.5953	0.8777	0.128
Mof_H 	H 	0.637	0.6076	0.9027	-0.008
Mof_C 	C 	0.7541	0.563	0.8577	0.105
Mof_H 	H 	0.7891	0.5535	0.8694	0.032
Mof_C 	C 	0.7409	0.5599	0.8025	-0.183
Mof_C 	C 	0.7826	0.5437	0.7606	0.384
Mof_C 	C 	0.6888	0.5737	0.7853	0.168
Mof_H 	H 	0.6798	0.5708	0.7483	-0.044
Mof_C 	C 	0.5944	0.6088	0.8021	0.504
Mof_C 	C 	0.739	0.6661	0.1727	0.093
Mof_H 	H 	0.747	0.7004	0.158	-0.004
Mof_C 	C 	0.7243	0.6003	0.2299	0.095
Mof_H 	H 	0.7197	0.5802	0.2619	0.009
Mof_C 	C 	0.7355	0.6549	0.228	-0.149
Mof_H 	H 	0.7397	0.6791	0.2572	0.086
Mof_Na	Na	0.5756	0.5772	0.6616	2.199
Mof_O 	O 	0.6565	0.5132	0.6524	-0.562
Mof_O 	O 	0.5551	0.4891	0.702	-0.341
Mof_O 	O 	0.4821	0.5627	0.6736	-0.38
Mof_Cu	Cu	0.93529	0.21831	0.89077	0.932
Mof_Cu	Cu	0.19746	0.99197	0.84735	0.929
Mof_O 	O 	0.01226	0.19578	0.8951	-0.442
Mof_O 	O 	0.0287	0.2736	0.9373	-0.265
Mof_O 	O 	0.16429	0.06161	0.86919	-0.487
Mof_O 	O 	0.28437	0.26479	0.9734	-0.415
Mof_O 	O 	0.2471	0.0824	0.899	-0.617
Mof_O 	O 	0.22713	0.33265	0.95054	-0.396
Mof_O 	O 	0.91766	0.18621	0.95987	-0.634
Mof_H 	H 	0.9427	0.171	0.9783	0.284
Mof_N 	N 	0.8211	0.2209	0.9206	-0.187
Mof_N 	N 	0.8569	0.2295	0.8789	-0.188
Mof_C 	C 	0.1044	0.2151	0.9197	-0.161
Mof_C 	C 	0.0441	0.23	0.9177	0.361
Mof_C 	C 	0.1774	0.1498	0.908	-0.24
Mof_C 	C 	0.1223	0.1629	0.9047	0.128
Mof_H 	H 	0.0973	0.137	0.8924	-0.008
Mof_C 	C 	0.1423	0.2541	0.937	0.105
Mof_H 	H 	0.1306	0.2891	0.9465	0.032
Mof_C 	C 	0.1975	0.2409	0.9401	-0.184
Mof_C 	C 	0.2394	0.2826	0.9563	0.384
Mof_C 	C 	0.2147	0.1888	0.9263	0.168
Mof_H 	H 	0.2517	0.1798	0.9292	-0.044
Mof_C 	C 	0.1979	0.0944	0.8912	0.504
Mof_C 	C 	0.8273	0.239	0.8339	0.093
Mof_H 	H 	0.842	0.247	0.7996	-0.004
Mof_C 	C 	0.7701	0.2243	0.8997	0.095
Mof_H 	H 	0.7381	0.2197	0.9198	0.009
Mof_C 	C 	0.772	0.2355	0.8451	-0.149
Mof_H 	H 	0.7428	0.2397	0.8209	0.086
Mof_Na	Na	0.3384	0.0756	0.9228	2.196
Mof_O 	O 	0.3476	0.1565	0.9868	-0.562
Mof_O 	O 	0.298	0.0551	0.0109	-0.34
Mof_O 	O 	0.3264	0.9821	0.9373	-0.38
Mof_Cu	Cu	0.43529	0.28169	0.10923	0.932
Mof_Cu	Cu	0.69746	0.50803	0.15265	0.929
Mof_O 	O 	0.51226	0.30422	0.1049	-0.441
Mof_O 	O 	0.5287	0.2264	0.0627	-0.264
Mof_O 	O 	0.66429	0.43839	0.13081	-0.487
Mof_O 	O 	0.78437	0.23521	0.0266	-0.415
Mof_O 	O 	0.7471	0.4176	0.101	-0.617
Mof_O 	O 	0.72713	0.16735	0.04946	-0.396
Mof_O 	O 	0.41766	0.31379	0.04013	-0.634
Mof_H 	H 	0.4427	0.329	0.0217	0.284
Mof_N 	N 	0.3211	0.2791	0.0794	-0.187
Mof_N 	N 	0.3569	0.2705	0.1211	-0.188
Mof_C 	C 	0.6044	0.2849	0.0803	-0.16
Mof_C 	C 	0.5441	0.27	0.0823	0.361
Mof_C 	C 	0.6774	0.3502	0.092	-0.239
Mof_C 	C 	0.6223	0.3371	0.0953	0.128
Mof_H 	H 	0.5973	0.363	0.1076	-0.008
Mof_C 	C 	0.6423	0.2459	0.063	0.105
Mof_H 	H 	0.6306	0.2109	0.0535	0.032
Mof_C 	C 	0.6975	0.2591	0.0599	-0.183
Mof_C 	C 	0.7394	0.2174	0.0437	0.384
Mof_C 	C 	0.7147	0.3112	0.0737	0.168
Mof_H 	H 	0.7517	0.3202	0.0708	-0.044
Mof_C 	C 	0.6979	0.4056	0.1088	0.504
Mof_C 	C 	0.3273	0.261	0.1661	0.093
Mof_H 	H 	0.342	0.253	0.2004	-0.004
Mof_C 	C 	0.2701	0.2757	0.1003	0.095
Mof_H 	H 	0.2381	0.2803	0.0802	0.009
Mof_C 	C 	0.272	0.2645	0.1549	-0.149
Mof_H 	H 	0.2428	0.2603	0.1791	0.086
Mof_Na	Na	0.8384	0.4244	0.0772	2.199
Mof_O 	O 	0.8476	0.3435	0.0132	-0.562
Mof_O 	O 	0.798	0.4449	0.9891	-0.341
Mof_O 	O 	0.8264	0.5179	0.0627	-0.381
Mof_Cu	Cu	0.56471	0.78169	0.39077	0.932
Mof_Cu	Cu	0.30254	0.00803	0.34735	0.93
Mof_O 	O 	0.48774	0.80422	0.3951	-0.441
Mof_O 	O 	0.4713	0.7264	0.4373	-0.264
Mof_O 	O 	0.33571	0.93839	0.36919	-0.487
Mof_O 	O 	0.21563	0.73521	0.4734	-0.415
Mof_O 	O 	0.2529	0.9176	0.399	-0.617
Mof_O 	O 	0.27287	0.66735	0.45054	-0.396
Mof_O 	O 	0.58234	0.81379	0.45987	-0.634
Mof_H 	H 	0.5573	0.829	0.4783	0.284
Mof_N 	N 	0.6789	0.7791	0.4206	-0.187
Mof_N 	N 	0.6431	0.7705	0.3789	-0.188
Mof_C 	C 	0.3956	0.7849	0.4197	-0.16
Mof_C 	C 	0.4559	0.77	0.4177	0.361
Mof_C 	C 	0.3226	0.8502	0.408	-0.24
Mof_C 	C 	0.3777	0.8371	0.4047	0.128
Mof_H 	H 	0.4027	0.863	0.3924	-0.008
Mof_C 	C 	0.3577	0.7459	0.437	0.105
Mof_H 	H 	0.3694	0.7109	0.4465	0.032
Mof_C 	C 	0.3025	0.7591	0.4401	-0.183
Mof_C 	C 	0.2606	0.7174	0.4563	0.384
Mof_C 	C 	0.2853	0.8112	0.4263	0.168
Mof_H 	H 	0.2483	0.8202	0.4292	-0.044
Mof_C 	C 	0.3021	0.9056	0.3912	0.504
Mof_C 	C 	0.6727	0.761	0.3339	0.093
Mof_H 	H 	0.658	0.753	0.2996	-0.004
Mof_C 	C 	0.7299	0.7757	0.3997	0.095
Mof_H 	H 	0.7619	0.7803	0.4198	0.009
Mof_C 	C 	0.728	0.7645	0.3451	-0.149
Mof_H 	H 	0.7572	0.7603	0.3209	0.086
Mof_Na	Na	0.1616	0.9244	0.4228	2.198
Mof_O 	O 	0.1524	0.8435	0.4868	-0.562
Mof_O 	O 	0.202	0.9449	0.5109	-0.342
Mof_O 	O 	0.1736	0.0179	0.4373	-0.38
Mof_Cu	Cu	0.06471	0.71831	0.60923	0.932
Mof_Cu	Cu	0.80254	0.49197	0.65265	0.929
Mof_O 	O 	0.98774	0.69578	0.6049	-0.441
Mof_O 	O 	0.9713	0.7736	0.5627	-0.264
Mof_O 	O 	0.83571	0.56161	0.63081	-0.487
Mof_O 	O 	0.71563	0.76479	0.5266	-0.415
Mof_O 	O 	0.7529	0.5824	0.601	-0.617
Mof_O 	O 	0.77287	0.83265	0.54946	-0.396
Mof_O 	O 	0.08234	0.68621	0.54013	-0.634
Mof_H 	H 	0.0573	0.671	0.5217	0.284
Mof_N 	N 	0.1789	0.7209	0.5794	-0.187
Mof_N 	N 	0.1431	0.7295	0.6211	-0.188
Mof_C 	C 	0.8956	0.7151	0.5803	-0.16
Mof_C 	C 	0.9559	0.73	0.5823	0.361
Mof_C 	C 	0.8226	0.6498	0.592	-0.239
Mof_C 	C 	0.8777	0.6629	0.5953	0.128
Mof_H 	H 	0.9027	0.637	0.6076	-0.008
Mof_C 	C 	0.8577	0.7541	0.563	0.105
Mof_H 	H 	0.8694	0.7891	0.5535	0.032
Mof_C 	C 	0.8025	0.7409	0.5599	-0.183
Mof_C 	C 	0.7606	0.7826	0.5437	0.384
Mof_C 	C 	0.7853	0.6888	0.5737	0.168
Mof_H 	H 	0.7483	0.6798	0.5708	-0.044
Mof_C 	C 	0.8021	0.5944	0.6088	0.504
Mof_C 	C 	0.1727	0.739	0.6661	0.093
Mof_H 	H 	0.158	0.747	0.7004	-0.004
Mof_C 	C 	0.2299	0.7243	0.6003	0.095
Mof_H 	H 	0.2619	0.7197	0.5802	0.009
Mof_C 	C 	0.228	0.7355	0.6549	-0.149
Mof_H 	H 	0.2572	0.7397	0.6791	0.086
Mof_Na	Na	0.6616	0.5756	0.5772	2.199
Mof_O 	O 	0.6524	0.6565	0.5132	-0.562
Mof_O 	O 	0.702	0.5551	0.4891	-0.341
Mof_O 	O 	0.6736	0.4821	0.5627	-0.38
Mof_Cu	Cu	0.89077	0.93529	0.21831	0.932
Mof_Cu	Cu	0.84735	0.19746	0.99197	0.929
Mof_O 	O 	0.8951	0.01226	0.19578	-0.442
Mof_O 	O 	0.9373	0.0287	0.2736	-0.265
Mof_O 	O 	0.86919	0.16429	0.06161	-0.487
Mof_O 	O 	0.9734	0.28437	0.26479	-0.415
Mof_O 	O 	0.899	0.2471	0.0824	-0.617
Mof_O 	O 	0.95054	0.22713	0.33265	-0.396
Mof_O 	O 	0.95987	0.91766	0.18621	-0.634
Mof_H 	H 	0.9783	0.9427	0.171	0.284
Mof_N 	N 	0.9206	0.8211	0.2209	-0.187
Mof_N 	N 	0.8789	0.8569	0.2295	-0.188
Mof_C 	C 	0.9197	0.1044	0.2151	-0.161
Mof_C 	C 	0.9177	0.0441	0.23	0.361
Mof_C 	C 	0.908	0.1774	0.1498	-0.24
Mof_C 	C 	0.9047	0.1223	0.1629	0.128
Mof_H 	H 	0.8924	0.0973	0.137	-0.008
Mof_C 	C 	0.937	0.1423	0.2541	0.105
Mof_H 	H 	0.9465	0.1306	0.2891	0.032
Mof_C 	C 	0.9401	0.1975	0.2409	-0.184
Mof_C 	C 	0.9563	0.2394	0.2826	0.384
Mof_C 	C 	0.9263	0.2147	0.1888	0.168
Mof_H 	H 	0.9292	0.2517	0.1798	-0.044
Mof_C 	C 	0.8912	0.1979	0.0944	0.504
Mof_C 	C 	0.8339	0.8273	0.239	0.093
Mof_H 	H 	0.7996	0.842	0.247	-0.004
Mof_C 	C 	0.8997	0.7701	0.2243	0.095
Mof_H 	H 	0.9198	0.7381	0.2197	0.009
Mof_C 	C 	0.8451	0.772	0.2355	-0.149
Mof_H 	H 	0.8209	0.7428	0.2397	0.086
Mof_Na	Na	0.9228	0.3384	0.0756	2.196
Mof_O 	O 	0.9868	0.3476	0.1565	-0.562
Mof_O 	O 	0.0109	0.298	0.0551	-0.34
Mof_O 	O 	0.9373	0.3264	0.9821	-0.38
Mof_Cu	Cu	0.10923	0.43529	0.28169	0.932
Mof_Cu	Cu	0.15265	0.69746	0.50803	0.929
Mof_O 	O 	0.1049	0.51226	0.30422	-0.441
Mof_O 	O 	0.0627	0.5287	0.2264	-0.264
Mof_O 	O 	0.13081	0.66429	0.43839	-0.487
Mof_O 	O 	0.0266	0.78437	0.23521	-0.415
Mof_O 	O 	0.101	0.7471	0.4176	-0.617
Mof_O 	O 	0.04946	0.72713	0.16735	-0.396
Mof_O 	O 	0.04013	0.41766	0.31379	-0.634
Mof_H 	H 	0.0217	0.4427	0.329	0.284
Mof_N 	N 	0.0794	0.3211	0.2791	-0.187
Mof_N 	N 	0.1211	0.3569	0.2705	-0.188
Mof_C 	C 	0.0803	0.6044	0.2849	-0.16
Mof_C 	C 	0.0823	0.5441	0.27	0.361
Mof_C 	C 	0.092	0.6774	0.3502	-0.239
Mof_C 	C 	0.0953	0.6223	0.3371	0.128
Mof_H 	H 	0.1076	0.5973	0.363	-0.008
Mof_C 	C 	0.063	0.6423	0.2459	0.105
Mof_H 	H 	0.0535	0.6306	0.2109	0.032
Mof_C 	C 	0.0599	0.6975	0.2591	-0.183
Mof_C 	C 	0.0437	0.7394	0.2174	0.384
Mof_C 	C 	0.0737	0.7147	0.3112	0.168
Mof_H 	H 	0.0708	0.7517	0.3202	-0.044
Mof_C 	C 	0.1088	0.6979	0.4056	0.504
Mof_C 	C 	0.1661	0.3273	0.261	0.093
Mof_H 	H 	0.2004	0.342	0.253	-0.004
Mof_C 	C 	0.1003	0.2701	0.2757	0.095
Mof_H 	H 	0.0802	0.2381	0.2803	0.009
Mof_C 	C 	0.1549	0.272	0.2645	-0.149
Mof_H 	H 	0.1791	0.2428	0.2603	0.086
Mof_Na	Na	0.0772	0.8384	0.4244	2.199
Mof_O 	O 	0.0132	0.8476	0.3435	-0.562
Mof_O 	O 	0.9891	0.798	0.4449	-0.341
Mof_O 	O 	0.0627	0.8264	0.5179	-0.381
Mof_Cu	Cu	0.39077	0.56471	0.78169	0.932
Mof_Cu	Cu	0.34735	0.30254	0.00803	0.93
Mof_O 	O 	0.3951	0.48774	0.80422	-0.441
Mof_O 	O 	0.4373	0.4713	0.7264	-0.264
Mof_O 	O 	0.36919	0.33571	0.93839	-0.487
Mof_O 	O 	0.4734	0.21563	0.73521	-0.415
Mof_O 	O 	0.399	0.2529	0.9176	-0.617
Mof_O 	O 	0.45054	0.27287	0.66735	-0.396
Mof_O 	O 	0.45987	0.58234	0.81379	-0.634
Mof_H 	H 	0.4783	0.5573	0.829	0.284
Mof_N 	N 	0.4206	0.6789	0.7791	-0.187
Mof_N 	N 	0.3789	0.6431	0.7705	-0.188
Mof_C 	C 	0.4197	0.3956	0.7849	-0.16
Mof_C 	C 	0.4177	0.4559	0.77	0.361
Mof_C 	C 	0.408	0.3226	0.8502	-0.24
Mof_C 	C 	0.4047	0.3777	0.8371	0.128
Mof_H 	H 	0.3924	0.4027	0.863	-0.008
Mof_C 	C 	0.437	0.3577	0.7459	0.105
Mof_H 	H 	0.4465	0.3694	0.7109	0.032
Mof_C 	C 	0.4401	0.3025	0.7591	-0.183
Mof_C 	C 	0.4563	0.2606	0.7174	0.384
Mof_C 	C 	0.4263	0.2853	0.8112	0.168
Mof_H 	H 	0.4292	0.2483	0.8202	-0.044
Mof_C 	C 	0.3912	0.3021	0.9056	0.504
Mof_C 	C 	0.3339	0.6727	0.761	0.093
Mof_H 	H 	0.2996	0.658	0.753	-0.004
Mof_C 	C 	0.3997	0.7299	0.7757	0.095
Mof_H 	H 	0.4198	0.7619	0.7803	0.009
Mof_C 	C 	0.3451	0.728	0.7645	-0.149
Mof_H 	H 	0.3209	0.7572	0.7603	0.086
Mof_Na	Na	0.4228	0.1616	0.9244	2.198
Mof_O 	O 	0.4868	0.1524	0.8435	-0.562
Mof_O 	O 	0.5109	0.202	0.9449	-0.342
Mof_O 	O 	0.4373	0.1736	0.0179	-0.38
Mof_Cu	Cu	0.60923	0.06471	0.71831	0.932
Mof_Cu	Cu	0.65265	0.80254	0.49197	0.929
Mof_O 	O 	0.6049	0.98774	0.69578	-0.441
Mof_O 	O 	0.5627	0.9713	0.7736	-0.264
Mof_O 	O 	0.63081	0.83571	0.56161	-0.487
Mof_O 	O 	0.5266	0.71563	0.76479	-0.415
Mof_O 	O 	0.601	0.7529	0.5824	-0.617
Mof_O 	O 	0.54946	0.77287	0.83265	-0.396
Mof_O 	O 	0.54013	0.08234	0.68621	-0.634
Mof_H 	H 	0.5217	0.0573	0.671	0.284
Mof_N 	N 	0.5794	0.1789	0.7209	-0.187
Mof_N 	N 	0.6211	0.1431	0.7295	-0.188
Mof_C 	C 	0.5803	0.8956	0.7151	-0.16
Mof_C 	C 	0.5823	0.9559	0.73	0.361
Mof_C 	C 	0.592	0.8226	0.6498	-0.239
Mof_C 	C 	0.5953	0.8777	0.6629	0.128
Mof_H 	H 	0.6076	0.9027	0.637	-0.008
Mof_C 	C 	0.563	0.8577	0.7541	0.105
Mof_H 	H 	0.5535	0.8694	0.7891	0.032
Mof_C 	C 	0.5599	0.8025	0.7409	-0.183
Mof_C 	C 	0.5437	0.7606	0.7826	0.384
Mof_C 	C 	0.5737	0.7853	0.6888	0.168
Mof_H 	H 	0.5708	0.7483	0.6798	-0.044
Mof_C 	C 	0.6088	0.8021	0.5944	0.504
Mof_C 	C 	0.6661	0.1727	0.739	0.093
Mof_H 	H 	0.7004	0.158	0.747	-0.004
Mof_C 	C 	0.6003	0.2299	0.7243	0.095
Mof_H 	H 	0.5802	0.2619	0.7197	0.009
Mof_C 	C 	0.6549	0.228	0.7355	-0.149
Mof_H 	H 	0.6791	0.2572	0.7397	0.086
Mof_Na	Na	0.5772	0.6616	0.5756	2.199
Mof_O 	O 	0.5132	0.6524	0.6565	-0.562
Mof_O 	O 	0.4891	0.702	0.5551	-0.341
Mof_O 	O 	0.5627	0.6736	0.4821	-0.38
Mof_O 	O 	0.8571	0.1429	0.6429	-0.934
Mof_O 	O 	0.9349	0.0651	0.5651	-0.889
Mof_O 	O 	0.6429	0.8571	0.1429	-0.934
Mof_O 	O 	0.5651	0.9349	0.0651	-0.889
Mof_O 	O 	0.1429	0.6429	0.8571	-0.934
Mof_O 	O 	0.0651	0.5651	0.9349	-0.889
Mof_O 	O 	0.3571	0.3571	0.3571	-0.934
Mof_O 	O 	0.4349	0.4349	0.4349	-0.889
Mof_O 	O 	0.1429	0.8571	0.3571	-0.934
Mof_O 	O 	0.0651	0.9349	0.4349	-0.889
Mof_O 	O 	0.3571	0.1429	0.8571	-0.934
Mof_O 	O 	0.4349	0.0651	0.9349	-0.889
Mof_O 	O 	0.8571	0.3571	0.1429	-0.934
Mof_O 	O 	0.9349	0.4349	0.0651	-0.889
Mof_O 	O 	0.6429	0.6429	0.6429	-0.934
Mof_O 	O 	0.5651	0.5651	0.5651	-0.889
_end
