# CIF file generated by openbabel 3.1.0, see https://openbabel.org
data_I
_chemical_name_common 'image0'
_cell_length_a 19.7524
_cell_length_b 19.7524
_cell_length_c 15.346
_cell_angle_alpha 90
_cell_angle_beta 90
_cell_angle_gamma 120
_space_group_name_H-M_alt 'P 1'
_space_group_name_Hall 'P 1'
loop_
    _symmetry_equiv_pos_as_xyz
    x,y,z
loop_
    _atom_site_label
    _atom_site_type_symbol
    _atom_site_fract_x
    _atom_site_fract_y
    _atom_site_fract_z
    _atom_site_occupancy
    C1       C        0.14530    0.60780    0.91340    1.000
    C2       C        0.06950    0.55090    0.95980    1.000
    C3       C        0.02950    0.58150    0.00710    1.000
    C4       C        0.04160    0.47160    0.95360    1.000
    C5       C        0.15360    0.42890    0.97740    1.000
    H1       H        0.11880    0.39110    0.02080    1.000
    H2       H        0.18740    0.41080    0.95250    1.000
    H3       H        0.18570    0.47980    0.00520    1.000
    C6       C        0.12380    0.70390    0.10990    1.000
    H4       H        0.16310    0.68780    0.10340    1.000
    H5       H        0.14980    0.76000    0.12230    1.000
    H6       H        0.08850    0.67480    0.15810    1.000
    C7       C        0.81460    0.49530    0.41450    1.000
    O1       O        0.09500    0.63970    0.65970    1.000
    H7       H        0.05800    0.64600    0.67600    1.000
    H8       H        0.07500    0.59600    0.63400    1.000
    O2       O        0.05100    0.71490    0.72760    1.000
    C8       C        0.86820    0.54270    0.48560    1.000
    C9       C        0.92610    0.62000    0.47280    1.000
    C10      C        0.98110    0.65960    0.53770    1.000
    C11      C        0.97820    0.62200    0.61530    1.000
    C12      C        0.92020    0.54470    0.62810    1.000
    C13      C        0.86520    0.50500    0.56320    1.000
    C14      C        0.04710    0.66170    0.67680    1.000
    C15      C        0.99680    0.66370    0.31270    1.000
    H9       H        0.04260    0.67820    0.34940    1.000
    H10      H        0.01170    0.70000    0.26340    1.000
    H11      H        0.97640    0.61040    0.29080    1.000
    C16      C        0.01560    0.81280    0.55650    1.000
    H12      H        0.98950    0.82170    0.50720    1.000
    H13      H        0.05620    0.86310    0.57970    1.000
    H14      H        0.97720    0.78390    0.60220    1.000
    C17      C        0.92410    0.55380    0.81080    1.000
    H15      H        0.91500    0.52530    0.86580    1.000
    H16      H        0.88570    0.57110    0.80460    1.000
    H17      H        0.97690    0.59940    0.81080    1.000
    C18      C        0.84770    0.35920    0.55940    1.000
    H18      H        0.87260    0.37190    0.50180    1.000
    H19      H        0.81410    0.30240    0.56460    1.000
    H20      H        0.88810    0.37800    0.60460    1.000
    S1       S        0.92320    0.66850    0.37530    1.000
    S2       S        0.05930    0.75727    0.52070    1.000
    S3       S        0.91460    0.49330    0.72540    1.000
    S4       S        0.79000    0.40540    0.57230    1.000
    O3       O        0.94160    0.74970    0.75020    1.000
    H21      H        0.97890    0.79050    0.77130    1.000
    O4       O        0.03300    0.69800    0.74300    1.000
    C19      C        0.86420    0.54830    0.49390    1.000
    C20      C        0.91690    0.62670    0.47800    1.000
    C21      C        0.95110    0.67820    0.54730    1.000
    C22      C        0.93260    0.65110    0.63250    1.000
    C23      C        0.87990    0.57270    0.64840    1.000
    C24      C        0.84560    0.52130    0.57910    1.000
    C25      C        0.96920    0.70900    0.70970    1.000
    C26      C        0.99430    0.61900    0.32600    1.000
    H22      H        0.04930    0.65970    0.33240    1.000
    H23      H        0.98290    0.60480    0.26440    1.000
    H24      H        0.98410    0.57310    0.36000    1.000
    C27      C        0.09880    0.77480    0.48520    1.000
    H25      H        0.08420    0.71960    0.48040    1.000
    H26      H        0.14460    0.80200    0.52310    1.000
    H27      H        0.11140    0.79880    0.42720    1.000
    C28      C        0.91600    0.50600    0.77600    1.000
    H28      H        0.88510    0.44880    0.77310    1.000
    H29      H        0.94070    0.52150    0.83390    1.000
    H30      H        0.95640    0.52560    0.73120    1.000
    C29      C        0.83100    0.37100    0.59100    1.000
    H31      H        0.82150    0.33810    0.64280    1.000
    H32      H        0.88640    0.40920    0.58650    1.000
    H33      H        0.81400    0.33750    0.53890    1.000
    S5       S        0.93510    0.65480    0.36340    1.000
    S6       S        0.02060    0.78170    0.52950    1.000
    S7       S        0.85550    0.54480    0.76090    1.000
    S8       S        0.77630    0.41950    0.59970    1.000
    Eu1      Eu       0.21750    0.66067    0.71111    1.000
    O5       O        0.13780    0.62170    0.83650    1.000
    O6       O        0.20720    0.63270    0.95670    1.000
    O7       O        0.75270    0.49670    0.40320    1.000
    O8       O        0.83840    0.45790    0.37050    1.000
    O9       O        0.41730    0.67420    0.79950    1.000
    H34      H        0.46630    0.67720    0.82180    1.000
    S9       S        0.09589    0.43790    0.89213    1.000
    S10      S        0.06904    0.68372    0.01185    1.000
    C30      C        0.39220    0.53750    0.91340    1.000
    C31      C        0.44910    0.51860    0.95980    1.000
    C32      C        0.41850    0.44800    0.00710    1.000
    C33      C        0.52840    0.57000    0.95360    1.000
    C34      C        0.57110    0.72470    0.97740    1.000
    H35      H        0.60890    0.72770    0.02080    1.000
    H36      H        0.58920    0.77660    0.95250    1.000
    H37      H        0.52020    0.70590    0.00520    1.000
    C35      C        0.29610    0.41990    0.10990    1.000
    H38      H        0.31220    0.47530    0.10340    1.000
    H39      H        0.24000    0.38980    0.12230    1.000
    H40      H        0.32520    0.41370    0.15810    1.000
    C36      C        0.50470    0.31930    0.41450    1.000
    O10      O        0.36030    0.45530    0.65970    1.000
    H41      H        0.35400    0.41200    0.67600    1.000
    H42      H        0.40400    0.47900    0.63400    1.000
    O11      O        0.28510    0.33610    0.72760    1.000
    C37      C        0.45730    0.32550    0.48560    1.000
    C38      C        0.38000    0.30610    0.47280    1.000
    C39      C        0.34040    0.32150    0.53770    1.000
    C40      C        0.37800    0.35620    0.61530    1.000
    C41      C        0.45530    0.37550    0.62810    1.000
    C42      C        0.49500    0.36020    0.56320    1.000
    C43      C        0.33830    0.38540    0.67680    1.000
    C44      C        0.33630    0.33310    0.31270    1.000
    H43      H        0.32180    0.36440    0.34940    1.000
    H44      H        0.30000    0.31170    0.26340    1.000
    H45      H        0.38960    0.36600    0.29080    1.000
    C45      C        0.18720    0.20280    0.55650    1.000
    H46      H        0.17830    0.16780    0.50720    1.000
    H47      H        0.13690    0.19310    0.57970    1.000
    H48      H        0.21610    0.19330    0.60220    1.000
    C46      C        0.44620    0.37030    0.81080    1.000
    H49      H        0.47470    0.38970    0.86580    1.000
    H50      H        0.42890    0.31460    0.80460    1.000
    H51      H        0.40060    0.37750    0.81080    1.000
    C47      C        0.64080    0.48850    0.55940    1.000
    H52      H        0.62810    0.50070    0.50180    1.000
    H53      H        0.69760    0.51170    0.56460    1.000
    H54      H        0.62200    0.51010    0.60460    1.000
    S11      S        0.33150    0.25470    0.37530    1.000
    S12      S        0.24273    0.30203    0.52070    1.000
    S13      S        0.50670    0.42130    0.72540    1.000
    S14      S        0.59460    0.38460    0.57230    1.000
    O12      O        0.25030    0.19190    0.75020    1.000
    H55      H        0.20950    0.18840    0.77130    1.000
    O13      O        0.30200    0.33500    0.74300    1.000
    C48      C        0.45170    0.31590    0.49390    1.000
    C49      C        0.37330    0.29020    0.47800    1.000
    C50      C        0.32180    0.27290    0.54730    1.000
    C51      C        0.34890    0.28150    0.63250    1.000
    C52      C        0.42730    0.30720    0.64840    1.000
    C53      C        0.47870    0.32430    0.57910    1.000
    C54      C        0.29100    0.26020    0.70970    1.000
    C55      C        0.38100    0.37530    0.32600    1.000
    H56      H        0.34030    0.38960    0.33240    1.000
    H57      H        0.39520    0.37810    0.26440    1.000
    H58      H        0.42690    0.41100    0.36000    1.000
    C56      C        0.22520    0.32400    0.48520    1.000
    H59      H        0.28040    0.36460    0.48040    1.000
    H60      H        0.19800    0.34260    0.52310    1.000
    H61      H        0.20120    0.31260    0.42720    1.000
    C57      C        0.49400    0.41000    0.77600    1.000
    H62      H        0.55120    0.43630    0.77310    1.000
    H63      H        0.47850    0.41920    0.83390    1.000
    H64      H        0.47440    0.43080    0.73120    1.000
    C58      C        0.62900    0.46000    0.59100    1.000
    H65      H        0.66190    0.48340    0.64280    1.000
    H66      H        0.59080    0.47720    0.58650    1.000
    H67      H        0.66250    0.47650    0.53890    1.000
    S15      S        0.34520    0.28030    0.36340    1.000
    S16      S        0.21830    0.23890    0.52950    1.000
    S17      S        0.45520    0.31070    0.76090    1.000
    S18      S        0.58050    0.35680    0.59970    1.000
    Eu2      Eu       0.33933    0.55683    0.71111    1.000
    O14      O        0.37830    0.51610    0.83650    1.000
    O15      O        0.36730    0.57450    0.95670    1.000
    O16      O        0.50330    0.25600    0.40320    1.000
    O17      O        0.54210    0.38050    0.37050    1.000
    O18      O        0.32580    0.74310    0.79950    1.000
    H68      H        0.32280    0.78910    0.82180    1.000
    S19      S        0.56210    0.65799    0.89213    1.000
    S20      S        0.31628    0.38532    0.01185    1.000
    C59      C        0.46250    0.85470    0.91340    1.000
    C60      C        0.48140    0.93050    0.95980    1.000
    C61      C        0.55200    0.97050    0.00710    1.000
    C62      C        0.43000    0.95840    0.95360    1.000
    C63      C        0.27530    0.84640    0.97740    1.000
    H69      H        0.27230    0.88120    0.02080    1.000
    H70      H        0.22340    0.81260    0.95250    1.000
    H71      H        0.29410    0.81430    0.00520    1.000
    C64      C        0.58010    0.87620    0.10990    1.000
    H72      H        0.52470    0.83690    0.10340    1.000
    H73      H        0.61020    0.85020    0.12230    1.000
    H74      H        0.58630    0.91150    0.15810    1.000
    C65      C        0.68070    0.18540    0.41450    1.000
    O19      O        0.54470    0.90500    0.65970    1.000
    H75      H        0.58800    0.94200    0.67600    1.000
    H76      H        0.52100    0.92500    0.63400    1.000
    O20      O        0.66390    0.94900    0.72760    1.000
    C66      C        0.67450    0.13180    0.48560    1.000
    C67      C        0.69390    0.07390    0.47280    1.000
    C68      C        0.67850    0.01890    0.53770    1.000
    C69      C        0.64380    0.02180    0.61530    1.000
    C70      C        0.62450    0.07980    0.62810    1.000
    C71      C        0.63980    0.13480    0.56320    1.000
    C72      C        0.61460    0.95290    0.67680    1.000
    C73      C        0.66690    0.00320    0.31270    1.000
    H77      H        0.63560    0.95740    0.34940    1.000
    H78      H        0.68830    0.98830    0.26340    1.000
    H79      H        0.63400    0.02360    0.29080    1.000
    C74      C        0.79720    0.98440    0.55650    1.000
    H80      H        0.83220    0.01050    0.50720    1.000
    H81      H        0.80690    0.94380    0.57970    1.000
    H82      H        0.80670    0.02280    0.60220    1.000
    C75      C        0.62970    0.07590    0.81080    1.000
    H83      H        0.61030    0.08500    0.86580    1.000
    H84      H        0.68540    0.11430    0.80460    1.000
    H85      H        0.62250    0.02310    0.81080    1.000
    C76      C        0.51150    0.15230    0.55940    1.000
    H86      H        0.49930    0.12740    0.50180    1.000
    H87      H        0.48830    0.18590    0.56460    1.000
    H88      H        0.48990    0.11190    0.60460    1.000
    S21      S        0.74530    0.07680    0.37530    1.000
    S22      S        0.69797    0.94070    0.52070    1.000
    S23      S        0.57870    0.08540    0.72540    1.000
    S24      S        0.61540    0.21000    0.57230    1.000
    O21      O        0.80810    0.05840    0.75020    1.000
    H89      H        0.81160    0.02110    0.77130    1.000
    O22      O        0.66500    0.96700    0.74300    1.000
    C77      C        0.68410    0.13580    0.49390    1.000
    C78      C        0.70980    0.08310    0.47800    1.000
    C79      C        0.72710    0.04890    0.54730    1.000
    C80      C        0.71850    0.06740    0.63250    1.000
    C81      C        0.69280    0.12010    0.64840    1.000
    C82      C        0.67570    0.15440    0.57910    1.000
    C83      C        0.73980    0.03080    0.70970    1.000
    C84      C        0.62470    0.00570    0.32600    1.000
    H90      H        0.61040    0.95070    0.33240    1.000
    H91      H        0.62190    0.01710    0.26440    1.000
    H92      H        0.58900    0.01590    0.36000    1.000
    C85      C        0.67600    0.90120    0.48520    1.000
    H93      H        0.63540    0.91580    0.48040    1.000
    H94      H        0.65740    0.85540    0.52310    1.000
    H95      H        0.68740    0.88860    0.42720    1.000
    C86      C        0.59000    0.08400    0.77600    1.000
    H96      H        0.56370    0.11490    0.77310    1.000
    H97      H        0.58080    0.05930    0.83390    1.000
    H98      H        0.56920    0.04360    0.73120    1.000
    C87      C        0.54000    0.16900    0.59100    1.000
    H99      H        0.51660    0.17850    0.64280    1.000
    H100     H        0.52280    0.11360    0.58650    1.000
    H101     H        0.52350    0.18600    0.53890    1.000
    S25      S        0.71970    0.06490    0.36340    1.000
    S26      S        0.76110    0.97940    0.52950    1.000
    S27      S        0.68930    0.14450    0.76090    1.000
    S28      S        0.64320    0.22370    0.59970    1.000
    Eu3      Eu       0.44317    0.78250    0.71111    1.000
    O23      O        0.48390    0.86220    0.83650    1.000
    O24      O        0.42550    0.79280    0.95670    1.000
    O25      O        0.74400    0.24730    0.40320    1.000
    O26      O        0.61950    0.16160    0.37050    1.000
    O27      O        0.25690    0.58270    0.79950    1.000
    H102     H        0.21090    0.53370    0.82180    1.000
    S29      S        0.34201    0.90411    0.89213    1.000
    S30      S        0.61468    0.93096    0.01185    1.000
    C88      C        0.85470    0.39220    0.08660    1.000
    C89      C        0.93050    0.44910    0.04020    1.000
    C90      C        0.97050    0.41850    0.99290    1.000
    C91      C        0.95840    0.52840    0.04640    1.000
    C92      C        0.84640    0.57110    0.02260    1.000
    H103     H        0.88120    0.60890    0.97920    1.000
    H104     H        0.81260    0.58920    0.04750    1.000
    H105     H        0.81430    0.52020    0.99480    1.000
    C93      C        0.87620    0.29610    0.89010    1.000
    H106     H        0.83690    0.31220    0.89660    1.000
    H107     H        0.85020    0.24000    0.87770    1.000
    H108     H        0.91150    0.32520    0.84190    1.000
    C94      C        0.18540    0.50470    0.58550    1.000
    O28      O        0.90500    0.36030    0.34030    1.000
    H109     H        0.94200    0.35400    0.32400    1.000
    H110     H        0.92500    0.40400    0.36600    1.000
    O29      O        0.94900    0.28510    0.27240    1.000
    C95      C        0.13180    0.45730    0.51440    1.000
    C96      C        0.07390    0.38000    0.52720    1.000
    C97      C        0.01890    0.34040    0.46230    1.000
    C98      C        0.02180    0.37800    0.38470    1.000
    C99      C        0.07980    0.45530    0.37190    1.000
    C100     C        0.13480    0.49500    0.43680    1.000
    C101     C        0.95290    0.33830    0.32320    1.000
    C102     C        0.00320    0.33630    0.68730    1.000
    H111     H        0.95740    0.32180    0.65060    1.000
    H112     H        0.98830    0.30000    0.73660    1.000
    H113     H        0.02360    0.38960    0.70920    1.000
    C103     C        0.98440    0.18720    0.44350    1.000
    H114     H        0.01050    0.17830    0.49280    1.000
    H115     H        0.94380    0.13690    0.42030    1.000
    H116     H        0.02280    0.21610    0.39780    1.000
    C104     C        0.07590    0.44620    0.18920    1.000
    H117     H        0.08500    0.47470    0.13420    1.000
    H118     H        0.11430    0.42890    0.19540    1.000
    H119     H        0.02310    0.40060    0.18920    1.000
    C105     C        0.15230    0.64080    0.44060    1.000
    H120     H        0.12740    0.62810    0.49820    1.000
    H121     H        0.18590    0.69760    0.43540    1.000
    H122     H        0.11190    0.62200    0.39540    1.000
    S31      S        0.07680    0.33150    0.62470    1.000
    S32      S        0.94070    0.24273    0.47930    1.000
    S33      S        0.08540    0.50670    0.27460    1.000
    S34      S        0.21000    0.59460    0.42770    1.000
    O30      O        0.05840    0.25030    0.24980    1.000
    H123     H        0.02110    0.20950    0.22870    1.000
    O31      O        0.96700    0.30200    0.25700    1.000
    C106     C        0.13580    0.45170    0.50610    1.000
    C107     C        0.08310    0.37330    0.52200    1.000
    C108     C        0.04890    0.32180    0.45270    1.000
    C109     C        0.06740    0.34890    0.36750    1.000
    C110     C        0.12010    0.42730    0.35160    1.000
    C111     C        0.15440    0.47870    0.42090    1.000
    C112     C        0.03080    0.29100    0.29030    1.000
    C113     C        0.00570    0.38100    0.67400    1.000
    H124     H        0.95070    0.34030    0.66760    1.000
    H125     H        0.01710    0.39520    0.73560    1.000
    H126     H        0.01590    0.42690    0.64000    1.000
    C114     C        0.90120    0.22520    0.51480    1.000
    H127     H        0.91580    0.28040    0.51960    1.000
    H128     H        0.85540    0.19800    0.47690    1.000
    H129     H        0.88860    0.20120    0.57280    1.000
    C115     C        0.08400    0.49400    0.22400    1.000
    H130     H        0.11490    0.55120    0.22690    1.000
    H131     H        0.05930    0.47850    0.16610    1.000
    H132     H        0.04360    0.47440    0.26880    1.000
    C116     C        0.16900    0.62900    0.40900    1.000
    H133     H        0.17850    0.66190    0.35720    1.000
    H134     H        0.11360    0.59080    0.41350    1.000
    H135     H        0.18600    0.66250    0.46110    1.000
    S35      S        0.06490    0.34520    0.63660    1.000
    S36      S        0.97940    0.21830    0.47050    1.000
    S37      S        0.14450    0.45520    0.23910    1.000
    S38      S        0.22370    0.58050    0.40030    1.000
    Eu4      Eu       0.78250    0.33933    0.28889    1.000
    O32      O        0.86220    0.37830    0.16350    1.000
    O33      O        0.79280    0.36730    0.04330    1.000
    O34      O        0.24730    0.50330    0.59680    1.000
    O35      O        0.16160    0.54210    0.62950    1.000
    O36      O        0.58270    0.32580    0.20050    1.000
    H136     H        0.53370    0.32280    0.17820    1.000
    S39      S        0.90411    0.56210    0.10787    1.000
    S40      S        0.93096    0.31628    0.98815    1.000
    C117     C        0.60780    0.46250    0.08660    1.000
    C118     C        0.55090    0.48140    0.04020    1.000
    C119     C        0.58150    0.55200    0.99290    1.000
    C120     C        0.47160    0.43000    0.04640    1.000
    C121     C        0.42890    0.27530    0.02260    1.000
    H137     H        0.39110    0.27230    0.97920    1.000
    H138     H        0.41080    0.22340    0.04750    1.000
    H139     H        0.47980    0.29410    0.99480    1.000
    C122     C        0.70390    0.58010    0.89010    1.000
    H140     H        0.68780    0.52470    0.89660    1.000
    H141     H        0.76000    0.61020    0.87770    1.000
    H142     H        0.67480    0.58630    0.84190    1.000
    C123     C        0.49530    0.68070    0.58550    1.000
    O37      O        0.63970    0.54470    0.34030    1.000
    H143     H        0.64600    0.58800    0.32400    1.000
    H144     H        0.59600    0.52100    0.36600    1.000
    O38      O        0.71490    0.66390    0.27240    1.000
    C124     C        0.54270    0.67450    0.51440    1.000
    C125     C        0.62000    0.69390    0.52720    1.000
    C126     C        0.65960    0.67850    0.46230    1.000
    C127     C        0.62200    0.64380    0.38470    1.000
    C128     C        0.54470    0.62450    0.37190    1.000
    C129     C        0.50500    0.63980    0.43680    1.000
    C130     C        0.66170    0.61460    0.32320    1.000
    C131     C        0.66370    0.66690    0.68730    1.000
    H145     H        0.67820    0.63560    0.65060    1.000
    H146     H        0.70000    0.68830    0.73660    1.000
    H147     H        0.61040    0.63400    0.70920    1.000
    C132     C        0.81280    0.79720    0.44350    1.000
    H148     H        0.82170    0.83220    0.49280    1.000
    H149     H        0.86310    0.80690    0.42030    1.000
    H150     H        0.78390    0.80670    0.39780    1.000
    C133     C        0.55380    0.62970    0.18920    1.000
    H151     H        0.52530    0.61030    0.13420    1.000
    H152     H        0.57110    0.68540    0.19540    1.000
    H153     H        0.59940    0.62250    0.18920    1.000
    C134     C        0.35920    0.51150    0.44060    1.000
    H154     H        0.37190    0.49930    0.49820    1.000
    H155     H        0.30240    0.48830    0.43540    1.000
    H156     H        0.37800    0.48990    0.39540    1.000
    S41      S        0.66850    0.74530    0.62470    1.000
    S42      S        0.75727    0.69797    0.47930    1.000
    S43      S        0.49330    0.57870    0.27460    1.000
    S44      S        0.40540    0.61540    0.42770    1.000
    O39      O        0.74970    0.80810    0.24980    1.000
    H157     H        0.79050    0.81160    0.22870    1.000
    O40      O        0.69800    0.66500    0.25700    1.000
    C135     C        0.54830    0.68410    0.50610    1.000
    C136     C        0.62670    0.70980    0.52200    1.000
    C137     C        0.67820    0.72710    0.45270    1.000
    C138     C        0.65110    0.71850    0.36750    1.000
    C139     C        0.57270    0.69280    0.35160    1.000
    C140     C        0.52130    0.67570    0.42090    1.000
    C141     C        0.70900    0.73980    0.29030    1.000
    C142     C        0.61900    0.62470    0.67400    1.000
    H158     H        0.65970    0.61040    0.66760    1.000
    H159     H        0.60480    0.62190    0.73560    1.000
    H160     H        0.57310    0.58900    0.64000    1.000
    C143     C        0.77480    0.67600    0.51480    1.000
    H161     H        0.71960    0.63540    0.51960    1.000
    H162     H        0.80200    0.65740    0.47690    1.000
    H163     H        0.79880    0.68740    0.57280    1.000
    C144     C        0.50600    0.59000    0.22400    1.000
    H164     H        0.44880    0.56370    0.22690    1.000
    H165     H        0.52150    0.58080    0.16610    1.000
    H166     H        0.52560    0.56920    0.26880    1.000
    C145     C        0.37100    0.54000    0.40900    1.000
    H167     H        0.33810    0.51660    0.35720    1.000
    H168     H        0.40920    0.52280    0.41350    1.000
    H169     H        0.33750    0.52350    0.46110    1.000
    S45      S        0.65480    0.71970    0.63660    1.000
    S46      S        0.78170    0.76110    0.47050    1.000
    S47      S        0.54480    0.68930    0.23910    1.000
    S48      S        0.41950    0.64320    0.40030    1.000
    Eu5      Eu       0.66067    0.44317    0.28889    1.000
    O41      O        0.62170    0.48390    0.16350    1.000
    O42      O        0.63270    0.42550    0.04330    1.000
    O43      O        0.49670    0.74400    0.59680    1.000
    O44      O        0.45790    0.61950    0.62950    1.000
    O45      O        0.67420    0.25690    0.20050    1.000
    H170     H        0.67720    0.21090    0.17820    1.000
    S49      S        0.43790    0.34201    0.10787    1.000
    S50      S        0.68372    0.61468    0.98815    1.000
    C146     C        0.53750    0.14530    0.08660    1.000
    C147     C        0.51860    0.06950    0.04020    1.000
    C148     C        0.44800    0.02950    0.99290    1.000
    C149     C        0.57000    0.04160    0.04640    1.000
    C150     C        0.72470    0.15360    0.02260    1.000
    H171     H        0.72770    0.11880    0.97920    1.000
    H172     H        0.77660    0.18740    0.04750    1.000
    H173     H        0.70590    0.18570    0.99480    1.000
    C151     C        0.41990    0.12380    0.89010    1.000
    H174     H        0.47530    0.16310    0.89660    1.000
    H175     H        0.38980    0.14980    0.87770    1.000
    H176     H        0.41370    0.08850    0.84190    1.000
    C152     C        0.31930    0.81460    0.58550    1.000
    O46      O        0.45530    0.09500    0.34030    1.000
    H177     H        0.41200    0.05800    0.32400    1.000
    H178     H        0.47900    0.07500    0.36600    1.000
    O47      O        0.33610    0.05100    0.27240    1.000
    C153     C        0.32550    0.86820    0.51440    1.000
    C154     C        0.30610    0.92610    0.52720    1.000
    C155     C        0.32150    0.98110    0.46230    1.000
    C156     C        0.35620    0.97820    0.38470    1.000
    C157     C        0.37550    0.92020    0.37190    1.000
    C158     C        0.36020    0.86520    0.43680    1.000
    C159     C        0.38540    0.04710    0.32320    1.000
    C160     C        0.33310    0.99680    0.68730    1.000
    H179     H        0.36440    0.04260    0.65060    1.000
    H180     H        0.31170    0.01170    0.73660    1.000
    H181     H        0.36600    0.97640    0.70920    1.000
    C161     C        0.20280    0.01560    0.44350    1.000
    H182     H        0.16780    0.98950    0.49280    1.000
    H183     H        0.19310    0.05620    0.42030    1.000
    H184     H        0.19330    0.97720    0.39780    1.000
    C162     C        0.37030    0.92410    0.18920    1.000
    H185     H        0.38970    0.91500    0.13420    1.000
    H186     H        0.31460    0.88570    0.19540    1.000
    H187     H        0.37750    0.97690    0.18920    1.000
    C163     C        0.48850    0.84770    0.44060    1.000
    H188     H        0.50070    0.87260    0.49820    1.000
    H189     H        0.51170    0.81410    0.43540    1.000
    H190     H        0.51010    0.88810    0.39540    1.000
    S51      S        0.25470    0.92320    0.62470    1.000
    S52      S        0.30203    0.05930    0.47930    1.000
    S53      S        0.42130    0.91460    0.27460    1.000
    S54      S        0.38460    0.79000    0.42770    1.000
    O48      O        0.19190    0.94160    0.24980    1.000
    H191     H        0.18840    0.97890    0.22870    1.000
    O49      O        0.33500    0.03300    0.25700    1.000
    C164     C        0.31590    0.86420    0.50610    1.000
    C165     C        0.29020    0.91690    0.52200    1.000
    C166     C        0.27290    0.95110    0.45270    1.000
    C167     C        0.28150    0.93260    0.36750    1.000
    C168     C        0.30720    0.87990    0.35160    1.000
    C169     C        0.32430    0.84560    0.42090    1.000
    C170     C        0.26020    0.96920    0.29030    1.000
    C171     C        0.37530    0.99430    0.67400    1.000
    H192     H        0.38960    0.04930    0.66760    1.000
    H193     H        0.37810    0.98290    0.73560    1.000
    H194     H        0.41100    0.98410    0.64000    1.000
    C172     C        0.32400    0.09880    0.51480    1.000
    H195     H        0.36460    0.08420    0.51960    1.000
    H196     H        0.34260    0.14460    0.47690    1.000
    H197     H        0.31260    0.11140    0.57280    1.000
    C173     C        0.41000    0.91600    0.22400    1.000
    H198     H        0.43630    0.88510    0.22690    1.000
    H199     H        0.41920    0.94070    0.16610    1.000
    H200     H        0.43080    0.95640    0.26880    1.000
    C174     C        0.46000    0.83100    0.40900    1.000
    H201     H        0.48340    0.82150    0.35720    1.000
    H202     H        0.47720    0.88640    0.41350    1.000
    H203     H        0.47650    0.81400    0.46110    1.000
    S55      S        0.28030    0.93510    0.63660    1.000
    S56      S        0.23890    0.02060    0.47050    1.000
    S57      S        0.31070    0.85550    0.23910    1.000
    S58      S        0.35680    0.77630    0.40030    1.000
    Eu6      Eu       0.55683    0.21750    0.28889    1.000
    O50      O        0.51610    0.13780    0.16350    1.000
    O51      O        0.57450    0.20720    0.04330    1.000
    O52      O        0.25600    0.75270    0.59680    1.000
    O53      O        0.38050    0.83840    0.62950    1.000
    O54      O        0.74310    0.41730    0.20050    1.000
    H204     H        0.78910    0.46630    0.17820    1.000
    S59      S        0.65799    0.09589    0.10787    1.000
    S60      S        0.38532    0.06904    0.98815    1.000
    Eu7      Eu       0.33333    0.66667    0.91368    1.000
    O55      O        0.33333    0.66667    0.64980    1.000
    H205     H        0.33333    0.66667    0.58460    1.000
    Eu8      Eu       0.66667    0.33333    0.08632    1.000
    O56      O        0.66667    0.33333    0.35020    1.000
    H206     H        0.66667    0.33333    0.41540    1.000
