data_functionalizedCrystal
_audit_creation_method	'EQeq! by Chris Wilmer'
_symmetry_space_group_name_H-M	'P1'
_symmetry_Int_Tables_number	1
_symmetry_cell_setting	triclinic
loop_
_symmetry_equiv_pos_as_xyz
  x,y,z
_cell_length_a	16.205
_cell_length_b	24.834
_cell_length_c	13.514
_cell_angle_alpha	90
_cell_angle_beta	124.244
_cell_angle_gamma	90
loop_
_atom_site_label
_atom_site_type_symbol
_atom_site_fract_x
_atom_site_fract_y
_atom_site_fract_z
_atom_site_charge
Mof_Zn	Zn	0.32251	0.05251	0.7284	1.213
Mof_O 	O 	0.74207	0.06221	0.94579	-0.44
Mof_O 	O 	0.62419	0.12105	0.90758	-0.33
Mof_O 	O 	0.65123	0.02988	0.08091	-0.476
Mof_O 	O 	0.75197	0.01222	0.27671	-0.478
Mof_O 	O 	0.97	0.15628	0.5361	-0.124
Mof_O 	O 	0.016	0.21801	0.4691	-0.174
Mof_O 	O 	0.45881	0.03861	0.84512	-0.777
Mof_H 	H 	0.4975	0.0616	0.8448	0.302
Mof_N 	N 	0.9673	0.17845	0.4549	0.009
Mof_N 	N 	0.45984	0.07047	0.05932	-0.259
Mof_N 	N 	0.23892	0.38414	0.235	-0.277
Mof_C 	C 	0.77125	0.11771	0.10448	-0.123
Mof_C 	C 	0.7833	0.08986	0.20186	-0.004
Mof_C 	C 	0.84886	0.10949	0.3174	-0.117
Mof_H 	H 	0.8584	0.0911	0.383	0.101
Mof_C 	C 	0.89959	0.1569	0.3328	0.137
Mof_C 	C 	0.8885	0.18572	0.2387	-0.154
Mof_H 	H 	0.9232	0.2177	0.2517	0.116
Mof_C 	C 	0.8241	0.16546	0.1244	0.072
Mof_H 	H 	0.8157	0.184	0.0596	0.012
Mof_C 	C 	0.70465	0.09846	0.97597	0.391
Mof_C 	C 	0.72341	0.03987	0.18355	0.352
Mof_C 	C 	0.47972	0.12112	0.04483	0.081
Mof_H 	H 	0.5178	0.1265	0.0138	-0.015
Mof_C 	C 	0.44626	0.16581	0.0739	-0.177
Mof_H 	H 	0.4622	0.2003	0.0628	0.1
Mof_C 	C 	0.38821	0.15869	0.12	0.122
Mof_C 	C 	0.36784	0.106	0.1342	-0.188
Mof_H 	H 	0.3294	0.0993	0.1643	0.092
Mof_C 	C 	0.40453	0.06363	0.1038	0.098
Mof_H 	H 	0.3903	0.0287	0.1146	-0.048
Mof_C 	C 	0.34849	0.20299	0.1539	-0.082
Mof_H 	H 	0.3082	0.1935	0.1799	0.062
Mof_C 	C 	0.36448	0.25486	0.1509	-0.105
Mof_H 	H 	0.4059	0.2646	0.1267	0.078
Mof_C 	C 	0.2946	0.39267	0.1915	0.116
Mof_H 	H 	0.3054	0.428	0.1784	-0.021
Mof_C 	C 	0.3364	0.35165	0.1654	-0.197
Mof_H 	H 	0.3746	0.3597	0.1357	0.112
Mof_C 	C 	0.3219	0.29875	0.1829	0.148
Mof_C 	C 	0.2651	0.28988	0.2298	-0.186
Mof_H 	H 	0.2544	0.255	0.2453	0.105
Mof_C 	C 	0.225	0.33299	0.253	0.112
Mof_H 	H 	0.1862	0.3262	0.2826	-0.023
Mof_Zn	Zn	0.82251	0.55251	0.7284	1.223
Mof_O 	O 	0.24207	0.56221	0.94579	-0.429
Mof_O 	O 	0.12419	0.62105	0.90758	-0.34
Mof_O 	O 	0.15123	0.52988	0.08091	-0.465
Mof_O 	O 	0.25197	0.51222	0.27671	-0.454
Mof_O 	O 	0.47	0.65628	0.5361	-0.134
Mof_O 	O 	0.516	0.71801	0.4691	-0.131
Mof_O 	O 	0.95881	0.53861	0.84512	-0.741
Mof_H 	H 	0.9975	0.5616	0.8448	0.314
Mof_N 	N 	0.4673	0.67845	0.4549	-0.014
Mof_N 	N 	0.95984	0.57047	0.05932	-0.262
Mof_N 	N 	0.73892	0.88414	0.235	-0.271
Mof_C 	C 	0.27125	0.61771	0.10448	-0.129
Mof_C 	C 	0.2833	0.58986	0.20186	-0.001
Mof_C 	C 	0.34886	0.60949	0.3174	-0.119
Mof_H 	H 	0.3584	0.5911	0.383	0.103
Mof_C 	C 	0.39959	0.6569	0.3328	0.133
Mof_C 	C 	0.3885	0.68572	0.2387	-0.158
Mof_H 	H 	0.4232	0.7177	0.2517	0.104
Mof_C 	C 	0.3241	0.66546	0.1244	0.071
Mof_H 	H 	0.3157	0.684	0.0596	0.008
Mof_C 	C 	0.20465	0.59846	0.97597	0.395
Mof_C 	C 	0.22341	0.53987	0.18355	0.349
Mof_C 	C 	0.97972	0.62112	0.04483	0.198
Mof_H 	H 	0.0178	0.6265	0.0138	-0.087
Mof_C 	C 	0.94626	0.66581	0.0739	-0.237
Mof_H 	H 	0.9622	0.7003	0.0628	0.135
Mof_C 	C 	0.88821	0.65869	0.12	0.16
Mof_C 	C 	0.86784	0.606	0.1342	-0.204
Mof_H 	H 	0.8294	0.5993	0.1643	0.104
Mof_C 	C 	0.90453	0.56363	0.1038	0.119
Mof_H 	H 	0.8903	0.5287	0.1146	-0.027
Mof_C 	C 	0.84849	0.70299	0.1539	-0.096
Mof_H 	H 	0.8082	0.6935	0.1799	0.07
Mof_C 	C 	0.86448	0.75486	0.1509	-0.09
Mof_H 	H 	0.9059	0.7646	0.1267	0.08
Mof_C 	C 	0.7946	0.89267	0.1915	0.117
Mof_H 	H 	0.8054	0.928	0.1784	-0.004
Mof_C 	C 	0.8364	0.85165	0.1654	-0.188
Mof_H 	H 	0.8746	0.8597	0.1357	0.119
Mof_C 	C 	0.8219	0.79875	0.1829	0.147
Mof_C 	C 	0.7651	0.78988	0.2298	-0.179
Mof_H 	H 	0.7544	0.755	0.2453	0.105
Mof_C 	C 	0.725	0.83299	0.253	0.113
Mof_H 	H 	0.6862	0.8262	0.2826	-0.018
Mof_Zn	Zn	0.67749	0.05251	0.7716	1.212
Mof_O 	O 	0.25793	0.06221	0.55421	-0.452
Mof_O 	O 	0.37581	0.12105	0.59242	-0.33
Mof_O 	O 	0.34877	0.02988	0.41909	-0.46
Mof_O 	O 	0.24803	0.01222	0.22329	-0.492
Mof_O 	O 	0.03	0.15628	0.9639	-0.11
Mof_O 	O 	0.984	0.21801	0.0309	-0.106
Mof_O 	O 	0.54119	0.03861	0.65488	-0.79
Mof_H 	H 	0.5025	0.0616	0.6552	0.299
Mof_N 	N 	0.0327	0.17845	0.0451	-0.06
Mof_N 	N 	0.54016	0.07047	0.44068	-0.253
Mof_N 	N 	0.76108	0.38414	0.265	-0.275
Mof_C 	C 	0.22875	0.11771	0.39552	-0.065
Mof_C 	C 	0.2167	0.08986	0.29814	-0.035
Mof_C 	C 	0.15114	0.10949	0.1826	-0.096
Mof_H 	H 	0.1416	0.0911	0.117	0.074
Mof_C 	C 	0.10041	0.1569	0.1672	0.098
Mof_C 	C 	0.1115	0.18572	0.2613	-0.126
Mof_H 	H 	0.0768	0.2177	0.2483	0.08
Mof_C 	C 	0.1759	0.16546	0.3756	0.025
Mof_H 	H 	0.1843	0.184	0.4404	0.035
Mof_C 	C 	0.29535	0.09846	0.52403	0.337
Mof_C 	C 	0.27659	0.03987	0.31645	0.361
Mof_C 	C 	0.52028	0.12112	0.45517	0.087
Mof_H 	H 	0.4822	0.1265	0.4862	-0.003
Mof_C 	C 	0.55374	0.16581	0.4261	-0.173
Mof_H 	H 	0.5378	0.2003	0.4372	0.109
Mof_C 	C 	0.61179	0.15869	0.38	0.128
Mof_C 	C 	0.63216	0.106	0.3658	-0.184
Mof_H 	H 	0.6706	0.0993	0.3357	0.095
Mof_C 	C 	0.59547	0.06363	0.3962	0.105
Mof_H 	H 	0.6097	0.0287	0.3854	-0.043
Mof_C 	C 	0.65151	0.20299	0.3461	-0.076
Mof_H 	H 	0.6918	0.1935	0.3201	0.063
Mof_C 	C 	0.63552	0.25486	0.3491	-0.103
Mof_H 	H 	0.5941	0.2646	0.3733	0.083
Mof_C 	C 	0.7054	0.39267	0.3085	0.12
Mof_H 	H 	0.6946	0.428	0.3216	-0.017
Mof_C 	C 	0.6636	0.35165	0.3346	-0.194
Mof_H 	H 	0.6254	0.3597	0.3643	0.118
Mof_C 	C 	0.6781	0.29875	0.3171	0.153
Mof_C 	C 	0.7349	0.28988	0.2702	-0.184
Mof_H 	H 	0.7456	0.255	0.2547	0.105
Mof_C 	C 	0.775	0.33299	0.247	0.116
Mof_H 	H 	0.8138	0.3262	0.2174	-0.018
Mof_Zn	Zn	0.17749	0.55251	0.7716	1.22
Mof_O 	O 	0.75793	0.56221	0.55421	-0.428
Mof_O 	O 	0.87581	0.62105	0.59242	-0.315
Mof_O 	O 	0.84877	0.52988	0.41909	-0.428
Mof_O 	O 	0.74803	0.51222	0.22329	-0.457
Mof_O 	O 	0.53	0.65628	0.9639	-0.095
Mof_O 	O 	0.484	0.71801	0.0309	-0.151
Mof_O 	O 	0.04119	0.53861	0.65488	-0.775
Mof_H 	H 	0.0025	0.5616	0.6552	0.28
Mof_N 	N 	0.5327	0.67845	0.0451	-0.036
Mof_N 	N 	0.04016	0.57047	0.44068	-0.232
Mof_N 	N 	0.26108	0.88414	0.265	-0.272
Mof_C 	C 	0.72875	0.61771	0.39552	-0.062
Mof_C 	C 	0.7167	0.58986	0.29814	-0.022
Mof_C 	C 	0.65114	0.60949	0.1826	-0.1
Mof_H 	H 	0.6416	0.5911	0.117	0.085
Mof_C 	C 	0.60041	0.6569	0.1672	0.111
Mof_C 	C 	0.6115	0.68572	0.2613	-0.127
Mof_H 	H 	0.5768	0.7177	0.2483	0.094
Mof_C 	C 	0.6759	0.66546	0.3756	0.033
Mof_H 	H 	0.6843	0.684	0.4404	0.037
Mof_C 	C 	0.79535	0.59846	0.52403	0.334
Mof_C 	C 	0.77659	0.53987	0.31645	0.356
Mof_C 	C 	0.02028	0.62112	0.45517	-0.027
Mof_H 	H 	0.9822	0.6265	0.4862	0.068
Mof_C 	C 	0.05374	0.66581	0.4261	-0.11
Mof_H 	H 	0.0378	0.7003	0.4372	0.073
Mof_C 	C 	0.11179	0.65869	0.38	0.086
Mof_C 	C 	0.13216	0.606	0.3658	-0.157
Mof_H 	H 	0.1706	0.5993	0.3357	0.084
Mof_C 	C 	0.09547	0.56363	0.3962	0.081
Mof_H 	H 	0.1097	0.5287	0.3854	-0.023
Mof_C 	C 	0.15151	0.70299	0.3461	-0.06
Mof_H 	H 	0.1918	0.6935	0.3201	0.055
Mof_C 	C 	0.13552	0.75486	0.3491	-0.118
Mof_H 	H 	0.0941	0.7646	0.3733	0.082
Mof_C 	C 	0.2054	0.89267	0.3085	0.117
Mof_H 	H 	0.1946	0.928	0.3216	-0.007
Mof_C 	C 	0.1636	0.85165	0.3346	-0.197
Mof_H 	H 	0.1254	0.8597	0.3643	0.115
Mof_C 	C 	0.1781	0.79875	0.3171	0.152
Mof_C 	C 	0.2349	0.78988	0.2702	-0.188
Mof_H 	H 	0.2456	0.755	0.2547	0.104
Mof_C 	C 	0.275	0.83299	0.247	0.113
Mof_H 	H 	0.3138	0.8262	0.2174	-0.022
Mof_Zn	Zn	0.67749	0.94749	0.2716	1.229
Mof_O 	O 	0.25793	0.93779	0.05421	-0.421
Mof_O 	O 	0.37581	0.87895	0.09242	-0.327
Mof_O 	O 	0.34877	0.97012	0.91909	-0.391
Mof_O 	O 	0.24803	0.98778	0.72329	-0.426
Mof_O 	O 	0.03	0.84372	0.4639	-0.144
Mof_O 	O 	0.984	0.78199	0.5309	-0.089
Mof_O 	O 	0.54119	0.96139	0.15488	-0.744
Mof_H 	H 	0.5025	0.9384	0.1552	0.287
Mof_N 	N 	0.0327	0.82155	0.5451	-0.033
Mof_N 	N 	0.54016	0.92953	0.94068	-0.224
Mof_N 	N 	0.76108	0.61586	0.765	-0.271
Mof_C 	C 	0.22875	0.88229	0.89552	-0.005
Mof_C 	C 	0.2167	0.91014	0.79814	-0.034
Mof_C 	C 	0.15114	0.89051	0.6826	-0.087
Mof_H 	H 	0.1416	0.9089	0.617	0.093
Mof_C 	C 	0.10041	0.8431	0.6672	0.102
Mof_C 	C 	0.1115	0.81428	0.7613	-0.108
Mof_H 	H 	0.0768	0.7823	0.7483	0.079
Mof_C 	C 	0.1759	0.83454	0.8756	0.001
Mof_H 	H 	0.1843	0.816	0.9404	0.06
Mof_C 	C 	0.29535	0.90154	0.02403	0.279
Mof_C 	C 	0.27659	0.96013	0.81645	0.358
Mof_C 	C 	0.52028	0.87888	0.95517	0.09
Mof_H 	H 	0.4822	0.8735	0.9862	0.012
Mof_C 	C 	0.55374	0.83419	0.9261	-0.163
Mof_H 	H 	0.5378	0.7997	0.9372	0.116
Mof_C 	C 	0.61179	0.84131	0.88	0.128
Mof_C 	C 	0.63216	0.894	0.8658	-0.168
Mof_H 	H 	0.6706	0.9007	0.8357	0.099
Mof_C 	C 	0.59547	0.93637	0.8962	0.108
Mof_H 	H 	0.6097	0.9713	0.8854	0.002
Mof_C 	C 	0.65151	0.79701	0.8461	-0.067
Mof_H 	H 	0.6918	0.8065	0.8201	0.065
Mof_C 	C 	0.63552	0.74514	0.8491	-0.102
Mof_H 	H 	0.5941	0.7354	0.8733	0.089
Mof_C 	C 	0.7054	0.60733	0.8085	0.129
Mof_H 	H 	0.6946	0.572	0.8216	-0.011
Mof_C 	C 	0.6636	0.64835	0.8346	-0.192
Mof_H 	H 	0.6254	0.6403	0.8643	0.125
Mof_C 	C 	0.6781	0.70125	0.8171	0.162
Mof_C 	C 	0.7349	0.71012	0.7702	-0.18
Mof_H 	H 	0.7456	0.745	0.7547	0.11
Mof_C 	C 	0.775	0.66701	0.747	0.125
Mof_H 	H 	0.8138	0.6738	0.7174	-0.014
Mof_Zn	Zn	0.17749	0.44749	0.2716	1.218
Mof_O 	O 	0.75793	0.43779	0.05421	-0.431
Mof_O 	O 	0.87581	0.37895	0.09242	-0.316
Mof_O 	O 	0.84877	0.47012	0.91909	-0.406
Mof_O 	O 	0.74803	0.48778	0.72329	-0.45
Mof_O 	O 	0.53	0.34372	0.4639	-0.134
Mof_O 	O 	0.484	0.28199	0.5309	-0.13
Mof_O 	O 	0.04119	0.46139	0.15488	-0.783
Mof_H 	H 	0.0025	0.4384	0.1552	0.275
Mof_N 	N 	0.5327	0.32155	0.5451	-0.01
Mof_N 	N 	0.04016	0.42953	0.94068	-0.223
Mof_N 	N 	0.26108	0.11586	0.765	-0.278
Mof_C 	C 	0.72875	0.38229	0.89552	-0.008
Mof_C 	C 	0.7167	0.41014	0.79814	-0.035
Mof_C 	C 	0.65114	0.39051	0.6826	-0.087
Mof_H 	H 	0.6416	0.4089	0.617	0.092
Mof_C 	C 	0.60041	0.3431	0.6672	0.108
Mof_C 	C 	0.6115	0.31428	0.7613	-0.107
Mof_H 	H 	0.5768	0.2823	0.7483	0.092
Mof_C 	C 	0.6759	0.33454	0.8756	0.007
Mof_H 	H 	0.6843	0.316	0.9404	0.061
Mof_C 	C 	0.79535	0.40154	0.02403	0.283
Mof_C 	C 	0.77659	0.46013	0.81645	0.359
Mof_C 	C 	0.02028	0.37888	0.95517	-0.011
Mof_H 	H 	0.9822	0.3735	0.9862	0.075
Mof_C 	C 	0.05374	0.33419	0.9261	-0.111
Mof_H 	H 	0.0378	0.2997	0.9372	0.085
Mof_C 	C 	0.11179	0.34131	0.88	0.095
Mof_C 	C 	0.13216	0.394	0.8658	-0.155
Mof_H 	H 	0.1706	0.4007	0.8357	0.088
Mof_C 	C 	0.09547	0.43637	0.8962	0.09
Mof_H 	H 	0.1097	0.4713	0.8854	-0.019
Mof_C 	C 	0.15151	0.29701	0.8461	-0.055
Mof_H 	H 	0.1918	0.3065	0.8201	0.059
Mof_C 	C 	0.13552	0.24514	0.8491	-0.115
Mof_H 	H 	0.0941	0.2354	0.8733	0.087
Mof_C 	C 	0.2054	0.10733	0.8085	0.129
Mof_H 	H 	0.1946	0.072	0.8216	-0.028
Mof_C 	C 	0.1636	0.14835	0.8346	-0.2
Mof_H 	H 	0.1254	0.1403	0.8643	0.119
Mof_C 	C 	0.1781	0.20125	0.8171	0.163
Mof_C 	C 	0.2349	0.21012	0.7702	-0.186
Mof_H 	H 	0.2456	0.245	0.7547	0.109
Mof_C 	C 	0.275	0.16701	0.747	0.124
Mof_H 	H 	0.3138	0.1738	0.7174	-0.018
Mof_Zn	Zn	0.32251	0.94749	0.2284	1.228
Mof_O 	O 	0.74207	0.93779	0.44579	-0.408
Mof_O 	O 	0.62419	0.87895	0.40758	-0.328
Mof_O 	O 	0.65123	0.97012	0.58091	-0.412
Mof_O 	O 	0.75197	0.98778	0.77671	-0.413
Mof_O 	O 	0.97	0.84372	0.0361	-0.152
Mof_O 	O 	0.016	0.78199	0.9691	-0.15
Mof_O 	O 	0.45881	0.96139	0.34512	-0.737
Mof_H 	H 	0.4975	0.9384	0.3448	0.291
Mof_N 	N 	0.9673	0.82155	0.9549	0.03
Mof_N 	N 	0.45984	0.92953	0.55932	-0.234
Mof_N 	N 	0.23892	0.61586	0.735	-0.274
Mof_C 	C 	0.77125	0.88229	0.60448	-0.067
Mof_C 	C 	0.7833	0.91014	0.70186	-0.002
Mof_C 	C 	0.84886	0.89051	0.8174	-0.109
Mof_H 	H 	0.8584	0.9089	0.883	0.12
Mof_C 	C 	0.89959	0.8431	0.8328	0.14
Mof_C 	C 	0.8885	0.81428	0.7387	-0.137
Mof_H 	H 	0.9232	0.7823	0.7517	0.114
Mof_C 	C 	0.8241	0.83454	0.6244	0.049
Mof_H 	H 	0.8157	0.816	0.5596	0.035
Mof_C 	C 	0.70465	0.90154	0.47597	0.337
Mof_C 	C 	0.72341	0.96013	0.68355	0.349
Mof_C 	C 	0.47972	0.87888	0.54483	0.085
Mof_H 	H 	0.5178	0.8735	0.5138	-0.001
Mof_C 	C 	0.44626	0.83419	0.5739	-0.168
Mof_H 	H 	0.4622	0.7997	0.5628	0.107
Mof_C 	C 	0.38821	0.84131	0.62	0.123
Mof_C 	C 	0.36784	0.894	0.6342	-0.172
Mof_H 	H 	0.3294	0.9007	0.6643	0.096
Mof_C 	C 	0.40453	0.93637	0.6038	0.101
Mof_H 	H 	0.3903	0.9713	0.6146	-0.003
Mof_C 	C 	0.34849	0.79701	0.6539	-0.073
Mof_H 	H 	0.3082	0.8065	0.6799	0.064
Mof_C 	C 	0.36448	0.74514	0.6509	-0.103
Mof_H 	H 	0.4059	0.7354	0.6267	0.084
Mof_C 	C 	0.2946	0.60733	0.6915	0.126
Mof_H 	H 	0.3054	0.572	0.6784	-0.015
Mof_C 	C 	0.3364	0.64835	0.6654	-0.194
Mof_H 	H 	0.3746	0.6403	0.6357	0.119
Mof_C 	C 	0.3219	0.70125	0.6829	0.157
Mof_C 	C 	0.2651	0.71012	0.7298	-0.182
Mof_H 	H 	0.2544	0.745	0.7453	0.11
Mof_C 	C 	0.225	0.66701	0.753	0.121
Mof_H 	H 	0.1862	0.6738	0.7826	-0.018
Mof_Zn	Zn	0.82251	0.44749	0.2284	1.221
Mof_O 	O 	0.24207	0.43779	0.44579	-0.433
Mof_O 	O 	0.12419	0.37895	0.40758	-0.343
Mof_O 	O 	0.15123	0.47012	0.58091	-0.446
Mof_O 	O 	0.25197	0.48778	0.77671	-0.448
Mof_O 	O 	0.47	0.34372	0.0361	-0.173
Mof_O 	O 	0.516	0.28199	0.9691	-0.111
Mof_O 	O 	0.95881	0.46139	0.34512	-0.753
Mof_H 	H 	0.9975	0.4384	0.3448	0.312
Mof_N 	N 	0.4673	0.32155	0.9549	0.011
Mof_N 	N 	0.95984	0.42953	0.55932	-0.255
Mof_N 	N 	0.73892	0.11586	0.735	-0.276
Mof_C 	C 	0.27125	0.38229	0.60448	-0.07
Mof_C 	C 	0.2833	0.41014	0.70186	-0.016
Mof_C 	C 	0.34886	0.39051	0.8174	-0.105
Mof_H 	H 	0.3584	0.4089	0.883	0.11
Mof_C 	C 	0.39959	0.3431	0.8328	0.129
Mof_C 	C 	0.3885	0.31428	0.7387	-0.137
Mof_H 	H 	0.4232	0.2823	0.7517	0.101
Mof_C 	C 	0.3241	0.33454	0.6244	0.042
Mof_H 	H 	0.3157	0.316	0.5596	0.033
Mof_C 	C 	0.20465	0.40154	0.47597	0.34
Mof_C 	C 	0.22341	0.46013	0.68355	0.354
Mof_C 	C 	0.97972	0.37888	0.54483	0.198
Mof_H 	H 	0.0178	0.3735	0.5138	-0.072
Mof_C 	C 	0.94626	0.33419	0.5739	-0.231
Mof_H 	H 	0.9622	0.2997	0.5628	0.143
Mof_C 	C 	0.88821	0.34131	0.62	0.164
Mof_C 	C 	0.86784	0.394	0.6342	-0.2
Mof_H 	H 	0.8294	0.4007	0.6643	0.107
Mof_C 	C 	0.90453	0.43637	0.6038	0.125
Mof_H 	H 	0.8903	0.4713	0.6146	-0.024
Mof_C 	C 	0.84849	0.29701	0.6539	-0.089
Mof_H 	H 	0.8082	0.3065	0.6799	0.072
Mof_C 	C 	0.86448	0.24514	0.6509	-0.088
Mof_H 	H 	0.9059	0.2354	0.6267	0.085
Mof_C 	C 	0.7946	0.10733	0.6915	0.129
Mof_H 	H 	0.8054	0.072	0.6784	-0.025
Mof_C 	C 	0.8364	0.14835	0.6654	-0.192
Mof_H 	H 	0.8746	0.1403	0.6357	0.122
Mof_C 	C 	0.8219	0.20125	0.6829	0.157
Mof_C 	C 	0.7651	0.21012	0.7298	-0.178
Mof_H 	H 	0.7544	0.245	0.7453	0.111
Mof_C 	C 	0.725	0.16701	0.753	0.123
Mof_H 	H 	0.6862	0.1738	0.7826	-0.015
Mof_Zn	Zn	0.5	0	-0	1.195
Mof_Zn	Zn	5.615e-33	0.5	-0	1.198
Mof_Zn	Zn	0.5	0	0.5	1.209
Mof_Zn	Zn	5.05754e-17	0.5	0.5	1.212
_end
