data_functionalizedCrystal
_audit_creation_method	'EQeq! by Chris Wilmer'
_symmetry_space_group_name_H-M	'P1'
_symmetry_Int_Tables_number	1
_symmetry_cell_setting	triclinic
loop_
_symmetry_equiv_pos_as_xyz
  x,y,z
_cell_length_a	11.1813
_cell_length_b	11.1813
_cell_length_c	31.552
_cell_angle_alpha	90
_cell_angle_beta	90
_cell_angle_gamma	90
loop_
_atom_site_label
_atom_site_type_symbol
_atom_site_fract_x
_atom_site_fract_y
_atom_site_fract_z
_atom_site_charge
Mof_C 	C 	0.08804	0.86952	0.65144	-0.066
Mof_C 	C 	0.1012	0.95329	0.61925	0.027
Mof_H 	H 	0.1756	0.988	0.6146	0.066
Mof_C 	C 	0.00444	0.98601	0.59386	-0.069
Mof_C 	C 	0.89318	0.93447	0.60082	0.023
Mof_H 	H 	0.8278	0.9575	0.5846	0.061
Mof_C 	C 	0.87993	0.84763	0.63244	-0.072
Mof_C 	C 	0.97692	0.81608	0.65762	0.028
Mof_H 	H 	0.9675	0.7589	0.6788	0.071
Mof_C 	C 	0.19298	0.84175	0.6801	0.331
Mof_C 	C 	0.02493	0.07796	0.55959	0.332
Mof_C 	C 	0.75935	0.79186	0.63906	0.353
Mof_O 	O 	0.17961	0.75733	0.70607	-0.381
Mof_O 	O 	0.28413	0.9065	0.67608	-0.246
Mof_O 	O 	0.12936	0.08488	0.54518	-0.375
Mof_O 	O 	0.93786	0.14247	0.54787	-0.271
Mof_O 	O 	0.67146	0.81857	0.61893	-0.24
Mof_O 	O 	0.7609	0.71043	0.66939	-0.381
Mof_H 	H 	0.686	0.683	0.6765	0.258
Mof_C 	C 	0.91196	0.13048	0.15144	-0.069
Mof_C 	C 	0.8988	0.04671	0.11925	0.027
Mof_H 	H 	0.8244	0.012	0.1146	0.065
Mof_C 	C 	0.99556	0.01399	0.09386	-0.071
Mof_C 	C 	0.10682	0.06553	0.10082	0.024
Mof_H 	H 	0.1722	0.0425	0.0846	0.059
Mof_C 	C 	0.12007	0.15237	0.13244	-0.074
Mof_C 	C 	0.02308	0.18392	0.15762	0.029
Mof_H 	H 	0.0325	0.2411	0.1788	0.071
Mof_C 	C 	0.80702	0.15825	0.1801	0.331
Mof_C 	C 	0.97507	0.92204	0.05959	0.333
Mof_C 	C 	0.24065	0.20814	0.13906	0.354
Mof_O 	O 	0.82039	0.24267	0.20607	-0.381
Mof_O 	O 	0.71587	0.0935	0.17608	-0.246
Mof_O 	O 	0.87064	0.91512	0.04518	-0.379
Mof_O 	O 	0.06214	0.85753	0.04787	-0.275
Mof_O 	O 	0.32854	0.18143	0.11893	-0.242
Mof_O 	O 	0.2391	0.28957	0.16939	-0.381
Mof_H 	H 	0.314	0.317	0.1765	0.258
Mof_C 	C 	0.63048	0.58804	0.90144	-0.07
Mof_C 	C 	0.54671	0.6012	0.86925	0.031
Mof_H 	H 	0.512	0.6756	0.8646	0.064
Mof_C 	C 	0.51399	0.50444	0.84386	-0.078
Mof_C 	C 	0.56553	0.39318	0.85082	0.031
Mof_H 	H 	0.5425	0.3278	0.8346	0.058
Mof_C 	C 	0.65237	0.37993	0.88244	-0.075
Mof_C 	C 	0.68392	0.47692	0.90762	0.033
Mof_H 	H 	0.7411	0.4675	0.9288	0.072
Mof_C 	C 	0.65825	0.69298	0.9301	0.331
Mof_C 	C 	0.42204	0.52493	0.80959	0.342
Mof_C 	C 	0.70814	0.25935	0.88906	0.355
Mof_O 	O 	0.74267	0.67961	0.95607	-0.374
Mof_O 	O 	0.5935	0.78413	0.92608	-0.243
Mof_O 	O 	0.41512	0.62936	0.79518	-0.376
Mof_O 	O 	0.35753	0.43786	0.79787	-0.275
Mof_O 	O 	0.68143	0.17146	0.86893	-0.239
Mof_O 	O 	0.78957	0.2609	0.91939	-0.379
Mof_H 	H 	0.817	0.186	0.9265	0.258
Mof_C 	C 	0.36952	0.41196	0.40144	-0.073
Mof_C 	C 	0.45329	0.3988	0.36925	0.032
Mof_H 	H 	0.488	0.3244	0.3646	0.063
Mof_C 	C 	0.48601	0.49556	0.34386	-0.08
Mof_C 	C 	0.43447	0.60682	0.35082	0.032
Mof_H 	H 	0.4575	0.6722	0.3346	0.058
Mof_C 	C 	0.34763	0.62007	0.38244	-0.077
Mof_C 	C 	0.31608	0.52308	0.40762	0.034
Mof_H 	H 	0.2589	0.5325	0.4288	0.069
Mof_C 	C 	0.34175	0.30702	0.4301	0.333
Mof_C 	C 	0.57796	0.47507	0.30959	0.342
Mof_C 	C 	0.29186	0.74065	0.38906	0.355
Mof_O 	O 	0.25733	0.32039	0.45607	-0.382
Mof_O 	O 	0.4065	0.21587	0.42608	-0.247
Mof_O 	O 	0.58488	0.37064	0.29518	-0.376
Mof_O 	O 	0.64247	0.56214	0.29787	-0.276
Mof_O 	O 	0.31857	0.82854	0.36893	-0.24
Mof_O 	O 	0.21043	0.7391	0.41939	-0.381
Mof_H 	H 	0.183	0.814	0.4265	0.258
Mof_C 	C 	0.41196	0.36952	0.59856	-0.073
Mof_C 	C 	0.3988	0.45329	0.63075	0.032
Mof_H 	H 	0.3244	0.488	0.6354	0.063
Mof_C 	C 	0.49556	0.48601	0.65614	-0.08
Mof_C 	C 	0.60682	0.43447	0.64918	0.032
Mof_H 	H 	0.6722	0.4575	0.6654	0.058
Mof_C 	C 	0.62007	0.34763	0.61756	-0.077
Mof_C 	C 	0.52308	0.31608	0.59238	0.034
Mof_H 	H 	0.5325	0.2589	0.5712	0.069
Mof_C 	C 	0.30702	0.34175	0.5699	0.333
Mof_C 	C 	0.47507	0.57796	0.69041	0.342
Mof_C 	C 	0.74065	0.29186	0.61094	0.355
Mof_O 	O 	0.32039	0.25733	0.54393	-0.382
Mof_O 	O 	0.21587	0.4065	0.57392	-0.247
Mof_O 	O 	0.37064	0.58488	0.70482	-0.376
Mof_O 	O 	0.56214	0.64247	0.70213	-0.276
Mof_O 	O 	0.82854	0.31857	0.63107	-0.24
Mof_O 	O 	0.7391	0.21043	0.58061	-0.381
Mof_H 	H 	0.814	0.183	0.5735	0.258
Mof_C 	C 	0.58804	0.63048	0.09856	-0.075
Mof_C 	C 	0.6012	0.54671	0.13075	0.033
Mof_H 	H 	0.6756	0.512	0.1354	0.062
Mof_C 	C 	0.50444	0.51399	0.15614	-0.081
Mof_C 	C 	0.39318	0.56553	0.14918	0.032
Mof_H 	H 	0.3278	0.5425	0.1654	0.057
Mof_C 	C 	0.37993	0.65237	0.11756	-0.079
Mof_C 	C 	0.47692	0.68392	0.09238	0.035
Mof_H 	H 	0.4675	0.7411	0.0712	0.067
Mof_C 	C 	0.69298	0.65825	0.0699	0.333
Mof_C 	C 	0.52493	0.42204	0.19041	0.343
Mof_C 	C 	0.25935	0.70814	0.11094	0.355
Mof_O 	O 	0.67961	0.74267	0.04393	-0.386
Mof_O 	O 	0.78413	0.5935	0.07392	-0.25
Mof_O 	O 	0.62936	0.41512	0.20482	-0.376
Mof_O 	O 	0.43786	0.35753	0.20213	-0.276
Mof_O 	O 	0.17146	0.68143	0.13107	-0.24
Mof_O 	O 	0.2609	0.78957	0.08061	-0.383
Mof_H 	H 	0.186	0.817	0.0735	0.257
Mof_C 	C 	0.86952	0.08804	0.34856	-0.068
Mof_C 	C 	0.95329	0.1012	0.38075	0.026
Mof_H 	H 	0.988	0.1756	0.3854	0.066
Mof_C 	C 	0.98601	0.00444	0.40614	-0.069
Mof_C 	C 	0.93447	0.89318	0.39918	0.023
Mof_H 	H 	0.9575	0.8278	0.4154	0.061
Mof_C 	C 	0.84763	0.87993	0.36756	-0.073
Mof_C 	C 	0.81608	0.97692	0.34238	0.028
Mof_H 	H 	0.7589	0.9675	0.3212	0.071
Mof_C 	C 	0.84175	0.19298	0.3199	0.331
Mof_C 	C 	0.07796	0.02493	0.44041	0.333
Mof_C 	C 	0.79186	0.75935	0.36094	0.353
Mof_O 	O 	0.75733	0.17961	0.29393	-0.381
Mof_O 	O 	0.9065	0.28413	0.32392	-0.246
Mof_O 	O 	0.08488	0.12936	0.45482	-0.375
Mof_O 	O 	0.14247	0.93786	0.45213	-0.271
Mof_O 	O 	0.81857	0.67146	0.38107	-0.24
Mof_O 	O 	0.71043	0.7609	0.33061	-0.381
Mof_H 	H 	0.683	0.686	0.3235	0.258
Mof_C 	C 	0.13048	0.91196	0.84856	-0.066
Mof_C 	C 	0.04671	0.8988	0.88075	0.025
Mof_H 	H 	0.012	0.8244	0.8854	0.067
Mof_C 	C 	0.01399	0.99556	0.90614	-0.066
Mof_C 	C 	0.06553	0.10682	0.89918	0.022
Mof_H 	H 	0.0425	0.1722	0.9154	0.063
Mof_C 	C 	0.15237	0.12007	0.86756	-0.071
Mof_C 	C 	0.18392	0.02308	0.84238	0.027
Mof_H 	H 	0.2411	0.0325	0.8212	0.072
Mof_C 	C 	0.15825	0.80702	0.8199	0.331
Mof_C 	C 	0.92204	0.97507	0.94041	0.332
Mof_C 	C 	0.20814	0.24065	0.86094	0.353
Mof_O 	O 	0.24267	0.82039	0.79393	-0.38
Mof_O 	O 	0.0935	0.71587	0.82392	-0.245
Mof_O 	O 	0.91512	0.87064	0.95482	-0.368
Mof_O 	O 	0.85753	0.06214	0.95213	-0.266
Mof_O 	O 	0.18143	0.32854	0.88107	-0.237
Mof_O 	O 	0.28957	0.2391	0.83061	-0.38
Mof_H 	H 	0.317	0.314	0.8235	0.258
Mof_Ni	Ni	0.30051	0.69949	0.75	1.107
Mof_Ni	Ni	0.69949	0.30051	0.25	1.107
Mof_Ni	Ni	0.80051	0.80051	-0	1.099
Mof_Ni	Ni	0.19949	0.19949	0.5	1.106
_end
