data_functionalizedCrystal
_audit_creation_method	'EQeq! by Chris Wilmer'
_symmetry_space_group_name_H-M	'P1'
_symmetry_Int_Tables_number	1
_symmetry_cell_setting	triclinic
loop_
_symmetry_equiv_pos_as_xyz
  x,y,z
_cell_length_a	14.879
_cell_length_b	19.293
_cell_length_c	30.538
_cell_angle_alpha	102.12
_cell_angle_beta	90
_cell_angle_gamma	112.681
loop_
_atom_site_label
_atom_site_type_symbol
_atom_site_fract_x
_atom_site_fract_y
_atom_site_fract_z
_atom_site_charge
Mof_Zn	Zn	0.54185	0.82996	0.41172	1.164
Mof_Zn	Zn	0.02446	0.23952	0.55775	1.166
Mof_Zn	Zn	0.96184	0.6546	0.73153	1.162
Mof_Zn	Zn	0.28811	0.82996	0.91172	1.164
Mof_Zn	Zn	0.21506	0.23952	0.05775	1.166
Mof_Zn	Zn	0.69276	0.6546	0.23153	1.162
Mof_H 	H 	0.415	0.7652	0.4808	-0.017
Mof_H 	H 	0.3082	0.7876	0.5311	0.085
Mof_H 	H 	0.3403	0.9744	0.4836	0.076
Mof_H 	H 	0.457	0.9532	0.4401	-0.014
Mof_H 	H 	0.9288	0.7782	0.6959	-0.017
Mof_H 	H 	0.9949	0.8584	0.6479	0.081
Mof_H 	H 	0.1975	0.7706	0.6247	0.082
Mof_H 	H 	0.1218	0.6854	0.6691	-0.012
Mof_H 	H 	0.1011	0.1328	0.4958	-0.004
Mof_H 	H 	0.149	0.0342	0.4972	0.077
Mof_H 	H 	0.0786	0.0458	0.6261	0.083
Mof_H 	H 	0.0247	0.1398	0.6186	-0.013
Mof_H 	H 	0.0405	0.3578	0.6455	0.003
Mof_H 	H 	0.1614	0.461	0.6933	0.088
Mof_H 	H 	0.3673	0.4182	0.6198	0.079
Mof_H 	H 	0.2391	0.3224	0.5673	0.007
Mof_H 	H 	0.4565	0.8002	0.8782	0.004
Mof_H 	H 	0.5022	0.7262	0.8172	0.092
Mof_H 	H 	0.2143	0.6046	0.7794	0.084
Mof_H 	H 	0.179	0.6806	0.8416	-0.021
Mof_H 	H 	0.7708	0.5318	0.677	-0.007
Mof_H 	H 	0.608	0.514	0.6678	0.078
Mof_H 	H 	0.6612	0.6986	0.7682	0.084
Mof_H 	H 	0.8247	0.724	0.7684	-0.017
Mof_H 	H 	0.3502	0.7652	0.9808	-0.016
Mof_H 	H 	0.4794	0.7876	0.0311	0.086
Mof_H 	H 	0.6341	0.9744	0.9836	0.076
Mof_H 	H 	0.4962	0.9532	0.9401	-0.013
Mof_H 	H 	0.8494	0.7782	0.1959	-0.019
Mof_H 	H 	0.8635	0.8584	0.1479	0.088
Mof_H 	H 	0.5731	0.7706	0.1247	0.084
Mof_H 	H 	0.5636	0.6854	0.1691	-0.012
Mof_H 	H 	0.0317	0.1328	0.9958	-0.001
Mof_H 	H 	0.8852	0.0342	0.9972	0.075
Mof_H 	H 	0.9672	0.0458	0.1261	0.082
Mof_H 	H 	0.1151	0.1398	0.1186	-0.011
Mof_H 	H 	0.3173	0.3578	0.1455	0.003
Mof_H 	H 	0.2996	0.461	0.1933	0.088
Mof_H 	H 	0.0509	0.4182	0.1198	0.079
Mof_H 	H 	0.0833	0.3224	0.0673	0.006
Mof_H 	H 	0.3437	0.8002	0.3782	0.004
Mof_H 	H 	0.224	0.7262	0.3172	0.092
Mof_H 	H 	0.3903	0.6046	0.2794	0.084
Mof_H 	H 	0.5016	0.6806	0.3416	-0.021
Mof_H 	H 	0.761	0.5318	0.177	-0.007
Mof_H 	H 	0.906	0.514	0.1678	0.079
Mof_H 	H 	0.0374	0.6986	0.2682	0.084
Mof_H 	H 	0.8993	0.724	0.2684	-0.017
Mof_C 	C 	0.4012	0.8098	0.4825	0.079
Mof_C 	C 	0.3355	0.8208	0.5113	-0.131
Mof_C 	C 	0.3103	0.882	0.5103	0.067
Mof_C 	C 	0.3559	0.9312	0.484	-0.135
Mof_C 	C 	0.4244	0.9178	0.458	0.087
Mof_C 	C 	0.2365	0.8964	0.5413	0.095
Mof_C 	C 	0.1436	0.8696	0.5977	0.109
Mof_C 	C 	0.1432	0.9616	0.5635	0.098
Mof_C 	C 	0.9828	0.7748	0.6803	0.075
Mof_C 	C 	0.0225	0.8228	0.6516	-0.113
Mof_C 	C 	0.0982	0.8214	0.6288	0.064
Mof_C 	C 	0.1396	0.7708	0.6377	-0.112
Mof_C 	C 	0.0961	0.722	0.6651	0.068
Mof_C 	C 	0.096	0.1146	0.5227	0.078
Mof_C 	C 	0.1238	0.055	0.5229	-0.123
Mof_C 	C 	0.1153	0.0254	0.5604	0.044
Mof_C 	C 	0.0813	0.0614	0.5984	-0.113
Mof_C 	C 	0.0529	0.1192	0.594	0.07
Mof_C 	C 	0.1069	0.3706	0.6395	0.058
Mof_C 	C 	0.1791	0.4318	0.6683	-0.114
Mof_C 	C 	0.2765	0.451	0.6613	0.04
Mof_C 	C 	0.3008	0.4082	0.6246	-0.099
Mof_C 	C 	0.2235	0.3486	0.5942	0.052
Mof_C 	C 	0.3515	0.5146	0.6928	0.085
Mof_C 	C 	0.3896	0.613	0.7536	0.101
Mof_C 	C 	0.5092	0.5844	0.7179	0.099
Mof_C 	C 	0.4072	0.7602	0.8571	0.053
Mof_C 	C 	0.4354	0.7164	0.821	-0.111
Mof_C 	C 	0.3621	0.659	0.7919	0.062
Mof_C 	C 	0.2659	0.645	0.7992	-0.14
Mof_C 	C 	0.2455	0.6916	0.8362	0.097
Mof_C 	C 	0.7488	0.568	0.6946	0.064
Mof_C 	C 	0.6509	0.5556	0.6904	-0.117
Mof_C 	C 	0.6142	0.6024	0.7185	0.059
Mof_C 	C 	0.6822	0.6644	0.7479	-0.122
Mof_C 	C 	0.7797	0.6784	0.7488	0.071
Mof_C 	C 	0.4086	0.8098	0.9825	0.079
Mof_C 	C 	0.4853	0.8208	0.0113	-0.131
Mof_C 	C 	0.5717	0.882	0.0103	0.067
Mof_C 	C 	0.5753	0.9312	0.984	-0.135
Mof_C 	C 	0.4934	0.9178	0.958	0.087
Mof_C 	C 	0.6599	0.8964	0.0413	0.094
Mof_C 	C 	0.726	0.8696	0.0977	0.106
Mof_C 	C 	0.8184	0.9616	0.0635	0.095
Mof_C 	C 	0.792	0.7748	0.1803	0.086
Mof_C 	C 	0.8003	0.8228	0.1516	-0.127
Mof_C 	C 	0.7232	0.8214	0.1288	0.07
Mof_C 	C 	0.6312	0.7708	0.1377	-0.117
Mof_C 	C 	0.6259	0.722	0.1651	0.07
Mof_C 	C 	0.0186	0.1146	0.0227	0.069
Mof_C 	C 	0.9312	0.055	0.0229	-0.114
Mof_C 	C 	0.9101	0.0254	0.0604	0.043
Mof_C 	C 	0.9801	0.0614	0.0984	-0.106
Mof_C 	C 	0.0663	0.1192	0.094	0.064
Mof_C 	C 	0.2637	0.3706	0.1395	0.058
Mof_C 	C 	0.2527	0.4318	0.1683	-0.114
Mof_C 	C 	0.1745	0.451	0.1613	0.039
Mof_C 	C 	0.1074	0.4082	0.1246	-0.1
Mof_C 	C 	0.1251	0.3486	0.0942	0.052
Mof_C 	C 	0.1631	0.5146	0.1928	0.085
Mof_C 	C 	0.2234	0.613	0.2536	0.101
Mof_C 	C 	0.0752	0.5844	0.2179	0.099
Mof_C 	C 	0.353	0.7602	0.3571	0.053
Mof_C 	C 	0.281	0.7164	0.321	-0.111
Mof_C 	C 	0.2969	0.659	0.2919	0.062
Mof_C 	C 	0.3791	0.645	0.2992	-0.14
Mof_C 	C 	0.4461	0.6916	0.3362	0.097
Mof_C 	C 	0.8192	0.568	0.1946	0.064
Mof_C 	C 	0.9047	0.5556	0.1904	-0.117
Mof_C 	C 	0.9882	0.6024	0.2185	0.061
Mof_C 	C 	0.9822	0.6644	0.2479	-0.122
Mof_C 	C 	0.8987	0.6784	0.2488	0.072
Mof_I 	I 	0.6297	0.76996	0.45113	-0.387
Mof_I 	I 	0.61606	0.93946	0.37229	-0.353
Mof_I 	I 	0.8645	0.21108	0.59448	-0.379
Mof_I 	I 	0.05182	0.27092	0.48141	-0.366
Mof_I 	I 	0.99421	0.53352	0.70249	-0.377
Mof_I 	I 	0.02574	0.74122	0.80959	-0.399
Mof_I 	I 	0.14026	0.76996	0.95113	-0.385
Mof_I 	I 	0.3234	0.93946	0.87229	-0.352
Mof_I 	I 	0.34658	0.21108	0.09448	-0.38
Mof_I 	I 	0.2191	0.27092	0.98141	-0.365
Mof_I 	I 	0.53931	0.53352	0.20249	-0.376
Mof_I 	I 	0.71548	0.74122	0.30959	-0.402
Mof_N 	N 	0.4477	0.8582	0.4566	-0.273
Mof_N 	N 	0.2088	0.854	0.5716	-0.135
Mof_N 	N 	0.1103	0.9242	0.5961	-0.133
Mof_N 	N 	0.2033	0.9478	0.5335	-0.149
Mof_N 	N 	0.0181	0.7242	0.6867	-0.271
Mof_N 	N 	0.0619	0.1492	0.5574	-0.279
Mof_N 	N 	0.1286	0.3282	0.6027	-0.267
Mof_N 	N 	0.3205	0.5536	0.727	-0.141
Mof_N 	N 	0.4859	0.632	0.7526	-0.132
Mof_N 	N 	0.448	0.5276	0.6871	-0.138
Mof_N 	N 	0.3112	0.7472	0.8628	-0.273
Mof_N 	N 	0.8138	0.631	0.7235	-0.272
Mof_N 	N 	0.4105	0.8582	0.9566	-0.273
Mof_N 	N 	0.6452	0.854	0.0716	-0.135
Mof_N 	N 	0.8139	0.9242	0.0961	-0.134
Mof_N 	N 	0.7445	0.9478	0.0335	-0.149
Mof_N 	N 	0.7061	0.7242	0.1867	-0.275
Mof_N 	N 	0.0873	0.1492	0.0574	-0.276
Mof_N 	N 	0.1996	0.3282	0.1027	-0.267
Mof_N 	N 	0.2331	0.5536	0.227	-0.141
Mof_N 	N 	0.1461	0.632	0.2526	-0.132
Mof_N 	N 	0.0796	0.5276	0.1871	-0.138
Mof_N 	N 	0.436	0.7472	0.3628	-0.273
Mof_N 	N 	0.8172	0.631	0.2235	-0.272
Mof_Zn	Zn	0.71189	0.17004	0.08828	1.165
Mof_Zn	Zn	0.78494	0.76048	0.94225	1.167
Mof_Zn	Zn	0.30724	0.3454	0.76847	1.163
Mof_Zn	Zn	0.45815	0.17004	0.58828	1.165
Mof_Zn	Zn	0.97554	0.76048	0.44225	1.167
Mof_Zn	Zn	0.03816	0.3454	0.26847	1.163
Mof_H 	H 	0.6498	0.2348	0.0192	-0.016
Mof_H 	H 	0.5206	0.2124	0.9689	0.086
Mof_H 	H 	0.3659	0.0256	0.0164	0.076
Mof_H 	H 	0.5038	0.0468	0.0599	-0.013
Mof_H 	H 	0.1506	0.2218	0.8041	-0.019
Mof_H 	H 	0.1365	0.1416	0.8521	0.088
Mof_H 	H 	0.4269	0.2294	0.8753	0.084
Mof_H 	H 	0.4364	0.3146	0.8309	-0.012
Mof_H 	H 	0.9683	0.8672	0.0042	-0.001
Mof_H 	H 	0.1148	0.9658	0.0028	0.075
Mof_H 	H 	0.0328	0.9542	0.8739	0.082
Mof_H 	H 	0.8849	0.8602	0.8814	-0.011
Mof_H 	H 	0.6827	0.6422	0.8545	0.003
Mof_H 	H 	0.7004	0.539	0.8067	0.088
Mof_H 	H 	0.9491	0.5818	0.8802	0.079
Mof_H 	H 	0.9167	0.6776	0.9327	0.006
Mof_H 	H 	0.6563	0.1998	0.6218	0.004
Mof_H 	H 	0.776	0.2738	0.6828	0.092
Mof_H 	H 	0.6097	0.3954	0.7206	0.084
Mof_H 	H 	0.4984	0.3194	0.6584	-0.021
Mof_H 	H 	0.239	0.4682	0.823	-0.007
Mof_H 	H 	0.094	0.486	0.8322	0.079
Mof_H 	H 	0.9626	0.3014	0.7318	0.084
Mof_H 	H 	0.1007	0.276	0.7316	-0.017
Mof_H 	H 	0.585	0.2348	0.5192	-0.016
Mof_H 	H 	0.6918	0.2124	0.4689	0.086
Mof_H 	H 	0.6597	0.0256	0.5164	0.077
Mof_H 	H 	0.543	0.0468	0.5599	-0.013
Mof_H 	H 	0.0712	0.2218	0.3041	-0.016
Mof_H 	H 	0.0051	0.1416	0.3521	0.082
Mof_H 	H 	0.8025	0.2294	0.3753	0.083
Mof_H 	H 	0.8782	0.3146	0.3309	-0.011
Mof_H 	H 	0.8989	0.8672	0.5042	-0.004
Mof_H 	H 	0.851	0.9658	0.5028	0.077
Mof_H 	H 	0.9214	0.9542	0.3739	0.083
Mof_H 	H 	0.9753	0.8602	0.3814	-0.013
Mof_H 	H 	0.9595	0.6422	0.3545	0.003
Mof_H 	H 	0.8386	0.539	0.3067	0.088
Mof_H 	H 	0.6327	0.5818	0.3802	0.079
Mof_H 	H 	0.7609	0.6776	0.4327	0.007
Mof_H 	H 	0.5435	0.1998	0.1218	0.004
Mof_H 	H 	0.4978	0.2738	0.1828	0.092
Mof_H 	H 	0.7857	0.3954	0.2206	0.084
Mof_H 	H 	0.821	0.3194	0.1584	-0.021
Mof_H 	H 	0.2292	0.4682	0.323	-0.007
Mof_H 	H 	0.392	0.486	0.3322	0.078
Mof_H 	H 	0.3388	0.3014	0.2318	0.084
Mof_H 	H 	0.1753	0.276	0.2316	-0.017
Mof_C 	C 	0.5914	0.1902	0.0175	0.079
Mof_C 	C 	0.5147	0.1792	0.9887	-0.131
Mof_C 	C 	0.4283	0.118	0.9897	0.067
Mof_C 	C 	0.4247	0.0688	0.016	-0.135
Mof_C 	C 	0.5066	0.0822	0.042	0.087
Mof_C 	C 	0.3401	0.1036	0.9587	0.094
Mof_C 	C 	0.274	0.1304	0.9023	0.106
Mof_C 	C 	0.1816	0.0384	0.9365	0.095
Mof_C 	C 	0.208	0.2252	0.8197	0.086
Mof_C 	C 	0.1997	0.1772	0.8484	-0.127
Mof_C 	C 	0.2768	0.1786	0.8712	0.07
Mof_C 	C 	0.3688	0.2292	0.8623	-0.117
Mof_C 	C 	0.3741	0.278	0.8349	0.07
Mof_C 	C 	0.9814	0.8854	0.9773	0.069
Mof_C 	C 	0.0688	0.945	0.9771	-0.114
Mof_C 	C 	0.0899	0.9746	0.9396	0.043
Mof_C 	C 	0.0199	0.9386	0.9016	-0.106
Mof_C 	C 	0.9337	0.8808	0.906	0.064
Mof_C 	C 	0.7363	0.6294	0.8605	0.058
Mof_C 	C 	0.7473	0.5682	0.8317	-0.114
Mof_C 	C 	0.8255	0.549	0.8387	0.039
Mof_C 	C 	0.8926	0.5918	0.8754	-0.1
Mof_C 	C 	0.8749	0.6514	0.9058	0.052
Mof_C 	C 	0.8369	0.4854	0.8072	0.085
Mof_C 	C 	0.7766	0.387	0.7464	0.101
Mof_C 	C 	0.9248	0.4156	0.7821	0.099
Mof_C 	C 	0.647	0.2398	0.6429	0.053
Mof_C 	C 	0.719	0.2836	0.679	-0.111
Mof_C 	C 	0.7031	0.341	0.7081	0.062
Mof_C 	C 	0.6209	0.355	0.7008	-0.14
Mof_C 	C 	0.5539	0.3084	0.6638	0.097
Mof_C 	C 	0.1808	0.432	0.8054	0.064
Mof_C 	C 	0.0953	0.4444	0.8096	-0.117
Mof_C 	C 	0.0118	0.3976	0.7815	0.061
Mof_C 	C 	0.0178	0.3356	0.7521	-0.122
Mof_C 	C 	0.1013	0.3216	0.7512	0.072
Mof_C 	C 	0.5988	0.1902	0.5175	0.079
Mof_C 	C 	0.6645	0.1792	0.4887	-0.131
Mof_C 	C 	0.6897	0.118	0.4897	0.067
Mof_C 	C 	0.6441	0.0688	0.516	-0.135
Mof_C 	C 	0.5756	0.0822	0.542	0.087
Mof_C 	C 	0.7635	0.1036	0.4587	0.095
Mof_C 	C 	0.8564	0.1304	0.4023	0.109
Mof_C 	C 	0.8568	0.0384	0.4365	0.098
Mof_C 	C 	0.0172	0.2252	0.3197	0.075
Mof_C 	C 	0.9775	0.1772	0.3484	-0.113
Mof_C 	C 	0.9018	0.1786	0.3712	0.064
Mof_C 	C 	0.8604	0.2292	0.3623	-0.112
Mof_C 	C 	0.9039	0.278	0.3349	0.068
Mof_C 	C 	0.904	0.8854	0.4773	0.078
Mof_C 	C 	0.8762	0.945	0.4771	-0.123
Mof_C 	C 	0.8847	0.9746	0.4396	0.044
Mof_C 	C 	0.9187	0.9386	0.4016	-0.113
Mof_C 	C 	0.9471	0.8808	0.406	0.07
Mof_C 	C 	0.8931	0.6294	0.3605	0.058
Mof_C 	C 	0.8209	0.5682	0.3317	-0.114
Mof_C 	C 	0.7235	0.549	0.3387	0.04
Mof_C 	C 	0.6992	0.5918	0.3754	-0.099
Mof_C 	C 	0.7765	0.6514	0.4058	0.052
Mof_C 	C 	0.6485	0.4854	0.3072	0.085
Mof_C 	C 	0.6104	0.387	0.2464	0.101
Mof_C 	C 	0.4908	0.4156	0.2821	0.099
Mof_C 	C 	0.5928	0.2398	0.1429	0.053
Mof_C 	C 	0.5646	0.2836	0.179	-0.111
Mof_C 	C 	0.6379	0.341	0.2081	0.062
Mof_C 	C 	0.7341	0.355	0.2008	-0.14
Mof_C 	C 	0.7545	0.3084	0.1638	0.097
Mof_C 	C 	0.2512	0.432	0.3054	0.064
Mof_C 	C 	0.3491	0.4444	0.3096	-0.117
Mof_C 	C 	0.3858	0.3976	0.2815	0.059
Mof_C 	C 	0.3178	0.3356	0.2521	-0.122
Mof_C 	C 	0.2203	0.3216	0.2512	0.071
Mof_I 	I 	0.85974	0.23004	0.04887	-0.385
Mof_I 	I 	0.6766	0.06054	0.12771	-0.352
Mof_I 	I 	0.65342	0.78892	0.90552	-0.38
Mof_I 	I 	0.7809	0.72908	0.01859	-0.365
Mof_I 	I 	0.46069	0.46648	0.79751	-0.376
Mof_I 	I 	0.28452	0.25878	0.69041	-0.402
Mof_I 	I 	0.3703	0.23004	0.54887	-0.387
Mof_I 	I 	0.38394	0.06054	0.62771	-0.353
Mof_I 	I 	0.1355	0.78892	0.40552	-0.379
Mof_I 	I 	0.94818	0.72908	0.51859	-0.366
Mof_I 	I 	0.00579	0.46648	0.29751	-0.377
Mof_I 	I 	0.97426	0.25878	0.19041	-0.399
Mof_N 	N 	0.5895	0.1418	0.0434	-0.273
Mof_N 	N 	0.3548	0.146	0.9284	-0.135
Mof_N 	N 	0.1861	0.0758	0.9039	-0.134
Mof_N 	N 	0.2555	0.0522	0.9665	-0.149
Mof_N 	N 	0.2939	0.2758	0.8133	-0.275
Mof_N 	N 	0.9127	0.8508	0.9426	-0.276
Mof_N 	N 	0.8004	0.6718	0.8973	-0.267
Mof_N 	N 	0.7669	0.4464	0.773	-0.141
Mof_N 	N 	0.8539	0.368	0.7474	-0.132
Mof_N 	N 	0.9204	0.4724	0.8129	-0.138
Mof_N 	N 	0.564	0.2528	0.6372	-0.273
Mof_N 	N 	0.1828	0.369	0.7765	-0.272
Mof_N 	N 	0.5523	0.1418	0.5434	-0.273
Mof_N 	N 	0.7912	0.146	0.4284	-0.135
Mof_N 	N 	0.8897	0.0758	0.4039	-0.133
Mof_N 	N 	0.7967	0.0522	0.4665	-0.149
Mof_N 	N 	0.9819	0.2758	0.3133	-0.271
Mof_N 	N 	0.9381	0.8508	0.4426	-0.279
Mof_N 	N 	0.8714	0.6718	0.3973	-0.267
Mof_N 	N 	0.6795	0.4464	0.273	-0.141
Mof_N 	N 	0.5141	0.368	0.2474	-0.132
Mof_N 	N 	0.552	0.4724	0.3129	-0.138
Mof_N 	N 	0.6888	0.2528	0.1372	-0.273
Mof_N 	N 	0.1862	0.369	0.2765	-0.272
_end
