data_functionalizedCrystal
_audit_creation_method	'EQeq! by Chris Wilmer'
_symmetry_space_group_name_H-M	'P1'
_symmetry_Int_Tables_number	1
_symmetry_cell_setting	triclinic
loop_
_symmetry_equiv_pos_as_xyz
  x,y,z
_cell_length_a	8.8639
_cell_length_b	20.659
_cell_length_c	34.061
_cell_angle_alpha	90
_cell_angle_beta	90
_cell_angle_gamma	90
loop_
_atom_site_label
_atom_site_type_symbol
_atom_site_fract_x
_atom_site_fract_y
_atom_site_fract_z
_atom_site_charge
Mof_O 	O 	0.7392	0.33332	0.67937	-0.563
Mof_O 	O 	0.5065	0.45795	0.615	-0.582
Mof_O 	O 	0.5052	0.335	0.65711	-0.592
Mof_C 	C 	0.6033	0.3203	0.68237	0.556
Mof_C 	C 	0.5471	0.2844	0.71753	-0.153
Mof_C 	C 	0.5997	0.2323	0.77878	0.021
Mof_H 	H 	0.6683	0.22	0.798	0.027
Mof_C 	C 	0.6497	0.2678	0.74641	-0.004
Mof_H 	H 	0.7503	0.2801	0.7443	0.046
Mof_C 	C 	0.7595	0.591	0.62523	0.007
Mof_H 	H 	0.8501	0.5683	0.6257	0.037
Mof_O 	O 	0.7392	0.83332	0.17937	-0.564
Mof_O 	O 	0.5065	0.95795	0.115	-0.583
Mof_O 	O 	0.5052	0.835	0.15711	-0.593
Mof_C 	C 	0.6033	0.8203	0.18237	0.554
Mof_C 	C 	0.5471	0.7844	0.21753	-0.153
Mof_C 	C 	0.5997	0.7323	0.27878	0.021
Mof_H 	H 	0.6683	0.72	0.298	0.027
Mof_C 	C 	0.6497	0.7678	0.24641	-0.004
Mof_H 	H 	0.7503	0.7801	0.2443	0.045
Mof_C 	C 	0.7595	0.091	0.12523	0.007
Mof_H 	H 	0.8501	0.0683	0.1257	0.037
Mof_O 	O 	0.2392	0.33332	0.17937	-0.564
Mof_O 	O 	0.0065	0.45795	0.115	-0.583
Mof_O 	O 	0.0052	0.335	0.15711	-0.593
Mof_C 	C 	0.1033	0.3203	0.18237	0.556
Mof_C 	C 	0.0471	0.2844	0.21753	-0.156
Mof_C 	C 	0.0997	0.2323	0.27878	0.015
Mof_H 	H 	0.1683	0.22	0.298	0.029
Mof_C 	C 	0.1497	0.2678	0.24641	-0
Mof_H 	H 	0.2503	0.2801	0.2443	0.044
Mof_C 	C 	0.2595	0.591	0.12523	0.008
Mof_H 	H 	0.3501	0.5683	0.1257	0.037
Mof_O 	O 	0.2392	0.83332	0.67937	-0.564
Mof_O 	O 	0.0065	0.95795	0.615	-0.582
Mof_O 	O 	0.0052	0.835	0.65711	-0.59
Mof_C 	C 	0.1033	0.8203	0.68237	0.553
Mof_C 	C 	0.0471	0.7844	0.71753	-0.148
Mof_C 	C 	0.0997	0.7323	0.77878	0.025
Mof_H 	H 	0.1683	0.72	0.798	0.026
Mof_C 	C 	0.1497	0.7678	0.74641	-0.007
Mof_H 	H 	0.2503	0.7801	0.7443	0.047
Mof_C 	C 	0.2595	0.091	0.62523	0.01
Mof_H 	H 	0.3501	0.0683	0.6257	0.036
Mof_O 	O 	0.0108	0.41668	0.67937	-0.564
Mof_O 	O 	0.2435	0.29205	0.615	-0.583
Mof_O 	O 	0.2448	0.415	0.65711	-0.593
Mof_C 	C 	0.1467	0.4297	0.68237	0.554
Mof_C 	C 	0.2029	0.4656	0.71753	-0.152
Mof_C 	C 	0.1503	0.5177	0.77878	0.021
Mof_H 	H 	0.0817	0.53	0.798	0.027
Mof_C 	C 	0.1003	0.4822	0.74641	-0.004
Mof_H 	H 	0.9997	0.4699	0.7443	0.046
Mof_C 	C 	0.9905	0.159	0.62523	0.006
Mof_H 	H 	0.8999	0.1817	0.6257	0.038
Mof_O 	O 	0.0108	0.91668	0.17937	-0.562
Mof_O 	O 	0.2435	0.79205	0.115	-0.583
Mof_O 	O 	0.2448	0.915	0.15711	-0.593
Mof_C 	C 	0.1467	0.9297	0.18237	0.557
Mof_C 	C 	0.2029	0.9656	0.21753	-0.16
Mof_C 	C 	0.1503	0.0177	0.27878	0.009
Mof_H 	H 	0.0817	0.03	0.298	0.031
Mof_C 	C 	0.1003	0.9822	0.24641	0.011
Mof_H 	H 	0.9997	0.9699	0.2443	0.038
Mof_C 	C 	0.9905	0.659	0.12523	0.004
Mof_H 	H 	0.8999	0.6817	0.1257	0.038
Mof_O 	O 	0.5108	0.41668	0.17937	-0.564
Mof_O 	O 	0.7435	0.29205	0.115	-0.583
Mof_O 	O 	0.7448	0.415	0.15711	-0.593
Mof_C 	C 	0.6467	0.4297	0.18237	0.555
Mof_C 	C 	0.7029	0.4656	0.21753	-0.153
Mof_C 	C 	0.6503	0.5177	0.27878	0.02
Mof_H 	H 	0.5817	0.53	0.298	0.027
Mof_C 	C 	0.6003	0.4822	0.24641	-0.003
Mof_H 	H 	0.4997	0.4699	0.2443	0.046
Mof_C 	C 	0.4905	0.159	0.12523	0.008
Mof_H 	H 	0.3999	0.1817	0.1257	0.037
Mof_O 	O 	0.5108	0.91668	0.67937	-0.563
Mof_O 	O 	0.7435	0.79205	0.615	-0.583
Mof_O 	O 	0.7448	0.915	0.65711	-0.592
Mof_C 	C 	0.6467	0.9297	0.68237	0.552
Mof_C 	C 	0.7029	0.9656	0.71753	-0.146
Mof_C 	C 	0.6503	0.0177	0.77878	0.029
Mof_H 	H 	0.5817	0.03	0.798	0.024
Mof_C 	C 	0.6003	0.9822	0.74641	-0.012
Mof_H 	H 	0.4997	0.9699	0.7443	0.048
Mof_C 	C 	0.4905	0.659	0.62523	0.007
Mof_H 	H 	0.3999	0.6817	0.6257	0.037
Mof_O 	O 	0.0108	0.33332	0.07063	-0.564
Mof_O 	O 	0.2435	0.45795	0.135	-0.583
Mof_O 	O 	0.2448	0.335	0.09289	-0.593
Mof_C 	C 	0.1467	0.3203	0.06763	0.555
Mof_C 	C 	0.2029	0.2844	0.03247	-0.153
Mof_C 	C 	0.1503	0.2323	0.97122	0.019
Mof_H 	H 	0.0817	0.22	0.952	0.027
Mof_C 	C 	0.1003	0.2678	0.00359	-0.003
Mof_H 	H 	0.9997	0.2801	0.0057	0.045
Mof_C 	C 	0.9905	0.591	0.12477	0.007
Mof_H 	H 	0.8999	0.5683	0.1243	0.037
Mof_O 	O 	0.0108	0.83332	0.57063	-0.562
Mof_O 	O 	0.2435	0.95795	0.635	-0.584
Mof_O 	O 	0.2448	0.835	0.59289	-0.593
Mof_C 	C 	0.1467	0.8203	0.56763	0.555
Mof_C 	C 	0.2029	0.7844	0.53247	-0.155
Mof_C 	C 	0.1503	0.7323	0.47122	0.018
Mof_H 	H 	0.0817	0.72	0.452	0.028
Mof_C 	C 	0.1003	0.7678	0.50359	0.001
Mof_H 	H 	0.9997	0.7801	0.5057	0.043
Mof_C 	C 	0.9905	0.091	0.62477	0.011
Mof_H 	H 	0.8999	0.0683	0.6243	0.036
Mof_O 	O 	0.5108	0.33332	0.57063	-0.564
Mof_O 	O 	0.7435	0.45795	0.635	-0.583
Mof_O 	O 	0.7448	0.335	0.59289	-0.592
Mof_C 	C 	0.6467	0.3203	0.56763	0.554
Mof_C 	C 	0.7029	0.2844	0.53247	-0.151
Mof_C 	C 	0.6503	0.2323	0.47122	0.023
Mof_H 	H 	0.5817	0.22	0.452	0.027
Mof_C 	C 	0.6003	0.2678	0.50359	-0.005
Mof_H 	H 	0.4997	0.2801	0.5057	0.046
Mof_C 	C 	0.4905	0.591	0.62477	0.007
Mof_H 	H 	0.3999	0.5683	0.6243	0.037
Mof_O 	O 	0.5108	0.83332	0.07063	-0.564
Mof_O 	O 	0.7435	0.95795	0.135	-0.583
Mof_O 	O 	0.7448	0.835	0.09289	-0.592
Mof_C 	C 	0.6467	0.8203	0.06763	0.554
Mof_C 	C 	0.7029	0.7844	0.03247	-0.152
Mof_C 	C 	0.6503	0.7323	0.97122	0.022
Mof_H 	H 	0.5817	0.72	0.952	0.027
Mof_C 	C 	0.6003	0.7678	0.00359	-0.005
Mof_H 	H 	0.4997	0.7801	0.0057	0.046
Mof_C 	C 	0.4905	0.091	0.12477	0.007
Mof_H 	H 	0.3999	0.0683	0.1243	0.037
Mof_O 	O 	0.7392	0.41668	0.07063	-0.564
Mof_O 	O 	0.5065	0.29205	0.135	-0.583
Mof_O 	O 	0.5052	0.415	0.09289	-0.593
Mof_C 	C 	0.6033	0.4297	0.06763	0.555
Mof_C 	C 	0.5471	0.4656	0.03247	-0.153
Mof_C 	C 	0.5997	0.5177	0.97122	0.021
Mof_H 	H 	0.6683	0.53	0.952	0.027
Mof_C 	C 	0.6497	0.4822	0.00359	-0.004
Mof_H 	H 	0.7503	0.4699	0.0057	0.046
Mof_C 	C 	0.7595	0.159	0.12477	0.008
Mof_H 	H 	0.8501	0.1817	0.1243	0.037
Mof_O 	O 	0.7392	0.91668	0.57063	-0.564
Mof_O 	O 	0.5065	0.79205	0.635	-0.583
Mof_O 	O 	0.5052	0.915	0.59289	-0.593
Mof_C 	C 	0.6033	0.9297	0.56763	0.554
Mof_C 	C 	0.5471	0.9656	0.53247	-0.153
Mof_C 	C 	0.5997	0.0177	0.47122	0.022
Mof_H 	H 	0.6683	0.03	0.452	0.027
Mof_C 	C 	0.6497	0.9822	0.50359	-0.004
Mof_H 	H 	0.7503	0.9699	0.5057	0.045
Mof_C 	C 	0.7595	0.659	0.62477	0.007
Mof_H 	H 	0.8501	0.6817	0.6243	0.037
Mof_O 	O 	0.2392	0.41668	0.57063	-0.564
Mof_O 	O 	0.0065	0.29205	0.635	-0.584
Mof_O 	O 	0.0052	0.415	0.59289	-0.593
Mof_C 	C 	0.1033	0.4297	0.56763	0.554
Mof_C 	C 	0.0471	0.4656	0.53247	-0.153
Mof_C 	C 	0.0997	0.5177	0.47122	0.02
Mof_H 	H 	0.1683	0.53	0.452	0.027
Mof_C 	C 	0.1497	0.4822	0.50359	-0.004
Mof_H 	H 	0.2503	0.4699	0.5057	0.046
Mof_C 	C 	0.2595	0.159	0.62477	0.006
Mof_H 	H 	0.3501	0.1817	0.6243	0.038
Mof_O 	O 	0.2392	0.91668	0.07063	-0.564
Mof_O 	O 	0.0065	0.79205	0.135	-0.581
Mof_O 	O 	0.0052	0.915	0.09289	-0.59
Mof_C 	C 	0.1033	0.9297	0.06763	0.553
Mof_C 	C 	0.0471	0.9656	0.03247	-0.148
Mof_C 	C 	0.0997	0.0177	0.97122	0.012
Mof_H 	H 	0.1683	0.03	0.952	0.029
Mof_C 	C 	0.1497	0.9822	0.00359	0
Mof_H 	H 	0.2503	0.9699	0.0057	0.044
Mof_C 	C 	0.2595	0.659	0.12477	0.006
Mof_H 	H 	0.3501	0.6817	0.1243	0.037
Mof_O 	O 	0.2608	0.66668	0.32063	-0.564
Mof_O 	O 	0.4935	0.54205	0.385	-0.583
Mof_O 	O 	0.4948	0.665	0.34289	-0.593
Mof_C 	C 	0.3967	0.6797	0.31763	0.555
Mof_C 	C 	0.4529	0.7156	0.28247	-0.153
Mof_C 	C 	0.4003	0.7677	0.22122	0.021
Mof_H 	H 	0.3317	0.78	0.202	0.027
Mof_C 	C 	0.3503	0.7322	0.25359	-0.004
Mof_H 	H 	0.2497	0.7199	0.2557	0.046
Mof_C 	C 	0.2405	0.409	0.37477	0.007
Mof_H 	H 	0.1499	0.4317	0.3743	0.037
Mof_O 	O 	0.2608	0.16668	0.82063	-0.564
Mof_O 	O 	0.4935	0.04205	0.885	-0.583
Mof_O 	O 	0.4948	0.165	0.84289	-0.593
Mof_C 	C 	0.3967	0.1797	0.81763	0.554
Mof_C 	C 	0.4529	0.2156	0.78247	-0.153
Mof_C 	C 	0.4003	0.2677	0.72122	0.021
Mof_H 	H 	0.3317	0.28	0.702	0.027
Mof_C 	C 	0.3503	0.2322	0.75359	-0.004
Mof_H 	H 	0.2497	0.2199	0.7557	0.045
Mof_C 	C 	0.2405	0.909	0.87477	0.007
Mof_H 	H 	0.1499	0.9317	0.8743	0.037
Mof_O 	O 	0.7608	0.66668	0.82063	-0.564
Mof_O 	O 	0.9935	0.54205	0.885	-0.583
Mof_O 	O 	0.9948	0.665	0.84289	-0.593
Mof_C 	C 	0.8967	0.6797	0.81763	0.556
Mof_C 	C 	0.9529	0.7156	0.78247	-0.156
Mof_C 	C 	0.9003	0.7677	0.72122	0.015
Mof_H 	H 	0.8317	0.78	0.702	0.029
Mof_C 	C 	0.8503	0.7322	0.75359	-0
Mof_H 	H 	0.7497	0.7199	0.7557	0.044
Mof_C 	C 	0.7405	0.409	0.87477	0.008
Mof_H 	H 	0.6499	0.4317	0.8743	0.037
Mof_O 	O 	0.7608	0.16668	0.32063	-0.564
Mof_O 	O 	0.9935	0.04205	0.385	-0.582
Mof_O 	O 	0.9948	0.165	0.34289	-0.59
Mof_C 	C 	0.8967	0.1797	0.31763	0.553
Mof_C 	C 	0.9529	0.2156	0.28247	-0.148
Mof_C 	C 	0.9003	0.2677	0.22122	0.025
Mof_H 	H 	0.8317	0.28	0.202	0.026
Mof_C 	C 	0.8503	0.2322	0.25359	-0.007
Mof_H 	H 	0.7497	0.2199	0.2557	0.047
Mof_C 	C 	0.7405	0.909	0.37477	0.01
Mof_H 	H 	0.6499	0.9317	0.3743	0.036
Mof_O 	O 	0.9892	0.58332	0.32063	-0.564
Mof_O 	O 	0.7565	0.70795	0.385	-0.583
Mof_O 	O 	0.7552	0.585	0.34289	-0.593
Mof_C 	C 	0.8533	0.5703	0.31763	0.554
Mof_C 	C 	0.7971	0.5344	0.28247	-0.152
Mof_C 	C 	0.8497	0.4823	0.22122	0.021
Mof_H 	H 	0.9183	0.47	0.202	0.027
Mof_C 	C 	0.8997	0.5178	0.25359	-0.004
Mof_H 	H 	0.0003	0.5301	0.2557	0.046
Mof_C 	C 	0.0095	0.841	0.37477	0.006
Mof_H 	H 	0.1001	0.8183	0.3743	0.038
Mof_O 	O 	0.9892	0.08332	0.82063	-0.562
Mof_O 	O 	0.7565	0.20795	0.885	-0.583
Mof_O 	O 	0.7552	0.085	0.84289	-0.593
Mof_C 	C 	0.8533	0.0703	0.81763	0.557
Mof_C 	C 	0.7971	0.0344	0.78247	-0.16
Mof_C 	C 	0.8497	0.9823	0.72122	0.009
Mof_H 	H 	0.9183	0.97	0.702	0.031
Mof_C 	C 	0.8997	0.0178	0.75359	0.011
Mof_H 	H 	0.0003	0.0301	0.7557	0.038
Mof_C 	C 	0.0095	0.341	0.87477	0.004
Mof_H 	H 	0.1001	0.3183	0.8743	0.038
Mof_O 	O 	0.4892	0.58332	0.82063	-0.564
Mof_O 	O 	0.2565	0.70795	0.885	-0.583
Mof_O 	O 	0.2552	0.585	0.84289	-0.593
Mof_C 	C 	0.3533	0.5703	0.81763	0.555
Mof_C 	C 	0.2971	0.5344	0.78247	-0.153
Mof_C 	C 	0.3497	0.4823	0.72122	0.02
Mof_H 	H 	0.4183	0.47	0.702	0.027
Mof_C 	C 	0.3997	0.5178	0.75359	-0.003
Mof_H 	H 	0.5003	0.5301	0.7557	0.046
Mof_C 	C 	0.5095	0.841	0.87477	0.008
Mof_H 	H 	0.6001	0.8183	0.8743	0.037
Mof_O 	O 	0.4892	0.08332	0.32063	-0.563
Mof_O 	O 	0.2565	0.20795	0.385	-0.583
Mof_O 	O 	0.2552	0.085	0.34289	-0.592
Mof_C 	C 	0.3533	0.0703	0.31763	0.552
Mof_C 	C 	0.2971	0.0344	0.28247	-0.146
Mof_C 	C 	0.3497	0.9823	0.22122	0.029
Mof_H 	H 	0.4183	0.97	0.202	0.024
Mof_C 	C 	0.3997	0.0178	0.25359	-0.012
Mof_H 	H 	0.5003	0.0301	0.2557	0.048
Mof_C 	C 	0.5095	0.341	0.37477	0.007
Mof_H 	H 	0.6001	0.3183	0.3743	0.037
Mof_O 	O 	0.9892	0.66668	0.92937	-0.564
Mof_O 	O 	0.7565	0.54205	0.865	-0.583
Mof_O 	O 	0.7552	0.665	0.90711	-0.593
Mof_C 	C 	0.8533	0.6797	0.93237	0.555
Mof_C 	C 	0.7971	0.7156	0.96753	-0.153
Mof_C 	C 	0.8497	0.7677	0.02878	0.019
Mof_H 	H 	0.9183	0.78	0.048	0.027
Mof_C 	C 	0.8997	0.7322	0.99641	-0.003
Mof_H 	H 	0.0003	0.7199	0.9943	0.045
Mof_C 	C 	0.0095	0.409	0.87523	0.007
Mof_H 	H 	0.1001	0.4317	0.8757	0.037
Mof_O 	O 	0.9892	0.16668	0.42937	-0.562
Mof_O 	O 	0.7565	0.04205	0.365	-0.584
Mof_O 	O 	0.7552	0.165	0.40711	-0.593
Mof_C 	C 	0.8533	0.1797	0.43237	0.555
Mof_C 	C 	0.7971	0.2156	0.46753	-0.155
Mof_C 	C 	0.8497	0.2677	0.52878	0.018
Mof_H 	H 	0.9183	0.28	0.548	0.028
Mof_C 	C 	0.8997	0.2322	0.49641	0.001
Mof_H 	H 	0.0003	0.2199	0.4943	0.043
Mof_C 	C 	0.0095	0.909	0.37523	0.011
Mof_H 	H 	0.1001	0.9317	0.3757	0.036
Mof_O 	O 	0.4892	0.66668	0.42937	-0.564
Mof_O 	O 	0.2565	0.54205	0.365	-0.583
Mof_O 	O 	0.2552	0.665	0.40711	-0.592
Mof_C 	C 	0.3533	0.6797	0.43237	0.554
Mof_C 	C 	0.2971	0.7156	0.46753	-0.151
Mof_C 	C 	0.3497	0.7677	0.52878	0.023
Mof_H 	H 	0.4183	0.78	0.548	0.027
Mof_C 	C 	0.3997	0.7322	0.49641	-0.005
Mof_H 	H 	0.5003	0.7199	0.4943	0.046
Mof_C 	C 	0.5095	0.409	0.37523	0.007
Mof_H 	H 	0.6001	0.4317	0.3757	0.037
Mof_O 	O 	0.4892	0.16668	0.92937	-0.564
Mof_O 	O 	0.2565	0.04205	0.865	-0.583
Mof_O 	O 	0.2552	0.165	0.90711	-0.592
Mof_C 	C 	0.3533	0.1797	0.93237	0.554
Mof_C 	C 	0.2971	0.2156	0.96753	-0.152
Mof_C 	C 	0.3497	0.2677	0.02878	0.022
Mof_H 	H 	0.4183	0.28	0.048	0.027
Mof_C 	C 	0.3997	0.2322	0.99641	-0.005
Mof_H 	H 	0.5003	0.2199	0.9943	0.046
Mof_C 	C 	0.5095	0.909	0.87523	0.007
Mof_H 	H 	0.6001	0.9317	0.8757	0.037
Mof_O 	O 	0.2608	0.58332	0.92937	-0.564
Mof_O 	O 	0.4935	0.70795	0.865	-0.583
Mof_O 	O 	0.4948	0.585	0.90711	-0.593
Mof_C 	C 	0.3967	0.5703	0.93237	0.555
Mof_C 	C 	0.4529	0.5344	0.96753	-0.153
Mof_C 	C 	0.4003	0.4823	0.02878	0.021
Mof_H 	H 	0.3317	0.47	0.048	0.027
Mof_C 	C 	0.3503	0.5178	0.99641	-0.004
Mof_H 	H 	0.2497	0.5301	0.9943	0.046
Mof_C 	C 	0.2405	0.841	0.87523	0.008
Mof_H 	H 	0.1499	0.8183	0.8757	0.037
Mof_O 	O 	0.2608	0.08332	0.42937	-0.564
Mof_O 	O 	0.4935	0.20795	0.365	-0.583
Mof_O 	O 	0.4948	0.085	0.40711	-0.593
Mof_C 	C 	0.3967	0.0703	0.43237	0.554
Mof_C 	C 	0.4529	0.0344	0.46753	-0.153
Mof_C 	C 	0.4003	0.9823	0.52878	0.022
Mof_H 	H 	0.3317	0.97	0.548	0.027
Mof_C 	C 	0.3503	0.0178	0.49641	-0.004
Mof_H 	H 	0.2497	0.0301	0.4943	0.045
Mof_C 	C 	0.2405	0.341	0.37523	0.007
Mof_H 	H 	0.1499	0.3183	0.3757	0.037
Mof_O 	O 	0.7608	0.58332	0.42937	-0.564
Mof_O 	O 	0.9935	0.70795	0.365	-0.584
Mof_O 	O 	0.9948	0.585	0.40711	-0.593
Mof_C 	C 	0.8967	0.5703	0.43237	0.554
Mof_C 	C 	0.9529	0.5344	0.46753	-0.153
Mof_C 	C 	0.9003	0.4823	0.52878	0.02
Mof_H 	H 	0.8317	0.47	0.548	0.027
Mof_C 	C 	0.8503	0.5178	0.49641	-0.004
Mof_H 	H 	0.7497	0.5301	0.4943	0.046
Mof_C 	C 	0.7405	0.841	0.37523	0.006
Mof_H 	H 	0.6499	0.8183	0.3757	0.038
Mof_O 	O 	0.7608	0.08332	0.92937	-0.564
Mof_O 	O 	0.9935	0.20795	0.865	-0.581
Mof_O 	O 	0.9948	0.085	0.90711	-0.59
Mof_C 	C 	0.8967	0.0703	0.93237	0.553
Mof_C 	C 	0.9529	0.0344	0.96753	-0.148
Mof_C 	C 	0.9003	0.9823	0.02878	0.012
Mof_H 	H 	0.8317	0.97	0.048	0.029
Mof_C 	C 	0.8503	0.0178	0.99641	0
Mof_H 	H 	0.7497	0.0301	0.9943	0.044
Mof_C 	C 	0.7405	0.341	0.87523	0.006
Mof_H 	H 	0.6499	0.3183	0.8757	0.037
Mof_Sc	Sc	0.375	0.375	0.61412	1.992
Mof_Sc	Sc	0.375	0.875	0.11412	1.992
Mof_Sc	Sc	0.875	0.375	0.11412	1.991
Mof_Sc	Sc	0.875	0.875	0.61412	1.986
Mof_Sc	Sc	0.375	0.375	0.13588	1.992
Mof_Sc	Sc	0.375	0.875	0.63588	1.992
Mof_Sc	Sc	0.875	0.375	0.63588	1.992
Mof_Sc	Sc	0.875	0.875	0.13588	1.985
Mof_Sc	Sc	0.625	0.625	0.38588	1.992
Mof_Sc	Sc	0.625	0.125	0.88588	1.992
Mof_Sc	Sc	0.125	0.625	0.88588	1.991
Mof_Sc	Sc	0.125	0.125	0.38588	1.986
Mof_Sc	Sc	0.625	0.625	0.86412	1.992
Mof_Sc	Sc	0.625	0.125	0.36412	1.992
Mof_Sc	Sc	0.125	0.625	0.36412	1.992
Mof_Sc	Sc	0.125	0.125	0.86412	1.985
Mof_C 	C 	0.625	0.5583	0.625	-0.15
Mof_C 	C 	0.625	0.4854	0.625	0.567
Mof_C 	C 	0.625	0.0583	0.125	-0.149
Mof_C 	C 	0.625	0.9854	0.125	0.566
Mof_C 	C 	0.125	0.1917	0.625	-0.15
Mof_C 	C 	0.125	0.2646	0.625	0.566
Mof_C 	C 	0.125	0.6917	0.125	-0.147
Mof_C 	C 	0.125	0.7646	0.125	0.565
Mof_C 	C 	0.625	0.6917	0.625	-0.15
Mof_C 	C 	0.625	0.7646	0.625	0.566
Mof_C 	C 	0.125	0.5583	0.125	-0.149
Mof_C 	C 	0.125	0.4854	0.125	0.566
Mof_C 	C 	0.125	0.0583	0.625	-0.155
Mof_C 	C 	0.125	0.9854	0.625	0.569
Mof_C 	C 	0.625	0.1917	0.125	-0.15
Mof_C 	C 	0.625	0.2646	0.125	0.567
Mof_C 	C 	0.375	0.4417	0.375	-0.15
Mof_C 	C 	0.375	0.5146	0.375	0.567
Mof_C 	C 	0.375	0.9417	0.875	-0.149
Mof_C 	C 	0.375	0.0146	0.875	0.566
Mof_C 	C 	0.875	0.8083	0.375	-0.15
Mof_C 	C 	0.875	0.7354	0.375	0.566
Mof_C 	C 	0.875	0.3083	0.875	-0.147
Mof_C 	C 	0.875	0.2354	0.875	0.565
Mof_C 	C 	0.875	0.4417	0.875	-0.149
Mof_C 	C 	0.875	0.5146	0.875	0.566
Mof_C 	C 	0.875	0.9417	0.375	-0.155
Mof_C 	C 	0.875	0.0146	0.375	0.569
Mof_C 	C 	0.375	0.8083	0.875	-0.15
Mof_C 	C 	0.375	0.7354	0.875	0.567
Mof_C 	C 	0.375	0.3083	0.375	-0.15
Mof_C 	C 	0.375	0.2354	0.375	0.566
_end
