# CIF file generated by openbabel 3.1.0, see https://openbabel.org
data_I
_chemical_name_common 'GAJZOI_clean'
_cell_length_a 5.534
_cell_length_b 13.436
_cell_length_c 20.891
_cell_angle_alpha 90
_cell_angle_beta 96.159
_cell_angle_gamma 90
_space_group_name_H-M_alt 'P 1'
_space_group_name_Hall 'P 1'
loop_
    _symmetry_equiv_pos_as_xyz
    x,y,z
loop_
    _atom_site_label
    _atom_site_type_symbol
    _atom_site_fract_x
    _atom_site_fract_y
    _atom_site_fract_z
    _atom_site_occupancy
    Gd1      Gd       0.62624    0.13165    0.97231    1.000
    Gd2      Gd       0.37376    0.63165    0.52769    1.000
    Gd3      Gd       0.37376    0.86835    0.02769    1.000
    Gd4      Gd       0.62624    0.36835    0.47231    1.000
    P1       P        0.91360    0.02230    0.08645    1.000
    P2       P        0.08640    0.52230    0.41355    1.000
    P3       P        0.08640    0.97770    0.91355    1.000
    P4       P        0.91360    0.47770    0.58645    1.000
    H1       H        0.77070    0.97380    0.18150    1.000
    H2       H        0.67910    0.08110    0.16330    1.000
    H3       H        0.76630    0.09660    0.28180    1.000
    H4       H        0.90590    0.99490    0.28820    1.000
    H5       H        0.03630    0.09810    0.37310    1.000
    H6       H        0.25150    0.07320    0.33270    1.000
    H7       H        0.98680    0.25350    0.32480    1.000
    H8       H        0.22690    0.30400    0.24740    1.000
    H9       H        0.36840    0.20270    0.25280    1.000
    H10      H        0.07900    0.19860    0.16180    1.000
    H11      H        0.86950    0.22070    0.20500    1.000
    H12      H        0.22930    0.47380    0.31850    1.000
    H13      H        0.32090    0.58110    0.33670    1.000
    H14      H        0.23370    0.59660    0.21820    1.000
    H15      H        0.09410    0.49490    0.21180    1.000
    H16      H        0.96370    0.59810    0.12690    1.000
    H17      H        0.74850    0.57320    0.16730    1.000
    H18      H        0.01320    0.75350    0.17520    1.000
    H19      H        0.77310    0.80400    0.25260    1.000
    H20      H        0.63160    0.70270    0.24720    1.000
    H21      H        0.92100    0.69860    0.33820    1.000
    H22      H        0.13050    0.72070    0.29500    1.000
    H23      H        0.22930    0.02620    0.81850    1.000
    H24      H        0.32090    0.91890    0.83670    1.000
    H25      H        0.23370    0.90340    0.71820    1.000
    H26      H        0.09410    0.00510    0.71180    1.000
    H27      H        0.96370    0.90190    0.62690    1.000
    H28      H        0.74850    0.92680    0.66730    1.000
    H29      H        0.01320    0.74650    0.67520    1.000
    H30      H        0.77310    0.69600    0.75260    1.000
    H31      H        0.63160    0.79730    0.74720    1.000
    H32      H        0.92100    0.80140    0.83820    1.000
    H33      H        0.13050    0.77930    0.79500    1.000
    H34      H        0.77070    0.52620    0.68150    1.000
    H35      H        0.67910    0.41890    0.66330    1.000
    H36      H        0.76630    0.40340    0.78180    1.000
    H37      H        0.90590    0.50510    0.78820    1.000
    H38      H        0.03630    0.40190    0.87310    1.000
    H39      H        0.25150    0.42680    0.83270    1.000
    H40      H        0.98680    0.24650    0.82480    1.000
    H41      H        0.22690    0.19600    0.74740    1.000
    H42      H        0.36840    0.29730    0.75280    1.000
    H43      H        0.07900    0.30140    0.66180    1.000
    H44      H        0.86950    0.27930    0.70500    1.000
    C1       C        0.82100    0.03820    0.16670    1.000
    C2       C        0.92400    0.06560    0.28040    1.000
    C3       C        0.09800    0.10830    0.33180    1.000
    C4       C        0.14200    0.21950    0.32270    1.000
    C5       C        0.21100    0.23340    0.25570    1.000
    C6       C        0.02600    0.18830    0.20410    1.000
    C7       C        0.32200    0.26400    0.37470    1.000
    C8       C        0.17900    0.53820    0.33330    1.000
    C9       C        0.07600    0.56560    0.21960    1.000
    C10      C        0.90200    0.60830    0.16820    1.000
    C11      C        0.85800    0.71950    0.17730    1.000
    C12      C        0.78900    0.73340    0.24430    1.000
    C13      C        0.97400    0.68830    0.29590    1.000
    C14      C        0.67800    0.76400    0.12530    1.000
    C15      C        0.17900    0.96180    0.83330    1.000
    C16      C        0.07600    0.93440    0.71960    1.000
    C17      C        0.90200    0.89170    0.66820    1.000
    C18      C        0.85800    0.78050    0.67730    1.000
    C19      C        0.78900    0.76660    0.74430    1.000
    C20      C        0.97400    0.81170    0.79590    1.000
    C21      C        0.67800    0.73600    0.62530    1.000
    C22      C        0.82100    0.46180    0.66670    1.000
    C23      C        0.92400    0.43440    0.78040    1.000
    C24      C        0.09800    0.39170    0.83180    1.000
    C25      C        0.14200    0.28050    0.82270    1.000
    C26      C        0.21100    0.26660    0.75570    1.000
    C27      C        0.02600    0.31170    0.70410    1.000
    C28      C        0.32200    0.23600    0.87470    1.000
    N1       N        0.00210    0.07990    0.21650    1.000
    N2       N        0.99790    0.57990    0.28350    1.000
    N3       N        0.99790    0.92010    0.78350    1.000
    N4       N        0.00210    0.42010    0.71650    1.000
    O1       O        0.68210    0.98130    0.04560    1.000
    O2       O        0.95920    0.12240    0.05730    1.000
    O3       O        0.12730    0.95360    0.09030    1.000
    O4       O        0.29760    0.24780    0.43310    1.000
    O5       O        0.49810    0.31690    0.35970    1.000
    O6       O        0.31790    0.48130    0.45440    1.000
    O7       O        0.04080    0.62240    0.44270    1.000
    O8       O        0.87270    0.45360    0.40970    1.000
    O9       O        0.70240    0.74780    0.06690    1.000
    O10      O        0.50190    0.81690    0.14030    1.000
    O11      O        0.31790    0.01870    0.95440    1.000
    O12      O        0.04080    0.87760    0.94270    1.000
    O13      O        0.87270    0.04640    0.90970    1.000
    O14      O        0.70240    0.75220    0.56690    1.000
    O15      O        0.50190    0.68310    0.64030    1.000
    O16      O        0.68210    0.51870    0.54560    1.000
    O17      O        0.95920    0.37760    0.55730    1.000
    O18      O        0.12730    0.54640    0.59030    1.000
    O19      O        0.29760    0.25220    0.93310    1.000
    O20      O        0.49810    0.18310    0.85970    1.000
