# CIF file generated by openbabel 3.1.0, see https://openbabel.org
data_I
_chemical_name_common 'XADFAL_clean'
_cell_length_a 9.747
_cell_length_b 9.747
_cell_length_c 14.7695
_cell_angle_alpha 100.16
_cell_angle_beta 100.16
_cell_angle_gamma 107.053
_space_group_name_H-M_alt 'P 1'
_space_group_name_Hall 'P 1'
loop_
    _symmetry_equiv_pos_as_xyz
    x,y,z
loop_
    _atom_site_label
    _atom_site_type_symbol
    _atom_site_fract_x
    _atom_site_fract_y
    _atom_site_fract_z
    _atom_site_occupancy
    Cu1      Cu       0.49662    0.00644    0.75704    1.000
    Cu2      Cu       0.99356    0.50338    0.74296    1.000
    Cu3      Cu       0.50338    0.99356    0.24296    1.000
    Cu4      Cu       0.00644    0.49662    0.25704    1.000
    H1       H        0.83390    0.83090    0.86860    1.000
    H2       H        0.39740    0.27320    0.76570    1.000
    H3       H        0.25980    0.39900    0.75260    1.000
    H4       H        0.16910    0.16610    0.63140    1.000
    H5       H        0.72680    0.60260    0.73430    1.000
    H6       H        0.60100    0.74020    0.74740    1.000
    H7       H        0.16610    0.16910    0.13140    1.000
    H8       H        0.60260    0.72680    0.23430    1.000
    H9       H        0.74020    0.60100    0.24740    1.000
    H10      H        0.83090    0.83390    0.36860    1.000
    H11      H        0.27320    0.39740    0.26570    1.000
    H12      H        0.39900    0.25980    0.25260    1.000
    H13      H        0.21800    0.78200    0.75000    1.000
    H14      H        0.77600    0.22400    0.75000    1.000
    H15      H        0.78200    0.21800    0.25000    1.000
    H16      H        0.22400    0.77600    0.25000    1.000
    C1       C        0.72116    0.03484    0.91890    1.000
    C2       C        0.86932    0.02328    0.96070    1.000
    C3       C        0.90073    0.89907    0.92180    1.000
    C4       C        0.97084    0.12656    0.03990    1.000
    C5       C        0.94960    0.26840    0.08330    1.000
    C6       C        0.49310    0.31150    0.75860    1.000
    C7       C        0.30077    0.49743    0.75120    1.000
    C8       C        0.96516    0.27884    0.58110    1.000
    C9       C        0.97672    0.13068    0.53930    1.000
    C10      C        0.10093    0.09927    0.57820    1.000
    C11      C        0.87344    0.02916    0.46010    1.000
    C12      C        0.73160    0.05040    0.41670    1.000
    C13      C        0.68850    0.50690    0.74140    1.000
    C14      C        0.50257    0.69923    0.74880    1.000
    C15      C        0.27884    0.96516    0.08110    1.000
    C16      C        0.13068    0.97672    0.03930    1.000
    C17      C        0.09927    0.10093    0.07820    1.000
    C18      C        0.02916    0.87344    0.96010    1.000
    C19      C        0.05040    0.73160    0.91670    1.000
    C20      C        0.50690    0.68850    0.24140    1.000
    C21      C        0.69923    0.50257    0.24880    1.000
    C22      C        0.03484    0.72116    0.41890    1.000
    C23      C        0.02328    0.86932    0.46070    1.000
    C24      C        0.89907    0.90073    0.42180    1.000
    C25      C        0.12656    0.97084    0.53990    1.000
    C26      C        0.26840    0.94960    0.58330    1.000
    C27      C        0.31150    0.49310    0.25860    1.000
    C28      C        0.49743    0.30077    0.25120    1.000
    C29      C        0.71630    0.28370    0.75000    1.000
    C30      C        0.54360    0.45640    0.75000    1.000
    C31      C        0.44890    0.55110    0.75000    1.000
    C32      C        0.27660    0.72340    0.75000    1.000
    C33      C        0.28370    0.71630    0.25000    1.000
    C34      C        0.45640    0.54360    0.25000    1.000
    C35      C        0.55110    0.44890    0.25000    1.000
    C36      C        0.72340    0.27660    0.25000    1.000
    N1       N        0.57754    0.22526    0.75681    1.000
    N2       N        0.21488    0.58232    0.75051    1.000
    N3       N        0.77474    0.42246    0.74319    1.000
    N4       N        0.41768    0.78512    0.74949    1.000
    N5       N        0.42246    0.77474    0.24319    1.000
    N6       N        0.78512    0.41768    0.24949    1.000
    N7       N        0.22526    0.57754    0.25681    1.000
    N8       N        0.58232    0.21488    0.25051    1.000
    O1       O        0.68892    0.01968    0.83058    1.000
    O2       O        0.64020    0.05080    0.97000    1.000
    O3       O        0.99312    0.31196    0.17200    1.000
    O4       O        0.89130    0.33090    0.03120    1.000
    O5       O        0.98032    0.31108    0.66942    1.000
    O6       O        0.94920    0.35980    0.53000    1.000
    O7       O        0.68804    0.00688    0.32800    1.000
    O8       O        0.66910    0.10870    0.46880    1.000
    O9       O        0.31108    0.98032    0.16942    1.000
    O10      O        0.35980    0.94920    0.03000    1.000
    O11      O        0.00688    0.68804    0.82800    1.000
    O12      O        0.10870    0.66910    0.96880    1.000
    O13      O        0.01968    0.68892    0.33058    1.000
    O14      O        0.05080    0.64020    0.47000    1.000
    O15      O        0.31196    0.99312    0.67200    1.000
    O16      O        0.33090    0.89130    0.53120    1.000
