data_functionalizedCrystal
_audit_creation_method	'EQeq! by Chris Wilmer'
_symmetry_space_group_name_H-M	'P1'
_symmetry_Int_Tables_number	1
_symmetry_cell_setting	triclinic
loop_
_symmetry_equiv_pos_as_xyz
  x,y,z
_cell_length_a	8.4358
_cell_length_b	10.074
_cell_length_c	15.079
_cell_angle_alpha	71.071
_cell_angle_beta	87.931
_cell_angle_gamma	67.631
loop_
_atom_site_label
_atom_site_type_symbol
_atom_site_fract_x
_atom_site_fract_y
_atom_site_fract_z
_atom_site_charge
Mof_N 	N 	0.7808	0.9125	0.6063	-0.238
Mof_H 	H 	0.7171	0.0082	0.5843	0.133
Mof_O 	O 	0.5753	0.3292	0.1242	-0.521
Mof_O 	O 	0.7685	0.1313	0.0905	-0.522
Mof_O 	O 	0.8322	0.394	0.8458	-0.402
Mof_O 	O 	0.7652	0.4486	0.9744	-0.478
Mof_O 	O 	0.8027	0.0913	0.8799	-0.461
Mof_O 	O 	0.9234	0.8749	0.0015	-0.524
Mof_O 	O 	0.9499	0.7074	0.5675	-0.219
Mof_C 	C 	0.7235	0.1037	0.2495	-0.118
Mof_C 	C 	0.8492	0.9571	0.2802	0.027
Mof_H 	H 	0.9084	0.9133	0.2369	0.042
Mof_C 	C 	0.8859	0.8765	0.3758	-0.072
Mof_H 	H 	0.9699	0.7779	0.396	0.076
Mof_C 	C 	0.802	0.9376	0.4417	-0.011
Mof_C 	C 	0.6754	0.0813	0.4096	-0.072
Mof_H 	H 	0.6141	0.124	0.4528	0.055
Mof_C 	C 	0.6369	0.164	0.3147	0.032
Mof_H 	H 	0.5512	0.2618	0.2948	0.035
Mof_C 	C 	0.8042	0.8405	0.7065	0.134
Mof_C 	C 	0.8069	0.6959	0.7482	-0.1
Mof_H 	H 	0.8017	0.6393	0.7112	0.1
Mof_C 	C 	0.8174	0.6347	0.8462	-0.035
Mof_C 	C 	0.8353	0.7153	0.9021	-0.011
Mof_H 	H 	0.8474	0.6729	0.9675	0.073
Mof_C 	C 	0.8346	0.8609	0.8584	-0.066
Mof_C 	C 	0.8157	0.9234	0.7614	-0.089
Mof_H 	H 	0.8107	0.022	0.7328	0.079
Mof_C 	C 	0.6855	0.1955	0.1459	0.417
Mof_C 	C 	0.8039	0.4844	0.8906	0.31
Mof_C 	C 	0.8572	0.9468	0.9183	0.426
Mof_C 	C 	0.851	0.8419	0.5434	0.205
Mof_Zn	Zn	0.81853	0.21036	0.95824	1.229
Mof_N 	N 	0.2192	0.0875	0.3937	-0.237
Mof_H 	H 	0.2829	0.9918	0.4157	0.131
Mof_O 	O 	0.4247	0.6708	0.8758	-0.48
Mof_O 	O 	0.2315	0.8687	0.9095	-0.462
Mof_O 	O 	0.1678	0.606	0.1542	-0.414
Mof_O 	O 	0.2348	0.5514	0.0256	-0.546
Mof_O 	O 	0.1973	0.9087	0.1201	-0.442
Mof_O 	O 	0.0766	0.1251	0.9985	-0.356
Mof_O 	O 	0.0501	0.2926	0.4325	-0.218
Mof_C 	C 	0.2765	0.8963	0.7505	-0.112
Mof_C 	C 	0.1508	0.0429	0.7198	0.03
Mof_H 	H 	0.0916	0.0867	0.7631	0.047
Mof_C 	C 	0.1141	0.1235	0.6242	-0.072
Mof_H 	H 	0.0301	0.2221	0.604	0.08
Mof_C 	C 	0.198	0.0624	0.5583	-0.006
Mof_C 	C 	0.3246	0.9187	0.5904	-0.075
Mof_H 	H 	0.3859	0.876	0.5472	0.056
Mof_C 	C 	0.3631	0.836	0.6853	0.033
Mof_H 	H 	0.4488	0.7382	0.7052	0.037
Mof_C 	C 	0.1958	0.1595	0.2935	0.141
Mof_C 	C 	0.1931	0.3041	0.2518	-0.105
Mof_H 	H 	0.1983	0.3607	0.2888	0.1
Mof_C 	C 	0.1826	0.3653	0.1538	-0.043
Mof_C 	C 	0.1647	0.2847	0.0979	-0.041
Mof_H 	H 	0.1526	0.3271	0.0325	0.033
Mof_C 	C 	0.1654	0.1391	0.1416	-0.028
Mof_C 	C 	0.1843	0.0766	0.2386	-0.111
Mof_H 	H 	0.1893	0.978	0.2672	0.086
Mof_C 	C 	0.3145	0.8045	0.8541	0.411
Mof_C 	C 	0.1961	0.5156	0.1094	0.314
Mof_C 	C 	0.1428	0.0532	0.0817	0.248
Mof_C 	C 	0.149	0.1581	0.4566	0.205
Mof_Zn	Zn	0.18147	0.78964	0.04176	1.202
Mof_Zn	Zn	0.5	0.5	-0	1.16
_end
