# CIF file generated by openbabel 3.1.0, see https://openbabel.org
data_I
_chemical_name_common 'image0'
_cell_length_a 14.958
_cell_length_b 14.958
_cell_length_c 9.05
_cell_angle_alpha 90
_cell_angle_beta 90
_cell_angle_gamma 90
_space_group_name_H-M_alt 'P 1'
_space_group_name_Hall 'P 1'
loop_
    _symmetry_equiv_pos_as_xyz
    x,y,z
loop_
    _atom_site_label
    _atom_site_type_symbol
    _atom_site_fract_x
    _atom_site_fract_y
    _atom_site_fract_z
    _atom_site_occupancy
    Mn1      Mn       0.50589    0.36823    0.57369    1.000
    Mn2      Mn       0.62836    0.00618    0.37762    1.000
    Mn3      Mn       0.98546    0.12389    0.55507    1.000
    Mn4      Mn       0.12751    0.51370    0.38196    1.000
    P1       P        0.34618    0.48575    0.43652    1.000
    P2       P        0.49504    0.15023    0.51818    1.000
    P3       P        0.84789    0.99793    0.41957    1.000
    P4       P        0.65514    0.01171    0.01161    1.000
    O1       O        0.38050    0.41410    0.54480    1.000
    O2       O        0.40070    0.57060    0.45120    1.000
    O3       O        0.35260    0.44710    0.28210    1.000
    O4       O        0.24940    0.50620    0.47750    1.000
    O5       O        0.50960    0.24690    0.46670    1.000
    O6       O        0.58580    0.10370    0.51880    1.000
    O7       O        0.45100    0.14740    0.66980    1.000
    O8       O        0.43380    0.11060    0.40070    1.000
    O9       O        0.75070    0.99040    0.47140    1.000
    O10      O        0.87440    0.09680    0.41910    1.000
    O11      O        0.85880    0.95270    0.27000    1.000
    O12      O        0.90430    0.95170    0.53740    1.000
    O13      O        0.64240    0.04800    0.16730    1.000
    O14      O        0.60580    0.06980    0.90160    1.000
    O15      O        0.75370    0.01880    0.96440    1.000
    O16      O        0.62460    0.91480    0.99740    1.000
    Mn5      Mn       0.49411    0.63177    0.57369    1.000
    Mn6      Mn       0.37164    0.99382    0.37762    1.000
    Mn7      Mn       0.01454    0.87611    0.55507    1.000
    Mn8      Mn       0.87249    0.48630    0.38196    1.000
    P5       P        0.65382    0.51425    0.43652    1.000
    P6       P        0.50496    0.84977    0.51818    1.000
    P7       P        0.15211    0.00207    0.41957    1.000
    P8       P        0.34486    0.98829    0.01161    1.000
    O17      O        0.61950    0.58590    0.54480    1.000
    O18      O        0.59930    0.42940    0.45120    1.000
    O19      O        0.64740    0.55290    0.28210    1.000
    O20      O        0.75060    0.49380    0.47750    1.000
    O21      O        0.49040    0.75310    0.46670    1.000
    O22      O        0.41420    0.89630    0.51880    1.000
    O23      O        0.54900    0.85260    0.66980    1.000
    O24      O        0.56620    0.88940    0.40070    1.000
    O25      O        0.24930    0.00960    0.47140    1.000
    O26      O        0.12560    0.90320    0.41910    1.000
    O27      O        0.14120    0.04730    0.27000    1.000
    O28      O        0.09570    0.04830    0.53740    1.000
    O29      O        0.35760    0.95200    0.16730    1.000
    O30      O        0.39420    0.93020    0.90160    1.000
    O31      O        0.24630    0.98120    0.96440    1.000
    O32      O        0.37540    0.08520    0.99740    1.000
    Mn9      Mn       0.63177    0.50589    0.07369    1.000
    Mn10     Mn       0.99382    0.62836    0.87762    1.000
    Mn11     Mn       0.87611    0.98546    0.05507    1.000
    Mn12     Mn       0.48630    0.12751    0.88196    1.000
    P9       P        0.51425    0.34618    0.93652    1.000
    P10      P        0.84977    0.49504    0.01818    1.000
    P11      P        0.00207    0.84789    0.91957    1.000
    P12      P        0.98829    0.65514    0.51161    1.000
    O33      O        0.58590    0.38050    0.04480    1.000
    O34      O        0.42940    0.40070    0.95120    1.000
    O35      O        0.55290    0.35260    0.78210    1.000
    O36      O        0.49380    0.24940    0.97750    1.000
    O37      O        0.75310    0.50960    0.96670    1.000
    O38      O        0.89630    0.58580    0.01880    1.000
    O39      O        0.85260    0.45100    0.16980    1.000
    O40      O        0.88940    0.43380    0.90070    1.000
    O41      O        0.00960    0.75070    0.97140    1.000
    O42      O        0.90320    0.87440    0.91910    1.000
    O43      O        0.04730    0.85880    0.77000    1.000
    O44      O        0.04830    0.90430    0.03740    1.000
    O45      O        0.95200    0.64240    0.66730    1.000
    O46      O        0.93020    0.60580    0.40160    1.000
    O47      O        0.98120    0.75370    0.46440    1.000
    O48      O        0.08520    0.62460    0.49740    1.000
    Mn13     Mn       0.36823    0.49411    0.07369    1.000
    Mn14     Mn       0.00618    0.37164    0.87762    1.000
    Mn15     Mn       0.12389    0.01454    0.05507    1.000
    Mn16     Mn       0.51370    0.87249    0.88196    1.000
    P13      P        0.48575    0.65382    0.93652    1.000
    P14      P        0.15023    0.50496    0.01818    1.000
    P15      P        0.99793    0.15211    0.91957    1.000
    P16      P        0.01171    0.34486    0.51161    1.000
    O49      O        0.41410    0.61950    0.04480    1.000
    O50      O        0.57060    0.59930    0.95120    1.000
    O51      O        0.44710    0.64740    0.78210    1.000
    O52      O        0.50620    0.75060    0.97750    1.000
    O53      O        0.24690    0.49040    0.96670    1.000
    O54      O        0.10370    0.41420    0.01880    1.000
    O55      O        0.14740    0.54900    0.16980    1.000
    O56      O        0.11060    0.56620    0.90070    1.000
    O57      O        0.99040    0.24930    0.97140    1.000
    O58      O        0.09680    0.12560    0.91910    1.000
    O59      O        0.95270    0.14120    0.77000    1.000
    O60      O        0.95170    0.09570    0.03740    1.000
    O61      O        0.04800    0.35760    0.66730    1.000
    O62      O        0.06980    0.39420    0.40160    1.000
    O63      O        0.01880    0.24630    0.46440    1.000
    O64      O        0.91480    0.37540    0.49740    1.000
