# CIF file generated by openbabel 3.1.0, see https://openbabel.org
data_I
_chemical_name_common 'image0'
_cell_length_a 10.717
_cell_length_b 23.114
_cell_length_c 10.07
_cell_angle_alpha 90
_cell_angle_beta 104.78
_cell_angle_gamma 90
_space_group_name_H-M_alt 'P 1'
_space_group_name_Hall 'P 1'
loop_
    _symmetry_equiv_pos_as_xyz
    x,y,z
loop_
    _atom_site_label
    _atom_site_type_symbol
    _atom_site_fract_x
    _atom_site_fract_y
    _atom_site_fract_z
    _atom_site_occupancy
    O1       O        0.66037    0.29437    0.85179    1.000
    H1       H        0.68980    0.26840    0.81340    1.000
    O2       O        0.53768    0.22272    0.89666    1.000
    O3       O        0.28116    0.26207    0.22534    1.000
    O4       O        0.18511    0.34815    0.21614    1.000
    C1       C        0.57446    0.27385    0.90520    1.000
    C2       C        0.51144    0.31618    0.97960    1.000
    C3       C        0.53437    0.37478    0.97050    1.000
    H2       H        0.59370    0.38740    0.92350    1.000
    C4       C        0.46927    0.41508    0.03100    1.000
    C5       C        0.36087    0.33673    0.11449    1.000
    C6       C        0.42568    0.29741    0.05260    1.000
    H3       H        0.41150    0.25800    0.06010    1.000
    C7       C        0.38155    0.39562    0.10280    1.000
    H4       H        0.33700    0.42220    0.14280    1.000
    C8       C        0.26716    0.31539    0.19150    1.000
    C9       C        0.49003    0.47529    0.01180    1.000
    O5       O        0.16037    0.79437    0.85179    1.000
    H5       H        0.18980    0.76840    0.81340    1.000
    O6       O        0.03768    0.72272    0.89666    1.000
    O7       O        0.78116    0.76207    0.22534    1.000
    O8       O        0.68511    0.84815    0.21614    1.000
    C10      C        0.07446    0.77385    0.90520    1.000
    C11      C        0.01144    0.81618    0.97960    1.000
    C12      C        0.03437    0.87478    0.97050    1.000
    H6       H        0.09370    0.88740    0.92350    1.000
    C13      C        0.96927    0.91508    0.03100    1.000
    C14      C        0.86087    0.83673    0.11449    1.000
    C15      C        0.92568    0.79741    0.05260    1.000
    H7       H        0.91150    0.75800    0.06010    1.000
    C16      C        0.88155    0.89562    0.10280    1.000
    H8       H        0.83700    0.92220    0.14280    1.000
    C17      C        0.76716    0.81539    0.19150    1.000
    C18      C        0.99003    0.97529    0.01180    1.000
    O9       O        0.33963    0.29437    0.64821    1.000
    H9       H        0.31020    0.26840    0.68660    1.000
    O10      O        0.46232    0.22272    0.60334    1.000
    O11      O        0.71884    0.26207    0.27466    1.000
    O12      O        0.81489    0.34815    0.28386    1.000
    C19      C        0.42554    0.27385    0.59480    1.000
    C20      C        0.48856    0.31618    0.52040    1.000
    C21      C        0.46563    0.37478    0.52950    1.000
    H10      H        0.40630    0.38740    0.57650    1.000
    C22      C        0.53073    0.41508    0.46900    1.000
    C23      C        0.63913    0.33673    0.38551    1.000
    C24      C        0.57432    0.29741    0.44740    1.000
    H11      H        0.58850    0.25800    0.43990    1.000
    C25      C        0.61845    0.39562    0.39720    1.000
    H12      H        0.66300    0.42220    0.35720    1.000
    C26      C        0.73284    0.31539    0.30850    1.000
    C27      C        0.50997    0.47529    0.48820    1.000
    O13      O        0.83963    0.79437    0.64821    1.000
    H13      H        0.81020    0.76840    0.68660    1.000
    O14      O        0.96232    0.72272    0.60334    1.000
    O15      O        0.21884    0.76207    0.27466    1.000
    O16      O        0.31489    0.84815    0.28386    1.000
    C28      C        0.92554    0.77385    0.59480    1.000
    C29      C        0.98856    0.81618    0.52040    1.000
    C30      C        0.96563    0.87478    0.52950    1.000
    H14      H        0.90630    0.88740    0.57650    1.000
    C31      C        0.03073    0.91508    0.46900    1.000
    C32      C        0.13913    0.83673    0.38551    1.000
    C33      C        0.07432    0.79741    0.44740    1.000
    H15      H        0.08850    0.75800    0.43990    1.000
    C34      C        0.11845    0.89562    0.39720    1.000
    H16      H        0.16300    0.92220    0.35720    1.000
    C35      C        0.23284    0.81539    0.30850    1.000
    C36      C        0.00997    0.97529    0.48820    1.000
    O17      O        0.33963    0.70563    0.14821    1.000
    H17      H        0.31020    0.73160    0.18660    1.000
    O18      O        0.46232    0.77728    0.10334    1.000
    O19      O        0.71884    0.73793    0.77466    1.000
    O20      O        0.81489    0.65185    0.78386    1.000
    C37      C        0.42554    0.72615    0.09480    1.000
    C38      C        0.48856    0.68382    0.02040    1.000
    C39      C        0.46563    0.62522    0.02950    1.000
    H18      H        0.40630    0.61260    0.07650    1.000
    C40      C        0.53073    0.58492    0.96900    1.000
    C41      C        0.63913    0.66327    0.88551    1.000
    C42      C        0.57432    0.70259    0.94740    1.000
    H19      H        0.58850    0.74200    0.93990    1.000
    C43      C        0.61845    0.60438    0.89720    1.000
    H20      H        0.66300    0.57780    0.85720    1.000
    C44      C        0.73284    0.68461    0.80850    1.000
    C45      C        0.50997    0.52471    0.98820    1.000
    O21      O        0.83963    0.20563    0.14821    1.000
    H21      H        0.81020    0.23160    0.18660    1.000
    O22      O        0.96232    0.27728    0.10334    1.000
    O23      O        0.21884    0.23793    0.77466    1.000
    O24      O        0.31489    0.15185    0.78386    1.000
    C46      C        0.92554    0.22615    0.09480    1.000
    C47      C        0.98856    0.18382    0.02040    1.000
    C48      C        0.96563    0.12522    0.02950    1.000
    H22      H        0.90630    0.11260    0.07650    1.000
    C49      C        0.03073    0.08492    0.96900    1.000
    C50      C        0.13913    0.16327    0.88551    1.000
    C51      C        0.07432    0.20259    0.94740    1.000
    H23      H        0.08850    0.24200    0.93990    1.000
    C52      C        0.11845    0.10438    0.89720    1.000
    H24      H        0.16300    0.07780    0.85720    1.000
    C53      C        0.23284    0.18461    0.80850    1.000
    C54      C        0.00997    0.02471    0.98820    1.000
    O25      O        0.66037    0.70563    0.35179    1.000
    H25      H        0.68980    0.73160    0.31340    1.000
    O26      O        0.53768    0.77728    0.39666    1.000
    O27      O        0.28116    0.73793    0.72534    1.000
    O28      O        0.18511    0.65185    0.71614    1.000
    C55      C        0.57446    0.72615    0.40520    1.000
    C56      C        0.51144    0.68382    0.47960    1.000
    C57      C        0.53437    0.62522    0.47050    1.000
    H26      H        0.59370    0.61260    0.42350    1.000
    C58      C        0.46927    0.58492    0.53100    1.000
    C59      C        0.36087    0.66327    0.61449    1.000
    C60      C        0.42568    0.70259    0.55260    1.000
    H27      H        0.41150    0.74200    0.56010    1.000
    C61      C        0.38155    0.60438    0.60280    1.000
    H28      H        0.33700    0.57780    0.64280    1.000
    C62      C        0.26716    0.68461    0.69150    1.000
    C63      C        0.49003    0.52471    0.51180    1.000
    O29      O        0.16037    0.20563    0.35179    1.000
    H29      H        0.18980    0.23160    0.31340    1.000
    O30      O        0.03768    0.27728    0.39666    1.000
    O31      O        0.78116    0.23793    0.72534    1.000
    O32      O        0.68511    0.15185    0.71614    1.000
    C64      C        0.07446    0.22615    0.40520    1.000
    C65      C        0.01144    0.18382    0.47960    1.000
    C66      C        0.03437    0.12522    0.47050    1.000
    H30      H        0.09370    0.11260    0.42350    1.000
    C67      C        0.96927    0.08492    0.53100    1.000
    C68      C        0.86087    0.16327    0.61449    1.000
    C69      C        0.92568    0.20259    0.55260    1.000
    H31      H        0.91150    0.24200    0.56010    1.000
    C70      C        0.88155    0.10438    0.60280    1.000
    H32      H        0.83700    0.07780    0.64280    1.000
    C71      C        0.76716    0.18461    0.69150    1.000
    C72      C        0.99003    0.02471    0.51180    1.000
    Mg1      Mg       0.50000    0.15786    0.75000    1.000
    Mg2      Mg       0.00000    0.65786    0.75000    1.000
    Mg3      Mg       0.50000    0.84214    0.25000    1.000
    Mg4      Mg       0.00000    0.34214    0.25000    1.000
