data_functionalizedCrystal
_audit_creation_method	'EQeq! by Chris Wilmer'
_symmetry_space_group_name_H-M	'P1'
_symmetry_Int_Tables_number	1
_symmetry_cell_setting	triclinic
loop_
_symmetry_equiv_pos_as_xyz
  x,y,z
_cell_length_a	8.4612
_cell_length_b	13.1272
_cell_length_c	9.4855
_cell_angle_alpha	90
_cell_angle_beta	94.652
_cell_angle_gamma	90
loop_
_atom_site_label
_atom_site_type_symbol
_atom_site_fract_x
_atom_site_fract_y
_atom_site_fract_z
_atom_site_charge
Mof_Gd	Gd	0.96108	0.26866	0.50806	1.38
Mof_O 	O 	0.1587	0.1382	0.6109	-0.386
Mof_O 	O 	0.2172	0.2125	0.4162	-0.368
Mof_O 	O 	0.3503	0.1139	0.1579	-0.435
Mof_O 	O 	0.168	0.0108	0.232	-0.29
Mof_O 	O 	0.4632	0.2057	0.7489	-0.381
Mof_C 	C 	0.2466	0.1475	0.5113	0.305
Mof_C 	C 	0.3819	0.0743	0.5022	-0.044
Mof_C 	C 	0.476	0.0491	0.6263	-0.045
Mof_C 	C 	0.4609	0.1111	0.7566	0.311
Mof_C 	C 	0.4078	0.0262	0.3758	-0.079
Mof_C 	C 	0.3008	0.0522	0.2433	0.389
Mof_O 	O 	0.4505	0.0677	0.8732	-0.358
Mof_Gd	Gd	0.53892	0.76866	0.99194	1.381
Mof_O 	O 	0.3413	0.6382	0.8891	-0.386
Mof_O 	O 	0.2828	0.7125	0.0838	-0.366
Mof_O 	O 	0.1497	0.6139	0.3421	-0.434
Mof_O 	O 	0.332	0.5108	0.268	-0.289
Mof_O 	O 	0.0368	0.7057	0.7511	-0.383
Mof_C 	C 	0.2534	0.6475	0.9887	0.302
Mof_C 	C 	0.1181	0.5743	0.9978	-0.044
Mof_C 	C 	0.024	0.5491	0.8737	-0.047
Mof_C 	C 	0.0391	0.6111	0.7434	0.312
Mof_C 	C 	0.0922	0.5262	0.1242	-0.075
Mof_C 	C 	0.1992	0.5522	0.2567	0.389
Mof_O 	O 	0.0495	0.5677	0.6268	-0.36
Mof_Gd	Gd	0.03892	0.73134	0.49194	1.381
Mof_O 	O 	0.8413	0.8618	0.3891	-0.385
Mof_O 	O 	0.7828	0.7875	0.5838	-0.368
Mof_O 	O 	0.6497	0.8861	0.8421	-0.435
Mof_O 	O 	0.832	0.9892	0.768	-0.29
Mof_O 	O 	0.5368	0.7943	0.2511	-0.381
Mof_C 	C 	0.7534	0.8525	0.4887	0.305
Mof_C 	C 	0.6181	0.9257	0.4978	-0.044
Mof_C 	C 	0.524	0.9509	0.3737	-0.045
Mof_C 	C 	0.5391	0.8889	0.2434	0.311
Mof_C 	C 	0.5922	0.9738	0.6242	-0.079
Mof_C 	C 	0.6992	0.9478	0.7567	0.389
Mof_O 	O 	0.5495	0.9323	0.1268	-0.358
Mof_Gd	Gd	0.46108	0.23134	0.00806	1.381
Mof_O 	O 	0.6587	0.3618	0.1109	-0.386
Mof_O 	O 	0.7172	0.2875	0.9162	-0.366
Mof_O 	O 	0.8503	0.3861	0.6579	-0.434
Mof_O 	O 	0.668	0.4892	0.732	-0.289
Mof_O 	O 	0.9632	0.2943	0.2489	-0.383
Mof_C 	C 	0.7466	0.3525	0.0113	0.302
Mof_C 	C 	0.8819	0.4257	0.0022	-0.044
Mof_C 	C 	0.976	0.4509	0.1263	-0.047
Mof_C 	C 	0.9609	0.3889	0.2566	0.312
Mof_C 	C 	0.9078	0.4738	0.8758	-0.075
Mof_C 	C 	0.8008	0.4478	0.7433	0.389
Mof_O 	O 	0.9505	0.4323	0.3732	-0.36
_end
