# CIF file generated by openbabel 3.1.0, see https://openbabel.org
data_I
_chemical_name_common 'LAJLAL_charged'
_cell_length_a 26.852
_cell_length_b 26.852
_cell_length_c 26.852
_cell_angle_alpha 109.471
_cell_angle_beta 109.471
_cell_angle_gamma 109.471
_space_group_name_H-M_alt 'P 1'
_space_group_name_Hall 'P 1'
loop_
    _symmetry_equiv_pos_as_xyz
    x,y,z
loop_
    _atom_site_label
    _atom_site_type_symbol
    _atom_site_fract_x
    _atom_site_fract_y
    _atom_site_fract_z
    _atom_site_occupancy
    K1       K        0.68884    0.00000    0.31116    1.000
    K2       K        0.68884    0.37768    0.68884    1.000
    K3       K        0.31116    0.00000    0.68884    1.000
    K4       K        0.31116    0.62232    0.31116    1.000
    K5       K        0.68884    0.31116    0.00000    1.000
    K6       K        0.31116    0.31116    0.62232    1.000
    K7       K        0.31116    0.68884    0.00000    1.000
    K8       K        0.68884    0.68884    0.37768    1.000
    K9       K        0.37768    0.68884    0.68884    1.000
    K10      K        0.00000    0.31116    0.68884    1.000
    K11      K        0.62232    0.31116    0.31116    1.000
    K12      K        0.00000    0.68884    0.31116    1.000
    H1       H        0.46430    0.91110    0.12860    1.000
    H2       H        0.53360    0.91260    0.23320    1.000
    H3       H        0.57230    0.99900    0.20590    1.000
    H4       H        0.63100    0.04270    0.33330    1.000
    H5       H        0.53670    0.01500    0.29090    1.000
    H6       H        0.55030    0.09180    0.23110    1.000
    H7       H        0.43230    0.01490    0.21960    1.000
    H8       H        0.48180    0.07140    0.13100    1.000
    H9       H        0.43150    0.09620    0.20730    1.000
    H10      H        0.39370    0.03880    0.13970    1.000
    H11      H        0.60260    0.17530    0.30410    1.000
    H12      H        0.63490    0.13370    0.36820    1.000
    H13      H        0.65000    0.24540    0.39640    1.000
    H14      H        0.61870    0.27690    0.50980    1.000
    H15      H        0.55840    0.17490    0.41670    1.000
    H16      H        0.58400    0.28730    0.41590    1.000
    H17      H        0.47760    0.17460    0.32520    1.000
    H18      H        0.50420    0.32550    0.32670    1.000
    H19      H        0.46130    0.22570    0.27540    1.000
    H20      H        0.46000    0.25260    0.33740    1.000
    H21      H        0.78250    0.33570    0.87140    1.000
    H22      H        0.67940    0.30040    0.76680    1.000
    H23      H        0.79310    0.36640    0.79410    1.000
    H24      H        0.70940    0.29770    0.66670    1.000
    H25      H        0.72410    0.24580    0.70910    1.000
    H26      H        0.86070    0.31920    0.76890    1.000
    H27      H        0.79530    0.21270    0.78040    1.000
    H28      H        0.94040    0.35080    0.86900    1.000
    H29      H        0.88890    0.22420    0.79270    1.000
    H30      H        0.89910    0.25400    0.86030    1.000
    H31      H        0.87120    0.29850    0.69590    1.000
    H32      H        0.76550    0.26670    0.63180    1.000
    H33      H        0.84900    0.25360    0.60360    1.000
    H34      H        0.76710    0.10890    0.49020    1.000
    H35      H        0.75820    0.14170    0.58330    1.000
    H36      H        0.87140    0.16810    0.58410    1.000
    H37      H        0.84940    0.15240    0.67480    1.000
    H38      H        0.99880    0.17750    0.67330    1.000
    H39      H        0.95030    0.18590    0.72460    1.000
    H40      H        0.91520    0.12260    0.66260    1.000
    H41      H        0.21750    0.08890    0.55320    1.000
    H42      H        0.32060    0.08740    0.62100    1.000
    H43      H        0.20690    0.00100    0.57330    1.000
    H44      H        0.29060    0.95730    0.58830    1.000
    H45      H        0.27590    0.98500    0.52170    1.000
    H46      H        0.13930    0.90820    0.45850    1.000
    H47      H        0.20470    0.98510    0.41740    1.000
    H48      H        0.05960    0.92860    0.41040    1.000
    H49      H        0.11110    0.90380    0.33530    1.000
    H50      H        0.10090    0.96120    0.35490    1.000
    H51      H        0.12880    0.82470    0.42730    1.000
    H52      H        0.23450    0.86630    0.50120    1.000
    H53      H        0.15100    0.75460    0.40460    1.000
    H54      H        0.23290    0.72310    0.34180    1.000
    H55      H        0.24180    0.82510    0.38350    1.000
    H56      H        0.12860    0.71270    0.29670    1.000
    H57      H        0.15060    0.82540    0.30300    1.000
    H58      H        0.00120    0.67450    0.17870    1.000
    H59      H        0.04970    0.77430    0.23560    1.000
    H60      H        0.08480    0.74740    0.20740    1.000
    H61      H        0.53570    0.66430    0.44680    1.000
    H62      H        0.46640    0.69960    0.37900    1.000
    H63      H        0.42770    0.63360    0.42670    1.000
    H64      H        0.36900    0.70230    0.41170    1.000
    H65      H        0.46330    0.75420    0.47830    1.000
    H66      H        0.44970    0.68080    0.54150    1.000
    H67      H        0.56770    0.78730    0.58260    1.000
    H68      H        0.51820    0.64920    0.58960    1.000
    H69      H        0.56850    0.77580    0.66470    1.000
    H70      H        0.60630    0.74600    0.64510    1.000
    H71      H        0.39740    0.70150    0.57270    1.000
    H72      H        0.36510    0.73330    0.49880    1.000
    H73      H        0.35000    0.74640    0.59540    1.000
    H74      H        0.38130    0.89110    0.65820    1.000
    H75      H        0.44160    0.85830    0.61650    1.000
    H76      H        0.41600    0.83190    0.70330    1.000
    H77      H        0.52240    0.84760    0.69700    1.000
    H78      H        0.49580    0.82250    0.82130    1.000
    H79      H        0.53870    0.81410    0.76440    1.000
    H80      H        0.54000    0.87740    0.79260    1.000
    H81      H        0.55320    0.21750    0.08890    1.000
    H82      H        0.62100    0.32060    0.08740    1.000
    H83      H        0.57330    0.20690    0.00100    1.000
    H84      H        0.58830    0.29060    0.95730    1.000
    H85      H        0.52170    0.27590    0.98500    1.000
    H86      H        0.45850    0.13930    0.90820    1.000
    H87      H        0.41740    0.20470    0.98510    1.000
    H88      H        0.41040    0.05960    0.92860    1.000
    H89      H        0.33530    0.11110    0.90380    1.000
    H90      H        0.35490    0.10090    0.96120    1.000
    H91      H        0.42730    0.12880    0.82470    1.000
    H92      H        0.50120    0.23450    0.86630    1.000
    H93      H        0.40460    0.15100    0.75460    1.000
    H94      H        0.34180    0.23290    0.72310    1.000
    H95      H        0.38350    0.24180    0.82510    1.000
    H96      H        0.29670    0.12860    0.71270    1.000
    H97      H        0.30300    0.15060    0.82540    1.000
    H98      H        0.17870    0.00120    0.67450    1.000
    H99      H        0.23560    0.04970    0.77430    1.000
    H100     H        0.20740    0.08480    0.74740    1.000
    H101     H        0.44680    0.53570    0.66430    1.000
    H102     H        0.37900    0.46640    0.69960    1.000
    H103     H        0.42670    0.42770    0.63360    1.000
    H104     H        0.41170    0.36900    0.70230    1.000
    H105     H        0.47830    0.46330    0.75420    1.000
    H106     H        0.54150    0.44970    0.68080    1.000
    H107     H        0.58260    0.56770    0.78730    1.000
    H108     H        0.58960    0.51820    0.64920    1.000
    H109     H        0.66470    0.56850    0.77580    1.000
    H110     H        0.64510    0.60630    0.74600    1.000
    H111     H        0.57270    0.39740    0.70150    1.000
    H112     H        0.49880    0.36510    0.73330    1.000
    H113     H        0.59540    0.35000    0.74640    1.000
    H114     H        0.65820    0.38130    0.89110    1.000
    H115     H        0.61650    0.44160    0.85830    1.000
    H116     H        0.70330    0.41600    0.83190    1.000
    H117     H        0.69700    0.52240    0.84760    1.000
    H118     H        0.82130    0.49580    0.82250    1.000
    H119     H        0.76440    0.53870    0.81410    1.000
    H120     H        0.79260    0.54000    0.87740    1.000
    H121     H        0.12860    0.46430    0.91110    1.000
    H122     H        0.23320    0.53360    0.91260    1.000
    H123     H        0.20590    0.57230    0.99900    1.000
    H124     H        0.33330    0.63100    0.04270    1.000
    H125     H        0.29090    0.53670    0.01500    1.000
    H126     H        0.23110    0.55030    0.09180    1.000
    H127     H        0.21960    0.43230    0.01490    1.000
    H128     H        0.13100    0.48180    0.07140    1.000
    H129     H        0.20730    0.43150    0.09620    1.000
    H130     H        0.13970    0.39370    0.03880    1.000
    H131     H        0.30410    0.60260    0.17530    1.000
    H132     H        0.36820    0.63490    0.13370    1.000
    H133     H        0.39640    0.65000    0.24540    1.000
    H134     H        0.50980    0.61870    0.27690    1.000
    H135     H        0.41670    0.55840    0.17490    1.000
    H136     H        0.41590    0.58400    0.28730    1.000
    H137     H        0.32520    0.47760    0.17460    1.000
    H138     H        0.32670    0.50420    0.32550    1.000
    H139     H        0.27540    0.46130    0.22570    1.000
    H140     H        0.33740    0.46000    0.25260    1.000
    H141     H        0.87140    0.78250    0.33570    1.000
    H142     H        0.76680    0.67940    0.30040    1.000
    H143     H        0.79410    0.79310    0.36640    1.000
    H144     H        0.66670    0.70940    0.29770    1.000
    H145     H        0.70910    0.72410    0.24580    1.000
    H146     H        0.76890    0.86070    0.31920    1.000
    H147     H        0.78040    0.79530    0.21270    1.000
    H148     H        0.86900    0.94040    0.35080    1.000
    H149     H        0.79270    0.88890    0.22420    1.000
    H150     H        0.86030    0.89910    0.25400    1.000
    H151     H        0.69590    0.87120    0.29850    1.000
    H152     H        0.63180    0.76550    0.26670    1.000
    H153     H        0.60360    0.84900    0.25360    1.000
    H154     H        0.49020    0.76710    0.10890    1.000
    H155     H        0.58330    0.75820    0.14170    1.000
    H156     H        0.58410    0.87140    0.16810    1.000
    H157     H        0.67480    0.84940    0.15240    1.000
    H158     H        0.67330    0.99880    0.17750    1.000
    H159     H        0.72460    0.95030    0.18590    1.000
    H160     H        0.66260    0.91520    0.12260    1.000
    H161     H        0.33570    0.87140    0.78250    1.000
    H162     H        0.30040    0.76680    0.67940    1.000
    H163     H        0.36640    0.79410    0.79310    1.000
    H164     H        0.29770    0.66670    0.70940    1.000
    H165     H        0.24580    0.70910    0.72410    1.000
    H166     H        0.31920    0.76890    0.86070    1.000
    H167     H        0.21270    0.78040    0.79530    1.000
    H168     H        0.35080    0.86900    0.94040    1.000
    H169     H        0.22420    0.79270    0.88890    1.000
    H170     H        0.25400    0.86030    0.89910    1.000
    H171     H        0.29850    0.69590    0.87120    1.000
    H172     H        0.26670    0.63180    0.76550    1.000
    H173     H        0.25360    0.60360    0.84900    1.000
    H174     H        0.10890    0.49020    0.76710    1.000
    H175     H        0.14170    0.58330    0.75820    1.000
    H176     H        0.16810    0.58410    0.87140    1.000
    H177     H        0.15240    0.67480    0.84940    1.000
    H178     H        0.17750    0.67330    0.99880    1.000
    H179     H        0.18590    0.72460    0.95030    1.000
    H180     H        0.12260    0.66260    0.91520    1.000
    H181     H        0.91110    0.12860    0.46430    1.000
    H182     H        0.91260    0.23320    0.53360    1.000
    H183     H        0.99900    0.20590    0.57230    1.000
    H184     H        0.04270    0.33330    0.63100    1.000
    H185     H        0.01500    0.29090    0.53670    1.000
    H186     H        0.09180    0.23110    0.55030    1.000
    H187     H        0.01490    0.21960    0.43230    1.000
    H188     H        0.07140    0.13100    0.48180    1.000
    H189     H        0.09620    0.20730    0.43150    1.000
    H190     H        0.03880    0.13970    0.39370    1.000
    H191     H        0.17530    0.30410    0.60260    1.000
    H192     H        0.13370    0.36820    0.63490    1.000
    H193     H        0.24540    0.39640    0.65000    1.000
    H194     H        0.27690    0.50980    0.61870    1.000
    H195     H        0.17490    0.41670    0.55840    1.000
    H196     H        0.28730    0.41590    0.58400    1.000
    H197     H        0.17460    0.32520    0.47760    1.000
    H198     H        0.32550    0.32670    0.50420    1.000
    H199     H        0.22570    0.27540    0.46130    1.000
    H200     H        0.25260    0.33740    0.46000    1.000
    H201     H        0.66430    0.44680    0.53570    1.000
    H202     H        0.69960    0.37900    0.46640    1.000
    H203     H        0.63360    0.42670    0.42770    1.000
    H204     H        0.70230    0.41170    0.36900    1.000
    H205     H        0.75420    0.47830    0.46330    1.000
    H206     H        0.68080    0.54150    0.44970    1.000
    H207     H        0.78730    0.58260    0.56770    1.000
    H208     H        0.64920    0.58960    0.51820    1.000
    H209     H        0.77580    0.66470    0.56850    1.000
    H210     H        0.74600    0.64510    0.60630    1.000
    H211     H        0.70150    0.57270    0.39740    1.000
    H212     H        0.73330    0.49880    0.36510    1.000
    H213     H        0.74640    0.59540    0.35000    1.000
    H214     H        0.89110    0.65820    0.38130    1.000
    H215     H        0.85830    0.61650    0.44160    1.000
    H216     H        0.83190    0.70330    0.41600    1.000
    H217     H        0.84760    0.69700    0.52240    1.000
    H218     H        0.82250    0.82130    0.49580    1.000
    H219     H        0.81410    0.76440    0.53870    1.000
    H220     H        0.87740    0.79260    0.54000    1.000
    H221     H        0.08890    0.55320    0.21750    1.000
    H222     H        0.08740    0.62100    0.32060    1.000
    H223     H        0.00100    0.57330    0.20690    1.000
    H224     H        0.95730    0.58830    0.29060    1.000
    H225     H        0.98500    0.52170    0.27590    1.000
    H226     H        0.90820    0.45850    0.13930    1.000
    H227     H        0.98510    0.41740    0.20470    1.000
    H228     H        0.92860    0.41040    0.05960    1.000
    H229     H        0.90380    0.33530    0.11110    1.000
    H230     H        0.96120    0.35490    0.10090    1.000
    H231     H        0.82470    0.42730    0.12880    1.000
    H232     H        0.86630    0.50120    0.23450    1.000
    H233     H        0.75460    0.40460    0.15100    1.000
    H234     H        0.72310    0.34180    0.23290    1.000
    H235     H        0.82510    0.38350    0.24180    1.000
    H236     H        0.71270    0.29670    0.12860    1.000
    H237     H        0.82540    0.30300    0.15060    1.000
    H238     H        0.67450    0.17870    0.00120    1.000
    H239     H        0.77430    0.23560    0.04970    1.000
    H240     H        0.74740    0.20740    0.08480    1.000
    H241     H        0.08890    0.53570    0.87140    1.000
    H242     H        0.08740    0.46640    0.76680    1.000
    H243     H        0.00100    0.42770    0.79410    1.000
    H244     H        0.95730    0.36900    0.66670    1.000
    H245     H        0.98500    0.46330    0.70910    1.000
    H246     H        0.90820    0.44970    0.76890    1.000
    H247     H        0.98510    0.56770    0.78040    1.000
    H248     H        0.92860    0.51820    0.86900    1.000
    H249     H        0.90380    0.56850    0.79270    1.000
    H250     H        0.96120    0.60630    0.86030    1.000
    H251     H        0.82470    0.39740    0.69590    1.000
    H252     H        0.86630    0.36510    0.63180    1.000
    H253     H        0.75460    0.35000    0.60360    1.000
    H254     H        0.72310    0.38130    0.49020    1.000
    H255     H        0.82510    0.44160    0.58330    1.000
    H256     H        0.71270    0.41600    0.58410    1.000
    H257     H        0.82540    0.52240    0.67480    1.000
    H258     H        0.67450    0.49580    0.67330    1.000
    H259     H        0.77430    0.53870    0.72460    1.000
    H260     H        0.74740    0.54000    0.66260    1.000
    H261     H        0.66430    0.21750    0.12860    1.000
    H262     H        0.69960    0.32060    0.23320    1.000
    H263     H        0.63360    0.20690    0.20590    1.000
    H264     H        0.70230    0.29060    0.33330    1.000
    H265     H        0.75420    0.27590    0.29090    1.000
    H266     H        0.68080    0.13930    0.23110    1.000
    H267     H        0.78730    0.20470    0.21960    1.000
    H268     H        0.64920    0.05960    0.13100    1.000
    H269     H        0.77580    0.11110    0.20730    1.000
    H270     H        0.74600    0.10090    0.13970    1.000
    H271     H        0.70150    0.12880    0.30410    1.000
    H272     H        0.73330    0.23450    0.36820    1.000
    H273     H        0.74640    0.15100    0.39640    1.000
    H274     H        0.89110    0.23290    0.50980    1.000
    H275     H        0.85830    0.24180    0.41670    1.000
    H276     H        0.83190    0.12860    0.41590    1.000
    H277     H        0.84760    0.15060    0.32520    1.000
    H278     H        0.82250    0.00120    0.32670    1.000
    H279     H        0.81410    0.04970    0.27540    1.000
    H280     H        0.87740    0.08480    0.33740    1.000
    H281     H        0.91110    0.78250    0.44680    1.000
    H282     H        0.91260    0.67940    0.37900    1.000
    H283     H        0.99900    0.79310    0.42670    1.000
    H284     H        0.04270    0.70940    0.41170    1.000
    H285     H        0.01500    0.72410    0.47830    1.000
    H286     H        0.09180    0.86070    0.54150    1.000
    H287     H        0.01490    0.79530    0.58260    1.000
    H288     H        0.07140    0.94040    0.58960    1.000
    H289     H        0.09620    0.88890    0.66470    1.000
    H290     H        0.03880    0.89910    0.64510    1.000
    H291     H        0.17530    0.87120    0.57270    1.000
    H292     H        0.13370    0.76550    0.49880    1.000
    H293     H        0.24540    0.84900    0.59540    1.000
    H294     H        0.27690    0.76710    0.65820    1.000
    H295     H        0.17490    0.75820    0.61650    1.000
    H296     H        0.28730    0.87140    0.70330    1.000
    H297     H        0.17460    0.84940    0.69700    1.000
    H298     H        0.32550    0.99880    0.82130    1.000
    H299     H        0.22570    0.95030    0.76440    1.000
    H300     H        0.25260    0.91520    0.79260    1.000
    H301     H        0.33570    0.46430    0.55320    1.000
    H302     H        0.30040    0.53360    0.62100    1.000
    H303     H        0.36640    0.57230    0.57330    1.000
    H304     H        0.29770    0.63100    0.58830    1.000
    H305     H        0.24580    0.53670    0.52170    1.000
    H306     H        0.31920    0.55030    0.45850    1.000
    H307     H        0.21270    0.43230    0.41740    1.000
    H308     H        0.35080    0.48180    0.41040    1.000
    H309     H        0.22420    0.43150    0.33530    1.000
    H310     H        0.25400    0.39370    0.35490    1.000
    H311     H        0.29850    0.60260    0.42730    1.000
    H312     H        0.26670    0.63490    0.50120    1.000
    H313     H        0.25360    0.65000    0.40460    1.000
    H314     H        0.10890    0.61870    0.34180    1.000
    H315     H        0.14170    0.55840    0.38350    1.000
    H316     H        0.16810    0.58400    0.29670    1.000
    H317     H        0.15240    0.47760    0.30300    1.000
    H318     H        0.17750    0.50420    0.17870    1.000
    H319     H        0.18590    0.46130    0.23560    1.000
    H320     H        0.12260    0.46000    0.20740    1.000
    H321     H        0.78250    0.44680    0.91110    1.000
    H322     H        0.67940    0.37900    0.91260    1.000
    H323     H        0.79310    0.42670    0.99900    1.000
    H324     H        0.70940    0.41170    0.04270    1.000
    H325     H        0.72410    0.47830    0.01500    1.000
    H326     H        0.86070    0.54150    0.09180    1.000
    H327     H        0.79530    0.58260    0.01490    1.000
    H328     H        0.94040    0.58960    0.07140    1.000
    H329     H        0.88890    0.66470    0.09620    1.000
    H330     H        0.89910    0.64510    0.03880    1.000
    H331     H        0.87120    0.57270    0.17530    1.000
    H332     H        0.76550    0.49880    0.13370    1.000
    H333     H        0.84900    0.59540    0.24540    1.000
    H334     H        0.76710    0.65820    0.27690    1.000
    H335     H        0.75820    0.61650    0.17490    1.000
    H336     H        0.87140    0.70330    0.28730    1.000
    H337     H        0.84940    0.69700    0.17460    1.000
    H338     H        0.99880    0.82130    0.32550    1.000
    H339     H        0.95030    0.76440    0.22570    1.000
    H340     H        0.91520    0.79260    0.25260    1.000
    H341     H        0.46430    0.55320    0.33570    1.000
    H342     H        0.53360    0.62100    0.30040    1.000
    H343     H        0.57230    0.57330    0.36640    1.000
    H344     H        0.63100    0.58830    0.29770    1.000
    H345     H        0.53670    0.52170    0.24580    1.000
    H346     H        0.55030    0.45850    0.31920    1.000
    H347     H        0.43230    0.41740    0.21270    1.000
    H348     H        0.48180    0.41040    0.35080    1.000
    H349     H        0.43150    0.33530    0.22420    1.000
    H350     H        0.39370    0.35490    0.25400    1.000
    H351     H        0.60260    0.42730    0.29850    1.000
    H352     H        0.63490    0.50120    0.26670    1.000
    H353     H        0.65000    0.40460    0.25360    1.000
    H354     H        0.61870    0.34180    0.10890    1.000
    H355     H        0.55840    0.38350    0.14170    1.000
    H356     H        0.58400    0.29670    0.16810    1.000
    H357     H        0.47760    0.30300    0.15240    1.000
    H358     H        0.50420    0.17870    0.17750    1.000
    H359     H        0.46130    0.23560    0.18590    1.000
    H360     H        0.46000    0.20740    0.12260    1.000
    H361     H        0.53570    0.87140    0.08890    1.000
    H362     H        0.46640    0.76680    0.08740    1.000
    H363     H        0.42770    0.79410    0.00100    1.000
    H364     H        0.36900    0.66670    0.95730    1.000
    H365     H        0.46330    0.70910    0.98500    1.000
    H366     H        0.44970    0.76890    0.90820    1.000
    H367     H        0.56770    0.78040    0.98510    1.000
    H368     H        0.51820    0.86900    0.92860    1.000
    H369     H        0.56850    0.79270    0.90380    1.000
    H370     H        0.60630    0.86030    0.96120    1.000
    H371     H        0.39740    0.69590    0.82470    1.000
    H372     H        0.36510    0.63180    0.86630    1.000
    H373     H        0.35000    0.60360    0.75460    1.000
    H374     H        0.38130    0.49020    0.72310    1.000
    H375     H        0.44160    0.58330    0.82510    1.000
    H376     H        0.41600    0.58410    0.71270    1.000
    H377     H        0.52240    0.67480    0.82540    1.000
    H378     H        0.49580    0.67330    0.67450    1.000
    H379     H        0.53870    0.72460    0.77430    1.000
    H380     H        0.54000    0.66260    0.74740    1.000
    H381     H        0.21750    0.12860    0.66430    1.000
    H382     H        0.32060    0.23320    0.69960    1.000
    H383     H        0.20690    0.20590    0.63360    1.000
    H384     H        0.29060    0.33330    0.70230    1.000
    H385     H        0.27590    0.29090    0.75420    1.000
    H386     H        0.13930    0.23110    0.68080    1.000
    H387     H        0.20470    0.21960    0.78730    1.000
    H388     H        0.05960    0.13100    0.64920    1.000
    H389     H        0.11110    0.20730    0.77580    1.000
    H390     H        0.10090    0.13970    0.74600    1.000
    H391     H        0.12880    0.30410    0.70150    1.000
    H392     H        0.23450    0.36820    0.73330    1.000
    H393     H        0.15100    0.39640    0.74640    1.000
    H394     H        0.23290    0.50980    0.89110    1.000
    H395     H        0.24180    0.41670    0.85830    1.000
    H396     H        0.12860    0.41590    0.83190    1.000
    H397     H        0.15060    0.32520    0.84760    1.000
    H398     H        0.00120    0.32670    0.82250    1.000
    H399     H        0.04970    0.27540    0.81410    1.000
    H400     H        0.08480    0.33740    0.87740    1.000
    H401     H        0.12860    0.66430    0.21750    1.000
    H402     H        0.23320    0.69960    0.32060    1.000
    H403     H        0.20590    0.63360    0.20690    1.000
    H404     H        0.33330    0.70230    0.29060    1.000
    H405     H        0.29090    0.75420    0.27590    1.000
    H406     H        0.23110    0.68080    0.13930    1.000
    H407     H        0.21960    0.78730    0.20470    1.000
    H408     H        0.13100    0.64920    0.05960    1.000
    H409     H        0.20730    0.77580    0.11110    1.000
    H410     H        0.13970    0.74600    0.10090    1.000
    H411     H        0.30410    0.70150    0.12880    1.000
    H412     H        0.36820    0.73330    0.23450    1.000
    H413     H        0.39640    0.74640    0.15100    1.000
    H414     H        0.50980    0.89110    0.23290    1.000
    H415     H        0.41670    0.85830    0.24180    1.000
    H416     H        0.41590    0.83190    0.12860    1.000
    H417     H        0.32520    0.84760    0.15060    1.000
    H418     H        0.32670    0.82250    0.00120    1.000
    H419     H        0.27540    0.81410    0.04970    1.000
    H420     H        0.33740    0.87740    0.08480    1.000
    H421     H        0.87140    0.08890    0.53570    1.000
    H422     H        0.76680    0.08740    0.46640    1.000
    H423     H        0.79410    0.00100    0.42770    1.000
    H424     H        0.66670    0.95730    0.36900    1.000
    H425     H        0.70910    0.98500    0.46330    1.000
    H426     H        0.76890    0.90820    0.44970    1.000
    H427     H        0.78040    0.98510    0.56770    1.000
    H428     H        0.86900    0.92860    0.51820    1.000
    H429     H        0.79270    0.90380    0.56850    1.000
    H430     H        0.86030    0.96120    0.60630    1.000
    H431     H        0.69590    0.82470    0.39740    1.000
    H432     H        0.63180    0.86630    0.36510    1.000
    H433     H        0.60360    0.75460    0.35000    1.000
    H434     H        0.49020    0.72310    0.38130    1.000
    H435     H        0.58330    0.82510    0.44160    1.000
    H436     H        0.58410    0.71270    0.41600    1.000
    H437     H        0.67480    0.82540    0.52240    1.000
    H438     H        0.67330    0.67450    0.49580    1.000
    H439     H        0.72460    0.77430    0.53870    1.000
    H440     H        0.66260    0.74740    0.54000    1.000
    H441     H        0.55320    0.33570    0.46430    1.000
    H442     H        0.62100    0.30040    0.53360    1.000
    H443     H        0.57330    0.36640    0.57230    1.000
    H444     H        0.58830    0.29770    0.63100    1.000
    H445     H        0.52170    0.24580    0.53670    1.000
    H446     H        0.45850    0.31920    0.55030    1.000
    H447     H        0.41740    0.21270    0.43230    1.000
    H448     H        0.41040    0.35080    0.48180    1.000
    H449     H        0.33530    0.22420    0.43150    1.000
    H450     H        0.35490    0.25400    0.39370    1.000
    H451     H        0.42730    0.29850    0.60260    1.000
    H452     H        0.50120    0.26670    0.63490    1.000
    H453     H        0.40460    0.25360    0.65000    1.000
    H454     H        0.34180    0.10890    0.61870    1.000
    H455     H        0.38350    0.14170    0.55840    1.000
    H456     H        0.29670    0.16810    0.58400    1.000
    H457     H        0.30300    0.15240    0.47760    1.000
    H458     H        0.17870    0.17750    0.50420    1.000
    H459     H        0.23560    0.18590    0.46130    1.000
    H460     H        0.20740    0.12260    0.46000    1.000
    H461     H        0.44680    0.91110    0.78250    1.000
    H462     H        0.37900    0.91260    0.67940    1.000
    H463     H        0.42670    0.99900    0.79310    1.000
    H464     H        0.41170    0.04270    0.70940    1.000
    H465     H        0.47830    0.01500    0.72410    1.000
    H466     H        0.54150    0.09180    0.86070    1.000
    H467     H        0.58260    0.01490    0.79530    1.000
    H468     H        0.58960    0.07140    0.94040    1.000
    H469     H        0.66470    0.09620    0.88890    1.000
    H470     H        0.64510    0.03880    0.89910    1.000
    H471     H        0.57270    0.17530    0.87120    1.000
    H472     H        0.49880    0.13370    0.76550    1.000
    H473     H        0.59540    0.24540    0.84900    1.000
    H474     H        0.65820    0.27690    0.76710    1.000
    H475     H        0.61650    0.17490    0.75820    1.000
    H476     H        0.70330    0.28730    0.87140    1.000
    H477     H        0.69700    0.17460    0.84940    1.000
    H478     H        0.82130    0.32550    0.99880    1.000
    H479     H        0.76440    0.22570    0.95030    1.000
    H480     H        0.79260    0.25260    0.91520    1.000
    C1       C        0.47190    0.94440    0.16610    1.000
    C2       C        0.54850    0.98120    0.22330    1.000
    C3       C        0.55850    0.03130    0.27120    1.000
    C4       C        0.52820    0.07120    0.24820    1.000
    C5       C        0.45580    0.03080    0.20100    1.000
    C6       C        0.43470    0.06670    0.17640    1.000
    C7       C        0.57890    0.17660    0.32590    1.000
    C8       C        0.61810    0.20470    0.38480    1.000
    C9       C        0.58850    0.21550    0.42600    1.000
    C10      C        0.55350    0.24500    0.40270    1.000
    C11      C        0.51140    0.21530    0.33870    1.000
    C12      C        0.48710    0.24920    0.32050    1.000
    C13      C        0.77830    0.30580    0.83390    1.000
    C14      C        0.75790    0.32520    0.77670    1.000
    C15      C        0.76010    0.28730    0.72880    1.000
    C16      C        0.82300    0.28000    0.75180    1.000
    C17      C        0.82980    0.25480    0.79900    1.000
    C18      C        0.89030    0.25830    0.82360    1.000
    C19      C        0.85070    0.25300    0.67410    1.000
    C20      C        0.81990    0.23330    0.61520    1.000
    C21      C        0.78950    0.16250    0.57400    1.000
    C22      C        0.84230    0.15080    0.59730    1.000
    C23      C        0.87660    0.17270    0.66130    1.000
    C24      C        0.92870    0.16660    0.67950    1.000
    C25      C        0.22170    0.05560    0.52750    1.000
    C26      C        0.24210    0.01880    0.56730    1.000
    C27      C        0.23990    0.96870    0.52720    1.000
    C28      C        0.17700    0.92880    0.45700    1.000
    C29      C        0.17020    0.96920    0.42500    1.000
    C30      C        0.10970    0.93330    0.36800    1.000
    C31      C        0.14930    0.82340    0.40230    1.000
    C32      C        0.18010    0.79530    0.41340    1.000
    C33      C        0.21050    0.78450    0.37300    1.000
    C34      C        0.15770    0.75500    0.30850    1.000
    C35      C        0.12340    0.78470    0.29610    1.000
    C36      C        0.07130    0.75080    0.23790    1.000
    C37      C        0.52810    0.69420    0.47250    1.000
    C38      C        0.45150    0.67480    0.43270    1.000
    C39      C        0.44150    0.71270    0.47280    1.000
    C40      C        0.47180    0.72000    0.54300    1.000
    C41      C        0.54420    0.74520    0.57500    1.000
    C42      C        0.56530    0.74170    0.63200    1.000
    C43      C        0.42110    0.74700    0.59770    1.000
    C44      C        0.38190    0.76670    0.58660    1.000
    C45      C        0.41150    0.83750    0.62700    1.000
    C46      C        0.44650    0.84920    0.69150    1.000
    C47      C        0.48860    0.82730    0.70390    1.000
    C48      C        0.51290    0.83340    0.76210    1.000
    C49      C        0.52750    0.22170    0.05560    1.000
    C50      C        0.56730    0.24210    0.01880    1.000
    C51      C        0.52720    0.23990    0.96870    1.000
    C52      C        0.45700    0.17700    0.92880    1.000
    C53      C        0.42500    0.17020    0.96920    1.000
    C54      C        0.36800    0.10970    0.93330    1.000
    C55      C        0.40230    0.14930    0.82340    1.000
    C56      C        0.41340    0.18010    0.79530    1.000
    C57      C        0.37300    0.21050    0.78450    1.000
    C58      C        0.30850    0.15770    0.75500    1.000
    C59      C        0.29610    0.12340    0.78470    1.000
    C60      C        0.23790    0.07130    0.75080    1.000
    C61      C        0.47250    0.52810    0.69420    1.000
    C62      C        0.43270    0.45150    0.67480    1.000
    C63      C        0.47280    0.44150    0.71270    1.000
    C64      C        0.54300    0.47180    0.72000    1.000
    C65      C        0.57500    0.54420    0.74520    1.000
    C66      C        0.63200    0.56530    0.74170    1.000
    C67      C        0.59770    0.42110    0.74700    1.000
    C68      C        0.58660    0.38190    0.76670    1.000
    C69      C        0.62700    0.41150    0.83750    1.000
    C70      C        0.69150    0.44650    0.84920    1.000
    C71      C        0.70390    0.48860    0.82730    1.000
    C72      C        0.76210    0.51290    0.83340    1.000
    C73      C        0.16610    0.47190    0.94440    1.000
    C74      C        0.22330    0.54850    0.98120    1.000
    C75      C        0.27120    0.55850    0.03130    1.000
    C76      C        0.24820    0.52820    0.07120    1.000
    C77      C        0.20100    0.45580    0.03080    1.000
    C78      C        0.17640    0.43470    0.06670    1.000
    C79      C        0.32590    0.57890    0.17660    1.000
    C80      C        0.38480    0.61810    0.20470    1.000
    C81      C        0.42600    0.58850    0.21550    1.000
    C82      C        0.40270    0.55350    0.24500    1.000
    C83      C        0.33870    0.51140    0.21530    1.000
    C84      C        0.32050    0.48710    0.24920    1.000
    C85      C        0.83390    0.77830    0.30580    1.000
    C86      C        0.77670    0.75790    0.32520    1.000
    C87      C        0.72880    0.76010    0.28730    1.000
    C88      C        0.75180    0.82300    0.28000    1.000
    C89      C        0.79900    0.82980    0.25480    1.000
    C90      C        0.82360    0.89030    0.25830    1.000
    C91      C        0.67410    0.85070    0.25300    1.000
    C92      C        0.61520    0.81990    0.23330    1.000
    C93      C        0.57400    0.78950    0.16250    1.000
    C94      C        0.59730    0.84230    0.15080    1.000
    C95      C        0.66130    0.87660    0.17270    1.000
    C96      C        0.67950    0.92870    0.16660    1.000
    C97      C        0.30580    0.83390    0.77830    1.000
    C98      C        0.32520    0.77670    0.75790    1.000
    C99      C        0.28730    0.72880    0.76010    1.000
    C100     C        0.28000    0.75180    0.82300    1.000
    C101     C        0.25480    0.79900    0.82980    1.000
    C102     C        0.25830    0.82360    0.89030    1.000
    C103     C        0.25300    0.67410    0.85070    1.000
    C104     C        0.23330    0.61520    0.81990    1.000
    C105     C        0.16250    0.57400    0.78950    1.000
    C106     C        0.15080    0.59730    0.84230    1.000
    C107     C        0.17270    0.66130    0.87660    1.000
    C108     C        0.16660    0.67950    0.92870    1.000
    C109     C        0.94440    0.16610    0.47190    1.000
    C110     C        0.98120    0.22330    0.54850    1.000
    C111     C        0.03130    0.27120    0.55850    1.000
    C112     C        0.07120    0.24820    0.52820    1.000
    C113     C        0.03080    0.20100    0.45580    1.000
    C114     C        0.06670    0.17640    0.43470    1.000
    C115     C        0.17660    0.32590    0.57890    1.000
    C116     C        0.20470    0.38480    0.61810    1.000
    C117     C        0.21550    0.42600    0.58850    1.000
    C118     C        0.24500    0.40270    0.55350    1.000
    C119     C        0.21530    0.33870    0.51140    1.000
    C120     C        0.24920    0.32050    0.48710    1.000
    C121     C        0.69420    0.47250    0.52810    1.000
    C122     C        0.67480    0.43270    0.45150    1.000
    C123     C        0.71270    0.47280    0.44150    1.000
    C124     C        0.72000    0.54300    0.47180    1.000
    C125     C        0.74520    0.57500    0.54420    1.000
    C126     C        0.74170    0.63200    0.56530    1.000
    C127     C        0.74700    0.59770    0.42110    1.000
    C128     C        0.76670    0.58660    0.38190    1.000
    C129     C        0.83750    0.62700    0.41150    1.000
    C130     C        0.84920    0.69150    0.44650    1.000
    C131     C        0.82730    0.70390    0.48860    1.000
    C132     C        0.83340    0.76210    0.51290    1.000
    C133     C        0.05560    0.52750    0.22170    1.000
    C134     C        0.01880    0.56730    0.24210    1.000
    C135     C        0.96870    0.52720    0.23990    1.000
    C136     C        0.92880    0.45700    0.17700    1.000
    C137     C        0.96920    0.42500    0.17020    1.000
    C138     C        0.93330    0.36800    0.10970    1.000
    C139     C        0.82340    0.40230    0.14930    1.000
    C140     C        0.79530    0.41340    0.18010    1.000
    C141     C        0.78450    0.37300    0.21050    1.000
    C142     C        0.75500    0.30850    0.15770    1.000
    C143     C        0.78470    0.29610    0.12340    1.000
    C144     C        0.75080    0.23790    0.07130    1.000
    C145     C        0.05560    0.52810    0.83390    1.000
    C146     C        0.01880    0.45150    0.77670    1.000
    C147     C        0.96870    0.44150    0.72880    1.000
    C148     C        0.92880    0.47180    0.75180    1.000
    C149     C        0.96920    0.54420    0.79900    1.000
    C150     C        0.93330    0.56530    0.82360    1.000
    C151     C        0.82340    0.42110    0.67410    1.000
    C152     C        0.79530    0.38190    0.61520    1.000
    C153     C        0.78450    0.41150    0.57400    1.000
    C154     C        0.75500    0.44650    0.59730    1.000
    C155     C        0.78470    0.48860    0.66130    1.000
    C156     C        0.75080    0.51290    0.67950    1.000
    C157     C        0.69420    0.22170    0.16610    1.000
    C158     C        0.67480    0.24210    0.22330    1.000
    C159     C        0.71270    0.23990    0.27120    1.000
    C160     C        0.72000    0.17700    0.24820    1.000
    C161     C        0.74520    0.17020    0.20100    1.000
    C162     C        0.74170    0.10970    0.17640    1.000
    C163     C        0.74700    0.14930    0.32590    1.000
    C164     C        0.76670    0.18010    0.38480    1.000
    C165     C        0.83750    0.21050    0.42600    1.000
    C166     C        0.84920    0.15770    0.40270    1.000
    C167     C        0.82730    0.12340    0.33870    1.000
    C168     C        0.83340    0.07130    0.32050    1.000
    C169     C        0.94440    0.77830    0.47250    1.000
    C170     C        0.98120    0.75790    0.43270    1.000
    C171     C        0.03130    0.76010    0.47280    1.000
    C172     C        0.07120    0.82300    0.54300    1.000
    C173     C        0.03080    0.82980    0.57500    1.000
    C174     C        0.06670    0.89030    0.63200    1.000
    C175     C        0.17660    0.85070    0.59770    1.000
    C176     C        0.20470    0.81990    0.58660    1.000
    C177     C        0.21550    0.78950    0.62700    1.000
    C178     C        0.24500    0.84230    0.69150    1.000
    C179     C        0.21530    0.87660    0.70390    1.000
    C180     C        0.24920    0.92870    0.76210    1.000
    C181     C        0.30580    0.47190    0.52750    1.000
    C182     C        0.32520    0.54850    0.56730    1.000
    C183     C        0.28730    0.55850    0.52720    1.000
    C184     C        0.28000    0.52820    0.45700    1.000
    C185     C        0.25480    0.45580    0.42500    1.000
    C186     C        0.25830    0.43470    0.36800    1.000
    C187     C        0.25300    0.57890    0.40230    1.000
    C188     C        0.23330    0.61810    0.41340    1.000
    C189     C        0.16250    0.58850    0.37300    1.000
    C190     C        0.15080    0.55350    0.30850    1.000
    C191     C        0.17270    0.51140    0.29610    1.000
    C192     C        0.16660    0.48710    0.23790    1.000
    C193     C        0.77830    0.47250    0.94440    1.000
    C194     C        0.75790    0.43270    0.98120    1.000
    C195     C        0.76010    0.47280    0.03130    1.000
    C196     C        0.82300    0.54300    0.07120    1.000
    C197     C        0.82980    0.57500    0.03080    1.000
    C198     C        0.89030    0.63200    0.06670    1.000
    C199     C        0.85070    0.59770    0.17660    1.000
    C200     C        0.81990    0.58660    0.20470    1.000
    C201     C        0.78950    0.62700    0.21550    1.000
    C202     C        0.84230    0.69150    0.24500    1.000
    C203     C        0.87660    0.70390    0.21530    1.000
    C204     C        0.92870    0.76210    0.24920    1.000
    C205     C        0.47190    0.52750    0.30580    1.000
    C206     C        0.54850    0.56730    0.32520    1.000
    C207     C        0.55850    0.52720    0.28730    1.000
    C208     C        0.52820    0.45700    0.28000    1.000
    C209     C        0.45580    0.42500    0.25480    1.000
    C210     C        0.43470    0.36800    0.25830    1.000
    C211     C        0.57890    0.40230    0.25300    1.000
    C212     C        0.61810    0.41340    0.23330    1.000
    C213     C        0.58850    0.37300    0.16250    1.000
    C214     C        0.55350    0.30850    0.15080    1.000
    C215     C        0.51140    0.29610    0.17270    1.000
    C216     C        0.48710    0.23790    0.16660    1.000
    C217     C        0.52810    0.83390    0.05560    1.000
    C218     C        0.45150    0.77670    0.01880    1.000
    C219     C        0.44150    0.72880    0.96870    1.000
    C220     C        0.47180    0.75180    0.92880    1.000
    C221     C        0.54420    0.79900    0.96920    1.000
    C222     C        0.56530    0.82360    0.93330    1.000
    C223     C        0.42110    0.67410    0.82340    1.000
    C224     C        0.38190    0.61520    0.79530    1.000
    C225     C        0.41150    0.57400    0.78450    1.000
    C226     C        0.44650    0.59730    0.75500    1.000
    C227     C        0.48860    0.66130    0.78470    1.000
    C228     C        0.51290    0.67950    0.75080    1.000
    C229     C        0.22170    0.16610    0.69420    1.000
    C230     C        0.24210    0.22330    0.67480    1.000
    C231     C        0.23990    0.27120    0.71270    1.000
    C232     C        0.17700    0.24820    0.72000    1.000
    C233     C        0.17020    0.20100    0.74520    1.000
    C234     C        0.10970    0.17640    0.74170    1.000
    C235     C        0.14930    0.32590    0.74700    1.000
    C236     C        0.18010    0.38480    0.76670    1.000
    C237     C        0.21050    0.42600    0.83750    1.000
    C238     C        0.15770    0.40270    0.84920    1.000
    C239     C        0.12340    0.33870    0.82730    1.000
    C240     C        0.07130    0.32050    0.83340    1.000
    C241     C        0.16610    0.69420    0.22170    1.000
    C242     C        0.22330    0.67480    0.24210    1.000
    C243     C        0.27120    0.71270    0.23990    1.000
    C244     C        0.24820    0.72000    0.17700    1.000
    C245     C        0.20100    0.74520    0.17020    1.000
    C246     C        0.17640    0.74170    0.10970    1.000
    C247     C        0.32590    0.74700    0.14930    1.000
    C248     C        0.38480    0.76670    0.18010    1.000
    C249     C        0.42600    0.83750    0.21050    1.000
    C250     C        0.40270    0.84920    0.15770    1.000
    C251     C        0.33870    0.82730    0.12340    1.000
    C252     C        0.32050    0.83340    0.07130    1.000
    C253     C        0.83390    0.05560    0.52810    1.000
    C254     C        0.77670    0.01880    0.45150    1.000
    C255     C        0.72880    0.96870    0.44150    1.000
    C256     C        0.75180    0.92880    0.47180    1.000
    C257     C        0.79900    0.96920    0.54420    1.000
    C258     C        0.82360    0.93330    0.56530    1.000
    C259     C        0.67410    0.82340    0.42110    1.000
    C260     C        0.61520    0.79530    0.38190    1.000
    C261     C        0.57400    0.78450    0.41150    1.000
    C262     C        0.59730    0.75500    0.44650    1.000
    C263     C        0.66130    0.78470    0.48860    1.000
    C264     C        0.67950    0.75080    0.51290    1.000
    C265     C        0.52750    0.30580    0.47190    1.000
    C266     C        0.56730    0.32520    0.54850    1.000
    C267     C        0.52720    0.28730    0.55850    1.000
    C268     C        0.45700    0.28000    0.52820    1.000
    C269     C        0.42500    0.25480    0.45580    1.000
    C270     C        0.36800    0.25830    0.43470    1.000
    C271     C        0.40230    0.25300    0.57890    1.000
    C272     C        0.41340    0.23330    0.61810    1.000
    C273     C        0.37300    0.16250    0.58850    1.000
    C274     C        0.30850    0.15080    0.55350    1.000
    C275     C        0.29610    0.17270    0.51140    1.000
    C276     C        0.23790    0.16660    0.48710    1.000
    C277     C        0.47250    0.94440    0.77830    1.000
    C278     C        0.43270    0.98120    0.75790    1.000
    C279     C        0.47280    0.03130    0.76010    1.000
    C280     C        0.54300    0.07120    0.82300    1.000
    C281     C        0.57500    0.03080    0.82980    1.000
    C282     C        0.63200    0.06670    0.89030    1.000
    C283     C        0.59770    0.17660    0.85070    1.000
    C284     C        0.58660    0.20470    0.81990    1.000
    C285     C        0.62700    0.21550    0.78950    1.000
    C286     C        0.69150    0.24500    0.84230    1.000
    C287     C        0.70390    0.21530    0.87660    1.000
    C288     C        0.76210    0.24920    0.92870    1.000
    O1       O        0.45490    0.98010    0.15240    1.000
    O2       O        0.56420    0.94170    0.22990    1.000
    O3       O        0.61970    0.06550    0.31420    1.000
    O4       O        0.53418    0.11558    0.30200    1.000
    O5       O        0.47700    0.10020    0.16020    1.000
    O6       O        0.54479    0.20749    0.30830    1.000
    O7       O        0.64970    0.17240    0.40390    1.000
    O8       O        0.63100    0.24990    0.48890    1.000
    O9       O        0.44215    0.91905    0.19230    1.000
    O10      O        0.52610    0.30410    0.33620    1.000
    O11      O        0.82770    0.30250    0.84760    1.000
    O12      O        0.71180    0.33430    0.77010    1.000
    O13      O        0.75130    0.30550    0.68580    1.000
    O14      O        0.81358    0.23218    0.69800    1.000
    O15      O        0.94000    0.31680    0.83980    1.000
    O16      O        0.89919    0.23649    0.69170    1.000
    O17      O        0.76850    0.24580    0.59610    1.000
    O18      O        0.76100    0.14210    0.51110    1.000
    O19      O        0.72675    0.24985    0.80770    1.000
    O20      O        0.96790    0.18990    0.66380    1.000
    O21      O        0.17230    0.01990    0.47480    1.000
    O22      O        0.28820    0.05830    0.62250    1.000
    O23      O        0.24870    0.93450    0.55420    1.000
    O24      O        0.18642    0.88442    0.41860    1.000
    O25      O        0.06000    0.89980    0.37680    1.000
    O26      O        0.10081    0.79251    0.33730    1.000
    O27      O        0.23150    0.82760    0.47730    1.000
    O28      O        0.23900    0.75010    0.38110    1.000
    O29      O        0.27325    0.08095    0.52310    1.000
    O30      O        0.03210    0.69590    0.22200    1.000
    O31      O        0.54510    0.69750    0.52520    1.000
    O32      O        0.43580    0.66570    0.37750    1.000
    O33      O        0.38030    0.69450    0.44580    1.000
    O34      O        0.46582    0.76782    0.58140    1.000
    O35      O        0.52300    0.68320    0.62320    1.000
    O36      O        0.45521    0.76351    0.66270    1.000
    O37      O        0.35030    0.75420    0.52270    1.000
    O38      O        0.36900    0.85790    0.61890    1.000
    O39      O        0.55785    0.75015    0.47690    1.000
    O40      O        0.47390    0.81010    0.77800    1.000
    O41      O        0.47480    0.17230    0.01990    1.000
    O42      O        0.62250    0.28820    0.05830    1.000
    O43      O        0.55420    0.24870    0.93450    1.000
    O44      O        0.41860    0.18642    0.88442    1.000
    O45      O        0.37680    0.06000    0.89980    1.000
    O46      O        0.33730    0.10081    0.79251    1.000
    O47      O        0.47730    0.23150    0.82760    1.000
    O48      O        0.38110    0.23900    0.75010    1.000
    O49      O        0.52310    0.27325    0.08095    1.000
    O50      O        0.22200    0.03210    0.69590    1.000
    O51      O        0.52520    0.54510    0.69750    1.000
    O52      O        0.37750    0.43580    0.66570    1.000
    O53      O        0.44580    0.38030    0.69450    1.000
    O54      O        0.58140    0.46582    0.76782    1.000
    O55      O        0.62320    0.52300    0.68320    1.000
    O56      O        0.66270    0.45521    0.76351    1.000
    O57      O        0.52270    0.35030    0.75420    1.000
    O58      O        0.61890    0.36900    0.85790    1.000
    O59      O        0.47690    0.55785    0.75015    1.000
    O60      O        0.77800    0.47390    0.81010    1.000
    O61      O        0.15240    0.45490    0.98010    1.000
    O62      O        0.22990    0.56420    0.94170    1.000
    O63      O        0.31420    0.61970    0.06550    1.000
    O64      O        0.30200    0.53418    0.11558    1.000
    O65      O        0.16020    0.47700    0.10020    1.000
    O66      O        0.30830    0.54479    0.20749    1.000
    O67      O        0.40390    0.64970    0.17240    1.000
    O68      O        0.48890    0.63100    0.24990    1.000
    O69      O        0.19230    0.44215    0.91905    1.000
    O70      O        0.33620    0.52610    0.30410    1.000
    O71      O        0.84760    0.82770    0.30250    1.000
    O72      O        0.77010    0.71180    0.33430    1.000
    O73      O        0.68580    0.75130    0.30550    1.000
    O74      O        0.69800    0.81358    0.23218    1.000
    O75      O        0.83980    0.94000    0.31680    1.000
    O76      O        0.69170    0.89919    0.23649    1.000
    O77      O        0.59610    0.76850    0.24580    1.000
    O78      O        0.51110    0.76100    0.14210    1.000
    O79      O        0.80770    0.72675    0.24985    1.000
    O80      O        0.66380    0.96790    0.18990    1.000
    O81      O        0.30250    0.84760    0.82770    1.000
    O82      O        0.33430    0.77010    0.71180    1.000
    O83      O        0.30550    0.68580    0.75130    1.000
    O84      O        0.23218    0.69800    0.81358    1.000
    O85      O        0.31680    0.83980    0.94000    1.000
    O86      O        0.23649    0.69170    0.89919    1.000
    O87      O        0.24580    0.59610    0.76850    1.000
    O88      O        0.14210    0.51110    0.76100    1.000
    O89      O        0.24985    0.80770    0.72675    1.000
    O90      O        0.18990    0.66380    0.96790    1.000
    O91      O        0.98010    0.15240    0.45490    1.000
    O92      O        0.94170    0.22990    0.56420    1.000
    O93      O        0.06550    0.31420    0.61970    1.000
    O94      O        0.11558    0.30200    0.53418    1.000
    O95      O        0.10020    0.16020    0.47700    1.000
    O96      O        0.20749    0.30830    0.54479    1.000
    O97      O        0.17240    0.40390    0.64970    1.000
    O98      O        0.24990    0.48890    0.63100    1.000
    O99      O        0.91905    0.19230    0.44215    1.000
    O100     O        0.30410    0.33620    0.52610    1.000
    O101     O        0.69750    0.52520    0.54510    1.000
    O102     O        0.66570    0.37750    0.43580    1.000
    O103     O        0.69450    0.44580    0.38030    1.000
    O104     O        0.76782    0.58140    0.46582    1.000
    O105     O        0.68320    0.62320    0.52300    1.000
    O106     O        0.76351    0.66270    0.45521    1.000
    O107     O        0.75420    0.52270    0.35030    1.000
    O108     O        0.85790    0.61890    0.36900    1.000
    O109     O        0.75015    0.47690    0.55785    1.000
    O110     O        0.81010    0.77800    0.47390    1.000
    O111     O        0.01990    0.47480    0.17230    1.000
    O112     O        0.05830    0.62250    0.28820    1.000
    O113     O        0.93450    0.55420    0.24870    1.000
    O114     O        0.88442    0.41860    0.18642    1.000
    O115     O        0.89980    0.37680    0.06000    1.000
    O116     O        0.79251    0.33730    0.10081    1.000
    O117     O        0.82760    0.47730    0.23150    1.000
    O118     O        0.75010    0.38110    0.23900    1.000
    O119     O        0.08095    0.52310    0.27325    1.000
    O120     O        0.69590    0.22200    0.03210    1.000
    O121     O        0.01990    0.54510    0.84760    1.000
    O122     O        0.05830    0.43580    0.77010    1.000
    O123     O        0.93450    0.38030    0.68580    1.000
    O124     O        0.88442    0.46582    0.69800    1.000
    O125     O        0.89980    0.52300    0.83980    1.000
    O126     O        0.79251    0.45521    0.69170    1.000
    O127     O        0.82760    0.35030    0.59610    1.000
    O128     O        0.75010    0.36900    0.51110    1.000
    O129     O        0.08095    0.55785    0.80770    1.000
    O130     O        0.69590    0.47390    0.66380    1.000
    O131     O        0.69750    0.17230    0.15240    1.000
    O132     O        0.66570    0.28820    0.22990    1.000
    O133     O        0.69450    0.24870    0.31420    1.000
    O134     O        0.76782    0.18642    0.30200    1.000
    O135     O        0.68320    0.06000    0.16020    1.000
    O136     O        0.76351    0.10081    0.30830    1.000
    O137     O        0.75420    0.23150    0.40390    1.000
    O138     O        0.85790    0.23900    0.48890    1.000
    O139     O        0.75015    0.27325    0.19230    1.000
    O140     O        0.81010    0.03210    0.33620    1.000
    O141     O        0.98010    0.82770    0.52520    1.000
    O142     O        0.94170    0.71180    0.37750    1.000
    O143     O        0.06550    0.75130    0.44580    1.000
    O144     O        0.11558    0.81358    0.58140    1.000
    O145     O        0.10020    0.94000    0.62320    1.000
    O146     O        0.20749    0.89919    0.66270    1.000
    O147     O        0.17240    0.76850    0.52270    1.000
    O148     O        0.24990    0.76100    0.61890    1.000
    O149     O        0.91905    0.72675    0.47690    1.000
    O150     O        0.30410    0.96790    0.77800    1.000
    O151     O        0.30250    0.45490    0.47480    1.000
    O152     O        0.33430    0.56420    0.62250    1.000
    O153     O        0.30550    0.61970    0.55420    1.000
    O154     O        0.23218    0.53418    0.41860    1.000
    O155     O        0.31680    0.47700    0.37680    1.000
    O156     O        0.23649    0.54479    0.33730    1.000
    O157     O        0.24580    0.64970    0.47730    1.000
    O158     O        0.14210    0.63100    0.38110    1.000
    O159     O        0.24985    0.44215    0.52310    1.000
    O160     O        0.18990    0.52610    0.22200    1.000
    O161     O        0.82770    0.52520    0.98010    1.000
    O162     O        0.71180    0.37750    0.94170    1.000
    O163     O        0.75130    0.44580    0.06550    1.000
    O164     O        0.81358    0.58140    0.11558    1.000
    O165     O        0.94000    0.62320    0.10020    1.000
    O166     O        0.89919    0.66270    0.20749    1.000
    O167     O        0.76850    0.52270    0.17240    1.000
    O168     O        0.76100    0.61890    0.24990    1.000
    O169     O        0.72675    0.47690    0.91905    1.000
    O170     O        0.96790    0.77800    0.30410    1.000
    O171     O        0.45490    0.47480    0.30250    1.000
    O172     O        0.56420    0.62250    0.33430    1.000
    O173     O        0.61970    0.55420    0.30550    1.000
    O174     O        0.53418    0.41860    0.23218    1.000
    O175     O        0.47700    0.37680    0.31680    1.000
    O176     O        0.54479    0.33730    0.23649    1.000
    O177     O        0.64970    0.47730    0.24580    1.000
    O178     O        0.63100    0.38110    0.14210    1.000
    O179     O        0.44215    0.52310    0.24985    1.000
    O180     O        0.52610    0.22200    0.18990    1.000
    O181     O        0.54510    0.84760    0.01990    1.000
    O182     O        0.43580    0.77010    0.05830    1.000
    O183     O        0.38030    0.68580    0.93450    1.000
    O184     O        0.46582    0.69800    0.88442    1.000
    O185     O        0.52300    0.83980    0.89980    1.000
    O186     O        0.45521    0.69170    0.79251    1.000
    O187     O        0.35030    0.59610    0.82760    1.000
    O188     O        0.36900    0.51110    0.75010    1.000
    O189     O        0.55785    0.80770    0.08095    1.000
    O190     O        0.47390    0.66380    0.69590    1.000
    O191     O        0.17230    0.15240    0.69750    1.000
    O192     O        0.28820    0.22990    0.66570    1.000
    O193     O        0.24870    0.31420    0.69450    1.000
    O194     O        0.18642    0.30200    0.76782    1.000
    O195     O        0.06000    0.16020    0.68320    1.000
    O196     O        0.10081    0.30830    0.76351    1.000
    O197     O        0.23150    0.40390    0.75420    1.000
    O198     O        0.23900    0.48890    0.85790    1.000
    O199     O        0.27325    0.19230    0.75015    1.000
    O200     O        0.03210    0.33620    0.81010    1.000
    O201     O        0.15240    0.69750    0.17230    1.000
    O202     O        0.22990    0.66570    0.28820    1.000
    O203     O        0.31420    0.69450    0.24870    1.000
    O204     O        0.30200    0.76782    0.18642    1.000
    O205     O        0.16020    0.68320    0.06000    1.000
    O206     O        0.30830    0.76351    0.10081    1.000
    O207     O        0.40390    0.75420    0.23150    1.000
    O208     O        0.48890    0.85790    0.23900    1.000
    O209     O        0.19230    0.75015    0.27325    1.000
    O210     O        0.33620    0.81010    0.03210    1.000
    O211     O        0.84760    0.01990    0.54510    1.000
    O212     O        0.77010    0.05830    0.43580    1.000
    O213     O        0.68580    0.93450    0.38030    1.000
    O214     O        0.69800    0.88442    0.46582    1.000
    O215     O        0.83980    0.89980    0.52300    1.000
    O216     O        0.69170    0.79251    0.45521    1.000
    O217     O        0.59610    0.82760    0.35030    1.000
    O218     O        0.51110    0.75010    0.36900    1.000
    O219     O        0.80770    0.08095    0.55785    1.000
    O220     O        0.66380    0.69590    0.47390    1.000
    O221     O        0.47480    0.30250    0.45490    1.000
    O222     O        0.62250    0.33430    0.56420    1.000
    O223     O        0.55420    0.30550    0.61970    1.000
    O224     O        0.41860    0.23218    0.53418    1.000
    O225     O        0.37680    0.31680    0.47700    1.000
    O226     O        0.33730    0.23649    0.54479    1.000
    O227     O        0.47730    0.24580    0.64970    1.000
    O228     O        0.38110    0.14210    0.63100    1.000
    O229     O        0.52310    0.24985    0.44215    1.000
    O230     O        0.22200    0.18990    0.52610    1.000
    O231     O        0.52520    0.98010    0.82770    1.000
    O232     O        0.37750    0.94170    0.71180    1.000
    O233     O        0.44580    0.06550    0.75130    1.000
    O234     O        0.58140    0.11558    0.81358    1.000
    O235     O        0.62320    0.10020    0.94000    1.000
    O236     O        0.66270    0.20749    0.89919    1.000
    O237     O        0.52270    0.17240    0.76850    1.000
    O238     O        0.61890    0.24990    0.76100    1.000
    O239     O        0.47690    0.91905    0.72675    1.000
    O240     O        0.77800    0.30410    0.96790    1.000
