# CIF file generated by openbabel 3.1.0, see https://openbabel.org
data_I
_chemical_name_common 'image0'
_cell_length_a 13.9593
_cell_length_b 17.2
_cell_length_c 20.8587
_cell_angle_alpha 90
_cell_angle_beta 90
_cell_angle_gamma 90
_space_group_name_H-M_alt 'P 1'
_space_group_name_Hall 'P 1'
loop_
    _symmetry_equiv_pos_as_xyz
    x,y,z
loop_
    _atom_site_label
    _atom_site_type_symbol
    _atom_site_fract_x
    _atom_site_fract_y
    _atom_site_fract_z
    _atom_site_occupancy
    Mn1      Mn       0.87745    0.19985    0.07420    1.000
    Mn2      Mn       0.03190    0.19936    0.41941    1.000
    N1       N        0.82729    0.20706    0.17488    1.000
    C1       C        0.80677    0.20930    0.22777    1.000
    N2       N        0.88555    0.21708    0.37784    1.000
    C2       C        0.83721    0.21377    0.33362    1.000
    N3       N        0.77403    0.20937    0.28671    1.000
    N4       N        0.02418    0.18838    0.11650    1.000
    C3       C        0.07300    0.18252    0.16052    1.000
    N5       N        0.08927    0.19198    0.32035    1.000
    C4       C        0.10683    0.18580    0.26658    1.000
    N6       N        0.13544    0.17596    0.20716    1.000
    N7       N        0.93033    0.20027    0.97271    1.000
    C5       C        0.99158    0.23307    0.94823    1.000
    N8       N        0.22218    0.28533    0.94748    1.000
    C6       C        0.14234    0.27787    0.93452    1.000
    N9       N        0.05370    0.27333    0.91573    1.000
    N10      N        0.90293    0.32644    0.06925    1.000
    C7       C        0.94659    0.38153    0.05827    1.000
    N11      N        0.99142    0.57384    0.07603    1.000
    C8       C        0.99096    0.50938    0.06246    1.000
    N12      N        0.00284    0.43873    0.04198    1.000
    N13      N        0.17626    0.18117    0.46171    1.000
    C9       C        0.25870    0.18348    0.46038    1.000
    N14      N        0.46328    0.28484    0.48224    1.000
    C10      C        0.40628    0.23702    0.47185    1.000
    N15      N        0.35218    0.17803    0.45721    1.000
    N16      N        0.94005    0.82456    0.08281    1.000
    C11      C        0.89518    0.87972    0.08842    1.000
    N17      N        0.86413    0.07337    0.06968    1.000
    C12      C        0.85591    0.00851    0.08109    1.000
    N18      N        0.83540    0.93701    0.09688    1.000
    Mn3      Mn       0.62255    0.80015    0.57420    1.000
    Mn4      Mn       0.46810    0.80064    0.91941    1.000
    N19      N        0.67271    0.79294    0.67488    1.000
    C13      C        0.69323    0.79070    0.72777    1.000
    N20      N        0.61445    0.78292    0.87784    1.000
    C14      C        0.66279    0.78623    0.83362    1.000
    N21      N        0.72597    0.79063    0.78671    1.000
    N22      N        0.47582    0.81162    0.61650    1.000
    C15      C        0.42700    0.81748    0.66052    1.000
    N23      N        0.41073    0.80802    0.82035    1.000
    C16      C        0.39317    0.81420    0.76658    1.000
    N24      N        0.36456    0.82404    0.70716    1.000
    N25      N        0.56967    0.79973    0.47271    1.000
    C17      C        0.50842    0.76693    0.44823    1.000
    N26      N        0.27782    0.71467    0.44748    1.000
    C18      C        0.35766    0.72213    0.43452    1.000
    N27      N        0.44630    0.72667    0.41573    1.000
    N28      N        0.59707    0.67356    0.56925    1.000
    C19      C        0.55341    0.61847    0.55827    1.000
    N29      N        0.50858    0.42616    0.57603    1.000
    C20      C        0.50904    0.49062    0.56246    1.000
    N30      N        0.49716    0.56127    0.54198    1.000
    N31      N        0.32374    0.81883    0.96171    1.000
    C21      C        0.24130    0.81652    0.96038    1.000
    N32      N        0.03672    0.71516    0.98224    1.000
    C22      C        0.09372    0.76298    0.97185    1.000
    N33      N        0.14782    0.82197    0.95721    1.000
    N34      N        0.55995    0.17544    0.58281    1.000
    C23      C        0.60482    0.12028    0.58842    1.000
    N35      N        0.63587    0.92663    0.56968    1.000
    C24      C        0.64409    0.99149    0.58109    1.000
    N36      N        0.66460    0.06299    0.59688    1.000
    Mn5      Mn       0.12255    0.69985    0.42580    1.000
    Mn6      Mn       0.96810    0.69936    0.08059    1.000
    N37      N        0.17271    0.70706    0.32512    1.000
    C25      C        0.19323    0.70930    0.27223    1.000
    N38      N        0.11445    0.71708    0.12216    1.000
    C26      C        0.16279    0.71377    0.16638    1.000
    N39      N        0.22597    0.70937    0.21329    1.000
    N40      N        0.97582    0.68838    0.38350    1.000
    C27      C        0.92700    0.68252    0.33948    1.000
    N41      N        0.91073    0.69198    0.17965    1.000
    C28      C        0.89317    0.68580    0.23342    1.000
    N42      N        0.86456    0.67596    0.29284    1.000
    N43      N        0.06967    0.70027    0.52729    1.000
    C29      C        0.00842    0.73307    0.55177    1.000
    N44      N        0.77782    0.78533    0.55252    1.000
    C30      C        0.85766    0.77787    0.56548    1.000
    N45      N        0.94630    0.77333    0.58427    1.000
    N46      N        0.09707    0.82644    0.43075    1.000
    C31      C        0.05341    0.88153    0.44173    1.000
    N47      N        0.00858    0.07384    0.42397    1.000
    C32      C        0.00904    0.00938    0.43754    1.000
    N48      N        0.99716    0.93873    0.45802    1.000
    N49      N        0.82374    0.68117    0.03829    1.000
    C33      C        0.74130    0.68348    0.03962    1.000
    N50      N        0.53672    0.78484    0.01776    1.000
    C34      C        0.59372    0.73702    0.02815    1.000
    N51      N        0.64782    0.67803    0.04279    1.000
    N52      N        0.05995    0.32456    0.41719    1.000
    C35      C        0.10482    0.37972    0.41158    1.000
    N53      N        0.13587    0.57337    0.43032    1.000
    C36      C        0.14409    0.50851    0.41891    1.000
    N54      N        0.16460    0.43701    0.40312    1.000
    Mn7      Mn       0.37745    0.30015    0.92580    1.000
    Mn8      Mn       0.53190    0.30064    0.58059    1.000
    N55      N        0.32729    0.29294    0.82512    1.000
    C37      C        0.30677    0.29070    0.77223    1.000
    N56      N        0.38555    0.28292    0.62216    1.000
    C38      C        0.33721    0.28623    0.66638    1.000
    N57      N        0.27403    0.29063    0.71329    1.000
    N58      N        0.52418    0.31162    0.88350    1.000
    C39      C        0.57300    0.31748    0.83948    1.000
    N59      N        0.58927    0.30802    0.67965    1.000
    C40      C        0.60683    0.31420    0.73342    1.000
    N60      N        0.63544    0.32404    0.79284    1.000
    N61      N        0.43033    0.29973    0.02729    1.000
    C41      C        0.49158    0.26693    0.05177    1.000
    N62      N        0.72218    0.21467    0.05252    1.000
    C42      C        0.64234    0.22213    0.06548    1.000
    N63      N        0.55370    0.22667    0.08427    1.000
    N64      N        0.40293    0.17356    0.93075    1.000
    C43      C        0.44659    0.11847    0.94173    1.000
    N65      N        0.49142    0.92616    0.92397    1.000
    C44      C        0.49096    0.99062    0.93754    1.000
    N66      N        0.50284    0.06127    0.95802    1.000
    N67      N        0.67626    0.31883    0.53829    1.000
    C45      C        0.75870    0.31652    0.53962    1.000
    N68      N        0.96328    0.21516    0.51776    1.000
    C46      C        0.90628    0.26298    0.52815    1.000
    N69      N        0.85218    0.32197    0.54279    1.000
    N70      N        0.44005    0.67544    0.91719    1.000
    C47      C        0.39518    0.62028    0.91158    1.000
    N71      N        0.36413    0.42663    0.93032    1.000
    C48      C        0.35591    0.49149    0.91891    1.000
    N72      N        0.33540    0.56299    0.90312    1.000
