data_functionalizedCrystal
_audit_creation_method	'EQeq! by Chris Wilmer'
_symmetry_space_group_name_H-M	'P1'
_symmetry_Int_Tables_number	1
_symmetry_cell_setting	triclinic
loop_
_symmetry_equiv_pos_as_xyz
  x,y,z
_cell_length_a	23.286
_cell_length_b	17.2577
_cell_length_c	18.2221
_cell_angle_alpha	90
_cell_angle_beta	126.661
_cell_angle_gamma	90
loop_
_atom_site_label
_atom_site_type_symbol
_atom_site_fract_x
_atom_site_fract_y
_atom_site_fract_z
_atom_site_charge
Mof_Cd	Cd	0.22509	0.14002	0.21835	0.453
Mof_Cd	Cd	0.28662	0.38197	0.27787	0.452
Mof_N 	N 	0.1017	0.1764	0.141	-0.089
Mof_N 	N 	0.0393	0.139	0.0867	-0.05
Mof_N 	N 	0.3072	0.398	0.1632	-0.087
Mof_N 	N 	0.3131	0.3558	0.1055	-0.05
Mof_O 	O 	0.1505	0.3723	0.135	-0.236
Mof_O 	O 	0.2167	0.2733	0.2223	-0.283
Mof_O 	O 	0.2829	0.5111	0.2451	-0.279
Mof_O 	O 	0.2715	0.6012	0.151	-0.244
Mof_O 	O 	0.2798	0.4196	0.8941	-0.266
Mof_O 	O 	0.3096	0.3016	0.95	-0.258
Mof_O 	O 	0.9037	0.0903	0.9194	-0.273
Mof_O 	O 	0.8729	0.2112	0.8846	-0.261
Mof_C 	C 	0.0081	0.0021	0.2184	-0.077
Mof_H 	H 	0.0148	0.9548	0.2	0.072
Mof_C 	C 	0.0071	0.134	0.2166	-0.069
Mof_H 	H 	0.0115	0.1808	0.195	0.081
Mof_C 	C 	0.0141	0.0658	0.1848	0.097
Mof_C 	C 	0.03	0.0626	0.1151	-0.165
Mof_H 	H 	0.0734	0.0326	0.1408	0.11
Mof_H 	H 	0.9913	0.0354	0.0612	0.11
Mof_C 	C 	0.9882	0.1884	0.016	-0.016
Mof_C 	C 	0.0227	0.258	0.0311	-0.034
Mof_H 	H 	0.0033	0.3028	0.9962	0.065
Mof_C 	C 	0.0923	0.2476	0.1092	0.013
Mof_C 	C 	0.2806	0.5311	0.176	0.27
Mof_C 	C 	0.1567	0.3027	0.1578	0.274
Mof_C 	C 	0.2968	0.3693	0.9548	0.288
Mof_C 	C 	0.2972	0.3993	0.0318	-0.009
Mof_C 	C 	0.2839	0.4725	0.0464	-0.024
Mof_H 	H 	0.2737	0.5157	0.0098	0.068
Mof_C 	C 	0.2886	0.4707	0.1271	-0.003
Mof_C 	C 	0.9174	0.1589	0.9367	0.291
Mof_C 	C 	0.3421	0.2757	0.1319	-0.154
Mof_H 	H 	0.3248	0.2457	0.0773	0.108
Mof_H 	H 	0.3254	0.2511	0.1637	0.098
Mof_C 	C 	0.4243	0.2766	0.194	0.085
Mof_C 	C 	0.4616	0.2745	0.1554	-0.073
Mof_H 	H 	0.4368	0.2727	0.0923	0.079
Mof_C 	C 	0.4641	0.275	0.2873	-0.076
Mof_H 	H 	0.4401	0.2742	0.3138	0.072
Mof_Cd	Cd	0.72509	0.64002	0.21835	0.452
Mof_Cd	Cd	0.78662	0.88197	0.27787	0.451
Mof_N 	N 	0.6017	0.6764	0.141	-0.09
Mof_N 	N 	0.5393	0.639	0.0867	-0.051
Mof_N 	N 	0.8072	0.898	0.1632	-0.088
Mof_N 	N 	0.8131	0.8558	0.1055	-0.051
Mof_O 	O 	0.6505	0.8723	0.135	-0.238
Mof_O 	O 	0.7167	0.7733	0.2223	-0.284
Mof_O 	O 	0.7829	0.0111	0.2451	-0.279
Mof_O 	O 	0.7715	0.1012	0.151	-0.244
Mof_O 	O 	0.7798	0.9196	0.8941	-0.266
Mof_O 	O 	0.8096	0.8016	0.95	-0.258
Mof_O 	O 	0.4037	0.5903	0.9194	-0.273
Mof_O 	O 	0.3729	0.7112	0.8846	-0.261
Mof_C 	C 	0.5081	0.5021	0.2184	-0.081
Mof_H 	H 	0.5148	0.4548	0.2	0.072
Mof_C 	C 	0.5071	0.634	0.2166	-0.072
Mof_H 	H 	0.5115	0.6808	0.195	0.082
Mof_C 	C 	0.5141	0.5658	0.1848	0.1
Mof_C 	C 	0.53	0.5626	0.1151	-0.168
Mof_H 	H 	0.5734	0.5326	0.1408	0.11
Mof_H 	H 	0.4913	0.5354	0.0612	0.111
Mof_C 	C 	0.4882	0.6884	0.016	-0.012
Mof_C 	C 	0.5227	0.758	0.0311	-0.039
Mof_H 	H 	0.5033	0.8028	0.9962	0.068
Mof_C 	C 	0.5923	0.7476	0.1092	0.015
Mof_C 	C 	0.7806	0.0311	0.176	0.27
Mof_C 	C 	0.6567	0.8027	0.1578	0.274
Mof_C 	C 	0.7968	0.8693	0.9548	0.289
Mof_C 	C 	0.7972	0.8993	0.0318	-0.011
Mof_C 	C 	0.7839	0.9725	0.0464	-0.024
Mof_H 	H 	0.7737	0.0157	0.0098	0.067
Mof_C 	C 	0.7886	0.9707	0.1271	-0.003
Mof_C 	C 	0.4174	0.6589	0.9367	0.289
Mof_C 	C 	0.8421	0.7757	0.1319	-0.155
Mof_H 	H 	0.8248	0.7457	0.0773	0.108
Mof_H 	H 	0.8254	0.7511	0.1637	0.098
Mof_C 	C 	0.9243	0.7766	0.194	0.086
Mof_C 	C 	0.9616	0.7745	0.1554	-0.075
Mof_H 	H 	0.9368	0.7727	0.0923	0.08
Mof_C 	C 	0.9641	0.775	0.2873	-0.078
Mof_H 	H 	0.9401	0.7742	0.3138	0.073
Mof_Cd	Cd	0.77491	0.14002	0.28165	0.452
Mof_Cd	Cd	0.71338	0.38197	0.22213	0.451
Mof_N 	N 	0.8983	0.1764	0.359	-0.09
Mof_N 	N 	0.9607	0.139	0.4133	-0.051
Mof_N 	N 	0.6928	0.398	0.3368	-0.088
Mof_N 	N 	0.6869	0.3558	0.3945	-0.051
Mof_O 	O 	0.8495	0.3723	0.365	-0.237
Mof_O 	O 	0.7833	0.2733	0.2777	-0.284
Mof_O 	O 	0.7171	0.5111	0.2549	-0.279
Mof_O 	O 	0.7285	0.6012	0.349	-0.244
Mof_O 	O 	0.7202	0.4196	0.6059	-0.266
Mof_O 	O 	0.6904	0.3016	0.55	-0.258
Mof_O 	O 	0.0963	0.0903	0.5806	-0.273
Mof_O 	O 	0.1271	0.2112	0.6154	-0.261
Mof_C 	C 	0.9919	0.0021	0.2816	-0.084
Mof_H 	H 	0.9852	0.9548	0.3	0.073
Mof_C 	C 	0.9929	0.134	0.2834	-0.075
Mof_H 	H 	0.9885	0.1808	0.305	0.083
Mof_C 	C 	0.9859	0.0658	0.3152	0.102
Mof_C 	C 	0.97	0.0626	0.3849	-0.169
Mof_H 	H 	0.9266	0.0326	0.3592	0.111
Mof_H 	H 	0.0087	0.0354	0.4388	0.112
Mof_C 	C 	0.0118	0.1884	0.484	-0.012
Mof_C 	C 	0.9773	0.258	0.4689	-0.039
Mof_H 	H 	0.9967	0.3028	0.5038	0.068
Mof_C 	C 	0.9077	0.2476	0.3908	0.015
Mof_C 	C 	0.7194	0.5311	0.324	0.27
Mof_C 	C 	0.8433	0.3027	0.3422	0.274
Mof_C 	C 	0.7032	0.3693	0.5452	0.289
Mof_C 	C 	0.7028	0.3993	0.4682	-0.01
Mof_C 	C 	0.7161	0.4725	0.4536	-0.024
Mof_H 	H 	0.7263	0.5157	0.4902	0.068
Mof_C 	C 	0.7114	0.4707	0.3729	-0.003
Mof_C 	C 	0.0826	0.1589	0.5633	0.289
Mof_C 	C 	0.6579	0.2757	0.3681	-0.154
Mof_H 	H 	0.6752	0.2457	0.4227	0.108
Mof_H 	H 	0.6746	0.2511	0.3363	0.098
Mof_C 	C 	0.5757	0.2766	0.306	0.085
Mof_C 	C 	0.5384	0.2745	0.3446	-0.073
Mof_H 	H 	0.5632	0.2727	0.4077	0.079
Mof_C 	C 	0.5359	0.275	0.2127	-0.076
Mof_H 	H 	0.5599	0.2742	0.1862	0.072
Mof_Cd	Cd	0.27491	0.64002	0.28165	0.452
Mof_Cd	Cd	0.21338	0.88197	0.22213	0.451
Mof_N 	N 	0.3983	0.6764	0.359	-0.09
Mof_N 	N 	0.4607	0.639	0.4133	-0.051
Mof_N 	N 	0.1928	0.898	0.3368	-0.088
Mof_N 	N 	0.1869	0.8558	0.3945	-0.051
Mof_O 	O 	0.3495	0.8723	0.365	-0.237
Mof_O 	O 	0.2833	0.7733	0.2777	-0.284
Mof_O 	O 	0.2171	0.0111	0.2549	-0.279
Mof_O 	O 	0.2285	0.1012	0.349	-0.244
Mof_O 	O 	0.2202	0.9196	0.6059	-0.266
Mof_O 	O 	0.1904	0.8016	0.55	-0.258
Mof_O 	O 	0.5963	0.5903	0.5806	-0.273
Mof_O 	O 	0.6271	0.7112	0.6154	-0.261
Mof_C 	C 	0.4919	0.5021	0.2816	-0.081
Mof_H 	H 	0.4852	0.4548	0.3	0.072
Mof_C 	C 	0.4929	0.634	0.2834	-0.072
Mof_H 	H 	0.4885	0.6808	0.305	0.082
Mof_C 	C 	0.4859	0.5658	0.3152	0.1
Mof_C 	C 	0.47	0.5626	0.3849	-0.168
Mof_H 	H 	0.4266	0.5326	0.3592	0.11
Mof_H 	H 	0.5087	0.5354	0.4388	0.111
Mof_C 	C 	0.5118	0.6884	0.484	-0.012
Mof_C 	C 	0.4773	0.758	0.4689	-0.039
Mof_H 	H 	0.4967	0.8028	0.5038	0.068
Mof_C 	C 	0.4077	0.7476	0.3908	0.015
Mof_C 	C 	0.2194	0.0311	0.324	0.269
Mof_C 	C 	0.3433	0.8027	0.3422	0.274
Mof_C 	C 	0.2032	0.8693	0.5452	0.289
Mof_C 	C 	0.2028	0.8993	0.4682	-0.01
Mof_C 	C 	0.2161	0.9725	0.4536	-0.024
Mof_H 	H 	0.2263	0.0157	0.4902	0.068
Mof_C 	C 	0.2114	0.9707	0.3729	-0.003
Mof_C 	C 	0.5826	0.6589	0.5633	0.289
Mof_C 	C 	0.1579	0.7757	0.3681	-0.153
Mof_H 	H 	0.1752	0.7457	0.4227	0.108
Mof_H 	H 	0.1746	0.7511	0.3363	0.098
Mof_C 	C 	0.0757	0.7766	0.306	0.083
Mof_C 	C 	0.0384	0.7745	0.3446	-0.071
Mof_H 	H 	0.0632	0.7727	0.4077	0.079
Mof_C 	C 	0.0359	0.775	0.2127	-0.073
Mof_H 	H 	0.0599	0.7742	0.1862	0.072
Mof_Cd	Cd	0.77491	0.85998	0.78165	0.452
Mof_Cd	Cd	0.71338	0.61803	0.72213	0.451
Mof_N 	N 	0.8983	0.8236	0.859	-0.09
Mof_N 	N 	0.9607	0.861	0.9133	-0.051
Mof_N 	N 	0.6928	0.602	0.8368	-0.088
Mof_N 	N 	0.6869	0.6442	0.8945	-0.051
Mof_O 	O 	0.8495	0.6277	0.865	-0.237
Mof_O 	O 	0.7833	0.7267	0.7777	-0.284
Mof_O 	O 	0.7171	0.4889	0.7549	-0.279
Mof_O 	O 	0.7285	0.3988	0.849	-0.244
Mof_O 	O 	0.7202	0.5804	0.1059	-0.266
Mof_O 	O 	0.6904	0.6984	0.05	-0.258
Mof_O 	O 	0.0963	0.9097	0.0806	-0.273
Mof_O 	O 	0.1271	0.7888	0.1154	-0.261
Mof_C 	C 	0.9919	0.9979	0.7816	-0.077
Mof_H 	H 	0.9852	0.0452	0.8	0.072
Mof_C 	C 	0.9929	0.866	0.7834	-0.069
Mof_H 	H 	0.9885	0.8192	0.805	0.081
Mof_C 	C 	0.9859	0.9342	0.8152	0.097
Mof_C 	C 	0.97	0.9374	0.8849	-0.165
Mof_H 	H 	0.9266	0.9674	0.8592	0.11
Mof_H 	H 	0.0087	0.9646	0.9388	0.11
Mof_C 	C 	0.0118	0.8116	0.984	-0.016
Mof_C 	C 	0.9773	0.742	0.9689	-0.034
Mof_H 	H 	0.9967	0.6972	0.0038	0.065
Mof_C 	C 	0.9077	0.7524	0.8908	0.013
Mof_C 	C 	0.7194	0.4689	0.824	0.27
Mof_C 	C 	0.8433	0.6973	0.8422	0.274
Mof_C 	C 	0.7032	0.6307	0.0452	0.288
Mof_C 	C 	0.7028	0.6007	0.9682	-0.009
Mof_C 	C 	0.7161	0.5275	0.9536	-0.024
Mof_H 	H 	0.7263	0.4843	0.9902	0.068
Mof_C 	C 	0.7114	0.5293	0.8729	-0.003
Mof_C 	C 	0.0826	0.8411	0.0633	0.291
Mof_C 	C 	0.6579	0.7243	0.8681	-0.154
Mof_H 	H 	0.6752	0.7543	0.9227	0.108
Mof_H 	H 	0.6746	0.7489	0.8363	0.098
Mof_C 	C 	0.5757	0.7234	0.806	0.085
Mof_C 	C 	0.5384	0.7255	0.8446	-0.073
Mof_H 	H 	0.5632	0.7273	0.9077	0.079
Mof_C 	C 	0.5359	0.725	0.7127	-0.076
Mof_H 	H 	0.5599	0.7258	0.6862	0.072
Mof_Cd	Cd	0.27491	0.35998	0.78165	0.452
Mof_Cd	Cd	0.21338	0.11803	0.72213	0.451
Mof_N 	N 	0.3983	0.3236	0.859	-0.09
Mof_N 	N 	0.4607	0.361	0.9133	-0.051
Mof_N 	N 	0.1928	0.102	0.8368	-0.088
Mof_N 	N 	0.1869	0.1442	0.8945	-0.051
Mof_O 	O 	0.3495	0.1277	0.865	-0.238
Mof_O 	O 	0.2833	0.2267	0.7777	-0.284
Mof_O 	O 	0.2171	0.9889	0.7549	-0.279
Mof_O 	O 	0.2285	0.8988	0.849	-0.244
Mof_O 	O 	0.2202	0.0804	0.1059	-0.266
Mof_O 	O 	0.1904	0.1984	0.05	-0.258
Mof_O 	O 	0.5963	0.4097	0.0806	-0.273
Mof_O 	O 	0.6271	0.2888	0.1154	-0.261
Mof_C 	C 	0.4919	0.4979	0.7816	-0.081
Mof_H 	H 	0.4852	0.5452	0.8	0.072
Mof_C 	C 	0.4929	0.366	0.7834	-0.072
Mof_H 	H 	0.4885	0.3192	0.805	0.082
Mof_C 	C 	0.4859	0.4342	0.8152	0.1
Mof_C 	C 	0.47	0.4374	0.8849	-0.168
Mof_H 	H 	0.4266	0.4674	0.8592	0.11
Mof_H 	H 	0.5087	0.4646	0.9388	0.111
Mof_C 	C 	0.5118	0.3116	0.984	-0.012
Mof_C 	C 	0.4773	0.242	0.9689	-0.039
Mof_H 	H 	0.4967	0.1972	0.0038	0.068
Mof_C 	C 	0.4077	0.2524	0.8908	0.015
Mof_C 	C 	0.2194	0.9689	0.824	0.27
Mof_C 	C 	0.3433	0.1973	0.8422	0.274
Mof_C 	C 	0.2032	0.1307	0.0452	0.289
Mof_C 	C 	0.2028	0.1007	0.9682	-0.011
Mof_C 	C 	0.2161	0.0275	0.9536	-0.024
Mof_H 	H 	0.2263	0.9843	0.9902	0.067
Mof_C 	C 	0.2114	0.0293	0.8729	-0.003
Mof_C 	C 	0.5826	0.3411	0.0633	0.289
Mof_C 	C 	0.1579	0.2243	0.8681	-0.155
Mof_H 	H 	0.1752	0.2543	0.9227	0.108
Mof_H 	H 	0.1746	0.2489	0.8363	0.098
Mof_C 	C 	0.0757	0.2234	0.806	0.086
Mof_C 	C 	0.0384	0.2255	0.8446	-0.075
Mof_H 	H 	0.0632	0.2273	0.9077	0.08
Mof_C 	C 	0.0359	0.225	0.7127	-0.078
Mof_H 	H 	0.0599	0.2258	0.6862	0.073
Mof_Cd	Cd	0.22509	0.85998	0.71835	0.452
Mof_Cd	Cd	0.28662	0.61803	0.77787	0.451
Mof_N 	N 	0.1017	0.8236	0.641	-0.09
Mof_N 	N 	0.0393	0.861	0.5867	-0.051
Mof_N 	N 	0.3072	0.602	0.6632	-0.088
Mof_N 	N 	0.3131	0.6442	0.6055	-0.051
Mof_O 	O 	0.1505	0.6277	0.635	-0.237
Mof_O 	O 	0.2167	0.7267	0.7223	-0.284
Mof_O 	O 	0.2829	0.4889	0.7451	-0.279
Mof_O 	O 	0.2715	0.3988	0.651	-0.244
Mof_O 	O 	0.2798	0.5804	0.3941	-0.266
Mof_O 	O 	0.3096	0.6984	0.45	-0.258
Mof_O 	O 	0.9037	0.9097	0.4194	-0.273
Mof_O 	O 	0.8729	0.7888	0.3846	-0.261
Mof_C 	C 	0.0081	0.9979	0.7184	-0.084
Mof_H 	H 	0.0148	0.0452	0.7	0.073
Mof_C 	C 	0.0071	0.866	0.7166	-0.075
Mof_H 	H 	0.0115	0.8192	0.695	0.083
Mof_C 	C 	0.0141	0.9342	0.6848	0.102
Mof_C 	C 	0.03	0.9374	0.6151	-0.169
Mof_H 	H 	0.0734	0.9674	0.6408	0.111
Mof_H 	H 	0.9913	0.9646	0.5612	0.112
Mof_C 	C 	0.9882	0.8116	0.516	-0.012
Mof_C 	C 	0.0227	0.742	0.5311	-0.039
Mof_H 	H 	0.0033	0.6972	0.4962	0.068
Mof_C 	C 	0.0923	0.7524	0.6092	0.015
Mof_C 	C 	0.2806	0.4689	0.676	0.27
Mof_C 	C 	0.1567	0.6973	0.6578	0.274
Mof_C 	C 	0.2968	0.6307	0.4548	0.289
Mof_C 	C 	0.2972	0.6007	0.5318	-0.01
Mof_C 	C 	0.2839	0.5275	0.5464	-0.024
Mof_H 	H 	0.2737	0.4843	0.5098	0.068
Mof_C 	C 	0.2886	0.5293	0.6271	-0.003
Mof_C 	C 	0.9174	0.8411	0.4367	0.289
Mof_C 	C 	0.3421	0.7243	0.6319	-0.154
Mof_H 	H 	0.3248	0.7543	0.5773	0.108
Mof_H 	H 	0.3254	0.7489	0.6637	0.098
Mof_C 	C 	0.4243	0.7234	0.694	0.085
Mof_C 	C 	0.4616	0.7255	0.6554	-0.073
Mof_H 	H 	0.4368	0.7273	0.5923	0.079
Mof_C 	C 	0.4641	0.725	0.7873	-0.076
Mof_H 	H 	0.4401	0.7258	0.8138	0.072
Mof_Cd	Cd	0.72509	0.35998	0.71835	0.452
Mof_Cd	Cd	0.78662	0.11803	0.77787	0.451
Mof_N 	N 	0.6017	0.3236	0.641	-0.09
Mof_N 	N 	0.5393	0.361	0.5867	-0.051
Mof_N 	N 	0.8072	0.102	0.6632	-0.088
Mof_N 	N 	0.8131	0.1442	0.6055	-0.051
Mof_O 	O 	0.6505	0.1277	0.635	-0.237
Mof_O 	O 	0.7167	0.2267	0.7223	-0.284
Mof_O 	O 	0.7829	0.9889	0.7451	-0.279
Mof_O 	O 	0.7715	0.8988	0.651	-0.244
Mof_O 	O 	0.7798	0.0804	0.3941	-0.266
Mof_O 	O 	0.8096	0.1984	0.45	-0.258
Mof_O 	O 	0.4037	0.4097	0.4194	-0.273
Mof_O 	O 	0.3729	0.2888	0.3846	-0.261
Mof_C 	C 	0.5081	0.4979	0.7184	-0.081
Mof_H 	H 	0.5148	0.5452	0.7	0.072
Mof_C 	C 	0.5071	0.366	0.7166	-0.072
Mof_H 	H 	0.5115	0.3192	0.695	0.082
Mof_C 	C 	0.5141	0.4342	0.6848	0.1
Mof_C 	C 	0.53	0.4374	0.6151	-0.168
Mof_H 	H 	0.5734	0.4674	0.6408	0.11
Mof_H 	H 	0.4913	0.4646	0.5612	0.111
Mof_C 	C 	0.4882	0.3116	0.516	-0.012
Mof_C 	C 	0.5227	0.242	0.5311	-0.039
Mof_H 	H 	0.5033	0.1972	0.4962	0.068
Mof_C 	C 	0.5923	0.2524	0.6092	0.015
Mof_C 	C 	0.7806	0.9689	0.676	0.269
Mof_C 	C 	0.6567	0.1973	0.6578	0.274
Mof_C 	C 	0.7968	0.1307	0.4548	0.289
Mof_C 	C 	0.7972	0.1007	0.5318	-0.01
Mof_C 	C 	0.7839	0.0275	0.5464	-0.024
Mof_H 	H 	0.7737	0.9843	0.5098	0.068
Mof_C 	C 	0.7886	0.0293	0.6271	-0.003
Mof_C 	C 	0.4174	0.3411	0.4367	0.289
Mof_C 	C 	0.8421	0.2243	0.6319	-0.153
Mof_H 	H 	0.8248	0.2543	0.5773	0.108
Mof_H 	H 	0.8254	0.2489	0.6637	0.098
Mof_C 	C 	0.9243	0.2234	0.694	0.083
Mof_C 	C 	0.9616	0.2255	0.6554	-0.071
Mof_H 	H 	0.9368	0.2273	0.5923	0.079
Mof_C 	C 	0.9641	0.225	0.7873	-0.073
Mof_H 	H 	0.9401	0.2258	0.8138	0.072
_end
