data_functionalizedCrystal
_audit_creation_method	'EQeq! by Chris Wilmer'
_symmetry_space_group_name_H-M	'P1'
_symmetry_Int_Tables_number	1
_symmetry_cell_setting	triclinic
loop_
_symmetry_equiv_pos_as_xyz
  x,y,z
_cell_length_a	21.9867
_cell_length_b	16.5916
_cell_length_c	25.552
_cell_angle_alpha	90
_cell_angle_beta	115.203
_cell_angle_gamma	90
loop_
_atom_site_label
_atom_site_type_symbol
_atom_site_fract_x
_atom_site_fract_y
_atom_site_fract_z
_atom_site_charge
Mof_Ag	Ag	0.84427	0.45709	0.36725	0.524
Mof_Ag	Ag	0.82221	0.75508	0.86674	0.536
Mof_C 	C 	0.0978	0.9705	0.9994	0.103
Mof_C 	C 	0.6237	0.7559	0.5012	0.097
Mof_C 	C 	0.2772	0.1384	0.0084	-0.138
Mof_H 	H 	0.2979	0.135	0.0485	0.075
Mof_C 	C 	0.5596	0.8014	0.4684	0.07
Mof_C 	C 	0.1818	0.0525	0.0055	0.092
Mof_C 	C 	0.0038	0.8847	0.9951	-0.13
Mof_H 	H 	0.0237	0.8831	0.0353	0.084
Mof_C 	C 	0.7974	0.5836	0.5039	-0.139
Mof_H 	H 	0.8194	0.5875	0.544	0.086
Mof_C 	C 	0.5329	0.811	0.4101	-0.152
Mof_H 	H 	0.5545	0.7898	0.3888	0.084
Mof_C 	C 	0.71	0.7262	0.5864	0.099
Mof_C 	C 	0.9441	0.8442	0.9636	0.082
Mof_H 	H 	0.9241	0.8162	0.9837	-0.012
Mof_C 	C 	0.2201	0.153	0.8912	0.067
Mof_H 	H 	0.2004	0.1581	0.8511	-0.027
Mof_C 	C 	0.1801	0.0023	0.0867	0.095
Mof_C 	C 	0.1789	0.9559	0.1798	-0.143
Mof_H 	H 	0.1349	0.9381	0.1596	0.083
Mof_C 	C 	0.7431	0.7364	0.6502	0.066
Mof_C 	C 	0.0333	0.9275	0.9655	0.064
Mof_C 	C 	0.7356	0.5648	0.3878	0.089
Mof_H 	H 	0.7143	0.5585	0.3478	-0.012
Mof_C 	C 	0.7355	0.6209	0.4733	0.073
Mof_C 	C 	0.5256	0.8351	0.498	-0.156
Mof_H 	H 	0.5429	0.8308	0.5381	0.078
Mof_C 	C 	0.2147	0.1013	0.9766	0.055
Mof_C 	C 	0.7039	0.6095	0.414	-0.14
Mof_H 	H 	0.6618	0.6318	0.3923	0.086
Mof_C 	C 	0.2123	0.9918	0.151	0.061
Mof_C 	C 	0.186	0.1103	0.9172	-0.135
Mof_H 	H 	0.1442	0.0878	0.8947	0.078
Mof_C 	C 	0.705	0.6723	0.5036	0.102
Mof_C 	C 	0.4733	0.8528	0.3828	0.078
Mof_H 	H 	0.4559	0.8603	0.343	-0.022
Mof_C 	C 	0.467	0.8744	0.4679	0.085
Mof_H 	H 	0.4448	0.8968	0.4884	-0.025
Mof_C 	C 	0.8253	0.541	0.4734	0.094
Mof_H 	H 	0.8676	0.5184	0.4939	-0.016
Mof_C 	C 	0.3074	0.1807	0.9783	0.079
Mof_H 	H 	0.3487	0.2054	0.9993	-0.013
Mof_C 	C 	0.002	0.928	0.9057	-0.138
Mof_H 	H 	0.0197	0.9577	0.8846	0.08
Mof_C 	C 	0.3068	0.005	0.2416	0.079
Mof_H 	H 	0.3511	0.0216	0.2626	-0.026
Mof_C 	C 	0.7145	0.788	0.6767	-0.143
Mof_H 	H 	0.6758	0.8172	0.655	0.072
Mof_C 	C 	0.9441	0.8837	0.8781	0.084
Mof_H 	H 	0.9248	0.8817	0.8379	-0.007
Mof_C 	C 	0.2114	0.9466	0.239	0.082
Mof_H 	H 	0.1885	0.9222	0.2581	-0.016
Mof_C 	C 	0.2778	0.0168	0.1825	-0.149
Mof_H 	H 	0.3018	0.0409	0.1643	0.075
Mof_C 	C 	0.7455	0.7942	0.736	0.08
Mof_H 	H 	0.7265	0.8287	0.7536	-0.021
Mof_C 	C 	0.8281	0.7085	0.7432	0.09
Mof_H 	H 	0.8673	0.6808	0.7659	-0.023
Mof_C 	C 	0.8021	0.6991	0.684	-0.149
Mof_H 	H 	0.8244	0.6678	0.6675	0.086
Mof_N 	N 	0.7954	0.5302	0.4165	-0.195
Mof_N 	N 	0.4394	0.8827	0.411	-0.217
Mof_N 	N 	0.8005	0.7549	0.7697	-0.202
Mof_N 	N 	0.7376	0.6773	0.5615	-0.137
Mof_N 	N 	0.6479	0.7101	0.4713	-0.138
Mof_N 	N 	0.6527	0.7669	0.5582	-0.142
Mof_N 	N 	0.9137	0.8433	0.9058	-0.188
Mof_N 	N 	0.2751	0.9714	0.2703	-0.2
Mof_N 	N 	0.2798	0.187	0.9212	-0.21
Mof_N 	N 	0.1256	0.0127	0.9718	-0.141
Mof_N 	N 	0.1227	0.9633	0.0573	-0.138
Mof_N 	N 	0.2111	0.0499	0.0635	-0.149
Mof_Ag	Ag	0.34427	0.95709	0.36725	0.523
Mof_Ag	Ag	0.32221	0.25508	0.86674	0.535
Mof_C 	C 	0.5978	0.4705	0.9994	0.1
Mof_C 	C 	0.1237	0.2559	0.5012	0.096
Mof_C 	C 	0.7772	0.6384	0.0084	-0.132
Mof_H 	H 	0.7979	0.635	0.0485	0.073
Mof_C 	C 	0.0596	0.3014	0.4684	0.07
Mof_C 	C 	0.6818	0.5525	0.0055	0.095
Mof_C 	C 	0.5038	0.3847	0.9951	-0.136
Mof_H 	H 	0.5237	0.3831	0.0353	0.086
Mof_C 	C 	0.2974	0.0836	0.5039	-0.139
Mof_H 	H 	0.3194	0.0875	0.544	0.086
Mof_C 	C 	0.0329	0.311	0.4101	-0.153
Mof_H 	H 	0.0545	0.2898	0.3888	0.085
Mof_C 	C 	0.21	0.2262	0.5864	0.099
Mof_C 	C 	0.4441	0.3442	0.9636	0.086
Mof_H 	H 	0.4241	0.3162	0.9837	-0.013
Mof_C 	C 	0.7201	0.653	0.8912	0.065
Mof_H 	H 	0.7004	0.6581	0.8511	-0.026
Mof_C 	C 	0.6801	0.5023	0.0867	0.095
Mof_C 	C 	0.6789	0.4559	0.1798	-0.143
Mof_H 	H 	0.6349	0.4381	0.1596	0.084
Mof_C 	C 	0.2431	0.2364	0.6502	0.066
Mof_C 	C 	0.5333	0.4275	0.9655	0.068
Mof_C 	C 	0.2356	0.0648	0.3878	0.089
Mof_H 	H 	0.2143	0.0585	0.3478	-0.012
Mof_C 	C 	0.2355	0.1209	0.4733	0.073
Mof_C 	C 	0.0256	0.3351	0.498	-0.157
Mof_H 	H 	0.0429	0.3308	0.5381	0.078
Mof_C 	C 	0.7147	0.6013	0.9766	0.05
Mof_C 	C 	0.2039	0.1095	0.414	-0.14
Mof_H 	H 	0.1618	0.1318	0.3923	0.086
Mof_C 	C 	0.7123	0.4918	0.151	0.06
Mof_C 	C 	0.686	0.6103	0.9172	-0.132
Mof_H 	H 	0.6442	0.5878	0.8947	0.077
Mof_C 	C 	0.205	0.1723	0.5036	0.102
Mof_C 	C 	0.9733	0.3528	0.3828	0.079
Mof_H 	H 	0.9559	0.3603	0.343	-0.022
Mof_C 	C 	0.967	0.3744	0.4679	0.085
Mof_H 	H 	0.9448	0.3968	0.4884	-0.025
Mof_C 	C 	0.3253	0.041	0.4734	0.094
Mof_H 	H 	0.3676	0.0184	0.4939	-0.016
Mof_C 	C 	0.8074	0.6807	0.9783	0.075
Mof_H 	H 	0.8487	0.7054	0.9993	-0.012
Mof_C 	C 	0.502	0.428	0.9057	-0.141
Mof_H 	H 	0.5197	0.4577	0.8846	0.081
Mof_C 	C 	0.8068	0.505	0.2416	0.079
Mof_H 	H 	0.8511	0.5216	0.2626	-0.026
Mof_C 	C 	0.2145	0.288	0.6767	-0.143
Mof_H 	H 	0.1758	0.3172	0.655	0.072
Mof_C 	C 	0.4441	0.3837	0.8781	0.087
Mof_H 	H 	0.4248	0.3817	0.8379	-0.008
Mof_C 	C 	0.7114	0.4466	0.239	0.082
Mof_H 	H 	0.6885	0.4222	0.2581	-0.016
Mof_C 	C 	0.7778	0.5168	0.1825	-0.149
Mof_H 	H 	0.8018	0.5409	0.1643	0.075
Mof_C 	C 	0.2455	0.2942	0.736	0.08
Mof_H 	H 	0.2265	0.3287	0.7536	-0.021
Mof_C 	C 	0.3281	0.2085	0.7432	0.09
Mof_H 	H 	0.3673	0.1808	0.7659	-0.023
Mof_C 	C 	0.3021	0.1991	0.684	-0.149
Mof_H 	H 	0.3244	0.1678	0.6675	0.086
Mof_N 	N 	0.2954	0.0302	0.4165	-0.195
Mof_N 	N 	0.9394	0.3827	0.411	-0.217
Mof_N 	N 	0.3005	0.2549	0.7697	-0.202
Mof_N 	N 	0.2376	0.1773	0.5615	-0.137
Mof_N 	N 	0.1479	0.2101	0.4713	-0.138
Mof_N 	N 	0.1527	0.2669	0.5582	-0.142
Mof_N 	N 	0.4137	0.3433	0.9058	-0.189
Mof_N 	N 	0.7751	0.4714	0.2703	-0.2
Mof_N 	N 	0.7798	0.687	0.9212	-0.209
Mof_N 	N 	0.6256	0.5127	0.9718	-0.142
Mof_N 	N 	0.6227	0.4633	0.0573	-0.137
Mof_N 	N 	0.7111	0.5499	0.0635	-0.15
Mof_Ag	Ag	0.15573	0.45709	0.13275	0.523
Mof_Ag	Ag	0.17779	0.75508	0.63326	0.535
Mof_C 	C 	0.9022	0.9705	0.5006	0.1
Mof_C 	C 	0.3763	0.7559	0.9988	0.096
Mof_C 	C 	0.7228	0.1384	0.4916	-0.134
Mof_H 	H 	0.7021	0.135	0.4515	0.074
Mof_C 	C 	0.4404	0.8014	0.0316	0.07
Mof_C 	C 	0.8182	0.0525	0.4945	0.094
Mof_C 	C 	0.9962	0.8847	0.5049	-0.135
Mof_H 	H 	0.9763	0.8831	0.4647	0.086
Mof_C 	C 	0.2026	0.5836	0.9961	-0.137
Mof_H 	H 	0.1806	0.5875	0.956	0.085
Mof_C 	C 	0.4671	0.811	0.0899	-0.152
Mof_H 	H 	0.4455	0.7898	0.1112	0.084
Mof_C 	C 	0.29	0.7262	0.9136	0.099
Mof_C 	C 	0.0559	0.8442	0.5364	0.086
Mof_H 	H 	0.0759	0.8162	0.5163	-0.013
Mof_C 	C 	0.7799	0.153	0.6088	0.066
Mof_H 	H 	0.7996	0.1581	0.6489	-0.026
Mof_C 	C 	0.8199	0.0023	0.4133	0.095
Mof_C 	C 	0.8211	0.9559	0.3202	-0.143
Mof_H 	H 	0.8651	0.9381	0.3404	0.084
Mof_C 	C 	0.2569	0.7364	0.8498	0.066
Mof_C 	C 	0.9667	0.9275	0.5345	0.067
Mof_C 	C 	0.2644	0.5648	0.1122	0.088
Mof_H 	H 	0.2857	0.5585	0.1522	-0.012
Mof_C 	C 	0.2645	0.6209	0.0267	0.07
Mof_C 	C 	0.4744	0.8351	0.002	-0.157
Mof_H 	H 	0.4571	0.8308	0.9619	0.078
Mof_C 	C 	0.7853	0.1013	0.5234	0.052
Mof_C 	C 	0.2961	0.6095	0.086	-0.139
Mof_H 	H 	0.3382	0.6318	0.1077	0.086
Mof_C 	C 	0.7877	0.9918	0.349	0.061
Mof_C 	C 	0.814	0.1103	0.5828	-0.134
Mof_H 	H 	0.8558	0.0878	0.6053	0.077
Mof_C 	C 	0.295	0.6723	0.9964	0.103
Mof_C 	C 	0.5267	0.8528	0.1172	0.078
Mof_H 	H 	0.5441	0.8603	0.157	-0.022
Mof_C 	C 	0.533	0.8744	0.0321	0.085
Mof_H 	H 	0.5552	0.8968	0.0116	-0.025
Mof_C 	C 	0.1747	0.541	0.0266	0.092
Mof_H 	H 	0.1324	0.5184	0.0061	-0.015
Mof_C 	C 	0.6926	0.1807	0.5217	0.077
Mof_H 	H 	0.6513	0.2054	0.5007	-0.013
Mof_C 	C 	0.998	0.928	0.5943	-0.142
Mof_H 	H 	0.9803	0.9577	0.6154	0.081
Mof_C 	C 	0.6932	0.005	0.2584	0.079
Mof_H 	H 	0.6489	0.0216	0.2374	-0.026
Mof_C 	C 	0.2855	0.788	0.8233	-0.143
Mof_H 	H 	0.3242	0.8172	0.845	0.072
Mof_C 	C 	0.0559	0.8837	0.6219	0.087
Mof_H 	H 	0.0752	0.8817	0.6621	-0.008
Mof_C 	C 	0.7886	0.9466	0.261	0.082
Mof_H 	H 	0.8115	0.9222	0.2419	-0.016
Mof_C 	C 	0.7222	0.0168	0.3175	-0.149
Mof_H 	H 	0.6982	0.0409	0.3357	0.075
Mof_C 	C 	0.2545	0.7942	0.764	0.08
Mof_H 	H 	0.2735	0.8287	0.7464	-0.021
Mof_C 	C 	0.1719	0.7085	0.7568	0.09
Mof_H 	H 	0.1327	0.6808	0.7341	-0.023
Mof_C 	C 	0.1979	0.6991	0.816	-0.149
Mof_H 	H 	0.1756	0.6678	0.8325	0.086
Mof_N 	N 	0.2046	0.5302	0.0835	-0.195
Mof_N 	N 	0.5606	0.8827	0.089	-0.217
Mof_N 	N 	0.1995	0.7549	0.7303	-0.202
Mof_N 	N 	0.2624	0.6773	0.9385	-0.137
Mof_N 	N 	0.3521	0.7101	0.0287	-0.138
Mof_N 	N 	0.3473	0.7669	0.9418	-0.142
Mof_N 	N 	0.0863	0.8433	0.5942	-0.189
Mof_N 	N 	0.7249	0.9714	0.2297	-0.2
Mof_N 	N 	0.7202	0.187	0.5788	-0.209
Mof_N 	N 	0.8744	0.0127	0.5282	-0.142
Mof_N 	N 	0.8773	0.9633	0.4427	-0.137
Mof_N 	N 	0.7889	0.0499	0.4365	-0.149
Mof_Ag	Ag	0.65573	0.95709	0.13275	0.523
Mof_Ag	Ag	0.67779	0.25508	0.63326	0.535
Mof_C 	C 	0.4022	0.4705	0.5006	0.1
Mof_C 	C 	0.8763	0.2559	0.9988	0.095
Mof_C 	C 	0.2228	0.6384	0.4916	-0.134
Mof_H 	H 	0.2021	0.635	0.4515	0.074
Mof_C 	C 	0.9404	0.3014	0.0316	0.068
Mof_C 	C 	0.3182	0.5525	0.4945	0.094
Mof_C 	C 	0.4962	0.3847	0.5049	-0.135
Mof_H 	H 	0.4763	0.3831	0.4647	0.086
Mof_C 	C 	0.7026	0.0836	0.9961	-0.142
Mof_H 	H 	0.6806	0.0875	0.956	0.087
Mof_C 	C 	0.9671	0.311	0.0899	-0.149
Mof_H 	H 	0.9455	0.2898	0.1112	0.084
Mof_C 	C 	0.79	0.2262	0.9136	0.099
Mof_C 	C 	0.5559	0.3442	0.5364	0.086
Mof_H 	H 	0.5759	0.3162	0.5163	-0.013
Mof_C 	C 	0.2799	0.653	0.6088	0.066
Mof_H 	H 	0.2996	0.6581	0.6489	-0.026
Mof_C 	C 	0.3199	0.5023	0.4133	0.095
Mof_C 	C 	0.3211	0.4559	0.3202	-0.143
Mof_H 	H 	0.3651	0.4381	0.3404	0.084
Mof_C 	C 	0.7569	0.2364	0.8498	0.066
Mof_C 	C 	0.4667	0.4275	0.5345	0.067
Mof_C 	C 	0.7644	0.0648	0.1122	0.09
Mof_H 	H 	0.7857	0.0585	0.1522	-0.012
Mof_C 	C 	0.7645	0.1209	0.0267	0.075
Mof_C 	C 	0.9744	0.3351	0.002	-0.151
Mof_H 	H 	0.9571	0.3308	0.9619	0.076
Mof_C 	C 	0.2853	0.6013	0.5234	0.052
Mof_C 	C 	0.7961	0.1095	0.086	-0.141
Mof_H 	H 	0.8382	0.1318	0.1077	0.087
Mof_C 	C 	0.2877	0.4918	0.349	0.06
Mof_C 	C 	0.314	0.6103	0.5828	-0.134
Mof_H 	H 	0.3558	0.5878	0.6053	0.077
Mof_C 	C 	0.795	0.1723	0.9964	0.1
Mof_C 	C 	0.0267	0.3528	0.1172	0.076
Mof_H 	H 	0.0441	0.3603	0.157	-0.022
Mof_C 	C 	0.033	0.3744	0.0321	0.081
Mof_H 	H 	0.0552	0.3968	0.0116	-0.024
Mof_C 	C 	0.6747	0.041	0.0266	0.095
Mof_H 	H 	0.6324	0.0184	0.0061	-0.016
Mof_C 	C 	0.1926	0.6807	0.5217	0.077
Mof_H 	H 	0.1513	0.7054	0.5007	-0.013
Mof_C 	C 	0.498	0.428	0.5943	-0.141
Mof_H 	H 	0.4803	0.4577	0.6154	0.081
Mof_C 	C 	0.1932	0.505	0.2584	0.079
Mof_H 	H 	0.1489	0.5216	0.2374	-0.026
Mof_C 	C 	0.7855	0.288	0.8233	-0.143
Mof_H 	H 	0.8242	0.3172	0.845	0.072
Mof_C 	C 	0.5559	0.3837	0.6219	0.087
Mof_H 	H 	0.5752	0.3817	0.6621	-0.008
Mof_C 	C 	0.2886	0.4466	0.261	0.082
Mof_H 	H 	0.3115	0.4222	0.2419	-0.016
Mof_C 	C 	0.2222	0.5168	0.3175	-0.149
Mof_H 	H 	0.1982	0.5409	0.3357	0.075
Mof_C 	C 	0.7545	0.2942	0.764	0.08
Mof_H 	H 	0.7735	0.3287	0.7464	-0.021
Mof_C 	C 	0.6719	0.2085	0.7568	0.09
Mof_H 	H 	0.6327	0.1808	0.7341	-0.023
Mof_C 	C 	0.6979	0.1991	0.816	-0.149
Mof_H 	H 	0.6756	0.1678	0.8325	0.086
Mof_N 	N 	0.7046	0.0302	0.0835	-0.196
Mof_N 	N 	0.0606	0.3827	0.089	-0.216
Mof_N 	N 	0.6995	0.2549	0.7303	-0.202
Mof_N 	N 	0.7624	0.1773	0.9385	-0.137
Mof_N 	N 	0.8521	0.2101	0.0287	-0.137
Mof_N 	N 	0.8473	0.2669	0.9418	-0.142
Mof_N 	N 	0.5863	0.3433	0.5942	-0.189
Mof_N 	N 	0.2249	0.4714	0.2297	-0.2
Mof_N 	N 	0.2202	0.687	0.5788	-0.209
Mof_N 	N 	0.3744	0.5127	0.5282	-0.142
Mof_N 	N 	0.3773	0.4633	0.4427	-0.137
Mof_N 	N 	0.2889	0.5499	0.4365	-0.149
Mof_Ag	Ag	0.15573	0.54291	0.63275	0.523
Mof_Ag	Ag	0.17779	0.24492	0.13326	0.535
Mof_C 	C 	0.9022	0.0295	0.0006	0.102
Mof_C 	C 	0.3763	0.2441	0.4988	0.096
Mof_C 	C 	0.7228	0.8616	0.9916	-0.138
Mof_H 	H 	0.7021	0.865	0.9515	0.075
Mof_C 	C 	0.4404	0.1986	0.5316	0.07
Mof_C 	C 	0.8182	0.9475	0.9945	0.092
Mof_C 	C 	0.9962	0.1153	0.0049	-0.13
Mof_H 	H 	0.9763	0.1169	0.9647	0.084
Mof_C 	C 	0.2026	0.4164	0.4961	-0.139
Mof_H 	H 	0.1806	0.4125	0.456	0.086
Mof_C 	C 	0.4671	0.189	0.5899	-0.152
Mof_H 	H 	0.4455	0.2102	0.6112	0.084
Mof_C 	C 	0.29	0.2738	0.4136	0.099
Mof_C 	C 	0.0559	0.1558	0.0364	0.082
Mof_H 	H 	0.0759	0.1838	0.0163	-0.012
Mof_C 	C 	0.7799	0.847	0.1088	0.067
Mof_H 	H 	0.7996	0.8419	0.1489	-0.027
Mof_C 	C 	0.8199	0.9977	0.9133	0.095
Mof_C 	C 	0.8211	0.0441	0.8202	-0.143
Mof_H 	H 	0.8651	0.0619	0.8404	0.083
Mof_C 	C 	0.2569	0.2636	0.3498	0.066
Mof_C 	C 	0.9667	0.0725	0.0345	0.064
Mof_C 	C 	0.2644	0.4352	0.6122	0.089
Mof_H 	H 	0.2857	0.4415	0.6522	-0.012
Mof_C 	C 	0.2645	0.3791	0.5267	0.073
Mof_C 	C 	0.4744	0.1649	0.502	-0.156
Mof_H 	H 	0.4571	0.1692	0.4619	0.078
Mof_C 	C 	0.7853	0.8987	0.0234	0.055
Mof_C 	C 	0.2961	0.3905	0.586	-0.14
Mof_H 	H 	0.3382	0.3682	0.6077	0.086
Mof_C 	C 	0.7877	0.0082	0.849	0.061
Mof_C 	C 	0.814	0.8897	0.0828	-0.135
Mof_H 	H 	0.8558	0.9122	0.1053	0.078
Mof_C 	C 	0.295	0.3277	0.4964	0.102
Mof_C 	C 	0.5267	0.1472	0.6172	0.078
Mof_H 	H 	0.5441	0.1397	0.657	-0.022
Mof_C 	C 	0.533	0.1256	0.5321	0.085
Mof_H 	H 	0.5552	0.1032	0.5116	-0.025
Mof_C 	C 	0.1747	0.459	0.5266	0.094
Mof_H 	H 	0.1324	0.4816	0.5061	-0.016
Mof_C 	C 	0.6926	0.8193	0.0217	0.079
Mof_H 	H 	0.6513	0.7946	0.0007	-0.013
Mof_C 	C 	0.998	0.072	0.0943	-0.138
Mof_H 	H 	0.9803	0.0423	0.1154	0.08
Mof_C 	C 	0.6932	0.995	0.7584	0.079
Mof_H 	H 	0.6489	0.9784	0.7374	-0.026
Mof_C 	C 	0.2855	0.212	0.3233	-0.143
Mof_H 	H 	0.3242	0.1828	0.345	0.072
Mof_C 	C 	0.0559	0.1163	0.1219	0.084
Mof_H 	H 	0.0752	0.1183	0.1621	-0.007
Mof_C 	C 	0.7886	0.0534	0.761	0.082
Mof_H 	H 	0.8115	0.0778	0.7419	-0.016
Mof_C 	C 	0.7222	0.9832	0.8175	-0.149
Mof_H 	H 	0.6982	0.9591	0.8357	0.075
Mof_C 	C 	0.2545	0.2058	0.264	0.08
Mof_H 	H 	0.2735	0.1713	0.2464	-0.021
Mof_C 	C 	0.1719	0.2915	0.2568	0.09
Mof_H 	H 	0.1327	0.3192	0.2341	-0.023
Mof_C 	C 	0.1979	0.3009	0.316	-0.149
Mof_H 	H 	0.1756	0.3322	0.3325	0.086
Mof_N 	N 	0.2046	0.4698	0.5835	-0.195
Mof_N 	N 	0.5606	0.1173	0.589	-0.217
Mof_N 	N 	0.1995	0.2451	0.2303	-0.202
Mof_N 	N 	0.2624	0.3227	0.4385	-0.137
Mof_N 	N 	0.3521	0.2899	0.5287	-0.138
Mof_N 	N 	0.3473	0.2331	0.4418	-0.142
Mof_N 	N 	0.0863	0.1567	0.0942	-0.188
Mof_N 	N 	0.7249	0.0286	0.7297	-0.2
Mof_N 	N 	0.7202	0.813	0.0788	-0.21
Mof_N 	N 	0.8744	0.9873	0.0282	-0.141
Mof_N 	N 	0.8773	0.0367	0.9427	-0.138
Mof_N 	N 	0.7889	0.9501	0.9365	-0.149
Mof_Ag	Ag	0.65573	0.04291	0.63275	0.523
Mof_Ag	Ag	0.67779	0.74492	0.13326	0.535
Mof_C 	C 	0.4022	0.5295	0.0006	0.1
Mof_C 	C 	0.8763	0.7441	0.4988	0.096
Mof_C 	C 	0.2228	0.3616	0.9916	-0.132
Mof_H 	H 	0.2021	0.365	0.9515	0.073
Mof_C 	C 	0.9404	0.6986	0.5316	0.07
Mof_C 	C 	0.3182	0.4475	0.9945	0.095
Mof_C 	C 	0.4962	0.6153	0.0049	-0.136
Mof_H 	H 	0.4763	0.6169	0.9647	0.086
Mof_C 	C 	0.7026	0.9164	0.4961	-0.139
Mof_H 	H 	0.6806	0.9125	0.456	0.086
Mof_C 	C 	0.9671	0.689	0.5899	-0.153
Mof_H 	H 	0.9455	0.7102	0.6112	0.085
Mof_C 	C 	0.79	0.7738	0.4136	0.099
Mof_C 	C 	0.5559	0.6558	0.0364	0.086
Mof_H 	H 	0.5759	0.6838	0.0163	-0.013
Mof_C 	C 	0.2799	0.347	0.1088	0.065
Mof_H 	H 	0.2996	0.3419	0.1489	-0.026
Mof_C 	C 	0.3199	0.4977	0.9133	0.095
Mof_C 	C 	0.3211	0.5441	0.8202	-0.143
Mof_H 	H 	0.3651	0.5619	0.8404	0.084
Mof_C 	C 	0.7569	0.7636	0.3498	0.066
Mof_C 	C 	0.4667	0.5725	0.0345	0.068
Mof_C 	C 	0.7644	0.9352	0.6122	0.089
Mof_H 	H 	0.7857	0.9415	0.6522	-0.012
Mof_C 	C 	0.7645	0.8791	0.5267	0.073
Mof_C 	C 	0.9744	0.6649	0.502	-0.157
Mof_H 	H 	0.9571	0.6692	0.4619	0.078
Mof_C 	C 	0.2853	0.3987	0.0234	0.05
Mof_C 	C 	0.7961	0.8905	0.586	-0.14
Mof_H 	H 	0.8382	0.8682	0.6077	0.086
Mof_C 	C 	0.2877	0.5082	0.849	0.06
Mof_C 	C 	0.314	0.3897	0.0828	-0.132
Mof_H 	H 	0.3558	0.4122	0.1053	0.077
Mof_C 	C 	0.795	0.8277	0.4964	0.102
Mof_C 	C 	0.0267	0.6472	0.6172	0.079
Mof_H 	H 	0.0441	0.6397	0.657	-0.022
Mof_C 	C 	0.033	0.6256	0.5321	0.085
Mof_H 	H 	0.0552	0.6032	0.5116	-0.025
Mof_C 	C 	0.6747	0.959	0.5266	0.094
Mof_H 	H 	0.6324	0.9816	0.5061	-0.016
Mof_C 	C 	0.1926	0.3193	0.0217	0.075
Mof_H 	H 	0.1513	0.2946	0.0007	-0.012
Mof_C 	C 	0.498	0.572	0.0943	-0.141
Mof_H 	H 	0.4803	0.5423	0.1154	0.081
Mof_C 	C 	0.1932	0.495	0.7584	0.079
Mof_H 	H 	0.1489	0.4784	0.7374	-0.026
Mof_C 	C 	0.7855	0.712	0.3233	-0.143
Mof_H 	H 	0.8242	0.6828	0.345	0.072
Mof_C 	C 	0.5559	0.6163	0.1219	0.087
Mof_H 	H 	0.5752	0.6183	0.1621	-0.008
Mof_C 	C 	0.2886	0.5534	0.761	0.082
Mof_H 	H 	0.3115	0.5778	0.7419	-0.016
Mof_C 	C 	0.2222	0.4832	0.8175	-0.149
Mof_H 	H 	0.1982	0.4591	0.8357	0.075
Mof_C 	C 	0.7545	0.7058	0.264	0.08
Mof_H 	H 	0.7735	0.6713	0.2464	-0.021
Mof_C 	C 	0.6719	0.7915	0.2568	0.09
Mof_H 	H 	0.6327	0.8192	0.2341	-0.023
Mof_C 	C 	0.6979	0.8009	0.316	-0.149
Mof_H 	H 	0.6756	0.8322	0.3325	0.086
Mof_N 	N 	0.7046	0.9698	0.5835	-0.195
Mof_N 	N 	0.0606	0.6173	0.589	-0.217
Mof_N 	N 	0.6995	0.7451	0.2303	-0.202
Mof_N 	N 	0.7624	0.8227	0.4385	-0.137
Mof_N 	N 	0.8521	0.7899	0.5287	-0.138
Mof_N 	N 	0.8473	0.7331	0.4418	-0.142
Mof_N 	N 	0.5863	0.6567	0.0942	-0.189
Mof_N 	N 	0.2249	0.5286	0.7297	-0.2
Mof_N 	N 	0.2202	0.313	0.0788	-0.209
Mof_N 	N 	0.3744	0.4873	0.0282	-0.142
Mof_N 	N 	0.3773	0.5367	0.9427	-0.137
Mof_N 	N 	0.2889	0.4501	0.9365	-0.15
Mof_Ag	Ag	0.84427	0.54291	0.86725	0.523
Mof_Ag	Ag	0.82221	0.24492	0.36674	0.535
Mof_C 	C 	0.0978	0.0295	0.4994	0.1
Mof_C 	C 	0.6237	0.2441	0.0012	0.096
Mof_C 	C 	0.2772	0.8616	0.5084	-0.134
Mof_H 	H 	0.2979	0.865	0.5485	0.074
Mof_C 	C 	0.5596	0.1986	0.9684	0.07
Mof_C 	C 	0.1818	0.9475	0.5055	0.094
Mof_C 	C 	0.0038	0.1153	0.4951	-0.135
Mof_H 	H 	0.0237	0.1169	0.5353	0.086
Mof_C 	C 	0.7974	0.4164	0.0039	-0.137
Mof_H 	H 	0.8194	0.4125	0.044	0.085
Mof_C 	C 	0.5329	0.189	0.9101	-0.152
Mof_H 	H 	0.5545	0.2102	0.8888	0.084
Mof_C 	C 	0.71	0.2738	0.0864	0.099
Mof_C 	C 	0.9441	0.1558	0.4636	0.086
Mof_H 	H 	0.9241	0.1838	0.4837	-0.013
Mof_C 	C 	0.2201	0.847	0.3912	0.066
Mof_H 	H 	0.2004	0.8419	0.3511	-0.026
Mof_C 	C 	0.1801	0.9977	0.5867	0.095
Mof_C 	C 	0.1789	0.0441	0.6798	-0.143
Mof_H 	H 	0.1349	0.0619	0.6596	0.084
Mof_C 	C 	0.7431	0.2636	0.1502	0.066
Mof_C 	C 	0.0333	0.0725	0.4655	0.067
Mof_C 	C 	0.7356	0.4352	0.8878	0.088
Mof_H 	H 	0.7143	0.4415	0.8478	-0.012
Mof_C 	C 	0.7355	0.3791	0.9733	0.07
Mof_C 	C 	0.5256	0.1649	0.998	-0.157
Mof_H 	H 	0.5429	0.1692	0.0381	0.078
Mof_C 	C 	0.2147	0.8987	0.4766	0.052
Mof_C 	C 	0.7039	0.3905	0.914	-0.139
Mof_H 	H 	0.6618	0.3682	0.8923	0.086
Mof_C 	C 	0.2123	0.0082	0.651	0.061
Mof_C 	C 	0.186	0.8897	0.4172	-0.134
Mof_H 	H 	0.1442	0.9122	0.3947	0.077
Mof_C 	C 	0.705	0.3277	0.0036	0.103
Mof_C 	C 	0.4733	0.1472	0.8828	0.078
Mof_H 	H 	0.4559	0.1397	0.843	-0.022
Mof_C 	C 	0.467	0.1256	0.9679	0.085
Mof_H 	H 	0.4448	0.1032	0.9884	-0.025
Mof_C 	C 	0.8253	0.459	0.9734	0.092
Mof_H 	H 	0.8676	0.4816	0.9939	-0.015
Mof_C 	C 	0.3074	0.8193	0.4783	0.077
Mof_H 	H 	0.3487	0.7946	0.4993	-0.013
Mof_C 	C 	0.002	0.072	0.4057	-0.142
Mof_H 	H 	0.0197	0.0423	0.3846	0.081
Mof_C 	C 	0.3068	0.995	0.7416	0.079
Mof_H 	H 	0.3511	0.9784	0.7626	-0.026
Mof_C 	C 	0.7145	0.212	0.1767	-0.143
Mof_H 	H 	0.6758	0.1828	0.155	0.072
Mof_C 	C 	0.9441	0.1163	0.3781	0.087
Mof_H 	H 	0.9248	0.1183	0.3379	-0.008
Mof_C 	C 	0.2114	0.0534	0.739	0.082
Mof_H 	H 	0.1885	0.0778	0.7581	-0.016
Mof_C 	C 	0.2778	0.9832	0.6825	-0.149
Mof_H 	H 	0.3018	0.9591	0.6643	0.075
Mof_C 	C 	0.7455	0.2058	0.236	0.08
Mof_H 	H 	0.7265	0.1713	0.2536	-0.021
Mof_C 	C 	0.8281	0.2915	0.2432	0.09
Mof_H 	H 	0.8673	0.3192	0.2659	-0.023
Mof_C 	C 	0.8021	0.3009	0.184	-0.149
Mof_H 	H 	0.8244	0.3322	0.1675	0.086
Mof_N 	N 	0.7954	0.4698	0.9165	-0.195
Mof_N 	N 	0.4394	0.1173	0.911	-0.217
Mof_N 	N 	0.8005	0.2451	0.2697	-0.202
Mof_N 	N 	0.7376	0.3227	0.0615	-0.137
Mof_N 	N 	0.6479	0.2899	0.9713	-0.138
Mof_N 	N 	0.6527	0.2331	0.0582	-0.142
Mof_N 	N 	0.9137	0.1567	0.4058	-0.189
Mof_N 	N 	0.2751	0.0286	0.7703	-0.2
Mof_N 	N 	0.2798	0.813	0.4212	-0.209
Mof_N 	N 	0.1256	0.9873	0.4718	-0.142
Mof_N 	N 	0.1227	0.0367	0.5573	-0.137
Mof_N 	N 	0.2111	0.9501	0.5635	-0.149
Mof_Ag	Ag	0.34427	0.04291	0.86725	0.523
Mof_Ag	Ag	0.32221	0.74492	0.36674	0.535
Mof_C 	C 	0.5978	0.5295	0.4994	0.1
Mof_C 	C 	0.1237	0.7441	0.0012	0.095
Mof_C 	C 	0.7772	0.3616	0.5084	-0.134
Mof_H 	H 	0.7979	0.365	0.5485	0.074
Mof_C 	C 	0.0596	0.6986	0.9684	0.068
Mof_C 	C 	0.6818	0.4475	0.5055	0.094
Mof_C 	C 	0.5038	0.6153	0.4951	-0.135
Mof_H 	H 	0.5237	0.6169	0.5353	0.086
Mof_C 	C 	0.2974	0.9164	0.0039	-0.142
Mof_H 	H 	0.3194	0.9125	0.044	0.087
Mof_C 	C 	0.0329	0.689	0.9101	-0.149
Mof_H 	H 	0.0545	0.7102	0.8888	0.084
Mof_C 	C 	0.21	0.7738	0.0864	0.099
Mof_C 	C 	0.4441	0.6558	0.4636	0.086
Mof_H 	H 	0.4241	0.6838	0.4837	-0.013
Mof_C 	C 	0.7201	0.347	0.3912	0.066
Mof_H 	H 	0.7004	0.3419	0.3511	-0.026
Mof_C 	C 	0.6801	0.4977	0.5867	0.095
Mof_C 	C 	0.6789	0.5441	0.6798	-0.143
Mof_H 	H 	0.6349	0.5619	0.6596	0.084
Mof_C 	C 	0.2431	0.7636	0.1502	0.066
Mof_C 	C 	0.5333	0.5725	0.4655	0.067
Mof_C 	C 	0.2356	0.9352	0.8878	0.09
Mof_H 	H 	0.2143	0.9415	0.8478	-0.012
Mof_C 	C 	0.2355	0.8791	0.9733	0.075
Mof_C 	C 	0.0256	0.6649	0.998	-0.151
Mof_H 	H 	0.0429	0.6692	0.0381	0.076
Mof_C 	C 	0.7147	0.3987	0.4766	0.052
Mof_C 	C 	0.2039	0.8905	0.914	-0.141
Mof_H 	H 	0.1618	0.8682	0.8923	0.087
Mof_C 	C 	0.7123	0.5082	0.651	0.06
Mof_C 	C 	0.686	0.3897	0.4172	-0.134
Mof_H 	H 	0.6442	0.4122	0.3947	0.077
Mof_C 	C 	0.205	0.8277	0.0036	0.1
Mof_C 	C 	0.9733	0.6472	0.8828	0.076
Mof_H 	H 	0.9559	0.6397	0.843	-0.022
Mof_C 	C 	0.967	0.6256	0.9679	0.081
Mof_H 	H 	0.9448	0.6032	0.9884	-0.024
Mof_C 	C 	0.3253	0.959	0.9734	0.095
Mof_H 	H 	0.3676	0.9816	0.9939	-0.016
Mof_C 	C 	0.8074	0.3193	0.4783	0.077
Mof_H 	H 	0.8487	0.2946	0.4993	-0.013
Mof_C 	C 	0.502	0.572	0.4057	-0.141
Mof_H 	H 	0.5197	0.5423	0.3846	0.081
Mof_C 	C 	0.8068	0.495	0.7416	0.079
Mof_H 	H 	0.8511	0.4784	0.7626	-0.026
Mof_C 	C 	0.2145	0.712	0.1767	-0.143
Mof_H 	H 	0.1758	0.6828	0.155	0.072
Mof_C 	C 	0.4441	0.6163	0.3781	0.087
Mof_H 	H 	0.4248	0.6183	0.3379	-0.008
Mof_C 	C 	0.7114	0.5534	0.739	0.082
Mof_H 	H 	0.6885	0.5778	0.7581	-0.016
Mof_C 	C 	0.7778	0.4832	0.6825	-0.149
Mof_H 	H 	0.8018	0.4591	0.6643	0.075
Mof_C 	C 	0.2455	0.7058	0.236	0.08
Mof_H 	H 	0.2265	0.6713	0.2536	-0.021
Mof_C 	C 	0.3281	0.7915	0.2432	0.09
Mof_H 	H 	0.3673	0.8192	0.2659	-0.023
Mof_C 	C 	0.3021	0.8009	0.184	-0.149
Mof_H 	H 	0.3244	0.8322	0.1675	0.086
Mof_N 	N 	0.2954	0.9698	0.9165	-0.196
Mof_N 	N 	0.9394	0.6173	0.911	-0.216
Mof_N 	N 	0.3005	0.7451	0.2697	-0.202
Mof_N 	N 	0.2376	0.8227	0.0615	-0.137
Mof_N 	N 	0.1479	0.7899	0.9713	-0.137
Mof_N 	N 	0.1527	0.7331	0.0582	-0.142
Mof_N 	N 	0.4137	0.6567	0.4058	-0.189
Mof_N 	N 	0.7751	0.5286	0.7703	-0.2
Mof_N 	N 	0.7798	0.313	0.4212	-0.209
Mof_N 	N 	0.6256	0.4873	0.4718	-0.142
Mof_N 	N 	0.6227	0.5367	0.5573	-0.137
Mof_N 	N 	0.7111	0.4501	0.5635	-0.149
_end
