# CIF file generated by openbabel 3.1.0, see https://openbabel.org
data_I
_chemical_name_common 'image0'
_cell_length_a 15.7072
_cell_length_b 10.713
_cell_length_c 24.4618
_cell_angle_alpha 90
_cell_angle_beta 94.28
_cell_angle_gamma 90
_space_group_name_H-M_alt 'P 1'
_space_group_name_Hall 'P 1'
loop_
    _symmetry_equiv_pos_as_xyz
    x,y,z
loop_
    _atom_site_label
    _atom_site_type_symbol
    _atom_site_fract_x
    _atom_site_fract_y
    _atom_site_fract_z
    _atom_site_occupancy
    Zn1      Zn       0.14165    0.40920    0.06848    1.000
    O1       O        0.54870    0.00080    0.09660    1.000
    O2       O        0.22020    0.32840    0.12190    1.000
    N1       N        0.17570    0.46520    0.51080    1.000
    N2       N        0.24890    0.04930    0.29640    1.000
    C1       C        0.31220    0.01450    0.20690    1.000
    O3       O        0.30780    0.29870    0.05800    1.000
    C2       C        0.26020    0.39500    0.43980    1.000
    H1       H        0.30963    0.40479    0.42011    1.000
    C3       C        0.39690    0.11350    0.12200    1.000
    H2       H        0.42626    0.14789    0.09292    1.000
    C4       C        0.32010    0.16630    0.13540    1.000
    C5       C        0.21920    0.21270    0.38140    1.000
    C6       C        0.38800    0.96300    0.19310    1.000
    H3       H        0.41110    0.89330    0.21318    1.000
    C7       C        0.27690    0.11680    0.17770    1.000
    H4       H        0.22409    0.15160    0.18676    1.000
    C8       C        0.15620    0.12690    0.36100    1.000
    H5       H        0.10239    0.12400    0.37627    1.000
    C9       C        0.12020    0.36900    0.49790    1.000
    H6       H        0.07182    0.35913    0.51860    1.000
    C10      C        0.20270    0.29930    0.42540    1.000
    C11      C        0.26330    0.95580    0.25280    1.000
    H7       H        0.20758    0.92378    0.23715    1.000
    H8       H        0.29629    0.88449    0.26912    1.000
    C12      C        0.31000    0.13050    0.31420    1.000
    H9       H        0.36285    0.13245    0.29776    1.000
    C13      C        0.51240    0.95130    0.13500    1.000
    C14      C        0.28060    0.27170    0.10210    1.000
    C15      C        0.43080    0.01100    0.15070    1.000
    C16      C        0.17320    0.04750    0.31900    1.000
    H10      H        0.13057    0.99011    0.30550    1.000
    C17      C        0.13210    0.28590    0.45600    1.000
    H11      H        0.09240    0.22027    0.44809    1.000
    C18      C        0.29600    0.20930    0.35560    1.000
    H12      H        0.34034    0.26522    0.36792    1.000
    O4       O        0.53660    0.85800    0.15770    1.000
    C19      C        0.24650    0.47480    0.48180    1.000
    H13      H        0.28713    0.53852    0.49104    1.000
    O5       O        0.09140    0.27580    0.01820    1.000
    H14      H        0.07200    0.18700    0.03400    1.000
    Zn2      Zn       0.64165    0.90920    0.06848    1.000
    O6       O        0.04870    0.50080    0.09660    1.000
    O7       O        0.72020    0.82840    0.12190    1.000
    N3       N        0.67570    0.96520    0.51080    1.000
    N4       N        0.74890    0.54930    0.29640    1.000
    C20      C        0.81220    0.51450    0.20690    1.000
    O8       O        0.80780    0.79870    0.05800    1.000
    C21      C        0.76020    0.89500    0.43980    1.000
    H15      H        0.80963    0.90479    0.42011    1.000
    C22      C        0.89690    0.61350    0.12200    1.000
    H16      H        0.92626    0.64789    0.09292    1.000
    C23      C        0.82010    0.66630    0.13540    1.000
    C24      C        0.71920    0.71270    0.38140    1.000
    C25      C        0.88800    0.46300    0.19310    1.000
    H17      H        0.91110    0.39330    0.21318    1.000
    C26      C        0.77690    0.61680    0.17770    1.000
    H18      H        0.72409    0.65160    0.18676    1.000
    C27      C        0.65620    0.62690    0.36100    1.000
    H19      H        0.60239    0.62400    0.37627    1.000
    C28      C        0.62020    0.86900    0.49790    1.000
    H20      H        0.57182    0.85913    0.51860    1.000
    C29      C        0.70270    0.79930    0.42540    1.000
    C30      C        0.76330    0.45580    0.25280    1.000
    H21      H        0.70758    0.42378    0.23715    1.000
    H22      H        0.79629    0.38449    0.26912    1.000
    C31      C        0.81000    0.63050    0.31420    1.000
    H23      H        0.86285    0.63245    0.29776    1.000
    C32      C        0.01240    0.45130    0.13500    1.000
    C33      C        0.78060    0.77170    0.10210    1.000
    C34      C        0.93080    0.51100    0.15070    1.000
    C35      C        0.67320    0.54750    0.31900    1.000
    H24      H        0.63057    0.49011    0.30550    1.000
    C36      C        0.63210    0.78590    0.45600    1.000
    H25      H        0.59240    0.72027    0.44809    1.000
    C37      C        0.79600    0.70930    0.35560    1.000
    H26      H        0.84034    0.76522    0.36792    1.000
    O9       O        0.03660    0.35800    0.15770    1.000
    C38      C        0.74650    0.97480    0.48180    1.000
    H27      H        0.78713    0.03852    0.49104    1.000
    O10      O        0.59140    0.77580    0.01820    1.000
    H28      H        0.57200    0.68700    0.03400    1.000
    Zn3      Zn       0.14165    0.59080    0.56848    1.000
    O11      O        0.54870    0.99920    0.59660    1.000
    O12      O        0.22020    0.67160    0.62190    1.000
    N5       N        0.17570    0.53480    0.01080    1.000
    N6       N        0.24890    0.95070    0.79640    1.000
    C39      C        0.31220    0.98550    0.70690    1.000
    O13      O        0.30780    0.70130    0.55800    1.000
    C40      C        0.26020    0.60500    0.93980    1.000
    H29      H        0.30963    0.59521    0.92011    1.000
    C41      C        0.39690    0.88650    0.62200    1.000
    H30      H        0.42626    0.85211    0.59292    1.000
    C42      C        0.32010    0.83370    0.63540    1.000
    C43      C        0.21920    0.78730    0.88140    1.000
    C44      C        0.38800    0.03700    0.69310    1.000
    H31      H        0.41110    0.10670    0.71318    1.000
    C45      C        0.27690    0.88320    0.67770    1.000
    H32      H        0.22409    0.84840    0.68676    1.000
    C46      C        0.15620    0.87310    0.86100    1.000
    H33      H        0.10239    0.87600    0.87627    1.000
    C47      C        0.12020    0.63100    0.99790    1.000
    H34      H        0.07182    0.64087    0.01860    1.000
    C48      C        0.20270    0.70070    0.92540    1.000
    C49      C        0.26330    0.04420    0.75280    1.000
    H35      H        0.20758    0.07622    0.73715    1.000
    H36      H        0.29629    0.11551    0.76912    1.000
    C50      C        0.31000    0.86950    0.81420    1.000
    H37      H        0.36285    0.86755    0.79776    1.000
    C51      C        0.51240    0.04870    0.63500    1.000
    C52      C        0.28060    0.72830    0.60210    1.000
    C53      C        0.43080    0.98900    0.65070    1.000
    C54      C        0.17320    0.95250    0.81900    1.000
    H38      H        0.13057    0.00989    0.80550    1.000
    C55      C        0.13210    0.71410    0.95600    1.000
    H39      H        0.09240    0.77973    0.94809    1.000
    C56      C        0.29600    0.79070    0.85560    1.000
    H40      H        0.34034    0.73478    0.86792    1.000
    O14      O        0.53660    0.14200    0.65770    1.000
    C57      C        0.24650    0.52520    0.98180    1.000
    H41      H        0.28713    0.46148    0.99104    1.000
    O15      O        0.09140    0.72420    0.51820    1.000
    H42      H        0.07200    0.81300    0.53400    1.000
    Zn4      Zn       0.64165    0.09080    0.56848    1.000
    O16      O        0.04870    0.49920    0.59660    1.000
    O17      O        0.72020    0.17160    0.62190    1.000
    N7       N        0.67570    0.03480    0.01080    1.000
    N8       N        0.74890    0.45070    0.79640    1.000
    C58      C        0.81220    0.48550    0.70690    1.000
    O18      O        0.80780    0.20130    0.55800    1.000
    C59      C        0.76020    0.10500    0.93980    1.000
    H43      H        0.80963    0.09521    0.92011    1.000
    C60      C        0.89690    0.38650    0.62200    1.000
    H44      H        0.92626    0.35211    0.59292    1.000
    C61      C        0.82010    0.33370    0.63540    1.000
    C62      C        0.71920    0.28730    0.88140    1.000
    C63      C        0.88800    0.53700    0.69310    1.000
    H45      H        0.91110    0.60670    0.71318    1.000
    C64      C        0.77690    0.38320    0.67770    1.000
    H46      H        0.72409    0.34840    0.68676    1.000
    C65      C        0.65620    0.37310    0.86100    1.000
    H47      H        0.60239    0.37600    0.87627    1.000
    C66      C        0.62020    0.13100    0.99790    1.000
    H48      H        0.57182    0.14087    0.01860    1.000
    C67      C        0.70270    0.20070    0.92540    1.000
    C68      C        0.76330    0.54420    0.75280    1.000
    H49      H        0.70758    0.57622    0.73715    1.000
    H50      H        0.79629    0.61551    0.76912    1.000
    C69      C        0.81000    0.36950    0.81420    1.000
    H51      H        0.86285    0.36755    0.79776    1.000
    C70      C        0.01240    0.54870    0.63500    1.000
    C71      C        0.78060    0.22830    0.60210    1.000
    C72      C        0.93080    0.48900    0.65070    1.000
    C73      C        0.67320    0.45250    0.81900    1.000
    H52      H        0.63057    0.50989    0.80550    1.000
    C74      C        0.63210    0.21410    0.95600    1.000
    H53      H        0.59240    0.27973    0.94809    1.000
    C75      C        0.79600    0.29070    0.85560    1.000
    H54      H        0.84034    0.23478    0.86792    1.000
    O19      O        0.03660    0.64200    0.65770    1.000
    C76      C        0.74650    0.02520    0.98180    1.000
    H55      H        0.78713    0.96148    0.99104    1.000
    O20      O        0.59140    0.22420    0.51820    1.000
    H56      H        0.57200    0.31300    0.53400    1.000
    Zn5      Zn       0.85835    0.40920    0.43152    1.000
    O21      O        0.45130    0.00080    0.40340    1.000
    O22      O        0.77980    0.32840    0.37810    1.000
    N9       N        0.82430    0.46520    0.98920    1.000
    N10      N        0.75110    0.04930    0.20360    1.000
    C77      C        0.68780    0.01450    0.29310    1.000
    O23      O        0.69220    0.29870    0.44200    1.000
    C78      C        0.73980    0.39500    0.06020    1.000
    H57      H        0.69037    0.40479    0.07989    1.000
    C79      C        0.60310    0.11350    0.37800    1.000
    H58      H        0.57374    0.14789    0.40708    1.000
    C80      C        0.67990    0.16630    0.36460    1.000
    C81      C        0.78080    0.21270    0.11860    1.000
    C82      C        0.61200    0.96300    0.30690    1.000
    H59      H        0.58890    0.89330    0.28682    1.000
    C83      C        0.72310    0.11680    0.32230    1.000
    H60      H        0.77591    0.15160    0.31324    1.000
    C84      C        0.84380    0.12690    0.13900    1.000
    H61      H        0.89761    0.12400    0.12373    1.000
    C85      C        0.87980    0.36900    0.00210    1.000
    H62      H        0.92818    0.35913    0.98140    1.000
    C86      C        0.79730    0.29930    0.07460    1.000
    C87      C        0.73670    0.95580    0.24720    1.000
    H63      H        0.79242    0.92378    0.26285    1.000
    H64      H        0.70371    0.88449    0.23088    1.000
    C88      C        0.69000    0.13050    0.18580    1.000
    H65      H        0.63715    0.13245    0.20224    1.000
    C89      C        0.48760    0.95130    0.36500    1.000
    C90      C        0.71940    0.27170    0.39790    1.000
    C91      C        0.56920    0.01100    0.34930    1.000
    C92      C        0.82680    0.04750    0.18100    1.000
    H66      H        0.86943    0.99011    0.19450    1.000
    C93      C        0.86790    0.28590    0.04400    1.000
    H67      H        0.90760    0.22027    0.05191    1.000
    C94      C        0.70400    0.20930    0.14440    1.000
    H68      H        0.65966    0.26522    0.13208    1.000
    O24      O        0.46340    0.85800    0.34230    1.000
    C95      C        0.75350    0.47480    0.01820    1.000
    H69      H        0.71287    0.53852    0.00896    1.000
    O25      O        0.90860    0.27580    0.48180    1.000
    H70      H        0.92800    0.18700    0.46600    1.000
    Zn6      Zn       0.35835    0.90920    0.43152    1.000
    O26      O        0.95130    0.50080    0.40340    1.000
    O27      O        0.27980    0.82840    0.37810    1.000
    N11      N        0.32430    0.96520    0.98920    1.000
    N12      N        0.25110    0.54930    0.20360    1.000
    C96      C        0.18780    0.51450    0.29310    1.000
    O28      O        0.19220    0.79870    0.44200    1.000
    C97      C        0.23980    0.89500    0.06020    1.000
    H71      H        0.19037    0.90479    0.07989    1.000
    C98      C        0.10310    0.61350    0.37800    1.000
    H72      H        0.07374    0.64789    0.40708    1.000
    C99      C        0.17990    0.66630    0.36460    1.000
    C100     C        0.28080    0.71270    0.11860    1.000
    C101     C        0.11200    0.46300    0.30690    1.000
    H73      H        0.08890    0.39330    0.28682    1.000
    C102     C        0.22310    0.61680    0.32230    1.000
    H74      H        0.27591    0.65160    0.31324    1.000
    C103     C        0.34380    0.62690    0.13900    1.000
    H75      H        0.39761    0.62400    0.12373    1.000
    C104     C        0.37980    0.86900    0.00210    1.000
    H76      H        0.42818    0.85913    0.98140    1.000
    C105     C        0.29730    0.79930    0.07460    1.000
    C106     C        0.23670    0.45580    0.24720    1.000
    H77      H        0.29242    0.42378    0.26285    1.000
    H78      H        0.20371    0.38449    0.23088    1.000
    C107     C        0.19000    0.63050    0.18580    1.000
    H79      H        0.13715    0.63245    0.20224    1.000
    C108     C        0.98760    0.45130    0.36500    1.000
    C109     C        0.21940    0.77170    0.39790    1.000
    C110     C        0.06920    0.51100    0.34930    1.000
    C111     C        0.32680    0.54750    0.18100    1.000
    H80      H        0.36943    0.49011    0.19450    1.000
    C112     C        0.36790    0.78590    0.04400    1.000
    H81      H        0.40760    0.72027    0.05191    1.000
    C113     C        0.20400    0.70930    0.14440    1.000
    H82      H        0.15966    0.76522    0.13208    1.000
    O29      O        0.96340    0.35800    0.34230    1.000
    C114     C        0.25350    0.97480    0.01820    1.000
    H83      H        0.21287    0.03852    0.00896    1.000
    O30      O        0.40860    0.77580    0.48180    1.000
    H84      H        0.42800    0.68700    0.46600    1.000
    Zn7      Zn       0.85835    0.59080    0.93152    1.000
    O31      O        0.45130    0.99920    0.90340    1.000
    O32      O        0.77980    0.67160    0.87810    1.000
    N13      N        0.82430    0.53480    0.48920    1.000
    N14      N        0.75110    0.95070    0.70360    1.000
    C115     C        0.68780    0.98550    0.79310    1.000
    O33      O        0.69220    0.70130    0.94200    1.000
    C116     C        0.73980    0.60500    0.56020    1.000
    H85      H        0.69037    0.59521    0.57989    1.000
    C117     C        0.60310    0.88650    0.87800    1.000
    H86      H        0.57374    0.85211    0.90708    1.000
    C118     C        0.67990    0.83370    0.86460    1.000
    C119     C        0.78080    0.78730    0.61860    1.000
    C120     C        0.61200    0.03700    0.80690    1.000
    H87      H        0.58890    0.10670    0.78682    1.000
    C121     C        0.72310    0.88320    0.82230    1.000
    H88      H        0.77591    0.84840    0.81324    1.000
    C122     C        0.84380    0.87310    0.63900    1.000
    H89      H        0.89761    0.87600    0.62373    1.000
    C123     C        0.87980    0.63100    0.50210    1.000
    H90      H        0.92818    0.64087    0.48140    1.000
    C124     C        0.79730    0.70070    0.57460    1.000
    C125     C        0.73670    0.04420    0.74720    1.000
    H91      H        0.79242    0.07622    0.76285    1.000
    H92      H        0.70371    0.11551    0.73088    1.000
    C126     C        0.69000    0.86950    0.68580    1.000
    H93      H        0.63715    0.86755    0.70224    1.000
    C127     C        0.48760    0.04870    0.86500    1.000
    C128     C        0.71940    0.72830    0.89790    1.000
    C129     C        0.56920    0.98900    0.84930    1.000
    C130     C        0.82680    0.95250    0.68100    1.000
    H94      H        0.86943    0.00989    0.69450    1.000
    C131     C        0.86790    0.71410    0.54400    1.000
    H95      H        0.90760    0.77973    0.55191    1.000
    C132     C        0.70400    0.79070    0.64440    1.000
    H96      H        0.65966    0.73478    0.63208    1.000
    O34      O        0.46340    0.14200    0.84230    1.000
    C133     C        0.75350    0.52520    0.51820    1.000
    H97      H        0.71287    0.46148    0.50896    1.000
    O35      O        0.90860    0.72420    0.98180    1.000
    H98      H        0.92800    0.81300    0.96600    1.000
    Zn8      Zn       0.35835    0.09080    0.93152    1.000
    O36      O        0.95130    0.49920    0.90340    1.000
    O37      O        0.27980    0.17160    0.87810    1.000
    N15      N        0.32430    0.03480    0.48920    1.000
    N16      N        0.25110    0.45070    0.70360    1.000
    C134     C        0.18780    0.48550    0.79310    1.000
    O38      O        0.19220    0.20130    0.94200    1.000
    C135     C        0.23980    0.10500    0.56020    1.000
    H99      H        0.19037    0.09521    0.57989    1.000
    C136     C        0.10310    0.38650    0.87800    1.000
    H100     H        0.07374    0.35211    0.90708    1.000
    C137     C        0.17990    0.33370    0.86460    1.000
    C138     C        0.28080    0.28730    0.61860    1.000
    C139     C        0.11200    0.53700    0.80690    1.000
    H101     H        0.08890    0.60670    0.78682    1.000
    C140     C        0.22310    0.38320    0.82230    1.000
    H102     H        0.27591    0.34840    0.81324    1.000
    C141     C        0.34380    0.37310    0.63900    1.000
    H103     H        0.39761    0.37600    0.62373    1.000
    C142     C        0.37980    0.13100    0.50210    1.000
    H104     H        0.42818    0.14087    0.48140    1.000
    C143     C        0.29730    0.20070    0.57460    1.000
    C144     C        0.23670    0.54420    0.74720    1.000
    H105     H        0.29242    0.57622    0.76285    1.000
    H106     H        0.20371    0.61551    0.73088    1.000
    C145     C        0.19000    0.36950    0.68580    1.000
    H107     H        0.13715    0.36755    0.70224    1.000
    C146     C        0.98760    0.54870    0.86500    1.000
    C147     C        0.21940    0.22830    0.89790    1.000
    C148     C        0.06920    0.48900    0.84930    1.000
    C149     C        0.32680    0.45250    0.68100    1.000
    H108     H        0.36943    0.50989    0.69450    1.000
    C150     C        0.36790    0.21410    0.54400    1.000
    H109     H        0.40760    0.27973    0.55191    1.000
    C151     C        0.20400    0.29070    0.64440    1.000
    H110     H        0.15966    0.23478    0.63208    1.000
    O39      O        0.96340    0.64200    0.84230    1.000
    C152     C        0.25350    0.02520    0.51820    1.000
    H111     H        0.21287    0.96148    0.50896    1.000
    O40      O        0.40860    0.22420    0.98180    1.000
    H112     H        0.42800    0.31300    0.96600    1.000
