data_functionalizedCrystal
_audit_creation_method	'EQeq! by Chris Wilmer'
_symmetry_space_group_name_H-M	'P1'
_symmetry_Int_Tables_number	1
_symmetry_cell_setting	triclinic
loop_
_symmetry_equiv_pos_as_xyz
  x,y,z
_cell_length_a	38.596
_cell_length_b	15.279
_cell_length_c	23.6
_cell_angle_alpha	90
_cell_angle_beta	101.29
_cell_angle_gamma	90
loop_
_atom_site_label
_atom_site_type_symbol
_atom_site_fract_x
_atom_site_fract_y
_atom_site_fract_z
_atom_site_charge
Mof_Zn	Zn	0.25603	0.87902	0.37174	1.246
Mof_Zn	Zn	0.18682	0.99616	0.30468	1.249
Mof_C 	C 	0.20455	0.7681	0.2122	-0.06
Mof_C 	C 	0.22564	0.6967	0.2087	0.019
Mof_H 	H 	0.2463	0.6891	0.236	0.061
Mof_C 	C 	0.21646	0.6362	0.165	-0.063
Mof_C 	C 	0.18606	0.6485	0.1246	-0.071
Mof_H 	H 	0.1793	0.6078	0.0952	0.09
Mof_C 	C 	0.1659	0.7203	0.1277	0.14
Mof_C 	C 	0.1742	0.78	0.1704	-0.077
Mof_H 	H 	0.1598	0.8284	0.1717	0.104
Mof_C 	C 	0.21391	0.8328	0.2605	0.409
Mof_C 	C 	0.23834	0.5565	0.163	0.407
Mof_C 	C 	0.13757	0.7909	0.0381	0.23
Mof_C 	C 	0.10614	0.8102	0.9944	-0.049
Mof_C 	C 	0.10838	0.8676	0.9517	-0.018
Mof_H 	H 	0.1297	0.8947	0.9501	0.067
Mof_C 	C 	0.0777	0.886	0.9094	-0.016
Mof_H 	H 	0.0791	0.9251	0.8797	0.062
Mof_C 	C 	0.04616	0.8463	0.9119	-0.057
Mof_C 	C 	0.01518	0.8611	0.867	0.228
Mof_C 	C 	0.98093	0.7609	0.9158	0.234
Mof_C 	C 	0.01206	0.745	0.9607	-0.056
Mof_C 	C 	0.01065	0.6891	0.0052	-0.019
Mof_H 	H 	0.9896	0.6614	0.0078	0.069
Mof_C 	C 	0.0411	0.6736	0.047	-0.023
Mof_H 	H 	0.0398	0.6363	0.0776	0.069
Mof_C 	C 	0.07219	0.7112	0.0441	-0.056
Mof_C 	C 	0.10351	0.6895	0.0884	0.224
Mof_C 	C 	0.07485	0.7694	-0	0.03
Mof_C 	C 	0.04397	0.7878	0.9573	0.038
Mof_C 	C 	0.95617	0.8145	0.8199	0.149
Mof_C 	C 	0.95828	0.7557	0.7766	-0.084
Mof_H 	H 	0.9775	0.7181	0.7798	0.102
Mof_C 	C 	0.93162	0.7532	0.7287	-0.046
Mof_C 	C 	0.90389	0.8123	0.7254	0.002
Mof_H 	H 	0.8855	0.811	0.6934	0.076
Mof_C 	C 	0.9031	0.8718	0.7678	-0.035
Mof_C 	C 	0.92983	0.874	0.8159	-0.089
Mof_H 	H 	0.9298	0.9152	0.8449	0.097
Mof_C 	C 	0.9332	0.6911	0.6815	0.399
Mof_C 	C 	0.8733	0.9385	0.7606	0.377
Mof_C 	C 	0.16767	0.8696	0.454	-0.081
Mof_C 	C 	0.13454	0.9025	0.4554	-0.059
Mof_H 	H 	0.1241	0.9438	0.4284	0.081
Mof_C 	C 	0.11724	0.873	0.4977	0.131
Mof_C 	C 	0.13239	0.8143	0.5384	-0.075
Mof_H 	H 	0.1203	0.796	0.5667	0.1
Mof_C 	C 	0.16572	0.7817	0.5378	-0.056
Mof_C 	C 	0.18301	0.8113	0.4951	0.022
Mof_H 	H 	0.2056	0.7908	0.4946	0.061
Mof_C 	C 	0.18668	0.9014	0.4086	0.433
Mof_C 	C 	0.18316	0.7195	0.5818	0.364
Mof_C 	C 	0.054	0.8763	0.4597	0.234
Mof_C 	C 	0.01998	0.9168	0.4593	-0.063
Mof_C 	C 	0.99118	0.8897	0.4202	-0.015
Mof_H 	H 	0.9933	0.8466	0.3933	0.066
Mof_C 	C 	0.04246	0.071	0.5786	-0.026
Mof_H 	H 	0.0622	0.0878	0.6058	0.07
Mof_C 	C 	0.04578	0.0106	0.539	-0.058
Mof_C 	C 	0.08136	0.9736	0.5386	0.229
Mof_C 	C 	0.01651	0.9812	0.499	0.035
Mof_N 	N 	0.13421	0.7355	0.0833	-0.181
Mof_N 	N 	0.98496	0.8143	0.8707	-0.186
Mof_N 	N 	0.08242	0.9092	0.4998	-0.187
Mof_O 	O 	0.24125	0.8207	0.29768	-0.476
Mof_O 	O 	0.19257	0.8947	0.26049	-0.493
Mof_O 	O 	0.22394	0.4899	0.13819	-0.493
Mof_O 	O 	0.27044	0.564	0.1863	-0.491
Mof_O 	O 	0.95995	0.6538	0.6779	-0.278
Mof_O 	O 	0.90455	0.6864	0.6442	-0.487
Mof_H 	H 	0.9069	0.6509	0.6191	0.296
Mof_O 	O 	0.84787	0.9221	0.7214	-0.466
Mof_O 	O 	0.8756	0.0018	0.7906	-0.289
Mof_O 	O 	0.10388	0.6392	0.127	-0.21
Mof_O 	O 	0.16563	0.8231	0.0363	-0.212
Mof_O 	O 	0.01544	0.9119	0.8282	-0.209
Mof_O 	O 	0.95293	0.7283	0.9172	-0.214
Mof_O 	O 	0.21646	0.8702	0.40931	-0.508
Mof_O 	O 	0.17253	0.9573	0.3737	-0.496
Mof_O 	O 	0.21411	0.6985	0.57949	-0.453
Mof_O 	O 	0.16765	0.6913	0.6185	-0.267
Mof_O 	O 	0.10763	0.0003	0.5692	-0.213
Mof_O 	O 	0.05796	0.8199	0.4268	-0.216
Mof_Zn	Zn	0.75603	0.37902	0.37174	1.245
Mof_Zn	Zn	0.68682	0.49616	0.30468	1.248
Mof_C 	C 	0.70455	0.2681	0.2122	-0.061
Mof_C 	C 	0.72564	0.1967	0.2087	0.017
Mof_H 	H 	0.7463	0.1891	0.236	0.06
Mof_C 	C 	0.71646	0.1362	0.165	-0.064
Mof_C 	C 	0.68606	0.1485	0.1246	-0.072
Mof_H 	H 	0.6793	0.1078	0.0952	0.089
Mof_C 	C 	0.6659	0.2203	0.1277	0.139
Mof_C 	C 	0.6742	0.28	0.1704	-0.079
Mof_H 	H 	0.6598	0.3284	0.1717	0.103
Mof_C 	C 	0.71391	0.3328	0.2605	0.408
Mof_C 	C 	0.73834	0.0565	0.163	0.405
Mof_C 	C 	0.63757	0.2909	0.0381	0.229
Mof_C 	C 	0.60614	0.3102	0.9944	-0.05
Mof_C 	C 	0.60838	0.3676	0.9517	-0.019
Mof_H 	H 	0.6297	0.3947	0.9501	0.066
Mof_C 	C 	0.5777	0.386	0.9094	-0.017
Mof_H 	H 	0.5791	0.4251	0.8797	0.061
Mof_C 	C 	0.54616	0.3463	0.9119	-0.058
Mof_C 	C 	0.51518	0.3611	0.867	0.227
Mof_C 	C 	0.48093	0.2609	0.9158	0.233
Mof_C 	C 	0.51206	0.245	0.9607	-0.057
Mof_C 	C 	0.51065	0.1891	0.0052	-0.02
Mof_H 	H 	0.4896	0.1614	0.0078	0.068
Mof_C 	C 	0.5411	0.1736	0.047	-0.024
Mof_H 	H 	0.5398	0.1363	0.0776	0.069
Mof_C 	C 	0.57219	0.2112	0.0441	-0.055
Mof_C 	C 	0.60351	0.1895	0.0884	0.224
Mof_C 	C 	0.57485	0.2694	-0	0.03
Mof_C 	C 	0.54397	0.2878	0.9573	0.038
Mof_C 	C 	0.45617	0.3145	0.8199	0.149
Mof_C 	C 	0.45828	0.2557	0.7766	-0.084
Mof_H 	H 	0.4775	0.2181	0.7798	0.102
Mof_C 	C 	0.43162	0.2532	0.7287	-0.046
Mof_C 	C 	0.40389	0.3123	0.7254	0.002
Mof_H 	H 	0.3855	0.311	0.6934	0.076
Mof_C 	C 	0.4031	0.3718	0.7678	-0.035
Mof_C 	C 	0.42983	0.374	0.8159	-0.089
Mof_H 	H 	0.4298	0.4152	0.8449	0.097
Mof_C 	C 	0.4332	0.1911	0.6815	0.399
Mof_C 	C 	0.3733	0.4385	0.7606	0.377
Mof_C 	C 	0.66767	0.3696	0.454	-0.081
Mof_C 	C 	0.63454	0.4025	0.4554	-0.058
Mof_H 	H 	0.6241	0.4438	0.4284	0.08
Mof_C 	C 	0.61724	0.373	0.4977	0.131
Mof_C 	C 	0.63239	0.3143	0.5384	-0.075
Mof_H 	H 	0.6203	0.296	0.5667	0.1
Mof_C 	C 	0.66572	0.2817	0.5378	-0.056
Mof_C 	C 	0.68301	0.3113	0.4951	0.022
Mof_H 	H 	0.7056	0.2908	0.4946	0.061
Mof_C 	C 	0.68668	0.4014	0.4086	0.433
Mof_C 	C 	0.68316	0.2195	0.5818	0.364
Mof_C 	C 	0.554	0.3763	0.4597	0.233
Mof_C 	C 	0.51998	0.4168	0.4593	-0.062
Mof_C 	C 	0.49118	0.3897	0.4202	-0.015
Mof_H 	H 	0.4933	0.3466	0.3933	0.066
Mof_C 	C 	0.54246	0.571	0.5786	-0.026
Mof_H 	H 	0.5622	0.5878	0.6058	0.07
Mof_C 	C 	0.54578	0.5106	0.539	-0.057
Mof_C 	C 	0.58136	0.4736	0.5386	0.229
Mof_C 	C 	0.51651	0.4812	0.499	0.035
Mof_N 	N 	0.63421	0.2355	0.0833	-0.181
Mof_N 	N 	0.48496	0.3143	0.8707	-0.186
Mof_N 	N 	0.58242	0.4092	0.4998	-0.187
Mof_O 	O 	0.74125	0.3207	0.29768	-0.476
Mof_O 	O 	0.69257	0.3947	0.26049	-0.493
Mof_O 	O 	0.72394	0.9899	0.13819	-0.493
Mof_O 	O 	0.77044	0.064	0.1863	-0.491
Mof_O 	O 	0.45995	0.1538	0.6779	-0.278
Mof_O 	O 	0.40455	0.1864	0.6442	-0.487
Mof_H 	H 	0.4069	0.1509	0.6191	0.296
Mof_O 	O 	0.34787	0.4221	0.7214	-0.466
Mof_O 	O 	0.3756	0.5018	0.7906	-0.289
Mof_O 	O 	0.60388	0.1392	0.127	-0.21
Mof_O 	O 	0.66563	0.3231	0.0363	-0.212
Mof_O 	O 	0.51544	0.4119	0.8282	-0.209
Mof_O 	O 	0.45293	0.2283	0.9172	-0.214
Mof_O 	O 	0.71646	0.3702	0.40931	-0.508
Mof_O 	O 	0.67253	0.4573	0.3737	-0.496
Mof_O 	O 	0.71411	0.1985	0.57949	-0.453
Mof_O 	O 	0.66765	0.1913	0.6185	-0.267
Mof_O 	O 	0.60763	0.5003	0.5692	-0.213
Mof_O 	O 	0.55796	0.3199	0.4268	-0.216
Mof_Zn	Zn	0.74397	0.87902	0.12826	1.245
Mof_Zn	Zn	0.81318	0.99616	0.19532	1.248
Mof_C 	C 	0.79545	0.7681	0.2878	-0.061
Mof_C 	C 	0.77436	0.6967	0.2913	0.017
Mof_H 	H 	0.7537	0.6891	0.264	0.06
Mof_C 	C 	0.78354	0.6362	0.335	-0.064
Mof_C 	C 	0.81394	0.6485	0.3754	-0.072
Mof_H 	H 	0.8207	0.6078	0.4048	0.09
Mof_C 	C 	0.8341	0.7203	0.3723	0.139
Mof_C 	C 	0.8258	0.78	0.3296	-0.079
Mof_H 	H 	0.8402	0.8284	0.3283	0.103
Mof_C 	C 	0.78609	0.8328	0.2395	0.408
Mof_C 	C 	0.76166	0.5565	0.337	0.406
Mof_C 	C 	0.86243	0.7909	0.4619	0.23
Mof_C 	C 	0.89386	0.8102	0.5056	-0.053
Mof_C 	C 	0.89162	0.8676	0.5483	-0.017
Mof_H 	H 	0.8703	0.8947	0.5499	0.065
Mof_C 	C 	0.9223	0.886	0.5906	-0.019
Mof_H 	H 	0.9209	0.9251	0.6203	0.062
Mof_C 	C 	0.95384	0.8463	0.5881	-0.057
Mof_C 	C 	0.98482	0.8611	0.633	0.227
Mof_C 	C 	0.01907	0.7609	0.5842	0.233
Mof_C 	C 	0.98794	0.745	0.5393	-0.057
Mof_C 	C 	0.98935	0.6891	0.4948	-0.019
Mof_H 	H 	0.0104	0.6614	0.4922	0.068
Mof_C 	C 	0.9589	0.6736	0.453	-0.024
Mof_H 	H 	0.9602	0.6363	0.4224	0.069
Mof_C 	C 	0.92781	0.7112	0.4559	-0.057
Mof_C 	C 	0.89649	0.6895	0.4116	0.225
Mof_C 	C 	0.92515	0.7694	0.5	0.033
Mof_C 	C 	0.95603	0.7878	0.5427	0.036
Mof_C 	C 	0.04383	0.8145	0.6801	0.149
Mof_C 	C 	0.04172	0.7557	0.7234	-0.084
Mof_H 	H 	0.0225	0.7181	0.7202	0.102
Mof_C 	C 	0.06838	0.7532	0.7713	-0.046
Mof_C 	C 	0.09611	0.8123	0.7746	0.002
Mof_H 	H 	0.1145	0.811	0.8066	0.076
Mof_C 	C 	0.0969	0.8718	0.7322	-0.035
Mof_C 	C 	0.07017	0.874	0.6841	-0.089
Mof_H 	H 	0.0702	0.9152	0.6551	0.097
Mof_C 	C 	0.0668	0.6911	0.8185	0.399
Mof_C 	C 	0.1267	0.9385	0.7394	0.377
Mof_C 	C 	0.83233	0.8696	0.046	-0.08
Mof_C 	C 	0.86546	0.9025	0.0446	-0.058
Mof_H 	H 	0.8759	0.9438	0.0716	0.08
Mof_C 	C 	0.88276	0.873	0.0023	0.13
Mof_C 	C 	0.86761	0.8143	0.9616	-0.074
Mof_H 	H 	0.8797	0.796	0.9333	0.1
Mof_C 	C 	0.83428	0.7817	0.9622	-0.055
Mof_C 	C 	0.81699	0.8113	0.0049	0.02
Mof_H 	H 	0.7944	0.7908	0.0054	0.061
Mof_C 	C 	0.81332	0.9014	0.0914	0.433
Mof_C 	C 	0.81684	0.7195	0.9182	0.364
Mof_C 	C 	0.946	0.8763	0.0403	0.233
Mof_C 	C 	0.98002	0.9168	0.0407	-0.061
Mof_C 	C 	0.00882	0.8897	0.0798	-0.017
Mof_H 	H 	0.0067	0.8466	0.1067	0.067
Mof_C 	C 	0.95754	0.071	0.9214	-0.028
Mof_H 	H 	0.9378	0.0878	0.8942	0.07
Mof_C 	C 	0.95422	0.0106	0.961	-0.055
Mof_C 	C 	0.91864	0.9736	0.9614	0.229
Mof_C 	C 	0.98349	0.9812	0.001	0.032
Mof_N 	N 	0.86579	0.7355	0.4167	-0.181
Mof_N 	N 	0.01504	0.8143	0.6293	-0.186
Mof_N 	N 	0.91758	0.9092	0.0002	-0.187
Mof_O 	O 	0.75875	0.8207	0.20232	-0.476
Mof_O 	O 	0.80743	0.8947	0.23951	-0.493
Mof_O 	O 	0.77606	0.4899	0.36181	-0.493
Mof_O 	O 	0.72956	0.564	0.3137	-0.491
Mof_O 	O 	0.04005	0.6538	0.8221	-0.278
Mof_O 	O 	0.09545	0.6864	0.8558	-0.487
Mof_H 	H 	0.0931	0.6509	0.8809	0.296
Mof_O 	O 	0.15213	0.9221	0.7786	-0.466
Mof_O 	O 	0.1244	0.0018	0.7094	-0.289
Mof_O 	O 	0.89612	0.6392	0.373	-0.21
Mof_O 	O 	0.83437	0.8231	0.4637	-0.213
Mof_O 	O 	0.98456	0.9119	0.6718	-0.209
Mof_O 	O 	0.04707	0.7283	0.5828	-0.214
Mof_O 	O 	0.78354	0.8702	0.09069	-0.508
Mof_O 	O 	0.82747	0.9573	0.1263	-0.496
Mof_O 	O 	0.78589	0.6985	0.92051	-0.452
Mof_O 	O 	0.83235	0.6913	0.8815	-0.267
Mof_O 	O 	0.89237	0.0003	0.9308	-0.213
Mof_O 	O 	0.94204	0.8199	0.0732	-0.216
Mof_Zn	Zn	0.24397	0.37902	0.12826	1.245
Mof_Zn	Zn	0.31318	0.49616	0.19532	1.248
Mof_C 	C 	0.29545	0.2681	0.2878	-0.061
Mof_C 	C 	0.27436	0.1967	0.2913	0.017
Mof_H 	H 	0.2537	0.1891	0.264	0.06
Mof_C 	C 	0.28354	0.1362	0.335	-0.064
Mof_C 	C 	0.31394	0.1485	0.3754	-0.072
Mof_H 	H 	0.3207	0.1078	0.4048	0.09
Mof_C 	C 	0.3341	0.2203	0.3723	0.139
Mof_C 	C 	0.3258	0.28	0.3296	-0.079
Mof_H 	H 	0.3402	0.3284	0.3283	0.103
Mof_C 	C 	0.28609	0.3328	0.2395	0.408
Mof_C 	C 	0.26166	0.0565	0.337	0.405
Mof_C 	C 	0.36243	0.2909	0.4619	0.23
Mof_C 	C 	0.39386	0.3102	0.5056	-0.053
Mof_C 	C 	0.39162	0.3676	0.5483	-0.017
Mof_H 	H 	0.3703	0.3947	0.5499	0.065
Mof_C 	C 	0.4223	0.386	0.5906	-0.019
Mof_H 	H 	0.4209	0.4251	0.6203	0.062
Mof_C 	C 	0.45384	0.3463	0.5881	-0.057
Mof_C 	C 	0.48482	0.3611	0.633	0.227
Mof_C 	C 	0.51907	0.2609	0.5842	0.233
Mof_C 	C 	0.48794	0.245	0.5393	-0.057
Mof_C 	C 	0.48935	0.1891	0.4948	-0.019
Mof_H 	H 	0.5104	0.1614	0.4922	0.068
Mof_C 	C 	0.4589	0.1736	0.453	-0.024
Mof_H 	H 	0.4602	0.1363	0.4224	0.069
Mof_C 	C 	0.42781	0.2112	0.4559	-0.057
Mof_C 	C 	0.39649	0.1895	0.4116	0.225
Mof_C 	C 	0.42515	0.2694	0.5	0.033
Mof_C 	C 	0.45603	0.2878	0.5427	0.036
Mof_C 	C 	0.54383	0.3145	0.6801	0.149
Mof_C 	C 	0.54172	0.2557	0.7234	-0.084
Mof_H 	H 	0.5225	0.2181	0.7202	0.102
Mof_C 	C 	0.56838	0.2532	0.7713	-0.046
Mof_C 	C 	0.59611	0.3123	0.7746	0.002
Mof_H 	H 	0.6145	0.311	0.8066	0.076
Mof_C 	C 	0.5969	0.3718	0.7322	-0.035
Mof_C 	C 	0.57017	0.374	0.6841	-0.089
Mof_H 	H 	0.5702	0.4152	0.6551	0.097
Mof_C 	C 	0.5668	0.1911	0.8185	0.399
Mof_C 	C 	0.6267	0.4385	0.7394	0.377
Mof_C 	C 	0.33233	0.3696	0.046	-0.08
Mof_C 	C 	0.36546	0.4025	0.0446	-0.058
Mof_H 	H 	0.3759	0.4438	0.0716	0.08
Mof_C 	C 	0.38276	0.373	0.0023	0.13
Mof_C 	C 	0.36761	0.3143	0.9616	-0.074
Mof_H 	H 	0.3797	0.296	0.9333	0.1
Mof_C 	C 	0.33428	0.2817	0.9622	-0.055
Mof_C 	C 	0.31699	0.3113	0.0049	0.02
Mof_H 	H 	0.2944	0.2908	0.0054	0.061
Mof_C 	C 	0.31332	0.4014	0.0914	0.433
Mof_C 	C 	0.31684	0.2195	0.9182	0.364
Mof_C 	C 	0.446	0.3763	0.0403	0.233
Mof_C 	C 	0.48002	0.4168	0.0407	-0.06
Mof_C 	C 	0.50882	0.3897	0.0798	-0.017
Mof_H 	H 	0.5067	0.3466	0.1067	0.067
Mof_C 	C 	0.45754	0.571	0.9214	-0.028
Mof_H 	H 	0.4378	0.5878	0.8942	0.071
Mof_C 	C 	0.45422	0.5106	0.961	-0.055
Mof_C 	C 	0.41864	0.4736	0.9614	0.229
Mof_C 	C 	0.48349	0.4812	0.001	0.031
Mof_N 	N 	0.36579	0.2355	0.4167	-0.181
Mof_N 	N 	0.51504	0.3143	0.6293	-0.186
Mof_N 	N 	0.41758	0.4092	0.0002	-0.187
Mof_O 	O 	0.25875	0.3207	0.20232	-0.476
Mof_O 	O 	0.30743	0.3947	0.23951	-0.493
Mof_O 	O 	0.27606	0.9899	0.36181	-0.493
Mof_O 	O 	0.22956	0.064	0.3137	-0.491
Mof_O 	O 	0.54005	0.1538	0.8221	-0.278
Mof_O 	O 	0.59545	0.1864	0.8558	-0.487
Mof_H 	H 	0.5931	0.1509	0.8809	0.296
Mof_O 	O 	0.65213	0.4221	0.7786	-0.466
Mof_O 	O 	0.6244	0.5018	0.7094	-0.289
Mof_O 	O 	0.39612	0.1392	0.373	-0.21
Mof_O 	O 	0.33437	0.3231	0.4637	-0.213
Mof_O 	O 	0.48456	0.4119	0.6718	-0.209
Mof_O 	O 	0.54707	0.2283	0.5828	-0.214
Mof_O 	O 	0.28354	0.3702	0.09069	-0.508
Mof_O 	O 	0.32747	0.4573	0.1263	-0.496
Mof_O 	O 	0.28589	0.1985	0.92051	-0.452
Mof_O 	O 	0.33235	0.1913	0.8815	-0.267
Mof_O 	O 	0.39237	0.5003	0.9308	-0.213
Mof_O 	O 	0.44204	0.3199	0.0732	-0.216
Mof_Zn	Zn	0.74397	0.12098	0.62826	1.245
Mof_Zn	Zn	0.81318	0.00384	0.69532	1.248
Mof_C 	C 	0.79545	0.2319	0.7878	-0.061
Mof_C 	C 	0.77436	0.3033	0.7913	0.017
Mof_H 	H 	0.7537	0.3109	0.764	0.06
Mof_C 	C 	0.78354	0.3638	0.835	-0.064
Mof_C 	C 	0.81394	0.3515	0.8754	-0.072
Mof_H 	H 	0.8207	0.3922	0.9048	0.09
Mof_C 	C 	0.8341	0.2797	0.8723	0.14
Mof_C 	C 	0.8258	0.22	0.8296	-0.079
Mof_H 	H 	0.8402	0.1716	0.8283	0.103
Mof_C 	C 	0.78609	0.1672	0.7395	0.408
Mof_C 	C 	0.76166	0.4435	0.837	0.406
Mof_C 	C 	0.86243	0.2091	0.9619	0.231
Mof_C 	C 	0.89386	0.1898	0.0056	-0.054
Mof_C 	C 	0.89162	0.1324	0.0483	-0.017
Mof_H 	H 	0.8703	0.1053	0.0499	0.065
Mof_C 	C 	0.9223	0.114	0.0906	-0.019
Mof_H 	H 	0.9209	0.0749	0.1203	0.062
Mof_C 	C 	0.95384	0.1537	0.0881	-0.058
Mof_C 	C 	0.98482	0.1389	0.133	0.227
Mof_C 	C 	0.01907	0.2391	0.0842	0.234
Mof_C 	C 	0.98794	0.255	0.0393	-0.06
Mof_C 	C 	0.98935	0.3109	0.9948	-0.016
Mof_H 	H 	0.0104	0.3386	0.9922	0.068
Mof_C 	C 	0.9589	0.3264	0.953	-0.026
Mof_H 	H 	0.9602	0.3637	0.9224	0.07
Mof_C 	C 	0.92781	0.2888	0.9559	-0.054
Mof_C 	C 	0.89649	0.3105	0.9116	0.224
Mof_C 	C 	0.92515	0.2306	-0	0.031
Mof_C 	C 	0.95603	0.2122	0.0427	0.038
Mof_C 	C 	0.04383	0.1855	0.1801	0.149
Mof_C 	C 	0.04172	0.2443	0.2234	-0.084
Mof_H 	H 	0.0225	0.2819	0.2202	0.102
Mof_C 	C 	0.06838	0.2468	0.2713	-0.046
Mof_C 	C 	0.09611	0.1877	0.2746	0.002
Mof_H 	H 	0.1145	0.189	0.3066	0.076
Mof_C 	C 	0.0969	0.1282	0.2322	-0.035
Mof_C 	C 	0.07017	0.126	0.1841	-0.089
Mof_H 	H 	0.0702	0.0848	0.1551	0.097
Mof_C 	C 	0.0668	0.3089	0.3185	0.399
Mof_C 	C 	0.1267	0.0615	0.2394	0.377
Mof_C 	C 	0.83233	0.1304	0.546	-0.081
Mof_C 	C 	0.86546	0.0975	0.5446	-0.058
Mof_H 	H 	0.8759	0.0562	0.5716	0.08
Mof_C 	C 	0.88276	0.127	0.5023	0.131
Mof_C 	C 	0.86761	0.1857	0.4616	-0.075
Mof_H 	H 	0.8797	0.204	0.4333	0.1
Mof_C 	C 	0.83428	0.2183	0.4622	-0.056
Mof_C 	C 	0.81699	0.1887	0.5049	0.022
Mof_H 	H 	0.7944	0.2092	0.5054	0.061
Mof_C 	C 	0.81332	0.0986	0.5914	0.433
Mof_C 	C 	0.81684	0.2805	0.4182	0.364
Mof_C 	C 	0.946	0.1237	0.5403	0.233
Mof_C 	C 	0.98002	0.0832	0.5407	-0.062
Mof_C 	C 	0.00882	0.1103	0.5798	-0.016
Mof_H 	H 	0.0067	0.1534	0.6067	0.066
Mof_C 	C 	0.95754	0.929	0.4214	-0.027
Mof_H 	H 	0.9378	0.9122	0.3942	0.07
Mof_C 	C 	0.95422	0.9894	0.461	-0.057
Mof_C 	C 	0.91864	0.0264	0.4614	0.228
Mof_C 	C 	0.98349	0.0188	0.501	0.034
Mof_N 	N 	0.86579	0.2645	0.9167	-0.181
Mof_N 	N 	0.01504	0.1857	0.1293	-0.186
Mof_N 	N 	0.91758	0.0908	0.5002	-0.187
Mof_O 	O 	0.75875	0.1793	0.70232	-0.476
Mof_O 	O 	0.80743	0.1053	0.73951	-0.493
Mof_O 	O 	0.77606	0.5101	0.86181	-0.493
Mof_O 	O 	0.72956	0.436	0.8137	-0.491
Mof_O 	O 	0.04005	0.3462	0.3221	-0.278
Mof_O 	O 	0.09545	0.3136	0.3558	-0.487
Mof_H 	H 	0.0931	0.3491	0.3809	0.296
Mof_O 	O 	0.15213	0.0779	0.2786	-0.466
Mof_O 	O 	0.1244	0.9982	0.2094	-0.288
Mof_O 	O 	0.89612	0.3608	0.873	-0.21
Mof_O 	O 	0.83437	0.1769	0.9637	-0.212
Mof_O 	O 	0.98456	0.0881	0.1718	-0.209
Mof_O 	O 	0.04707	0.2717	0.0828	-0.215
Mof_O 	O 	0.78354	0.1298	0.59069	-0.508
Mof_O 	O 	0.82747	0.0427	0.6263	-0.496
Mof_O 	O 	0.78589	0.3015	0.42051	-0.453
Mof_O 	O 	0.83235	0.3087	0.3815	-0.267
Mof_O 	O 	0.89237	0.9997	0.4308	-0.213
Mof_O 	O 	0.94204	0.1801	0.5732	-0.216
Mof_Zn	Zn	0.24397	0.62098	0.62826	1.245
Mof_Zn	Zn	0.31318	0.50384	0.69532	1.248
Mof_C 	C 	0.29545	0.7319	0.7878	-0.061
Mof_C 	C 	0.27436	0.8033	0.7913	0.017
Mof_H 	H 	0.2537	0.8109	0.764	0.06
Mof_C 	C 	0.28354	0.8638	0.835	-0.064
Mof_C 	C 	0.31394	0.8515	0.8754	-0.072
Mof_H 	H 	0.3207	0.8922	0.9048	0.09
Mof_C 	C 	0.3341	0.7797	0.8723	0.14
Mof_C 	C 	0.3258	0.72	0.8296	-0.079
Mof_H 	H 	0.3402	0.6716	0.8283	0.103
Mof_C 	C 	0.28609	0.6672	0.7395	0.408
Mof_C 	C 	0.26166	0.9435	0.837	0.406
Mof_C 	C 	0.36243	0.7091	0.9619	0.231
Mof_C 	C 	0.39386	0.6898	0.0056	-0.054
Mof_C 	C 	0.39162	0.6324	0.0483	-0.017
Mof_H 	H 	0.3703	0.6053	0.0499	0.065
Mof_C 	C 	0.4223	0.614	0.0906	-0.019
Mof_H 	H 	0.4209	0.5749	0.1203	0.062
Mof_C 	C 	0.45384	0.6537	0.0881	-0.058
Mof_C 	C 	0.48482	0.6389	0.133	0.227
Mof_C 	C 	0.51907	0.7391	0.0842	0.234
Mof_C 	C 	0.48794	0.755	0.0393	-0.059
Mof_C 	C 	0.48935	0.8109	0.9948	-0.016
Mof_H 	H 	0.5104	0.8386	0.9922	0.068
Mof_C 	C 	0.4589	0.8264	0.953	-0.026
Mof_H 	H 	0.4602	0.8637	0.9224	0.07
Mof_C 	C 	0.42781	0.7888	0.9559	-0.055
Mof_C 	C 	0.39649	0.8105	0.9116	0.224
Mof_C 	C 	0.42515	0.7306	-0	0.031
Mof_C 	C 	0.45603	0.7122	0.0427	0.037
Mof_C 	C 	0.54383	0.6855	0.1801	0.149
Mof_C 	C 	0.54172	0.7443	0.2234	-0.084
Mof_H 	H 	0.5225	0.7819	0.2202	0.102
Mof_C 	C 	0.56838	0.7468	0.2713	-0.046
Mof_C 	C 	0.59611	0.6877	0.2746	0.002
Mof_H 	H 	0.6145	0.689	0.3066	0.076
Mof_C 	C 	0.5969	0.6282	0.2322	-0.035
Mof_C 	C 	0.57017	0.626	0.1841	-0.089
Mof_H 	H 	0.5702	0.5848	0.1551	0.097
Mof_C 	C 	0.5668	0.8089	0.3185	0.399
Mof_C 	C 	0.6267	0.5615	0.2394	0.377
Mof_C 	C 	0.33233	0.6304	0.546	-0.081
Mof_C 	C 	0.36546	0.5975	0.5446	-0.058
Mof_H 	H 	0.3759	0.5562	0.5716	0.08
Mof_C 	C 	0.38276	0.627	0.5023	0.131
Mof_C 	C 	0.36761	0.6857	0.4616	-0.075
Mof_H 	H 	0.3797	0.704	0.4333	0.1
Mof_C 	C 	0.33428	0.7183	0.4622	-0.056
Mof_C 	C 	0.31699	0.6887	0.5049	0.022
Mof_H 	H 	0.2944	0.7092	0.5054	0.061
Mof_C 	C 	0.31332	0.5986	0.5914	0.433
Mof_C 	C 	0.31684	0.7805	0.4182	0.364
Mof_C 	C 	0.446	0.6237	0.5403	0.233
Mof_C 	C 	0.48002	0.5832	0.5407	-0.062
Mof_C 	C 	0.50882	0.6103	0.5798	-0.015
Mof_H 	H 	0.5067	0.6534	0.6067	0.066
Mof_C 	C 	0.45754	0.429	0.4214	-0.026
Mof_H 	H 	0.4378	0.4122	0.3942	0.07
Mof_C 	C 	0.45422	0.4894	0.461	-0.057
Mof_C 	C 	0.41864	0.5264	0.4614	0.229
Mof_C 	C 	0.48349	0.5188	0.501	0.035
Mof_N 	N 	0.36579	0.7645	0.9167	-0.181
Mof_N 	N 	0.51504	0.6857	0.1293	-0.186
Mof_N 	N 	0.41758	0.5908	0.5002	-0.187
Mof_O 	O 	0.25875	0.6793	0.70232	-0.476
Mof_O 	O 	0.30743	0.6053	0.73951	-0.493
Mof_O 	O 	0.27606	0.0101	0.86181	-0.493
Mof_O 	O 	0.22956	0.936	0.8137	-0.491
Mof_O 	O 	0.54005	0.8462	0.3221	-0.278
Mof_O 	O 	0.59545	0.8136	0.3558	-0.487
Mof_H 	H 	0.5931	0.8491	0.3809	0.296
Mof_O 	O 	0.65213	0.5779	0.2786	-0.466
Mof_O 	O 	0.6244	0.4982	0.2094	-0.289
Mof_O 	O 	0.39612	0.8608	0.873	-0.21
Mof_O 	O 	0.33437	0.6769	0.9637	-0.212
Mof_O 	O 	0.48456	0.5881	0.1718	-0.209
Mof_O 	O 	0.54707	0.7717	0.0828	-0.215
Mof_O 	O 	0.28354	0.6298	0.59069	-0.508
Mof_O 	O 	0.32747	0.5427	0.6263	-0.496
Mof_O 	O 	0.28589	0.8015	0.42051	-0.453
Mof_O 	O 	0.33235	0.8087	0.3815	-0.267
Mof_O 	O 	0.39237	0.4997	0.4308	-0.213
Mof_O 	O 	0.44204	0.6801	0.5732	-0.216
Mof_Zn	Zn	0.25603	0.12098	0.87174	1.245
Mof_Zn	Zn	0.18682	0.00384	0.80468	1.248
Mof_C 	C 	0.20455	0.2319	0.7122	-0.061
Mof_C 	C 	0.22564	0.3033	0.7087	0.017
Mof_H 	H 	0.2463	0.3109	0.736	0.06
Mof_C 	C 	0.21646	0.3638	0.665	-0.064
Mof_C 	C 	0.18606	0.3515	0.6246	-0.072
Mof_H 	H 	0.1793	0.3922	0.5952	0.09
Mof_C 	C 	0.1659	0.2797	0.6277	0.139
Mof_C 	C 	0.1742	0.22	0.6704	-0.079
Mof_H 	H 	0.1598	0.1716	0.6717	0.103
Mof_C 	C 	0.21391	0.1672	0.7605	0.408
Mof_C 	C 	0.23834	0.4435	0.663	0.406
Mof_C 	C 	0.13757	0.2091	0.5381	0.23
Mof_C 	C 	0.10614	0.1898	0.4944	-0.053
Mof_C 	C 	0.10838	0.1324	0.4517	-0.017
Mof_H 	H 	0.1297	0.1053	0.4501	0.065
Mof_C 	C 	0.0777	0.114	0.4094	-0.019
Mof_H 	H 	0.0791	0.0749	0.3797	0.062
Mof_C 	C 	0.04616	0.1537	0.4119	-0.057
Mof_C 	C 	0.01518	0.1389	0.367	0.227
Mof_C 	C 	0.98093	0.2391	0.4158	0.233
Mof_C 	C 	0.01206	0.255	0.4607	-0.057
Mof_C 	C 	0.01065	0.3109	0.5052	-0.019
Mof_H 	H 	0.9896	0.3386	0.5078	0.068
Mof_C 	C 	0.0411	0.3264	0.547	-0.024
Mof_H 	H 	0.0398	0.3637	0.5776	0.069
Mof_C 	C 	0.07219	0.2888	0.5441	-0.057
Mof_C 	C 	0.10351	0.3105	0.5884	0.225
Mof_C 	C 	0.07485	0.2306	0.5	0.033
Mof_C 	C 	0.04397	0.2122	0.4573	0.036
Mof_C 	C 	0.95617	0.1855	0.3199	0.149
Mof_C 	C 	0.95828	0.2443	0.2766	-0.084
Mof_H 	H 	0.9775	0.2819	0.2798	0.102
Mof_C 	C 	0.93162	0.2468	0.2287	-0.046
Mof_C 	C 	0.90389	0.1877	0.2254	0.002
Mof_H 	H 	0.8855	0.189	0.1934	0.076
Mof_C 	C 	0.9031	0.1282	0.2678	-0.035
Mof_C 	C 	0.92983	0.126	0.3159	-0.089
Mof_H 	H 	0.9298	0.0848	0.3449	0.097
Mof_C 	C 	0.9332	0.3089	0.1815	0.399
Mof_C 	C 	0.8733	0.0615	0.2606	0.377
Mof_C 	C 	0.16767	0.1304	0.954	-0.081
Mof_C 	C 	0.13454	0.0975	0.9554	-0.059
Mof_H 	H 	0.1241	0.0562	0.9284	0.081
Mof_C 	C 	0.11724	0.127	0.9977	0.133
Mof_C 	C 	0.13239	0.1857	0.0384	-0.076
Mof_H 	H 	0.1203	0.204	0.0667	0.1
Mof_C 	C 	0.16572	0.2183	0.0378	-0.057
Mof_C 	C 	0.18301	0.1887	0.9951	0.023
Mof_H 	H 	0.2056	0.2092	0.9946	0.061
Mof_C 	C 	0.18668	0.0986	0.9086	0.433
Mof_C 	C 	0.18316	0.2805	0.0818	0.364
Mof_C 	C 	0.054	0.1237	0.9597	0.234
Mof_C 	C 	0.01998	0.0832	0.9593	-0.064
Mof_C 	C 	0.99118	0.1103	0.9202	-0.014
Mof_H 	H 	0.9933	0.1534	0.8933	0.065
Mof_C 	C 	0.04246	0.929	0.0786	-0.025
Mof_H 	H 	0.0622	0.9122	0.1058	0.069
Mof_C 	C 	0.04578	0.9894	0.039	-0.059
Mof_C 	C 	0.08136	0.0264	0.0386	0.228
Mof_C 	C 	0.01651	0.0188	0.999	0.038
Mof_N 	N 	0.13421	0.2645	0.5833	-0.181
Mof_N 	N 	0.98496	0.1857	0.3707	-0.186
Mof_N 	N 	0.08242	0.0908	0.9998	-0.187
Mof_O 	O 	0.24125	0.1793	0.79768	-0.476
Mof_O 	O 	0.19257	0.1053	0.76049	-0.493
Mof_O 	O 	0.22394	0.5101	0.63819	-0.493
Mof_O 	O 	0.27044	0.436	0.6863	-0.491
Mof_O 	O 	0.95995	0.3462	0.1779	-0.278
Mof_O 	O 	0.90455	0.3136	0.1442	-0.487
Mof_H 	H 	0.9069	0.3491	0.1191	0.295
Mof_O 	O 	0.84787	0.0779	0.2214	-0.466
Mof_O 	O 	0.8756	0.9982	0.2906	-0.288
Mof_O 	O 	0.10388	0.3608	0.627	-0.21
Mof_O 	O 	0.16563	0.1769	0.5363	-0.213
Mof_O 	O 	0.01544	0.0881	0.3282	-0.209
Mof_O 	O 	0.95293	0.2717	0.4172	-0.214
Mof_O 	O 	0.21646	0.1298	0.90931	-0.508
Mof_O 	O 	0.17253	0.0427	0.8737	-0.496
Mof_O 	O 	0.21411	0.3015	0.07949	-0.453
Mof_O 	O 	0.16765	0.3087	0.1185	-0.267
Mof_O 	O 	0.10763	0.9997	0.0692	-0.213
Mof_O 	O 	0.05796	0.1801	0.9268	-0.217
Mof_Zn	Zn	0.75603	0.62098	0.87174	1.245
Mof_Zn	Zn	0.68682	0.50384	0.80468	1.248
Mof_C 	C 	0.70455	0.7319	0.7122	-0.061
Mof_C 	C 	0.72564	0.8033	0.7087	0.018
Mof_H 	H 	0.7463	0.8109	0.736	0.06
Mof_C 	C 	0.71646	0.8638	0.665	-0.064
Mof_C 	C 	0.68606	0.8515	0.6246	-0.072
Mof_H 	H 	0.6793	0.8922	0.5952	0.09
Mof_C 	C 	0.6659	0.7797	0.6277	0.139
Mof_C 	C 	0.6742	0.72	0.6704	-0.079
Mof_H 	H 	0.6598	0.6716	0.6717	0.103
Mof_C 	C 	0.71391	0.6672	0.7605	0.408
Mof_C 	C 	0.73834	0.9435	0.663	0.406
Mof_C 	C 	0.63757	0.7091	0.5381	0.23
Mof_C 	C 	0.60614	0.6898	0.4944	-0.053
Mof_C 	C 	0.60838	0.6324	0.4517	-0.017
Mof_H 	H 	0.6297	0.6053	0.4501	0.065
Mof_C 	C 	0.5777	0.614	0.4094	-0.019
Mof_H 	H 	0.5791	0.5749	0.3797	0.062
Mof_C 	C 	0.54616	0.6537	0.4119	-0.057
Mof_C 	C 	0.51518	0.6389	0.367	0.227
Mof_C 	C 	0.48093	0.7391	0.4158	0.233
Mof_C 	C 	0.51206	0.755	0.4607	-0.057
Mof_C 	C 	0.51065	0.8109	0.5052	-0.019
Mof_H 	H 	0.4896	0.8386	0.5078	0.069
Mof_C 	C 	0.5411	0.8264	0.547	-0.024
Mof_H 	H 	0.5398	0.8637	0.5776	0.069
Mof_C 	C 	0.57219	0.7888	0.5441	-0.057
Mof_C 	C 	0.60351	0.8105	0.5884	0.225
Mof_C 	C 	0.57485	0.7306	0.5	0.033
Mof_C 	C 	0.54397	0.7122	0.4573	0.036
Mof_C 	C 	0.45617	0.6855	0.3199	0.149
Mof_C 	C 	0.45828	0.7443	0.2766	-0.084
Mof_H 	H 	0.4775	0.7819	0.2798	0.102
Mof_C 	C 	0.43162	0.7468	0.2287	-0.046
Mof_C 	C 	0.40389	0.6877	0.2254	0.002
Mof_H 	H 	0.3855	0.689	0.1934	0.076
Mof_C 	C 	0.4031	0.6282	0.2678	-0.035
Mof_C 	C 	0.42983	0.626	0.3159	-0.089
Mof_H 	H 	0.4298	0.5848	0.3449	0.097
Mof_C 	C 	0.4332	0.8089	0.1815	0.399
Mof_C 	C 	0.3733	0.5615	0.2606	0.377
Mof_C 	C 	0.66767	0.6304	0.954	-0.081
Mof_C 	C 	0.63454	0.5975	0.9554	-0.059
Mof_H 	H 	0.6241	0.5562	0.9284	0.081
Mof_C 	C 	0.61724	0.627	0.9977	0.133
Mof_C 	C 	0.63239	0.6857	0.0384	-0.076
Mof_H 	H 	0.6203	0.704	0.0667	0.1
Mof_C 	C 	0.66572	0.7183	0.0378	-0.056
Mof_C 	C 	0.68301	0.6887	0.9951	0.023
Mof_H 	H 	0.7056	0.7092	0.9946	0.061
Mof_C 	C 	0.68668	0.5986	0.9086	0.433
Mof_C 	C 	0.68316	0.7805	0.0818	0.364
Mof_C 	C 	0.554	0.6237	0.9597	0.234
Mof_C 	C 	0.51998	0.5832	0.9593	-0.064
Mof_C 	C 	0.49118	0.6103	0.9202	-0.013
Mof_H 	H 	0.4933	0.6534	0.8933	0.065
Mof_C 	C 	0.54246	0.429	0.0786	-0.024
Mof_H 	H 	0.5622	0.4122	0.1058	0.069
Mof_C 	C 	0.54578	0.4894	0.039	-0.06
Mof_C 	C 	0.58136	0.5264	0.0386	0.229
Mof_C 	C 	0.51651	0.5188	0.999	0.039
Mof_N 	N 	0.63421	0.7645	0.5833	-0.181
Mof_N 	N 	0.48496	0.6857	0.3707	-0.186
Mof_N 	N 	0.58242	0.5908	0.9998	-0.187
Mof_O 	O 	0.74125	0.6793	0.79768	-0.476
Mof_O 	O 	0.69257	0.6053	0.76049	-0.493
Mof_O 	O 	0.72394	0.0101	0.63819	-0.493
Mof_O 	O 	0.77044	0.936	0.6863	-0.491
Mof_O 	O 	0.45995	0.8462	0.1779	-0.278
Mof_O 	O 	0.40455	0.8136	0.1442	-0.487
Mof_H 	H 	0.4069	0.8491	0.1191	0.296
Mof_O 	O 	0.34787	0.5779	0.2214	-0.466
Mof_O 	O 	0.3756	0.4982	0.2906	-0.289
Mof_O 	O 	0.60388	0.8608	0.627	-0.21
Mof_O 	O 	0.66563	0.6769	0.5363	-0.213
Mof_O 	O 	0.51544	0.5881	0.3282	-0.209
Mof_O 	O 	0.45293	0.7717	0.4172	-0.214
Mof_O 	O 	0.71646	0.6298	0.90931	-0.508
Mof_O 	O 	0.67253	0.5427	0.8737	-0.496
Mof_O 	O 	0.71411	0.8015	0.07949	-0.453
Mof_O 	O 	0.66765	0.8087	0.1185	-0.267
Mof_O 	O 	0.60763	0.4997	0.0692	-0.214
Mof_O 	O 	0.55796	0.6801	0.9268	-0.217
_end
