data_functionalizedCrystal
_audit_creation_method	'EQeq! by Chris Wilmer'
_symmetry_space_group_name_H-M	'P1'
_symmetry_Int_Tables_number	1
_symmetry_cell_setting	triclinic
loop_
_symmetry_equiv_pos_as_xyz
  x,y,z
_cell_length_a	26.531
_cell_length_b	13.617
_cell_length_c	16.4067
_cell_angle_alpha	90
_cell_angle_beta	98.04
_cell_angle_gamma	90
loop_
_atom_site_label
_atom_site_type_symbol
_atom_site_fract_x
_atom_site_fract_y
_atom_site_fract_z
_atom_site_charge
Mof_C 	C 	0.3349	0.095	0.69	0.543
Mof_C 	C 	0.3895	0.066	0.6801	-0.186
Mof_C 	C 	0.4058	0.045	0.605	0.07
Mof_N 	N 	0.4565	0.022	0.6018	-0.222
Mof_C 	C 	0.491	0.019	0.6738	0.012
Mof_C 	C 	0.4747	0.04	0.749	-0.156
Mof_C 	C 	0.424	0.063	0.7522	0.012
Mof_C 	C 	0.6766	0.851	0.632	0.52
Mof_C 	C 	0.5351	0.968	0.6672	0.032
Mof_C 	C 	0.5676	0.934	0.7352	-0.093
Mof_C 	C 	0.6145	0.894	0.7251	0.095
Mof_C 	C 	0.6289	0.888	0.647	-0.224
Mof_C 	C 	0.5965	0.922	0.579	0.077
Mof_N 	N 	0.5496	0.962	0.5891	-0.253
Mof_C 	C 	0.8343	0.897	0.363	0.555
Mof_C 	C 	0.8859	0.935	0.3502	-0.201
Mof_C 	C 	0.8933	0.999	0.2872	0.086
Mof_N 	N 	0.9419	0.033	0.2801	-0.212
Mof_C 	C 	0.9832	0.002	0.3362	-0.012
Mof_C 	C 	0.9758	0.938	0.3992	-0.034
Mof_C 	C 	0.9271	0.904	0.4062	0.058
Mof_C 	C 	0.1677	0.206	0.329	0.531
Mof_C 	C 	0.0317	0.045	0.3333	0.023
Mof_N 	N 	0.0387	0.104	0.2664	-0.248
Mof_C 	C 	0.0841	0.154	0.2661	0.082
Mof_C 	C 	0.1225	0.147	0.3327	-0.208
Mof_C 	C 	0.1155	0.088	0.3996	0.046
Mof_C 	C 	0.0701	0.037	0.3999	-0.058
Mof_C 	C 	0.8267	0.616	0.539	0.484
Mof_C 	C 	0.8765	0.578	0.5218	-0.185
Mof_C 	C 	0.9025	0.514	0.5785	0.06
Mof_C 	C 	0.9515	0.484	0.5697	-0.271
Mof_C 	C 	0.9745	0.518	0.5041	0.039
Mof_C 	C 	0.9486	0.583	0.4474	-0.149
Mof_C 	C 	0.8996	0.613	0.4563	0.09
Mof_C 	C 	0.6677	0.661	0.493	0.499
Mof_C 	C 	0.6181	0.608	0.5007	-0.234
Mof_C 	C 	0.6117	0.538	0.5599	0.125
Mof_C 	C 	0.5647	0.493	0.5595	-0.395
Mof_C 	C 	0.5242	0.517	0.5	0.061
Mof_C 	C 	0.5305	0.588	0.4409	-0.364
Mof_C 	C 	0.5775	0.633	0.4413	0.14
Mof_O 	O 	0.7507	0.739	0.333	-0.407
Mof_O 	O 	0.8253	0.857	0.4245	-0.613
Mof_O 	O 	0.1732	0.244	0.2686	-0.555
Mof_O 	O 	0.802	0.661	0.4816	-0.538
Mof_O 	O 	0.7987	0.92	0.3024	-0.629
Mof_O 	O 	0.8133	0.588	0.6087	-0.577
Mof_O 	O 	0.3206	0.107	0.7575	-0.633
Mof_O 	O 	0.7021	0.801	0.6886	-0.52
Mof_O 	O 	0.704	0.657	0.5577	-0.658
Mof_O 	O 	0.675	0.704	0.4338	-0.539
Mof_O 	O 	0.2036	0.202	0.3923	-0.679
Mof_O 	O 	0.6889	0.86	0.5608	-0.579
Mof_O 	O 	0.3054	0.101	0.6203	-0.61
Mof_Eu	Eu	0.75242	0.8488	0.18957	2.439
Mof_Eu	Eu	0.74943	0.808	0.47301	2.467
Mof_Cu	Cu	0.9858	0.423	0.6724	0.822
Mof_Cu	Cu	0.4723	0.5634	0.3795	0.856
Mof_N 	N 	0.0514	0.417	0.5526	-0.181
Mof_N 	N 	0.4695	0.412	0.5591	-0.272
Mof_C 	C 	0.6651	0.595	0.81	0.545
Mof_C 	C 	0.6105	0.566	0.8199	-0.189
Mof_C 	C 	0.5942	0.545	0.895	0.077
Mof_N 	N 	0.5435	0.522	0.8982	-0.219
Mof_C 	C 	0.509	0.519	0.8262	0.029
Mof_C 	C 	0.5253	0.54	0.751	-0.155
Mof_C 	C 	0.576	0.563	0.7478	0.015
Mof_C 	C 	0.3234	0.351	0.868	0.517
Mof_C 	C 	0.4649	0.468	0.8328	0.017
Mof_C 	C 	0.4324	0.434	0.7648	-0.092
Mof_C 	C 	0.3855	0.394	0.7749	0.094
Mof_C 	C 	0.3711	0.388	0.853	-0.222
Mof_C 	C 	0.4035	0.422	0.921	0.082
Mof_N 	N 	0.4504	0.462	0.9109	-0.251
Mof_C 	C 	0.1657	0.397	0.137	0.552
Mof_C 	C 	0.1141	0.435	0.1498	-0.201
Mof_C 	C 	0.1067	0.499	0.2128	0.074
Mof_N 	N 	0.0581	0.533	0.2199	-0.205
Mof_C 	C 	0.0168	0.502	0.1638	0.009
Mof_C 	C 	0.0242	0.438	0.1008	-0.058
Mof_C 	C 	0.0729	0.404	0.0938	0.057
Mof_C 	C 	0.8323	0.706	0.171	0.533
Mof_C 	C 	0.9683	0.545	0.1667	0.017
Mof_N 	N 	0.9613	0.604	0.2336	-0.246
Mof_C 	C 	0.9159	0.654	0.2339	0.083
Mof_C 	C 	0.8775	0.647	0.1673	-0.208
Mof_C 	C 	0.8845	0.588	0.1004	0.041
Mof_C 	C 	0.9299	0.537	0.1001	-0.056
Mof_C 	C 	0.1733	0.116	0.961	0.498
Mof_C 	C 	0.1235	0.078	0.9782	-0.164
Mof_C 	C 	0.0975	0.014	0.9215	0.043
Mof_C 	C 	0.0485	0.984	0.9303	-0.246
Mof_C 	C 	0.0255	0.018	0.9959	0.039
Mof_C 	C 	0.0514	0.083	0.0526	-0.158
Mof_C 	C 	0.1004	0.113	0.0437	0.072
Mof_C 	C 	0.3323	0.161	0.007	0.451
Mof_C 	C 	0.3819	0.108	0.9993	-0.175
Mof_C 	C 	0.3883	0.038	0.9401	0.086
Mof_C 	C 	0.4353	0.993	0.9405	-0.328
Mof_C 	C 	0.4758	0.017	-0	-0.02
Mof_C 	C 	0.4695	0.088	0.0591	-0.336
Mof_C 	C 	0.4225	0.133	0.0587	0.1
Mof_O 	O 	0.2493	0.239	0.167	-0.405
Mof_O 	O 	0.1747	0.357	0.0755	-0.613
Mof_O 	O 	0.8268	0.744	0.2314	-0.556
Mof_O 	O 	0.198	0.161	0.0184	-0.551
Mof_O 	O 	0.2013	0.42	0.1976	-0.629
Mof_O 	O 	0.1867	0.088	0.8913	-0.578
Mof_O 	O 	0.6794	0.607	0.7425	-0.634
Mof_O 	O 	0.2979	0.301	0.8114	-0.518
Mof_O 	O 	0.296	0.157	0.9423	-0.635
Mof_O 	O 	0.325	0.204	0.0662	-0.525
Mof_O 	O 	0.7964	0.702	0.1077	-0.687
Mof_O 	O 	0.3111	0.36	0.9392	-0.568
Mof_O 	O 	0.6946	0.601	0.8797	-0.611
Mof_Eu	Eu	0.24758	0.3488	0.31043	2.437
Mof_Eu	Eu	0.25057	0.308	0.02699	2.43
Mof_Cu	Cu	0.0142	0.923	0.8276	0.824
Mof_Cu	Cu	0.5277	0.0634	0.1205	0.853
Mof_N 	N 	0.9486	0.917	0.9474	-0.179
Mof_N 	N 	0.5305	0.912	0.9409	-0.277
Mof_C 	C 	0.6651	0.905	0.31	0.544
Mof_C 	C 	0.6105	0.934	0.3199	-0.189
Mof_C 	C 	0.5942	0.955	0.395	0.075
Mof_N 	N 	0.5435	0.978	0.3982	-0.221
Mof_C 	C 	0.509	0.981	0.3262	0.045
Mof_C 	C 	0.5253	0.96	0.251	-0.153
Mof_C 	C 	0.576	0.937	0.2478	0.018
Mof_C 	C 	0.3234	0.149	0.368	0.517
Mof_C 	C 	0.4649	0.032	0.3328	-0.002
Mof_C 	C 	0.4324	0.066	0.2648	-0.091
Mof_C 	C 	0.3855	0.106	0.2749	0.089
Mof_C 	C 	0.3711	0.112	0.353	-0.222
Mof_C 	C 	0.4035	0.078	0.421	0.072
Mof_N 	N 	0.4504	0.038	0.4109	-0.254
Mof_C 	C 	0.1657	0.103	0.637	0.553
Mof_C 	C 	0.1141	0.065	0.6498	-0.202
Mof_C 	C 	0.1067	0.001	0.7128	0.066
Mof_N 	N 	0.0581	0.967	0.7199	-0.2
Mof_C 	C 	0.0168	0.998	0.6638	0.025
Mof_C 	C 	0.0242	0.062	0.6008	-0.07
Mof_C 	C 	0.0729	0.096	0.5938	0.064
Mof_C 	C 	0.8323	0.794	0.671	0.532
Mof_C 	C 	0.9683	0.955	0.6667	0.015
Mof_N 	N 	0.9613	0.896	0.7336	-0.244
Mof_C 	C 	0.9159	0.846	0.7339	0.085
Mof_C 	C 	0.8775	0.853	0.6673	-0.206
Mof_C 	C 	0.8845	0.912	0.6004	0.047
Mof_C 	C 	0.9299	0.963	0.6001	-0.045
Mof_C 	C 	0.1733	0.384	0.461	0.486
Mof_C 	C 	0.1235	0.422	0.4782	-0.19
Mof_C 	C 	0.0975	0.486	0.4215	0.067
Mof_C 	C 	0.0485	0.516	0.4303	-0.279
Mof_C 	C 	0.0255	0.482	0.4959	0.059
Mof_C 	C 	0.1004	0.387	0.5437	0.106
Mof_C 	C 	0.3323	0.339	0.507	0.492
Mof_C 	C 	0.3819	0.392	0.4993	-0.208
Mof_C 	C 	0.3883	0.462	0.4401	0.109
Mof_C 	C 	0.4353	0.507	0.4405	-0.361
Mof_C 	C 	0.4758	0.483	0.5	-0.02
Mof_C 	C 	0.4225	0.367	0.5587	0.09
Mof_O 	O 	0.2493	0.261	0.667	-0.406
Mof_O 	O 	0.1747	0.143	0.5755	-0.614
Mof_O 	O 	0.8268	0.756	0.7314	-0.555
Mof_O 	O 	0.198	0.339	0.5184	-0.537
Mof_O 	O 	0.2013	0.08	0.6976	-0.63
Mof_O 	O 	0.1867	0.412	0.3913	-0.577
Mof_O 	O 	0.6794	0.893	0.2425	-0.633
Mof_O 	O 	0.2979	0.199	0.3114	-0.521
Mof_O 	O 	0.296	0.343	0.4423	-0.656
Mof_O 	O 	0.325	0.296	0.5662	-0.535
Mof_O 	O 	0.7964	0.798	0.6077	-0.679
Mof_O 	O 	0.3111	0.14	0.4392	-0.58
Mof_O 	O 	0.6946	0.899	0.3797	-0.609
Mof_Eu	Eu	0.24758	0.1512	0.81043	2.435
Mof_Eu	Eu	0.25057	0.192	0.52699	2.462
Mof_Cu	Cu	0.0142	0.577	0.3276	0.822
Mof_Cu	Cu	0.5277	0.4366	0.6205	0.848
Mof_C 	C 	0.3349	0.405	0.19	0.541
Mof_C 	C 	0.3895	0.434	0.1801	-0.186
Mof_C 	C 	0.4058	0.455	0.105	0.067
Mof_N 	N 	0.4565	0.478	0.1018	-0.223
Mof_C 	C 	0.491	0.481	0.1738	0.027
Mof_C 	C 	0.4747	0.46	0.249	-0.155
Mof_C 	C 	0.424	0.437	0.2522	0.014
Mof_C 	C 	0.6766	0.649	0.132	0.52
Mof_C 	C 	0.5351	0.532	0.1672	0.015
Mof_C 	C 	0.5676	0.566	0.2352	-0.092
Mof_C 	C 	0.6145	0.606	0.2251	0.091
Mof_C 	C 	0.6289	0.612	0.147	-0.223
Mof_C 	C 	0.5965	0.578	0.079	0.068
Mof_N 	N 	0.5496	0.538	0.0891	-0.256
Mof_C 	C 	0.8343	0.603	0.863	0.555
Mof_C 	C 	0.8859	0.565	0.8502	-0.202
Mof_C 	C 	0.8933	0.501	0.7872	0.074
Mof_N 	N 	0.9419	0.467	0.7801	-0.205
Mof_C 	C 	0.9832	0.498	0.8362	0.009
Mof_C 	C 	0.9758	0.562	0.8992	-0.05
Mof_C 	C 	0.9271	0.596	0.9062	0.065
Mof_C 	C 	0.1677	0.294	0.829	0.53
Mof_C 	C 	0.0317	0.455	0.8333	0.019
Mof_N 	N 	0.0387	0.396	0.7664	-0.245
Mof_C 	C 	0.0841	0.346	0.7661	0.085
Mof_C 	C 	0.1225	0.353	0.8327	-0.206
Mof_C 	C 	0.1155	0.412	0.8996	0.053
Mof_C 	C 	0.0701	0.463	0.8999	-0.046
Mof_C 	C 	0.8267	0.884	0.039	0.478
Mof_C 	C 	0.8765	0.922	0.0218	-0.211
Mof_C 	C 	0.9025	0.986	0.0785	0.094
Mof_C 	C 	0.9515	0.016	0.0697	-0.317
Mof_C 	C 	0.9745	0.982	0.0041	0.071
Mof_C 	C 	0.8996	0.887	0.9563	0.124
Mof_C 	C 	0.6677	0.839	0.993	0.53
Mof_C 	C 	0.6181	0.892	0.0007	-0.252
Mof_C 	C 	0.6117	0.962	0.0599	0.144
Mof_C 	C 	0.5647	0.007	0.0595	-0.416
Mof_C 	C 	0.5242	0.983	-0	0.033
Mof_C 	C 	0.5775	0.867	0.9413	0.116
Mof_O 	O 	0.7507	0.761	0.833	-0.408
Mof_O 	O 	0.8253	0.643	0.9245	-0.614
Mof_O 	O 	0.1732	0.256	0.7686	-0.554
Mof_O 	O 	0.802	0.839	0.9816	-0.528
Mof_O 	O 	0.7987	0.58	0.8024	-0.63
Mof_O 	O 	0.8133	0.912	0.1087	-0.577
Mof_O 	O 	0.3206	0.393	0.2575	-0.632
Mof_O 	O 	0.7021	0.699	0.1886	-0.522
Mof_O 	O 	0.704	0.843	0.0577	-0.674
Mof_O 	O 	0.675	0.796	0.9338	-0.546
Mof_O 	O 	0.2036	0.298	0.8923	-0.669
Mof_O 	O 	0.6889	0.64	0.0608	-0.59
Mof_O 	O 	0.3054	0.399	0.1203	-0.608
Mof_Eu	Eu	0.75242	0.6512	0.68957	2.437
Mof_Eu	Eu	0.74943	0.692	0.97301	2.496
Mof_Cu	Cu	0.9858	0.077	0.1724	0.82
Mof_Cu	Cu	0.4723	0.9366	0.8795	0.85
Mof_Cu	Cu	0.5	0	0.5	0.834
Mof_Cu	Cu	0.5	0.5	-0	0.834
_end
