# CIF file generated by openbabel 3.1.0, see https://openbabel.org
data_I
_chemical_name_common 'NAPZOV_clean'
_cell_length_a 7.339
_cell_length_b 11.247
_cell_length_c 15.8458
_cell_angle_alpha 90
_cell_angle_beta 90
_cell_angle_gamma 90
_space_group_name_H-M_alt 'P 1'
_space_group_name_Hall 'P 1'
loop_
    _symmetry_equiv_pos_as_xyz
    x,y,z
loop_
    _atom_site_label
    _atom_site_type_symbol
    _atom_site_fract_x
    _atom_site_fract_y
    _atom_site_fract_z
    _atom_site_occupancy
    Cd1      Cd       0.46990    0.48930    0.22170    1.000
    Cd2      Cd       0.53010    0.98930    0.77830    1.000
    Cd3      Cd       0.96990    0.48930    0.27830    1.000
    Cd4      Cd       0.03010    0.98930    0.72170    1.000
    H1       H        0.35170    0.43530    0.49030    1.000
    H2       H        0.46200    0.24040    0.69530    1.000
    H3       H        0.81190    0.24520    0.50070    1.000
    H4       H        0.18480    0.34730    0.69180    1.000
    H5       H        0.09870    0.36350    0.60200    1.000
    H6       H        0.20380    0.46900    0.64450    1.000
    H7       H        0.64830    0.93530    0.50970    1.000
    H8       H        0.53800    0.74040    0.30470    1.000
    H9       H        0.18810    0.74520    0.49930    1.000
    H10      H        0.81520    0.84730    0.30820    1.000
    H11      H        0.90130    0.86350    0.39800    1.000
    H12      H        0.79620    0.96900    0.35550    1.000
    H13      H        0.85170    0.43530    0.00970    1.000
    H14      H        0.96200    0.24040    0.80470    1.000
    H15      H        0.31190    0.24520    0.99930    1.000
    H16      H        0.68480    0.34730    0.80820    1.000
    H17      H        0.59870    0.36350    0.89800    1.000
    H18      H        0.70380    0.46900    0.85550    1.000
    H19      H        0.14830    0.93530    0.99030    1.000
    H20      H        0.03800    0.74040    0.19530    1.000
    H21      H        0.68810    0.74520    0.00070    1.000
    H22      H        0.31520    0.84730    0.19180    1.000
    H23      H        0.40130    0.86350    0.10200    1.000
    H24      H        0.29620    0.96900    0.14450    1.000
    C1       C        0.64600    0.40020    0.39830    1.000
    C2       C        0.58800    0.35210    0.48220    1.000
    C3       C        0.42800    0.38350    0.51930    1.000
    C4       C        0.37100    0.34280    0.59860    1.000
    C5       C        0.49200    0.26640    0.64140    1.000
    C6       C        0.65100    0.22960    0.60730    1.000
    C7       C        0.70400    0.27090    0.52530    1.000
    C8       C        0.20000    0.38400    0.63760    1.000
    C9       C        0.78300    0.14210    0.64880    1.000
    C10      C        0.35400    0.90020    0.60170    1.000
    C11      C        0.41200    0.85210    0.51780    1.000
    C12      C        0.57200    0.88350    0.48070    1.000
    C13      C        0.62900    0.84280    0.40140    1.000
    C14      C        0.50800    0.76640    0.35860    1.000
    C15      C        0.34900    0.72960    0.39270    1.000
    C16      C        0.29600    0.77090    0.47470    1.000
    C17      C        0.80000    0.88400    0.36240    1.000
    C18      C        0.21700    0.64210    0.35120    1.000
    C19      C        0.14600    0.40020    0.10170    1.000
    C20      C        0.08800    0.35210    0.01780    1.000
    C21      C        0.92800    0.38350    0.98070    1.000
    C22      C        0.87100    0.34280    0.90140    1.000
    C23      C        0.99200    0.26640    0.85860    1.000
    C24      C        0.15100    0.22960    0.89270    1.000
    C25      C        0.20400    0.27090    0.97470    1.000
    C26      C        0.70000    0.38400    0.86240    1.000
    C27      C        0.28300    0.14210    0.85120    1.000
    C28      C        0.85400    0.90020    0.89830    1.000
    C29      C        0.91200    0.85210    0.98220    1.000
    C30      C        0.07200    0.88350    0.01930    1.000
    C31      C        0.12900    0.84280    0.09860    1.000
    C32      C        0.00800    0.76640    0.14140    1.000
    C33      C        0.84900    0.72960    0.10730    1.000
    C34      C        0.79600    0.77090    0.02530    1.000
    C35      C        0.30000    0.88400    0.13760    1.000
    C36      C        0.71700    0.64210    0.14880    1.000
    O1       O        0.52090    0.45500    0.35880    1.000
    O2       O        0.80850    0.39300    0.37800    1.000
    O3       O        0.74200    0.11240    0.72520    1.000
    O4       O        0.91850    0.10560    0.61400    1.000
    O5       O        0.47910    0.95500    0.64120    1.000
    O6       O        0.19150    0.89300    0.62200    1.000
    O7       O        0.25800    0.61240    0.27480    1.000
    O8       O        0.08150    0.60560    0.38600    1.000
    O9       O        0.02090    0.45500    0.14120    1.000
    O10      O        0.30850    0.39300    0.12200    1.000
    O11      O        0.24200    0.11240    0.77480    1.000
    O12      O        0.41850    0.10560    0.88600    1.000
    O13      O        0.97910    0.95500    0.85880    1.000
    O14      O        0.69150    0.89300    0.87800    1.000
    O15      O        0.75800    0.61240    0.22520    1.000
    O16      O        0.58150    0.60560    0.11400    1.000
