data_functionalizedCrystal
_audit_creation_method	'EQeq! by Chris Wilmer'
_symmetry_space_group_name_H-M	'P1'
_symmetry_Int_Tables_number	1
_symmetry_cell_setting	triclinic
loop_
_symmetry_equiv_pos_as_xyz
  x,y,z
_cell_length_a	17.124
_cell_length_b	17.124
_cell_length_c	5.3921
_cell_angle_alpha	90
_cell_angle_beta	90
_cell_angle_gamma	90
loop_
_atom_site_label
_atom_site_type_symbol
_atom_site_fract_x
_atom_site_fract_y
_atom_site_fract_z
_atom_site_charge
Mof_N 	N 	0.27801	0.36691	0.2552	-0.141
Mof_N 	N 	0.19234	0.33264	0.5386	-0.14
Mof_C 	C 	0.2645	0.32068	0.4484	0.094
Mof_C 	C 	0.2104	0.4104	0.2271	-0.006
Mof_H 	H 	0.2025	0.4482	0.1058	0.024
Mof_C 	C 	0.1581	0.3901	0.3995	0.007
Mof_H 	H 	0.1084	0.411	0.4208	0.021
Mof_C 	C 	0.1541	0.2884	0.7377	0.141
Mof_H 	H 	0.1385	0.3235	0.8699	0.016
Mof_H 	H 	0.1901	0.2503	0.8057	0.026
Mof_C 	C 	0.0829	0.2475	0.632	-0.495
Mof_H 	H 	0.0475	0.2865	0.5658	0.19
Mof_H 	H 	0.0993	0.2144	0.4956	0.196
Mof_C 	C 	0.04	0.1987	0.8174	0.557
Mof_O 	O 	0.9765	0.1696	0.7491	-0.367
Mof_O 	O 	0.0701	0.1904	0.0287	-0.593
Mof_H 	H 	0.0419	0.1628	0.1145	0.291
Mof_N 	N 	0.72199	0.63309	0.2552	-0.14
Mof_N 	N 	0.80766	0.66736	0.5386	-0.139
Mof_C 	C 	0.7355	0.67932	0.4484	0.094
Mof_C 	C 	0.7896	0.5896	0.2271	-0.006
Mof_H 	H 	0.7975	0.5518	0.1058	0.024
Mof_C 	C 	0.8419	0.6099	0.3995	0.007
Mof_H 	H 	0.8916	0.589	0.4208	0.021
Mof_C 	C 	0.8459	0.7116	0.7377	0.141
Mof_H 	H 	0.8615	0.6765	0.8699	0.016
Mof_H 	H 	0.8099	0.7497	0.8057	0.026
Mof_C 	C 	0.9171	0.7525	0.632	-0.495
Mof_H 	H 	0.9525	0.7135	0.5658	0.19
Mof_H 	H 	0.9007	0.7856	0.4956	0.196
Mof_C 	C 	0.96	0.8013	0.8174	0.557
Mof_O 	O 	0.0235	0.8304	0.7491	-0.367
Mof_O 	O 	0.9299	0.8096	0.0287	-0.593
Mof_H 	H 	0.9581	0.8372	0.1145	0.291
Mof_N 	N 	0.13309	0.77801	0.2552	-0.14
Mof_N 	N 	0.16736	0.69234	0.5386	-0.139
Mof_C 	C 	0.17932	0.7645	0.4484	0.094
Mof_C 	C 	0.0896	0.7104	0.2271	-0.006
Mof_H 	H 	0.0518	0.7025	0.1058	0.025
Mof_C 	C 	0.1099	0.6581	0.3995	0.007
Mof_H 	H 	0.089	0.6084	0.4208	0.021
Mof_C 	C 	0.2116	0.6541	0.7377	0.142
Mof_H 	H 	0.1765	0.6385	0.8699	0.016
Mof_H 	H 	0.2497	0.6901	0.8057	0.026
Mof_C 	C 	0.2525	0.5829	0.632	-0.498
Mof_H 	H 	0.2135	0.5475	0.5658	0.191
Mof_H 	H 	0.2856	0.5993	0.4956	0.197
Mof_C 	C 	0.3013	0.54	0.8174	0.561
Mof_O 	O 	0.3304	0.4765	0.7491	-0.369
Mof_O 	O 	0.3096	0.5701	0.0287	-0.594
Mof_H 	H 	0.3372	0.5419	0.1145	0.293
Mof_N 	N 	0.86691	0.22199	0.2552	-0.14
Mof_N 	N 	0.83264	0.30766	0.5386	-0.139
Mof_C 	C 	0.82068	0.2355	0.4484	0.094
Mof_C 	C 	0.9104	0.2896	0.2271	-0.006
Mof_H 	H 	0.9482	0.2975	0.1058	0.025
Mof_C 	C 	0.8901	0.3419	0.3995	0.007
Mof_H 	H 	0.911	0.3916	0.4208	0.021
Mof_C 	C 	0.7884	0.3459	0.7377	0.142
Mof_H 	H 	0.8235	0.3615	0.8699	0.016
Mof_H 	H 	0.7503	0.3099	0.8057	0.026
Mof_C 	C 	0.7475	0.4171	0.632	-0.498
Mof_H 	H 	0.7865	0.4525	0.5658	0.191
Mof_H 	H 	0.7144	0.4007	0.4956	0.197
Mof_C 	C 	0.6987	0.46	0.8174	0.561
Mof_O 	O 	0.6696	0.5235	0.7491	-0.369
Mof_O 	O 	0.6904	0.4299	0.0287	-0.594
Mof_H 	H 	0.6628	0.4581	0.1145	0.293
Mof_N 	N 	0.22199	0.86691	0.7448	-0.127
Mof_N 	N 	0.30766	0.83264	0.4614	-0.142
Mof_C 	C 	0.2355	0.82068	0.5516	0.094
Mof_C 	C 	0.2896	0.9104	0.7729	0
Mof_H 	H 	0.2975	0.9482	0.8942	0.047
Mof_C 	C 	0.3419	0.8901	0.6005	0.012
Mof_H 	H 	0.3916	0.911	0.5792	0.022
Mof_C 	C 	0.3459	0.7884	0.2623	0.137
Mof_H 	H 	0.3615	0.8235	0.1301	-0.008
Mof_H 	H 	0.3099	0.7503	0.1943	0.009
Mof_C 	C 	0.4171	0.7475	0.368	-0.46
Mof_H 	H 	0.4525	0.7865	0.4342	0.177
Mof_H 	H 	0.4007	0.7144	0.5044	0.188
Mof_C 	C 	0.46	0.6987	0.1826	0.457
Mof_O 	O 	0.5235	0.6696	0.2509	-0.36
Mof_O 	O 	0.4299	0.6904	0.9713	-0.494
Mof_H 	H 	0.4581	0.6628	0.8855	0.276
Mof_N 	N 	0.77801	0.13309	0.7448	-0.127
Mof_N 	N 	0.69234	0.16736	0.4614	-0.142
Mof_C 	C 	0.7645	0.17932	0.5516	0.094
Mof_C 	C 	0.7104	0.0896	0.7729	0
Mof_H 	H 	0.7025	0.0518	0.8942	0.047
Mof_C 	C 	0.6581	0.1099	0.6005	0.012
Mof_H 	H 	0.6084	0.089	0.5792	0.022
Mof_C 	C 	0.6541	0.2116	0.2623	0.137
Mof_H 	H 	0.6385	0.1765	0.1301	-0.008
Mof_H 	H 	0.6901	0.2497	0.1943	0.009
Mof_C 	C 	0.5829	0.2525	0.368	-0.46
Mof_H 	H 	0.5475	0.2135	0.4342	0.177
Mof_H 	H 	0.5993	0.2856	0.5044	0.188
Mof_C 	C 	0.54	0.3013	0.1826	0.457
Mof_O 	O 	0.4765	0.3304	0.2509	-0.36
Mof_O 	O 	0.5701	0.3096	0.9713	-0.494
Mof_H 	H 	0.5419	0.3372	0.8855	0.276
Mof_N 	N 	0.36691	0.27801	0.7448	-0.127
Mof_N 	N 	0.33264	0.19234	0.4614	-0.141
Mof_C 	C 	0.32068	0.2645	0.5516	0.094
Mof_C 	C 	0.4104	0.2104	0.7729	0
Mof_H 	H 	0.4482	0.2025	0.8942	0.047
Mof_C 	C 	0.3901	0.1581	0.6005	0.012
Mof_H 	H 	0.411	0.1084	0.5792	0.022
Mof_C 	C 	0.2884	0.1541	0.2623	0.136
Mof_H 	H 	0.3235	0.1385	0.1301	-0.008
Mof_H 	H 	0.2503	0.1901	0.1943	0.01
Mof_C 	C 	0.2475	0.0829	0.368	-0.458
Mof_H 	H 	0.2865	0.0475	0.4342	0.176
Mof_H 	H 	0.2144	0.0993	0.5044	0.187
Mof_C 	C 	0.1987	0.04	0.1826	0.454
Mof_O 	O 	0.1696	0.9765	0.2509	-0.358
Mof_O 	O 	0.1904	0.0701	0.9713	-0.493
Mof_H 	H 	0.1628	0.0419	0.8855	0.275
Mof_N 	N 	0.63309	0.72199	0.7448	-0.127
Mof_N 	N 	0.66736	0.80766	0.4614	-0.141
Mof_C 	C 	0.67932	0.7355	0.5516	0.094
Mof_C 	C 	0.5896	0.7896	0.7729	0
Mof_H 	H 	0.5518	0.7975	0.8942	0.047
Mof_C 	C 	0.6099	0.8419	0.6005	0.012
Mof_H 	H 	0.589	0.8916	0.5792	0.022
Mof_C 	C 	0.7116	0.8459	0.2623	0.136
Mof_H 	H 	0.6765	0.8615	0.1301	-0.008
Mof_H 	H 	0.7497	0.8099	0.1943	0.01
Mof_C 	C 	0.7525	0.9171	0.368	-0.458
Mof_H 	H 	0.7135	0.9525	0.4342	0.176
Mof_H 	H 	0.7856	0.9007	0.5044	0.187
Mof_C 	C 	0.8013	0.96	0.1826	0.454
Mof_O 	O 	0.8304	0.0235	0.2509	-0.358
Mof_O 	O 	0.8096	0.9299	0.9713	-0.493
Mof_H 	H 	0.8372	0.9581	0.8855	0.275
Mof_Cd	Cd	0.3847	0.3847	-0	0.347
Mof_Cd	Cd	0.6153	0.6153	-0	0.347
Mof_Cd	Cd	0.1153	0.8847	-0	0.348
Mof_Cd	Cd	0.8847	0.1153	-0	0.348
_end
