data_functionalizedCrystal
_audit_creation_method	'EQeq! by Chris Wilmer'
_symmetry_space_group_name_H-M	'P1'
_symmetry_Int_Tables_number	1
_symmetry_cell_setting	triclinic
loop_
_symmetry_equiv_pos_as_xyz
  x,y,z
_cell_length_a	8.5009
_cell_length_b	15.3652
_cell_length_c	13.374
_cell_angle_alpha	90
_cell_angle_beta	90
_cell_angle_gamma	90
loop_
_atom_site_label
_atom_site_type_symbol
_atom_site_fract_x
_atom_site_fract_y
_atom_site_fract_z
_atom_site_charge
Mof_Be	Be	0.5343	0.41127	0.39087	0.76
Mof_P 	P 	0.02744	0.09807	0.38781	0.431
Mof_H 	H 	0.1577	0.0902	0.3378	-0.019
Mof_P 	P 	0.2529	0.36865	0.27254	0.511
Mof_H 	H 	0.1669	0.4385	0.2606	-0.036
Mof_O 	O 	0.07181	0.12049	0.49494	-0.336
Mof_O 	O 	0.93683	0.01426	0.37758	-0.346
Mof_O 	O 	0.93716	0.17388	0.34073	-0.272
Mof_O 	O 	0.142	0.29438	0.29409	-0.353
Mof_O 	O 	0.34447	0.35553	0.17718	-0.358
Mof_O 	O 	0.35271	0.38425	0.36507	-0.355
Mof_Be	Be	0.9657	0.08873	0.89087	0.791
Mof_P 	P 	0.47256	0.40193	0.88781	0.504
Mof_H 	H 	0.3423	0.4098	0.8378	-0.029
Mof_P 	P 	0.2471	0.13135	0.77254	0.516
Mof_H 	H 	0.3331	0.0615	0.7606	-0.026
Mof_O 	O 	0.42819	0.37951	0.99494	-0.34
Mof_O 	O 	0.56317	0.48574	0.87758	-0.378
Mof_O 	O 	0.56284	0.32612	0.84073	-0.33
Mof_O 	O 	0.358	0.20562	0.79409	-0.356
Mof_O 	O 	0.15553	0.14447	0.67718	-0.362
Mof_O 	O 	0.14729	0.11575	0.86507	-0.38
Mof_Be	Be	0.4657	0.41127	0.10913	0.76
Mof_P 	P 	0.97256	0.09807	0.11219	0.571
Mof_H 	H 	0.8423	0.0902	0.1622	-0.026
Mof_P 	P 	0.7471	0.36865	0.22746	0.512
Mof_H 	H 	0.8331	0.4385	0.2394	-0.012
Mof_O 	O 	0.92819	0.12049	0.00506	-0.333
Mof_O 	O 	0.06317	0.01426	0.12242	-0.412
Mof_O 	O 	0.06284	0.17388	0.15927	-0.362
Mof_O 	O 	0.858	0.29438	0.20591	-0.318
Mof_O 	O 	0.65553	0.35553	0.32282	-0.351
Mof_O 	O 	0.64729	0.38425	0.13493	-0.347
Mof_Be	Be	0.0343	0.08873	0.60913	0.724
Mof_P 	P 	0.52744	0.40193	0.61219	0.504
Mof_H 	H 	0.6577	0.4098	0.6622	-0.019
Mof_P 	P 	0.7529	0.13135	0.72746	0.516
Mof_H 	H 	0.6669	0.0615	0.7394	-0.025
Mof_O 	O 	0.57181	0.37951	0.50506	-0.333
Mof_O 	O 	0.43683	0.48574	0.62242	-0.383
Mof_O 	O 	0.43716	0.32612	0.65927	-0.335
Mof_O 	O 	0.642	0.20562	0.70591	-0.349
Mof_O 	O 	0.84447	0.14447	0.82282	-0.351
Mof_O 	O 	0.85271	0.11575	0.63493	-0.323
Mof_Be	Be	0.4657	0.58873	0.60913	0.76
Mof_P 	P 	0.97256	0.90193	0.61219	0.57
Mof_H 	H 	0.8423	0.9098	0.6622	-0.027
Mof_P 	P 	0.7471	0.63135	0.72746	0.512
Mof_H 	H 	0.8331	0.5615	0.7394	-0.012
Mof_O 	O 	0.92819	0.87951	0.50506	-0.335
Mof_O 	O 	0.06317	0.98574	0.62242	-0.413
Mof_O 	O 	0.06284	0.82612	0.65927	-0.361
Mof_O 	O 	0.858	0.70562	0.70591	-0.319
Mof_O 	O 	0.65553	0.64447	0.82282	-0.351
Mof_O 	O 	0.64729	0.61575	0.63493	-0.347
Mof_Be	Be	0.0343	0.91127	0.10913	0.72
Mof_P 	P 	0.52744	0.59807	0.11219	0.504
Mof_H 	H 	0.6577	0.5902	0.1622	-0.019
Mof_P 	P 	0.7529	0.86865	0.22746	0.516
Mof_H 	H 	0.6669	0.9385	0.2394	-0.025
Mof_O 	O 	0.57181	0.62049	0.00506	-0.334
Mof_O 	O 	0.43683	0.51426	0.12242	-0.383
Mof_O 	O 	0.43716	0.67388	0.15927	-0.335
Mof_O 	O 	0.642	0.79438	0.20591	-0.349
Mof_O 	O 	0.84447	0.85553	0.32282	-0.35
Mof_O 	O 	0.85271	0.88425	0.13493	-0.323
Mof_Be	Be	0.5343	0.58873	0.89087	0.761
Mof_P 	P 	0.02744	0.90193	0.88781	0.434
Mof_H 	H 	0.1577	0.9098	0.8378	-0.018
Mof_P 	P 	0.2529	0.63135	0.77254	0.512
Mof_H 	H 	0.1669	0.5615	0.7606	-0.035
Mof_O 	O 	0.07181	0.87951	0.99494	-0.332
Mof_O 	O 	0.93683	0.98574	0.87758	-0.345
Mof_O 	O 	0.93716	0.82612	0.84073	-0.273
Mof_O 	O 	0.142	0.70562	0.79409	-0.353
Mof_O 	O 	0.34447	0.64447	0.67718	-0.358
Mof_O 	O 	0.35271	0.61575	0.86507	-0.354
Mof_Be	Be	0.9657	0.91127	0.39087	0.796
Mof_P 	P 	0.47256	0.59807	0.38781	0.504
Mof_H 	H 	0.3423	0.5902	0.3378	-0.029
Mof_P 	P 	0.2471	0.86865	0.27254	0.516
Mof_H 	H 	0.3331	0.9385	0.2606	-0.026
Mof_O 	O 	0.42819	0.62049	0.49494	-0.339
Mof_O 	O 	0.56317	0.51426	0.37758	-0.378
Mof_O 	O 	0.56284	0.67388	0.34073	-0.329
Mof_O 	O 	0.358	0.79438	0.29409	-0.356
Mof_O 	O 	0.15553	0.85553	0.17718	-0.362
Mof_O 	O 	0.14729	0.88425	0.36507	-0.38
Mof_Be	Be	1.47468e-33	0.2371	0.25	0.692
Mof_Be	Be	0.5	0.2629	0.75	0.757
Mof_Be	Be	1.88746e-32	0.7629	0.75	0.694
Mof_Be	Be	0.5	0.7371	0.25	0.757
_end
