data_functionalizedCrystal
_audit_creation_method	'EQeq! by Chris Wilmer'
_symmetry_space_group_name_H-M	'P1'
_symmetry_Int_Tables_number	1
_symmetry_cell_setting	triclinic
loop_
_symmetry_equiv_pos_as_xyz
  x,y,z
_cell_length_a	10.4839
_cell_length_b	11.84
_cell_length_c	14.034
_cell_angle_alpha	105.645
_cell_angle_beta	101.222
_cell_angle_gamma	112.358
loop_
_atom_site_label
_atom_site_type_symbol
_atom_site_fract_x
_atom_site_fract_y
_atom_site_fract_z
_atom_site_charge
Mof_Fe	Fe	0.81388	0.00651	0.78586	0.806
Mof_Fe	Fe	0.4478	0.72517	0.69138	0.819
Mof_N 	N 	0.04902	0.06856	0.841	-0.184
Mof_C 	C 	0.1111	0.10811	0.94487	0.098
Mof_H 	H 	0.0513	0.1043	0.9862	0.021
Mof_C 	C 	0.2596	0.15451	0.99427	-0.146
Mof_C 	C 	0.3493	0.159	0.93286	0.083
Mof_H 	H 	0.4498	0.1923	0.9633	0.03
Mof_C 	C 	0.1357	0.0692	0.78213	0.098
Mof_H 	H 	0.0939	0.0396	0.7097	0.005
Mof_C 	C 	0.2843	0.1119	0.82397	-0.149
Mof_H 	H 	0.3403	0.1093	0.7803	0.107
Mof_O 	O 	0.44759	0.25845	0.16001	-0.362
Mof_O 	O 	0.21583	0.14511	0.1508	-0.351
Mof_N 	N 	0.27412	0.74846	0.75216	-0.176
Mof_C 	C 	0.312	0.18928	0.11118	0.381
Mof_C 	C 	0.3055	0.79991	0.85627	0.086
Mof_H 	H 	0.4004	0.8292	0.8991	0.034
Mof_C 	C 	0.2044	0.81208	0.90405	-0.12
Mof_C 	C 	0.0639	0.77301	0.84083	0.058
Mof_H 	H 	0.9937	0.7802	0.8701	0.035
Mof_N 	N 	0.83664	0.16589	0.72951	-0.184
Mof_C 	C 	0.76	0.13734	0.63036	0.094
Mof_H 	H 	0.7047	0.0491	0.5856	0.029
Mof_C 	C 	0.9236	0.3948	0.75988	-0.149
Mof_H 	H 	0.9814	0.4822	0.8057	0.089
Mof_C 	C 	0.9173	0.2936	0.79299	0.093
Mof_H 	H 	0.9709	0.3148	0.8619	0.005
Mof_C 	C 	0.7595	0.23289	0.59158	-0.127
Mof_C 	C 	0.8435	0.3649	0.65822	0.072
Mof_H 	H 	0.8456	0.4317	0.6347	0.021
Mof_O 	O 	0.57459	0.9411	0.74247	-0.252
Mof_O 	O 	0.39677	0.3025	0.38165	-0.35
Mof_O 	O 	0.15885	0.87205	0.06435	-0.347
Mof_O 	O 	0.21066	0.11131	0.36027	-0.369
Mof_O 	O 	0.66502	0.28485	0.45179	-0.345
Mof_O 	O 	0.60069	0.07212	0.42347	-0.246
Mof_N 	N 	0.32698	0.51021	0.63441	-0.186
Mof_O 	O 	0.38789	0.91699	0.07018	-0.252
Mof_C 	C 	0.3347	0.43986	0.54515	0.103
Mof_H 	H 	0.3858	0.4853	0.5091	0.021
Mof_C 	C 	0.2549	0.87117	0.02246	0.341
Mof_C 	C 	0.295	0.23382	0.40689	0.385
Mof_C 	C 	0.1373	0.7106	0.69151	0.087
Mof_H 	H 	0.1132	0.6748	0.619	0.009
Mof_C 	C 	0.0307	0.7227	0.73231	-0.138
Mof_H 	H 	0.9381	0.6975	0.6878	0.089
Mof_C 	C 	0.6674	0.19203	0.47942	0.346
Mof_C 	C 	0.2708	0.30341	0.50364	-0.151
Mof_C 	C 	0.2515	0.4438	0.68472	0.102
Mof_H 	H 	0.2454	0.4911	0.7469	0
Mof_C 	C 	0.1904	0.2355	0.55567	0.085
Mof_H 	H 	0.1433	0.1437	0.5291	0.017
Mof_C 	C 	0.1819	0.3071	0.6477	-0.154
Mof_H 	H 	0.1298	0.264	0.6845	0.09
Mof_Fe	Fe	0.18612	0.99349	0.21414	0.805
Mof_Fe	Fe	0.5522	0.27483	0.30861	0.818
Mof_N 	N 	0.95098	0.93144	0.159	-0.184
Mof_C 	C 	0.8889	0.89189	0.05513	0.098
Mof_H 	H 	0.9487	0.8957	0.0138	0.021
Mof_C 	C 	0.7404	0.84549	0.00573	-0.146
Mof_C 	C 	0.6507	0.841	0.06714	0.083
Mof_H 	H 	0.5502	0.8077	0.0367	0.03
Mof_C 	C 	0.8643	0.9308	0.21787	0.098
Mof_H 	H 	0.9061	0.9604	0.2903	0.005
Mof_C 	C 	0.7157	0.8881	0.17603	-0.149
Mof_H 	H 	0.6597	0.8907	0.2197	0.107
Mof_O 	O 	0.55241	0.74155	0.83999	-0.362
Mof_O 	O 	0.78417	0.85489	0.8492	-0.351
Mof_N 	N 	0.72588	0.25154	0.24784	-0.176
Mof_C 	C 	0.688	0.81072	0.88882	0.381
Mof_C 	C 	0.6945	0.20009	0.14373	0.086
Mof_H 	H 	0.5996	0.1708	0.1009	0.034
Mof_C 	C 	0.7956	0.18792	0.09595	-0.12
Mof_C 	C 	0.9361	0.22699	0.15917	0.058
Mof_H 	H 	0.0063	0.2198	0.1299	0.035
Mof_N 	N 	0.16336	0.83411	0.27049	-0.184
Mof_C 	C 	0.24	0.86266	0.36964	0.094
Mof_H 	H 	0.2953	0.9509	0.4144	0.029
Mof_C 	C 	0.0764	0.6052	0.24012	-0.149
Mof_H 	H 	0.0186	0.5178	0.1943	0.089
Mof_C 	C 	0.0827	0.7064	0.20701	0.093
Mof_H 	H 	0.0291	0.6852	0.1381	0.005
Mof_C 	C 	0.2405	0.76711	0.40842	-0.127
Mof_C 	C 	0.1565	0.6351	0.34178	0.072
Mof_H 	H 	0.1544	0.5683	0.3653	0.021
Mof_O 	O 	0.42541	0.0589	0.25753	-0.252
Mof_O 	O 	0.60323	0.6975	0.61835	-0.35
Mof_O 	O 	0.84115	0.12795	0.93565	-0.347
Mof_O 	O 	0.78934	0.88869	0.63973	-0.369
Mof_O 	O 	0.33498	0.71515	0.54821	-0.345
Mof_O 	O 	0.39931	0.92788	0.57653	-0.246
Mof_N 	N 	0.67302	0.48979	0.36559	-0.186
Mof_O 	O 	0.61211	0.08301	0.92982	-0.252
Mof_C 	C 	0.6653	0.56014	0.45485	0.103
Mof_H 	H 	0.6142	0.5147	0.4909	0.021
Mof_C 	C 	0.7451	0.12883	0.97754	0.341
Mof_C 	C 	0.705	0.76618	0.59311	0.385
Mof_C 	C 	0.8627	0.2894	0.30849	0.087
Mof_H 	H 	0.8868	0.3252	0.381	0.009
Mof_C 	C 	0.9693	0.2773	0.26769	-0.138
Mof_H 	H 	0.0619	0.3025	0.3122	0.089
Mof_C 	C 	0.3326	0.80797	0.52058	0.346
Mof_C 	C 	0.7292	0.69659	0.49636	-0.151
Mof_C 	C 	0.7485	0.5562	0.31528	0.102
Mof_H 	H 	0.7546	0.5089	0.2531	0
Mof_C 	C 	0.8096	0.7645	0.44433	0.085
Mof_H 	H 	0.8567	0.8563	0.4709	0.017
Mof_C 	C 	0.8181	0.6929	0.3523	-0.154
Mof_H 	H 	0.8702	0.736	0.3155	0.09
_end
