# CIF file generated by openbabel 3.1.0, see https://openbabel.org
data_I
_chemical_name_common 'image0'
_cell_length_a 9.1671
_cell_length_b 15.52
_cell_length_c 22.199
_cell_angle_alpha 102.89
_cell_angle_beta 101.79
_cell_angle_gamma 104.14
_space_group_name_H-M_alt 'P 1'
_space_group_name_Hall 'P 1'
loop_
    _symmetry_equiv_pos_as_xyz
    x,y,z
loop_
    _atom_site_label
    _atom_site_type_symbol
    _atom_site_fract_x
    _atom_site_fract_y
    _atom_site_fract_z
    _atom_site_occupancy
    Ho1      Ho       0.51675    0.86169    0.80353    1.000
    Ho2      Ho       0.02993    0.91146    0.85606    1.000
    C1       C        0.17090    0.87620    0.72520    1.000
    C2       C        0.09030    0.87560    0.65950    1.000
    C3       C        0.92650    0.85130    0.63810    1.000
    H1       H        0.86750    0.83490    0.66560    1.000
    C4       C        0.85140    0.85100    0.57810    1.000
    H2       H        0.74270    0.83400    0.56530    1.000
    C5       C        0.93750    0.87620    0.53560    1.000
    C6       C        0.09520    0.89910    0.55610    1.000
    C7       C        0.17660    0.90120    0.61770    1.000
    H3       H        0.28540    0.91930    0.63040    1.000
    C8       C        0.70790    0.85040    0.45170    1.000
    H4       H        0.66730    0.78790    0.45320    1.000
    H5       H        0.66620    0.89050    0.47800    1.000
    H6       H        0.67820    0.85270    0.40820    1.000
    C9       C        0.21960    0.89720    0.40130    1.000
    C10      C        0.07560    0.88360    0.36140    1.000
    H7       H        0.98520    0.84970    0.36850    1.000
    C11      C        0.06720    0.92140    0.30980    1.000
    H8       H        0.96980    0.91590    0.28400    1.000
    C12      C        0.19720    0.96540    0.29680    1.000
    C13      C        0.34490    0.97740    0.33730    1.000
    H9       H        0.43580    0.00800    0.32880    1.000
    C14      C        0.35270    0.94250    0.39050    1.000
    H10      H        0.44920    0.95050    0.41810    1.000
    C15      C        0.19140    0.00580    0.23980    1.000
    C16      C        0.21280    0.74620    0.85580    1.000
    C17      C        0.18130    0.65360    0.86890    1.000
    C18      C        0.06010    0.62470    0.89620    1.000
    H11      H        0.00250    0.66470    0.90670    1.000
    C19      C        0.02240    0.54090    0.90800    1.000
    H12      H        0.94610    0.52540    0.92890    1.000
    C20      C        0.10250    0.47880    0.88740    1.000
    C21      C        0.22200    0.50520    0.86020    1.000
    H13      H        0.27640    0.46420    0.84750    1.000
    C22      C        0.26100    0.59250    0.85190    1.000
    H14      H        0.34340    0.61020    0.83430    1.000
    C23      C        0.26180    0.32950    0.98020    1.000
    C24      C        0.21190    0.26780    0.01180    1.000
    H15      H        0.11550    0.26120    0.02070    1.000
    C25      C        0.30360    0.21450    0.03110    1.000
    C26      C        0.44300    0.22350    0.01650    1.000
    H16      H        0.50300    0.18650    0.02830    1.000
    C27      C        0.49700    0.28560    0.98490    1.000
    H17      H        0.59270    0.29020    0.97580    1.000
    C28      C        0.40870    0.34250    0.96610    1.000
    C29      C        0.24250    0.15280    0.06920    1.000
    C30      C        0.59700    0.42220    0.92330    1.000
    H18      H        0.67360    0.46660    0.96050    1.000
    H19      H        0.62460    0.36570    0.91430    1.000
    H20      H        0.59420    0.44650    0.88710    1.000
    C31      C        0.70460    0.72960    0.79010    1.000
    C32      C        0.75430    0.64540    0.77310    1.000
    C33      C        0.67630    0.56450    0.78490    1.000
    H21      H        0.59580    0.56430    0.80460    1.000
    C34      C        0.71770    0.48480    0.76780    1.000
    C35      C        0.84080    0.48260    0.73810    1.000
    C36      C        0.91660    0.56280    0.72580    1.000
    H22      H        0.99680    0.56280    0.70600    1.000
    C37      C        0.87530    0.64310    0.74260    1.000
    H23      H        0.92750    0.69620    0.73360    1.000
    C38      C        0.98990    0.39580    0.69380    1.000
    H24      H        0.96130    0.41060    0.65410    1.000
    H25      H        0.08880    0.43880    0.71990    1.000
    H26      H        0.99800    0.33390    0.68480    1.000
    C39      C        0.44860    0.25190    0.76500    1.000
    C40      C        0.32590    0.23450    0.79140    1.000
    H27      H        0.25660    0.26930    0.78960    1.000
    C41      C        0.30580    0.16320    0.82120    1.000
    H28      H        0.22180    0.14930    0.83860    1.000
    C42      C        0.41150    0.11470    0.82440    1.000
    C43      C        0.53000    0.13000    0.79500    1.000
    H29      H        0.59540    0.09270    0.79500    1.000
    C44      C        0.55390    0.20090    0.76520    1.000
    H30      H        0.63580    0.21320    0.74640    1.000
    C45      C        0.39100    0.03860    0.85540    1.000
    O1       O        0.08970    0.85780    0.76250    1.000
    O2       O        0.31640    0.89230    0.73800    1.000
    O3       O        0.87780    0.88070    0.47550    1.000
    O4       O        0.18820    0.92930    0.51620    1.000
    O5       O        0.10830    0.76610    0.45250    1.000
    O6       O        0.38660    0.85550    0.49410    1.000
    O7       O        0.05980    0.00420    0.21010    1.000
    O8       O        0.31640    0.03630    0.22750    1.000
    O9       O        0.13830    0.79950    0.87650    1.000
    O10      O        0.31480    0.76610    0.82710    1.000
    O11      O        0.90360    0.34930    0.91390    1.000
    O12      O        0.08030    0.30210    0.85370    1.000
    O13      O        0.18170    0.39320    0.96860    1.000
    O14      O        0.49890    0.00070    0.86450    1.000
    O15      O        0.26880    0.01610    0.87300    1.000
    O16      O        0.10860    0.14290    0.07600    1.000
    O17      O        0.33360    0.11260    0.09420    1.000
    O18      O        0.36440    0.38980    0.73720    1.000
    O19      O        0.64130    0.40500    0.78170    1.000
    O20      O        0.57290    0.71970    0.80040    1.000
    O21      O        0.44810    0.40390    0.93510    1.000
    O22      O        0.78980    0.80600    0.79060    1.000
    O23      O        0.87360    0.40160    0.72690    1.000
    O24      O        0.50430    0.31640    0.66960    1.000
    S1       S        0.22970    0.85080    0.46788    1.000
    S2       S        0.05300    0.36940    0.90081    1.000
    S3       S        0.47850    0.34350    0.73025    1.000
    Ho3      Ho       0.48325    0.13831    0.19647    1.000
    Ho4      Ho       0.97007    0.08854    0.14394    1.000
    C46      C        0.82910    0.12380    0.27480    1.000
    C47      C        0.90970    0.12440    0.34050    1.000
    C48      C        0.07350    0.14870    0.36190    1.000
    H31      H        0.13250    0.16510    0.33440    1.000
    C49      C        0.14860    0.14900    0.42190    1.000
    H32      H        0.25730    0.16600    0.43470    1.000
    C50      C        0.06250    0.12380    0.46440    1.000
    C51      C        0.90480    0.10090    0.44390    1.000
    C52      C        0.82340    0.09880    0.38230    1.000
    H33      H        0.71460    0.08070    0.36960    1.000
    C53      C        0.29210    0.14960    0.54830    1.000
    H34      H        0.33270    0.21210    0.54680    1.000
    H35      H        0.33380    0.10950    0.52200    1.000
    H36      H        0.32180    0.14730    0.59180    1.000
    C54      C        0.78040    0.10280    0.59870    1.000
    C55      C        0.92440    0.11640    0.63860    1.000
    H37      H        0.01480    0.15030    0.63150    1.000
    C56      C        0.93280    0.07860    0.69020    1.000
    H38      H        0.03020    0.08410    0.71600    1.000
    C57      C        0.80280    0.03460    0.70320    1.000
    C58      C        0.65510    0.02260    0.66270    1.000
    H39      H        0.56420    0.99200    0.67120    1.000
    C59      C        0.64730    0.05750    0.60950    1.000
    H40      H        0.55080    0.04950    0.58190    1.000
    C60      C        0.80860    0.99420    0.76020    1.000
    C61      C        0.78720    0.25380    0.14420    1.000
    C62      C        0.81870    0.34640    0.13110    1.000
    C63      C        0.93990    0.37530    0.10380    1.000
    H41      H        0.99750    0.33530    0.09330    1.000
    C64      C        0.97760    0.45910    0.09200    1.000
    H42      H        0.05390    0.47460    0.07110    1.000
    C65      C        0.89750    0.52120    0.11260    1.000
    C66      C        0.77800    0.49480    0.13980    1.000
    H43      H        0.72360    0.53580    0.15250    1.000
    C67      C        0.73900    0.40750    0.14810    1.000
    H44      H        0.65660    0.38980    0.16570    1.000
    C68      C        0.73820    0.67050    0.01980    1.000
    C69      C        0.78810    0.73220    0.98820    1.000
    H45      H        0.88450    0.73880    0.97930    1.000
    C70      C        0.69640    0.78550    0.96890    1.000
    C71      C        0.55700    0.77650    0.98350    1.000
    H46      H        0.49700    0.81350    0.97170    1.000
    C72      C        0.50300    0.71440    0.01510    1.000
    H47      H        0.40730    0.70980    0.02420    1.000
    C73      C        0.59130    0.65750    0.03390    1.000
    C74      C        0.75750    0.84720    0.93080    1.000
    C75      C        0.40300    0.57780    0.07670    1.000
    H48      H        0.32640    0.53340    0.03950    1.000
    H49      H        0.37540    0.63430    0.08570    1.000
    H50      H        0.40580    0.55350    0.11290    1.000
    C76      C        0.29540    0.27040    0.20990    1.000
    C77      C        0.24570    0.35460    0.22690    1.000
    C78      C        0.32370    0.43550    0.21510    1.000
    H51      H        0.40420    0.43570    0.19540    1.000
    C79      C        0.28230    0.51520    0.23220    1.000
    C80      C        0.15920    0.51740    0.26190    1.000
    C81      C        0.08340    0.43720    0.27420    1.000
    H52      H        0.00320    0.43720    0.29400    1.000
    C82      C        0.12470    0.35690    0.25740    1.000
    H53      H        0.07250    0.30380    0.26640    1.000
    C83      C        0.01010    0.60420    0.30620    1.000
    H54      H        0.03870    0.58940    0.34590    1.000
    H55      H        0.91120    0.56120    0.28010    1.000
    H56      H        0.00200    0.66610    0.31520    1.000
    C84      C        0.55140    0.74810    0.23500    1.000
    C85      C        0.67410    0.76550    0.20860    1.000
    H57      H        0.74340    0.73070    0.21040    1.000
    C86      C        0.69420    0.83680    0.17880    1.000
    H58      H        0.77820    0.85070    0.16140    1.000
    C87      C        0.58850    0.88530    0.17560    1.000
    C88      C        0.47000    0.87000    0.20500    1.000
    H59      H        0.40460    0.90730    0.20500    1.000
    C89      C        0.44610    0.79910    0.23480    1.000
    H60      H        0.36420    0.78680    0.25360    1.000
    C90      C        0.60900    0.96140    0.14460    1.000
    O25      O        0.91030    0.14220    0.23750    1.000
    O26      O        0.68360    0.10770    0.26200    1.000
    O27      O        0.12220    0.11930    0.52450    1.000
    O28      O        0.81180    0.07070    0.48380    1.000
    O29      O        0.89170    0.23390    0.54750    1.000
    O30      O        0.61340    0.14450    0.50590    1.000
    O31      O        0.94020    0.99580    0.78990    1.000
    O32      O        0.68360    0.96370    0.77250    1.000
    O33      O        0.86170    0.20050    0.12350    1.000
    O34      O        0.68520    0.23390    0.17290    1.000
    O35      O        0.09640    0.65070    0.08610    1.000
    O36      O        0.91970    0.69790    0.14630    1.000
    O37      O        0.81830    0.60680    0.03140    1.000
    O38      O        0.50110    0.99930    0.13550    1.000
    O39      O        0.73120    0.98390    0.12700    1.000
    O40      O        0.89140    0.85710    0.92400    1.000
    O41      O        0.66640    0.88740    0.90580    1.000
    O42      O        0.63560    0.61020    0.26280    1.000
    O43      O        0.35870    0.59500    0.21830    1.000
    O44      O        0.42710    0.28030    0.19960    1.000
    O45      O        0.55190    0.59610    0.06490    1.000
    O46      O        0.21020    0.19400    0.20940    1.000
    O47      O        0.12640    0.59840    0.27310    1.000
    O48      O        0.49570    0.68360    0.33040    1.000
    S4       S        0.77030    0.14920    0.53212    1.000
    S5       S        0.94700    0.63060    0.09919    1.000
    S6       S        0.52150    0.65650    0.26975    1.000
