data_functionalizedCrystal
_audit_creation_method	'EQeq! by Chris Wilmer'
_symmetry_space_group_name_H-M	'P1'
_symmetry_Int_Tables_number	1
_symmetry_cell_setting	triclinic
loop_
_symmetry_equiv_pos_as_xyz
  x,y,z
_cell_length_a	12.284
_cell_length_b	22.733
_cell_length_c	34.4
_cell_angle_alpha	90
_cell_angle_beta	90
_cell_angle_gamma	90
loop_
_atom_site_label
_atom_site_type_symbol
_atom_site_fract_x
_atom_site_fract_y
_atom_site_fract_z
_atom_site_charge
Mof_Zn	Zn	0.99285	0.57511	0.7519	1.242
Mof_N 	N 	0.0626	0.4898	0.7492	-0.225
Mof_N 	N 	0.1388	0.4001	0.74546	-0.22
Mof_O 	O 	0.937	0.5412	0.80313	-0.475
Mof_O 	O 	0.938	0.4634	0.84169	-0.511
Mof_C 	C 	0.127	0.4526	0.729	0.134
Mof_O 	O 	0.0187	0.3461	0.83361	-0.56
Mof_O 	O 	0.1526	0.3124	0.79677	-0.473
Mof_C 	C 	0.0769	0.4025	0.77909	-0.099
Mof_C 	C 	0.0302	0.4575	0.78092	-0.073
Mof_C 	C 	0.1835	0.4688	0.6926	-0.092
Mof_N 	N 	0.2927	0.4388	0.63792	-0.291
Mof_C 	C 	0.0798	0.3512	0.80538	0.42
Mof_C 	C 	0.2545	0.5399	0.6479	-0.111
Mof_H 	H 	0.263	0.5786	0.6396	0.068
Mof_C 	C 	0.1949	0.5272	0.6809	0.021
Mof_H 	H 	0.1628	0.5573	0.6951	0.015
Mof_C 	C 	0.3009	0.4945	0.6274	0.062
Mof_H 	H 	0.3401	0.5034	0.605	-0.018
Mof_C 	C 	0.9625	0.4877	0.8108	0.388
Mof_C 	C 	0.2333	0.4258	0.6697	0.04
Mof_H 	H 	0.2251	0.3866	0.6767	-0.028
Mof_Zn	Zn	0.99285	0.07511	0.2519	1.242
Mof_N 	N 	0.0626	0.9898	0.2492	-0.225
Mof_N 	N 	0.1388	0.9001	0.24546	-0.22
Mof_O 	O 	0.937	0.0412	0.30313	-0.473
Mof_O 	O 	0.938	0.9634	0.34169	-0.511
Mof_C 	C 	0.127	0.9526	0.229	0.134
Mof_O 	O 	0.0187	0.8461	0.33361	-0.56
Mof_O 	O 	0.1526	0.8124	0.29677	-0.473
Mof_C 	C 	0.0769	0.9025	0.27909	-0.099
Mof_C 	C 	0.0302	0.9575	0.28092	-0.072
Mof_C 	C 	0.1835	0.9688	0.1926	-0.091
Mof_N 	N 	0.2927	0.9388	0.13792	-0.29
Mof_C 	C 	0.0798	0.8512	0.30538	0.421
Mof_C 	C 	0.2545	0.0399	0.1479	-0.11
Mof_H 	H 	0.263	0.0786	0.1396	0.069
Mof_C 	C 	0.1949	0.0272	0.1809	0.021
Mof_H 	H 	0.1628	0.0573	0.1951	0.016
Mof_C 	C 	0.3009	0.9945	0.1274	0.063
Mof_H 	H 	0.3401	0.0034	0.105	-0.018
Mof_C 	C 	0.9625	0.9877	0.3108	0.387
Mof_C 	C 	0.2333	0.9258	0.1697	0.04
Mof_H 	H 	0.2251	0.8866	0.1767	-0.027
Mof_Zn	Zn	0.49285	0.57511	0.2519	1.243
Mof_N 	N 	0.5626	0.4898	0.2492	-0.224
Mof_N 	N 	0.6388	0.4001	0.24546	-0.219
Mof_O 	O 	0.437	0.5412	0.30313	-0.474
Mof_O 	O 	0.438	0.4634	0.34169	-0.51
Mof_C 	C 	0.627	0.4526	0.229	0.135
Mof_O 	O 	0.5187	0.3461	0.33361	-0.559
Mof_O 	O 	0.6526	0.3124	0.29677	-0.472
Mof_C 	C 	0.5769	0.4025	0.27909	-0.098
Mof_C 	C 	0.5302	0.4575	0.28092	-0.073
Mof_C 	C 	0.6835	0.4688	0.1926	-0.091
Mof_N 	N 	0.7927	0.4388	0.13792	-0.29
Mof_C 	C 	0.5798	0.3512	0.30538	0.421
Mof_C 	C 	0.7545	0.5399	0.1479	-0.11
Mof_H 	H 	0.763	0.5786	0.1396	0.069
Mof_C 	C 	0.6949	0.5272	0.1809	0.022
Mof_H 	H 	0.6628	0.5573	0.1951	0.016
Mof_C 	C 	0.8009	0.4945	0.1274	0.063
Mof_H 	H 	0.8401	0.5034	0.105	-0.017
Mof_C 	C 	0.4625	0.4877	0.3108	0.389
Mof_C 	C 	0.7333	0.4258	0.1697	0.041
Mof_H 	H 	0.7251	0.3866	0.1767	-0.027
Mof_Zn	Zn	0.49285	0.07511	0.7519	1.243
Mof_N 	N 	0.5626	0.9898	0.7492	-0.224
Mof_N 	N 	0.6388	0.9001	0.74546	-0.219
Mof_O 	O 	0.437	0.0412	0.80313	-0.474
Mof_O 	O 	0.438	0.9634	0.84169	-0.51
Mof_C 	C 	0.627	0.9526	0.729	0.135
Mof_O 	O 	0.5187	0.8461	0.83361	-0.559
Mof_O 	O 	0.6526	0.8124	0.79677	-0.472
Mof_C 	C 	0.5769	0.9025	0.77909	-0.098
Mof_C 	C 	0.5302	0.9575	0.78092	-0.073
Mof_C 	C 	0.6835	0.9688	0.6926	-0.091
Mof_N 	N 	0.7927	0.9388	0.63792	-0.29
Mof_C 	C 	0.5798	0.8512	0.80538	0.421
Mof_C 	C 	0.7545	0.0399	0.6479	-0.107
Mof_H 	H 	0.763	0.0786	0.6396	0.068
Mof_C 	C 	0.6949	0.0272	0.6809	0.021
Mof_H 	H 	0.6628	0.0573	0.6951	0.016
Mof_C 	C 	0.8009	0.9945	0.6274	0.06
Mof_H 	H 	0.8401	0.0034	0.605	-0.016
Mof_C 	C 	0.4625	0.9877	0.8108	0.389
Mof_C 	C 	0.7333	0.9258	0.6697	0.04
Mof_H 	H 	0.7251	0.8866	0.6767	-0.027
Mof_Zn	Zn	0.75715	0.17489	0.7519	1.243
Mof_N 	N 	0.6874	0.2602	0.7492	-0.224
Mof_N 	N 	0.6112	0.3499	0.74546	-0.219
Mof_O 	O 	0.813	0.2088	0.80313	-0.474
Mof_O 	O 	0.812	0.2866	0.84169	-0.51
Mof_C 	C 	0.623	0.2974	0.729	0.135
Mof_O 	O 	0.7313	0.4039	0.83361	-0.559
Mof_O 	O 	0.5974	0.4376	0.79677	-0.472
Mof_C 	C 	0.6731	0.3475	0.77909	-0.098
Mof_C 	C 	0.7198	0.2925	0.78092	-0.073
Mof_C 	C 	0.5665	0.2812	0.6926	-0.091
Mof_N 	N 	0.4573	0.3112	0.63792	-0.29
Mof_C 	C 	0.6702	0.3988	0.80538	0.421
Mof_C 	C 	0.4955	0.2101	0.6479	-0.11
Mof_H 	H 	0.487	0.1714	0.6396	0.069
Mof_C 	C 	0.5551	0.2228	0.6809	0.022
Mof_H 	H 	0.5872	0.1927	0.6951	0.016
Mof_C 	C 	0.4491	0.2555	0.6274	0.063
Mof_H 	H 	0.4099	0.2466	0.605	-0.017
Mof_C 	C 	0.7875	0.2623	0.8108	0.389
Mof_C 	C 	0.5167	0.3242	0.6697	0.041
Mof_H 	H 	0.5249	0.3634	0.6767	-0.027
Mof_Zn	Zn	0.75715	0.67489	0.2519	1.243
Mof_N 	N 	0.6874	0.7602	0.2492	-0.224
Mof_N 	N 	0.6112	0.8499	0.24546	-0.219
Mof_O 	O 	0.813	0.7088	0.30313	-0.474
Mof_O 	O 	0.812	0.7866	0.34169	-0.51
Mof_C 	C 	0.623	0.7974	0.229	0.135
Mof_O 	O 	0.7313	0.9039	0.33361	-0.559
Mof_O 	O 	0.5974	0.9376	0.29677	-0.472
Mof_C 	C 	0.6731	0.8475	0.27909	-0.098
Mof_C 	C 	0.7198	0.7925	0.28092	-0.073
Mof_C 	C 	0.5665	0.7812	0.1926	-0.091
Mof_N 	N 	0.4573	0.8112	0.13792	-0.29
Mof_C 	C 	0.6702	0.8988	0.30538	0.421
Mof_C 	C 	0.4955	0.7101	0.1479	-0.11
Mof_H 	H 	0.487	0.6714	0.1396	0.069
Mof_C 	C 	0.5551	0.7228	0.1809	0.022
Mof_H 	H 	0.5872	0.6927	0.1951	0.016
Mof_C 	C 	0.4491	0.7555	0.1274	0.063
Mof_H 	H 	0.4099	0.7466	0.105	-0.017
Mof_C 	C 	0.7875	0.7623	0.3108	0.389
Mof_C 	C 	0.5167	0.8242	0.1697	0.041
Mof_H 	H 	0.5249	0.8634	0.1767	-0.027
Mof_Zn	Zn	0.25715	0.17489	0.2519	1.243
Mof_N 	N 	0.1874	0.2602	0.2492	-0.224
Mof_N 	N 	0.1112	0.3499	0.24546	-0.219
Mof_O 	O 	0.313	0.2088	0.30313	-0.474
Mof_O 	O 	0.312	0.2866	0.34169	-0.51
Mof_C 	C 	0.123	0.2974	0.229	0.135
Mof_O 	O 	0.2313	0.4039	0.33361	-0.559
Mof_O 	O 	0.0974	0.4376	0.29677	-0.472
Mof_C 	C 	0.1731	0.3475	0.27909	-0.098
Mof_C 	C 	0.2198	0.2925	0.28092	-0.073
Mof_C 	C 	0.0665	0.2812	0.1926	-0.09
Mof_N 	N 	0.9573	0.3112	0.13792	-0.289
Mof_C 	C 	0.1702	0.3988	0.30538	0.421
Mof_C 	C 	0.9955	0.2101	0.1479	-0.107
Mof_H 	H 	0.987	0.1714	0.1396	0.068
Mof_C 	C 	0.0551	0.2228	0.1809	0.019
Mof_H 	H 	0.0872	0.1927	0.1951	0.016
Mof_C 	C 	0.9491	0.2555	0.1274	0.062
Mof_H 	H 	0.9099	0.2466	0.105	-0.017
Mof_C 	C 	0.2875	0.2623	0.3108	0.389
Mof_C 	C 	0.0167	0.3242	0.1697	0.039
Mof_H 	H 	0.0249	0.3634	0.1767	-0.026
Mof_Zn	Zn	0.25715	0.67489	0.7519	1.243
Mof_N 	N 	0.1874	0.7602	0.7492	-0.224
Mof_N 	N 	0.1112	0.8499	0.74546	-0.219
Mof_O 	O 	0.313	0.7088	0.80313	-0.474
Mof_O 	O 	0.312	0.7866	0.84169	-0.51
Mof_C 	C 	0.123	0.7974	0.729	0.136
Mof_O 	O 	0.2313	0.9039	0.83361	-0.559
Mof_O 	O 	0.0974	0.9376	0.79677	-0.472
Mof_C 	C 	0.1731	0.8475	0.77909	-0.098
Mof_C 	C 	0.2198	0.7925	0.78092	-0.073
Mof_C 	C 	0.0665	0.7812	0.6926	-0.093
Mof_N 	N 	0.9573	0.8112	0.63792	-0.291
Mof_C 	C 	0.1702	0.8988	0.80538	0.421
Mof_C 	C 	0.9955	0.7101	0.6479	-0.112
Mof_H 	H 	0.987	0.6714	0.6396	0.069
Mof_C 	C 	0.0551	0.7228	0.6809	0.024
Mof_H 	H 	0.0872	0.6927	0.6951	0.015
Mof_C 	C 	0.9491	0.7555	0.6274	0.064
Mof_H 	H 	0.9099	0.7466	0.605	-0.018
Mof_C 	C 	0.2875	0.7623	0.8108	0.389
Mof_C 	C 	0.0167	0.8242	0.6697	0.042
Mof_H 	H 	0.0249	0.8634	0.6767	-0.027
Mof_Zn	Zn	0.75715	0.57511	0.9981	1.243
Mof_N 	N 	0.6874	0.4898	0.0008	-0.224
Mof_N 	N 	0.6112	0.4001	0.00454	-0.219
Mof_O 	O 	0.813	0.5412	0.94687	-0.474
Mof_O 	O 	0.812	0.4634	0.90831	-0.51
Mof_C 	C 	0.623	0.4526	0.021	0.135
Mof_O 	O 	0.7313	0.3461	0.91639	-0.559
Mof_O 	O 	0.5974	0.3124	0.95323	-0.472
Mof_C 	C 	0.6731	0.4025	0.97091	-0.098
Mof_C 	C 	0.7198	0.4575	0.96908	-0.073
Mof_C 	C 	0.5665	0.4688	0.0574	-0.091
Mof_N 	N 	0.4573	0.4388	0.11208	-0.29
Mof_C 	C 	0.6702	0.3512	0.94462	0.421
Mof_C 	C 	0.4955	0.5399	0.1021	-0.11
Mof_H 	H 	0.487	0.5786	0.1104	0.069
Mof_C 	C 	0.5551	0.5272	0.0691	0.022
Mof_H 	H 	0.5872	0.5573	0.0549	0.016
Mof_C 	C 	0.4491	0.4945	0.1226	0.063
Mof_H 	H 	0.4099	0.5034	0.145	-0.017
Mof_C 	C 	0.7875	0.4877	0.9392	0.389
Mof_C 	C 	0.5167	0.4258	0.0803	0.041
Mof_H 	H 	0.5249	0.3866	0.0733	-0.027
Mof_Zn	Zn	0.75715	0.07511	0.4981	1.243
Mof_N 	N 	0.6874	0.9898	0.5008	-0.224
Mof_N 	N 	0.6112	0.9001	0.50454	-0.219
Mof_O 	O 	0.813	0.0412	0.44687	-0.473
Mof_O 	O 	0.812	0.9634	0.40831	-0.51
Mof_C 	C 	0.623	0.9526	0.521	0.135
Mof_O 	O 	0.7313	0.8461	0.41639	-0.559
Mof_O 	O 	0.5974	0.8124	0.45323	-0.472
Mof_C 	C 	0.6731	0.9025	0.47091	-0.098
Mof_C 	C 	0.7198	0.9575	0.46908	-0.073
Mof_C 	C 	0.5665	0.9688	0.5574	-0.092
Mof_N 	N 	0.4573	0.9388	0.61208	-0.29
Mof_C 	C 	0.6702	0.8512	0.44462	0.421
Mof_C 	C 	0.4955	0.0399	0.6021	-0.111
Mof_H 	H 	0.487	0.0786	0.6104	0.069
Mof_C 	C 	0.5551	0.0272	0.5691	0.022
Mof_H 	H 	0.5872	0.0573	0.5549	0.015
Mof_C 	C 	0.4491	0.9945	0.6226	0.064
Mof_H 	H 	0.4099	0.0034	0.645	-0.018
Mof_C 	C 	0.7875	0.9877	0.4392	0.388
Mof_C 	C 	0.5167	0.9258	0.5803	0.041
Mof_H 	H 	0.5249	0.8866	0.5733	-0.027
Mof_Zn	Zn	0.25715	0.57511	0.4981	1.243
Mof_N 	N 	0.1874	0.4898	0.5008	-0.224
Mof_N 	N 	0.1112	0.4001	0.50454	-0.219
Mof_O 	O 	0.313	0.5412	0.44687	-0.474
Mof_O 	O 	0.312	0.4634	0.40831	-0.51
Mof_C 	C 	0.123	0.4526	0.521	0.135
Mof_O 	O 	0.2313	0.3461	0.41639	-0.559
Mof_O 	O 	0.0974	0.3124	0.45323	-0.472
Mof_C 	C 	0.1731	0.4025	0.47091	-0.098
Mof_C 	C 	0.2198	0.4575	0.46908	-0.073
Mof_C 	C 	0.0665	0.4688	0.5574	-0.092
Mof_N 	N 	0.9573	0.4388	0.61208	-0.29
Mof_C 	C 	0.1702	0.3512	0.44462	0.421
Mof_C 	C 	0.9955	0.5399	0.6021	-0.111
Mof_H 	H 	0.987	0.5786	0.6104	0.069
Mof_C 	C 	0.0551	0.5272	0.5691	0.023
Mof_H 	H 	0.0872	0.5573	0.5549	0.015
Mof_C 	C 	0.9491	0.4945	0.6226	0.063
Mof_H 	H 	0.9099	0.5034	0.645	-0.018
Mof_C 	C 	0.2875	0.4877	0.4392	0.389
Mof_C 	C 	0.0167	0.4258	0.5803	0.041
Mof_H 	H 	0.0249	0.3866	0.5733	-0.027
Mof_Zn	Zn	0.25715	0.07511	0.9981	1.243
Mof_N 	N 	0.1874	0.9898	0.0008	-0.224
Mof_N 	N 	0.1112	0.9001	0.00454	-0.219
Mof_O 	O 	0.313	0.0412	0.94687	-0.474
Mof_O 	O 	0.312	0.9634	0.90831	-0.51
Mof_C 	C 	0.123	0.9526	0.021	0.134
Mof_O 	O 	0.2313	0.8461	0.91639	-0.559
Mof_O 	O 	0.0974	0.8124	0.95323	-0.471
Mof_C 	C 	0.1731	0.9025	0.97091	-0.097
Mof_C 	C 	0.2198	0.9575	0.96908	-0.072
Mof_C 	C 	0.0665	0.9688	0.0574	-0.087
Mof_N 	N 	0.9573	0.9388	0.11208	-0.288
Mof_C 	C 	0.1702	0.8512	0.94462	0.421
Mof_C 	C 	0.9955	0.0399	0.1021	-0.099
Mof_H 	H 	0.987	0.0786	0.1104	0.065
Mof_C 	C 	0.0551	0.0272	0.0691	0.013
Mof_H 	H 	0.0872	0.0573	0.0549	0.018
Mof_C 	C 	0.9491	0.9945	0.1226	0.054
Mof_H 	H 	0.9099	0.0034	0.145	-0.014
Mof_C 	C 	0.2875	0.9877	0.9392	0.39
Mof_C 	C 	0.0167	0.9258	0.0803	0.039
Mof_H 	H 	0.0249	0.8866	0.0733	-0.026
Mof_Zn	Zn	0.99285	0.17489	0.9981	1.243
Mof_N 	N 	0.0626	0.2602	0.0008	-0.224
Mof_N 	N 	0.1388	0.3499	0.00454	-0.219
Mof_O 	O 	0.937	0.2088	0.94687	-0.474
Mof_O 	O 	0.938	0.2866	0.90831	-0.51
Mof_C 	C 	0.127	0.2974	0.021	0.135
Mof_O 	O 	0.0187	0.4039	0.91639	-0.559
Mof_O 	O 	0.1526	0.4376	0.95323	-0.472
Mof_C 	C 	0.0769	0.3475	0.97091	-0.098
Mof_C 	C 	0.0302	0.2925	0.96908	-0.072
Mof_C 	C 	0.1835	0.2812	0.0574	-0.092
Mof_N 	N 	0.2927	0.3112	0.11208	-0.29
Mof_C 	C 	0.0798	0.3988	0.94462	0.421
Mof_C 	C 	0.2545	0.2101	0.1021	-0.11
Mof_H 	H 	0.263	0.1714	0.1104	0.069
Mof_C 	C 	0.1949	0.2228	0.0691	0.022
Mof_H 	H 	0.1628	0.1927	0.0549	0.015
Mof_C 	C 	0.3009	0.2555	0.1226	0.063
Mof_H 	H 	0.3401	0.2466	0.145	-0.017
Mof_C 	C 	0.9625	0.2623	0.9392	0.389
Mof_C 	C 	0.2333	0.3242	0.0803	0.041
Mof_H 	H 	0.2251	0.3634	0.0733	-0.027
Mof_Zn	Zn	0.99285	0.67489	0.4981	1.243
Mof_N 	N 	0.0626	0.7602	0.5008	-0.224
Mof_N 	N 	0.1388	0.8499	0.50454	-0.219
Mof_O 	O 	0.937	0.7088	0.44687	-0.474
Mof_O 	O 	0.938	0.7866	0.40831	-0.51
Mof_C 	C 	0.127	0.7974	0.521	0.135
Mof_O 	O 	0.0187	0.9039	0.41639	-0.559
Mof_O 	O 	0.1526	0.9376	0.45323	-0.472
Mof_C 	C 	0.0769	0.8475	0.47091	-0.098
Mof_C 	C 	0.0302	0.7925	0.46908	-0.072
Mof_C 	C 	0.1835	0.7812	0.5574	-0.091
Mof_N 	N 	0.2927	0.8112	0.61208	-0.29
Mof_C 	C 	0.0798	0.8988	0.44462	0.421
Mof_C 	C 	0.2545	0.7101	0.6021	-0.11
Mof_H 	H 	0.263	0.6714	0.6104	0.069
Mof_C 	C 	0.1949	0.7228	0.5691	0.022
Mof_H 	H 	0.1628	0.6927	0.5549	0.016
Mof_C 	C 	0.3009	0.7555	0.6226	0.063
Mof_H 	H 	0.3401	0.7466	0.645	-0.017
Mof_C 	C 	0.9625	0.7623	0.4392	0.389
Mof_C 	C 	0.2333	0.8242	0.5803	0.041
Mof_H 	H 	0.2251	0.8634	0.5733	-0.027
Mof_Zn	Zn	0.49285	0.17489	0.4981	1.243
Mof_N 	N 	0.5626	0.2602	0.5008	-0.224
Mof_N 	N 	0.6388	0.3499	0.50454	-0.219
Mof_O 	O 	0.437	0.2088	0.44687	-0.474
Mof_O 	O 	0.438	0.2866	0.40831	-0.51
Mof_C 	C 	0.627	0.2974	0.521	0.135
Mof_O 	O 	0.5187	0.4039	0.41639	-0.559
Mof_O 	O 	0.6526	0.4376	0.45323	-0.472
Mof_C 	C 	0.5769	0.3475	0.47091	-0.098
Mof_C 	C 	0.5302	0.2925	0.46908	-0.073
Mof_C 	C 	0.6835	0.2812	0.5574	-0.091
Mof_N 	N 	0.7927	0.3112	0.61208	-0.29
Mof_C 	C 	0.5798	0.3988	0.44462	0.421
Mof_C 	C 	0.7545	0.2101	0.6021	-0.11
Mof_H 	H 	0.763	0.1714	0.6104	0.069
Mof_C 	C 	0.6949	0.2228	0.5691	0.022
Mof_H 	H 	0.6628	0.1927	0.5549	0.016
Mof_C 	C 	0.8009	0.2555	0.6226	0.063
Mof_H 	H 	0.8401	0.2466	0.645	-0.017
Mof_C 	C 	0.4625	0.2623	0.4392	0.389
Mof_C 	C 	0.7333	0.3242	0.5803	0.041
Mof_H 	H 	0.7251	0.3634	0.5733	-0.027
Mof_Zn	Zn	0.49285	0.67489	0.9981	1.243
Mof_N 	N 	0.5626	0.7602	0.0008	-0.224
Mof_N 	N 	0.6388	0.8499	0.00454	-0.219
Mof_O 	O 	0.437	0.7088	0.94687	-0.474
Mof_O 	O 	0.438	0.7866	0.90831	-0.51
Mof_C 	C 	0.627	0.7974	0.021	0.135
Mof_O 	O 	0.5187	0.9039	0.91639	-0.559
Mof_O 	O 	0.6526	0.9376	0.95323	-0.472
Mof_C 	C 	0.5769	0.8475	0.97091	-0.098
Mof_C 	C 	0.5302	0.7925	0.96908	-0.073
Mof_C 	C 	0.6835	0.7812	0.0574	-0.091
Mof_N 	N 	0.7927	0.8112	0.11208	-0.29
Mof_C 	C 	0.5798	0.8988	0.94462	0.421
Mof_C 	C 	0.7545	0.7101	0.1021	-0.11
Mof_H 	H 	0.763	0.6714	0.1104	0.069
Mof_C 	C 	0.6949	0.7228	0.0691	0.022
Mof_H 	H 	0.6628	0.6927	0.0549	0.016
Mof_C 	C 	0.8009	0.7555	0.1226	0.063
Mof_H 	H 	0.8401	0.7466	0.145	-0.017
Mof_C 	C 	0.4625	0.7623	0.9392	0.389
Mof_C 	C 	0.7333	0.8242	0.0803	0.041
Mof_H 	H 	0.7251	0.8634	0.0733	-0.027
Mof_Zn	Zn	0.00715	0.42489	0.2481	1.243
Mof_N 	N 	0.9374	0.5102	0.2508	-0.224
Mof_N 	N 	0.8612	0.5999	0.25454	-0.219
Mof_O 	O 	0.063	0.4588	0.19687	-0.474
Mof_O 	O 	0.062	0.5366	0.15831	-0.51
Mof_C 	C 	0.873	0.5474	0.271	0.135
Mof_O 	O 	0.9813	0.6539	0.16639	-0.559
Mof_O 	O 	0.8474	0.6876	0.20323	-0.472
Mof_C 	C 	0.9231	0.5975	0.22091	-0.098
Mof_C 	C 	0.9698	0.5425	0.21908	-0.072
Mof_C 	C 	0.8165	0.5312	0.3074	-0.091
Mof_N 	N 	0.7073	0.5612	0.36208	-0.29
Mof_C 	C 	0.9202	0.6488	0.19462	0.421
Mof_C 	C 	0.7455	0.4601	0.3521	-0.11
Mof_H 	H 	0.737	0.4214	0.3604	0.069
Mof_C 	C 	0.8051	0.4728	0.3191	0.022
Mof_H 	H 	0.8372	0.4427	0.3049	0.016
Mof_C 	C 	0.6991	0.5055	0.3726	0.063
Mof_H 	H 	0.6599	0.4966	0.395	-0.017
Mof_C 	C 	0.0375	0.5123	0.1892	0.389
Mof_C 	C 	0.7667	0.5742	0.3303	0.041
Mof_H 	H 	0.7749	0.6134	0.3233	-0.027
Mof_Zn	Zn	0.00715	0.92489	0.7481	1.243
Mof_N 	N 	0.9374	0.0102	0.7508	-0.224
Mof_N 	N 	0.8612	0.0999	0.75454	-0.219
Mof_O 	O 	0.063	0.9588	0.69687	-0.472
Mof_O 	O 	0.062	0.0366	0.65831	-0.51
Mof_C 	C 	0.873	0.0474	0.771	0.135
Mof_O 	O 	0.9813	0.1539	0.66639	-0.559
Mof_O 	O 	0.8474	0.1876	0.70323	-0.472
Mof_C 	C 	0.9231	0.0975	0.72091	-0.098
Mof_C 	C 	0.9698	0.0425	0.71908	-0.071
Mof_C 	C 	0.8165	0.0312	0.8074	-0.091
Mof_N 	N 	0.7073	0.0612	0.86208	-0.29
Mof_C 	C 	0.9202	0.1488	0.69462	0.421
Mof_C 	C 	0.7455	0.9601	0.8521	-0.11
Mof_H 	H 	0.737	0.9214	0.8604	0.069
Mof_C 	C 	0.8051	0.9728	0.8191	0.021
Mof_H 	H 	0.8372	0.9427	0.8049	0.016
Mof_C 	C 	0.6991	0.0055	0.8726	0.063
Mof_H 	H 	0.6599	0.9966	0.895	-0.018
Mof_C 	C 	0.0375	0.0123	0.6892	0.387
Mof_C 	C 	0.7667	0.0742	0.8303	0.04
Mof_H 	H 	0.7749	0.1134	0.8233	-0.027
Mof_Zn	Zn	0.50715	0.42489	0.7481	1.243
Mof_N 	N 	0.4374	0.5102	0.7508	-0.224
Mof_N 	N 	0.3612	0.5999	0.75454	-0.219
Mof_O 	O 	0.563	0.4588	0.69687	-0.474
Mof_O 	O 	0.562	0.5366	0.65831	-0.51
Mof_C 	C 	0.373	0.5474	0.771	0.135
Mof_O 	O 	0.4813	0.6539	0.66639	-0.559
Mof_O 	O 	0.3474	0.6876	0.70323	-0.472
Mof_C 	C 	0.4231	0.5975	0.72091	-0.098
Mof_C 	C 	0.4698	0.5425	0.71908	-0.073
Mof_C 	C 	0.3165	0.5312	0.8074	-0.091
Mof_N 	N 	0.2073	0.5612	0.86208	-0.29
Mof_C 	C 	0.4202	0.6488	0.69462	0.421
Mof_C 	C 	0.2455	0.4601	0.8521	-0.11
Mof_H 	H 	0.237	0.4214	0.8604	0.069
Mof_C 	C 	0.3051	0.4728	0.8191	0.022
Mof_H 	H 	0.3372	0.4427	0.8049	0.016
Mof_C 	C 	0.1991	0.5055	0.8726	0.063
Mof_H 	H 	0.1599	0.4966	0.895	-0.017
Mof_C 	C 	0.5375	0.5123	0.6892	0.389
Mof_C 	C 	0.2667	0.5742	0.8303	0.041
Mof_H 	H 	0.2749	0.6134	0.8233	-0.027
Mof_Zn	Zn	0.50715	0.92489	0.2481	1.243
Mof_N 	N 	0.4374	0.0102	0.2508	-0.224
Mof_N 	N 	0.3612	0.0999	0.25454	-0.219
Mof_O 	O 	0.563	0.9588	0.19687	-0.474
Mof_O 	O 	0.562	0.0366	0.15831	-0.51
Mof_C 	C 	0.373	0.0474	0.271	0.135
Mof_O 	O 	0.4813	0.1539	0.16639	-0.559
Mof_O 	O 	0.3474	0.1876	0.20323	-0.472
Mof_C 	C 	0.4231	0.0975	0.22091	-0.098
Mof_C 	C 	0.4698	0.0425	0.21908	-0.073
Mof_C 	C 	0.3165	0.0312	0.3074	-0.091
Mof_N 	N 	0.2073	0.0612	0.36208	-0.29
Mof_C 	C 	0.4202	0.1488	0.19462	0.421
Mof_C 	C 	0.2455	0.9601	0.3521	-0.107
Mof_H 	H 	0.237	0.9214	0.3604	0.068
Mof_C 	C 	0.3051	0.9728	0.3191	0.021
Mof_H 	H 	0.3372	0.9427	0.3049	0.016
Mof_C 	C 	0.1991	0.0055	0.3726	0.06
Mof_H 	H 	0.1599	0.9966	0.395	-0.016
Mof_C 	C 	0.5375	0.0123	0.1892	0.389
Mof_C 	C 	0.2667	0.0742	0.3303	0.04
Mof_H 	H 	0.2749	0.1134	0.3233	-0.027
Mof_Zn	Zn	0.24285	0.82511	0.2481	1.243
Mof_N 	N 	0.3126	0.7398	0.2508	-0.224
Mof_N 	N 	0.3888	0.6501	0.25454	-0.219
Mof_O 	O 	0.187	0.7912	0.19687	-0.474
Mof_O 	O 	0.188	0.7134	0.15831	-0.51
Mof_C 	C 	0.377	0.7026	0.271	0.135
Mof_O 	O 	0.2687	0.5961	0.16639	-0.559
Mof_O 	O 	0.4026	0.5624	0.20323	-0.472
Mof_C 	C 	0.3269	0.6525	0.22091	-0.098
Mof_C 	C 	0.2802	0.7075	0.21908	-0.073
Mof_C 	C 	0.4335	0.7188	0.3074	-0.091
Mof_N 	N 	0.5427	0.6888	0.36208	-0.29
Mof_C 	C 	0.3298	0.6012	0.19462	0.421
Mof_C 	C 	0.5045	0.7899	0.3521	-0.11
Mof_H 	H 	0.513	0.8286	0.3604	0.069
Mof_C 	C 	0.4449	0.7772	0.3191	0.022
Mof_H 	H 	0.4128	0.8073	0.3049	0.016
Mof_C 	C 	0.5509	0.7445	0.3726	0.063
Mof_H 	H 	0.5901	0.7534	0.395	-0.017
Mof_C 	C 	0.2125	0.7377	0.1892	0.389
Mof_C 	C 	0.4833	0.6758	0.3303	0.041
Mof_H 	H 	0.4751	0.6366	0.3233	-0.027
Mof_Zn	Zn	0.24285	0.32511	0.7481	1.243
Mof_N 	N 	0.3126	0.2398	0.7508	-0.224
Mof_N 	N 	0.3888	0.1501	0.75454	-0.219
Mof_O 	O 	0.187	0.2912	0.69687	-0.474
Mof_O 	O 	0.188	0.2134	0.65831	-0.51
Mof_C 	C 	0.377	0.2026	0.771	0.135
Mof_O 	O 	0.2687	0.0961	0.66639	-0.559
Mof_O 	O 	0.4026	0.0624	0.70323	-0.472
Mof_C 	C 	0.3269	0.1525	0.72091	-0.098
Mof_C 	C 	0.2802	0.2075	0.71908	-0.073
Mof_C 	C 	0.4335	0.2188	0.8074	-0.091
Mof_N 	N 	0.5427	0.1888	0.86208	-0.29
Mof_C 	C 	0.3298	0.1012	0.69462	0.421
Mof_C 	C 	0.5045	0.2899	0.8521	-0.11
Mof_H 	H 	0.513	0.3286	0.8604	0.069
Mof_C 	C 	0.4449	0.2772	0.8191	0.022
Mof_H 	H 	0.4128	0.3073	0.8049	0.016
Mof_C 	C 	0.5509	0.2445	0.8726	0.063
Mof_H 	H 	0.5901	0.2534	0.895	-0.017
Mof_C 	C 	0.2125	0.2377	0.6892	0.389
Mof_C 	C 	0.4833	0.1758	0.8303	0.041
Mof_H 	H 	0.4751	0.1366	0.8233	-0.027
Mof_Zn	Zn	0.74285	0.82511	0.7481	1.243
Mof_N 	N 	0.8126	0.7398	0.7508	-0.224
Mof_N 	N 	0.8888	0.6501	0.75454	-0.219
Mof_O 	O 	0.687	0.7912	0.69687	-0.474
Mof_O 	O 	0.688	0.7134	0.65831	-0.51
Mof_C 	C 	0.877	0.7026	0.771	0.135
Mof_O 	O 	0.7687	0.5961	0.66639	-0.559
Mof_O 	O 	0.9026	0.5624	0.70323	-0.472
Mof_C 	C 	0.8269	0.6525	0.72091	-0.098
Mof_C 	C 	0.7802	0.7075	0.71908	-0.073
Mof_C 	C 	0.9335	0.7188	0.8074	-0.09
Mof_N 	N 	0.0427	0.6888	0.86208	-0.289
Mof_C 	C 	0.8298	0.6012	0.69462	0.421
Mof_C 	C 	0.0045	0.7899	0.8521	-0.107
Mof_H 	H 	0.013	0.8286	0.8604	0.068
Mof_C 	C 	0.9449	0.7772	0.8191	0.019
Mof_H 	H 	0.9128	0.8073	0.8049	0.016
Mof_C 	C 	0.0509	0.7445	0.8726	0.062
Mof_H 	H 	0.0901	0.7534	0.895	-0.017
Mof_C 	C 	0.7125	0.7377	0.6892	0.389
Mof_C 	C 	0.9833	0.6758	0.8303	0.039
Mof_H 	H 	0.9751	0.6366	0.8233	-0.026
Mof_Zn	Zn	0.74285	0.32511	0.2481	1.243
Mof_N 	N 	0.8126	0.2398	0.2508	-0.224
Mof_N 	N 	0.8888	0.1501	0.25454	-0.219
Mof_O 	O 	0.687	0.2912	0.19687	-0.474
Mof_O 	O 	0.688	0.2134	0.15831	-0.51
Mof_C 	C 	0.877	0.2026	0.271	0.136
Mof_O 	O 	0.7687	0.0961	0.16639	-0.559
Mof_O 	O 	0.9026	0.0624	0.20323	-0.472
Mof_C 	C 	0.8269	0.1525	0.22091	-0.098
Mof_C 	C 	0.7802	0.2075	0.21908	-0.073
Mof_C 	C 	0.9335	0.2188	0.3074	-0.093
Mof_N 	N 	0.0427	0.1888	0.36208	-0.291
Mof_C 	C 	0.8298	0.1012	0.19462	0.421
Mof_C 	C 	0.0045	0.2899	0.3521	-0.112
Mof_H 	H 	0.013	0.3286	0.3604	0.069
Mof_C 	C 	0.9449	0.2772	0.3191	0.024
Mof_H 	H 	0.9128	0.3073	0.3049	0.015
Mof_C 	C 	0.0509	0.2445	0.3726	0.064
Mof_H 	H 	0.0901	0.2534	0.395	-0.018
Mof_C 	C 	0.7125	0.2377	0.1892	0.389
Mof_C 	C 	0.9833	0.1758	0.3303	0.042
Mof_H 	H 	0.9751	0.1366	0.3233	-0.027
Mof_Zn	Zn	0.24285	0.42489	0.0019	1.243
Mof_N 	N 	0.3126	0.5102	0.9992	-0.224
Mof_N 	N 	0.3888	0.5999	0.99546	-0.219
Mof_O 	O 	0.187	0.4588	0.05313	-0.474
Mof_O 	O 	0.188	0.5366	0.09169	-0.51
Mof_C 	C 	0.377	0.5474	0.979	0.135
Mof_O 	O 	0.2687	0.6539	0.08361	-0.559
Mof_O 	O 	0.4026	0.6876	0.04677	-0.472
Mof_C 	C 	0.3269	0.5975	0.02909	-0.098
Mof_C 	C 	0.2802	0.5425	0.03092	-0.073
Mof_C 	C 	0.4335	0.5312	0.9426	-0.091
Mof_N 	N 	0.5427	0.5612	0.88792	-0.29
Mof_C 	C 	0.3298	0.6488	0.05538	0.421
Mof_C 	C 	0.5045	0.4601	0.8979	-0.11
Mof_H 	H 	0.513	0.4214	0.8896	0.069
Mof_C 	C 	0.4449	0.4728	0.9309	0.022
Mof_H 	H 	0.4128	0.4427	0.9451	0.016
Mof_C 	C 	0.5509	0.5055	0.8774	0.063
Mof_H 	H 	0.5901	0.4966	0.855	-0.017
Mof_C 	C 	0.2125	0.5123	0.0608	0.389
Mof_C 	C 	0.4833	0.5742	0.9197	0.041
Mof_H 	H 	0.4751	0.6134	0.9267	-0.027
Mof_Zn	Zn	0.24285	0.92489	0.5019	1.243
Mof_N 	N 	0.3126	0.0102	0.4992	-0.224
Mof_N 	N 	0.3888	0.0999	0.49546	-0.219
Mof_O 	O 	0.187	0.9588	0.55313	-0.473
Mof_O 	O 	0.188	0.0366	0.59169	-0.51
Mof_C 	C 	0.377	0.0474	0.479	0.135
Mof_O 	O 	0.2687	0.1539	0.58361	-0.559
Mof_O 	O 	0.4026	0.1876	0.54677	-0.472
Mof_C 	C 	0.3269	0.0975	0.52909	-0.098
Mof_C 	C 	0.2802	0.0425	0.53092	-0.073
Mof_C 	C 	0.4335	0.0312	0.4426	-0.092
Mof_N 	N 	0.5427	0.0612	0.38792	-0.29
Mof_C 	C 	0.3298	0.1488	0.55538	0.421
Mof_C 	C 	0.5045	0.9601	0.3979	-0.111
Mof_H 	H 	0.513	0.9214	0.3896	0.069
Mof_C 	C 	0.4449	0.9728	0.4309	0.022
Mof_H 	H 	0.4128	0.9427	0.4451	0.015
Mof_C 	C 	0.5509	0.0055	0.3774	0.064
Mof_H 	H 	0.5901	0.9966	0.355	-0.018
Mof_C 	C 	0.2125	0.0123	0.5608	0.388
Mof_C 	C 	0.4833	0.0742	0.4197	0.041
Mof_H 	H 	0.4751	0.1134	0.4267	-0.027
Mof_Zn	Zn	0.74285	0.42489	0.5019	1.243
Mof_N 	N 	0.8126	0.5102	0.4992	-0.224
Mof_N 	N 	0.8888	0.5999	0.49546	-0.219
Mof_O 	O 	0.687	0.4588	0.55313	-0.474
Mof_O 	O 	0.688	0.5366	0.59169	-0.51
Mof_C 	C 	0.877	0.5474	0.479	0.135
Mof_O 	O 	0.7687	0.6539	0.58361	-0.559
Mof_O 	O 	0.9026	0.6876	0.54677	-0.472
Mof_C 	C 	0.8269	0.5975	0.52909	-0.098
Mof_C 	C 	0.7802	0.5425	0.53092	-0.073
Mof_C 	C 	0.9335	0.5312	0.4426	-0.092
Mof_N 	N 	0.0427	0.5612	0.38792	-0.29
Mof_C 	C 	0.8298	0.6488	0.55538	0.421
Mof_C 	C 	0.0045	0.4601	0.3979	-0.111
Mof_H 	H 	0.013	0.4214	0.3896	0.069
Mof_C 	C 	0.9449	0.4728	0.4309	0.023
Mof_H 	H 	0.9128	0.4427	0.4451	0.015
Mof_C 	C 	0.0509	0.5055	0.3774	0.063
Mof_H 	H 	0.0901	0.4966	0.355	-0.018
Mof_C 	C 	0.7125	0.5123	0.5608	0.389
Mof_C 	C 	0.9833	0.5742	0.4197	0.041
Mof_H 	H 	0.9751	0.6134	0.4267	-0.027
Mof_Zn	Zn	0.74285	0.92489	0.0019	1.243
Mof_N 	N 	0.8126	0.0102	0.9992	-0.224
Mof_N 	N 	0.8888	0.0999	0.99546	-0.219
Mof_O 	O 	0.687	0.9588	0.05313	-0.474
Mof_O 	O 	0.688	0.0366	0.09169	-0.51
Mof_C 	C 	0.877	0.0474	0.979	0.134
Mof_O 	O 	0.7687	0.1539	0.08361	-0.559
Mof_O 	O 	0.9026	0.1876	0.04677	-0.471
Mof_C 	C 	0.8269	0.0975	0.02909	-0.097
Mof_C 	C 	0.7802	0.0425	0.03092	-0.072
Mof_C 	C 	0.9335	0.0312	0.9426	-0.087
Mof_N 	N 	0.0427	0.0612	0.88792	-0.288
Mof_C 	C 	0.8298	0.1488	0.05538	0.421
Mof_C 	C 	0.0045	0.9601	0.8979	-0.099
Mof_H 	H 	0.013	0.9214	0.8896	0.065
Mof_C 	C 	0.9449	0.9728	0.9309	0.013
Mof_H 	H 	0.9128	0.9427	0.9451	0.018
Mof_C 	C 	0.0509	0.0055	0.8774	0.054
Mof_H 	H 	0.0901	0.9966	0.855	-0.014
Mof_C 	C 	0.7125	0.0123	0.0608	0.39
Mof_C 	C 	0.9833	0.0742	0.9197	0.039
Mof_H 	H 	0.9751	0.1134	0.9267	-0.026
Mof_Zn	Zn	0.00715	0.82511	0.0019	1.243
Mof_N 	N 	0.9374	0.7398	0.9992	-0.224
Mof_N 	N 	0.8612	0.6501	0.99546	-0.219
Mof_O 	O 	0.063	0.7912	0.05313	-0.474
Mof_O 	O 	0.062	0.7134	0.09169	-0.51
Mof_C 	C 	0.873	0.7026	0.979	0.135
Mof_O 	O 	0.9813	0.5961	0.08361	-0.559
Mof_O 	O 	0.8474	0.5624	0.04677	-0.472
Mof_C 	C 	0.9231	0.6525	0.02909	-0.098
Mof_C 	C 	0.9698	0.7075	0.03092	-0.072
Mof_C 	C 	0.8165	0.7188	0.9426	-0.092
Mof_N 	N 	0.7073	0.6888	0.88792	-0.29
Mof_C 	C 	0.9202	0.6012	0.05538	0.421
Mof_C 	C 	0.7455	0.7899	0.8979	-0.11
Mof_H 	H 	0.737	0.8286	0.8896	0.069
Mof_C 	C 	0.8051	0.7772	0.9309	0.022
Mof_H 	H 	0.8372	0.8073	0.9451	0.015
Mof_C 	C 	0.6991	0.7445	0.8774	0.063
Mof_H 	H 	0.6599	0.7534	0.855	-0.017
Mof_C 	C 	0.0375	0.7377	0.0608	0.389
Mof_C 	C 	0.7667	0.6758	0.9197	0.041
Mof_H 	H 	0.7749	0.6366	0.9267	-0.027
Mof_Zn	Zn	0.00715	0.32511	0.5019	1.243
Mof_N 	N 	0.9374	0.2398	0.4992	-0.224
Mof_N 	N 	0.8612	0.1501	0.49546	-0.219
Mof_O 	O 	0.063	0.2912	0.55313	-0.474
Mof_O 	O 	0.062	0.2134	0.59169	-0.51
Mof_C 	C 	0.873	0.2026	0.479	0.135
Mof_O 	O 	0.9813	0.0961	0.58361	-0.559
Mof_O 	O 	0.8474	0.0624	0.54677	-0.472
Mof_C 	C 	0.9231	0.1525	0.52909	-0.098
Mof_C 	C 	0.9698	0.2075	0.53092	-0.072
Mof_C 	C 	0.8165	0.2188	0.4426	-0.091
Mof_N 	N 	0.7073	0.1888	0.38792	-0.29
Mof_C 	C 	0.9202	0.1012	0.55538	0.421
Mof_C 	C 	0.7455	0.2899	0.3979	-0.11
Mof_H 	H 	0.737	0.3286	0.3896	0.069
Mof_C 	C 	0.8051	0.2772	0.4309	0.022
Mof_H 	H 	0.8372	0.3073	0.4451	0.016
Mof_C 	C 	0.6991	0.2445	0.3774	0.063
Mof_H 	H 	0.6599	0.2534	0.355	-0.017
Mof_C 	C 	0.0375	0.2377	0.5608	0.389
Mof_C 	C 	0.7667	0.1758	0.4197	0.041
Mof_H 	H 	0.7749	0.1366	0.4267	-0.027
Mof_Zn	Zn	0.50715	0.82511	0.5019	1.243
Mof_N 	N 	0.4374	0.7398	0.4992	-0.224
Mof_N 	N 	0.3612	0.6501	0.49546	-0.219
Mof_O 	O 	0.563	0.7912	0.55313	-0.474
Mof_O 	O 	0.562	0.7134	0.59169	-0.51
Mof_C 	C 	0.373	0.7026	0.479	0.135
Mof_O 	O 	0.4813	0.5961	0.58361	-0.559
Mof_O 	O 	0.3474	0.5624	0.54677	-0.472
Mof_C 	C 	0.4231	0.6525	0.52909	-0.098
Mof_C 	C 	0.4698	0.7075	0.53092	-0.073
Mof_C 	C 	0.3165	0.7188	0.4426	-0.091
Mof_N 	N 	0.2073	0.6888	0.38792	-0.29
Mof_C 	C 	0.4202	0.6012	0.55538	0.421
Mof_C 	C 	0.2455	0.7899	0.3979	-0.11
Mof_H 	H 	0.237	0.8286	0.3896	0.069
Mof_C 	C 	0.3051	0.7772	0.4309	0.022
Mof_H 	H 	0.3372	0.8073	0.4451	0.016
Mof_C 	C 	0.1991	0.7445	0.3774	0.063
Mof_H 	H 	0.1599	0.7534	0.355	-0.017
Mof_C 	C 	0.5375	0.7377	0.5608	0.389
Mof_C 	C 	0.2667	0.6758	0.4197	0.041
Mof_H 	H 	0.2749	0.6366	0.4267	-0.027
Mof_Zn	Zn	0.50715	0.32511	0.0019	1.243
Mof_N 	N 	0.4374	0.2398	0.9992	-0.224
Mof_N 	N 	0.3612	0.1501	0.99546	-0.219
Mof_O 	O 	0.563	0.2912	0.05313	-0.474
Mof_O 	O 	0.562	0.2134	0.09169	-0.51
Mof_C 	C 	0.373	0.2026	0.979	0.135
Mof_O 	O 	0.4813	0.0961	0.08361	-0.559
Mof_O 	O 	0.3474	0.0624	0.04677	-0.472
Mof_C 	C 	0.4231	0.1525	0.02909	-0.098
Mof_C 	C 	0.4698	0.2075	0.03092	-0.073
Mof_C 	C 	0.3165	0.2188	0.9426	-0.091
Mof_N 	N 	0.2073	0.1888	0.88792	-0.29
Mof_C 	C 	0.4202	0.1012	0.05538	0.421
Mof_C 	C 	0.2455	0.2899	0.8979	-0.11
Mof_H 	H 	0.237	0.3286	0.8896	0.069
Mof_C 	C 	0.3051	0.2772	0.9309	0.022
Mof_H 	H 	0.3372	0.3073	0.9451	0.016
Mof_C 	C 	0.1991	0.2445	0.8774	0.063
Mof_H 	H 	0.1599	0.2534	0.855	-0.017
Mof_C 	C 	0.5375	0.2377	0.0608	0.389
Mof_C 	C 	0.2667	0.1758	0.9197	0.041
Mof_H 	H 	0.2749	0.1366	0.9267	-0.027
Mof_Eu	Eu	0.875	0.375	0.875	2.641
Mof_Eu	Eu	0.875	0.875	0.375	2.639
Mof_Eu	Eu	0.375	0.375	0.375	2.641
Mof_Eu	Eu	0.375	0.875	0.875	2.641
Mof_Eu	Eu	0.125	0.625	0.125	2.641
Mof_Eu	Eu	0.125	0.125	0.625	2.639
Mof_Eu	Eu	0.625	0.625	0.625	2.641
Mof_Eu	Eu	0.625	0.125	0.125	2.641
Mof_Zn	Zn	0.375	0.375	0.60653	1.114
Mof_Zn	Zn	0.375	0.875	0.10653	1.114
Mof_Zn	Zn	0.875	0.375	0.10653	1.114
Mof_Zn	Zn	0.875	0.875	0.60653	1.114
Mof_Zn	Zn	0.375	0.375	0.14347	1.114
Mof_Zn	Zn	0.375	0.875	0.64347	1.114
Mof_Zn	Zn	0.875	0.375	0.64347	1.114
Mof_Zn	Zn	0.875	0.875	0.14347	1.114
Mof_Zn	Zn	0.625	0.625	0.39347	1.114
Mof_Zn	Zn	0.625	0.125	0.89347	1.114
Mof_Zn	Zn	0.125	0.625	0.89347	1.114
Mof_Zn	Zn	0.125	0.125	0.39347	1.114
Mof_Zn	Zn	0.625	0.625	0.85653	1.114
Mof_Zn	Zn	0.625	0.125	0.35653	1.114
Mof_Zn	Zn	0.125	0.625	0.35653	1.114
Mof_Zn	Zn	0.125	0.125	0.85653	1.114
Mof_Cl	Cl	0.125	0.625	0.7542	-0.901
Mof_Cl	Cl	0.125	0.125	0.2542	-0.902
Mof_Cl	Cl	0.625	0.125	0.7542	-0.901
Mof_Cl	Cl	0.625	0.625	0.2542	-0.901
Mof_Cl	Cl	0.625	0.625	0.9958	-0.901
Mof_Cl	Cl	0.625	0.125	0.4958	-0.901
Mof_Cl	Cl	0.125	0.125	0.9958	-0.901
Mof_Cl	Cl	0.125	0.625	0.4958	-0.901
Mof_Cl	Cl	0.875	0.375	0.2458	-0.901
Mof_Cl	Cl	0.875	0.875	0.7458	-0.902
Mof_Cl	Cl	0.375	0.875	0.2458	-0.901
Mof_Cl	Cl	0.375	0.375	0.7458	-0.901
Mof_Cl	Cl	0.375	0.375	0.0042	-0.901
Mof_Cl	Cl	0.375	0.875	0.5042	-0.901
Mof_Cl	Cl	0.875	0.875	0.0042	-0.901
Mof_Cl	Cl	0.875	0.375	0.5042	-0.901
_end
