data_functionalizedCrystal
_audit_creation_method	'EQeq! by Chris Wilmer'
_symmetry_space_group_name_H-M	'P1'
_symmetry_Int_Tables_number	1
_symmetry_cell_setting	triclinic
loop_
_symmetry_equiv_pos_as_xyz
  x,y,z
_cell_length_a	10.9919
_cell_length_b	10.9843
_cell_length_c	10.9893
_cell_angle_alpha	83.024
_cell_angle_beta	85.221
_cell_angle_gamma	81.104
loop_
_atom_site_label
_atom_site_type_symbol
_atom_site_fract_x
_atom_site_fract_y
_atom_site_fract_z
_atom_site_charge
Mof_Co	Co	0.0836	0.90702	0.25115	1.148
Mof_Co	Co	0.9704	0.85751	0.00286	1.122
Mof_Co	Co	0.8548	0.99607	0.49096	1.114
Mof_N 	N 	0.8375	0.8942	0.1417	-0.233
Mof_N 	N 	0.885	0.9129	0.2467	-0.19
Mof_N 	N 	0.7995	0.9265	0.3379	-0.21
Mof_N 	N 	0.0718	0.1896	0.1604	-0.222
Mof_N 	N 	0.0938	0.1003	0.2513	-0.19
Mof_N 	N 	0.1134	0.1407	0.3559	-0.216
Mof_C 	C 	0.6909	0.917	0.2934	0.027
Mof_C 	C 	0.7146	0.8989	0.169	0.089
Mof_C 	C 	0.6209	0.8872	0.098	-0.168
Mof_H 	H 	0.6373	0.8765	0.0153	0.07
Mof_C 	C 	0.503	0.8913	0.1502	0.068
Mof_H 	H 	0.4391	0.8812	0.1034	0.008
Mof_C 	C 	0.478	0.9107	0.2743	-0.136
Mof_C 	C 	0.5721	0.9257	0.3455	-0.035
Mof_H 	H 	0.5551	0.9414	0.4269	0.053
Mof_C 	C 	0.36	0.9118	0.3246	0.356
Mof_C 	C 	0.079	0.2972	0.211	0.034
Mof_C 	C 	0.109	0.2666	0.3301	0.078
Mof_C 	C 	0.11	0.3556	0.409	-0.148
Mof_H 	H 	0.1167	0.3341	0.4929	0.071
Mof_C 	C 	0.099	0.4762	0.3584	0.041
Mof_H 	H 	0.1075	0.5376	0.4073	0.024
Mof_C 	C 	0.076	0.5091	0.2361	-0.09
Mof_C 	C 	0.062	0.4222	0.16	-0.059
Mof_H 	H 	0.0432	0.4449	0.0787	0.064
Mof_C 	C 	0.059	0.6451	0.1849	0.372
Mof_O 	O 	0.0858	0.9468	0.0657	-0.719
Mof_H 	H 	0.174	0.939	0.049	0.165
Mof_O 	O 	0.0439	0.9044	0.4321	-0.701
Mof_H 	H 	0.093	0.826	0.46	0.143
Mof_O 	O 	0.3247	0.95	0.4343	-0.427
Mof_O 	O 	0.282	0.8734	0.2655	-0.421
Mof_O 	O 	0.0249	0.6761	0.0806	-0.451
Mof_O 	O 	0.0937	0.7153	0.256	-0.432
Mof_Co	Co	0.9164	0.09298	0.74885	1.149
Mof_Co	Co	0.0296	0.14249	0.99714	1.123
Mof_Co	Co	0.1452	0.00393	0.50904	1.114
Mof_N 	N 	0.1625	0.1058	0.8583	-0.233
Mof_N 	N 	0.115	0.0871	0.7533	-0.19
Mof_N 	N 	0.2005	0.0735	0.6621	-0.21
Mof_N 	N 	0.9282	0.8104	0.8396	-0.222
Mof_N 	N 	0.9062	0.8997	0.7487	-0.19
Mof_N 	N 	0.8866	0.8593	0.6441	-0.216
Mof_C 	C 	0.3091	0.083	0.7066	0.027
Mof_C 	C 	0.2854	0.1011	0.831	0.089
Mof_C 	C 	0.3791	0.1128	0.902	-0.168
Mof_H 	H 	0.3627	0.1235	0.9847	0.07
Mof_C 	C 	0.497	0.1087	0.8498	0.068
Mof_H 	H 	0.5609	0.1188	0.8966	0.008
Mof_C 	C 	0.522	0.0893	0.7257	-0.136
Mof_C 	C 	0.4279	0.0743	0.6545	-0.035
Mof_H 	H 	0.4449	0.0586	0.5731	0.053
Mof_C 	C 	0.64	0.0882	0.6754	0.356
Mof_C 	C 	0.921	0.7028	0.789	0.034
Mof_C 	C 	0.891	0.7334	0.6699	0.078
Mof_C 	C 	0.89	0.6444	0.591	-0.148
Mof_H 	H 	0.8833	0.6659	0.5071	0.071
Mof_C 	C 	0.901	0.5238	0.6416	0.041
Mof_H 	H 	0.8925	0.4624	0.5927	0.024
Mof_C 	C 	0.924	0.4909	0.7639	-0.09
Mof_C 	C 	0.938	0.5778	0.84	-0.059
Mof_H 	H 	0.9568	0.5551	0.9213	0.064
Mof_C 	C 	0.941	0.3549	0.8151	0.372
Mof_O 	O 	0.9142	0.0532	0.9343	-0.719
Mof_H 	H 	0.826	0.061	0.951	0.165
Mof_O 	O 	0.9561	0.0956	0.5679	-0.701
Mof_H 	H 	0.907	0.174	0.54	0.143
Mof_O 	O 	0.6753	0.05	0.5657	-0.427
Mof_O 	O 	0.718	0.1266	0.7345	-0.421
Mof_O 	O 	0.9751	0.3239	0.9194	-0.451
Mof_O 	O 	0.9063	0.2847	0.744	-0.432
_end
