data_functionalizedCrystal
_audit_creation_method	'EQeq! by Chris Wilmer'
_symmetry_space_group_name_H-M	'P1'
_symmetry_Int_Tables_number	1
_symmetry_cell_setting	triclinic
loop_
_symmetry_equiv_pos_as_xyz
  x,y,z
_cell_length_a	13.2433
_cell_length_b	26.3397
_cell_length_c	26.3397
_cell_angle_alpha	120
_cell_angle_beta	90
_cell_angle_gamma	90
loop_
_atom_site_label
_atom_site_type_symbol
_atom_site_fract_x
_atom_site_fract_y
_atom_site_fract_z
_atom_site_charge
Mof_Cd	Cd	-1.269e-32	0.84112	-0	0.311
Mof_Cd	Cd	0.75376	0.75104	0.50208	0.404
Mof_Cd	Cd	0.2488	1.42877e-17	0.24939	0.376
Mof_Cd	Cd	0.34436	0.33333	0.66666	0.391
Mof_Cd	Cd	0.7512	1.42877e-17	0.24939	0.38
Mof_Cd	Cd	0.75376	0.24897	0.75104	0.403
Mof_Cd	Cd	0.7512	-5.71507e-17	0.75061	0.381
Mof_Cd	Cd	0.2488	-5.71507e-17	0.75061	0.376
Mof_Cd	Cd	-3.1725e-33	0.15888	-0	0.3
Mof_Cd	Cd	-6.345e-33	1.42877e-17	0.15888	0.3
Mof_Cd	Cd	0.5	2.85754e-17	0.34182	0.337
Mof_Cd	Cd	0.5	0.34182	0.34182	0.364
Mof_Cd	Cd	0.65564	0.33333	0.66666	0.392
Mof_Cd	Cd	0.5	0.65818	-0	0.337
Mof_Cd	Cd	0.5	0.65818	0.65818	0.364
Mof_Cd	Cd	0.7512	0.75061	-0	0.381
Mof_Cd	Cd	0.24624	0.24897	0.75104	0.397
Mof_Cd	Cd	0.24624	0.75104	0.50208	0.398
Mof_Cd	Cd	0.7512	0.24939	0.24939	0.403
Mof_Cd	Cd	0.7512	0.75061	0.75061	0.405
Mof_Cd	Cd	0.75376	0.49793	0.24897	0.401
Mof_Cd	Cd	0.24624	0.24897	0.49793	0.396
Mof_Cd	Cd	-1.269e-32	0.15888	0.15888	0.322
Mof_Cd	Cd	0.75376	0.50207	0.75103	0.403
Mof_Cd	Cd	0.2488	0.24939	0.24939	0.398
Mof_Cd	Cd	0.2488	0.24939	-0	0.375
Mof_Cd	Cd	0.5	0.34182	-0	0.337
Mof_Cd	Cd	0.2488	0.75061	0.75061	0.4
Mof_Cd	Cd	0.34436	0.66667	0.33334	0.39
Mof_Cd	Cd	-0	5.71507e-17	0.84112	0.31
Mof_Cd	Cd	0.24624	0.49793	0.24897	0.396
Mof_Cd	Cd	0.65564	0.66667	0.33334	0.392
Mof_Cd	Cd	0.2488	0.75061	-0	0.376
Mof_Cd	Cd	0.7512	0.24939	-0	0.38
Mof_Cd	Cd	0.24624	0.50207	0.75103	0.398
Mof_Cd	Cd	-0	0.84112	0.84112	0.343
Mof_Cd	Cd	0.75376	0.24897	0.49793	0.401
Mof_Cd	Cd	0.24624	0.75104	0.24897	0.397
Mof_Cd	Cd	0.75376	0.75104	0.24897	0.403
Mof_Cd	Cd	0.5	5.71507e-17	0.65818	0.337
Mof_H 	H 	0.6804	0.8678	0.1322	0.018
Mof_H 	H 	0.6804	0.2644	0.1322	0.013
Mof_H 	H 	0.3196	0.1322	0.2644	0.014
Mof_H 	H 	0.3196	0.7356	0.8678	0.018
Mof_H 	H 	-2.22075e-32	0.72755	0.4551	0.011
Mof_H 	H 	0.5805	0.6782	0.5436	0.001
Mof_H 	H 	-1.9035e-32	0.4551	0.72755	0.011
Mof_H 	H 	0.5	0.4539	0.22695	0.004
Mof_H 	H 	0.4195	0.6782	0.5436	0.001
Mof_H 	H 	0.5805	0.3218	0.4564	0.001
Mof_H 	H 	0.6804	0.7356	0.8678	0.018
Mof_H 	H 	0.4195	0.5436	0.6782	0.001
Mof_H 	H 	0.5	0.77305	0.5461	0.005
Mof_H 	H 	-6.345e-33	0.5449	0.27245	0.011
Mof_H 	H 	0.5805	0.8654	0.3218	0.005
Mof_H 	H 	0.3196	0.8678	0.7356	0.018
Mof_H 	H 	0.5	0.22695	0.77305	0.005
Mof_H 	H 	0.5	0.77305	0.22695	0.005
Mof_H 	H 	0.4195	0.8654	0.3218	0.005
Mof_H 	H 	0.4195	0.3218	0.4564	0.001
Mof_H 	H 	-1.9035e-32	0.27245	0.72755	0.011
Mof_H 	H 	0.4195	0.4564	0.1346	0.001
Mof_H 	H 	0.5	0.22695	0.4539	0.004
Mof_H 	H 	-1.9035e-32	0.72755	0.27245	0.011
Mof_H 	H 	0.5805	0.5436	0.6782	0.001
Mof_H 	H 	0.5805	0.4564	0.1346	0.001
Mof_H 	H 	0.5	0.5461	0.77305	0.005
Mof_H 	H 	0.5805	0.1346	0.6782	0
Mof_H 	H 	0.3196	0.8678	0.1322	0.019
Mof_H 	H 	0.4195	0.6782	0.1346	0.001
Mof_H 	H 	0.3196	0.2644	0.1322	0.014
Mof_H 	H 	0.4195	0.5436	0.8654	0.005
Mof_H 	H 	0.6804	0.1322	0.2644	0.013
Mof_H 	H 	0.6804	0.1322	0.8678	0.018
Mof_H 	H 	0.5805	0.8654	0.5436	0.005
Mof_H 	H 	0.4195	0.8654	0.5436	0.005
Mof_H 	H 	0.4195	0.1346	0.4564	0.001
Mof_H 	H 	0.5805	0.3218	0.8654	0.005
Mof_H 	H 	0.5805	0.5436	0.8654	0.005
Mof_H 	H 	0.5805	0.6782	0.1346	0
Mof_H 	H 	0.5805	0.1346	0.4564	0.001
Mof_H 	H 	0.4195	0.3218	0.8654	0.005
Mof_H 	H 	-1.269e-32	0.27245	0.5449	0.011
Mof_H 	H 	0.4195	0.1346	0.6782	0.001
Mof_H 	H 	0.6804	0.8678	0.7356	0.018
Mof_H 	H 	0.5805	0.4564	0.3218	0.001
Mof_H 	H 	0.4195	0.4564	0.3218	0.001
Mof_H 	H 	0.3196	0.1322	0.8678	0.019
Mof_C 	C 	0.0491	2.85754e-17	0.3265	0.005
Mof_C 	C 	0.6297	0.3041	0.4262	0.104
Mof_C 	C 	0.3703	0.3041	0.4262	0.103
Mof_C 	C 	0.6297	0.5738	0.6959	0.105
Mof_C 	C 	0.3703	0.1221	0.4262	0.102
Mof_C 	C 	-0	0.74835	0.25165	0.073
Mof_C 	C 	0.6297	0.8779	0.5738	0.107
Mof_C 	C 	0.8416	0.5621	0.1756	0.049
Mof_C 	C 	0.1584	0.1756	0.6135	0.035
Mof_C 	C 	0.7424	0.1217	0.2434	0.112
Mof_C 	C 	0.5	0.24775	0.75225	0.106
Mof_C 	C 	0.2576	0.1217	0.8783	0.113
Mof_C 	C 	0.0491	0.6735	0.6735	0.014
Mof_C 	C 	0.9509	5.71507e-17	0.6735	0.088
Mof_C 	C 	0.5486	0.1727	0.1727	0.035
Mof_C 	C 	0.6297	0.3041	0.8779	0.107
Mof_C 	C 	0.1584	0.6135	0.1756	0.035
Mof_C 	C 	-0	0.5033	0.25165	0.072
Mof_C 	C 	0.6297	0.1221	0.6959	0.103
Mof_C 	C 	0.3703	0.6959	0.5738	0.104
Mof_C 	C 	0.5	0.75225	0.5045	0.106
Mof_C 	C 	0.3703	0.5738	0.6959	0.104
Mof_C 	C 	0.2576	0.1217	0.2434	0.11
Mof_C 	C 	0.6297	0.8779	0.3041	0.107
Mof_C 	C 	0.7424	0.1217	0.8783	0.116
Mof_C 	C 	0.6297	0.1221	0.4262	0.103
Mof_C 	C 	-6.345e-33	0.4967	0.74835	0.073
Mof_C 	C 	0.3703	0.8779	0.5738	0.106
Mof_C 	C 	1.9035e-32	0.25165	0.74835	0.073
Mof_C 	C 	0.0491	5.71507e-17	0.6735	0.005
Mof_C 	C 	0.3703	0.4262	0.3041	0.103
Mof_C 	C 	0.8416	0.1756	0.5621	0.049
Mof_C 	C 	0.8416	0.6135	0.1756	0.048
Mof_C 	C 	0.2576	0.2434	0.1217	0.11
Mof_C 	C 	0.1584	0.5621	0.1756	0.035
Mof_C 	C 	0.8416	0.4379	0.8244	0.056
Mof_C 	C 	0.3703	0.3041	0.8779	0.107
Mof_C 	C 	0.3703	0.1221	0.6959	0.102
Mof_C 	C 	0.4514	0.1727	0.1727	0.034
Mof_C 	C 	0.4514	0.8273	-0	0.034
Mof_C 	C 	0.5486	0.1727	-0	0.027
Mof_C 	C 	0.2576	0.8783	0.7566	0.115
Mof_C 	C 	0.5	0.5045	0.75225	0.106
Mof_C 	C 	0.2576	0.8783	0.1217	0.113
Mof_C 	C 	0.6297	0.5738	0.8779	0.107
Mof_C 	C 	0.8416	0.6135	0.4379	0.051
Mof_C 	C 	0.5	0.4955	0.24775	0.106
Mof_C 	C 	0.3703	0.8779	0.3041	0.107
Mof_C 	C 	0.8416	0.1756	0.6135	0.048
Mof_C 	C 	0.1584	0.4379	0.8244	0.043
Mof_C 	C 	0.5486	0.8273	-0	0.035
Mof_C 	C 	0.1584	0.6135	0.4379	0.037
Mof_C 	C 	0.3703	0.6959	0.1221	0.102
Mof_C 	C 	0.5	0.75225	0.24775	0.106
Mof_C 	C 	0.3703	0.5738	0.8779	0.106
Mof_C 	C 	0.9509	2.85754e-17	0.3265	0.088
Mof_C 	C 	0.8416	0.8244	0.3865	0.056
Mof_C 	C 	0.4514	0.8273	0.8273	0.049
Mof_C 	C 	0.9509	0.6735	-0	0.088
Mof_C 	C 	0.7424	0.8783	0.1217	0.116
Mof_C 	C 	0.6297	0.4262	0.1221	0.103
Mof_C 	C 	0.1584	0.4379	0.6135	0.037
Mof_C 	C 	0.0491	0.3265	0.3265	0.014
Mof_C 	C 	0.8416	0.3865	0.8244	0.056
Mof_C 	C 	0.1584	0.1756	0.5621	0.035
Mof_C 	C 	0.5486	1.42877e-17	0.1727	0.027
Mof_C 	C 	0.2576	0.7566	0.8783	0.115
Mof_C 	C 	0.1584	0.8244	0.3865	0.043
Mof_C 	C 	0.6297	0.4262	0.3041	0.104
Mof_C 	C 	0.8416	0.3865	0.5621	0.051
Mof_C 	C 	0.5486	5.71507e-17	0.8273	0.035
Mof_C 	C 	0.1584	0.3865	0.5621	0.038
Mof_C 	C 	0.4514	0.1727	-0	0.026
Mof_C 	C 	-0	0.25165	0.5033	0.072
Mof_C 	C 	0.9509	0.6735	0.6735	0.098
Mof_C 	C 	0.4514	1.42877e-17	0.1727	0.026
Mof_C 	C 	0.6297	0.6959	0.1221	0.103
Mof_C 	C 	0.5486	0.8273	0.8273	0.05
Mof_C 	C 	0.8416	0.8244	0.4379	0.056
Mof_C 	C 	6.345e-33	0.74835	0.4967	0.073
Mof_C 	C 	0.7424	0.8783	0.7566	0.118
Mof_C 	C 	0.1584	0.8244	0.4379	0.043
Mof_C 	C 	0.9509	0.3265	0.3265	0.098
Mof_C 	C 	0.4514	5.71507e-17	0.8273	0.034
Mof_C 	C 	0.3703	0.4262	0.1221	0.102
Mof_C 	C 	0.0491	0.3265	-0	0.005
Mof_C 	C 	0.7424	0.7566	0.8783	0.118
Mof_C 	C 	0.8416	0.4379	0.6135	0.051
Mof_C 	C 	0.7424	0.2434	0.1217	0.112
Mof_C 	C 	0.8416	0.5621	0.3865	0.051
Mof_C 	C 	0.1584	0.3865	0.8244	0.043
Mof_C 	C 	0.9509	0.3265	-0	0.088
Mof_C 	C 	0.5	0.24775	0.4955	0.106
Mof_C 	C 	0.6297	0.6959	0.5738	0.105
Mof_C 	C 	0.1584	0.5621	0.3865	0.038
Mof_C 	C 	0.0491	0.6735	-0	0.005
Mof_N 	N 	0.8724	0.8017	0.8759	-0.058
Mof_N 	N 	0.0492	0.20715	0.4143	-0.046
Mof_N 	N 	0.7532	0.6247	0.2494	-0.073
Mof_N 	N 	0.9508	0.79285	0.5857	-0.013
Mof_N 	N 	0.2134	0.5697	0.3479	-0.104
Mof_N 	N 	0.4184	0.2209	-0	-0.106
Mof_N 	N 	0.7105	0.8477	0.2763	-0.108
Mof_N 	N 	0.2468	0.2494	0.6247	-0.075
Mof_N 	N 	0.6265	0.0717	0.3757	-0.118
Mof_N 	N 	0.2083	0.9277	0.7734	-0.1
Mof_N 	N 	0.8724	0.1983	0.0742	-0.065
Mof_N 	N 	0.5816	5.71507e-17	0.7791	-0.107
Mof_N 	N 	0.5496	0.70815	0.29185	-0.071
Mof_N 	N 	0.7917	0.8457	0.7734	-0.109
Mof_N 	N 	0.9188	0.5301	0.76505	-0.092
Mof_N 	N 	0.2083	0.7734	0.8457	-0.111
Mof_N 	N 	0.1276	0.8017	0.8759	-0.07
Mof_N 	N 	-1.269e-32	0.7495	0.7495	-0.077
Mof_N 	N 	0.2451	0.8788	0.2559	-0.034
Mof_N 	N 	0.2134	0.6521	0.2218	-0.104
Mof_N 	N 	0.6265	0.304	0.3757	-0.116
Mof_N 	N 	0.7064	0.9284	0.2726	-0.056
Mof_N 	N 	0.7866	0.2218	0.6521	-0.103
Mof_N 	N 	0.9186	0.2783	-0	-0.093
Mof_N 	N 	0.0492	0.79285	0.5857	-0.044
Mof_N 	N 	0.2083	0.8457	0.7734	-0.111
Mof_N 	N 	0.2936	0.6558	0.9284	-0.057
Mof_N 	N 	0.2083	0.0723	0.8457	-0.113
Mof_N 	N 	0.2083	0.0723	0.2266	-0.114
Mof_N 	N 	0.2936	0.3442	0.2726	-0.07
Mof_N 	N 	0.4176	0.7362	0.4724	-0.117
Mof_N 	N 	-6.345e-33	0.2505	0.2505	-0.077
Mof_N 	N 	0.2895	0.4286	0.1523	-0.111
Mof_N 	N 	0.2936	0.6558	0.7274	-0.069
Mof_N 	N 	0.5824	0.7362	0.4724	-0.117
Mof_N 	N 	0.3735	0.696	0.6243	-0.116
Mof_N 	N 	0.7917	0.2266	0.0723	-0.112
Mof_N 	N 	0.7549	0.8788	0.6229	-0.032
Mof_N 	N 	0.7917	0.2266	0.1543	-0.111
Mof_N 	N 	0.0492	0.79285	0.20715	-0.043
Mof_N 	N 	0.2468	0.6247	0.3753	-0.074
Mof_N 	N 	0.7917	0.8457	0.0723	-0.111
Mof_N 	N 	0.3735	0.6243	0.9283	-0.104
Mof_N 	N 	0.7549	0.8788	0.2559	-0.031
Mof_N 	N 	0.9186	0.2783	0.2783	-0.09
Mof_N 	N 	0.3735	0.0717	0.3757	-0.118
Mof_N 	N 	0.4504	0.29185	0.70815	-0.071
Mof_N 	N 	0.2134	0.2218	0.6521	-0.104
Mof_N 	N 	0.2936	0.3442	0.0716	-0.071
Mof_N 	N 	0.1276	0.8759	0.8017	-0.07
Mof_N 	N 	0.5824	0.2638	0.7362	-0.117
Mof_N 	N 	0.6265	0.304	0.9283	-0.104
Mof_N 	N 	0.9186	0.7217	-0	-0.094
Mof_N 	N 	0.9508	0.4143	0.20715	-0.015
Mof_N 	N 	0.4184	0.2209	0.2209	-0.103
Mof_N 	N 	0.9508	0.20715	0.79285	-0.013
Mof_N 	N 	0.2468	0.3753	0.6247	-0.074
Mof_N 	N 	0.1276	0.9258	0.1241	-0.062
Mof_N 	N 	0.3735	0.9283	0.304	-0.104
Mof_N 	N 	0.7105	0.2763	0.4286	-0.109
Mof_N 	N 	0.2895	0.4286	0.2763	-0.11
Mof_N 	N 	0.8724	0.1241	0.1983	-0.064
Mof_N 	N 	0.6265	0.9283	0.304	-0.104
Mof_N 	N 	0.7549	0.2559	0.8788	-0.031
Mof_N 	N 	0.3735	0.304	0.3757	-0.116
Mof_N 	N 	0.5816	1.42877e-17	0.2209	-0.107
Mof_N 	N 	0.5496	0.4163	0.70815	-0.071
Mof_N 	N 	0.7064	0.3442	0.2726	-0.069
Mof_N 	N 	0.1276	0.8759	0.0742	-0.072
Mof_N 	N 	0.7549	0.3771	0.1212	-0.036
Mof_N 	N 	0.2083	0.9277	0.1543	-0.1
Mof_N 	N 	0.7105	0.2763	0.8477	-0.108
Mof_N 	N 	0.5	0.7494	0.7494	-0.068
Mof_N 	N 	0.7866	0.7782	0.3479	-0.103
Mof_N 	N 	0.4504	0.4163	0.70815	-0.071
Mof_N 	N 	0.2936	0.2726	0.3442	-0.07
Mof_N 	N 	0.7917	0.0723	0.8457	-0.111
Mof_N 	N 	0.7532	0.6247	0.3753	-0.072
Mof_N 	N 	0.2134	0.3479	0.7782	-0.104
Mof_N 	N 	0.8724	0.1241	0.9258	-0.051
Mof_N 	N 	0.9188	0.76505	0.23495	-0.092
Mof_N 	N 	0.7917	0.7734	0.8457	-0.109
Mof_N 	N 	0.2895	0.7237	0.1523	-0.111
Mof_N 	N 	0.2083	0.2266	0.1543	-0.113
Mof_N 	N 	0.2468	0.6247	0.2494	-0.075
Mof_N 	N 	0.5496	0.5837	0.29185	-0.071
Mof_N 	N 	0.2895	0.8477	0.5714	-0.109
Mof_N 	N 	0.0492	0.4143	0.20715	-0.046
Mof_N 	N 	0.7866	0.7782	0.4303	-0.103
Mof_N 	N 	0.0814	0.2783	-0	-0.097
Mof_N 	N 	0.9186	2.85754e-17	0.2783	-0.093
Mof_N 	N 	0.2895	0.1523	0.7237	-0.111
Mof_N 	N 	0.2451	0.3771	0.1212	-0.039
Mof_N 	N 	0.6265	0.6243	0.696	-0.116
Mof_N 	N 	0.3735	0.304	0.9283	-0.104
Mof_N 	N 	0.9508	0.20715	0.4143	-0.015
Mof_N 	N 	0.7549	0.1212	0.7441	-0.035
Mof_N 	N 	0.7105	0.5714	0.7237	-0.109
Mof_N 	N 	0.8724	0.0742	0.1983	-0.065
Mof_N 	N 	0.2134	0.4303	0.7782	-0.104
Mof_N 	N 	0.2134	0.2218	0.5697	-0.104
Mof_N 	N 	-6.345e-33	2.85754e-17	0.2505	-0.081
Mof_N 	N 	0.2895	0.8477	0.2763	-0.109
Mof_N 	N 	0.2895	0.5714	0.8477	-0.109
Mof_N 	N 	0.2134	0.3479	0.5697	-0.104
Mof_N 	N 	0.6265	0.696	0.6243	-0.116
Mof_N 	N 	0.6265	0.9283	0.6243	-0.104
Mof_N 	N 	0.2083	0.2266	0.0723	-0.114
Mof_N 	N 	1.269e-32	0	0.7495	-0.081
Mof_N 	N 	0.5	0.2506	-0	-0.073
Mof_N 	N 	0.7549	0.7441	0.6229	-0.035
Mof_N 	N 	0.7064	0.9284	0.6558	-0.056
Mof_N 	N 	0.5	5.71507e-17	0.7494	-0.073
Mof_N 	N 	0.4176	0.2638	0.5276	-0.117
Mof_N 	N 	0.2083	0.7734	0.9277	-0.1
Mof_N 	N 	0.1276	0.1983	0.0742	-0.076
Mof_N 	N 	0.7532	0.3753	0.6247	-0.072
Mof_N 	N 	0.0812	0.23495	0.76505	-0.108
Mof_N 	N 	0.7866	0.4303	0.7782	-0.103
Mof_N 	N 	0.7532	0.7506	0.3753	-0.072
Mof_N 	N 	0.2134	0.5697	0.2218	-0.104
Mof_N 	N 	0.2451	0.1212	0.3771	-0.039
Mof_N 	N 	0.0814	2.85754e-17	0.2783	-0.097
Mof_N 	N 	0.2451	0.8788	0.6229	-0.035
Mof_N 	N 	-1.269e-32	0.7495	-0	-0.081
Mof_N 	N 	0.7866	0.5697	0.3479	-0.103
Mof_N 	N 	0.8724	0.1983	0.1241	-0.064
Mof_N 	N 	0.5824	0.2638	0.5276	-0.118
Mof_N 	N 	0.2895	0.5714	0.7237	-0.11
Mof_N 	N 	0.2936	0.9284	0.6558	-0.057
Mof_N 	N 	0.9508	0.5857	0.79285	-0.013
Mof_N 	N 	0.2451	0.7441	0.6229	-0.038
Mof_N 	N 	0.7917	0.9277	0.1543	-0.098
Mof_N 	N 	0.3735	0.6243	0.696	-0.116
Mof_N 	N 	0.3735	0.0717	0.696	-0.118
Mof_N 	N 	0.2895	0.7237	0.5714	-0.11
Mof_N 	N 	0.2451	0.6229	0.7441	-0.038
Mof_N 	N 	0.5496	0.29185	0.70815	-0.071
Mof_N 	N 	0.1276	0.1241	0.9258	-0.062
Mof_N 	N 	0.1276	0.1241	0.1983	-0.075
Mof_N 	N 	0.1276	0.8017	0.9258	-0.061
Mof_N 	N 	0.7917	0.0723	0.2266	-0.112
Mof_N 	N 	0.7064	0.3442	0.0716	-0.07
Mof_N 	N 	0.9186	5.71507e-17	0.7217	-0.094
Mof_N 	N 	0.2936	0.2726	0.9284	-0.056
Mof_N 	N 	0.7105	0.1523	0.7237	-0.11
Mof_N 	N 	0.2451	0.6229	0.8788	-0.035
Mof_N 	N 	0.7105	0.8477	0.5714	-0.108
Mof_N 	N 	0.8724	0.0742	0.8759	-0.061
Mof_N 	N 	0.6265	0.6243	0.9283	-0.104
Mof_N 	N 	0.4176	0.5276	0.2638	-0.117
Mof_N 	N 	0.7866	0.5697	0.2218	-0.103
Mof_N 	N 	0.3735	0.696	0.0717	-0.118
Mof_N 	N 	0.9188	0.23495	0.4699	-0.093
Mof_N 	N 	0.4176	0.2638	0.7362	-0.117
Mof_N 	N 	0.7917	0.9277	0.7734	-0.098
Mof_N 	N 	0.8724	0.8759	0.0742	-0.061
Mof_N 	N 	0.0812	0.76505	0.5301	-0.108
Mof_N 	N 	0.9186	0.7217	0.7217	-0.09
Mof_N 	N 	0.5824	0.4724	0.7362	-0.117
Mof_N 	N 	0.2895	0.2763	0.8477	-0.109
Mof_N 	N 	0.7549	0.6229	0.7441	-0.035
Mof_N 	N 	0.0812	0.76505	0.23495	-0.108
Mof_N 	N 	0.4504	0.70815	0.29185	-0.071
Mof_N 	N 	0.7549	0.3771	0.2559	-0.036
Mof_N 	N 	0.7105	0.4286	0.2763	-0.109
Mof_N 	N 	0.8724	0.9258	0.8017	-0.05
Mof_N 	N 	0.7064	0.2726	0.3442	-0.069
Mof_N 	N 	0.8724	0.8759	0.8017	-0.058
Mof_N 	N 	0.5496	0.29185	0.5837	-0.071
Mof_N 	N 	0.4176	0.7362	0.2638	-0.117
Mof_N 	N 	0.9188	0.76505	0.5301	-0.092
Mof_N 	N 	0.8724	0.9258	0.1241	-0.051
Mof_N 	N 	0.7866	0.6521	0.2218	-0.103
Mof_N 	N 	0.0812	0.23495	0.4699	-0.108
Mof_N 	N 	0.2134	0.7782	0.3479	-0.104
Mof_N 	N 	0.7064	0.2726	0.9284	-0.056
Mof_N 	N 	0.0814	5.71507e-17	0.7217	-0.097
Mof_N 	N 	0.2895	0.2763	0.4286	-0.11
Mof_N 	N 	0.5816	0.2209	0.2209	-0.103
Mof_N 	N 	0.2451	0.7441	0.1212	-0.039
Mof_N 	N 	0.3735	0.9283	0.6243	-0.104
Mof_N 	N 	0.7064	0.6558	0.7274	-0.069
Mof_N 	N 	0.7532	0.3753	0.7506	-0.072
Mof_N 	N 	0.5824	0.5276	0.2638	-0.118
Mof_N 	N 	0.2451	0.2559	0.3771	-0.039
Mof_N 	N 	0.7105	0.7237	0.1523	-0.11
Mof_N 	N 	0.7064	0.7274	0.0716	-0.07
Mof_N 	N 	0.2936	0.9284	0.2726	-0.056
Mof_N 	N 	0.7532	0.2494	0.6247	-0.073
Mof_N 	N 	0.6265	0.696	0.0717	-0.118
Mof_N 	N 	0.1276	0.9258	0.8017	-0.061
Mof_N 	N 	0.5	0.2506	0.2506	-0.068
Mof_N 	N 	0.7105	0.7237	0.5714	-0.109
Mof_N 	N 	0.7064	0.0716	0.7274	-0.07
Mof_N 	N 	0.5816	0.7791	-0	-0.107
Mof_N 	N 	0.7866	0.6521	0.4303	-0.103
Mof_N 	N 	0.7549	0.1212	0.3771	-0.036
Mof_N 	N 	0.2134	0.7782	0.4303	-0.104
Mof_N 	N 	0.4184	0.7791	-0	-0.107
Mof_N 	N 	0.2451	0.1212	0.7441	-0.039
Mof_N 	N 	0.7064	0.6558	0.9284	-0.056
Mof_N 	N 	0.7105	0.4286	0.1523	-0.11
Mof_N 	N 	0.2451	0.2559	0.8788	-0.034
Mof_N 	N 	0.5824	0.7362	0.2638	-0.117
Mof_N 	N 	0.3735	0.3757	0.304	-0.116
Mof_N 	N 	0.1276	0.1983	0.1241	-0.075
Mof_N 	N 	0.6265	0.0717	0.696	-0.118
Mof_N 	N 	0.3735	0.3757	0.0717	-0.118
Mof_N 	N 	0.7866	0.3479	0.7782	-0.103
Mof_N 	N 	0.0492	0.5857	0.79285	-0.044
Mof_N 	N 	0.2936	0.0716	0.3442	-0.071
Mof_N 	N 	0.0492	0.20715	0.79285	-0.043
Mof_N 	N 	0.2134	0.6521	0.4303	-0.104
Mof_N 	N 	0.2936	0.0716	0.7274	-0.071
Mof_N 	N 	0.4176	0.4724	0.7362	-0.117
Mof_N 	N 	0.4504	0.70815	0.4163	-0.071
Mof_N 	N 	0.2134	0.4303	0.6521	-0.104
Mof_N 	N 	0.4184	5.71507e-17	0.7791	-0.107
Mof_N 	N 	0.2936	0.7274	0.0716	-0.071
Mof_N 	N 	0.2468	0.7506	0.3753	-0.074
Mof_N 	N 	0.7549	0.7441	0.1212	-0.035
Mof_N 	N 	0.1276	0.0742	0.8759	-0.072
Mof_N 	N 	0.0812	0.4699	0.23495	-0.108
Mof_N 	N 	0.0814	0.7217	0.7217	-0.094
Mof_N 	N 	0.7105	0.1523	0.4286	-0.11
Mof_N 	N 	0.7866	0.3479	0.5697	-0.103
Mof_N 	N 	0.8724	0.8017	0.9258	-0.05
Mof_N 	N 	0.5496	0.70815	0.4163	-0.071
Mof_N 	N 	0.0814	0.7217	-0	-0.097
Mof_N 	N 	0.5	2.85754e-17	0.2506	-0.073
Mof_N 	N 	0.2083	0.1543	0.2266	-0.113
Mof_N 	N 	0.9188	0.4699	0.23495	-0.093
Mof_N 	N 	0.0812	0.5301	0.76505	-0.108
Mof_N 	N 	0.4184	0.7791	0.7791	-0.103
Mof_N 	N 	0.7866	0.4303	0.6521	-0.103
Mof_N 	N 	0.7917	0.1543	0.9277	-0.098
Mof_N 	N 	0.0814	0.2783	0.2783	-0.093
Mof_N 	N 	0.6265	0.3757	0.304	-0.116
Mof_N 	N 	0.2936	0.7274	0.6558	-0.069
Mof_N 	N 	0.5816	0.7791	0.7791	-0.103
Mof_N 	N 	0.7866	0.2218	0.5697	-0.103
Mof_N 	N 	0.7549	0.6229	0.8788	-0.032
Mof_N 	N 	0.4504	0.29185	0.5837	-0.071
Mof_N 	N 	-0	0.2505	-0	-0.081
Mof_N 	N 	0.7549	0.2559	0.3771	-0.036
Mof_N 	N 	0.6265	0.3757	0.0717	-0.118
Mof_N 	N 	0.7105	0.5714	0.8477	-0.108
Mof_N 	N 	0.7917	0.7734	0.9277	-0.098
Mof_N 	N 	0.5	0.7494	-0	-0.073
Mof_N 	N 	0.2468	0.3753	0.7506	-0.074
Mof_N 	N 	0.7064	0.0716	0.3442	-0.07
Mof_N 	N 	0.2083	0.8457	0.0723	-0.113
Mof_N 	N 	0.2083	0.1543	0.9277	-0.1
Mof_N 	N 	0.9188	0.23495	0.76505	-0.092
Mof_N 	N 	0.4504	0.5837	0.29185	-0.071
Mof_N 	N 	0.1276	0.0742	0.1983	-0.076
Mof_N 	N 	0.4184	1.42877e-17	0.2209	-0.106
Mof_N 	N 	0.7917	0.1543	0.2266	-0.111
Mof_N 	N 	0.2451	0.3771	0.2559	-0.039
Mof_N 	N 	0.7064	0.7274	0.6558	-0.069
Mof_N 	N 	0.5816	0.2209	-0	-0.107
Mof_N 	N 	0.2895	0.1523	0.4286	-0.111
Mof_N 	N 	0.9508	0.79285	0.20715	-0.013
_end
