# CIF file generated by openbabel 3.1.0, see https://openbabel.org
data_I
_chemical_name_common 'LUFNAC01_clean'
_cell_length_a 11.885
_cell_length_b 11.885
_cell_length_c 16.344
_cell_angle_alpha 73.4831
_cell_angle_beta 73.4831
_cell_angle_gamma 78.51
_space_group_name_H-M_alt 'P 1'
_space_group_name_Hall 'P 1'
loop_
    _symmetry_equiv_pos_as_xyz
    x,y,z
loop_
    _atom_site_label
    _atom_site_type_symbol
    _atom_site_fract_x
    _atom_site_fract_y
    _atom_site_fract_z
    _atom_site_occupancy
    Mn1      Mn       0.33250    0.11538    0.54706    1.000
    Mn2      Mn       0.88462    0.66750    0.95294    1.000
    Mn3      Mn       0.66750    0.88462    0.45294    1.000
    Mn4      Mn       0.11538    0.33250    0.04706    1.000
    H1       H        0.95270    0.66470    0.53680    1.000
    H2       H        0.98710    0.64230    0.74490    1.000
    H3       H        0.16380    0.31300    0.77460    1.000
    H4       H        0.07520    0.47980    0.54640    1.000
    H5       H        0.87760    0.76640    0.67180    1.000
    H6       H        0.86190    0.82730    0.57660    1.000
    H7       H        0.13420    0.79500    0.49970    1.000
    H8       H        0.92220    0.95960    0.67920    1.000
    H9       H        0.06790    0.07370    0.65460    1.000
    H10      H        0.27430    0.91310    0.48210    1.000
    H11      H        0.33530    0.04730    0.96320    1.000
    H12      H        0.35770    0.01290    0.75510    1.000
    H13      H        0.68700    0.83620    0.72540    1.000
    H14      H        0.52020    0.92480    0.95360    1.000
    H15      H        0.23360    0.12240    0.82820    1.000
    H16      H        0.17270    0.13810    0.92340    1.000
    H17      H        0.20500    0.86580    0.00030    1.000
    H18      H        0.04040    0.07780    0.82080    1.000
    H19      H        0.92630    0.93210    0.84540    1.000
    H20      H        0.08690    0.72570    0.01790    1.000
    H21      H        0.04730    0.33530    0.46320    1.000
    H22      H        0.01290    0.35770    0.25510    1.000
    H23      H        0.83620    0.68700    0.22540    1.000
    H24      H        0.92480    0.52020    0.45360    1.000
    H25      H        0.12240    0.23360    0.32820    1.000
    H26      H        0.13810    0.17270    0.42340    1.000
    H27      H        0.86580    0.20500    0.50030    1.000
    H28      H        0.07780    0.04040    0.32080    1.000
    H29      H        0.93210    0.92630    0.34540    1.000
    H30      H        0.72570    0.08690    0.51790    1.000
    H31      H        0.66470    0.95270    0.03680    1.000
    H32      H        0.64230    0.98710    0.24490    1.000
    H33      H        0.31300    0.16380    0.27460    1.000
    H34      H        0.47980    0.07520    0.04640    1.000
    H35      H        0.76640    0.87760    0.17180    1.000
    H36      H        0.82730    0.86190    0.07660    1.000
    H37      H        0.79500    0.13420    0.99970    1.000
    H38      H        0.95960    0.92220    0.17920    1.000
    H39      H        0.07370    0.06790    0.15460    1.000
    H40      H        0.91310    0.27430    0.98210    1.000
    C1       C        0.01830    0.57830    0.63650    1.000
    C2       C        0.07450    0.47570    0.77440    1.000
    C3       C        0.18980    0.27760    0.61640    1.000
    C4       C        0.12630    0.38070    0.65520    1.000
    C5       C        0.02100    0.57640    0.72230    1.000
    C6       C        0.12740    0.37900    0.74060    1.000
    C7       C        0.01340    0.85860    0.59580    1.000
    C8       C        0.07340    0.47540    0.86650    1.000
    C9       C        0.07370    0.47930    0.60370    1.000
    C10      C        0.91880    0.78280    0.61000    1.000
    C11      C        0.11920    0.84940    0.53390    1.000
    C12      C        0.99410    0.94650    0.63950    1.000
    C13      C        0.08280    0.01540    0.62370    1.000
    C14      C        0.20260    0.92200    0.52320    1.000
    C15      C        0.42170    0.98170    0.86350    1.000
    C16      C        0.52430    0.92550    0.72560    1.000
    C17      C        0.72240    0.81020    0.88360    1.000
    C18      C        0.61930    0.87370    0.84480    1.000
    C19      C        0.42360    0.97900    0.77770    1.000
    C20      C        0.62100    0.87260    0.75940    1.000
    C21      C        0.14140    0.98660    0.90420    1.000
    C22      C        0.52460    0.92660    0.63350    1.000
    C23      C        0.52070    0.92630    0.89630    1.000
    C24      C        0.21720    0.08120    0.89000    1.000
    C25      C        0.15060    0.88080    0.96610    1.000
    C26      C        0.05350    0.00590    0.86050    1.000
    C27      C        0.98460    0.91720    0.87630    1.000
    C28      C        0.07800    0.79740    0.97680    1.000
    C29      C        0.98170    0.42170    0.36350    1.000
    C30      C        0.92550    0.52430    0.22560    1.000
    C31      C        0.81020    0.72240    0.38360    1.000
    C32      C        0.87370    0.61930    0.34480    1.000
    C33      C        0.97900    0.42360    0.27770    1.000
    C34      C        0.87260    0.62100    0.25940    1.000
    C35      C        0.98660    0.14140    0.40420    1.000
    C36      C        0.92660    0.52460    0.13350    1.000
    C37      C        0.92630    0.52070    0.39630    1.000
    C38      C        0.08120    0.21720    0.39000    1.000
    C39      C        0.88080    0.15060    0.46610    1.000
    C40      C        0.00590    0.05350    0.36050    1.000
    C41      C        0.91720    0.98460    0.37630    1.000
    C42      C        0.79740    0.07800    0.47680    1.000
    C43      C        0.57830    0.01830    0.13650    1.000
    C44      C        0.47570    0.07450    0.27440    1.000
    C45      C        0.27760    0.18980    0.11640    1.000
    C46      C        0.38070    0.12630    0.15520    1.000
    C47      C        0.57640    0.02100    0.22230    1.000
    C48      C        0.37900    0.12740    0.24060    1.000
    C49      C        0.85860    0.01340    0.09580    1.000
    C50      C        0.47540    0.07340    0.36650    1.000
    C51      C        0.47930    0.07370    0.10370    1.000
    C52      C        0.78280    0.91880    0.11000    1.000
    C53      C        0.84940    0.11920    0.03390    1.000
    C54      C        0.94650    0.99410    0.13950    1.000
    C55      C        0.01540    0.08280    0.12370    1.000
    C56      C        0.92200    0.20260    0.02320    1.000
    N1       N        0.18630    0.00450    0.56850    1.000
    N2       N        0.96220    0.67220    0.58510    1.000
    N3       N        0.99550    0.81370    0.93150    1.000
    N4       N        0.32780    0.03780    0.91490    1.000
    N5       N        0.81370    0.99550    0.43150    1.000
    N6       N        0.03780    0.32780    0.41490    1.000
    N7       N        0.00450    0.18630    0.06850    1.000
    N8       N        0.67220    0.96220    0.08510    1.000
    O1       O        0.23750    0.18830    0.66440    1.000
    O2       O        0.19720    0.28280    0.53690    1.000
    O3       O        0.11440    0.38000    0.91120    1.000
    O4       O        0.03770    0.56990    0.89140    1.000
    O5       O        0.81170    0.76250    0.83560    1.000
    O6       O        0.71720    0.80280    0.96310    1.000
    O7       O        0.62000    0.88560    0.58880    1.000
    O8       O        0.43010    0.96230    0.60860    1.000
    O9       O        0.76250    0.81170    0.33560    1.000
    O10      O        0.80280    0.71720    0.46310    1.000
    O11      O        0.88560    0.62000    0.08880    1.000
    O12      O        0.96230    0.43010    0.10860    1.000
    O13      O        0.18830    0.23750    0.16440    1.000
    O14      O        0.28280    0.19720    0.03690    1.000
    O15      O        0.38000    0.11440    0.41120    1.000
    O16      O        0.56990    0.03770    0.39140    1.000
