data_functionalizedCrystal
_audit_creation_method	'EQeq! by Chris Wilmer'
_symmetry_space_group_name_H-M	'P1'
_symmetry_Int_Tables_number	1
_symmetry_cell_setting	triclinic
loop_
_symmetry_equiv_pos_as_xyz
  x,y,z
_cell_length_a	7.116
_cell_length_b	13.987
_cell_length_c	14.916
_cell_angle_alpha	90
_cell_angle_beta	101.599
_cell_angle_gamma	90
loop_
_atom_site_label
_atom_site_type_symbol
_atom_site_fract_x
_atom_site_fract_y
_atom_site_fract_z
_atom_site_charge
Mof_Mn	Mn	0.2335	0.56536	0.03251	0.884
Mof_O 	O 	0.7912	0.95547	0.37491	-0.401
Mof_O 	O 	0.782	0.53735	0.07534	-0.375
Mof_O 	O 	0.0315	0.8575	0.4384	-0.393
Mof_O 	O 	0.5106	0.61846	0.02513	-0.384
Mof_C 	C 	0.7418	0.7814	0.1291	0.043
Mof_C 	C 	0.7401	0.6825	0.1494	-0.114
Mof_C 	C 	0.8457	0.8158	0.2937	-0.106
Mof_C 	C 	0.8544	0.7191	0.3099	-0.012
Mof_H 	H 	0.8964	0.6972	0.3694	0.042
Mof_C 	C 	0.6723	0.6076	0.0777	0.361
Mof_C 	C 	0.7929	0.8493	0.2014	0.044
Mof_C 	C 	0.7011	0.8149	0.037	-0.085
Mof_H 	H 	0.6693	0.7714	0.9892	0.071
Mof_C 	C 	0.8015	0.6523	0.2388	-0.019
Mof_H 	H 	0.8079	0.5873	0.252	0.04
Mof_C 	C 	0.799	0.948	0.1785	-0.079
Mof_H 	H 	0.831	0.9934	0.2246	0.068
Mof_C 	C 	0.8932	0.8825	0.3749	0.389
Mof_C 	C 	0.7083	0.9098	0.0182	-0.019
Mof_H 	H 	0.6797	0.9304	0.9577	0.035
Mof_C 	C 	0.7577	0.9763	0.0881	-0.03
Mof_H 	H 	0.7629	0.0409	0.0737	0.04
Mof_Mn	Mn	0.7665	0.06536	0.46749	0.889
Mof_O 	O 	0.2088	0.45547	0.12509	-0.399
Mof_O 	O 	0.218	0.03735	0.42466	-0.377
Mof_O 	O 	0.9685	0.3575	0.0616	-0.388
Mof_O 	O 	0.4894	0.11846	0.47487	-0.385
Mof_C 	C 	0.2582	0.2814	0.3709	0.046
Mof_C 	C 	0.2599	0.1825	0.3506	-0.116
Mof_C 	C 	0.1543	0.3158	0.2063	-0.104
Mof_C 	C 	0.1456	0.2191	0.1901	-0.014
Mof_H 	H 	0.1036	0.1972	0.1306	0.041
Mof_C 	C 	0.3277	0.1076	0.4223	0.361
Mof_C 	C 	0.2071	0.3493	0.2986	0.041
Mof_C 	C 	0.2989	0.3149	0.463	-0.089
Mof_H 	H 	0.3307	0.2714	0.5108	0.074
Mof_C 	C 	0.1985	0.1523	0.2612	-0.018
Mof_H 	H 	0.1921	0.0873	0.248	0.039
Mof_C 	C 	0.201	0.448	0.3215	-0.076
Mof_H 	H 	0.169	0.4934	0.2754	0.066
Mof_C 	C 	0.1068	0.3825	0.1251	0.383
Mof_C 	C 	0.2917	0.4098	0.4818	-0.019
Mof_H 	H 	0.3203	0.4304	0.5423	0.036
Mof_C 	C 	0.2423	0.4763	0.4119	-0.034
Mof_H 	H 	0.2371	0.5409	0.4263	0.042
Mof_Mn	Mn	0.7665	0.43464	0.96749	0.885
Mof_O 	O 	0.2088	0.04453	0.62509	-0.4
Mof_O 	O 	0.218	0.46265	0.92466	-0.375
Mof_O 	O 	0.9685	0.1425	0.5616	-0.393
Mof_O 	O 	0.4894	0.38154	0.97487	-0.384
Mof_C 	C 	0.2582	0.2186	0.8709	0.043
Mof_C 	C 	0.2599	0.3175	0.8506	-0.114
Mof_C 	C 	0.1543	0.1842	0.7063	-0.106
Mof_C 	C 	0.1456	0.2809	0.6901	-0.012
Mof_H 	H 	0.1036	0.3028	0.6306	0.042
Mof_C 	C 	0.3277	0.3924	0.9223	0.361
Mof_C 	C 	0.2071	0.1507	0.7986	0.044
Mof_C 	C 	0.2989	0.1851	0.963	-0.085
Mof_H 	H 	0.3307	0.2286	0.0108	0.071
Mof_C 	C 	0.1985	0.3477	0.7612	-0.019
Mof_H 	H 	0.1921	0.4127	0.748	0.04
Mof_C 	C 	0.201	0.052	0.8215	-0.079
Mof_H 	H 	0.169	0.0066	0.7754	0.068
Mof_C 	C 	0.1068	0.1175	0.6251	0.389
Mof_C 	C 	0.2917	0.0902	0.9818	-0.019
Mof_H 	H 	0.3203	0.0696	0.0423	0.035
Mof_C 	C 	0.2423	0.0237	0.9119	-0.03
Mof_H 	H 	0.2371	0.9591	0.9263	0.04
Mof_Mn	Mn	0.2335	0.93464	0.53251	0.889
Mof_O 	O 	0.7912	0.54453	0.87491	-0.399
Mof_O 	O 	0.782	0.96265	0.57534	-0.377
Mof_O 	O 	0.0315	0.6425	0.9384	-0.388
Mof_O 	O 	0.5106	0.88154	0.52513	-0.385
Mof_C 	C 	0.7418	0.7186	0.6291	0.046
Mof_C 	C 	0.7401	0.8175	0.6494	-0.116
Mof_C 	C 	0.8457	0.6842	0.7937	-0.104
Mof_C 	C 	0.8544	0.7809	0.8099	-0.014
Mof_H 	H 	0.8964	0.8028	0.8694	0.041
Mof_C 	C 	0.6723	0.8924	0.5777	0.361
Mof_C 	C 	0.7929	0.6507	0.7014	0.041
Mof_C 	C 	0.7011	0.6851	0.537	-0.089
Mof_H 	H 	0.6693	0.7286	0.4892	0.074
Mof_C 	C 	0.8015	0.8477	0.7388	-0.018
Mof_H 	H 	0.8079	0.9127	0.752	0.039
Mof_C 	C 	0.799	0.552	0.6785	-0.076
Mof_H 	H 	0.831	0.5066	0.7246	0.066
Mof_C 	C 	0.8932	0.6175	0.8749	0.383
Mof_C 	C 	0.7083	0.5902	0.5182	-0.019
Mof_H 	H 	0.6797	0.5696	0.4577	0.036
Mof_C 	C 	0.7577	0.5237	0.5881	-0.034
Mof_H 	H 	0.7629	0.4591	0.5737	0.042
_end
