# CIF file generated by openbabel 3.1.0, see https://openbabel.org
data_I
_chemical_name_common 'WUBHEI_clean'
_cell_length_a 6.8953
_cell_length_b 10.1226
_cell_length_c 20.2406
_cell_angle_alpha 92.703
_cell_angle_beta 90
_cell_angle_gamma 109.913
_space_group_name_H-M_alt 'P 1'
_space_group_name_Hall 'P 1'
loop_
    _symmetry_equiv_pos_as_xyz
    x,y,z
loop_
    _atom_site_label
    _atom_site_type_symbol
    _atom_site_fract_x
    _atom_site_fract_y
    _atom_site_fract_z
    _atom_site_occupancy
    Sr1      Sr       0.90512    0.15664    0.31859    1.000
    Sr2      Sr       0.74848    0.84336    0.18140    1.000
    Sr3      Sr       0.09488    0.84336    0.68140    1.000
    Sr4      Sr       0.50000    0.50000    0.00000    1.000
    Sr5      Sr       0.00000    0.50000    0.50000    1.000
    Sr6      Sr       0.25152    0.15664    0.81859    1.000
    H1       H        0.92340    0.45880    0.09860    1.000
    H2       H        0.96060    0.29520    0.73460    1.000
    H3       H        0.85840    0.03880    0.71850    1.000
    H4       H        0.03940    0.70480    0.26540    1.000
    H5       H        0.66540    0.70480    0.76540    1.000
    H6       H        0.53540    0.45880    0.59860    1.000
    H7       H        0.14160    0.96120    0.28150    1.000
    H8       H        0.18040    0.03880    0.21850    1.000
    H9       H        0.81960    0.96120    0.78150    1.000
    H10      H        0.46460    0.54120    0.40140    1.000
    H11      H        0.33460    0.29520    0.23460    1.000
    H12      H        0.07660    0.54120    0.90140    1.000
    C1       C        0.01401    0.39042    0.82595    1.000
    C2       C        0.16293    0.79006    0.84788    1.000
    C3       C        0.46135    0.50230    0.22196    1.000
    C4       C        0.45951    0.52682    0.35631    1.000
    C5       C        0.06731    0.52682    0.85631    1.000
    C6       C        0.98599    0.60958    0.17405    1.000
    C7       C        0.97023    0.50266    0.35232    1.000
    C8       C        0.04095    0.50230    0.72196    1.000
    C9       C        0.53243    0.50266    0.85232    1.000
    C10      C        0.46480    0.35860    0.68236    1.000
    C11      C        0.83707    0.20994    0.15212    1.000
    C12      C        0.46757    0.49734    0.14768    1.000
    C13      C        0.93269    0.47318    0.14369    1.000
    C14      C        0.99905    0.38230    0.75685    1.000
    C15      C        0.53520    0.64140    0.31764    1.000
    C16      C        0.54049    0.47318    0.64369    1.000
    C17      C        0.62359    0.60958    0.67405    1.000
    C18      C        0.53865    0.49770    0.77804    1.000
    C19      C        0.95905    0.49770    0.27804    1.000
    C20      C        0.62713    0.79006    0.34788    1.000
    C21      C        0.38325    0.38230    0.25685    1.000
    C22      C        0.37641    0.39042    0.32595    1.000
    C23      C        0.61675    0.61770    0.74315    1.000
    C24      C        0.89380    0.35860    0.18236    1.000
    C25      C        0.00095    0.61770    0.24315    1.000
    C26      C        0.10620    0.64140    0.81764    1.000
    C27      C        0.37287    0.20994    0.65212    1.000
    C28      C        0.02977    0.49734    0.64768    1.000
    N1       N        0.90541    0.36802    0.24865    1.000
    N2       N        0.09459    0.63198    0.75135    1.000
    N3       N        0.53739    0.63198    0.25135    1.000
    N4       N        0.46261    0.36802    0.74865    1.000
    O1       O        0.37104    0.19248    0.59021    1.000
    O2       O        0.69882    0.88704    0.30878    1.000
    O3       O        0.09770    0.00000    0.25000    1.000
    O4       O        0.62896    0.80752    0.40979    1.000
    O5       O        0.54416    0.61232    0.12008    1.000
    O6       O        0.81178    0.11296    0.19122    1.000
    O7       O        0.82144    0.19248    0.09021    1.000
    O8       O        0.17856    0.80752    0.90979    1.000
    O9       O        0.93184    0.38768    0.37992    1.000
    O10      O        0.01700    0.61780    0.38430    1.000
    O11      O        0.45584    0.38768    0.87992    1.000
    O12      O        0.90230    0.00000    0.75000    1.000
    O13      O        0.29249    0.27778    0.35977    1.000
    O14      O        0.60080    0.61780    0.88430    1.000
    O15      O        0.30118    0.11296    0.69122    1.000
    O16      O        0.18822    0.88704    0.80878    1.000
    O17      O        0.06816    0.61232    0.62008    1.000
    O18      O        0.98300    0.38220    0.61570    1.000
    O19      O        0.98529    0.27778    0.85977    1.000
    O20      O        0.70751    0.72222    0.64023    1.000
    O21      O        0.39920    0.38220    0.11570    1.000
    O22      O        0.01471    0.72222    0.14023    1.000
