data_functionalizedCrystal
_audit_creation_method	'EQeq! by Chris Wilmer'
_symmetry_space_group_name_H-M	'P1'
_symmetry_Int_Tables_number	1
_symmetry_cell_setting	triclinic
loop_
_symmetry_equiv_pos_as_xyz
  x,y,z
_cell_length_a	14.2941
_cell_length_b	14.2941
_cell_length_c	14.2941
_cell_angle_alpha	90
_cell_angle_beta	90
_cell_angle_gamma	90
loop_
_atom_site_label
_atom_site_type_symbol
_atom_site_fract_x
_atom_site_fract_y
_atom_site_fract_z
_atom_site_charge
Mof_C 	C 	0.3486	0.8944	0.5165	-0.242
Mof_C 	C 	0.4255	0.8328	0.5317	0.144
Mof_H 	H 	0.4359	0.7826	0.4917	-0.036
Mof_C 	C 	0.2792	0.8764	0.4391	0.454
Mof_O 	O 	0.299	0.8071	0.3855	-0.546
Mof_O 	O 	0.2178	0.9326	0.4254	-0.559
Mof_C 	C 	0.1514	0.1056	0.0165	-0.242
Mof_C 	C 	0.0745	0.1672	0.0317	0.148
Mof_H 	H 	0.0641	0.2174	0.9917	-0.037
Mof_C 	C 	0.2208	0.1236	0.9391	0.454
Mof_O 	O 	0.201	0.1929	0.8855	-0.546
Mof_O 	O 	0.2822	0.0674	0.9254	-0.559
Mof_C 	C 	0.6514	0.3944	0.9835	-0.24
Mof_C 	C 	0.5745	0.3328	0.9683	0.145
Mof_H 	H 	0.5641	0.2826	0.0083	-0.035
Mof_C 	C 	0.7208	0.3764	0.0609	0.453
Mof_O 	O 	0.701	0.3071	0.1145	-0.546
Mof_O 	O 	0.7822	0.4326	0.0746	-0.559
Mof_C 	C 	0.8486	0.6056	0.4835	-0.24
Mof_C 	C 	0.9255	0.6672	0.4683	0.145
Mof_H 	H 	0.9359	0.7174	0.5083	-0.035
Mof_C 	C 	0.7792	0.6236	0.5609	0.454
Mof_O 	O 	0.799	0.6929	0.6145	-0.546
Mof_O 	O 	0.7178	0.5674	0.5746	-0.559
Mof_C 	C 	0.5165	0.3486	0.8944	-0.241
Mof_C 	C 	0.5317	0.4255	0.8328	0.145
Mof_H 	H 	0.4917	0.4359	0.7826	-0.035
Mof_C 	C 	0.4391	0.2792	0.8764	0.454
Mof_O 	O 	0.3855	0.299	0.8071	-0.546
Mof_O 	O 	0.4254	0.2178	0.9326	-0.559
Mof_C 	C 	0.0165	0.1514	0.1056	-0.242
Mof_C 	C 	0.0317	0.0745	0.1672	0.148
Mof_H 	H 	0.9917	0.0641	0.2174	-0.037
Mof_C 	C 	0.9391	0.2208	0.1236	0.454
Mof_O 	O 	0.8855	0.201	0.1929	-0.546
Mof_O 	O 	0.9254	0.2822	0.0674	-0.559
Mof_C 	C 	0.9835	0.6514	0.3944	-0.24
Mof_C 	C 	0.9683	0.5745	0.3328	0.145
Mof_H 	H 	0.0083	0.5641	0.2826	-0.035
Mof_C 	C 	0.0609	0.7208	0.3764	0.453
Mof_O 	O 	0.1145	0.701	0.3071	-0.546
Mof_O 	O 	0.0746	0.7822	0.4326	-0.559
Mof_C 	C 	0.4835	0.8486	0.6056	-0.24
Mof_C 	C 	0.4683	0.9255	0.6672	0.145
Mof_H 	H 	0.5083	0.9359	0.7174	-0.035
Mof_C 	C 	0.5609	0.7792	0.6236	0.454
Mof_O 	O 	0.6145	0.799	0.6929	-0.546
Mof_O 	O 	0.5746	0.7178	0.5674	-0.559
Mof_C 	C 	0.8944	0.5165	0.3486	-0.241
Mof_C 	C 	0.8328	0.5317	0.4255	0.145
Mof_H 	H 	0.7826	0.4917	0.4359	-0.035
Mof_C 	C 	0.8764	0.4391	0.2792	0.454
Mof_O 	O 	0.8071	0.3855	0.299	-0.546
Mof_O 	O 	0.9326	0.4254	0.2178	-0.559
Mof_C 	C 	0.1056	0.0165	0.1514	-0.242
Mof_C 	C 	0.1672	0.0317	0.0745	0.148
Mof_H 	H 	0.2174	0.9917	0.0641	-0.037
Mof_C 	C 	0.1236	0.9391	0.2208	0.454
Mof_O 	O 	0.1929	0.8855	0.201	-0.546
Mof_O 	O 	0.0674	0.9254	0.2822	-0.559
Mof_C 	C 	0.3944	0.9835	0.6514	-0.24
Mof_C 	C 	0.3328	0.9683	0.5745	0.145
Mof_H 	H 	0.2826	0.0083	0.5641	-0.035
Mof_C 	C 	0.3764	0.0609	0.7208	0.453
Mof_O 	O 	0.3071	0.1145	0.701	-0.546
Mof_O 	O 	0.4326	0.0746	0.7822	-0.559
Mof_C 	C 	0.6056	0.4835	0.8486	-0.24
Mof_C 	C 	0.6672	0.4683	0.9255	0.145
Mof_H 	H 	0.7174	0.5083	0.9359	-0.035
Mof_C 	C 	0.6236	0.5609	0.7792	0.454
Mof_O 	O 	0.6929	0.6145	0.799	-0.546
Mof_O 	O 	0.5674	0.5746	0.7178	-0.559
Mof_Zn	Zn	0.22027	0.77973	0.27973	1.192
Mof_Zn	Zn	0.07348	0.92652	0.42652	1.154
Mof_Zn	Zn	0.27973	0.22027	0.77973	1.192
Mof_Zn	Zn	0.42652	0.07348	0.92652	1.154
Mof_Zn	Zn	0.77973	0.27973	0.22027	1.192
Mof_Zn	Zn	0.92652	0.42652	0.07348	1.154
Mof_Zn	Zn	0.72027	0.72027	0.72027	1.192
Mof_Zn	Zn	0.57348	0.57348	0.57348	1.154
_end
