data_functionalizedCrystal
_audit_creation_method	'EQeq! by Chris Wilmer'
_symmetry_space_group_name_H-M	'P1'
_symmetry_Int_Tables_number	1
_symmetry_cell_setting	triclinic
loop_
_symmetry_equiv_pos_as_xyz
  x,y,z
_cell_length_a	34.0339
_cell_length_b	18.7606
_cell_length_c	22.3666
_cell_angle_alpha	90
_cell_angle_beta	116.429
_cell_angle_gamma	90
loop_
_atom_site_label
_atom_site_type_symbol
_atom_site_fract_x
_atom_site_fract_y
_atom_site_fract_z
_atom_site_charge
Mof_Cd	Cd	0.2877	0.12421	0.70115	0.548
Mof_Cd	Cd	0.82478	0.06246	0.9518	0.42
Mof_Cd	Cd	0.67546	0.35703	0.18842	0.448
Mof_O 	O 	0.357	0.1433	0.7207	-0.23
Mof_O 	O 	0.3503	0.1321	0.8122	-0.23
Mof_O 	O 	0.77951	0.0979	0.9937	-0.276
Mof_O 	O 	0.72479	0.0638	0.8968	-0.253
Mof_O 	O 	0.68497	0.3232	0.0949	-0.286
Mof_O 	O 	0.75387	0.2833	0.129	-0.265
Mof_O 	O 	0.8814	0.9391	0.424	-0.295
Mof_O 	O 	0.8948	0.8417	0.3746	-0.281
Mof_O 	O 	0.21515	0.0511	0.6649	-0.298
Mof_O 	O 	0.27985	0.0134	0.7396	-0.244
Mof_O 	O 	0.30228	0.7543	0.7749	-0.264
Mof_O 	O 	0.24639	0.6803	0.7414	-0.268
Mof_N 	N 	0.5889	0.1556	0.9095	-0.121
Mof_N 	N 	0.11289	0.8415	0.6215	-0.124
Mof_C 	C 	0.3745	0.1348	0.7755	0.702
Mof_C 	C 	0.4491	0.1377	0.7895	0.112
Mof_H 	H 	0.4373	0.1301	0.7437	0.007
Mof_C 	C 	0.4239	0.1406	0.8156	-0.271
Mof_C 	C 	0.4946	0.1453	0.8257	0.013
Mof_H 	H 	0.5116	0.1412	0.8028	0.04
Mof_C 	C 	0.5144	0.1577	0.8894	0.125
Mof_C 	C 	0.4867	0.1595	0.9257	-0.088
Mof_H 	H 	0.4997	0.1638	0.972	0.067
Mof_C 	C 	0.5622	0.168	0.9274	-0.017
Mof_C 	C 	0.4416	0.1547	0.8903	0.04
Mof_H 	H 	0.4232	0.1598	0.9107	0.037
Mof_C 	C 	0.7395	0.097	0.9521	0.283
Mof_C 	C 	0.7087	0.1371	0.9703	-0.008
Mof_C 	C 	0.7251	0.1848	0.0232	-0.038
Mof_H 	H 	0.7552	0.1899	0.0485	0.078
Mof_C 	C 	0.6962	0.2253	0.0386	-0.017
Mof_C 	C 	0.6507	0.2158	0.0018	-0.096
Mof_H 	H 	0.6315	0.2418	0.0126	0.084
Mof_C 	C 	0.6341	0.1665	0.9481	0.121
Mof_C 	C 	0.6631	0.1294	0.9325	-0.102
Mof_H 	H 	0.6523	0.0985	0.8961	0.109
Mof_C 	C 	0.7135	0.2806	0.0918	0.292
Mof_C 	C 	0.9055	0.8894	0.4189	0.298
Mof_C 	C 	0.9525	0.8875	0.4733	-0.088
Mof_C 	C 	0.9671	0.935	0.5241	0.023
Mof_H 	H 	0.9476	0.9689	0.5255	0.035
Mof_C 	C 	0.0109	0.9356	0.5756	-0.103
Mof_H 	H 	0.02	0.9688	0.61	0.072
Mof_C 	C 	0.0394	0.8849	0.5725	0.039
Mof_C 	C 	0.0241	0.8372	0.521	-0.099
Mof_H 	H 	0.0433	0.8036	0.5182	0.077
Mof_C 	C 	0.9806	0.8374	0.4724	0.02
Mof_H 	H 	0.9709	0.8027	0.4393	0.041
Mof_C 	C 	0.0861	0.8868	0.623	0.017
Mof_C 	C 	0.2403	0.002	0.7032	0.277
Mof_C 	C 	0.2213	0.9309	0.7016	-0.014
Mof_C 	C 	0.2478	0.873	0.7278	-0.046
Mof_H 	H 	0.2779	0.8797	0.7507	0.085
Mof_C 	C 	0.2311	0.8048	0.7214	0.001
Mof_C 	C 	0.1862	0.7945	0.6876	-0.114
Mof_H 	H 	0.1746	0.7487	0.6822	0.122
Mof_C 	C 	0.1584	0.8531	0.6618	0.13
Mof_C 	C 	0.1766	0.9212	0.6689	-0.112
Mof_H 	H 	0.1582	0.9604	0.6513	0.089
Mof_C 	C 	0.2621	0.7433	0.7471	0.28
Mof_H 	H 	0.57	0.178	0.973	0.045
Mof_H 	H 	0.06	0.883	0.628	0.028
Mof_C 	C 	0.4568	0.0824	0.8023	-0.037
Mof_C 	C 	0.4958	0.1048	0.6626	-0.166
Mof_C 	C 	0.4889	0.2152	0.873	-0.188
Mof_C 	C 	0.4436	0.1991	0.8352	0.127
Mof_H 	H 	0.4469	0.0414	0.7765	0.063
Mof_H 	H 	0.4745	0.0861	0.6736	0.09
Mof_H 	H 	0.4996	0.2612	0.8851	0.102
Mof_H 	H 	0.4253	0.2388	0.8229	0.009
Mof_O 	O 	0.365	0.0703	0.7371	-0.217
Mof_O 	O 	0.354	0.1756	0.7595	-0.355
Mof_Cd	Cd	0.7877	0.62421	0.70115	0.549
Mof_Cd	Cd	0.32478	0.56246	0.9518	0.421
Mof_Cd	Cd	0.17546	0.85703	0.18842	0.449
Mof_O 	O 	0.857	0.6433	0.7207	-0.229
Mof_O 	O 	0.8503	0.6321	0.8122	-0.229
Mof_O 	O 	0.27951	0.5979	0.9937	-0.275
Mof_O 	O 	0.22479	0.5638	0.8968	-0.252
Mof_O 	O 	0.18497	0.8232	0.0949	-0.285
Mof_O 	O 	0.25387	0.7833	0.129	-0.264
Mof_O 	O 	0.3814	0.4391	0.424	-0.294
Mof_O 	O 	0.3948	0.3417	0.3746	-0.28
Mof_O 	O 	0.71515	0.5511	0.6649	-0.297
Mof_O 	O 	0.77985	0.5134	0.7396	-0.243
Mof_O 	O 	0.80228	0.2543	0.7749	-0.263
Mof_O 	O 	0.74639	0.1803	0.7414	-0.267
Mof_N 	N 	0.0889	0.6556	0.9095	-0.12
Mof_N 	N 	0.61289	0.3415	0.6215	-0.124
Mof_C 	C 	0.8745	0.6348	0.7755	0.702
Mof_C 	C 	0.9491	0.6377	0.7895	0.112
Mof_H 	H 	0.9373	0.6301	0.7437	0.007
Mof_C 	C 	0.9239	0.6406	0.8156	-0.271
Mof_C 	C 	0.9946	0.6453	0.8257	0.013
Mof_H 	H 	0.0116	0.6412	0.8028	0.04
Mof_C 	C 	0.0144	0.6577	0.8894	0.125
Mof_C 	C 	0.9867	0.6595	0.9257	-0.088
Mof_H 	H 	0.9997	0.6638	0.972	0.067
Mof_C 	C 	0.0622	0.668	0.9274	-0.017
Mof_C 	C 	0.9416	0.6547	0.8903	0.04
Mof_H 	H 	0.9232	0.6598	0.9107	0.037
Mof_C 	C 	0.2395	0.597	0.9521	0.284
Mof_C 	C 	0.2087	0.6371	0.9703	-0.009
Mof_C 	C 	0.2251	0.6848	0.0232	-0.037
Mof_H 	H 	0.2552	0.6899	0.0485	0.078
Mof_C 	C 	0.1962	0.7253	0.0386	-0.018
Mof_C 	C 	0.1507	0.7158	0.0018	-0.095
Mof_H 	H 	0.1315	0.7418	0.0126	0.084
Mof_C 	C 	0.1341	0.6665	0.9481	0.12
Mof_C 	C 	0.1631	0.6294	0.9325	-0.101
Mof_H 	H 	0.1523	0.5985	0.8961	0.109
Mof_C 	C 	0.2135	0.7806	0.0918	0.293
Mof_C 	C 	0.4055	0.3894	0.4189	0.298
Mof_C 	C 	0.4525	0.3875	0.4733	-0.088
Mof_C 	C 	0.4671	0.435	0.5241	0.023
Mof_H 	H 	0.4476	0.4689	0.5255	0.035
Mof_C 	C 	0.5109	0.4356	0.5756	-0.103
Mof_H 	H 	0.52	0.4688	0.61	0.072
Mof_C 	C 	0.5394	0.3849	0.5725	0.039
Mof_C 	C 	0.5241	0.3372	0.521	-0.099
Mof_H 	H 	0.5433	0.3036	0.5182	0.077
Mof_C 	C 	0.4806	0.3374	0.4724	0.02
Mof_H 	H 	0.4709	0.3027	0.4393	0.041
Mof_C 	C 	0.5861	0.3868	0.623	0.017
Mof_C 	C 	0.7403	0.502	0.7032	0.277
Mof_C 	C 	0.7213	0.4309	0.7016	-0.014
Mof_C 	C 	0.7478	0.373	0.7278	-0.046
Mof_H 	H 	0.7779	0.3797	0.7507	0.085
Mof_C 	C 	0.7311	0.3048	0.7214	0.001
Mof_C 	C 	0.6862	0.2945	0.6876	-0.114
Mof_H 	H 	0.6746	0.2487	0.6822	0.122
Mof_C 	C 	0.6584	0.3531	0.6618	0.13
Mof_C 	C 	0.6766	0.4212	0.6689	-0.112
Mof_H 	H 	0.6582	0.4604	0.6513	0.089
Mof_C 	C 	0.7621	0.2433	0.7471	0.28
Mof_H 	H 	0.07	0.678	0.973	0.045
Mof_H 	H 	0.56	0.383	0.628	0.028
Mof_C 	C 	0.9568	0.5824	0.8023	-0.037
Mof_C 	C 	0.9958	0.6048	0.6626	-0.166
Mof_C 	C 	0.9889	0.7152	0.873	-0.188
Mof_C 	C 	0.9436	0.6991	0.8352	0.127
Mof_H 	H 	0.9469	0.5414	0.7765	0.064
Mof_H 	H 	0.9745	0.5861	0.6736	0.09
Mof_H 	H 	0.9996	0.7612	0.8851	0.102
Mof_H 	H 	0.9253	0.7388	0.8229	0.009
Mof_O 	O 	0.865	0.5703	0.7371	-0.217
Mof_O 	O 	0.854	0.6756	0.7595	-0.355
Mof_Cd	Cd	0.7123	0.12421	0.79885	0.549
Mof_Cd	Cd	0.17522	0.06246	0.5482	0.421
Mof_Cd	Cd	0.32454	0.35703	0.31158	0.449
Mof_O 	O 	0.643	0.1433	0.7793	-0.229
Mof_O 	O 	0.6497	0.1321	0.6878	-0.229
Mof_O 	O 	0.22049	0.0979	0.5063	-0.275
Mof_O 	O 	0.27521	0.0638	0.6032	-0.252
Mof_O 	O 	0.31503	0.3232	0.4051	-0.285
Mof_O 	O 	0.24613	0.2833	0.371	-0.264
Mof_O 	O 	0.1186	0.9391	0.076	-0.294
Mof_O 	O 	0.1052	0.8417	0.1254	-0.279
Mof_O 	O 	0.78485	0.0511	0.8351	-0.297
Mof_O 	O 	0.72015	0.0134	0.7604	-0.243
Mof_O 	O 	0.69772	0.7543	0.7251	-0.263
Mof_O 	O 	0.75361	0.6803	0.7586	-0.267
Mof_N 	N 	0.4111	0.1556	0.5905	-0.12
Mof_N 	N 	0.88711	0.8415	0.8785	-0.124
Mof_C 	C 	0.6255	0.1348	0.7245	0.702
Mof_C 	C 	0.5509	0.1377	0.7105	0.112
Mof_H 	H 	0.5627	0.1301	0.7563	0.007
Mof_C 	C 	0.5761	0.1406	0.6844	-0.271
Mof_C 	C 	0.5054	0.1453	0.6743	0.013
Mof_H 	H 	0.4884	0.1412	0.6972	0.04
Mof_C 	C 	0.4856	0.1577	0.6106	0.125
Mof_C 	C 	0.5133	0.1595	0.5743	-0.088
Mof_H 	H 	0.5003	0.1638	0.528	0.067
Mof_C 	C 	0.4378	0.168	0.5726	-0.018
Mof_C 	C 	0.5584	0.1547	0.6097	0.04
Mof_H 	H 	0.5768	0.1598	0.5893	0.037
Mof_C 	C 	0.2605	0.097	0.5479	0.283
Mof_C 	C 	0.2913	0.1371	0.5297	-0.008
Mof_C 	C 	0.2749	0.1848	0.4768	-0.038
Mof_H 	H 	0.2448	0.1899	0.4515	0.078
Mof_C 	C 	0.3038	0.2253	0.4614	-0.018
Mof_C 	C 	0.3493	0.2158	0.4982	-0.095
Mof_H 	H 	0.3685	0.2418	0.4874	0.084
Mof_C 	C 	0.3659	0.1665	0.5519	0.12
Mof_C 	C 	0.3369	0.1294	0.5675	-0.102
Mof_H 	H 	0.3477	0.0985	0.6039	0.109
Mof_C 	C 	0.2865	0.2806	0.4082	0.293
Mof_C 	C 	0.0945	0.8894	0.0811	0.297
Mof_C 	C 	0.0475	0.8875	0.0267	-0.087
Mof_C 	C 	0.0329	0.935	0.9759	0.023
Mof_H 	H 	0.0524	0.9689	0.9745	0.035
Mof_C 	C 	0.9891	0.9356	0.9244	-0.102
Mof_H 	H 	0.98	0.9688	0.89	0.071
Mof_C 	C 	0.9606	0.8849	0.9275	0.039
Mof_C 	C 	0.9759	0.8372	0.979	-0.099
Mof_H 	H 	0.9567	0.8036	0.9818	0.077
Mof_C 	C 	0.0194	0.8374	0.0276	0.02
Mof_H 	H 	0.0291	0.8027	0.0607	0.041
Mof_C 	C 	0.9139	0.8868	0.877	0.017
Mof_C 	C 	0.7597	0.002	0.7968	0.277
Mof_C 	C 	0.7787	0.9309	0.7984	-0.014
Mof_C 	C 	0.7522	0.873	0.7722	-0.046
Mof_H 	H 	0.7221	0.8797	0.7493	0.085
Mof_C 	C 	0.7689	0.8048	0.7786	0.001
Mof_C 	C 	0.8138	0.7945	0.8124	-0.114
Mof_H 	H 	0.8254	0.7487	0.8178	0.122
Mof_C 	C 	0.8416	0.8531	0.8382	0.13
Mof_C 	C 	0.8234	0.9212	0.8311	-0.112
Mof_H 	H 	0.8418	0.9604	0.8487	0.089
Mof_C 	C 	0.7379	0.7433	0.7529	0.28
Mof_H 	H 	0.43	0.178	0.527	0.045
Mof_H 	H 	0.94	0.883	0.872	0.028
Mof_C 	C 	0.5432	0.0824	0.6977	-0.037
Mof_C 	C 	0.5042	0.1048	0.8374	-0.166
Mof_C 	C 	0.5111	0.2152	0.627	-0.188
Mof_C 	C 	0.5564	0.1991	0.6648	0.127
Mof_H 	H 	0.5531	0.0414	0.7235	0.063
Mof_H 	H 	0.5255	0.0861	0.8264	0.09
Mof_H 	H 	0.5004	0.2612	0.6149	0.102
Mof_H 	H 	0.5747	0.2388	0.6771	0.009
Mof_O 	O 	0.635	0.0703	0.7629	-0.217
Mof_O 	O 	0.646	0.1756	0.7405	-0.355
Mof_Cd	Cd	0.2123	0.62421	0.79885	0.549
Mof_Cd	Cd	0.67522	0.56246	0.5482	0.421
Mof_Cd	Cd	0.82454	0.85703	0.31158	0.449
Mof_O 	O 	0.143	0.6433	0.7793	-0.229
Mof_O 	O 	0.1497	0.6321	0.6878	-0.229
Mof_O 	O 	0.72049	0.5979	0.5063	-0.275
Mof_O 	O 	0.77521	0.5638	0.6032	-0.252
Mof_O 	O 	0.81503	0.8232	0.4051	-0.285
Mof_O 	O 	0.74613	0.7833	0.371	-0.264
Mof_O 	O 	0.6186	0.4391	0.076	-0.294
Mof_O 	O 	0.6052	0.3417	0.1254	-0.28
Mof_O 	O 	0.28485	0.5511	0.8351	-0.297
Mof_O 	O 	0.22015	0.5134	0.7604	-0.243
Mof_O 	O 	0.19772	0.2543	0.7251	-0.263
Mof_O 	O 	0.25361	0.1803	0.7586	-0.267
Mof_N 	N 	0.9111	0.6556	0.5905	-0.12
Mof_N 	N 	0.38711	0.3415	0.8785	-0.124
Mof_C 	C 	0.1255	0.6348	0.7245	0.702
Mof_C 	C 	0.0509	0.6377	0.7105	0.112
Mof_H 	H 	0.0627	0.6301	0.7563	0.007
Mof_C 	C 	0.0761	0.6406	0.6844	-0.271
Mof_C 	C 	0.0054	0.6453	0.6743	0.013
Mof_H 	H 	0.9884	0.6412	0.6972	0.04
Mof_C 	C 	0.9856	0.6577	0.6106	0.125
Mof_C 	C 	0.0133	0.6595	0.5743	-0.088
Mof_H 	H 	0.0003	0.6638	0.528	0.067
Mof_C 	C 	0.9378	0.668	0.5726	-0.018
Mof_C 	C 	0.0584	0.6547	0.6097	0.04
Mof_H 	H 	0.0768	0.6598	0.5893	0.037
Mof_C 	C 	0.7605	0.597	0.5479	0.283
Mof_C 	C 	0.7913	0.6371	0.5297	-0.008
Mof_C 	C 	0.7749	0.6848	0.4768	-0.038
Mof_H 	H 	0.7448	0.6899	0.4515	0.078
Mof_C 	C 	0.8038	0.7253	0.4614	-0.018
Mof_C 	C 	0.8493	0.7158	0.4982	-0.095
Mof_H 	H 	0.8685	0.7418	0.4874	0.084
Mof_C 	C 	0.8659	0.6665	0.5519	0.12
Mof_C 	C 	0.8369	0.6294	0.5675	-0.102
Mof_H 	H 	0.8477	0.5985	0.6039	0.109
Mof_C 	C 	0.7865	0.7806	0.4082	0.293
Mof_C 	C 	0.5945	0.3894	0.0811	0.298
Mof_C 	C 	0.5475	0.3875	0.0267	-0.088
Mof_C 	C 	0.5329	0.435	0.9759	0.023
Mof_H 	H 	0.5524	0.4689	0.9745	0.035
Mof_C 	C 	0.4891	0.4356	0.9244	-0.103
Mof_H 	H 	0.48	0.4688	0.89	0.072
Mof_C 	C 	0.4606	0.3849	0.9275	0.039
Mof_C 	C 	0.4759	0.3372	0.979	-0.099
Mof_H 	H 	0.4567	0.3036	0.9818	0.077
Mof_C 	C 	0.5194	0.3374	0.0276	0.02
Mof_H 	H 	0.5291	0.3027	0.0607	0.041
Mof_C 	C 	0.4139	0.3868	0.877	0.017
Mof_C 	C 	0.2597	0.502	0.7968	0.277
Mof_C 	C 	0.2787	0.4309	0.7984	-0.014
Mof_C 	C 	0.2522	0.373	0.7722	-0.046
Mof_H 	H 	0.2221	0.3797	0.7493	0.085
Mof_C 	C 	0.2689	0.3048	0.7786	0.001
Mof_C 	C 	0.3138	0.2945	0.8124	-0.114
Mof_H 	H 	0.3254	0.2487	0.8178	0.122
Mof_C 	C 	0.3416	0.3531	0.8382	0.13
Mof_C 	C 	0.3234	0.4212	0.8311	-0.112
Mof_H 	H 	0.3418	0.4604	0.8487	0.089
Mof_C 	C 	0.2379	0.2433	0.7529	0.28
Mof_H 	H 	0.93	0.678	0.527	0.045
Mof_H 	H 	0.44	0.383	0.872	0.028
Mof_C 	C 	0.0432	0.5824	0.6977	-0.036
Mof_C 	C 	0.0042	0.6048	0.8374	-0.166
Mof_C 	C 	0.0111	0.7152	0.627	-0.188
Mof_C 	C 	0.0564	0.6991	0.6648	0.128
Mof_H 	H 	0.0531	0.5414	0.7235	0.063
Mof_H 	H 	0.0255	0.5861	0.8264	0.09
Mof_H 	H 	0.0004	0.7612	0.6149	0.102
Mof_H 	H 	0.0747	0.7388	0.6771	0.009
Mof_O 	O 	0.135	0.5703	0.7629	-0.217
Mof_O 	O 	0.146	0.6756	0.7405	-0.355
Mof_Cd	Cd	0.7123	0.87579	0.29885	0.549
Mof_Cd	Cd	0.17522	0.93754	0.0482	0.421
Mof_Cd	Cd	0.32454	0.64297	0.81158	0.449
Mof_O 	O 	0.643	0.8567	0.2793	-0.229
Mof_O 	O 	0.6497	0.8679	0.1878	-0.229
Mof_O 	O 	0.22049	0.9021	0.0063	-0.275
Mof_O 	O 	0.27521	0.9362	0.1032	-0.252
Mof_O 	O 	0.31503	0.6768	0.9051	-0.285
Mof_O 	O 	0.24613	0.7167	0.871	-0.264
Mof_O 	O 	0.1186	0.0609	0.576	-0.294
Mof_O 	O 	0.1052	0.1583	0.6254	-0.28
Mof_O 	O 	0.78485	0.9489	0.3351	-0.297
Mof_O 	O 	0.72015	0.9866	0.2604	-0.243
Mof_O 	O 	0.69772	0.2457	0.2251	-0.263
Mof_O 	O 	0.75361	0.3197	0.2586	-0.267
Mof_N 	N 	0.4111	0.8444	0.0905	-0.12
Mof_N 	N 	0.88711	0.1585	0.3785	-0.124
Mof_C 	C 	0.6255	0.8652	0.2245	0.702
Mof_C 	C 	0.5509	0.8623	0.2105	0.112
Mof_H 	H 	0.5627	0.8699	0.2563	0.007
Mof_C 	C 	0.5761	0.8594	0.1844	-0.271
Mof_C 	C 	0.5054	0.8547	0.1743	0.013
Mof_H 	H 	0.4884	0.8588	0.1972	0.04
Mof_C 	C 	0.4856	0.8423	0.1106	0.125
Mof_C 	C 	0.5133	0.8405	0.0743	-0.088
Mof_H 	H 	0.5003	0.8362	0.028	0.067
Mof_C 	C 	0.4378	0.832	0.0726	-0.017
Mof_C 	C 	0.5584	0.8453	0.1097	0.04
Mof_H 	H 	0.5768	0.8402	0.0893	0.037
Mof_C 	C 	0.2605	0.903	0.0479	0.283
Mof_C 	C 	0.2913	0.8629	0.0297	-0.008
Mof_C 	C 	0.2749	0.8152	0.9768	-0.038
Mof_H 	H 	0.2448	0.8101	0.9515	0.078
Mof_C 	C 	0.3038	0.7747	0.9614	-0.017
Mof_C 	C 	0.3493	0.7842	0.9982	-0.096
Mof_H 	H 	0.3685	0.7582	0.9874	0.084
Mof_C 	C 	0.3659	0.8335	0.0519	0.121
Mof_C 	C 	0.3369	0.8706	0.0675	-0.102
Mof_H 	H 	0.3477	0.9015	0.1039	0.109
Mof_C 	C 	0.2865	0.7194	0.9082	0.292
Mof_C 	C 	0.0945	0.1106	0.5811	0.298
Mof_C 	C 	0.0475	0.1125	0.5267	-0.088
Mof_C 	C 	0.0329	0.065	0.4759	0.023
Mof_H 	H 	0.0524	0.0311	0.4745	0.035
Mof_C 	C 	0.9891	0.0644	0.4244	-0.103
Mof_H 	H 	0.98	0.0312	0.39	0.072
Mof_C 	C 	0.9606	0.1151	0.4275	0.039
Mof_C 	C 	0.9759	0.1628	0.479	-0.099
Mof_H 	H 	0.9567	0.1964	0.4818	0.077
Mof_C 	C 	0.0194	0.1626	0.5276	0.02
Mof_H 	H 	0.0291	0.1973	0.5607	0.041
Mof_C 	C 	0.9139	0.1132	0.377	0.017
Mof_C 	C 	0.7597	0.998	0.2968	0.277
Mof_C 	C 	0.7787	0.0691	0.2984	-0.014
Mof_C 	C 	0.7522	0.127	0.2722	-0.046
Mof_H 	H 	0.7221	0.1203	0.2493	0.085
Mof_C 	C 	0.7689	0.1952	0.2786	0.001
Mof_C 	C 	0.8138	0.2055	0.3124	-0.114
Mof_H 	H 	0.8254	0.2513	0.3178	0.122
Mof_C 	C 	0.8416	0.1469	0.3382	0.13
Mof_C 	C 	0.8234	0.0788	0.3311	-0.112
Mof_H 	H 	0.8418	0.0396	0.3487	0.089
Mof_C 	C 	0.7379	0.2567	0.2529	0.28
Mof_H 	H 	0.43	0.822	0.027	0.045
Mof_H 	H 	0.94	0.117	0.372	0.028
Mof_C 	C 	0.5432	0.9176	0.1977	-0.037
Mof_C 	C 	0.5042	0.8952	0.3374	-0.166
Mof_C 	C 	0.5111	0.7848	0.127	-0.188
Mof_C 	C 	0.5564	0.8009	0.1648	0.127
Mof_H 	H 	0.5531	0.9586	0.2235	0.063
Mof_H 	H 	0.5255	0.9139	0.3264	0.09
Mof_H 	H 	0.5004	0.7388	0.1149	0.102
Mof_H 	H 	0.5747	0.7612	0.1771	0.009
Mof_O 	O 	0.635	0.9297	0.2629	-0.217
Mof_O 	O 	0.646	0.8244	0.2405	-0.355
Mof_Cd	Cd	0.2123	0.37579	0.29885	0.549
Mof_Cd	Cd	0.67522	0.43754	0.0482	0.421
Mof_Cd	Cd	0.82454	0.14297	0.81158	0.449
Mof_O 	O 	0.143	0.3567	0.2793	-0.229
Mof_O 	O 	0.1497	0.3679	0.1878	-0.229
Mof_O 	O 	0.72049	0.4021	0.0063	-0.275
Mof_O 	O 	0.77521	0.4362	0.1032	-0.252
Mof_O 	O 	0.81503	0.1768	0.9051	-0.285
Mof_O 	O 	0.74613	0.2167	0.871	-0.264
Mof_O 	O 	0.6186	0.5609	0.576	-0.294
Mof_O 	O 	0.6052	0.6583	0.6254	-0.28
Mof_O 	O 	0.28485	0.4489	0.3351	-0.297
Mof_O 	O 	0.22015	0.4866	0.2604	-0.243
Mof_O 	O 	0.19772	0.7457	0.2251	-0.263
Mof_O 	O 	0.25361	0.8197	0.2586	-0.267
Mof_N 	N 	0.9111	0.3444	0.0905	-0.12
Mof_N 	N 	0.38711	0.6585	0.3785	-0.124
Mof_C 	C 	0.1255	0.3652	0.2245	0.702
Mof_C 	C 	0.0509	0.3623	0.2105	0.112
Mof_H 	H 	0.0627	0.3699	0.2563	0.007
Mof_C 	C 	0.0761	0.3594	0.1844	-0.271
Mof_C 	C 	0.0054	0.3547	0.1743	0.013
Mof_H 	H 	0.9884	0.3588	0.1972	0.04
Mof_C 	C 	0.9856	0.3423	0.1106	0.125
Mof_C 	C 	0.0133	0.3405	0.0743	-0.088
Mof_H 	H 	0.0003	0.3362	0.028	0.067
Mof_C 	C 	0.9378	0.332	0.0726	-0.017
Mof_C 	C 	0.0584	0.3453	0.1097	0.04
Mof_H 	H 	0.0768	0.3402	0.0893	0.037
Mof_C 	C 	0.7605	0.403	0.0479	0.284
Mof_C 	C 	0.7913	0.3629	0.0297	-0.009
Mof_C 	C 	0.7749	0.3152	0.9768	-0.037
Mof_H 	H 	0.7448	0.3101	0.9515	0.078
Mof_C 	C 	0.8038	0.2747	0.9614	-0.018
Mof_C 	C 	0.8493	0.2842	0.9982	-0.095
Mof_H 	H 	0.8685	0.2582	0.9874	0.084
Mof_C 	C 	0.8659	0.3335	0.0519	0.12
Mof_C 	C 	0.8369	0.3706	0.0675	-0.101
Mof_H 	H 	0.8477	0.4015	0.1039	0.109
Mof_C 	C 	0.7865	0.2194	0.9082	0.293
Mof_C 	C 	0.5945	0.6106	0.5811	0.298
Mof_C 	C 	0.5475	0.6125	0.5267	-0.088
Mof_C 	C 	0.5329	0.565	0.4759	0.023
Mof_H 	H 	0.5524	0.5311	0.4745	0.035
Mof_C 	C 	0.4891	0.5644	0.4244	-0.103
Mof_H 	H 	0.48	0.5312	0.39	0.072
Mof_C 	C 	0.4606	0.6151	0.4275	0.039
Mof_C 	C 	0.4759	0.6628	0.479	-0.099
Mof_H 	H 	0.4567	0.6964	0.4818	0.077
Mof_C 	C 	0.5194	0.6626	0.5276	0.02
Mof_H 	H 	0.5291	0.6973	0.5607	0.041
Mof_C 	C 	0.4139	0.6132	0.377	0.017
Mof_C 	C 	0.2597	0.498	0.2968	0.277
Mof_C 	C 	0.2787	0.5691	0.2984	-0.014
Mof_C 	C 	0.2522	0.627	0.2722	-0.046
Mof_H 	H 	0.2221	0.6203	0.2493	0.085
Mof_C 	C 	0.2689	0.6952	0.2786	0.001
Mof_C 	C 	0.3138	0.7055	0.3124	-0.114
Mof_H 	H 	0.3254	0.7513	0.3178	0.122
Mof_C 	C 	0.3416	0.6469	0.3382	0.13
Mof_C 	C 	0.3234	0.5788	0.3311	-0.112
Mof_H 	H 	0.3418	0.5396	0.3487	0.089
Mof_C 	C 	0.2379	0.7567	0.2529	0.28
Mof_H 	H 	0.93	0.322	0.027	0.045
Mof_H 	H 	0.44	0.617	0.372	0.028
Mof_C 	C 	0.0432	0.4176	0.1977	-0.037
Mof_C 	C 	0.0042	0.3952	0.3374	-0.166
Mof_C 	C 	0.0111	0.2848	0.127	-0.188
Mof_C 	C 	0.0564	0.3009	0.1648	0.127
Mof_H 	H 	0.0531	0.4586	0.2235	0.064
Mof_H 	H 	0.0255	0.4139	0.3264	0.09
Mof_H 	H 	0.0004	0.2388	0.1149	0.102
Mof_H 	H 	0.0747	0.2612	0.1771	0.009
Mof_O 	O 	0.135	0.4297	0.2629	-0.217
Mof_O 	O 	0.146	0.3244	0.2405	-0.355
Mof_Cd	Cd	0.2877	0.87579	0.20115	0.549
Mof_Cd	Cd	0.82478	0.93754	0.4518	0.421
Mof_Cd	Cd	0.67546	0.64297	0.68842	0.449
Mof_O 	O 	0.357	0.8567	0.2207	-0.229
Mof_O 	O 	0.3503	0.8679	0.3122	-0.229
Mof_O 	O 	0.77951	0.9021	0.4937	-0.275
Mof_O 	O 	0.72479	0.9362	0.3968	-0.252
Mof_O 	O 	0.68497	0.6768	0.5949	-0.285
Mof_O 	O 	0.75387	0.7167	0.629	-0.264
Mof_O 	O 	0.8814	0.0609	0.924	-0.294
Mof_O 	O 	0.8948	0.1583	0.8746	-0.279
Mof_O 	O 	0.21515	0.9489	0.1649	-0.297
Mof_O 	O 	0.27985	0.9866	0.2396	-0.243
Mof_O 	O 	0.30228	0.2457	0.2749	-0.263
Mof_O 	O 	0.24639	0.3197	0.2414	-0.267
Mof_N 	N 	0.5889	0.8444	0.4095	-0.12
Mof_N 	N 	0.11289	0.1585	0.1215	-0.124
Mof_C 	C 	0.3745	0.8652	0.2755	0.702
Mof_C 	C 	0.4491	0.8623	0.2895	0.112
Mof_H 	H 	0.4373	0.8699	0.2437	0.007
Mof_C 	C 	0.4239	0.8594	0.3156	-0.271
Mof_C 	C 	0.4946	0.8547	0.3257	0.013
Mof_H 	H 	0.5116	0.8588	0.3028	0.04
Mof_C 	C 	0.5144	0.8423	0.3894	0.125
Mof_C 	C 	0.4867	0.8405	0.4257	-0.088
Mof_H 	H 	0.4997	0.8362	0.472	0.067
Mof_C 	C 	0.5622	0.832	0.4274	-0.018
Mof_C 	C 	0.4416	0.8453	0.3903	0.04
Mof_H 	H 	0.4232	0.8402	0.4107	0.037
Mof_C 	C 	0.7395	0.903	0.4521	0.283
Mof_C 	C 	0.7087	0.8629	0.4703	-0.008
Mof_C 	C 	0.7251	0.8152	0.5232	-0.038
Mof_H 	H 	0.7552	0.8101	0.5485	0.078
Mof_C 	C 	0.6962	0.7747	0.5386	-0.018
Mof_C 	C 	0.6507	0.7842	0.5018	-0.095
Mof_H 	H 	0.6315	0.7582	0.5126	0.084
Mof_C 	C 	0.6341	0.8335	0.4481	0.12
Mof_C 	C 	0.6631	0.8706	0.4325	-0.102
Mof_H 	H 	0.6523	0.9015	0.3961	0.109
Mof_C 	C 	0.7135	0.7194	0.5918	0.293
Mof_C 	C 	0.9055	0.1106	0.9189	0.297
Mof_C 	C 	0.9525	0.1125	0.9733	-0.087
Mof_C 	C 	0.9671	0.065	0.0241	0.023
Mof_H 	H 	0.9476	0.0311	0.0255	0.035
Mof_C 	C 	0.0109	0.0644	0.0756	-0.102
Mof_H 	H 	0.02	0.0312	0.11	0.071
Mof_C 	C 	0.0394	0.1151	0.0725	0.039
Mof_C 	C 	0.0241	0.1628	0.021	-0.099
Mof_H 	H 	0.0433	0.1964	0.0182	0.077
Mof_C 	C 	0.9806	0.1626	0.9724	0.02
Mof_H 	H 	0.9709	0.1973	0.9393	0.041
Mof_C 	C 	0.0861	0.1132	0.123	0.017
Mof_C 	C 	0.2403	0.998	0.2032	0.277
Mof_C 	C 	0.2213	0.0691	0.2016	-0.014
Mof_C 	C 	0.2478	0.127	0.2278	-0.046
Mof_H 	H 	0.2779	0.1203	0.2507	0.085
Mof_C 	C 	0.2311	0.1952	0.2214	0.001
Mof_C 	C 	0.1862	0.2055	0.1876	-0.114
Mof_H 	H 	0.1746	0.2513	0.1822	0.122
Mof_C 	C 	0.1584	0.1469	0.1618	0.13
Mof_C 	C 	0.1766	0.0788	0.1689	-0.112
Mof_H 	H 	0.1582	0.0396	0.1513	0.089
Mof_C 	C 	0.2621	0.2567	0.2471	0.28
Mof_H 	H 	0.57	0.822	0.473	0.045
Mof_H 	H 	0.06	0.117	0.128	0.028
Mof_C 	C 	0.4568	0.9176	0.3023	-0.037
Mof_C 	C 	0.4958	0.8952	0.1626	-0.166
Mof_C 	C 	0.4889	0.7848	0.373	-0.188
Mof_C 	C 	0.4436	0.8009	0.3352	0.127
Mof_H 	H 	0.4469	0.9586	0.2765	0.063
Mof_H 	H 	0.4745	0.9139	0.1736	0.09
Mof_H 	H 	0.4996	0.7388	0.3851	0.102
Mof_H 	H 	0.4253	0.7612	0.3229	0.009
Mof_O 	O 	0.365	0.9297	0.2371	-0.217
Mof_O 	O 	0.354	0.8244	0.2595	-0.355
Mof_Cd	Cd	0.7877	0.37579	0.20115	0.549
Mof_Cd	Cd	0.32478	0.43754	0.4518	0.421
Mof_Cd	Cd	0.17546	0.14297	0.68842	0.449
Mof_O 	O 	0.857	0.3567	0.2207	-0.229
Mof_O 	O 	0.8503	0.3679	0.3122	-0.229
Mof_O 	O 	0.27951	0.4021	0.4937	-0.275
Mof_O 	O 	0.22479	0.4362	0.3968	-0.252
Mof_O 	O 	0.18497	0.1768	0.5949	-0.285
Mof_O 	O 	0.25387	0.2167	0.629	-0.264
Mof_O 	O 	0.3814	0.5609	0.924	-0.294
Mof_O 	O 	0.3948	0.6583	0.8746	-0.28
Mof_O 	O 	0.71515	0.4489	0.1649	-0.297
Mof_O 	O 	0.77985	0.4866	0.2396	-0.243
Mof_O 	O 	0.80228	0.7457	0.2749	-0.263
Mof_O 	O 	0.74639	0.8197	0.2414	-0.267
Mof_N 	N 	0.0889	0.3444	0.4095	-0.12
Mof_N 	N 	0.61289	0.6585	0.1215	-0.124
Mof_C 	C 	0.8745	0.3652	0.2755	0.702
Mof_C 	C 	0.9491	0.3623	0.2895	0.112
Mof_H 	H 	0.9373	0.3699	0.2437	0.007
Mof_C 	C 	0.9239	0.3594	0.3156	-0.271
Mof_C 	C 	0.9946	0.3547	0.3257	0.013
Mof_H 	H 	0.0116	0.3588	0.3028	0.04
Mof_C 	C 	0.0144	0.3423	0.3894	0.125
Mof_C 	C 	0.9867	0.3405	0.4257	-0.088
Mof_H 	H 	0.9997	0.3362	0.472	0.067
Mof_C 	C 	0.0622	0.332	0.4274	-0.018
Mof_C 	C 	0.9416	0.3453	0.3903	0.04
Mof_H 	H 	0.9232	0.3402	0.4107	0.037
Mof_C 	C 	0.2395	0.403	0.4521	0.283
Mof_C 	C 	0.2087	0.3629	0.4703	-0.008
Mof_C 	C 	0.2251	0.3152	0.5232	-0.038
Mof_H 	H 	0.2552	0.3101	0.5485	0.078
Mof_C 	C 	0.1962	0.2747	0.5386	-0.018
Mof_C 	C 	0.1507	0.2842	0.5018	-0.095
Mof_H 	H 	0.1315	0.2582	0.5126	0.084
Mof_C 	C 	0.1341	0.3335	0.4481	0.12
Mof_C 	C 	0.1631	0.3706	0.4325	-0.102
Mof_H 	H 	0.1523	0.4015	0.3961	0.109
Mof_C 	C 	0.2135	0.2194	0.5918	0.293
Mof_C 	C 	0.4055	0.6106	0.9189	0.298
Mof_C 	C 	0.4525	0.6125	0.9733	-0.088
Mof_C 	C 	0.4671	0.565	0.0241	0.023
Mof_H 	H 	0.4476	0.5311	0.0255	0.035
Mof_C 	C 	0.5109	0.5644	0.0756	-0.103
Mof_H 	H 	0.52	0.5312	0.11	0.072
Mof_C 	C 	0.5394	0.6151	0.0725	0.039
Mof_C 	C 	0.5241	0.6628	0.021	-0.099
Mof_H 	H 	0.5433	0.6964	0.0182	0.077
Mof_C 	C 	0.4806	0.6626	0.9724	0.02
Mof_H 	H 	0.4709	0.6973	0.9393	0.041
Mof_C 	C 	0.5861	0.6132	0.123	0.017
Mof_C 	C 	0.7403	0.498	0.2032	0.277
Mof_C 	C 	0.7213	0.5691	0.2016	-0.014
Mof_C 	C 	0.7478	0.627	0.2278	-0.046
Mof_H 	H 	0.7779	0.6203	0.2507	0.085
Mof_C 	C 	0.7311	0.6952	0.2214	0.001
Mof_C 	C 	0.6862	0.7055	0.1876	-0.114
Mof_H 	H 	0.6746	0.7513	0.1822	0.122
Mof_C 	C 	0.6584	0.6469	0.1618	0.13
Mof_C 	C 	0.6766	0.5788	0.1689	-0.112
Mof_H 	H 	0.6582	0.5396	0.1513	0.089
Mof_C 	C 	0.7621	0.7567	0.2471	0.28
Mof_H 	H 	0.07	0.322	0.473	0.045
Mof_H 	H 	0.56	0.617	0.128	0.028
Mof_C 	C 	0.9568	0.4176	0.3023	-0.036
Mof_C 	C 	0.9958	0.3952	0.1626	-0.166
Mof_C 	C 	0.9889	0.2848	0.373	-0.188
Mof_C 	C 	0.9436	0.3009	0.3352	0.128
Mof_H 	H 	0.9469	0.4586	0.2765	0.063
Mof_H 	H 	0.9745	0.4139	0.1736	0.09
Mof_H 	H 	0.9996	0.2388	0.3851	0.102
Mof_H 	H 	0.9253	0.2612	0.3229	0.009
Mof_O 	O 	0.865	0.4297	0.2371	-0.217
Mof_O 	O 	0.854	0.3244	0.2595	-0.355
_end
