data_functionalizedCrystal
_audit_creation_method	'EQeq! by Chris Wilmer'
_symmetry_space_group_name_H-M	'P1'
_symmetry_Int_Tables_number	1
_symmetry_cell_setting	triclinic
loop_
_symmetry_equiv_pos_as_xyz
  x,y,z
_cell_length_a	6.078
_cell_length_b	9.95
_cell_length_c	13.337
_cell_angle_alpha	68.823
_cell_angle_beta	81.142
_cell_angle_gamma	76.813
loop_
_atom_site_label
_atom_site_type_symbol
_atom_site_fract_x
_atom_site_fract_y
_atom_site_fract_z
_atom_site_charge
Mof_Tb	Tb	0.83363	0.61393	0.19546	1.868
Mof_Tb	Tb	0.16637	0.38607	0.80454	1.868
Mof_H 	H 	0.3251	0.0463	0.0279	0.007
Mof_H 	H 	0.7087	0.3251	0.6294	-0.001
Mof_H 	H 	0.6749	0.9537	0.9721	0.007
Mof_H 	H 	0.2913	0.6749	0.3706	-0.001
Mof_C 	C 	0.289	0.7649	0.1408	0.422
Mof_C 	C 	0.1348	0.8928	0.0697	-0.107
Mof_C 	C 	0.189	0.0296	0.015	0.095
Mof_C 	C 	0.95	0.384	0.4395	0.345
Mof_C 	C 	0.713	0.4426	0.4735	-0.075
Mof_C 	C 	0.621	0.3968	0.577	0.078
Mof_C 	C 	0.089	0.4405	0.0333	0.254
Mof_C 	C 	0.711	0.2351	0.8592	0.422
Mof_C 	C 	0.8652	0.1072	0.9303	-0.107
Mof_C 	C 	0.811	0.9704	0.985	0.095
Mof_C 	C 	0.05	0.616	0.5605	0.345
Mof_C 	C 	0.287	0.5574	0.5265	-0.075
Mof_C 	C 	0.379	0.6032	0.423	0.078
Mof_C 	C 	0.911	0.5595	0.9667	0.254
Mof_N 	N 	0.9378	0.8624	0.0541	-0.193
Mof_N 	N 	0.5954	0.5481	0.3932	-0.191
Mof_N 	N 	0.0622	0.1376	0.9459	-0.193
Mof_N 	N 	0.4046	0.4519	0.6068	-0.191
Mof_O 	O 	0.2152	0.6475	0.1835	-0.487
Mof_O 	O 	0.4797	0.7821	0.1527	-0.491
Mof_O 	O 	0.0156	0.4321	0.341	-0.447
Mof_O 	O 	0.0702	0.2882	0.5105	-0.268
Mof_O 	O 	0.0828	0.4302	0.1301	-0.395
Mof_O 	O 	0.2237	0.362	0.9873	-0.414
Mof_O 	O 	0.7848	0.3525	0.8165	-0.487
Mof_O 	O 	0.5203	0.2179	0.8473	-0.491
Mof_O 	O 	0.9844	0.5679	0.659	-0.447
Mof_O 	O 	0.9298	0.7118	0.4895	-0.268
Mof_O 	O 	0.9172	0.5698	0.8699	-0.395
Mof_O 	O 	0.7763	0.638	0.0127	-0.414
_end
