data_functionalizedCrystal
_audit_creation_method	'EQeq! by Chris Wilmer'
_symmetry_space_group_name_H-M	'P1'
_symmetry_Int_Tables_number	1
_symmetry_cell_setting	triclinic
loop_
_symmetry_equiv_pos_as_xyz
  x,y,z
_cell_length_a	7.675
_cell_length_b	7.675
_cell_length_c	8.056
_cell_angle_alpha	90
_cell_angle_beta	90
_cell_angle_gamma	90
loop_
_atom_site_label
_atom_site_type_symbol
_atom_site_fract_x
_atom_site_fract_y
_atom_site_fract_z
_atom_site_charge
Mof_Cd	Cd	-0	0	-0	0.334
Mof_Ni	Ni	0.5	0.5	-0	1.063
Mof_N 	N 	0.2211	0.2211	-0	-0.073
Mof_C 	C 	0.3283	0.3283	-0	-0.234
Mof_N 	N 	0.7789	0.7789	-0	-0.049
Mof_C 	C 	0.6717	0.6717	-0	-0.219
Mof_N 	N 	0.7789	0.2211	-0	-0.06
Mof_C 	C 	0.6717	0.3283	-0	-0.226
Mof_N 	N 	0.2211	0.7789	-0	-0.06
Mof_C 	C 	0.3283	0.6717	-0	-0.226
Mof_C 	C 	-1.68793e-33	-3.32471e-33	0.4159	0.056
Mof_C 	C 	2.29874e-33	0	0.5841	0.054
Mof_N 	N 	1.07833e-33	0.074	0.274	-0.071
Mof_N 	N 	-5.57109e-33	0.926	0.274	-0.027
Mof_N 	N 	0.926	0	0.274	-0.027
Mof_N 	N 	0.074	0	0.274	-0.071
Mof_N 	N 	2.85719e-33	0.074	0.726	-0.062
Mof_N 	N 	2.85719e-33	0.926	0.726	-0.02
Mof_N 	N 	0.074	0	0.726	-0.062
Mof_N 	N 	0.926	0	0.726	-0.02
_end
