# CIF file generated by openbabel 3.1.0, see https://openbabel.org
data_I
_chemical_name_common 'image0'
_cell_length_a 9.876
_cell_length_b 10.3
_cell_length_c 13.498
_cell_angle_alpha 81.96
_cell_angle_beta 86.68
_cell_angle_gamma 65.42
_space_group_name_H-M_alt 'P 1'
_space_group_name_Hall 'P 1'
loop_
    _symmetry_equiv_pos_as_xyz
    x,y,z
loop_
    _atom_site_label
    _atom_site_type_symbol
    _atom_site_fract_x
    _atom_site_fract_y
    _atom_site_fract_z
    _atom_site_occupancy
    Dy1      Dy       0.33377    0.21780    0.18320    1.000
    Cs1      Cs       0.14932    0.55008    0.38407    1.000
    Mo1      Mo       0.25580    0.37520    0.76029    1.000
    O1       O        0.35040    0.44520    0.18490    1.000
    H1       H        0.45360    0.42300    0.20170    1.000
    N1       N        0.09430    0.66090    0.59280    1.000
    N2       N        0.25130    0.26140    0.54220    1.000
    N3       N        0.56730    0.38980    0.66640    1.000
    N4       N        0.51740    0.04200    0.79100    1.000
    N5       N        0.32230    0.62640    0.84900    1.000
    N6       N        0.29340    0.28080    0.00400    1.000
    N7       N        0.91760    0.58680    0.82810    1.000
    N8       N        0.05490    0.18320    0.79570    1.000
    C1       C        0.15490    0.56180    0.64930    1.000
    C2       C        0.25420    0.29820    0.61810    1.000
    C3       C        0.45780    0.38350    0.69550    1.000
    C4       C        0.42760    0.15820    0.78090    1.000
    C5       C        0.29650    0.53870    0.82050    1.000
    C6       C        0.28140    0.31220    0.91970    1.000
    C7       C        0.03710    0.50940    0.80970    1.000
    C8       C        0.12720    0.24760    0.78570    1.000
    C9       C        0.30550    0.56370    0.10510    1.000
    H2       H        0.35830    0.53150    0.04510    1.000
    H3       H        0.32790    0.63950    0.12330    1.000
    H4       H        0.20040    0.59910    0.09390    1.000
    Dy2      Dy       0.66623    0.78220    0.81680    1.000
    Cs2      Cs       0.85068    0.44992    0.61593    1.000
    Mo2      Mo       0.74420    0.62480    0.23971    1.000
    O2       O        0.64960    0.55480    0.81510    1.000
    H5       H        0.54640    0.57700    0.79830    1.000
    N9       N        0.90570    0.33910    0.40720    1.000
    N10      N        0.74870    0.73860    0.45780    1.000
    N11      N        0.43270    0.61020    0.33360    1.000
    N12      N        0.48260    0.95800    0.20900    1.000
    N13      N        0.67770    0.37360    0.15100    1.000
    N14      N        0.70660    0.71920    0.99600    1.000
    N15      N        0.08240    0.41320    0.17190    1.000
    N16      N        0.94510    0.81680    0.20430    1.000
    C10      C        0.84510    0.43820    0.35070    1.000
    C11      C        0.74580    0.70180    0.38190    1.000
    C12      C        0.54220    0.61650    0.30450    1.000
    C13      C        0.57240    0.84180    0.21910    1.000
    C14      C        0.70350    0.46130    0.17950    1.000
    C15      C        0.71860    0.68780    0.08030    1.000
    C16      C        0.96290    0.49060    0.19030    1.000
    C17      C        0.87280    0.75240    0.21430    1.000
    C18      C        0.69450    0.43630    0.89490    1.000
    H6       H        0.64170    0.46850    0.95490    1.000
    H7       H        0.67210    0.36050    0.87670    1.000
    H8       H        0.79960    0.40090    0.90610    1.000
