# CIF file generated by openbabel 3.1.0, see https://openbabel.org
data_I
_chemical_name_common 'image0'
_cell_length_a 16.264
_cell_length_b 15.11
_cell_length_c 14.376
_cell_angle_alpha 90
_cell_angle_beta 115.148
_cell_angle_gamma 90
_space_group_name_H-M_alt 'P 1'
_space_group_name_Hall 'P 1'
loop_
    _symmetry_equiv_pos_as_xyz
    x,y,z
loop_
    _atom_site_label
    _atom_site_type_symbol
    _atom_site_fract_x
    _atom_site_fract_y
    _atom_site_fract_z
    _atom_site_occupancy
    C1       C        0.68610    0.40430    0.56720    1.000
    C2       C        0.74330    0.32570    0.62370    1.000
    C3       C        0.70730    0.24140    0.60460    1.000
    C4       C        0.75690    0.16910    0.66040    1.000
    C5       C        0.84450    0.17960    0.73650    1.000
    C6       C        0.88000    0.26410    0.75570    1.000
    C7       C        0.83060    0.33600    0.69910    1.000
    C8       C        0.89800    0.10030    0.79370    1.000
    O1       O        0.61160    0.40980    0.57740    1.000
    O2       O        0.71260    0.45360    0.51810    1.000
    O3       O        0.93370    0.10470    0.88920    1.000
    O4       O        0.90140    0.03700    0.73830    1.000
    O5       O        0.44000    0.44420    0.58960    1.000
    H1       H        0.39000    0.46900    0.57600    1.000
    F1       F        0.62370    0.22700    0.53140    1.000
    F2       F        0.71710    0.08970    0.64100    1.000
    F3       F        0.96430    0.27780    0.82830    1.000
    F4       F        0.86800    0.41640    0.72300    1.000
    C9       C        0.18610    0.90430    0.56720    1.000
    C10      C        0.24330    0.82570    0.62370    1.000
    C11      C        0.20730    0.74140    0.60460    1.000
    C12      C        0.25690    0.66910    0.66040    1.000
    C13      C        0.34450    0.67960    0.73650    1.000
    C14      C        0.38000    0.76410    0.75570    1.000
    C15      C        0.33060    0.83600    0.69910    1.000
    C16      C        0.39800    0.60030    0.79370    1.000
    O6       O        0.11160    0.90980    0.57740    1.000
    O7       O        0.21260    0.95360    0.51810    1.000
    O8       O        0.43370    0.60470    0.88920    1.000
    O9       O        0.40140    0.53700    0.73830    1.000
    O10      O        0.94000    0.94420    0.58960    1.000
    H2       H        0.89000    0.96900    0.57600    1.000
    F5       F        0.12370    0.72700    0.53140    1.000
    F6       F        0.21710    0.58970    0.64100    1.000
    F7       F        0.46430    0.77780    0.82830    1.000
    F8       F        0.36800    0.91640    0.72300    1.000
    C17      C        0.31390    0.40430    0.93280    1.000
    C18      C        0.25670    0.32570    0.87630    1.000
    C19      C        0.29270    0.24140    0.89540    1.000
    C20      C        0.24310    0.16910    0.83960    1.000
    C21      C        0.15550    0.17960    0.76350    1.000
    C22      C        0.12000    0.26410    0.74430    1.000
    C23      C        0.16940    0.33600    0.80090    1.000
    C24      C        0.10200    0.10030    0.70630    1.000
    O11      O        0.38840    0.40980    0.92260    1.000
    O12      O        0.28740    0.45360    0.98190    1.000
    O13      O        0.06630    0.10470    0.61080    1.000
    O14      O        0.09860    0.03700    0.76170    1.000
    O15      O        0.56000    0.44420    0.91040    1.000
    H3       H        0.61000    0.46900    0.92400    1.000
    F9       F        0.37630    0.22700    0.96860    1.000
    F10      F        0.28290    0.08970    0.85900    1.000
    F11      F        0.03570    0.27780    0.67170    1.000
    F12      F        0.13200    0.41640    0.77700    1.000
    C25      C        0.81390    0.90430    0.93280    1.000
    C26      C        0.75670    0.82570    0.87630    1.000
    C27      C        0.79270    0.74140    0.89540    1.000
    C28      C        0.74310    0.66910    0.83960    1.000
    C29      C        0.65550    0.67960    0.76350    1.000
    C30      C        0.62000    0.76410    0.74430    1.000
    C31      C        0.66940    0.83600    0.80090    1.000
    C32      C        0.60200    0.60030    0.70630    1.000
    O16      O        0.88840    0.90980    0.92260    1.000
    O17      O        0.78740    0.95360    0.98190    1.000
    O18      O        0.56630    0.60470    0.61080    1.000
    O19      O        0.59860    0.53700    0.76170    1.000
    O20      O        0.06000    0.94420    0.91040    1.000
    H4       H        0.11000    0.96900    0.92400    1.000
    F13      F        0.87630    0.72700    0.96860    1.000
    F14      F        0.78290    0.58970    0.85900    1.000
    F15      F        0.53570    0.77780    0.67170    1.000
    F16      F        0.63200    0.91640    0.77700    1.000
    C33      C        0.31390    0.59570    0.43280    1.000
    C34      C        0.25670    0.67430    0.37630    1.000
    C35      C        0.29270    0.75860    0.39540    1.000
    C36      C        0.24310    0.83090    0.33960    1.000
    C37      C        0.15550    0.82040    0.26350    1.000
    C38      C        0.12000    0.73590    0.24430    1.000
    C39      C        0.16940    0.66400    0.30090    1.000
    C40      C        0.10200    0.89970    0.20630    1.000
    O21      O        0.38840    0.59020    0.42260    1.000
    O22      O        0.28740    0.54640    0.48190    1.000
    O23      O        0.06630    0.89530    0.11080    1.000
    O24      O        0.09860    0.96300    0.26170    1.000
    O25      O        0.56000    0.55580    0.41040    1.000
    H5       H        0.61000    0.53100    0.42400    1.000
    F17      F        0.37630    0.77300    0.46860    1.000
    F18      F        0.28290    0.91030    0.35900    1.000
    F19      F        0.03570    0.72220    0.17170    1.000
    F20      F        0.13200    0.58360    0.27700    1.000
    C41      C        0.81390    0.09570    0.43280    1.000
    C42      C        0.75670    0.17430    0.37630    1.000
    C43      C        0.79270    0.25860    0.39540    1.000
    C44      C        0.74310    0.33090    0.33960    1.000
    C45      C        0.65550    0.32040    0.26350    1.000
    C46      C        0.62000    0.23590    0.24430    1.000
    C47      C        0.66940    0.16400    0.30090    1.000
    C48      C        0.60200    0.39970    0.20630    1.000
    O26      O        0.88840    0.09020    0.42260    1.000
    O27      O        0.78740    0.04640    0.48190    1.000
    O28      O        0.56630    0.39530    0.11080    1.000
    O29      O        0.59860    0.46300    0.26170    1.000
    O30      O        0.06000    0.05580    0.41040    1.000
    H6       H        0.11000    0.03100    0.42400    1.000
    F21      F        0.87630    0.27300    0.46860    1.000
    F22      F        0.78290    0.41030    0.35900    1.000
    F23      F        0.53570    0.22220    0.17170    1.000
    F24      F        0.63200    0.08360    0.27700    1.000
    C49      C        0.68610    0.59570    0.06720    1.000
    C50      C        0.74330    0.67430    0.12370    1.000
    C51      C        0.70730    0.75860    0.10460    1.000
    C52      C        0.75690    0.83090    0.16040    1.000
    C53      C        0.84450    0.82040    0.23650    1.000
    C54      C        0.88000    0.73590    0.25570    1.000
    C55      C        0.83060    0.66400    0.19910    1.000
    C56      C        0.89800    0.89970    0.29370    1.000
    O31      O        0.61160    0.59020    0.07740    1.000
    O32      O        0.71260    0.54640    0.01810    1.000
    O33      O        0.93370    0.89530    0.38920    1.000
    O34      O        0.90140    0.96300    0.23830    1.000
    O35      O        0.44000    0.55580    0.08960    1.000
    H7       H        0.39000    0.53100    0.07600    1.000
    F25      F        0.62370    0.77300    0.03140    1.000
    F26      F        0.71710    0.91030    0.14100    1.000
    F27      F        0.96430    0.72220    0.32830    1.000
    F28      F        0.86800    0.58360    0.22300    1.000
    C57      C        0.18610    0.09570    0.06720    1.000
    C58      C        0.24330    0.17430    0.12370    1.000
    C59      C        0.20730    0.25860    0.10460    1.000
    C60      C        0.25690    0.33090    0.16040    1.000
    C61      C        0.34450    0.32040    0.23650    1.000
    C62      C        0.38000    0.23590    0.25570    1.000
    C63      C        0.33060    0.16400    0.19910    1.000
    C64      C        0.39800    0.39970    0.29370    1.000
    O36      O        0.11160    0.09020    0.07740    1.000
    O37      O        0.21260    0.04640    0.01810    1.000
    O38      O        0.43370    0.39530    0.38920    1.000
    O39      O        0.40140    0.46300    0.23830    1.000
    O40      O        0.94000    0.05580    0.08960    1.000
    H8       H        0.89000    0.03100    0.07600    1.000
    F29      F        0.12370    0.27300    0.03140    1.000
    F30      F        0.21710    0.41030    0.14100    1.000
    F31      F        0.46430    0.22220    0.32830    1.000
    F32      F        0.36800    0.08360    0.22300    1.000
    In1      In       0.50000    0.50000    0.50000    1.000
    In2      In       0.00000    0.00000    0.50000    1.000
    In3      In       0.50000    0.50000    0.00000    1.000
    In4      In       0.00000    0.00000    0.00000    1.000
    In5      In       0.50000    0.43551    0.75000    1.000
    In6      In       0.00000    0.93551    0.75000    1.000
    In7      In       0.50000    0.56449    0.25000    1.000
    In8      In       0.00000    0.06449    0.25000    1.000
