# CIF file generated by openbabel 3.1.0, see https://openbabel.org
data_I
_chemical_name_common 'image0'
_cell_length_a 13.6147
_cell_length_b 17.8396
_cell_length_c 20.182
_cell_angle_alpha 90
_cell_angle_beta 94.425
_cell_angle_gamma 90
_space_group_name_H-M_alt 'P 1'
_space_group_name_Hall 'P 1'
loop_
    _symmetry_equiv_pos_as_xyz
    x,y,z
loop_
    _atom_site_label
    _atom_site_type_symbol
    _atom_site_fract_x
    _atom_site_fract_y
    _atom_site_fract_z
    _atom_site_occupancy
    C1       C        0.58830    0.50870    0.66190    1.000
    C2       C        0.58630    0.47110    0.72210    1.000
    H1       H        0.63100    0.43240    0.73160    1.000
    C3       C        0.52070    0.48910    0.76800    1.000
    H2       H        0.52210    0.46320    0.80810    1.000
    C4       C        0.45290    0.54550    0.75490    1.000
    C5       C        0.44810    0.58020    0.69340    1.000
    H3       H        0.39930    0.61560    0.68260    1.000
    C6       C        0.51610    0.56250    0.64780    1.000
    H4       H        0.51310    0.58720    0.60720    1.000
    C7       C        0.67740    0.40690    0.55790    1.000
    C8       C        0.59230    0.36540    0.55530    1.000
    H5       H        0.54550    0.37600    0.58510    1.000
    C9       C        0.57400    0.30800    0.50950    1.000
    H6       H        0.51550    0.28090    0.50900    1.000
    C10      C        0.64240    0.29110    0.46470    1.000
    C11      C        0.72880    0.33130    0.46810    1.000
    H7       H        0.77690    0.31970    0.43940    1.000
    C12      C        0.74500    0.38820    0.51330    1.000
    H8       H        0.80350    0.41510    0.51380    1.000
    C13      C        0.70700    0.57240    0.55200    1.000
    C14      C        0.67360    0.56840    0.48560    1.000
    H9       H        0.63940    0.52590    0.47040    1.000
    C15      C        0.68920    0.62540    0.44120    1.000
    H10      H        0.66560    0.62050    0.39700    1.000
    C16      C        0.73960    0.68940    0.46190    1.000
    C17      C        0.77090    0.69530    0.52860    1.000
    H11      H        0.80360    0.73830    0.54420    1.000
    C18      C        0.75390    0.63780    0.57220    1.000
    H12      H        0.77490    0.64350    0.61690    1.000
    C19      C        0.80230    0.48990    0.67440    1.000
    C20      C        0.87990    0.44000    0.67360    1.000
    H13      H        0.88230    0.40700    0.63810    1.000
    C21      C        0.95470    0.43770    0.72470    1.000
    H14      H        0.00610    0.40370    0.72280    1.000
    C22      C        0.95280    0.48590    0.77850    1.000
    C23      C        0.87650    0.53680    0.77970    1.000
    H15      H        0.87480    0.57010    0.81510    1.000
    C24      C        0.80250    0.53860    0.72860    1.000
    H16      H        0.75170    0.57320    0.73040    1.000
    C25      C        0.02470    0.75340    0.34490    1.000
    H17      H        0.98860    0.75490    0.38220    1.000
    C26      C        0.05750    0.74700    0.24500    1.000
    H18      H        0.05310    0.74360    0.19890    1.000
    C27      C        0.24160    0.74760    0.26660    1.000
    C28      C        0.26290    0.71980    0.20630    1.000
    H19      H        0.21240    0.70480    0.17550    1.000
    C29      C        0.36020    0.71420    0.19150    1.000
    H20      H        0.37500    0.69610    0.15020    1.000
    C30      C        0.43570    0.73520    0.23760    1.000
    C31      C        0.41240    0.76320    0.29760    1.000
    H21      H        0.46270    0.77880    0.32840    1.000
    C32      C        0.31630    0.76880    0.31320    1.000
    H22      H        0.30160    0.78670    0.35460    1.000
    C33      C        0.53850    0.72340    0.22260    1.000
    Cu1      Cu       0.75358    0.08141    0.37155    1.000
    Cu2      Cu       0.83686    0.74387    0.25515    1.000
    Cu3      Cu       0.64720    0.85727    0.30268    1.000
    N1       N        0.98200    0.74820    0.28196    1.000
    N2       N        0.12030    0.75600    0.34850    1.000
    N3       N        0.14150    0.75150    0.28370    1.000
    N4       N        0.61750    0.75870    0.25023    1.000
    N5       N        0.69500    0.72500    0.22579    1.000
    N6       N        0.66330    0.67220    0.18380    1.000
    N7       N        0.56530    0.67060    0.18100    1.000
    O1       O        0.42370    0.58320    0.88191    1.000
    O2       O        0.30460    0.49730    0.81920    1.000
    O3       O        0.30520    0.63333    0.78902    1.000
    O4       O        0.51880    0.18815    0.41017    1.000
    O5       O        0.63660    0.25052    0.33784    1.000
    O6       O        0.70060    0.15661    0.42752    1.000
    O7       O        0.81050    0.71736    0.34574    1.000
    O8       O        0.67470    0.80180    0.38371    1.000
    O9       O        0.84720    0.80790    0.44091    1.000
    H23      H        0.86150    0.84320    0.41750    1.000
    O10      O        0.12520    0.43089    0.82348    1.000
    O11      O        0.08610    0.56584    0.85412    1.000
    O12      O        0.00490    0.46010    0.90833    1.000
    P1       P        0.36771    0.56755    0.81539    1.000
    P2       P        0.62658    0.21710    0.40484    1.000
    P3       P        0.76749    0.75821    0.40210    1.000
    P4       P        0.04901    0.48617    0.84480    1.000
    Si1      Si       0.69393    0.49293    0.61050    1.000
    C34      C        0.68160    0.97810    0.21120    1.000
    C35      C        0.57060    0.90760    0.16570    1.000
    N8       N        0.66140    0.01010    0.15420    1.000
    C36      C        0.55230    0.05330    0.03630    1.000
    H24      H        0.58830    0.08920    0.06130    1.000
    C37      C        0.54300    0.98190    0.06120    1.000
    C38      C        0.49110    0.92850    0.02480    1.000
    H25      H        0.48530    0.88030    0.04160    1.000
    C39      C        0.59040    0.96430    0.12450    1.000
    N9       N        0.62820    0.91610    0.21920    1.000
    C40      C        0.91170    0.00870    0.83810    1.000
    C41      C        0.91370    0.97110    0.77790    1.000
    H26      H        0.86900    0.93240    0.76840    1.000
    C42      C        0.97930    0.98910    0.73200    1.000
    H27      H        0.97790    0.96320    0.69190    1.000
    C43      C        0.04710    0.04550    0.74510    1.000
    C44      C        0.05190    0.08020    0.80660    1.000
    H28      H        0.10070    0.11560    0.81740    1.000
    C45      C        0.98390    0.06250    0.85220    1.000
    H29      H        0.98690    0.08720    0.89280    1.000
    C46      C        0.82260    0.90690    0.94210    1.000
    C47      C        0.90770    0.86540    0.94470    1.000
    H30      H        0.95450    0.87600    0.91490    1.000
    C48      C        0.92600    0.80800    0.99050    1.000
    H31      H        0.98450    0.78090    0.99100    1.000
    C49      C        0.85760    0.79110    0.03530    1.000
    C50      C        0.77120    0.83130    0.03190    1.000
    H32      H        0.72310    0.81970    0.06060    1.000
    C51      C        0.75500    0.88820    0.98670    1.000
    H33      H        0.69650    0.91510    0.98620    1.000
    C52      C        0.79300    0.07240    0.94800    1.000
    C53      C        0.82640    0.06840    0.01440    1.000
    H34      H        0.86060    0.02590    0.02960    1.000
    C54      C        0.81080    0.12540    0.05880    1.000
    H35      H        0.83440    0.12050    0.10300    1.000
    C55      C        0.76040    0.18940    0.03810    1.000
    C56      C        0.72910    0.19530    0.97140    1.000
    H36      H        0.69640    0.23830    0.95580    1.000
    C57      C        0.74610    0.13780    0.92780    1.000
    H37      H        0.72510    0.14350    0.88310    1.000
    C58      C        0.69770    0.98990    0.82560    1.000
    C59      C        0.62010    0.94000    0.82640    1.000
    H38      H        0.61770    0.90700    0.86190    1.000
    C60      C        0.54530    0.93770    0.77530    1.000
    H39      H        0.49390    0.90370    0.77720    1.000
    C61      C        0.54720    0.98590    0.72150    1.000
    C62      C        0.62350    0.03680    0.72030    1.000
    H40      H        0.62520    0.07010    0.68490    1.000
    C63      C        0.69750    0.03860    0.77140    1.000
    H41      H        0.74830    0.07320    0.76960    1.000
    C64      C        0.47530    0.25340    0.15510    1.000
    H42      H        0.51140    0.25490    0.11780    1.000
    C65      C        0.44250    0.24700    0.25500    1.000
    H43      H        0.44690    0.24360    0.30110    1.000
    C66      C        0.25840    0.24760    0.23340    1.000
    C67      C        0.23710    0.21980    0.29370    1.000
    H44      H        0.28760    0.20480    0.32450    1.000
    C68      C        0.13980    0.21420    0.30850    1.000
    H45      H        0.12500    0.19610    0.34980    1.000
    C69      C        0.06430    0.23520    0.26240    1.000
    C70      C        0.08760    0.26320    0.20240    1.000
    H46      H        0.03730    0.27880    0.17160    1.000
    C71      C        0.18370    0.26880    0.18680    1.000
    H47      H        0.19840    0.28670    0.14540    1.000
    C72      C        0.96150    0.22340    0.27740    1.000
    Cu4      Cu       0.74642    0.58141    0.12845    1.000
    Cu5      Cu       0.66314    0.24387    0.24485    1.000
    Cu6      Cu       0.85280    0.35727    0.19732    1.000
    N10      N        0.51800    0.24820    0.21804    1.000
    N11      N        0.37970    0.25600    0.15150    1.000
    N12      N        0.35850    0.25150    0.21630    1.000
    N13      N        0.88250    0.25870    0.24977    1.000
    N14      N        0.80500    0.22500    0.27421    1.000
    N15      N        0.83670    0.17220    0.31620    1.000
    N16      N        0.93470    0.17060    0.31900    1.000
    O13      O        0.07630    0.08320    0.61809    1.000
    O14      O        0.19540    0.99730    0.68080    1.000
    O15      O        0.19480    0.13333    0.71098    1.000
    O16      O        0.98120    0.68815    0.08983    1.000
    O17      O        0.86340    0.75052    0.16216    1.000
    O18      O        0.79940    0.65661    0.07248    1.000
    O19      O        0.68950    0.21736    0.15426    1.000
    O20      O        0.82530    0.30180    0.11629    1.000
    O21      O        0.65280    0.30790    0.05909    1.000
    H48      H        0.63850    0.34320    0.08250    1.000
    O22      O        0.37480    0.93089    0.67652    1.000
    O23      O        0.41390    0.06584    0.64588    1.000
    O24      O        0.49510    0.96010    0.59167    1.000
    P5       P        0.13229    0.06755    0.68461    1.000
    P6       P        0.87342    0.71710    0.09516    1.000
    P7       P        0.73251    0.25821    0.09790    1.000
    P8       P        0.45099    0.98617    0.65520    1.000
    Si2      Si       0.80607    0.99293    0.88950    1.000
    C73      C        0.81840    0.47810    0.28880    1.000
    C74      C        0.92940    0.40760    0.33430    1.000
    N17      N        0.83860    0.51010    0.34580    1.000
    C75      C        0.94770    0.55330    0.46370    1.000
    H49      H        0.91170    0.58920    0.43870    1.000
    C76      C        0.95700    0.48190    0.43880    1.000
    C77      C        0.00890    0.42850    0.47520    1.000
    H50      H        0.01470    0.38030    0.45840    1.000
    C78      C        0.90960    0.46430    0.37550    1.000
    N18      N        0.87180    0.41610    0.28080    1.000
    C79      C        0.41170    0.49130    0.33810    1.000
    C80      C        0.41370    0.52890    0.27790    1.000
    H51      H        0.36900    0.56760    0.26840    1.000
    C81      C        0.47930    0.51090    0.23200    1.000
    H52      H        0.47790    0.53680    0.19190    1.000
    C82      C        0.54710    0.45450    0.24510    1.000
    C83      C        0.55190    0.41980    0.30660    1.000
    H53      H        0.60070    0.38440    0.31740    1.000
    C84      C        0.48390    0.43750    0.35220    1.000
    H54      H        0.48690    0.41280    0.39280    1.000
    C85      C        0.32260    0.59310    0.44210    1.000
    C86      C        0.40770    0.63460    0.44470    1.000
    H55      H        0.45450    0.62400    0.41490    1.000
    C87      C        0.42600    0.69200    0.49050    1.000
    H56      H        0.48450    0.71910    0.49100    1.000
    C88      C        0.35760    0.70890    0.53530    1.000
    C89      C        0.27120    0.66870    0.53190    1.000
    H57      H        0.22310    0.68030    0.56060    1.000
    C90      C        0.25500    0.61180    0.48670    1.000
    H58      H        0.19650    0.58490    0.48620    1.000
    C91      C        0.29300    0.42760    0.44800    1.000
    C92      C        0.32640    0.43160    0.51440    1.000
    H59      H        0.36060    0.47410    0.52960    1.000
    C93      C        0.31080    0.37460    0.55880    1.000
    H60      H        0.33440    0.37950    0.60300    1.000
    C94      C        0.26040    0.31060    0.53810    1.000
    C95      C        0.22910    0.30470    0.47140    1.000
    H61      H        0.19640    0.26170    0.45580    1.000
    C96      C        0.24610    0.36220    0.42780    1.000
    H62      H        0.22510    0.35650    0.38310    1.000
    C97      C        0.19770    0.51010    0.32560    1.000
    C98      C        0.12010    0.56000    0.32640    1.000
    H63      H        0.11770    0.59300    0.36190    1.000
    C99      C        0.04530    0.56230    0.27530    1.000
    H64      H        0.99390    0.59630    0.27720    1.000
    C100     C        0.04720    0.51410    0.22150    1.000
    C101     C        0.12350    0.46320    0.22030    1.000
    H65      H        0.12520    0.42990    0.18490    1.000
    C102     C        0.19750    0.46140    0.27140    1.000
    H66      H        0.24830    0.42680    0.26960    1.000
    C103     C        0.97530    0.24660    0.65510    1.000
    H67      H        0.01140    0.24510    0.61780    1.000
    C104     C        0.94250    0.25300    0.75500    1.000
    H68      H        0.94690    0.25640    0.80110    1.000
    C105     C        0.75840    0.25240    0.73340    1.000
    C106     C        0.73710    0.28020    0.79370    1.000
    H69      H        0.78760    0.29520    0.82450    1.000
    C107     C        0.63980    0.28580    0.80850    1.000
    H70      H        0.62500    0.30390    0.84980    1.000
    C108     C        0.56430    0.26480    0.76240    1.000
    C109     C        0.58760    0.23680    0.70240    1.000
    H71      H        0.53730    0.22120    0.67160    1.000
    C110     C        0.68370    0.23120    0.68680    1.000
    H72      H        0.69840    0.21330    0.64540    1.000
    C111     C        0.46150    0.27660    0.77740    1.000
    Cu7      Cu       0.24642    0.91859    0.62845    1.000
    Cu8      Cu       0.16314    0.25613    0.74485    1.000
    Cu9      Cu       0.35280    0.14273    0.69732    1.000
    N19      N        0.01800    0.25180    0.71804    1.000
    N20      N        0.87970    0.24400    0.65150    1.000
    N21      N        0.85850    0.24850    0.71630    1.000
    N22      N        0.38250    0.24130    0.74977    1.000
    N23      N        0.30500    0.27500    0.77421    1.000
    N24      N        0.33670    0.32780    0.81620    1.000
    N25      N        0.43470    0.32940    0.81900    1.000
    O25      O        0.57630    0.41680    0.11809    1.000
    O26      O        0.69540    0.50270    0.18080    1.000
    O27      O        0.69480    0.36667    0.21098    1.000
    O28      O        0.48120    0.81185    0.58983    1.000
    O29      O        0.36340    0.74948    0.66216    1.000
    O30      O        0.29940    0.84339    0.57248    1.000
    O31      O        0.18950    0.28264    0.65426    1.000
    O32      O        0.32530    0.19820    0.61629    1.000
    O33      O        0.15280    0.19210    0.55909    1.000
    H73      H        0.13850    0.15680    0.58250    1.000
    O34      O        0.87480    0.56911    0.17652    1.000
    O35      O        0.91390    0.43416    0.14588    1.000
    O36      O        0.99510    0.53990    0.09167    1.000
    P9       P        0.63229    0.43245    0.18461    1.000
    P10      P        0.37342    0.78290    0.59516    1.000
    P11      P        0.23251    0.24179    0.59790    1.000
    P12      P        0.95099    0.51383    0.15520    1.000
    Si3      Si       0.30607    0.50707    0.38950    1.000
    C112     C        0.31840    0.02190    0.78880    1.000
    C113     C        0.42940    0.09240    0.83430    1.000
    N26      N        0.33860    0.98990    0.84580    1.000
    C114     C        0.44770    0.94670    0.96370    1.000
    H74      H        0.41170    0.91080    0.93870    1.000
    C115     C        0.45700    0.01810    0.93880    1.000
    C116     C        0.50890    0.07150    0.97520    1.000
    H75      H        0.51470    0.11970    0.95840    1.000
    C117     C        0.40960    0.03570    0.87550    1.000
    N27      N        0.37180    0.08390    0.78080    1.000
    C118     C        0.08830    0.99130    0.16190    1.000
    C119     C        0.08630    0.02890    0.22210    1.000
    H76      H        0.13100    0.06760    0.23160    1.000
    C120     C        0.02070    0.01090    0.26800    1.000
    H77      H        0.02210    0.03680    0.30810    1.000
    C121     C        0.95290    0.95450    0.25490    1.000
    C122     C        0.94810    0.91980    0.19340    1.000
    H78      H        0.89930    0.88440    0.18260    1.000
    C123     C        0.01610    0.93750    0.14780    1.000
    H79      H        0.01310    0.91280    0.10720    1.000
    C124     C        0.17740    0.09310    0.05790    1.000
    C125     C        0.09230    0.13460    0.05530    1.000
    H80      H        0.04550    0.12400    0.08510    1.000
    C126     C        0.07400    0.19200    0.00950    1.000
    H81      H        0.01550    0.21910    0.00900    1.000
    C127     C        0.14240    0.20890    0.96470    1.000
    C128     C        0.22880    0.16870    0.96810    1.000
    H82      H        0.27690    0.18030    0.93940    1.000
    C129     C        0.24500    0.11180    0.01330    1.000
    H83      H        0.30350    0.08490    0.01380    1.000
    C130     C        0.20700    0.92760    0.05200    1.000
    C131     C        0.17360    0.93160    0.98560    1.000
    H84      H        0.13940    0.97410    0.97040    1.000
    C132     C        0.18920    0.87460    0.94120    1.000
    H85      H        0.16560    0.87950    0.89700    1.000
    C133     C        0.23960    0.81060    0.96190    1.000
    C134     C        0.27090    0.80470    0.02860    1.000
    H86      H        0.30360    0.76170    0.04420    1.000
    C135     C        0.25390    0.86220    0.07220    1.000
    H87      H        0.27490    0.85650    0.11690    1.000
    C136     C        0.30230    0.01010    0.17440    1.000
    C137     C        0.37990    0.06000    0.17360    1.000
    H88      H        0.38230    0.09300    0.13810    1.000
    C138     C        0.45470    0.06230    0.22470    1.000
    H89      H        0.50610    0.09630    0.22280    1.000
    C139     C        0.45280    0.01410    0.27850    1.000
    C140     C        0.37650    0.96320    0.27970    1.000
    H90      H        0.37480    0.92990    0.31510    1.000
    C141     C        0.30250    0.96140    0.22860    1.000
    H91      H        0.25170    0.92680    0.23040    1.000
    C142     C        0.52470    0.74660    0.84490    1.000
    H92      H        0.48860    0.74510    0.88220    1.000
    C143     C        0.55750    0.75300    0.74500    1.000
    H93      H        0.55310    0.75640    0.69890    1.000
    C144     C        0.74160    0.75240    0.76660    1.000
    C145     C        0.76290    0.78020    0.70630    1.000
    H94      H        0.71240    0.79520    0.67550    1.000
    C146     C        0.86020    0.78580    0.69150    1.000
    H95      H        0.87500    0.80390    0.65020    1.000
    C147     C        0.93570    0.76480    0.73760    1.000
    C148     C        0.91240    0.73680    0.79760    1.000
    H96      H        0.96270    0.72120    0.82840    1.000
    C149     C        0.81630    0.73120    0.81320    1.000
    H97      H        0.80160    0.71330    0.85460    1.000
    C150     C        0.03850    0.77660    0.72260    1.000
    Cu10     Cu       0.25358    0.41859    0.87155    1.000
    Cu11     Cu       0.33686    0.75613    0.75515    1.000
    Cu12     Cu       0.14720    0.64273    0.80268    1.000
    N28      N        0.48200    0.75180    0.78196    1.000
    N29      N        0.62030    0.74400    0.84850    1.000
    N30      N        0.64150    0.74850    0.78370    1.000
    N31      N        0.11750    0.74130    0.75023    1.000
    N32      N        0.19500    0.77500    0.72579    1.000
    N33      N        0.16330    0.82780    0.68380    1.000
    N34      N        0.06530    0.82940    0.68100    1.000
    O37      O        0.92370    0.91680    0.38191    1.000
    O38      O        0.80460    0.00270    0.31920    1.000
    O39      O        0.80520    0.86667    0.28902    1.000
    O40      O        0.01880    0.31185    0.91017    1.000
    O41      O        0.13660    0.24948    0.83784    1.000
    O42      O        0.20060    0.34339    0.92752    1.000
    O43      O        0.31050    0.78264    0.84574    1.000
    O44      O        0.17470    0.69820    0.88371    1.000
    O45      O        0.34720    0.69210    0.94091    1.000
    H98      H        0.36150    0.65680    0.91750    1.000
    O46      O        0.62520    0.06911    0.32348    1.000
    O47      O        0.58610    0.93416    0.35412    1.000
    O48      O        0.50490    0.03990    0.40833    1.000
    P13      P        0.86771    0.93245    0.31539    1.000
    P14      P        0.12658    0.28290    0.90484    1.000
    P15      P        0.26749    0.74179    0.90210    1.000
    P16      P        0.54901    0.01383    0.34480    1.000
    Si4      Si       0.19393    0.00707    0.11050    1.000
    C151     C        0.18160    0.52190    0.71120    1.000
    C152     C        0.07060    0.59240    0.66570    1.000
    N35      N        0.16140    0.48990    0.65420    1.000
    C153     C        0.05230    0.44670    0.53630    1.000
    H99      H        0.08830    0.41080    0.56130    1.000
    C154     C        0.04300    0.51810    0.56120    1.000
    C155     C        0.99110    0.57150    0.52480    1.000
    H100     H        0.98530    0.61970    0.54160    1.000
    C156     C        0.09040    0.53570    0.62450    1.000
    N36      N        0.12820    0.58390    0.71920    1.000
    Cu13     Cu       0.00000    0.50000    0.00000    1.000
    Cu14     Cu       0.50000    0.00000    0.50000    1.000
