# CIF file generated by openbabel 3.1.0, see https://openbabel.org
data_I
_chemical_name_common 'image0'
_cell_length_a 23.0194
_cell_length_b 23.0194
_cell_length_c 12.7354
_cell_angle_alpha 90
_cell_angle_beta 90
_cell_angle_gamma 120
_space_group_name_H-M_alt 'P 1'
_space_group_name_Hall 'P 1'
loop_
    _symmetry_equiv_pos_as_xyz
    x,y,z
loop_
    _atom_site_label
    _atom_site_type_symbol
    _atom_site_fract_x
    _atom_site_fract_y
    _atom_site_fract_z
    _atom_site_occupancy
    C1       C        0.89600    0.24280    0.44480    1.000
    C2       C        0.93450    0.25500    0.34490    1.000
    C3       C        0.78000    0.31080    0.61550    1.000
    C4       C        0.72056    0.32092    0.60940    1.000
    C5       C        0.65610    0.26770    0.60770    1.000
    H1       H        0.64850    0.22410    0.60540    1.000
    C6       C        0.99210    0.41680    0.54060    1.000
    H2       H        0.95300    0.40890    0.50680    1.000
    C7       C        0.04920    0.43070    0.47910    1.000
    H3       H        0.04670    0.42860    0.40620    1.000
    C8       C        0.10700    0.44700    0.52920    1.000
    H4       H        0.14530    0.45880    0.48970    1.000
    C9       C        0.11090    0.44690    0.63970    1.000
    C10      C        0.05120    0.42990    0.69700    1.000
    C11      C        0.16900    0.46230    0.69480    1.000
    H5       H        0.20810    0.47260    0.65850    1.000
    C12      C        0.00460    0.28320    0.34420    1.000
    H6       H        0.02790    0.29200    0.40720    1.000
    Co1      Co       0.84542    0.23688    0.62146    1.000
    N1       N        0.99277    0.41458    0.64370    1.000
    H7       H        0.86860    0.26790    0.80210    1.000
    O1       O        0.92730    0.26145    0.52810    1.000
    O2       O        0.83743    0.21397    0.44890    1.000
    O3       O        0.76678    0.25019    0.61390    1.000
    O4       O        0.83646    0.35869    0.62850    1.000
    O5       O        0.14299    0.34168    0.33830    1.000
    O6       O        0.92680    0.47510    0.77700    1.000
    H8       H        0.94030    0.50150    0.72420    1.000
    H9       H        0.88950    0.47010    0.79790    1.000
    H10      H        0.87430    0.26690    0.80580    1.000
    O7       O        0.89680    0.47360    0.76800    1.000
    H11      H        0.88060    0.47110    0.82900    1.000
    C13      C        0.75720    0.65320    0.44480    1.000
    C14      C        0.74500    0.67950    0.34490    1.000
    C15      C        0.68920    0.46920    0.61550    1.000
    C16      C        0.67908    0.39964    0.60940    1.000
    C17      C        0.73230    0.38840    0.60770    1.000
    H12      H        0.77590    0.42440    0.60540    1.000
    C18      C        0.58320    0.57530    0.54060    1.000
    H13      H        0.59110    0.54410    0.50680    1.000
    C19      C        0.56930    0.61850    0.47910    1.000
    H14      H        0.57140    0.61810    0.40620    1.000
    C20      C        0.55300    0.66000    0.52920    1.000
    H15      H        0.54120    0.68650    0.48970    1.000
    C21      C        0.55310    0.66400    0.63970    1.000
    C22      C        0.57010    0.62130    0.69700    1.000
    C23      C        0.53770    0.70670    0.69480    1.000
    H16      H        0.52740    0.73550    0.65850    1.000
    C24      C        0.71680    0.72140    0.34420    1.000
    H17      H        0.70800    0.73590    0.40720    1.000
    Co2      Co       0.76312    0.60854    0.62146    1.000
    N2       N        0.58542    0.57819    0.64370    1.000
    H18      H        0.73210    0.60070    0.80210    1.000
    O8       O        0.73855    0.66585    0.52810    1.000
    O9       O        0.78603    0.62346    0.44890    1.000
    O10      O        0.74981    0.51659    0.61390    1.000
    O11      O        0.64131    0.47777    0.62850    1.000
    O12      O        0.65832    0.80131    0.33830    1.000
    O13      O        0.52490    0.45170    0.77700    1.000
    H19      H        0.49850    0.43880    0.72420    1.000
    H20      H        0.52990    0.41940    0.79790    1.000
    H21      H        0.73310    0.60740    0.80580    1.000
    O14      O        0.52640    0.42320    0.76800    1.000
    H22      H        0.52890    0.40950    0.82900    1.000
    C25      C        0.34680    0.10400    0.44480    1.000
    C26      C        0.32050    0.06550    0.34490    1.000
    C27      C        0.53080    0.22000    0.61550    1.000
    C28      C        0.60036    0.27944    0.60940    1.000
    C29      C        0.61160    0.34390    0.60770    1.000
    H23      H        0.57560    0.35150    0.60540    1.000
    C30      C        0.42470    0.00790    0.54060    1.000
    H24      H        0.45590    0.04700    0.50680    1.000
    C31      C        0.38150    0.95080    0.47910    1.000
    H25      H        0.38190    0.95330    0.40620    1.000
    C32      C        0.34000    0.89300    0.52920    1.000
    H26      H        0.31350    0.85470    0.48970    1.000
    C33      C        0.33600    0.88910    0.63970    1.000
    C34      C        0.37870    0.94880    0.69700    1.000
    C35      C        0.29330    0.83100    0.69480    1.000
    H27      H        0.26450    0.79190    0.65850    1.000
    C36      C        0.27860    0.99540    0.34420    1.000
    H28      H        0.26410    0.97210    0.40720    1.000
    Co3      Co       0.39146    0.15458    0.62146    1.000
    N3       N        0.42181    0.00723    0.64370    1.000
    H29      H        0.39930    0.13140    0.80210    1.000
    O15      O        0.33415    0.07270    0.52810    1.000
    O16      O        0.37654    0.16257    0.44890    1.000
    O17      O        0.48341    0.23322    0.61390    1.000
    O18      O        0.52223    0.16354    0.62850    1.000
    O19      O        0.19869    0.85701    0.33830    1.000
    O20      O        0.54830    0.07320    0.77700    1.000
    H30      H        0.56120    0.05970    0.72420    1.000
    H31      H        0.58060    0.11050    0.79790    1.000
    H32      H        0.39260    0.12570    0.80580    1.000
    O21      O        0.57680    0.10320    0.76800    1.000
    H33      H        0.59050    0.11940    0.82900    1.000
    C37      C        0.10400    0.75720    0.94480    1.000
    C38      C        0.06550    0.74500    0.84490    1.000
    C39      C        0.22000    0.68920    0.11550    1.000
    C40      C        0.27944    0.67908    0.10940    1.000
    C41      C        0.34390    0.73230    0.10770    1.000
    H34      H        0.35150    0.77590    0.10540    1.000
    C42      C        0.00790    0.58320    0.04060    1.000
    H35      H        0.04700    0.59110    0.00680    1.000
    C43      C        0.95080    0.56930    0.97910    1.000
    H36      H        0.95330    0.57140    0.90620    1.000
    C44      C        0.89300    0.55300    0.02920    1.000
    H37      H        0.85470    0.54120    0.98970    1.000
    C45      C        0.88910    0.55310    0.13970    1.000
    C46      C        0.94880    0.57010    0.19700    1.000
    C47      C        0.83100    0.53770    0.19480    1.000
    H38      H        0.79190    0.52740    0.15850    1.000
    C48      C        0.99540    0.71680    0.84420    1.000
    H39      H        0.97210    0.70800    0.90720    1.000
    Co4      Co       0.15458    0.76312    0.12146    1.000
    N4       N        0.00723    0.58542    0.14370    1.000
    H40      H        0.13140    0.73210    0.30210    1.000
    O22      O        0.07270    0.73855    0.02810    1.000
    O23      O        0.16257    0.78603    0.94890    1.000
    O24      O        0.23322    0.74981    0.11390    1.000
    O25      O        0.16354    0.64131    0.12850    1.000
    O26      O        0.85701    0.65832    0.83830    1.000
    O27      O        0.07320    0.52490    0.27700    1.000
    H41      H        0.05970    0.49850    0.22420    1.000
    H42      H        0.11050    0.52990    0.29790    1.000
    H43      H        0.12570    0.73310    0.30580    1.000
    O28      O        0.10320    0.52640    0.26800    1.000
    H44      H        0.11940    0.52890    0.32900    1.000
    C49      C        0.24280    0.34680    0.94480    1.000
    C50      C        0.25500    0.32050    0.84490    1.000
    C51      C        0.31080    0.53080    0.11550    1.000
    C52      C        0.32092    0.60036    0.10940    1.000
    C53      C        0.26770    0.61160    0.10770    1.000
    H45      H        0.22410    0.57560    0.10540    1.000
    C54      C        0.41680    0.42470    0.04060    1.000
    H46      H        0.40890    0.45590    0.00680    1.000
    C55      C        0.43070    0.38150    0.97910    1.000
    H47      H        0.42860    0.38190    0.90620    1.000
    C56      C        0.44700    0.34000    0.02920    1.000
    H48      H        0.45880    0.31350    0.98970    1.000
    C57      C        0.44690    0.33600    0.13970    1.000
    C58      C        0.42990    0.37870    0.19700    1.000
    C59      C        0.46230    0.29330    0.19480    1.000
    H49      H        0.47260    0.26450    0.15850    1.000
    C60      C        0.28320    0.27860    0.84420    1.000
    H50      H        0.29200    0.26410    0.90720    1.000
    Co5      Co       0.23688    0.39146    0.12146    1.000
    N5       N        0.41458    0.42181    0.14370    1.000
    H51      H        0.26790    0.39930    0.30210    1.000
    O29      O        0.26145    0.33415    0.02810    1.000
    O30      O        0.21397    0.37654    0.94890    1.000
    O31      O        0.25019    0.48341    0.11390    1.000
    O32      O        0.35869    0.52223    0.12850    1.000
    O33      O        0.34168    0.19869    0.83830    1.000
    O34      O        0.47510    0.54830    0.27700    1.000
    H52      H        0.50150    0.56120    0.22420    1.000
    H53      H        0.47010    0.58060    0.29790    1.000
    H54      H        0.26690    0.39260    0.30580    1.000
    O35      O        0.47360    0.57680    0.26800    1.000
    H55      H        0.47110    0.59050    0.32900    1.000
    C61      C        0.65320    0.89600    0.94480    1.000
    C62      C        0.67950    0.93450    0.84490    1.000
    C63      C        0.46920    0.78000    0.11550    1.000
    C64      C        0.39964    0.72056    0.10940    1.000
    C65      C        0.38840    0.65610    0.10770    1.000
    H56      H        0.42440    0.64850    0.10540    1.000
    C66      C        0.57530    0.99210    0.04060    1.000
    H57      H        0.54410    0.95300    0.00680    1.000
    C67      C        0.61850    0.04920    0.97910    1.000
    H58      H        0.61810    0.04670    0.90620    1.000
    C68      C        0.66000    0.10700    0.02920    1.000
    H59      H        0.68650    0.14530    0.98970    1.000
    C69      C        0.66400    0.11090    0.13970    1.000
    C70      C        0.62130    0.05120    0.19700    1.000
    C71      C        0.70670    0.16900    0.19480    1.000
    H60      H        0.73550    0.20810    0.15850    1.000
    C72      C        0.72140    0.00460    0.84420    1.000
    H61      H        0.73590    0.02790    0.90720    1.000
    Co6      Co       0.60854    0.84542    0.12146    1.000
    N6       N        0.57819    0.99277    0.14370    1.000
    H62      H        0.60070    0.86860    0.30210    1.000
    O36      O        0.66585    0.92730    0.02810    1.000
    O37      O        0.62346    0.83743    0.94890    1.000
    O38      O        0.51659    0.76678    0.11390    1.000
    O39      O        0.47777    0.83646    0.12850    1.000
    O40      O        0.80131    0.14299    0.83830    1.000
    O41      O        0.45170    0.92680    0.27700    1.000
    H63      H        0.43880    0.94030    0.22420    1.000
    H64      H        0.41940    0.88950    0.29790    1.000
    H65      H        0.60740    0.87430    0.30580    1.000
    O42      O        0.42320    0.89680    0.26800    1.000
    H66      H        0.40950    0.88060    0.32900    1.000
    C73      C        0.10400    0.75720    0.55520    1.000
    C74      C        0.06550    0.74500    0.65510    1.000
    C75      C        0.22000    0.68920    0.38450    1.000
    C76      C        0.27944    0.67908    0.39060    1.000
    C77      C        0.34390    0.73230    0.39230    1.000
    H67      H        0.35150    0.77590    0.39460    1.000
    C78      C        0.00790    0.58320    0.45940    1.000
    H68      H        0.04700    0.59110    0.49320    1.000
    C79      C        0.95080    0.56930    0.52090    1.000
    H69      H        0.95330    0.57140    0.59380    1.000
    C80      C        0.89300    0.55300    0.47080    1.000
    H70      H        0.85470    0.54120    0.51030    1.000
    C81      C        0.88910    0.55310    0.36030    1.000
    C82      C        0.94880    0.57010    0.30300    1.000
    C83      C        0.83100    0.53770    0.30520    1.000
    H71      H        0.79190    0.52740    0.34150    1.000
    C84      C        0.99540    0.71680    0.65580    1.000
    H72      H        0.97210    0.70800    0.59280    1.000
    Co7      Co       0.15458    0.76312    0.37854    1.000
    N7       N        0.00723    0.58542    0.35630    1.000
    H73      H        0.13140    0.73210    0.19790    1.000
    O43      O        0.07270    0.73855    0.47190    1.000
    O44      O        0.16257    0.78603    0.55110    1.000
    O45      O        0.23322    0.74981    0.38610    1.000
    O46      O        0.16354    0.64131    0.37150    1.000
    O47      O        0.85701    0.65832    0.66170    1.000
    O48      O        0.07320    0.52490    0.22300    1.000
    H74      H        0.05970    0.49850    0.27580    1.000
    H75      H        0.11050    0.52990    0.20210    1.000
    H76      H        0.12570    0.73310    0.19420    1.000
    O49      O        0.10320    0.52640    0.23200    1.000
    H77      H        0.11940    0.52890    0.17100    1.000
    C85      C        0.24280    0.34680    0.55520    1.000
    C86      C        0.25500    0.32050    0.65510    1.000
    C87      C        0.31080    0.53080    0.38450    1.000
    C88      C        0.32092    0.60036    0.39060    1.000
    C89      C        0.26770    0.61160    0.39230    1.000
    H78      H        0.22410    0.57560    0.39460    1.000
    C90      C        0.41680    0.42470    0.45940    1.000
    H79      H        0.40890    0.45590    0.49320    1.000
    C91      C        0.43070    0.38150    0.52090    1.000
    H80      H        0.42860    0.38190    0.59380    1.000
    C92      C        0.44700    0.34000    0.47080    1.000
    H81      H        0.45880    0.31350    0.51030    1.000
    C93      C        0.44690    0.33600    0.36030    1.000
    C94      C        0.42990    0.37870    0.30300    1.000
    C95      C        0.46230    0.29330    0.30520    1.000
    H82      H        0.47260    0.26450    0.34150    1.000
    C96      C        0.28320    0.27860    0.65580    1.000
    H83      H        0.29200    0.26410    0.59280    1.000
    Co8      Co       0.23688    0.39146    0.37854    1.000
    N8       N        0.41458    0.42181    0.35630    1.000
    H84      H        0.26790    0.39930    0.19790    1.000
    O50      O        0.26145    0.33415    0.47190    1.000
    O51      O        0.21397    0.37654    0.55110    1.000
    O52      O        0.25019    0.48341    0.38610    1.000
    O53      O        0.35869    0.52223    0.37150    1.000
    O54      O        0.34168    0.19869    0.66170    1.000
    O55      O        0.47510    0.54830    0.22300    1.000
    H85      H        0.50150    0.56120    0.27580    1.000
    H86      H        0.47010    0.58060    0.20210    1.000
    H87      H        0.26690    0.39260    0.19420    1.000
    O56      O        0.47360    0.57680    0.23200    1.000
    H88      H        0.47110    0.59050    0.17100    1.000
    C97      C        0.65320    0.89600    0.55520    1.000
    C98      C        0.67950    0.93450    0.65510    1.000
    C99      C        0.46920    0.78000    0.38450    1.000
    C100     C        0.39964    0.72056    0.39060    1.000
    C101     C        0.38840    0.65610    0.39230    1.000
    H89      H        0.42440    0.64850    0.39460    1.000
    C102     C        0.57530    0.99210    0.45940    1.000
    H90      H        0.54410    0.95300    0.49320    1.000
    C103     C        0.61850    0.04920    0.52090    1.000
    H91      H        0.61810    0.04670    0.59380    1.000
    C104     C        0.66000    0.10700    0.47080    1.000
    H92      H        0.68650    0.14530    0.51030    1.000
    C105     C        0.66400    0.11090    0.36030    1.000
    C106     C        0.62130    0.05120    0.30300    1.000
    C107     C        0.70670    0.16900    0.30520    1.000
    H93      H        0.73550    0.20810    0.34150    1.000
    C108     C        0.72140    0.00460    0.65580    1.000
    H94      H        0.73590    0.02790    0.59280    1.000
    Co9      Co       0.60854    0.84542    0.37854    1.000
    N9       N        0.57819    0.99277    0.35630    1.000
    H95      H        0.60070    0.86860    0.19790    1.000
    O57      O        0.66585    0.92730    0.47190    1.000
    O58      O        0.62346    0.83743    0.55110    1.000
    O59      O        0.51659    0.76678    0.38610    1.000
    O60      O        0.47777    0.83646    0.37150    1.000
    O61      O        0.80131    0.14299    0.66170    1.000
    O62      O        0.45170    0.92680    0.22300    1.000
    H96      H        0.43880    0.94030    0.27580    1.000
    H97      H        0.41940    0.88950    0.20210    1.000
    H98      H        0.60740    0.87430    0.19420    1.000
    O63      O        0.42320    0.89680    0.23200    1.000
    H99      H        0.40950    0.88060    0.17100    1.000
    C109     C        0.89600    0.24280    0.05520    1.000
    C110     C        0.93450    0.25500    0.15510    1.000
    C111     C        0.78000    0.31080    0.88450    1.000
    C112     C        0.72056    0.32092    0.89060    1.000
    C113     C        0.65610    0.26770    0.89230    1.000
    H100     H        0.64850    0.22410    0.89460    1.000
    C114     C        0.99210    0.41680    0.95940    1.000
    H101     H        0.95300    0.40890    0.99320    1.000
    C115     C        0.04920    0.43070    0.02090    1.000
    H102     H        0.04670    0.42860    0.09380    1.000
    C116     C        0.10700    0.44700    0.97080    1.000
    H103     H        0.14530    0.45880    0.01030    1.000
    C117     C        0.11090    0.44690    0.86030    1.000
    C118     C        0.05120    0.42990    0.80300    1.000
    C119     C        0.16900    0.46230    0.80520    1.000
    H104     H        0.20810    0.47260    0.84150    1.000
    C120     C        0.00460    0.28320    0.15580    1.000
    H105     H        0.02790    0.29200    0.09280    1.000
    Co10     Co       0.84542    0.23688    0.87854    1.000
    N10      N        0.99277    0.41458    0.85630    1.000
    H106     H        0.86860    0.26790    0.69790    1.000
    O64      O        0.92730    0.26145    0.97190    1.000
    O65      O        0.83743    0.21397    0.05110    1.000
    O66      O        0.76678    0.25019    0.88610    1.000
    O67      O        0.83646    0.35869    0.87150    1.000
    O68      O        0.14299    0.34168    0.16170    1.000
    O69      O        0.92680    0.47510    0.72300    1.000
    H107     H        0.94030    0.50150    0.77580    1.000
    H108     H        0.88950    0.47010    0.70210    1.000
    H109     H        0.87430    0.26690    0.69420    1.000
    O70      O        0.89680    0.47360    0.73200    1.000
    H110     H        0.88060    0.47110    0.67100    1.000
    C121     C        0.75720    0.65320    0.05520    1.000
    C122     C        0.74500    0.67950    0.15510    1.000
    C123     C        0.68920    0.46920    0.88450    1.000
    C124     C        0.67908    0.39964    0.89060    1.000
    C125     C        0.73230    0.38840    0.89230    1.000
    H111     H        0.77590    0.42440    0.89460    1.000
    C126     C        0.58320    0.57530    0.95940    1.000
    H112     H        0.59110    0.54410    0.99320    1.000
    C127     C        0.56930    0.61850    0.02090    1.000
    H113     H        0.57140    0.61810    0.09380    1.000
    C128     C        0.55300    0.66000    0.97080    1.000
    H114     H        0.54120    0.68650    0.01030    1.000
    C129     C        0.55310    0.66400    0.86030    1.000
    C130     C        0.57010    0.62130    0.80300    1.000
    C131     C        0.53770    0.70670    0.80520    1.000
    H115     H        0.52740    0.73550    0.84150    1.000
    C132     C        0.71680    0.72140    0.15580    1.000
    H116     H        0.70800    0.73590    0.09280    1.000
    Co11     Co       0.76312    0.60854    0.87854    1.000
    N11      N        0.58542    0.57819    0.85630    1.000
    H117     H        0.73210    0.60070    0.69790    1.000
    O71      O        0.73855    0.66585    0.97190    1.000
    O72      O        0.78603    0.62346    0.05110    1.000
    O73      O        0.74981    0.51659    0.88610    1.000
    O74      O        0.64131    0.47777    0.87150    1.000
    O75      O        0.65832    0.80131    0.16170    1.000
    O76      O        0.52490    0.45170    0.72300    1.000
    H118     H        0.49850    0.43880    0.77580    1.000
    H119     H        0.52990    0.41940    0.70210    1.000
    H120     H        0.73310    0.60740    0.69420    1.000
    O77      O        0.52640    0.42320    0.73200    1.000
    H121     H        0.52890    0.40950    0.67100    1.000
    C133     C        0.34680    0.10400    0.05520    1.000
    C134     C        0.32050    0.06550    0.15510    1.000
    C135     C        0.53080    0.22000    0.88450    1.000
    C136     C        0.60036    0.27944    0.89060    1.000
    C137     C        0.61160    0.34390    0.89230    1.000
    H122     H        0.57560    0.35150    0.89460    1.000
    C138     C        0.42470    0.00790    0.95940    1.000
    H123     H        0.45590    0.04700    0.99320    1.000
    C139     C        0.38150    0.95080    0.02090    1.000
    H124     H        0.38190    0.95330    0.09380    1.000
    C140     C        0.34000    0.89300    0.97080    1.000
    H125     H        0.31350    0.85470    0.01030    1.000
    C141     C        0.33600    0.88910    0.86030    1.000
    C142     C        0.37870    0.94880    0.80300    1.000
    C143     C        0.29330    0.83100    0.80520    1.000
    H126     H        0.26450    0.79190    0.84150    1.000
    C144     C        0.27860    0.99540    0.15580    1.000
    H127     H        0.26410    0.97210    0.09280    1.000
    Co12     Co       0.39146    0.15458    0.87854    1.000
    N12      N        0.42181    0.00723    0.85630    1.000
    H128     H        0.39930    0.13140    0.69790    1.000
    O78      O        0.33415    0.07270    0.97190    1.000
    O79      O        0.37654    0.16257    0.05110    1.000
    O80      O        0.48341    0.23322    0.88610    1.000
    O81      O        0.52223    0.16354    0.87150    1.000
    O82      O        0.19869    0.85701    0.16170    1.000
    O83      O        0.54830    0.07320    0.72300    1.000
    H129     H        0.56120    0.05970    0.77580    1.000
    H130     H        0.58060    0.11050    0.70210    1.000
    H131     H        0.39260    0.12570    0.69420    1.000
    O84      O        0.57680    0.10320    0.73200    1.000
    H132     H        0.59050    0.11940    0.67100    1.000
    C145     C        0.89790    0.24000    0.25000    1.000
    H133     H        0.85150    0.22090    0.25000    1.000
    C146     C        0.11270    0.32870    0.25000    1.000
    C147     C        0.03890    0.29780    0.25000    1.000
    C148     C        0.76000    0.65790    0.25000    1.000
    H134     H        0.77910    0.63060    0.25000    1.000
    C149     C        0.67130    0.78400    0.25000    1.000
    C150     C        0.70220    0.74110    0.25000    1.000
    C151     C        0.34210    0.10210    0.25000    1.000
    H135     H        0.36940    0.14850    0.25000    1.000
    C152     C        0.21600    0.88730    0.25000    1.000
    C153     C        0.25890    0.96110    0.25000    1.000
    C154     C        0.10210    0.76000    0.75000    1.000
    H136     H        0.14850    0.77910    0.75000    1.000
    C155     C        0.88730    0.67130    0.75000    1.000
    C156     C        0.96110    0.70220    0.75000    1.000
    C157     C        0.24000    0.34210    0.75000    1.000
    H137     H        0.22090    0.36940    0.75000    1.000
    C158     C        0.32870    0.21600    0.75000    1.000
    C159     C        0.29780    0.25890    0.75000    1.000
    C160     C        0.65790    0.89790    0.75000    1.000
    H138     H        0.63060    0.85150    0.75000    1.000
    C161     C        0.78400    0.11270    0.75000    1.000
    C162     C        0.74110    0.03890    0.75000    1.000
    Co13     Co       0.91106    0.38541    0.75000    1.000
    O85      O        0.89405    0.28770    0.75000    1.000
    H139     H        0.92640    0.51460    0.75000    1.000
    Co14     Co       0.61459    0.52565    0.75000    1.000
    O86      O        0.71230    0.60635    0.75000    1.000
    H140     H        0.48540    0.41180    0.75000    1.000
    Co15     Co       0.47435    0.08894    0.75000    1.000
    O87      O        0.39365    0.10595    0.75000    1.000
    H141     H        0.58820    0.07360    0.75000    1.000
    Co16     Co       0.08894    0.61459    0.25000    1.000
    O88      O        0.10595    0.71230    0.25000    1.000
    H142     H        0.07360    0.48540    0.25000    1.000
    Co17     Co       0.38541    0.47435    0.25000    1.000
    O89      O        0.28770    0.39365    0.25000    1.000
    H143     H        0.51460    0.58820    0.25000    1.000
    Co18     Co       0.52565    0.91106    0.25000    1.000
    O90      O        0.60635    0.89405    0.25000    1.000
    H144     H        0.41180    0.92640    0.25000    1.000
