data_functionalizedCrystal
_audit_creation_method	'EQeq! by Chris Wilmer'
_symmetry_space_group_name_H-M	'P1'
_symmetry_Int_Tables_number	1
_symmetry_cell_setting	triclinic
loop_
_symmetry_equiv_pos_as_xyz
  x,y,z
_cell_length_a	18.6166
_cell_length_b	18.6166
_cell_length_c	38.6451
_cell_angle_alpha	90
_cell_angle_beta	90
_cell_angle_gamma	120
loop_
_atom_site_label
_atom_site_type_symbol
_atom_site_fract_x
_atom_site_fract_y
_atom_site_fract_z
_atom_site_charge
Mof_C 	C 	0.4515	0.0919	0.02706	0.352
Mof_C 	C 	0.431	0.1511	0.04412	-0.08
Mof_C 	C 	0.3999	0.1364	0.07751	-0.027
Mof_H 	H 	0.3889	0.0875	0.0885	0.058
Mof_O 	O 	0.4814	0.11035	0.99677	-0.4
Mof_O 	O 	0.4412	0.02993	0.0442	-0.405
Mof_C 	C 	0.2899	0.1017	0.1427	0.09
Mof_C 	C 	0.274	0.0938	0.1772	-0.097
Mof_H 	H 	0.2227	0.0542	0.188	0.065
Mof_C 	C 	0.2234	0.0323	0.117	0.331
Mof_H 	H 	0.1833	0.9859	0.1303	-0.069
Mof_H 	H 	0.2513	0.0142	0.1015	-0.055
Mof_H 	H 	0.1958	0.0554	0.104	-0.062
Mof_H 	H 	0.2547	0.0603	0.1257	-0.179
Mof_C 	C 	0.11817	0.42523	0.36039	0.352
Mof_C 	C 	0.09767	0.48443	0.37745	-0.08
Mof_C 	C 	0.06657	0.46973	0.41084	-0.027
Mof_H 	H 	0.05557	0.42083	0.42183	0.058
Mof_O 	O 	0.14807	0.44368	0.3301	-0.4
Mof_O 	O 	0.10787	0.36326	0.37753	-0.405
Mof_C 	C 	0.95657	0.43503	0.47603	0.09
Mof_C 	C 	0.94067	0.42713	0.51053	-0.097
Mof_H 	H 	0.88937	0.38753	0.52133	0.065
Mof_C 	C 	0.89007	0.36563	0.45033	0.331
Mof_H 	H 	0.84997	0.31923	0.46363	-0.069
Mof_H 	H 	0.91797	0.34753	0.43483	-0.055
Mof_H 	H 	0.86247	0.38873	0.43733	-0.062
Mof_H 	H 	0.92137	0.39363	0.45903	-0.179
Mof_C 	C 	0.78483	0.75857	0.69373	0.352
Mof_C 	C 	0.76433	0.81777	0.71079	-0.08
Mof_C 	C 	0.73323	0.80307	0.74418	-0.027
Mof_H 	H 	0.72223	0.75417	0.75517	0.058
Mof_O 	O 	0.81473	0.77702	0.66344	-0.4
Mof_O 	O 	0.77453	0.6966	0.71087	-0.405
Mof_C 	C 	0.62323	0.76837	0.80937	0.09
Mof_C 	C 	0.60733	0.76047	0.84387	-0.097
Mof_H 	H 	0.55603	0.72087	0.85467	0.065
Mof_C 	C 	0.55673	0.69897	0.78367	0.331
Mof_H 	H 	0.51663	0.65257	0.79697	-0.069
Mof_H 	H 	0.58463	0.68087	0.76817	-0.055
Mof_H 	H 	0.52913	0.72207	0.77067	-0.062
Mof_H 	H 	0.58803	0.72697	0.79237	-0.179
Mof_C 	C 	0.9081	0.3596	0.02706	0.352
Mof_C 	C 	0.8489	0.2799	0.04412	-0.08
Mof_C 	C 	0.8636	0.2635	0.07751	-0.027
Mof_H 	H 	0.9125	0.3014	0.0885	0.058
Mof_O 	O 	0.88965	0.37105	0.99677	-0.4
Mof_O 	O 	0.97007	0.41127	0.0442	-0.405
Mof_C 	C 	0.8983	0.1882	0.1427	0.09
Mof_C 	C 	0.9062	0.1802	0.1772	-0.097
Mof_H 	H 	0.9458	0.1685	0.188	0.065
Mof_C 	C 	0.9677	0.1911	0.117	0.331
Mof_H 	H 	0.0141	0.1974	0.1303	-0.069
Mof_H 	H 	0.9858	0.2371	0.1015	-0.055
Mof_H 	H 	0.9446	0.1404	0.104	-0.062
Mof_H 	H 	0.9397	0.1944	0.1257	-0.179
Mof_C 	C 	0.57477	0.69293	0.36039	0.352
Mof_C 	C 	0.51557	0.61323	0.37745	-0.08
Mof_C 	C 	0.53027	0.59683	0.41084	-0.027
Mof_H 	H 	0.57917	0.63473	0.42183	0.058
Mof_O 	O 	0.55632	0.70438	0.3301	-0.4
Mof_O 	O 	0.63674	0.7446	0.37753	-0.405
Mof_C 	C 	0.56497	0.52153	0.47603	0.09
Mof_C 	C 	0.57287	0.51353	0.51053	-0.097
Mof_H 	H 	0.61247	0.50183	0.52133	0.065
Mof_C 	C 	0.63437	0.52443	0.45033	0.331
Mof_H 	H 	0.68077	0.53073	0.46363	-0.069
Mof_H 	H 	0.65247	0.57043	0.43483	-0.055
Mof_H 	H 	0.61127	0.47373	0.43733	-0.063
Mof_H 	H 	0.60637	0.52773	0.45903	-0.18
Mof_C 	C 	0.24143	0.02627	0.69373	0.351
Mof_C 	C 	0.18223	0.94657	0.71079	-0.081
Mof_C 	C 	0.19693	0.93017	0.74418	-0.027
Mof_H 	H 	0.24583	0.96807	0.75517	0.057
Mof_O 	O 	0.22298	0.03772	0.66344	-0.401
Mof_O 	O 	0.3034	0.07794	0.71087	-0.406
Mof_C 	C 	0.23163	0.85487	0.80937	0.089
Mof_C 	C 	0.23953	0.84687	0.84387	-0.098
Mof_H 	H 	0.27913	0.83517	0.85467	0.064
Mof_C 	C 	0.30103	0.85777	0.78367	0.33
Mof_H 	H 	0.34743	0.86407	0.79697	-0.07
Mof_H 	H 	0.31913	0.90377	0.76817	-0.056
Mof_H 	H 	0.27793	0.80707	0.77067	-0.063
Mof_H 	H 	0.27303	0.86107	0.79237	-0.18
Mof_C 	C 	0.6404	0.5485	0.02706	0.351
Mof_C 	C 	0.7201	0.569	0.04412	-0.081
Mof_C 	C 	0.7365	0.6001	0.07751	-0.028
Mof_H 	H 	0.6986	0.6111	0.0885	0.057
Mof_O 	O 	0.62895	0.5186	0.99677	-0.401
Mof_O 	O 	0.58873	0.5588	0.0442	-0.406
Mof_C 	C 	0.8118	0.7101	0.1427	0.089
Mof_C 	C 	0.8198	0.726	0.1772	-0.098
Mof_H 	H 	0.8315	0.7773	0.188	0.064
Mof_C 	C 	0.8089	0.7766	0.117	0.33
Mof_H 	H 	0.8026	0.8167	0.1303	-0.07
Mof_H 	H 	0.7629	0.7487	0.1015	-0.056
Mof_H 	H 	0.8596	0.8042	0.104	-0.063
Mof_H 	H 	0.8056	0.7453	0.1257	-0.18
Mof_C 	C 	0.30707	0.88183	0.36039	0.351
Mof_C 	C 	0.38677	0.90233	0.37745	-0.081
Mof_C 	C 	0.40317	0.93343	0.41084	-0.028
Mof_H 	H 	0.36527	0.94443	0.42183	0.057
Mof_O 	O 	0.29562	0.85193	0.3301	-0.401
Mof_O 	O 	0.2554	0.89213	0.37753	-0.406
Mof_C 	C 	0.47847	0.04343	0.47603	0.089
Mof_C 	C 	0.48647	0.05933	0.51053	-0.098
Mof_H 	H 	0.49817	0.11063	0.52133	0.064
Mof_C 	C 	0.47557	0.10993	0.45033	0.33
Mof_H 	H 	0.46927	0.15003	0.46363	-0.07
Mof_H 	H 	0.42957	0.08203	0.43483	-0.056
Mof_H 	H 	0.52627	0.13753	0.43733	-0.063
Mof_H 	H 	0.47227	0.07863	0.45903	-0.18
Mof_C 	C 	0.97373	0.21517	0.69373	0.351
Mof_C 	C 	0.05343	0.23567	0.71079	-0.081
Mof_C 	C 	0.06983	0.26677	0.74418	-0.028
Mof_H 	H 	0.03193	0.27777	0.75517	0.057
Mof_O 	O 	0.96228	0.18527	0.66344	-0.401
Mof_O 	O 	0.92206	0.22547	0.71087	-0.406
Mof_C 	C 	0.14513	0.37677	0.80937	0.089
Mof_C 	C 	0.15313	0.39267	0.84387	-0.098
Mof_H 	H 	0.16483	0.44397	0.85467	0.064
Mof_C 	C 	0.14223	0.44327	0.78367	0.33
Mof_H 	H 	0.13593	0.48337	0.79697	-0.07
Mof_H 	H 	0.09623	0.41537	0.76817	-0.056
Mof_H 	H 	0.19293	0.47087	0.77067	-0.063
Mof_H 	H 	0.13893	0.41197	0.79237	-0.18
Mof_C 	C 	0.0919	0.4515	0.97294	0.351
Mof_C 	C 	0.1511	0.431	0.95588	-0.081
Mof_C 	C 	0.1364	0.3999	0.92249	-0.028
Mof_H 	H 	0.0875	0.3889	0.9115	0.057
Mof_O 	O 	0.11035	0.4814	0.00323	-0.401
Mof_O 	O 	0.02993	0.4412	0.9558	-0.406
Mof_C 	C 	0.1017	0.2899	0.8573	0.089
Mof_C 	C 	0.0938	0.274	0.8228	-0.098
Mof_H 	H 	0.0542	0.2227	0.812	0.064
Mof_C 	C 	0.0323	0.2234	0.883	0.33
Mof_H 	H 	0.9859	0.1833	0.8697	-0.07
Mof_H 	H 	0.0142	0.2513	0.8985	-0.056
Mof_H 	H 	0.0554	0.1958	0.896	-0.063
Mof_H 	H 	0.0603	0.2547	0.8743	-0.18
Mof_C 	C 	0.75857	0.78483	0.30627	0.351
Mof_C 	C 	0.81777	0.76433	0.28921	-0.081
Mof_C 	C 	0.80307	0.73323	0.25582	-0.028
Mof_H 	H 	0.75417	0.72223	0.24483	0.057
Mof_O 	O 	0.77702	0.81473	0.33656	-0.401
Mof_O 	O 	0.6966	0.77453	0.28913	-0.406
Mof_C 	C 	0.76837	0.62323	0.19063	0.089
Mof_C 	C 	0.76047	0.60733	0.15613	-0.098
Mof_H 	H 	0.72087	0.55603	0.14533	0.064
Mof_C 	C 	0.69897	0.55673	0.21633	0.33
Mof_H 	H 	0.65257	0.51663	0.20303	-0.07
Mof_H 	H 	0.68087	0.58463	0.23183	-0.056
Mof_H 	H 	0.72207	0.52913	0.22933	-0.063
Mof_H 	H 	0.72697	0.58803	0.20763	-0.18
Mof_C 	C 	0.42523	0.11817	0.63961	0.351
Mof_C 	C 	0.48443	0.09767	0.62255	-0.081
Mof_C 	C 	0.46973	0.06657	0.58916	-0.028
Mof_H 	H 	0.42083	0.05557	0.57817	0.057
Mof_O 	O 	0.44368	0.14807	0.6699	-0.401
Mof_O 	O 	0.36326	0.10787	0.62247	-0.406
Mof_C 	C 	0.43503	0.95657	0.52397	0.089
Mof_C 	C 	0.42713	0.94067	0.48947	-0.098
Mof_H 	H 	0.38753	0.88937	0.47867	0.064
Mof_C 	C 	0.36563	0.89007	0.54967	0.33
Mof_H 	H 	0.31923	0.84997	0.53637	-0.07
Mof_H 	H 	0.34753	0.91797	0.56517	-0.056
Mof_H 	H 	0.38873	0.86247	0.56267	-0.063
Mof_H 	H 	0.39363	0.92137	0.54097	-0.18
Mof_C 	C 	0.3596	0.9081	0.97294	0.351
Mof_C 	C 	0.2799	0.8489	0.95588	-0.081
Mof_C 	C 	0.2635	0.8636	0.92249	-0.028
Mof_H 	H 	0.3014	0.9125	0.9115	0.057
Mof_O 	O 	0.37105	0.88965	0.00323	-0.401
Mof_O 	O 	0.41127	0.97007	0.9558	-0.406
Mof_C 	C 	0.1882	0.8983	0.8573	0.089
Mof_C 	C 	0.1802	0.9062	0.8228	-0.098
Mof_H 	H 	0.1685	0.9458	0.812	0.064
Mof_C 	C 	0.1911	0.9677	0.883	0.33
Mof_H 	H 	0.1974	0.0141	0.8697	-0.07
Mof_H 	H 	0.2371	0.9858	0.8985	-0.056
Mof_H 	H 	0.1404	0.9446	0.896	-0.063
Mof_H 	H 	0.1944	0.9397	0.8743	-0.18
Mof_C 	C 	0.02627	0.24143	0.30627	0.351
Mof_C 	C 	0.94657	0.18223	0.28921	-0.081
Mof_C 	C 	0.93017	0.19693	0.25582	-0.027
Mof_H 	H 	0.96807	0.24583	0.24483	0.057
Mof_O 	O 	0.03772	0.22298	0.33656	-0.401
Mof_O 	O 	0.07794	0.3034	0.28913	-0.406
Mof_C 	C 	0.85487	0.23163	0.19063	0.089
Mof_C 	C 	0.84687	0.23953	0.15613	-0.098
Mof_H 	H 	0.83517	0.27913	0.14533	0.064
Mof_C 	C 	0.85777	0.30103	0.21633	0.33
Mof_H 	H 	0.86407	0.34743	0.20303	-0.07
Mof_H 	H 	0.90377	0.31913	0.23183	-0.056
Mof_H 	H 	0.80707	0.27793	0.22933	-0.063
Mof_H 	H 	0.86107	0.27303	0.20763	-0.18
Mof_C 	C 	0.69293	0.57477	0.63961	0.351
Mof_C 	C 	0.61323	0.51557	0.62255	-0.081
Mof_C 	C 	0.59683	0.53027	0.58916	-0.028
Mof_H 	H 	0.63473	0.57917	0.57817	0.057
Mof_O 	O 	0.70438	0.55632	0.6699	-0.401
Mof_O 	O 	0.7446	0.63674	0.62247	-0.406
Mof_C 	C 	0.52153	0.56497	0.52397	0.089
Mof_C 	C 	0.51353	0.57287	0.48947	-0.098
Mof_H 	H 	0.50183	0.61247	0.47867	0.064
Mof_C 	C 	0.52443	0.63437	0.54967	0.33
Mof_H 	H 	0.53073	0.68077	0.53637	-0.07
Mof_H 	H 	0.57043	0.65247	0.56517	-0.056
Mof_H 	H 	0.47373	0.61127	0.56267	-0.063
Mof_H 	H 	0.52773	0.60637	0.54097	-0.18
Mof_C 	C 	0.5485	0.6404	0.97294	0.351
Mof_C 	C 	0.569	0.7201	0.95588	-0.081
Mof_C 	C 	0.6001	0.7365	0.92249	-0.028
Mof_H 	H 	0.6111	0.6986	0.9115	0.057
Mof_O 	O 	0.5186	0.62895	0.00323	-0.401
Mof_O 	O 	0.5588	0.58873	0.9558	-0.406
Mof_C 	C 	0.7101	0.8118	0.8573	0.089
Mof_C 	C 	0.726	0.8198	0.8228	-0.098
Mof_H 	H 	0.7773	0.8315	0.812	0.064
Mof_C 	C 	0.7766	0.8089	0.883	0.33
Mof_H 	H 	0.8167	0.8026	0.8697	-0.07
Mof_H 	H 	0.7487	0.7629	0.8985	-0.056
Mof_H 	H 	0.8042	0.8596	0.896	-0.063
Mof_H 	H 	0.7453	0.8056	0.8743	-0.18
Mof_C 	C 	0.21517	0.97373	0.30627	0.351
Mof_C 	C 	0.23567	0.05343	0.28921	-0.081
Mof_C 	C 	0.26677	0.06983	0.25582	-0.028
Mof_H 	H 	0.27777	0.03193	0.24483	0.057
Mof_O 	O 	0.18527	0.96228	0.33656	-0.401
Mof_O 	O 	0.22547	0.92206	0.28913	-0.406
Mof_C 	C 	0.37677	0.14513	0.19063	0.089
Mof_C 	C 	0.39267	0.15313	0.15613	-0.098
Mof_H 	H 	0.44397	0.16483	0.14533	0.064
Mof_C 	C 	0.44327	0.14223	0.21633	0.33
Mof_H 	H 	0.48337	0.13593	0.20303	-0.07
Mof_H 	H 	0.41537	0.09623	0.23183	-0.056
Mof_H 	H 	0.47087	0.19293	0.22933	-0.063
Mof_H 	H 	0.41197	0.13893	0.20763	-0.18
Mof_C 	C 	0.88183	0.30707	0.63961	0.351
Mof_C 	C 	0.90233	0.38677	0.62255	-0.081
Mof_C 	C 	0.93343	0.40317	0.58916	-0.028
Mof_H 	H 	0.94443	0.36527	0.57817	0.057
Mof_O 	O 	0.85193	0.29562	0.6699	-0.401
Mof_O 	O 	0.89213	0.2554	0.62247	-0.406
Mof_C 	C 	0.04343	0.47847	0.52397	0.089
Mof_C 	C 	0.05933	0.48647	0.48947	-0.098
Mof_H 	H 	0.11063	0.49817	0.47867	0.064
Mof_C 	C 	0.10993	0.47557	0.54967	0.33
Mof_H 	H 	0.15003	0.46927	0.53637	-0.07
Mof_H 	H 	0.08203	0.42957	0.56517	-0.056
Mof_H 	H 	0.13753	0.52627	0.56267	-0.063
Mof_H 	H 	0.07863	0.47227	0.54097	-0.18
Mof_C 	C 	0.5485	0.9081	0.97294	0.351
Mof_C 	C 	0.569	0.8489	0.95588	-0.081
Mof_C 	C 	0.6001	0.8636	0.92249	-0.028
Mof_H 	H 	0.6111	0.9125	0.9115	0.057
Mof_O 	O 	0.5186	0.88965	0.00323	-0.401
Mof_O 	O 	0.5588	0.97007	0.9558	-0.406
Mof_C 	C 	0.7101	0.8983	0.8573	0.089
Mof_C 	C 	0.726	0.9062	0.8228	-0.098
Mof_H 	H 	0.7773	0.9458	0.812	0.064
Mof_C 	C 	0.7766	0.9677	0.883	0.33
Mof_H 	H 	0.8167	0.0141	0.8697	-0.07
Mof_H 	H 	0.7487	0.9858	0.8985	-0.056
Mof_H 	H 	0.8042	0.9446	0.896	-0.063
Mof_H 	H 	0.7453	0.9397	0.8743	-0.18
Mof_C 	C 	0.21517	0.24143	0.30627	0.351
Mof_C 	C 	0.23567	0.18223	0.28921	-0.081
Mof_C 	C 	0.26677	0.19693	0.25582	-0.028
Mof_H 	H 	0.27777	0.24583	0.24483	0.057
Mof_O 	O 	0.18527	0.22298	0.33656	-0.401
Mof_O 	O 	0.22547	0.3034	0.28913	-0.406
Mof_C 	C 	0.37677	0.23163	0.19063	0.089
Mof_C 	C 	0.39267	0.23953	0.15613	-0.098
Mof_H 	H 	0.44397	0.27913	0.14533	0.064
Mof_C 	C 	0.44327	0.30103	0.21633	0.33
Mof_H 	H 	0.48337	0.34743	0.20303	-0.07
Mof_H 	H 	0.41537	0.31913	0.23183	-0.056
Mof_H 	H 	0.47087	0.27793	0.22933	-0.063
Mof_H 	H 	0.41197	0.27303	0.20763	-0.18
Mof_C 	C 	0.88183	0.57477	0.63961	0.351
Mof_C 	C 	0.90233	0.51557	0.62255	-0.081
Mof_C 	C 	0.93343	0.53027	0.58916	-0.028
Mof_H 	H 	0.94443	0.57917	0.57817	0.057
Mof_O 	O 	0.85193	0.55632	0.6699	-0.401
Mof_O 	O 	0.89213	0.63674	0.62247	-0.406
Mof_C 	C 	0.04343	0.56497	0.52397	0.089
Mof_C 	C 	0.05933	0.57287	0.48947	-0.098
Mof_H 	H 	0.11063	0.61247	0.47867	0.064
Mof_C 	C 	0.10993	0.63437	0.54967	0.33
Mof_H 	H 	0.15003	0.68077	0.53637	-0.07
Mof_H 	H 	0.08203	0.65247	0.56517	-0.056
Mof_H 	H 	0.13753	0.61127	0.56267	-0.063
Mof_H 	H 	0.07863	0.60637	0.54097	-0.18
Mof_C 	C 	0.0919	0.6404	0.97294	0.351
Mof_C 	C 	0.1511	0.7201	0.95588	-0.081
Mof_C 	C 	0.1364	0.7365	0.92249	-0.028
Mof_H 	H 	0.0875	0.6986	0.9115	0.057
Mof_O 	O 	0.11035	0.62895	0.00323	-0.401
Mof_O 	O 	0.02993	0.58873	0.9558	-0.406
Mof_C 	C 	0.1017	0.8118	0.8573	0.089
Mof_C 	C 	0.0938	0.8198	0.8228	-0.098
Mof_H 	H 	0.0542	0.8315	0.812	0.064
Mof_C 	C 	0.0323	0.8089	0.883	0.33
Mof_H 	H 	0.9859	0.8026	0.8697	-0.07
Mof_H 	H 	0.0142	0.7629	0.8985	-0.056
Mof_H 	H 	0.0554	0.8596	0.896	-0.063
Mof_H 	H 	0.0603	0.8056	0.8743	-0.18
Mof_C 	C 	0.75857	0.97373	0.30627	0.351
Mof_C 	C 	0.81777	0.05343	0.28921	-0.081
Mof_C 	C 	0.80307	0.06983	0.25582	-0.027
Mof_H 	H 	0.75417	0.03193	0.24483	0.057
Mof_O 	O 	0.77702	0.96228	0.33656	-0.401
Mof_O 	O 	0.6966	0.92206	0.28913	-0.406
Mof_C 	C 	0.76837	0.14513	0.19063	0.089
Mof_C 	C 	0.76047	0.15313	0.15613	-0.098
Mof_H 	H 	0.72087	0.16483	0.14533	0.064
Mof_C 	C 	0.69897	0.14223	0.21633	0.33
Mof_H 	H 	0.65257	0.13593	0.20303	-0.07
Mof_H 	H 	0.68087	0.09623	0.23183	-0.056
Mof_H 	H 	0.72207	0.19293	0.22933	-0.063
Mof_H 	H 	0.72697	0.13893	0.20763	-0.18
Mof_C 	C 	0.42523	0.30707	0.63961	0.351
Mof_C 	C 	0.48443	0.38677	0.62255	-0.081
Mof_C 	C 	0.46973	0.40317	0.58916	-0.028
Mof_H 	H 	0.42083	0.36527	0.57817	0.057
Mof_O 	O 	0.44368	0.29562	0.6699	-0.401
Mof_O 	O 	0.36326	0.2554	0.62247	-0.406
Mof_C 	C 	0.43503	0.47847	0.52397	0.089
Mof_C 	C 	0.42713	0.48647	0.48947	-0.098
Mof_H 	H 	0.38753	0.49817	0.47867	0.064
Mof_C 	C 	0.36563	0.47557	0.54967	0.33
Mof_H 	H 	0.31923	0.46927	0.53637	-0.07
Mof_H 	H 	0.34753	0.42957	0.56517	-0.056
Mof_H 	H 	0.38873	0.52627	0.56267	-0.063
Mof_H 	H 	0.39363	0.47227	0.54097	-0.18
Mof_C 	C 	0.3596	0.4515	0.97294	0.351
Mof_C 	C 	0.2799	0.431	0.95588	-0.081
Mof_C 	C 	0.2635	0.3999	0.92249	-0.028
Mof_H 	H 	0.3014	0.3889	0.9115	0.057
Mof_O 	O 	0.37105	0.4814	0.00323	-0.401
Mof_O 	O 	0.41127	0.4412	0.9558	-0.406
Mof_C 	C 	0.1882	0.2899	0.8573	0.089
Mof_C 	C 	0.1802	0.274	0.8228	-0.098
Mof_H 	H 	0.1685	0.2227	0.812	0.064
Mof_C 	C 	0.1911	0.2234	0.883	0.33
Mof_H 	H 	0.1974	0.1833	0.8697	-0.07
Mof_H 	H 	0.2371	0.2513	0.8985	-0.056
Mof_H 	H 	0.1404	0.1958	0.896	-0.063
Mof_H 	H 	0.1944	0.2547	0.8743	-0.18
Mof_C 	C 	0.02627	0.78483	0.30627	0.351
Mof_C 	C 	0.94657	0.76433	0.28921	-0.081
Mof_C 	C 	0.93017	0.73323	0.25582	-0.028
Mof_H 	H 	0.96807	0.72223	0.24483	0.057
Mof_O 	O 	0.03772	0.81473	0.33656	-0.401
Mof_O 	O 	0.07794	0.77453	0.28913	-0.406
Mof_C 	C 	0.85487	0.62323	0.19063	0.089
Mof_C 	C 	0.84687	0.60733	0.15613	-0.098
Mof_H 	H 	0.83517	0.55603	0.14533	0.064
Mof_C 	C 	0.85777	0.55673	0.21633	0.33
Mof_H 	H 	0.86407	0.51663	0.20303	-0.07
Mof_H 	H 	0.90377	0.58463	0.23183	-0.056
Mof_H 	H 	0.80707	0.52913	0.22933	-0.063
Mof_H 	H 	0.86107	0.58803	0.20763	-0.18
Mof_C 	C 	0.69293	0.11817	0.63961	0.351
Mof_C 	C 	0.61323	0.09767	0.62255	-0.081
Mof_C 	C 	0.59683	0.06657	0.58916	-0.028
Mof_H 	H 	0.63473	0.05557	0.57817	0.057
Mof_O 	O 	0.70438	0.14807	0.6699	-0.401
Mof_O 	O 	0.7446	0.10787	0.62247	-0.406
Mof_C 	C 	0.52153	0.95657	0.52397	0.089
Mof_C 	C 	0.51353	0.94067	0.48947	-0.098
Mof_H 	H 	0.50183	0.88937	0.47867	0.064
Mof_C 	C 	0.52443	0.89007	0.54967	0.33
Mof_H 	H 	0.53073	0.84997	0.53637	-0.07
Mof_H 	H 	0.57043	0.91797	0.56517	-0.056
Mof_H 	H 	0.47373	0.86247	0.56267	-0.063
Mof_H 	H 	0.52773	0.92137	0.54097	-0.18
Mof_C 	C 	0.9081	0.5485	0.02706	0.351
Mof_C 	C 	0.8489	0.569	0.04412	-0.081
Mof_C 	C 	0.8636	0.6001	0.07751	-0.028
Mof_H 	H 	0.9125	0.6111	0.0885	0.057
Mof_O 	O 	0.88965	0.5186	0.99677	-0.401
Mof_O 	O 	0.97007	0.5588	0.0442	-0.406
Mof_C 	C 	0.8983	0.7101	0.1427	0.089
Mof_C 	C 	0.9062	0.726	0.1772	-0.098
Mof_H 	H 	0.9458	0.7773	0.188	0.064
Mof_C 	C 	0.9677	0.7766	0.117	0.33
Mof_H 	H 	0.0141	0.8167	0.1303	-0.07
Mof_H 	H 	0.9858	0.7487	0.1015	-0.056
Mof_H 	H 	0.9446	0.8042	0.104	-0.063
Mof_H 	H 	0.9397	0.7453	0.1257	-0.18
Mof_C 	C 	0.57477	0.88183	0.36039	0.351
Mof_C 	C 	0.51557	0.90233	0.37745	-0.081
Mof_C 	C 	0.53027	0.93343	0.41084	-0.028
Mof_H 	H 	0.57917	0.94443	0.42183	0.057
Mof_O 	O 	0.55632	0.85193	0.3301	-0.401
Mof_O 	O 	0.63674	0.89213	0.37753	-0.406
Mof_C 	C 	0.56497	0.04343	0.47603	0.089
Mof_C 	C 	0.57287	0.05933	0.51053	-0.098
Mof_H 	H 	0.61247	0.11063	0.52133	0.064
Mof_C 	C 	0.63437	0.10993	0.45033	0.33
Mof_H 	H 	0.68077	0.15003	0.46363	-0.07
Mof_H 	H 	0.65247	0.08203	0.43483	-0.056
Mof_H 	H 	0.61127	0.13753	0.43733	-0.063
Mof_H 	H 	0.60637	0.07863	0.45903	-0.18
Mof_C 	C 	0.24143	0.21517	0.69373	0.351
Mof_C 	C 	0.18223	0.23567	0.71079	-0.081
Mof_C 	C 	0.19693	0.26677	0.74418	-0.028
Mof_H 	H 	0.24583	0.27777	0.75517	0.057
Mof_O 	O 	0.22298	0.18527	0.66344	-0.401
Mof_O 	O 	0.3034	0.22547	0.71087	-0.406
Mof_C 	C 	0.23163	0.37677	0.80937	0.089
Mof_C 	C 	0.23953	0.39267	0.84387	-0.098
Mof_H 	H 	0.27913	0.44397	0.85467	0.064
Mof_C 	C 	0.30103	0.44327	0.78367	0.33
Mof_H 	H 	0.34743	0.48337	0.79697	-0.07
Mof_H 	H 	0.31913	0.41537	0.76817	-0.056
Mof_H 	H 	0.27793	0.47087	0.77067	-0.063
Mof_H 	H 	0.27303	0.41197	0.79237	-0.18
Mof_C 	C 	0.6404	0.0919	0.02706	0.351
Mof_C 	C 	0.7201	0.1511	0.04412	-0.081
Mof_C 	C 	0.7365	0.1364	0.07751	-0.028
Mof_H 	H 	0.6986	0.0875	0.0885	0.057
Mof_O 	O 	0.62895	0.11035	0.99677	-0.401
Mof_O 	O 	0.58873	0.02993	0.0442	-0.406
Mof_C 	C 	0.8118	0.1017	0.1427	0.089
Mof_C 	C 	0.8198	0.0938	0.1772	-0.098
Mof_H 	H 	0.8315	0.0542	0.188	0.064
Mof_C 	C 	0.8089	0.0323	0.117	0.33
Mof_H 	H 	0.8026	0.9859	0.1303	-0.07
Mof_H 	H 	0.7629	0.0142	0.1015	-0.056
Mof_H 	H 	0.8596	0.0554	0.104	-0.063
Mof_H 	H 	0.8056	0.0603	0.1257	-0.18
Mof_C 	C 	0.30707	0.42523	0.36039	0.351
Mof_C 	C 	0.38677	0.48443	0.37745	-0.081
Mof_C 	C 	0.40317	0.46973	0.41084	-0.028
Mof_H 	H 	0.36527	0.42083	0.42183	0.057
Mof_O 	O 	0.29562	0.44368	0.3301	-0.401
Mof_O 	O 	0.2554	0.36326	0.37753	-0.406
Mof_C 	C 	0.47847	0.43503	0.47603	0.089
Mof_C 	C 	0.48647	0.42713	0.51053	-0.098
Mof_H 	H 	0.49817	0.38753	0.52133	0.064
Mof_C 	C 	0.47557	0.36563	0.45033	0.33
Mof_H 	H 	0.46927	0.31923	0.46363	-0.07
Mof_H 	H 	0.42957	0.34753	0.43483	-0.056
Mof_H 	H 	0.52627	0.38873	0.43733	-0.063
Mof_H 	H 	0.47227	0.39363	0.45903	-0.18
Mof_C 	C 	0.97373	0.75857	0.69373	0.351
Mof_C 	C 	0.05343	0.81777	0.71079	-0.081
Mof_C 	C 	0.06983	0.80307	0.74418	-0.027
Mof_H 	H 	0.03193	0.75417	0.75517	0.057
Mof_O 	O 	0.96228	0.77702	0.66344	-0.401
Mof_O 	O 	0.92206	0.6966	0.71087	-0.406
Mof_C 	C 	0.14513	0.76837	0.80937	0.089
Mof_C 	C 	0.15313	0.76047	0.84387	-0.098
Mof_H 	H 	0.16483	0.72087	0.85467	0.064
Mof_C 	C 	0.14223	0.69897	0.78367	0.33
Mof_H 	H 	0.13593	0.65257	0.79697	-0.07
Mof_H 	H 	0.09623	0.68087	0.76817	-0.056
Mof_H 	H 	0.19293	0.72207	0.77067	-0.063
Mof_H 	H 	0.13893	0.72697	0.79237	-0.18
Mof_C 	C 	0.4515	0.3596	0.02706	0.351
Mof_C 	C 	0.431	0.2799	0.04412	-0.081
Mof_C 	C 	0.3999	0.2635	0.07751	-0.028
Mof_H 	H 	0.3889	0.3014	0.0885	0.057
Mof_O 	O 	0.4814	0.37105	0.99677	-0.401
Mof_O 	O 	0.4412	0.41127	0.0442	-0.406
Mof_C 	C 	0.2899	0.1882	0.1427	0.089
Mof_C 	C 	0.274	0.1802	0.1772	-0.098
Mof_H 	H 	0.2227	0.1685	0.188	0.064
Mof_C 	C 	0.2234	0.1911	0.117	0.33
Mof_H 	H 	0.1833	0.1974	0.1303	-0.07
Mof_H 	H 	0.2513	0.2371	0.1015	-0.056
Mof_H 	H 	0.1958	0.1404	0.104	-0.063
Mof_H 	H 	0.2547	0.1944	0.1257	-0.18
Mof_C 	C 	0.11817	0.69293	0.36039	0.351
Mof_C 	C 	0.09767	0.61323	0.37745	-0.081
Mof_C 	C 	0.06657	0.59683	0.41084	-0.028
Mof_H 	H 	0.05557	0.63473	0.42183	0.057
Mof_O 	O 	0.14807	0.70438	0.3301	-0.401
Mof_O 	O 	0.10787	0.7446	0.37753	-0.406
Mof_C 	C 	0.95657	0.52153	0.47603	0.089
Mof_C 	C 	0.94067	0.51353	0.51053	-0.098
Mof_H 	H 	0.88937	0.50183	0.52133	0.064
Mof_C 	C 	0.89007	0.52443	0.45033	0.33
Mof_H 	H 	0.84997	0.53073	0.46363	-0.07
Mof_H 	H 	0.91797	0.57043	0.43483	-0.056
Mof_H 	H 	0.86247	0.47373	0.43733	-0.063
Mof_H 	H 	0.92137	0.52773	0.45903	-0.18
Mof_C 	C 	0.78483	0.02627	0.69373	0.351
Mof_C 	C 	0.76433	0.94657	0.71079	-0.081
Mof_C 	C 	0.73323	0.93017	0.74418	-0.028
Mof_H 	H 	0.72223	0.96807	0.75517	0.057
Mof_O 	O 	0.81473	0.03772	0.66344	-0.401
Mof_O 	O 	0.77453	0.07794	0.71087	-0.406
Mof_C 	C 	0.62323	0.85487	0.80937	0.089
Mof_C 	C 	0.60733	0.84687	0.84387	-0.098
Mof_H 	H 	0.55603	0.83517	0.85467	0.064
Mof_C 	C 	0.55673	0.85777	0.78367	0.33
Mof_H 	H 	0.51663	0.86407	0.79697	-0.07
Mof_H 	H 	0.58463	0.90377	0.76817	-0.056
Mof_H 	H 	0.52913	0.80707	0.77067	-0.063
Mof_H 	H 	0.58803	0.86107	0.79237	-0.18
Mof_C 	C 	0.4451	0.22255	0.02798	0.025
Mof_H 	H 	0.4649	0.23245	0.0054	0.053
Mof_C 	C 	0.3849	0.19245	0.09492	0.007
Mof_C 	C 	0.3567	0.17835	0.13203	-0.009
Mof_C 	C 	0.11177	0.55588	0.36131	0.025
Mof_H 	H 	0.13157	0.56578	0.33873	0.053
Mof_C 	C 	0.05157	0.52578	0.42825	0.007
Mof_C 	C 	0.02337	0.51168	0.46536	-0.009
Mof_C 	C 	0.77843	0.88922	0.69465	0.025
Mof_H 	H 	0.79823	0.89912	0.67207	0.053
Mof_C 	C 	0.71823	0.85912	0.76159	0.007
Mof_C 	C 	0.69003	0.84502	0.7987	-0.009
Mof_C 	C 	0.77745	0.22255	0.02798	0.025
Mof_H 	H 	0.76755	0.23245	0.0054	0.053
Mof_C 	C 	0.80755	0.19245	0.09492	0.007
Mof_C 	C 	0.82165	0.17835	0.13203	-0.009
Mof_C 	C 	0.44412	0.55588	0.36131	0.025
Mof_H 	H 	0.43422	0.56578	0.33873	0.053
Mof_C 	C 	0.47422	0.52578	0.42825	0.007
Mof_C 	C 	0.48832	0.51168	0.46536	-0.009
Mof_C 	C 	0.11078	0.88922	0.69465	0.025
Mof_H 	H 	0.10088	0.89912	0.67207	0.053
Mof_C 	C 	0.14088	0.85912	0.76159	0.007
Mof_C 	C 	0.15498	0.84502	0.7987	-0.009
Mof_C 	C 	0.77745	0.5549	0.02798	0.025
Mof_H 	H 	0.76755	0.5351	0.0054	0.053
Mof_C 	C 	0.80755	0.6151	0.09492	0.007
Mof_C 	C 	0.82165	0.6433	0.13203	-0.009
Mof_C 	C 	0.44412	0.88823	0.36131	0.025
Mof_H 	H 	0.43422	0.86843	0.33873	0.053
Mof_C 	C 	0.47422	0.94843	0.42825	0.007
Mof_C 	C 	0.48832	0.97663	0.46536	-0.009
Mof_C 	C 	0.11078	0.22157	0.69465	0.025
Mof_H 	H 	0.10088	0.20177	0.67207	0.053
Mof_C 	C 	0.14088	0.28177	0.76159	0.007
Mof_C 	C 	0.15498	0.30997	0.7987	-0.009
Mof_C 	C 	0.22255	0.4451	0.97202	0.025
Mof_H 	H 	0.23245	0.4649	0.9946	0.053
Mof_C 	C 	0.19245	0.3849	0.90508	0.007
Mof_C 	C 	0.17835	0.3567	0.86797	-0.009
Mof_C 	C 	0.88922	0.77843	0.30535	0.025
Mof_H 	H 	0.89912	0.79823	0.32793	0.053
Mof_C 	C 	0.85912	0.71823	0.23841	0.007
Mof_C 	C 	0.84502	0.69003	0.2013	-0.009
Mof_C 	C 	0.55588	0.11177	0.63869	0.025
Mof_H 	H 	0.56578	0.13157	0.66127	0.053
Mof_C 	C 	0.52578	0.05157	0.57175	0.007
Mof_C 	C 	0.51168	0.02337	0.53464	-0.009
Mof_C 	C 	0.22255	0.77745	0.97202	0.025
Mof_H 	H 	0.23245	0.76755	0.9946	0.053
Mof_C 	C 	0.19245	0.80755	0.90508	0.007
Mof_C 	C 	0.17835	0.82165	0.86797	-0.009
Mof_C 	C 	0.88922	0.11078	0.30535	0.025
Mof_H 	H 	0.89912	0.10088	0.32793	0.053
Mof_C 	C 	0.85912	0.14088	0.23841	0.007
Mof_C 	C 	0.84502	0.15498	0.2013	-0.009
Mof_C 	C 	0.55588	0.44412	0.63869	0.025
Mof_H 	H 	0.56578	0.43422	0.66127	0.053
Mof_C 	C 	0.52578	0.47422	0.57175	0.007
Mof_C 	C 	0.51168	0.48832	0.53464	-0.009
Mof_C 	C 	0.5549	0.77745	0.97202	0.025
Mof_H 	H 	0.5351	0.76755	0.9946	0.053
Mof_C 	C 	0.6151	0.80755	0.90508	0.007
Mof_C 	C 	0.6433	0.82165	0.86797	-0.009
Mof_C 	C 	0.22157	0.11078	0.30535	0.025
Mof_H 	H 	0.20177	0.10088	0.32793	0.053
Mof_C 	C 	0.28177	0.14088	0.23841	0.007
Mof_C 	C 	0.30997	0.15498	0.2013	-0.009
Mof_C 	C 	0.88823	0.44412	0.63869	0.025
Mof_H 	H 	0.86843	0.43422	0.66127	0.053
Mof_C 	C 	0.94843	0.47422	0.57175	0.007
Mof_C 	C 	0.97663	0.48832	0.53464	-0.009
Mof_Cu	Cu	0.52365	0.0473	0.97196	0.904
Mof_Cu	Cu	0.19032	0.38063	0.3053	0.904
Mof_Cu	Cu	0.85698	0.71397	0.63863	0.904
Mof_Cu	Cu	0.9527	0.47635	0.97196	0.904
Mof_Cu	Cu	0.61937	0.80968	0.3053	0.904
Mof_Cu	Cu	0.28603	0.14302	0.63863	0.904
Mof_Cu	Cu	0.52365	0.47635	0.97196	0.904
Mof_Cu	Cu	0.19032	0.80968	0.3053	0.904
Mof_Cu	Cu	0.85698	0.14302	0.63863	0.904
Mof_Cu	Cu	0.0473	0.52365	0.02804	0.904
Mof_Cu	Cu	0.71397	0.85698	0.36137	0.904
Mof_Cu	Cu	0.38063	0.19032	0.6947	0.904
Mof_Cu	Cu	0.47635	0.9527	0.02804	0.904
Mof_Cu	Cu	0.14302	0.28603	0.36137	0.904
Mof_Cu	Cu	0.80968	0.61937	0.6947	0.904
Mof_Cu	Cu	0.47635	0.52365	0.02804	0.904
Mof_Cu	Cu	0.14302	0.85698	0.36137	0.904
Mof_Cu	Cu	0.80968	0.19032	0.6947	0.904
_end
