# CIF file generated by openbabel 3.1.0, see https://openbabel.org
data_I
_chemical_name_common 'image0'
_cell_length_a 9.59
_cell_length_b 22.621
_cell_length_c 10.129
_cell_angle_alpha 90
_cell_angle_beta 101.61
_cell_angle_gamma 90
_space_group_name_H-M_alt 'P 1'
_space_group_name_Hall 'P 1'
loop_
    _symmetry_equiv_pos_as_xyz
    x,y,z
loop_
    _atom_site_label
    _atom_site_type_symbol
    _atom_site_fract_x
    _atom_site_fract_y
    _atom_site_fract_z
    _atom_site_occupancy
    Sm1      Sm       0.24947    0.27703    0.04694    1.000
    Sm2      Sm       0.72018    0.43443    0.85643    1.000
    N1       N        0.59890    0.41469    0.62070    1.000
    N2       N        0.53390    0.41381    0.40080    1.000
    H1       H        0.52324    0.42261    0.31665    1.000
    N3       N        0.77420    0.50658    0.64220    1.000
    O1       O        0.06500    0.33834    0.10940    1.000
    O2       O        0.03330    0.28809    0.86570    1.000
    O3       O        0.83350    0.34115    0.79550    1.000
    O4       O        0.85050    0.38014    0.04940    1.000
    O5       O        0.52360    0.35958    0.81700    1.000
    O6       O        0.37800    0.29633    0.68960    1.000
    O7       O        0.27890    0.29513    0.38880    1.000
    O8       O        0.36820    0.33901    0.22740    1.000
    O9       O        0.59860    0.43630    0.04960    1.000
    O10      O        0.46820    0.49065    0.16370    1.000
    O11      O        0.97860    0.44933    0.86820    1.000
    O12      O        0.17740    0.48099    0.00400    1.000
    C1       C        0.45730    0.36966    0.44680    1.000
    C2       C        0.49960    0.37089    0.58620    1.000
    C3       C        0.61870    0.43971    0.50800    1.000
    C4       C        0.72130    0.48841    0.51430    1.000
    C5       C        0.76160    0.51294    0.40110    1.000
    H2       H        0.72438    0.49833    0.31318    1.000
    C6       C        0.85860    0.55970    0.42190    1.000
    H3       H        0.88890    0.57780    0.34778    1.000
    C7       C        0.90980    0.57925    0.55160    1.000
    H4       H        0.97429    0.61156    0.56760    1.000
    C8       C        0.86670    0.55152    0.65770    1.000
    H5       H        0.90464    0.56503    0.74644    1.000
    C9       C        0.36060    0.33164    0.34840    1.000
    C10      C        0.46250    0.33891    0.70310    1.000
    C11      C        0.51980    0.47870    0.06100    1.000
    C12      C        0.04460    0.47983    0.96230    1.000
    C13      C        0.95230    0.34923    0.02760    1.000
    C14      C        0.93760    0.32376    0.88260    1.000
    Sm3      Sm       0.75053    0.77703    0.45306    1.000
    Sm4      Sm       0.27982    0.93443    0.64357    1.000
    N4       N        0.40110    0.91469    0.87930    1.000
    N5       N        0.46610    0.91381    0.09920    1.000
    H6       H        0.47676    0.92261    0.18335    1.000
    N6       N        0.22580    0.00658    0.85780    1.000
    O13      O        0.93500    0.83834    0.39060    1.000
    O14      O        0.96670    0.78809    0.63430    1.000
    O15      O        0.16650    0.84115    0.70450    1.000
    O16      O        0.14950    0.88014    0.45060    1.000
    O17      O        0.47640    0.85958    0.68300    1.000
    O18      O        0.62200    0.79633    0.81040    1.000
    O19      O        0.72110    0.79513    0.11120    1.000
    O20      O        0.63180    0.83901    0.27260    1.000
    O21      O        0.40140    0.93630    0.45040    1.000
    O22      O        0.53180    0.99065    0.33630    1.000
    O23      O        0.02140    0.94933    0.63180    1.000
    O24      O        0.82260    0.98099    0.49600    1.000
    C15      C        0.54270    0.86966    0.05320    1.000
    C16      C        0.50040    0.87089    0.91380    1.000
    C17      C        0.38130    0.93971    0.99200    1.000
    C18      C        0.27870    0.98841    0.98570    1.000
    C19      C        0.23840    0.01294    0.09890    1.000
    H7       H        0.27562    0.99833    0.18682    1.000
    C20      C        0.14140    0.05970    0.07810    1.000
    H8       H        0.11110    0.07780    0.15222    1.000
    C21      C        0.09020    0.07925    0.94840    1.000
    H9       H        0.02571    0.11156    0.93240    1.000
    C22      C        0.13330    0.05152    0.84230    1.000
    H10      H        0.09536    0.06503    0.75356    1.000
    C23      C        0.63940    0.83164    0.15160    1.000
    C24      C        0.53750    0.83891    0.79690    1.000
    C25      C        0.48020    0.97870    0.43900    1.000
    C26      C        0.95540    0.97983    0.53770    1.000
    C27      C        0.04770    0.84923    0.47240    1.000
    C28      C        0.06240    0.82376    0.61740    1.000
    Sm5      Sm       0.75053    0.72297    0.95306    1.000
    Sm6      Sm       0.27982    0.56557    0.14357    1.000
    N7       N        0.40110    0.58531    0.37930    1.000
    N8       N        0.46610    0.58619    0.59920    1.000
    H11      H        0.47676    0.57739    0.68335    1.000
    N9       N        0.22580    0.49342    0.35780    1.000
    O25      O        0.93500    0.66166    0.89060    1.000
    O26      O        0.96670    0.71191    0.13430    1.000
    O27      O        0.16650    0.65885    0.20450    1.000
    O28      O        0.14950    0.61986    0.95060    1.000
    O29      O        0.47640    0.64042    0.18300    1.000
    O30      O        0.62200    0.70367    0.31040    1.000
    O31      O        0.72110    0.70487    0.61120    1.000
    O32      O        0.63180    0.66099    0.77260    1.000
    O33      O        0.40140    0.56370    0.95040    1.000
    O34      O        0.53180    0.50935    0.83630    1.000
    O35      O        0.02140    0.55067    0.13180    1.000
    O36      O        0.82260    0.51901    0.99600    1.000
    C29      C        0.54270    0.63034    0.55320    1.000
    C30      C        0.50040    0.62911    0.41380    1.000
    C31      C        0.38130    0.56029    0.49200    1.000
    C32      C        0.27870    0.51159    0.48570    1.000
    C33      C        0.23840    0.48706    0.59890    1.000
    H12      H        0.27562    0.50167    0.68682    1.000
    C34      C        0.14140    0.44030    0.57810    1.000
    H13      H        0.11110    0.42220    0.65222    1.000
    C35      C        0.09020    0.42075    0.44840    1.000
    H14      H        0.02571    0.38844    0.43240    1.000
    C36      C        0.13330    0.44848    0.34230    1.000
    H15      H        0.09536    0.43497    0.25356    1.000
    C37      C        0.63940    0.66836    0.65160    1.000
    C38      C        0.53750    0.66109    0.29690    1.000
    C39      C        0.48020    0.52130    0.93900    1.000
    C40      C        0.95540    0.52017    0.03770    1.000
    C41      C        0.04770    0.65077    0.97240    1.000
    C42      C        0.06240    0.67624    0.11740    1.000
    Sm7      Sm       0.24947    0.22297    0.54694    1.000
    Sm8      Sm       0.72018    0.06557    0.35643    1.000
    N10      N        0.59890    0.08531    0.12070    1.000
    N11      N        0.53390    0.08619    0.90080    1.000
    H16      H        0.52324    0.07739    0.81665    1.000
    N12      N        0.77420    0.99342    0.14220    1.000
    O37      O        0.06500    0.16166    0.60940    1.000
    O38      O        0.03330    0.21191    0.36570    1.000
    O39      O        0.83350    0.15885    0.29550    1.000
    O40      O        0.85050    0.11986    0.54940    1.000
    O41      O        0.52360    0.14042    0.31700    1.000
    O42      O        0.37800    0.20367    0.18960    1.000
    O43      O        0.27890    0.20487    0.88880    1.000
    O44      O        0.36820    0.16099    0.72740    1.000
    O45      O        0.59860    0.06370    0.54960    1.000
    O46      O        0.46820    0.00935    0.66370    1.000
    O47      O        0.97860    0.05067    0.36820    1.000
    O48      O        0.17740    0.01901    0.50400    1.000
    C43      C        0.45730    0.13034    0.94680    1.000
    C44      C        0.49960    0.12911    0.08620    1.000
    C45      C        0.61870    0.06029    0.00800    1.000
    C46      C        0.72130    0.01159    0.01430    1.000
    C47      C        0.76160    0.98706    0.90110    1.000
    H17      H        0.72438    0.00167    0.81318    1.000
    C48      C        0.85860    0.94030    0.92190    1.000
    H18      H        0.88890    0.92220    0.84778    1.000
    C49      C        0.90980    0.92075    0.05160    1.000
    H19      H        0.97429    0.88844    0.06760    1.000
    C50      C        0.86670    0.94848    0.15770    1.000
    H20      H        0.90464    0.93497    0.24644    1.000
    C51      C        0.36060    0.16836    0.84840    1.000
    C52      C        0.46250    0.16109    0.20310    1.000
    C53      C        0.51980    0.02130    0.56100    1.000
    C54      C        0.04460    0.02017    0.46230    1.000
    C55      C        0.95230    0.15077    0.52760    1.000
    C56      C        0.93760    0.17624    0.38260    1.000
