data_functionalizedCrystal
_audit_creation_method	'EQeq! by Chris Wilmer'
_symmetry_space_group_name_H-M	'P1'
_symmetry_Int_Tables_number	1
_symmetry_cell_setting	triclinic
loop_
_symmetry_equiv_pos_as_xyz
  x,y,z
_cell_length_a	8.2096
_cell_length_b	14.998
_cell_length_c	36.8727
_cell_angle_alpha	90
_cell_angle_beta	90.8824
_cell_angle_gamma	90
loop_
_atom_site_label
_atom_site_type_symbol
_atom_site_fract_x
_atom_site_fract_y
_atom_site_fract_z
_atom_site_charge
Mof_Gd	Gd	0.16545	0.09808	0.48678	1.531
Mof_Gd	Gd	0.83455	0.90192	0.51322	1.531
Mof_Gd	Gd	0.66545	0.90192	0.98678	1.529
Mof_Gd	Gd	0.33455	0.09808	0.01322	1.529
Mof_H 	H 	0.5347	0.9535	0.2606	0.054
Mof_H 	H 	0.5905	0.3727	0.0737	0.045
Mof_H 	H 	0.0661	0.3117	0.7722	0.041
Mof_H 	H 	0.415	0.3359	0.5647	0.034
Mof_H 	H 	0.7367	0.0904	0.6578	0.131
Mof_H 	H 	0.9322	0.3962	0.888	0.077
Mof_H 	H 	0.4071	0.2877	0.8871	0.086
Mof_H 	H 	0.915	0.6641	0.0647	0.034
Mof_H 	H 	0.0905	0.6273	0.5737	0.045
Mof_H 	H 	0.6601	0.6693	0.4908	0.149
Mof_H 	H 	0.9339	0.6883	0.2278	0.041
Mof_H 	H 	0.391	0.3713	0.9749	0.054
Mof_H 	H 	0.9071	0.7123	0.3871	0.087
Mof_H 	H 	0.8609	0.425	0.5455	0.054
Mof_H 	H 	0.0453	0.9143	0.0936	0.059
Mof_H 	H 	0.585	0.6641	0.4353	0.034
Mof_H 	H 	0.4322	0.6038	0.388	0.077
Mof_H 	H 	0.8399	0.6693	0.0092	0.15
Mof_H 	H 	0.1428	0.7525	0.0023	0.064
Mof_H 	H 	0.0842	0.6707	0.2807	0.053
Mof_H 	H 	0.0347	0.0465	0.7606	0.052
Mof_H 	H 	0.6253	0.0216	0.1328	0.052
Mof_H 	H 	0.988	0.187	0.5703	0.015
Mof_H 	H 	0.4158	0.6707	0.2193	0.051
Mof_H 	H 	0.2023	0.5247	0.9152	0.068
Mof_H 	H 	0.3572	0.7525	0.4977	0.064
Mof_H 	H 	0.2633	0.9096	0.3422	0.131
Mof_H 	H 	0.5453	0.0857	0.5936	0.059
Mof_H 	H 	0.1253	0.9784	0.6328	0.052
Mof_H 	H 	0.6232	0.0656	0.7916	0.044
Mof_H 	H 	0.2149	0.2856	0.8217	0.131
Mof_H 	H 	0.1601	0.3307	0.9908	0.15
Mof_H 	H 	0.3768	0.9344	0.2084	0.044
Mof_H 	H 	0.0678	0.6038	0.112	0.077
Mof_H 	H 	0.3609	0.575	0.0455	0.054
Mof_H 	H 	0.012	0.813	0.4297	0.015
Mof_H 	H 	0.4547	0.9143	0.4064	0.059
Mof_H 	H 	0.9095	0.3727	0.4263	0.045
Mof_H 	H 	0.7023	0.4753	0.4152	0.068
Mof_H 	H 	0.3747	0.9784	0.8672	0.052
Mof_H 	H 	0.5842	0.3293	0.7807	0.051
Mof_H 	H 	0.9158	0.3293	0.7193	0.053
Mof_H 	H 	0.5661	0.6883	0.2722	0.043
Mof_H 	H 	0.109	0.3713	0.5251	0.054
Mof_H 	H 	0.2977	0.5247	0.5848	0.068
Mof_H 	H 	0.7977	0.4753	0.0848	0.068
Mof_H 	H 	0.5678	0.3962	0.612	0.077
Mof_H 	H 	0.8768	0.0656	0.7084	0.046
Mof_H 	H 	0.488	0.813	0.0703	0.016
Mof_H 	H 	0.1232	0.9344	0.2916	0.046
Mof_H 	H 	0.512	0.187	0.9297	0.016
Mof_H 	H 	0.8572	0.2475	0.9977	0.064
Mof_H 	H 	0.609	0.6287	0.0251	0.054
Mof_H 	H 	0.4653	0.0465	0.7394	0.054
Mof_H 	H 	0.7149	0.7144	0.3217	0.131
Mof_H 	H 	0.085	0.3359	0.9353	0.034
Mof_H 	H 	0.7633	0.0904	0.8422	0.131
Mof_H 	H 	0.0929	0.2877	0.6129	0.087
Mof_H 	H 	0.4339	0.3117	0.7278	0.043
Mof_H 	H 	0.2367	0.9096	0.1578	0.131
Mof_H 	H 	0.9547	0.0857	0.9064	0.059
Mof_H 	H 	0.8747	0.0216	0.3672	0.052
Mof_H 	H 	0.891	0.6287	0.4749	0.054
Mof_H 	H 	0.6428	0.2475	0.5023	0.064
Mof_H 	H 	0.2851	0.2856	0.6783	0.131
Mof_H 	H 	0.4095	0.6273	0.9263	0.045
Mof_H 	H 	0.5929	0.7123	0.1129	0.086
Mof_H 	H 	0.6391	0.425	0.9545	0.054
Mof_H 	H 	0.3399	0.3307	0.5092	0.149
Mof_H 	H 	0.9653	0.9535	0.2394	0.052
Mof_H 	H 	0.7851	0.7144	0.1783	0.131
Mof_H 	H 	0.1391	0.575	0.4545	0.054
Mof_C 	C 	0.12112	0.8005	0.29152	-0.011
Mof_C 	C 	0.99462	0.0103	0.56872	0.349
Mof_C 	C 	0.68623	0.8089	0.14603	0.106
Mof_C 	C 	0.4331	0.1768	0.7283	-0.013
Mof_C 	C 	0.22005	0.7874	0.32485	0.128
Mof_C 	C 	0.15492	0.7081	0.98492	-0.083
Mof_C 	C 	0.29636	0.7006	0.96496	-0.054
Mof_C 	C 	0.37525	0.0394	0.87185	-0.026
Mof_C 	C 	0.62475	0.9606	0.12815	-0.026
Mof_C 	C 	0.9523	0.1469	0.9025	-0.071
Mof_C 	C 	0.4523	0.8531	0.4025	-0.069
Mof_C 	C 	0.27995	0.7874	0.17515	0.129
Mof_C 	C 	0.41571	0.5452	0.02721	-0.04
Mof_C 	C 	0.02974	0.262	0.75934	-0.034
Mof_C 	C 	0.53549	0.7939	0.42539	-0.064
Mof_C 	C 	0.34969	0.4693	0.01169	-0.011
Mof_C 	C 	0.9384	0.3349	0.8913	-0.111
Mof_C 	C 	0.84969	0.5307	0.51169	-0.011
Mof_C 	C 	0.39577	0.2265	0.88387	-0.143
Mof_C 	C 	0.19693	0.0993	0.65223	0.029
Mof_C 	C 	0.87525	0.9606	0.37185	-0.025
Mof_C 	C 	0.96451	0.7939	0.07461	-0.063
Mof_C 	C 	0.43467	0.4232	0.98477	-0.041
Mof_C 	C 	0.92859	0.2336	0.47189	0.299
Mof_C 	C 	0.18867	0.4351	0.02337	0.135
Mof_C 	C 	0.6425	0.2761	0.6322	0.067
Mof_C 	C 	0.69024	0.4304	0.43234	-0.095
Mof_C 	C 	0.55222	0.9266	0.09712	-0.111
Mof_C 	C 	0.34508	0.7081	0.51508	-0.083
Mof_C 	C 	0.13438	0.8159	0.12648	0.069
Mof_C 	C 	0.97197	0.7018	0.08037	0.011
Mof_C 	C 	0.5847	0.1152	0.779	-0.035
Mof_C 	C 	0.42859	0.7664	0.97189	0.3
Mof_C 	C 	0.45996	0.166	0.90876	0.054
Mof_C 	C 	0.03303	0.6468	0.97793	0.072
Mof_C 	C 	0.562	0.2721	0.7723	-0.04
Mof_C 	C 	0.5616	0.3349	0.6087	-0.109
Mof_C 	C 	0.44778	0.0734	0.90288	-0.111
Mof_C 	C 	0.77995	0.2126	0.67515	0.128
Mof_C 	C 	0.31133	0.4351	0.47663	0.135
Mof_C 	C 	0.5669	0.8232	0.2717	-0.013
Mof_C 	C 	0.12475	0.0394	0.62815	-0.025
Mof_C 	C 	0.46697	0.6468	0.52207	0.073
Mof_C 	C 	0.54004	0.834	0.09124	0.054
Mof_C 	C 	0.16813	0.162	0.80453	0.13
Mof_C 	C 	0.02803	0.2982	0.91963	0.011
Mof_C 	C 	0.18688	0.6315	0.56088	-0.001
Mof_C 	C 	0.45316	0.5779	0.54746	0.058
Mof_C 	C 	0.68867	0.5649	0.52337	0.135
Mof_C 	C 	0.4901	0.1037	0.7475	-0.043
Mof_C 	C 	0.31377	0.1911	0.85397	0.106
Mof_C 	C 	0.1353	0.1683	0.9559	0.292
Mof_C 	C 	0.062	0.7279	0.2723	-0.047
Mof_C 	C 	0.04004	0.166	0.59124	0.056
Mof_C 	C 	0.66813	0.838	0.30453	0.129
Mof_C 	C 	0.0477	0.8531	0.0975	-0.071
Mof_C 	C 	0.93467	0.5768	0.48477	-0.041
Mof_C 	C 	0.80976	0.4304	0.06766	-0.095
Mof_C 	C 	0.6353	0.8317	0.4559	0.292
Mof_C 	C 	0.9331	0.8232	0.2283	-0.017
Mof_C 	C 	0.47026	0.262	0.74066	-0.04
Mof_C 	C 	0.33187	0.162	0.69547	0.129
Mof_C 	C 	0.30307	0.0993	0.84777	0.029
Mof_C 	C 	0.63438	0.1841	0.62648	0.068
Mof_C 	C 	0.81377	0.8089	0.35397	0.106
Mof_C 	C 	0.47197	0.2982	0.58037	0.01
Mof_C 	C 	0.5099	0.8963	0.2525	-0.043
Mof_C 	C 	0.30976	0.5696	0.56766	-0.095
Mof_C 	C 	0.0099	0.1037	0.7525	-0.036
Mof_C 	C 	0.62112	0.1995	0.79152	-0.015
Mof_C 	C 	0.04684	0.5779	0.95254	0.058
Mof_C 	C 	0.96697	0.3532	0.02207	0.072
Mof_C 	C 	0.9901	0.8963	0.2475	-0.036
Mof_C 	C 	0.18623	0.1911	0.64603	0.106
Mof_C 	C 	0.36562	0.8159	0.37352	0.068
Mof_C 	C 	0.81312	0.3685	0.43912	-0.001
Mof_C 	C 	0.3647	0.1683	0.5441	0.292
Mof_C 	C 	0.69693	0.9007	0.15223	0.029
Mof_C 	C 	0.95316	0.4221	0.04746	0.058
Mof_C 	C 	0.70364	0.2994	0.03504	-0.054
Mof_C 	C 	0.65492	0.2919	0.48492	-0.083
Mof_C 	C 	0.4153	0.8848	0.221	-0.035
Mof_C 	C 	0.0669	0.1768	0.7717	-0.017
Mof_C 	C 	0.06533	0.4232	0.51523	-0.041
Mof_C 	C 	0.95996	0.834	0.40876	0.056
Mof_C 	C 	0.3575	0.7239	0.3678	0.067
Mof_C 	C 	0.19024	0.5696	0.93234	-0.095
Mof_C 	C 	0.52974	0.738	0.25934	-0.04
Mof_C 	C 	0.52803	0.7018	0.41963	0.01
Mof_C 	C 	0.8575	0.2761	0.8678	0.067
Mof_C 	C 	0.68688	0.3685	0.06088	-0.001
Mof_C 	C 	0.0616	0.6651	0.1087	-0.111
Mof_C 	C 	0.9153	0.1152	0.721	-0.042
Mof_C 	C 	0.79636	0.2994	0.46496	-0.054
Mof_C 	C 	0.50538	0.0103	0.93128	0.354
Mof_C 	C 	0.20364	0.7006	0.53504	-0.054
Mof_C 	C 	0.46451	0.2061	0.57461	-0.064
Mof_C 	C 	0.56533	0.5768	0.01523	-0.041
Mof_C 	C 	0.1425	0.7239	0.1322	0.067
Mof_C 	C 	0.03549	0.2061	0.92539	-0.063
Mof_C 	C 	0.31312	0.6315	0.93912	-0.001
Mof_C 	C 	0.54684	0.4221	0.45254	0.058
Mof_C 	C 	0.83187	0.838	0.19547	0.13
Mof_C 	C 	0.57141	0.2336	0.02811	0.3
Mof_C 	C 	0.72005	0.2126	0.82485	0.129
Mof_C 	C 	0.438	0.7279	0.2277	-0.04
Mof_C 	C 	0.08429	0.5452	0.47279	-0.041
Mof_C 	C 	0.86562	0.1841	0.87352	0.069
Mof_C 	C 	0.81133	0.5649	0.97663	0.135
Mof_C 	C 	0.94778	0.9266	0.40288	-0.11
Mof_C 	C 	0.4384	0.6651	0.3913	-0.109
Mof_C 	C 	0.89577	0.7735	0.38387	-0.144
Mof_C 	C 	0.938	0.2721	0.7277	-0.047
Mof_C 	C 	0.05222	0.0734	0.59712	-0.11
Mof_C 	C 	0.58429	0.4548	0.97279	-0.04
Mof_C 	C 	0.37888	0.8005	0.20848	-0.015
Mof_C 	C 	0.49462	0.9897	0.06872	0.354
Mof_C 	C 	0.97026	0.738	0.24066	-0.034
Mof_C 	C 	0.84508	0.2919	0.01508	-0.083
Mof_C 	C 	0.5477	0.1469	0.5975	-0.069
Mof_C 	C 	0.87888	0.1995	0.70848	-0.011
Mof_C 	C 	0.53303	0.3532	0.47793	0.073
Mof_C 	C 	0.10423	0.2265	0.61613	-0.144
Mof_C 	C 	0.8647	0.8317	0.0441	0.292
Mof_C 	C 	0.60423	0.7735	0.11613	-0.143
Mof_C 	C 	0.07141	0.7664	0.52811	0.299
Mof_C 	C 	0.00538	0.9897	0.43128	0.349
Mof_C 	C 	0.0847	0.8848	0.279	-0.042
Mof_C 	C 	0.15031	0.4693	0.48831	-0.011
Mof_C 	C 	0.65031	0.5307	0.98831	-0.011
Mof_C 	C 	0.91571	0.4548	0.52721	-0.041
Mof_C 	C 	0.80307	0.9007	0.34777	0.029
Mof_N 	N 	0.61801	0.6364	0.50731	-0.226
Mof_N 	N 	0.72182	0.1466	0.65432	-0.217
Mof_N 	N 	0.22182	0.8534	0.15432	-0.218
Mof_N 	N 	0.77818	0.1466	0.84568	-0.218
Mof_N 	N 	0.88199	0.6364	0.99269	-0.226
Mof_N 	N 	0.73454	0.292	0.66274	-0.138
Mof_N 	N 	0.26546	0.708	0.33726	-0.138
Mof_N 	N 	0.78819	0.9166	0.18299	-0.13
Mof_N 	N 	0.595	0.5268	0.5474	-0.136
Mof_N 	N 	0.21181	0.0834	0.81701	-0.13
Mof_N 	N 	0.38199	0.3636	0.49269	-0.226
Mof_N 	N 	0.11801	0.3636	0.00731	-0.226
Mof_N 	N 	0.77203	0.7705	0.17453	-0.222
Mof_N 	N 	0.22797	0.2295	0.82547	-0.222
Mof_N 	N 	0.72797	0.7705	0.32547	-0.221
Mof_N 	N 	0.23454	0.708	0.16274	-0.138
Mof_N 	N 	0.405	0.4732	0.4526	-0.136
Mof_N 	N 	0.905	0.5268	0.9526	-0.136
Mof_N 	N 	0.27818	0.8534	0.34568	-0.217
Mof_N 	N 	0.28819	0.0834	0.68299	-0.13
Mof_N 	N 	0.27203	0.2295	0.67453	-0.221
Mof_N 	N 	0.095	0.4732	0.0474	-0.136
Mof_N 	N 	0.71181	0.9166	0.31701	-0.13
Mof_N 	N 	0.76546	0.292	0.83726	-0.138
Mof_O 	O 	0.11792	0.0879	0.96552	-0.404
Mof_O 	O 	0.5863	0.9419	0.9228	-0.397
Mof_O 	O 	0.38208	0.0879	0.53448	-0.405
Mof_O 	O 	0.97069	0.9766	0.46489	-0.506
Mof_O 	O 	0.90539	0.1708	0.49419	-0.39
Mof_O 	O 	0.93577	0.7609	0.54427	-0.355
Mof_O 	O 	0.88208	0.9121	0.03448	-0.404
Mof_O 	O 	0.09461	0.8292	0.50581	-0.39
Mof_O 	O 	0.0863	0.0581	0.4228	-0.395
Mof_O 	O 	0.24148	0.2179	0.97208	-0.388
Mof_O 	O 	0.06423	0.2391	0.45573	-0.355
Mof_O 	O 	0.59461	0.1708	0.00581	-0.39
Mof_O 	O 	0.61792	0.9121	0.46552	-0.405
Mof_O 	O 	0.25852	0.2179	0.52792	-0.388
Mof_O 	O 	0.56423	0.7609	0.95573	-0.356
Mof_O 	O 	0.02931	0.0234	0.53511	-0.506
Mof_O 	O 	0.74148	0.7821	0.47208	-0.388
Mof_O 	O 	0.40539	0.8292	0.99419	-0.39
Mof_O 	O 	0.9137	0.9419	0.5772	-0.395
Mof_O 	O 	0.75852	0.7821	0.02792	-0.388
Mof_O 	O 	0.52931	0.9766	0.03511	-0.508
Mof_O 	O 	0.43577	0.2391	0.04427	-0.356
Mof_O 	O 	0.47069	0.0234	0.96489	-0.508
Mof_O 	O 	0.4137	0.0581	0.0772	-0.397
_end
