data_functionalizedCrystal
_audit_creation_method	'EQeq! by Chris Wilmer'
_symmetry_space_group_name_H-M	'P1'
_symmetry_Int_Tables_number	1
_symmetry_cell_setting	triclinic
loop_
_symmetry_equiv_pos_as_xyz
  x,y,z
_cell_length_a	14.533
_cell_length_b	15.479
_cell_length_c	15.666
_cell_angle_alpha	74.643
_cell_angle_beta	74.576
_cell_angle_gamma	81.431
loop_
_atom_site_label
_atom_site_type_symbol
_atom_site_fract_x
_atom_site_fract_y
_atom_site_fract_z
_atom_site_charge
Mof_U 	U 	0.45585	0.3433	0.76294	0.012
Mof_U 	U 	0.52106	0.85895	0.82052	0.024
Mof_U 	U 	0.26824	0.92117	0.58451	0.004
Mof_U 	U 	0.8419	0.49701	0.80762	0.016
Mof_U 	U 	0.81348	0.52101	0.43292	0.01
Mof_C 	C 	0.3822	0.5358	0.6085	0.345
Mof_C 	C 	0.4534	0.6039	0.5918	-0.255
Mof_H 	H 	0.4995	0.6021	0.5346	0.139
Mof_H 	H 	0.4194	0.6633	0.5846	0.142
Mof_C 	C 	0.6424	0.4797	0.6355	0.354
Mof_C 	C 	0.6102	0.573	0.6373	-0.289
Mof_H 	H 	0.6366	0.6109	0.5781	0.145
Mof_H 	H 	0.6357	0.5891	0.6817	0.156
Mof_C 	C 	0.6685	0.6601	0.8673	0.349
Mof_C 	C 	0.6006	0.5912	0.935	-0.237
Mof_H 	H 	0.6125	0.536	0.9142	0.132
Mof_H 	H 	0.616	0.5777	0.994	0.139
Mof_C 	C 	0.4633	0.7265	0.0494	0.356
Mof_C 	C 	0.4434	0.638	0.0356	-0.26
Mof_H 	H 	0.4599	0.5892	0.0839	0.14
Mof_H 	H 	0.3755	0.6388	0.0398	0.147
Mof_C 	C 	0.1926	0.7706	0.7145	0.347
Mof_C 	C 	0.1735	0.6774	0.7746	-0.272
Mof_H 	H 	0.1049	0.6739	0.7978	0.147
Mof_H 	H 	0.1973	0.6333	0.7383	0.16
Mof_C 	C 	0.1666	0.6204	0.0182	0.363
Mof_C 	C 	0.1709	0.6919	0.93	-0.276
Mof_H 	H 	0.1064	0.7156	0.9251	0.14
Mof_H 	H 	0.2049	0.741	0.9306	0.157
Mof_C 	C 	0.8822	0.6146	0.5822	0.37
Mof_C 	C 	0.9211	0.7034	0.5409	-0.293
Mof_H 	H 	0.8751	0.7492	0.5636	0.159
Mof_H 	H 	0.9793	0.7034	0.56	0.158
Mof_C 	C 	0.0274	0.6279	0.3366	0.354
Mof_C 	C 	0.0297	0.6989	0.3889	-0.248
Mof_H 	H 	0.0725	0.6746	0.4293	0.154
Mof_H 	H 	0.0569	0.7513	0.3452	0.148
Mof_C 	C 	0.6342	0.8969	0.5904	0.34
Mof_C 	C 	0.6082	0.8285	0.5489	-0.248
Mof_H 	H 	0.6405	0.7703	0.5702	0.132
Mof_H 	H 	0.5397	0.8231	0.5693	0.135
Mof_C 	C 	0.5732	0.9827	0.3387	0.405
Mof_C 	C 	0.5585	0.8953	0.4019	-0.312
Mof_H 	H 	0.5492	0.8541	0.3683	0.166
Mof_H 	H 	0.4994	0.9013	0.4474	0.164
Mof_C 	C 	0.69	0.7753	0.1641	0.342
Mof_C 	C 	0.7595	0.8486	0.1365	-0.258
Mof_H 	H 	0.7833	0.8617	0.0708	0.144
Mof_H 	H 	0.7239	0.9028	0.1518	0.152
Mof_C 	C 	0.3178	0.6374	0.8346	0.196
Mof_C 	C 	0.4567	0.6052	0.7443	0.187
Mof_C 	C 	0.4502	0.6196	0.8814	0.185
Mof_C 	C 	0.8699	0.7703	0.3996	0.194
Mof_C 	C 	0.7201	0.8289	0.4026	0.197
Mof_C 	C 	0.8219	0.8206	0.2675	0.189
Mof_C 	C 	0.9294	0.8023	0.1301	-0.317
Mof_H 	H 	0.9293	0.7884	0.0733	0.147
Mof_H 	H 	0.9602	0.752	0.1674	0.159
Mof_C 	C 	0.973	0.89	0.115	0.395
Mof_N 	N 	0.5047	0.6005	0.8054	-0.156
Mof_N 	N 	0.3553	0.6353	0.9022	-0.156
Mof_N 	N 	0.3612	0.6238	0.7527	-0.148
Mof_N 	N 	0.5041	0.5926	0.6598	-0.049
Mof_N 	N 	0.219	0.6553	0.8513	-0.045
Mof_N 	N 	0.4981	0.6213	0.9464	-0.055
Mof_N 	N 	0.787	0.7914	0.4482	-0.157
Mof_N 	N 	0.7326	0.8443	0.3114	-0.144
Mof_N 	N 	0.8954	0.7885	0.3052	-0.148
Mof_N 	N 	0.6346	0.8531	0.4501	-0.052
Mof_N 	N 	0.9424	0.7266	0.4402	-0.045
Mof_N 	N 	0.8385	0.829	0.1762	-0.045
Mof_O 	O 	0.3089	0.5599	0.5786	-0.205
Mof_O 	O 	0.4011	0.4559	0.6511	-0.19
Mof_O 	O 	0.5962	0.416	0.6978	-0.177
Mof_O 	O 	0.7185	0.4603	0.5824	-0.191
Mof_O 	O 	0.7556	0.6299	0.8465	-0.189
Mof_O 	O 	0.6384	0.737	0.8386	-0.189
Mof_O 	O 	0.4864	0.7893	0.9843	-0.185
Mof_O 	O 	0.4476	0.7287	0.1329	-0.178
Mof_O 	O 	0.2378	0.8218	0.7376	-0.193
Mof_O 	O 	0.168	0.7927	0.6407	-0.209
Mof_O 	O 	0.1856	0.5409	0.0255	-0.219
Mof_O 	O 	0.138	0.65	0.0912	-0.218
Mof_O 	O 	0.8569	0.5961	0.6659	-0.21
Mof_O 	O 	0.8793	0.5595	0.5363	-0.189
Mof_O 	O 	0.9555	0.5895	0.3484	-0.194
Mof_O 	O 	0.1057	0.6117	0.2808	-0.184
Mof_O 	O 	0.6297	0.8731	0.6747	-0.183
Mof_O 	O 	0.662	0.972	0.543	-0.193
Mof_O 	O 	0.6253	0.0312	0.3504	-0.215
Mof_O 	O 	0.5273	0.0063	0.28	-0.216
Mof_O 	O 	0.7081	0.7017	0.2142	-0.195
Mof_O 	O 	0.6134	0.7942	0.1353	-0.184
Mof_O 	O 	0.0161	0.9533	0.1141	-0.18
Mof_O 	O 	0.053	0.86	0.071	-0.419
Mof_H 	H 	0.0524	0.8062	0.0762	0.274
Mof_U 	U 	0.54415	0.6567	0.23706	0.012
Mof_U 	U 	0.47894	0.14105	0.17948	0.024
Mof_U 	U 	0.73176	0.07883	0.41549	0.004
Mof_U 	U 	0.1581	0.50299	0.19238	0.016
Mof_U 	U 	0.18652	0.47899	0.56708	0.01
Mof_C 	C 	0.6178	0.4642	0.3915	0.345
Mof_C 	C 	0.5466	0.3961	0.4082	-0.255
Mof_H 	H 	0.5005	0.3979	0.4654	0.139
Mof_H 	H 	0.5806	0.3367	0.4154	0.142
Mof_C 	C 	0.3576	0.5203	0.3645	0.354
Mof_C 	C 	0.3898	0.427	0.3627	-0.289
Mof_H 	H 	0.3634	0.3891	0.4219	0.145
Mof_H 	H 	0.3643	0.4109	0.3183	0.156
Mof_C 	C 	0.3315	0.3399	0.1327	0.349
Mof_C 	C 	0.3994	0.4088	0.065	-0.237
Mof_H 	H 	0.3875	0.464	0.0858	0.132
Mof_H 	H 	0.384	0.4223	0.006	0.139
Mof_C 	C 	0.5367	0.2735	0.9506	0.356
Mof_C 	C 	0.5566	0.362	0.9644	-0.26
Mof_H 	H 	0.5401	0.4108	0.9161	0.14
Mof_H 	H 	0.6245	0.3612	0.9602	0.147
Mof_C 	C 	0.8074	0.2294	0.2855	0.347
Mof_C 	C 	0.8265	0.3226	0.2254	-0.272
Mof_H 	H 	0.8951	0.3261	0.2022	0.147
Mof_H 	H 	0.8027	0.3667	0.2617	0.16
Mof_C 	C 	0.8334	0.3796	0.9818	0.363
Mof_C 	C 	0.8291	0.3081	0.07	-0.276
Mof_H 	H 	0.8936	0.2844	0.0749	0.14
Mof_H 	H 	0.7951	0.259	0.0694	0.157
Mof_C 	C 	0.1178	0.3854	0.4178	0.37
Mof_C 	C 	0.0789	0.2966	0.4591	-0.293
Mof_H 	H 	0.1249	0.2508	0.4364	0.159
Mof_H 	H 	0.0207	0.2966	0.44	0.158
Mof_C 	C 	0.9726	0.3721	0.6634	0.354
Mof_C 	C 	0.9703	0.3011	0.6111	-0.248
Mof_H 	H 	0.9275	0.3254	0.5707	0.154
Mof_H 	H 	0.9431	0.2487	0.6548	0.148
Mof_C 	C 	0.3658	0.1031	0.4096	0.34
Mof_C 	C 	0.3918	0.1715	0.4511	-0.248
Mof_H 	H 	0.3595	0.2297	0.4298	0.132
Mof_H 	H 	0.4603	0.1769	0.4307	0.135
Mof_C 	C 	0.4268	0.0173	0.6613	0.405
Mof_C 	C 	0.4415	0.1047	0.5981	-0.312
Mof_H 	H 	0.4508	0.1459	0.6317	0.166
Mof_H 	H 	0.5006	0.0987	0.5526	0.164
Mof_C 	C 	0.31	0.2247	0.8359	0.342
Mof_C 	C 	0.2405	0.1514	0.8635	-0.258
Mof_H 	H 	0.2167	0.1383	0.9292	0.144
Mof_H 	H 	0.2761	0.0972	0.8482	0.152
Mof_C 	C 	0.6822	0.3626	0.1654	0.196
Mof_C 	C 	0.5433	0.3948	0.2557	0.187
Mof_C 	C 	0.5498	0.3804	0.1186	0.185
Mof_C 	C 	0.1301	0.2297	0.6004	0.194
Mof_C 	C 	0.2799	0.1711	0.5974	0.197
Mof_C 	C 	0.1781	0.1794	0.7325	0.189
Mof_C 	C 	0.0706	0.1977	0.8699	-0.317
Mof_H 	H 	0.0707	0.2116	0.9267	0.147
Mof_H 	H 	0.0398	0.248	0.8326	0.159
Mof_C 	C 	0.027	0.11	0.885	0.395
Mof_N 	N 	0.4953	0.3995	0.1946	-0.156
Mof_N 	N 	0.6447	0.3647	0.0978	-0.156
Mof_N 	N 	0.6388	0.3762	0.2473	-0.148
Mof_N 	N 	0.4959	0.4074	0.3402	-0.049
Mof_N 	N 	0.781	0.3447	0.1487	-0.045
Mof_N 	N 	0.5019	0.3787	0.0536	-0.055
Mof_N 	N 	0.213	0.2086	0.5518	-0.157
Mof_N 	N 	0.2674	0.1557	0.6886	-0.144
Mof_N 	N 	0.1046	0.2115	0.6948	-0.148
Mof_N 	N 	0.3654	0.1469	0.5499	-0.052
Mof_N 	N 	0.0576	0.2734	0.5598	-0.045
Mof_N 	N 	0.1615	0.171	0.8238	-0.045
Mof_O 	O 	0.6911	0.4401	0.4214	-0.205
Mof_O 	O 	0.5989	0.5441	0.3489	-0.19
Mof_O 	O 	0.4038	0.584	0.3022	-0.177
Mof_O 	O 	0.2815	0.5397	0.4176	-0.191
Mof_O 	O 	0.2444	0.3701	0.1535	-0.189
Mof_O 	O 	0.3616	0.263	0.1614	-0.189
Mof_O 	O 	0.5136	0.2107	0.0157	-0.185
Mof_O 	O 	0.5524	0.2713	0.8671	-0.178
Mof_O 	O 	0.7622	0.1782	0.2624	-0.193
Mof_O 	O 	0.832	0.2073	0.3593	-0.209
Mof_O 	O 	0.8144	0.4591	0.9745	-0.219
Mof_O 	O 	0.862	0.35	0.9088	-0.218
Mof_O 	O 	0.1431	0.4039	0.3341	-0.21
Mof_O 	O 	0.1207	0.4405	0.4637	-0.189
Mof_O 	O 	0.0445	0.4105	0.6516	-0.194
Mof_O 	O 	0.8943	0.3883	0.7192	-0.184
Mof_O 	O 	0.3703	0.1269	0.3253	-0.183
Mof_O 	O 	0.338	0.028	0.457	-0.193
Mof_O 	O 	0.3747	0.9688	0.6496	-0.215
Mof_O 	O 	0.4727	0.9937	0.72	-0.216
Mof_O 	O 	0.2919	0.2983	0.7858	-0.195
Mof_O 	O 	0.3866	0.2058	0.8647	-0.184
Mof_O 	O 	0.9839	0.0467	0.8859	-0.18
Mof_O 	O 	0.947	0.14	0.929	-0.419
Mof_H 	H 	0.9476	0.1938	0.9238	0.274
_end
