# CIF file generated by openbabel 3.1.0, see https://openbabel.org
data_I
_chemical_name_common 'image0'
_cell_length_a 8.5831
_cell_length_b 17.677
_cell_length_c 10.4353
_cell_angle_alpha 90
_cell_angle_beta 123.887
_cell_angle_gamma 90
_space_group_name_H-M_alt 'P 1'
_space_group_name_Hall 'P 1'
loop_
    _symmetry_equiv_pos_as_xyz
    x,y,z
loop_
    _atom_site_label
    _atom_site_type_symbol
    _atom_site_fract_x
    _atom_site_fract_y
    _atom_site_fract_z
    _atom_site_occupancy
    P1       P        0.66527    0.70675    0.47353    1.000
    P2       P        0.22987    0.83052    0.49618    1.000
    P3       P        0.00952    0.57257    0.35790    1.000
    Al1      Al       0.21090    0.70392    0.28720    1.000
    Al2      Al       0.02270    0.60927    0.66156    1.000
    Al3      Al       0.66660    0.67668    0.19142    1.000
    O1       O        0.13330    0.79404    0.17960    1.000
    H1       H        0.14780    0.78530    0.10320    1.000
    O2       O        0.19300    0.74898    0.43880    1.000
    O3       O        0.08380    0.58705    0.52600    1.000
    O4       O        0.43650    0.85060    0.57010    1.000
    O5       O        0.46150    0.69074    0.40700    1.000
    O6       O        0.78020    0.63652    0.55580    1.000
    O7       O        0.03080    0.49072    0.32880    1.000
    O8       O        0.80190    0.59525    0.25810    1.000
    O9       O        0.17990    0.84138    0.61310    1.000
    O10      O        0.69260    0.72865    0.34490    1.000
    O11      O        0.11920    0.61793    0.31020    1.000
    O12      O        0.11420    0.88606    0.36460    1.000
    O13      O        0.73560    0.77215    0.58900    1.000
    P4       P        0.33473    0.20675    0.02647    1.000
    P5       P        0.77013    0.33052    0.00382    1.000
    P6       P        0.99048    0.07257    0.14210    1.000
    Al4      Al       0.78910    0.20392    0.21280    1.000
    Al5      Al       0.97730    0.10927    0.83844    1.000
    Al6      Al       0.33340    0.17668    0.30858    1.000
    O14      O        0.86670    0.29404    0.32040    1.000
    H2       H        0.85220    0.28530    0.39680    1.000
    O15      O        0.80700    0.24898    0.06120    1.000
    O16      O        0.91620    0.08705    0.97400    1.000
    O17      O        0.56350    0.35060    0.92990    1.000
    O18      O        0.53850    0.19074    0.09300    1.000
    O19      O        0.21980    0.13652    0.94420    1.000
    O20      O        0.96920    0.99072    0.17120    1.000
    O21      O        0.19810    0.09525    0.24190    1.000
    O22      O        0.82010    0.34138    0.88690    1.000
    O23      O        0.30740    0.22865    0.15510    1.000
    O24      O        0.88080    0.11793    0.18980    1.000
    O25      O        0.88580    0.38606    0.13540    1.000
    O26      O        0.26440    0.27215    0.91100    1.000
    P7       P        0.33473    0.29325    0.52647    1.000
    P8       P        0.77013    0.16948    0.50382    1.000
    P9       P        0.99048    0.42743    0.64210    1.000
    Al7      Al       0.78910    0.29608    0.71280    1.000
    Al8      Al       0.97730    0.39073    0.33844    1.000
    Al9      Al       0.33340    0.32332    0.80858    1.000
    O27      O        0.86670    0.20596    0.82040    1.000
    H3       H        0.85220    0.21470    0.89680    1.000
    O28      O        0.80700    0.25102    0.56120    1.000
    O29      O        0.91620    0.41295    0.47400    1.000
    O30      O        0.56350    0.14940    0.42990    1.000
    O31      O        0.53850    0.30926    0.59300    1.000
    O32      O        0.21980    0.36348    0.44420    1.000
    O33      O        0.96920    0.50928    0.67120    1.000
    O34      O        0.19810    0.40475    0.74190    1.000
    O35      O        0.82010    0.15862    0.38690    1.000
    O36      O        0.30740    0.27135    0.65510    1.000
    O37      O        0.88080    0.38207    0.68980    1.000
    O38      O        0.88580    0.11394    0.63540    1.000
    O39      O        0.26440    0.22785    0.41100    1.000
    P10      P        0.66527    0.79325    0.97353    1.000
    P11      P        0.22987    0.66948    0.99618    1.000
    P12      P        0.00952    0.92743    0.85790    1.000
    Al10     Al       0.21090    0.79608    0.78720    1.000
    Al11     Al       0.02270    0.89073    0.16156    1.000
    Al12     Al       0.66660    0.82332    0.69142    1.000
    O40      O        0.13330    0.70596    0.67960    1.000
    H4       H        0.14780    0.71470    0.60320    1.000
    O41      O        0.19300    0.75102    0.93880    1.000
    O42      O        0.08380    0.91295    0.02600    1.000
    O43      O        0.43650    0.64940    0.07010    1.000
    O44      O        0.46150    0.80926    0.90700    1.000
    O45      O        0.78020    0.86348    0.05580    1.000
    O46      O        0.03080    0.00928    0.82880    1.000
    O47      O        0.80190    0.90475    0.75810    1.000
    O48      O        0.17990    0.65862    0.11310    1.000
    O49      O        0.69260    0.77135    0.84490    1.000
    O50      O        0.11920    0.88207    0.81020    1.000
    O51      O        0.11420    0.61394    0.86460    1.000
    O52      O        0.73560    0.72785    0.08900    1.000
