data_functionalizedCrystal
_audit_creation_method	'EQeq! by Chris Wilmer'
_symmetry_space_group_name_H-M	'P1'
_symmetry_Int_Tables_number	1
_symmetry_cell_setting	triclinic
loop_
_symmetry_equiv_pos_as_xyz
  x,y,z
_cell_length_a	24.1843
_cell_length_b	24.1843
_cell_length_c	13.0217
_cell_angle_alpha	90
_cell_angle_beta	90
_cell_angle_gamma	120
loop_
_atom_site_label
_atom_site_type_symbol
_atom_site_fract_x
_atom_site_fract_y
_atom_site_fract_z
_atom_site_charge
Mof_O 	O 	0.90292	0.2984	0.2253	-0.449
Mof_O 	O 	0.95103	0.26428	0.33	-0.542
Mof_O 	O 	0.6777	0.7682	0.2502	-0.558
Mof_C 	C 	0.7252	0.0819	0.3211	0.233
Mof_C 	C 	0.7809	0.0873	0.3576	-0.292
Mof_H 	H 	0.7808	0.0528	0.3894	0.125
Mof_C 	C 	0.8373	0.1446	0.3464	0.208
Mof_H 	H 	0.8748	0.1483	0.3724	-0.054
Mof_C 	C 	0.8396	0.195	0.2994	-0.258
Mof_C 	C 	0.7848	0.1883	0.262	0.189
Mof_H 	H 	0.7859	0.2228	0.2284	-0.024
Mof_C 	C 	0.7263	0.1318	0.2713	-0.286
Mof_H 	H 	0.6892	0.1284	0.2443	0.128
Mof_C 	C 	0.9009	0.2575	0.2853	0.431
Mof_C 	C 	0.6996	0.952	0.2554	-0.228
Mof_H 	H 	0.7218	0.9823	0.2048	0.124
Mof_C 	C 	0.6985	0.8935	0.2551	0.136
Mof_H 	H 	0.7188	0.884	0.203	-0.01
Mof_O 	O 	0.56959	0.63173	0.55863	-0.469
Mof_O 	O 	0.6177	0.59761	0.66333	-0.577
Mof_O 	O 	0.34437	0.10153	0.58353	-0.55
Mof_C 	C 	0.39187	0.41523	0.65443	0.242
Mof_C 	C 	0.44757	0.42063	0.69093	-0.302
Mof_H 	H 	0.44747	0.38613	0.72273	0.135
Mof_C 	C 	0.50397	0.47793	0.67973	0.221
Mof_H 	H 	0.54147	0.48163	0.70573	-0.062
Mof_C 	C 	0.50627	0.52833	0.63273	-0.27
Mof_C 	C 	0.45147	0.52163	0.59533	0.2
Mof_H 	H 	0.45257	0.55613	0.56173	-0.028
Mof_C 	C 	0.39297	0.46513	0.60463	-0.295
Mof_H 	H 	0.35587	0.46173	0.57763	0.131
Mof_C 	C 	0.56757	0.59083	0.61863	0.442
Mof_C 	C 	0.36627	0.28533	0.58873	-0.212
Mof_H 	H 	0.38847	0.31563	0.53813	0.106
Mof_C 	C 	0.36517	0.22683	0.58843	0.118
Mof_H 	H 	0.38547	0.21733	0.53633	-0.007
Mof_O 	O 	0.23625	0.96507	0.89197	-0.441
Mof_O 	O 	0.28436	0.93095	0.99667	-0.56
Mof_O 	O 	0.01103	0.43487	0.91687	-0.559
Mof_C 	C 	0.05853	0.74857	0.98777	0.261
Mof_C 	C 	0.11423	0.75397	0.02427	-0.317
Mof_H 	H 	0.11413	0.71947	0.05607	0.137
Mof_C 	C 	0.17063	0.81127	0.01307	0.203
Mof_H 	H 	0.20813	0.81497	0.03907	-0.06
Mof_C 	C 	0.17293	0.86167	0.96607	-0.251
Mof_C 	C 	0.11813	0.85497	0.92867	0.195
Mof_H 	H 	0.11923	0.88947	0.89507	-0.023
Mof_C 	C 	0.05963	0.79847	0.93797	-0.301
Mof_H 	H 	0.02253	0.79507	0.91097	0.125
Mof_C 	C 	0.23423	0.92417	0.95197	0.436
Mof_C 	C 	0.03293	0.61867	0.92207	-0.192
Mof_H 	H 	0.05513	0.64897	0.87147	0.099
Mof_C 	C 	0.03183	0.56017	0.92177	0.127
Mof_H 	H 	0.05213	0.55067	0.86967	-0.012
Mof_O 	O 	0.7016	0.60452	0.2253	-0.468
Mof_O 	O 	0.73572	0.68675	0.33	-0.575
Mof_O 	O 	0.2318	0.9095	0.2502	-0.558
Mof_C 	C 	0.9181	0.6433	0.3211	0.249
Mof_C 	C 	0.9127	0.6936	0.3576	-0.303
Mof_H 	H 	0.9472	0.728	0.3894	0.146
Mof_C 	C 	0.8554	0.6927	0.3464	0.224
Mof_H 	H 	0.8517	0.7265	0.3724	-0.059
Mof_C 	C 	0.805	0.6446	0.2994	-0.272
Mof_C 	C 	0.8117	0.5965	0.262	0.202
Mof_H 	H 	0.7772	0.5631	0.2284	-0.029
Mof_C 	C 	0.8682	0.5945	0.2713	-0.298
Mof_H 	H 	0.8716	0.5608	0.2443	0.133
Mof_C 	C 	0.7425	0.6434	0.2853	0.442
Mof_C 	C 	0.048	0.7476	0.2554	-0.193
Mof_H 	H 	0.0177	0.7395	0.2048	0.086
Mof_C 	C 	0.1065	0.805	0.2551	0.102
Mof_H 	H 	0.116	0.8348	0.203	-0.004
Mof_O 	O 	0.36827	0.93785	0.55863	-0.458
Mof_O 	O 	0.40239	0.02008	0.66333	-0.594
Mof_O 	O 	0.89847	0.24283	0.58353	-0.541
Mof_C 	C 	0.58477	0.97663	0.65443	0.283
Mof_C 	C 	0.57937	0.02693	0.69093	-0.339
Mof_H 	H 	0.61387	0.06133	0.72273	0.142
Mof_C 	C 	0.52207	0.02603	0.67973	0.181
Mof_H 	H 	0.51837	0.05983	0.70573	-0.053
Mof_C 	C 	0.47167	0.97793	0.63273	-0.232
Mof_C 	C 	0.47837	0.92983	0.59533	0.197
Mof_H 	H 	0.44387	0.89643	0.56173	-0.026
Mof_C 	C 	0.53487	0.92783	0.60463	-0.303
Mof_H 	H 	0.53827	0.89413	0.57763	0.134
Mof_C 	C 	0.40917	0.97673	0.61863	0.47
Mof_C 	C 	0.71467	0.08093	0.58873	-0.193
Mof_H 	H 	0.68437	0.07283	0.53813	0.095
Mof_C 	C 	0.77317	0.13833	0.58843	0.104
Mof_H 	H 	0.78267	0.16813	0.53633	-0.002
Mof_O 	O 	0.03493	0.27119	0.89197	-0.488
Mof_O 	O 	0.06905	0.35342	0.99667	-0.574
Mof_O 	O 	0.56513	0.57617	0.91687	-0.555
Mof_C 	C 	0.25143	0.30997	0.98777	0.254
Mof_C 	C 	0.24603	0.36027	0.02427	-0.31
Mof_H 	H 	0.28053	0.39467	0.05607	0.136
Mof_C 	C 	0.18873	0.35937	0.01307	0.211
Mof_H 	H 	0.18503	0.39317	0.03907	-0.06
Mof_C 	C 	0.13833	0.31127	0.96607	-0.263
Mof_C 	C 	0.14503	0.26317	0.92867	0.199
Mof_H 	H 	0.11053	0.22977	0.89507	-0.033
Mof_C 	C 	0.20153	0.26117	0.93797	-0.3
Mof_H 	H 	0.20493	0.22747	0.91097	0.131
Mof_C 	C 	0.07583	0.31007	0.95197	0.438
Mof_C 	C 	0.38133	0.41427	0.92207	-0.206
Mof_H 	H 	0.35103	0.40617	0.87147	0.105
Mof_C 	C 	0.43983	0.47167	0.92177	0.125
Mof_H 	H 	0.44933	0.50147	0.86967	-0.008
Mof_O 	O 	0.39548	0.09708	0.2253	-0.479
Mof_O 	O 	0.31325	0.04897	0.33	-0.583
Mof_O 	O 	0.0905	0.3223	0.2502	-0.553
Mof_C 	C 	0.3567	0.2748	0.3211	0.243
Mof_C 	C 	0.3064	0.2191	0.3576	-0.303
Mof_H 	H 	0.272	0.2192	0.3894	0.133
Mof_C 	C 	0.3073	0.1627	0.3464	0.221
Mof_H 	H 	0.2735	0.1252	0.3724	-0.065
Mof_C 	C 	0.3554	0.1604	0.2994	-0.271
Mof_C 	C 	0.4035	0.2152	0.262	0.2
Mof_H 	H 	0.4369	0.2141	0.2284	-0.028
Mof_C 	C 	0.4055	0.2737	0.2713	-0.296
Mof_H 	H 	0.4392	0.3108	0.2443	0.131
Mof_C 	C 	0.3566	0.0991	0.2853	0.442
Mof_C 	C 	0.2524	0.3004	0.2554	-0.213
Mof_H 	H 	0.2605	0.2782	0.2048	0.106
Mof_C 	C 	0.195	0.3015	0.2551	0.118
Mof_H 	H 	0.1652	0.2812	0.203	-0.011
Mof_O 	O 	0.06215	0.43041	0.55863	-0.459
Mof_O 	O 	0.97992	0.3823	0.66333	-0.547
Mof_O 	O 	0.75717	0.65563	0.58353	-0.56
Mof_C 	C 	0.02337	0.60813	0.65443	0.205
Mof_C 	C 	0.97307	0.55243	0.69093	-0.268
Mof_H 	H 	0.93867	0.55253	0.72273	0.128
Mof_C 	C 	0.97397	0.49603	0.67973	0.255
Mof_H 	H 	0.94017	0.45853	0.70573	-0.068
Mof_C 	C 	0.02207	0.49373	0.63273	-0.302
Mof_C 	C 	0.07017	0.54853	0.59533	0.201
Mof_H 	H 	0.10357	0.54743	0.56173	-0.029
Mof_C 	C 	0.07217	0.60703	0.60463	-0.287
Mof_H 	H 	0.10587	0.64413	0.57763	0.128
Mof_C 	C 	0.02327	0.43243	0.61863	0.412
Mof_C 	C 	0.91907	0.63373	0.58873	-0.227
Mof_H 	H 	0.92717	0.61153	0.53813	0.117
Mof_C 	C 	0.86167	0.63483	0.58843	0.133
Mof_H 	H 	0.83187	0.61453	0.53633	-0.012
Mof_O 	O 	0.72881	0.76375	0.89197	-0.466
Mof_O 	O 	0.64658	0.71564	0.99667	-0.573
Mof_O 	O 	0.42383	0.98897	0.91687	-0.503
Mof_C 	C 	0.69003	0.94147	0.98777	0.298
Mof_C 	C 	0.63973	0.88577	0.02427	-0.341
Mof_H 	H 	0.60533	0.88587	0.05607	0.15
Mof_C 	C 	0.64063	0.82937	0.01307	0.236
Mof_H 	H 	0.60683	0.79187	0.03907	-0.069
Mof_C 	C 	0.68873	0.82707	0.96607	-0.278
Mof_C 	C 	0.73683	0.88187	0.92867	0.224
Mof_H 	H 	0.77023	0.88077	0.89507	-0.03
Mof_C 	C 	0.73883	0.94037	0.93797	-0.324
Mof_H 	H 	0.77253	0.97747	0.91097	0.158
Mof_C 	C 	0.68993	0.76577	0.95197	0.446
Mof_C 	C 	0.58573	0.96707	0.92207	-0.172
Mof_H 	H 	0.59383	0.94487	0.87147	0.099
Mof_C 	C 	0.52833	0.96817	0.92177	0.154
Mof_H 	H 	0.49853	0.94787	0.86967	-0.011
Mof_O 	O 	0.2984	0.90292	0.7747	-0.45
Mof_O 	O 	0.26428	0.95103	0.67	-0.543
Mof_O 	O 	0.7682	0.6777	0.7498	-0.559
Mof_C 	C 	0.0819	0.7252	0.6789	0.232
Mof_C 	C 	0.0873	0.7809	0.6424	-0.293
Mof_H 	H 	0.0528	0.7808	0.6106	0.125
Mof_C 	C 	0.1446	0.8373	0.6536	0.208
Mof_H 	H 	0.1483	0.8748	0.6276	-0.054
Mof_C 	C 	0.195	0.8396	0.7006	-0.258
Mof_C 	C 	0.1883	0.7848	0.738	0.189
Mof_H 	H 	0.2228	0.7859	0.7716	-0.023
Mof_C 	C 	0.1318	0.7263	0.7287	-0.285
Mof_H 	H 	0.1284	0.6892	0.7557	0.129
Mof_C 	C 	0.2575	0.9009	0.7147	0.431
Mof_C 	C 	0.952	0.6996	0.7446	-0.227
Mof_H 	H 	0.9823	0.7218	0.7952	0.125
Mof_C 	C 	0.8935	0.6985	0.7449	0.135
Mof_H 	H 	0.884	0.7188	0.797	-0.009
Mof_O 	O 	0.96507	0.23625	0.10803	-0.443
Mof_O 	O 	0.93095	0.28436	0.00333	-0.567
Mof_O 	O 	0.43487	0.01103	0.08313	-0.568
Mof_C 	C 	0.74857	0.05853	0.01223	0.235
Mof_C 	C 	0.75397	0.11423	0.97573	-0.298
Mof_H 	H 	0.71947	0.11413	0.94393	0.132
Mof_C 	C 	0.81127	0.17063	0.98693	0.211
Mof_H 	H 	0.81497	0.20813	0.96093	-0.06
Mof_C 	C 	0.86167	0.17293	0.03393	-0.262
Mof_C 	C 	0.85497	0.11813	0.07133	0.192
Mof_H 	H 	0.88947	0.11923	0.10493	-0.024
Mof_C 	C 	0.79847	0.05963	0.06203	-0.292
Mof_H 	H 	0.79507	0.02253	0.08903	0.12
Mof_C 	C 	0.92417	0.23423	0.04803	0.438
Mof_C 	C 	0.61867	0.03293	0.07793	-0.207
Mof_H 	H 	0.64897	0.05513	0.12853	0.102
Mof_C 	C 	0.56017	0.03183	0.07823	0.118
Mof_H 	H 	0.55067	0.05213	0.13033	-0.011
Mof_O 	O 	0.63173	0.56959	0.44137	-0.469
Mof_O 	O 	0.59761	0.6177	0.33667	-0.576
Mof_O 	O 	0.10153	0.34437	0.41647	-0.55
Mof_C 	C 	0.41523	0.39187	0.34557	0.242
Mof_C 	C 	0.42063	0.44757	0.30907	-0.302
Mof_H 	H 	0.38613	0.44747	0.27727	0.135
Mof_C 	C 	0.47793	0.50397	0.32027	0.221
Mof_H 	H 	0.48163	0.54147	0.29427	-0.062
Mof_C 	C 	0.52833	0.50627	0.36727	-0.27
Mof_C 	C 	0.52163	0.45147	0.40467	0.2
Mof_H 	H 	0.55613	0.45257	0.43827	-0.028
Mof_C 	C 	0.46513	0.39297	0.39537	-0.295
Mof_H 	H 	0.46173	0.35587	0.42237	0.131
Mof_C 	C 	0.59083	0.56757	0.38137	0.441
Mof_C 	C 	0.28533	0.36627	0.41127	-0.212
Mof_H 	H 	0.31563	0.38847	0.46187	0.106
Mof_C 	C 	0.22683	0.36517	0.41157	0.118
Mof_H 	H 	0.21733	0.38547	0.46367	-0.007
Mof_O 	O 	0.60452	0.7016	0.7747	-0.468
Mof_O 	O 	0.68675	0.73572	0.67	-0.575
Mof_O 	O 	0.9095	0.2318	0.7498	-0.558
Mof_C 	C 	0.6433	0.9181	0.6789	0.249
Mof_C 	C 	0.6936	0.9127	0.6424	-0.303
Mof_H 	H 	0.728	0.9472	0.6106	0.146
Mof_C 	C 	0.6927	0.8554	0.6536	0.224
Mof_H 	H 	0.7265	0.8517	0.6276	-0.059
Mof_C 	C 	0.6446	0.805	0.7006	-0.271
Mof_C 	C 	0.5965	0.8117	0.738	0.202
Mof_H 	H 	0.5631	0.7772	0.7716	-0.028
Mof_C 	C 	0.5945	0.8682	0.7287	-0.297
Mof_H 	H 	0.5608	0.8716	0.7557	0.133
Mof_C 	C 	0.6434	0.7425	0.7147	0.442
Mof_C 	C 	0.7476	0.048	0.7446	-0.192
Mof_H 	H 	0.7395	0.0177	0.7952	0.086
Mof_C 	C 	0.805	0.1065	0.7449	0.102
Mof_H 	H 	0.8348	0.116	0.797	-0.003
Mof_O 	O 	0.27119	0.03493	0.10803	-0.491
Mof_O 	O 	0.35342	0.06905	0.00333	-0.581
Mof_O 	O 	0.57617	0.56513	0.08313	-0.558
Mof_C 	C 	0.30997	0.25143	0.01223	0.237
Mof_C 	C 	0.36027	0.24603	0.97573	-0.297
Mof_H 	H 	0.39467	0.28053	0.94393	0.135
Mof_C 	C 	0.35937	0.18873	0.98693	0.225
Mof_H 	H 	0.39317	0.18503	0.96093	-0.061
Mof_C 	C 	0.31127	0.13833	0.03393	-0.277
Mof_C 	C 	0.26317	0.14503	0.07133	0.201
Mof_H 	H 	0.22977	0.11053	0.10493	-0.035
Mof_C 	C 	0.26117	0.20153	0.06203	-0.297
Mof_H 	H 	0.22747	0.20493	0.08903	0.127
Mof_C 	C 	0.31007	0.07583	0.04803	0.441
Mof_C 	C 	0.41427	0.38133	0.07793	-0.211
Mof_H 	H 	0.40617	0.35103	0.12853	0.106
Mof_C 	C 	0.47167	0.43983	0.07823	0.12
Mof_H 	H 	0.50147	0.44933	0.13033	-0.008
Mof_O 	O 	0.93785	0.36827	0.44137	-0.458
Mof_O 	O 	0.02008	0.40239	0.33667	-0.593
Mof_O 	O 	0.24283	0.89847	0.41647	-0.541
Mof_C 	C 	0.97663	0.58477	0.34557	0.283
Mof_C 	C 	0.02693	0.57937	0.30907	-0.339
Mof_H 	H 	0.06133	0.61387	0.27727	0.142
Mof_C 	C 	0.02603	0.52207	0.32027	0.181
Mof_H 	H 	0.05983	0.51837	0.29427	-0.053
Mof_C 	C 	0.97793	0.47167	0.36727	-0.232
Mof_C 	C 	0.92983	0.47837	0.40467	0.196
Mof_H 	H 	0.89643	0.44387	0.43827	-0.026
Mof_C 	C 	0.92783	0.53487	0.39537	-0.303
Mof_H 	H 	0.89413	0.53827	0.42237	0.134
Mof_C 	C 	0.97673	0.40917	0.38137	0.47
Mof_C 	C 	0.08093	0.71467	0.41127	-0.194
Mof_H 	H 	0.07283	0.68437	0.46187	0.095
Mof_C 	C 	0.13833	0.77317	0.41157	0.104
Mof_H 	H 	0.16813	0.78267	0.46367	-0.002
Mof_O 	O 	0.09708	0.39548	0.7747	-0.479
Mof_O 	O 	0.04897	0.31325	0.67	-0.583
Mof_O 	O 	0.3223	0.0905	0.7498	-0.553
Mof_C 	C 	0.2748	0.3567	0.6789	0.242
Mof_C 	C 	0.2191	0.3064	0.6424	-0.303
Mof_H 	H 	0.2192	0.272	0.6106	0.133
Mof_C 	C 	0.1627	0.3073	0.6536	0.221
Mof_H 	H 	0.1252	0.2735	0.6276	-0.065
Mof_C 	C 	0.1604	0.3554	0.7006	-0.271
Mof_C 	C 	0.2152	0.4035	0.738	0.2
Mof_H 	H 	0.2141	0.4369	0.7716	-0.027
Mof_C 	C 	0.2737	0.4055	0.7287	-0.295
Mof_H 	H 	0.3108	0.4392	0.7557	0.132
Mof_C 	C 	0.0991	0.3566	0.7147	0.442
Mof_C 	C 	0.3004	0.2524	0.7446	-0.212
Mof_H 	H 	0.2782	0.2605	0.7952	0.106
Mof_C 	C 	0.3015	0.195	0.7449	0.118
Mof_H 	H 	0.2812	0.1652	0.797	-0.01
Mof_O 	O 	0.76375	0.72881	0.10803	-0.469
Mof_O 	O 	0.71564	0.64658	0.00333	-0.581
Mof_O 	O 	0.98897	0.42383	0.08313	-0.502
Mof_C 	C 	0.94147	0.69003	0.01223	0.29
Mof_C 	C 	0.88577	0.63973	0.97573	-0.334
Mof_H 	H 	0.88587	0.60533	0.94393	0.151
Mof_C 	C 	0.82937	0.64063	0.98693	0.254
Mof_H 	H 	0.79187	0.60683	0.96093	-0.072
Mof_C 	C 	0.82707	0.68873	0.03393	-0.296
Mof_C 	C 	0.88187	0.73683	0.07133	0.23
Mof_H 	H 	0.88077	0.77023	0.10493	-0.033
Mof_C 	C 	0.94037	0.73883	0.06203	-0.328
Mof_H 	H 	0.97747	0.77253	0.08903	0.157
Mof_C 	C 	0.76577	0.68993	0.04803	0.45
Mof_C 	C 	0.96707	0.58573	0.07793	-0.167
Mof_H 	H 	0.94487	0.59383	0.12853	0.097
Mof_C 	C 	0.96817	0.52833	0.07823	0.153
Mof_H 	H 	0.94787	0.49853	0.13033	-0.011
Mof_O 	O 	0.43041	0.06215	0.44137	-0.458
Mof_O 	O 	0.3823	0.97992	0.33667	-0.546
Mof_O 	O 	0.65563	0.75717	0.41647	-0.56
Mof_C 	C 	0.60813	0.02337	0.34557	0.205
Mof_C 	C 	0.55243	0.97307	0.30907	-0.267
Mof_H 	H 	0.55253	0.93867	0.27727	0.127
Mof_C 	C 	0.49603	0.97397	0.32027	0.254
Mof_H 	H 	0.45853	0.94017	0.29427	-0.069
Mof_C 	C 	0.49373	0.02207	0.36727	-0.302
Mof_C 	C 	0.54853	0.07017	0.40467	0.2
Mof_H 	H 	0.54743	0.10357	0.43827	-0.029
Mof_C 	C 	0.60703	0.07217	0.39537	-0.287
Mof_H 	H 	0.64413	0.10587	0.42237	0.128
Mof_C 	C 	0.43243	0.02327	0.38137	0.412
Mof_C 	C 	0.63373	0.91907	0.41127	-0.228
Mof_H 	H 	0.61153	0.92717	0.46187	0.117
Mof_C 	C 	0.63483	0.86167	0.41157	0.133
Mof_H 	H 	0.61453	0.83187	0.46367	-0.012
Mof_La	La	0.01823	0.35157	0.16667	2.032
Mof_La	La	0.6849	0.6849	0.5	2.147
Mof_La	La	0.64843	0.66667	0.16667	2.137
Mof_La	La	0.3151	-3.82723e-33	0.5	2.047
Mof_La	La	0.33333	0.98177	0.16667	2.208
Mof_La	La	3.59756e-17	0.3151	0.5	2.047
Mof_La	La	0.35157	0.01823	0.83333	2.043
Mof_La	La	0.66667	0.64843	0.83333	2.147
Mof_La	La	0.98177	0.33333	0.83333	2.216
Mof_N 	N 	0.66667	0.02398	0.33333	-0.225
Mof_C 	C 	0.66667	0.96458	0.33333	0.203
Mof_C 	C 	0.66667	0.84948	0.33333	-0.227
Mof_C 	C 	0.66667	0.78658	0.33333	0.498
Mof_N 	N 	0.97602	0.64268	0.33333	-0.202
Mof_C 	C 	0.03542	0.70208	0.33333	0.13
Mof_C 	C 	0.15052	0.81718	0.33333	-0.208
Mof_C 	C 	0.21342	0.88008	0.33333	0.488
Mof_N 	N 	0.35732	0.33333	0.33333	-0.215
Mof_C 	C 	0.29792	0.33333	0.33333	0.168
Mof_C 	C 	0.18282	0.33333	0.33333	-0.218
Mof_C 	C 	0.11992	0.33333	0.33333	0.486
Mof_N 	N 	0.02398	0.66667	0.66667	-0.225
Mof_C 	C 	0.96458	0.66667	0.66667	0.203
Mof_C 	C 	0.84948	0.66667	0.66667	-0.227
Mof_C 	C 	0.78658	0.66667	0.66667	0.498
Mof_N 	N 	0.69065	0	-0	-0.231
Mof_C 	C 	0.63125	0	-0	0.129
Mof_C 	C 	0.51615	0	-0	-0.248
Mof_C 	C 	0.45325	0	-0	0.452
Mof_N 	N 	0.64268	0.97602	0.66667	-0.202
Mof_C 	C 	0.70208	0.03542	0.66667	0.13
Mof_C 	C 	0.81718	0.15052	0.66667	-0.207
Mof_C 	C 	0.88008	0.21342	0.66667	0.488
Mof_N 	N 	0.30935	0.30935	-0	-0.217
Mof_C 	C 	0.36875	0.36875	-0	0.162
Mof_C 	C 	0.48385	0.48385	-0	-0.224
Mof_C 	C 	0.54675	0.54675	-0	0.488
Mof_N 	N 	0.33333	0.35732	0.66667	-0.215
Mof_C 	C 	0.33333	0.29792	0.66667	0.168
Mof_C 	C 	0.33333	0.18282	0.66667	-0.218
Mof_C 	C 	0.33333	0.11992	0.66667	0.486
Mof_N 	N 	-0	0.69065	-0	-0.238
Mof_C 	C 	-0	0.63125	-0	0.112
Mof_C 	C 	-0	0.51615	-0	-0.257
Mof_C 	C 	-0	0.45325	-0	0.441
_end
