# CIF file generated by openbabel 3.1.0, see https://openbabel.org
data_I
_chemical_name_common 'image0'
_cell_length_a 29.1508
_cell_length_b 29.1508
_cell_length_c 36.1349
_cell_angle_alpha 90
_cell_angle_beta 90
_cell_angle_gamma 120
_space_group_name_H-M_alt 'P 1'
_space_group_name_Hall 'P 1'
loop_
    _symmetry_equiv_pos_as_xyz
    x,y,z
loop_
    _atom_site_label
    _atom_site_type_symbol
    _atom_site_fract_x
    _atom_site_fract_y
    _atom_site_fract_z
    _atom_site_occupancy
    C1       C        0.41640    0.26730    0.64280    1.000
    H1       H        0.42680    0.26310    0.61870    1.000
    C2       C        0.37040    0.22620    0.65870    1.000
    O1       O        0.31750    0.12040    0.46480    1.000
    C3       C        0.35560    0.23300    0.69240    1.000
    H2       H        0.32720    0.20400    0.70490    1.000
    C4       C        0.42800    0.32300    0.69370    1.000
    C5       C        0.38200    0.28290    0.70910    1.000
    H3       H        0.36830    0.28930    0.73120    1.000
    O2       O        0.08670    0.08140    0.64680    1.000
    C6       C        0.44560    0.31240    0.66120    1.000
    H4       H        0.47940    0.33770    0.65180    1.000
    C7       C        0.46010    0.37380    0.71230    1.000
    O3       O        0.50410    0.40650    0.69610    1.000
    O4       O        0.44630    0.38450    0.74260    1.000
    C8       C        0.33690    0.21100    0.54150    1.000
    H5       H        0.33440    0.23830    0.52890    1.000
    C9       C        0.34220    0.21220    0.57830    1.000
    H6       H        0.34460    0.24140    0.59160    1.000
    C10      C        0.19850    0.05810    0.64540    1.000
    H7       H        0.17910    0.02050    0.64570    1.000
    C11      C        0.25350    0.08400    0.64560    1.000
    H8       H        0.27230    0.06510    0.64450    1.000
    C12      C        0.08307    0.60063    0.97613    1.000
    H9       H        0.09347    0.59643    0.95203    1.000
    C13      C        0.03707    0.55953    0.99203    1.000
    O5       O        0.98417    0.45373    0.79813    1.000
    C14      C        0.02227    0.56633    0.02573    1.000
    H10      H        0.99387    0.53733    0.03823    1.000
    C15      C        0.09467    0.65633    0.02703    1.000
    C16      C        0.04867    0.61623    0.04243    1.000
    H11      H        0.03497    0.62263    0.06453    1.000
    O6       O        0.75337    0.41473    0.98013    1.000
    C17      C        0.11227    0.64573    0.99453    1.000
    H12      H        0.14607    0.67103    0.98513    1.000
    C18      C        0.12677    0.70713    0.04563    1.000
    O7       O        0.17077    0.73983    0.02943    1.000
    O8       O        0.11297    0.71783    0.07593    1.000
    C19      C        0.00357    0.54433    0.87483    1.000
    H13      H        0.00107    0.57163    0.86223    1.000
    C20      C        0.00887    0.54553    0.91163    1.000
    H14      H        0.01127    0.57473    0.92493    1.000
    C21      C        0.86517    0.39143    0.97873    1.000
    H15      H        0.84577    0.35383    0.97903    1.000
    C22      C        0.92017    0.41733    0.97893    1.000
    H16      H        0.93897    0.39843    0.97783    1.000
    C23      C        0.74973    0.93397    0.30947    1.000
    H17      H        0.76013    0.92977    0.28537    1.000
    C24      C        0.70373    0.89287    0.32537    1.000
    O9       O        0.65083    0.78707    0.13147    1.000
    C25      C        0.68893    0.89967    0.35907    1.000
    H18      H        0.66053    0.87067    0.37157    1.000
    C26      C        0.76133    0.98967    0.36037    1.000
    C27      C        0.71533    0.94957    0.37577    1.000
    H19      H        0.70163    0.95597    0.39787    1.000
    O10      O        0.42003    0.74807    0.31347    1.000
    C28      C        0.77893    0.97907    0.32787    1.000
    H20      H        0.81273    0.00437    0.31847    1.000
    C29      C        0.79343    0.04047    0.37897    1.000
    O11      O        0.83743    0.07317    0.36277    1.000
    O12      O        0.77963    0.05117    0.40927    1.000
    C30      C        0.67023    0.87767    0.20817    1.000
    H21      H        0.66773    0.90497    0.19557    1.000
    C31      C        0.67553    0.87887    0.24497    1.000
    H22      H        0.67793    0.90807    0.25827    1.000
    C32      C        0.53183    0.72477    0.31207    1.000
    H23      H        0.51243    0.68717    0.31237    1.000
    C33      C        0.58683    0.75067    0.31227    1.000
    H24      H        0.60563    0.73177    0.31117    1.000
    C34      C        0.73270    0.14910    0.64280    1.000
    H25      H        0.73690    0.16370    0.61870    1.000
    C35      C        0.77380    0.14420    0.65870    1.000
    O13      O        0.87960    0.19710    0.46480    1.000
    C36      C        0.76700    0.12260    0.69240    1.000
    H26      H        0.79600    0.12320    0.70490    1.000
    C37      C        0.67700    0.10500    0.69370    1.000
    C38      C        0.71710    0.09910    0.70910    1.000
    H27      H        0.71070    0.07900    0.73120    1.000
    O14      O        0.91860    0.00530    0.64680    1.000
    C39      C        0.68760    0.13320    0.66120    1.000
    H28      H        0.66230    0.14170    0.65180    1.000
    C40      C        0.62620    0.08630    0.71230    1.000
    O15      O        0.59350    0.09760    0.69610    1.000
    O16      O        0.61550    0.06180    0.74260    1.000
    C41      C        0.78900    0.12590    0.54150    1.000
    H29      H        0.76170    0.09610    0.52890    1.000
    C42      C        0.78780    0.13000    0.57830    1.000
    H30      H        0.75860    0.10320    0.59160    1.000
    C43      C        0.94190    0.14040    0.64540    1.000
    H31      H        0.97950    0.15860    0.64570    1.000
    C44      C        0.91600    0.16950    0.64560    1.000
    H32      H        0.93490    0.20720    0.64450    1.000
    C45      C        0.39937    0.48243    0.97613    1.000
    H33      H        0.40357    0.49703    0.95203    1.000
    C46      C        0.44047    0.47753    0.99203    1.000
    O17      O        0.54627    0.53043    0.79813    1.000
    C47      C        0.43367    0.45593    0.02573    1.000
    H34      H        0.46267    0.45653    0.03823    1.000
    C48      C        0.34367    0.43833    0.02703    1.000
    C49      C        0.38377    0.43243    0.04243    1.000
    H35      H        0.37737    0.41233    0.06453    1.000
    O18      O        0.58527    0.33863    0.98013    1.000
    C50      C        0.35427    0.46653    0.99453    1.000
    H36      H        0.32897    0.47503    0.98513    1.000
    C51      C        0.29287    0.41963    0.04563    1.000
    O19      O        0.26017    0.43093    0.02943    1.000
    O20      O        0.28217    0.39513    0.07593    1.000
    C52      C        0.45567    0.45923    0.87483    1.000
    H37      H        0.42837    0.42943    0.86223    1.000
    C53      C        0.45447    0.46333    0.91163    1.000
    H38      H        0.42527    0.43653    0.92493    1.000
    C54      C        0.60857    0.47373    0.97873    1.000
    H39      H        0.64617    0.49193    0.97903    1.000
    C55      C        0.58267    0.50283    0.97893    1.000
    H40      H        0.60157    0.54053    0.97783    1.000
    C56      C        0.06603    0.81577    0.30947    1.000
    H41      H        0.07023    0.83037    0.28537    1.000
    C57      C        0.10713    0.81087    0.32537    1.000
    O21      O        0.21293    0.86377    0.13147    1.000
    C58      C        0.10033    0.78927    0.35907    1.000
    H42      H        0.12933    0.78987    0.37157    1.000
    C59      C        0.01033    0.77167    0.36037    1.000
    C60      C        0.05043    0.76577    0.37577    1.000
    H43      H        0.04403    0.74567    0.39787    1.000
    O22      O        0.25193    0.67197    0.31347    1.000
    C61      C        0.02093    0.79987    0.32787    1.000
    H44      H        0.99563    0.80837    0.31847    1.000
    C62      C        0.95953    0.75297    0.37897    1.000
    O23      O        0.92683    0.76427    0.36277    1.000
    O24      O        0.94883    0.72847    0.40927    1.000
    C63      C        0.12233    0.79257    0.20817    1.000
    H45      H        0.09503    0.76277    0.19557    1.000
    C64      C        0.12113    0.79667    0.24497    1.000
    H46      H        0.09193    0.76987    0.25827    1.000
    C65      C        0.27523    0.80707    0.31207    1.000
    H47      H        0.31283    0.82527    0.31237    1.000
    C66      C        0.24933    0.83617    0.31227    1.000
    H48      H        0.26823    0.87387    0.31117    1.000
    C67      C        0.85090    0.58360    0.64280    1.000
    H49      H        0.83630    0.57320    0.61870    1.000
    C68      C        0.85580    0.62960    0.65870    1.000
    O25      O        0.80290    0.68250    0.46480    1.000
    C69      C        0.87740    0.64440    0.69240    1.000
    H50      H        0.87680    0.67280    0.70490    1.000
    C70      C        0.89500    0.57200    0.69370    1.000
    C71      C        0.90090    0.61800    0.70910    1.000
    H51      H        0.92100    0.63170    0.73120    1.000
    O26      O        0.99470    0.91330    0.64680    1.000
    C72      C        0.86680    0.55440    0.66120    1.000
    H52      H        0.85830    0.52060    0.65180    1.000
    C73      C        0.91370    0.53990    0.71230    1.000
    O27      O        0.90240    0.49590    0.69610    1.000
    O28      O        0.93820    0.55370    0.74260    1.000
    C74      C        0.87410    0.66310    0.54150    1.000
    H53      H        0.90390    0.66560    0.52890    1.000
    C75      C        0.87000    0.65780    0.57830    1.000
    H54      H        0.89680    0.65540    0.59160    1.000
    C76      C        0.85960    0.80150    0.64540    1.000
    H55      H        0.84140    0.82090    0.64570    1.000
    C77      C        0.83050    0.74650    0.64560    1.000
    H56      H        0.79280    0.72770    0.64450    1.000
    C78      C        0.51757    0.91693    0.97613    1.000
    H57      H        0.50297    0.90653    0.95203    1.000
    C79      C        0.52247    0.96293    0.99203    1.000
    O29      O        0.46957    0.01583    0.79813    1.000
    C80      C        0.54407    0.97773    0.02573    1.000
    H58      H        0.54347    0.00613    0.03823    1.000
    C81      C        0.56167    0.90533    0.02703    1.000
    C82      C        0.56757    0.95133    0.04243    1.000
    H59      H        0.58767    0.96503    0.06453    1.000
    O30      O        0.66137    0.24663    0.98013    1.000
    C83      C        0.53347    0.88773    0.99453    1.000
    H60      H        0.52497    0.85393    0.98513    1.000
    C84      C        0.58037    0.87323    0.04563    1.000
    O31      O        0.56907    0.82923    0.02943    1.000
    O32      O        0.60487    0.88703    0.07593    1.000
    C85      C        0.54077    0.99643    0.87483    1.000
    H61      H        0.57057    0.99893    0.86223    1.000
    C86      C        0.53667    0.99113    0.91163    1.000
    H62      H        0.56347    0.98873    0.92493    1.000
    C87      C        0.52627    0.13483    0.97873    1.000
    H63      H        0.50807    0.15423    0.97903    1.000
    C88      C        0.49717    0.07983    0.97893    1.000
    H64      H        0.45947    0.06103    0.97783    1.000
    C89      C        0.18423    0.25027    0.30947    1.000
    H65      H        0.16963    0.23987    0.28537    1.000
    C90      C        0.18913    0.29627    0.32537    1.000
    O33      O        0.13623    0.34917    0.13147    1.000
    C91      C        0.21073    0.31107    0.35907    1.000
    H66      H        0.21013    0.33947    0.37157    1.000
    C92      C        0.22833    0.23867    0.36037    1.000
    C93      C        0.23423    0.28467    0.37577    1.000
    H67      H        0.25433    0.29837    0.39787    1.000
    O34      O        0.32803    0.57997    0.31347    1.000
    C94      C        0.20013    0.22107    0.32787    1.000
    H68      H        0.19163    0.18727    0.31847    1.000
    C95      C        0.24703    0.20657    0.37897    1.000
    O35      O        0.23573    0.16257    0.36277    1.000
    O36      O        0.27153    0.22037    0.40927    1.000
    C96      C        0.20743    0.32977    0.20817    1.000
    H69      H        0.23723    0.33227    0.19557    1.000
    C97      C        0.20333    0.32447    0.24497    1.000
    H70      H        0.23013    0.32207    0.25827    1.000
    C98      C        0.19293    0.46817    0.31207    1.000
    H71      H        0.17473    0.48757    0.31237    1.000
    C99      C        0.16383    0.41317    0.31227    1.000
    H72      H        0.12613    0.39437    0.31117    1.000
    C100     C        0.73270    0.58360    0.64280    1.000
    H73      H        0.73690    0.57320    0.61870    1.000
    C101     C        0.77380    0.62960    0.65870    1.000
    O37      O        0.87960    0.68250    0.46480    1.000
    C102     C        0.76700    0.64440    0.69240    1.000
    H74      H        0.79600    0.67280    0.70490    1.000
    C103     C        0.67700    0.57200    0.69370    1.000
    C104     C        0.71710    0.61800    0.70910    1.000
    H75      H        0.71070    0.63170    0.73120    1.000
    O38      O        0.91860    0.91330    0.64680    1.000
    C105     C        0.68760    0.55440    0.66120    1.000
    H76      H        0.66230    0.52060    0.65180    1.000
    C106     C        0.62620    0.53990    0.71230    1.000
    O39      O        0.59350    0.49590    0.69610    1.000
    O40      O        0.61550    0.55370    0.74260    1.000
    C107     C        0.78900    0.66310    0.54150    1.000
    H77      H        0.76170    0.66560    0.52890    1.000
    C108     C        0.78780    0.65780    0.57830    1.000
    H78      H        0.75860    0.65540    0.59160    1.000
    C109     C        0.94190    0.80150    0.64540    1.000
    H79      H        0.97950    0.82090    0.64570    1.000
    C110     C        0.91600    0.74650    0.64560    1.000
    H80      H        0.93490    0.72770    0.64450    1.000
    C111     C        0.39937    0.91693    0.97613    1.000
    H81      H        0.40357    0.90653    0.95203    1.000
    C112     C        0.44047    0.96293    0.99203    1.000
    O41      O        0.54627    0.01583    0.79813    1.000
    C113     C        0.43367    0.97773    0.02573    1.000
    H82      H        0.46267    0.00613    0.03823    1.000
    C114     C        0.34367    0.90533    0.02703    1.000
    C115     C        0.38377    0.95133    0.04243    1.000
    H83      H        0.37737    0.96503    0.06453    1.000
    O42      O        0.58527    0.24663    0.98013    1.000
    C116     C        0.35427    0.88773    0.99453    1.000
    H84      H        0.32897    0.85393    0.98513    1.000
    C117     C        0.29287    0.87323    0.04563    1.000
    O43      O        0.26017    0.82923    0.02943    1.000
    O44      O        0.28217    0.88703    0.07593    1.000
    C118     C        0.45567    0.99643    0.87483    1.000
    H85      H        0.42837    0.99893    0.86223    1.000
    C119     C        0.45447    0.99113    0.91163    1.000
    H86      H        0.42527    0.98873    0.92493    1.000
    C120     C        0.60857    0.13483    0.97873    1.000
    H87      H        0.64617    0.15423    0.97903    1.000
    C121     C        0.58267    0.07983    0.97893    1.000
    H88      H        0.60157    0.06103    0.97783    1.000
    C122     C        0.06603    0.25027    0.30947    1.000
    H89      H        0.07023    0.23987    0.28537    1.000
    C123     C        0.10713    0.29627    0.32537    1.000
    O45      O        0.21293    0.34917    0.13147    1.000
    C124     C        0.10033    0.31107    0.35907    1.000
    H90      H        0.12933    0.33947    0.37157    1.000
    C125     C        0.01033    0.23867    0.36037    1.000
    C126     C        0.05043    0.28467    0.37577    1.000
    H91      H        0.04403    0.29837    0.39787    1.000
    O46      O        0.25193    0.57997    0.31347    1.000
    C127     C        0.02093    0.22107    0.32787    1.000
    H92      H        0.99563    0.18727    0.31847    1.000
    C128     C        0.95953    0.20657    0.37897    1.000
    O47      O        0.92683    0.16257    0.36277    1.000
    O48      O        0.94883    0.22037    0.40927    1.000
    C129     C        0.12233    0.32977    0.20817    1.000
    H93      H        0.09503    0.33227    0.19557    1.000
    C130     C        0.12113    0.32447    0.24497    1.000
    H94      H        0.09193    0.32207    0.25827    1.000
    C131     C        0.27523    0.46817    0.31207    1.000
    H95      H        0.31283    0.48757    0.31237    1.000
    C132     C        0.24933    0.41317    0.31227    1.000
    H96      H        0.26823    0.39437    0.31117    1.000
    C133     C        0.85090    0.26730    0.64280    1.000
    H97      H        0.83630    0.26310    0.61870    1.000
    C134     C        0.85580    0.22620    0.65870    1.000
    O49      O        0.80290    0.12040    0.46480    1.000
    C135     C        0.87740    0.23300    0.69240    1.000
    H98      H        0.87680    0.20400    0.70490    1.000
    C136     C        0.89500    0.32300    0.69370    1.000
    C137     C        0.90090    0.28290    0.70910    1.000
    H99      H        0.92100    0.28930    0.73120    1.000
    O50      O        0.99470    0.08140    0.64680    1.000
    C138     C        0.86680    0.31240    0.66120    1.000
    H100     H        0.85830    0.33770    0.65180    1.000
    C139     C        0.91370    0.37380    0.71230    1.000
    O51      O        0.90240    0.40650    0.69610    1.000
    O52      O        0.93820    0.38450    0.74260    1.000
    C140     C        0.87410    0.21100    0.54150    1.000
    H101     H        0.90390    0.23830    0.52890    1.000
    C141     C        0.87000    0.21220    0.57830    1.000
    H102     H        0.89680    0.24140    0.59160    1.000
    C142     C        0.85960    0.05810    0.64540    1.000
    H103     H        0.84140    0.02050    0.64570    1.000
    C143     C        0.83050    0.08400    0.64560    1.000
    H104     H        0.79280    0.06510    0.64450    1.000
    C144     C        0.51757    0.60063    0.97613    1.000
    H105     H        0.50297    0.59643    0.95203    1.000
    C145     C        0.52247    0.55953    0.99203    1.000
    O53      O        0.46957    0.45373    0.79813    1.000
    C146     C        0.54407    0.56633    0.02573    1.000
    H106     H        0.54347    0.53733    0.03823    1.000
    C147     C        0.56167    0.65633    0.02703    1.000
    C148     C        0.56757    0.61623    0.04243    1.000
    H107     H        0.58767    0.62263    0.06453    1.000
    O54      O        0.66137    0.41473    0.98013    1.000
    C149     C        0.53347    0.64573    0.99453    1.000
    H108     H        0.52497    0.67103    0.98513    1.000
    C150     C        0.58037    0.70713    0.04563    1.000
    O55      O        0.56907    0.73983    0.02943    1.000
    O56      O        0.60487    0.71783    0.07593    1.000
    C151     C        0.54077    0.54433    0.87483    1.000
    H109     H        0.57057    0.57163    0.86223    1.000
    C152     C        0.53667    0.54553    0.91163    1.000
    H110     H        0.56347    0.57473    0.92493    1.000
    C153     C        0.52627    0.39143    0.97873    1.000
    H111     H        0.50807    0.35383    0.97903    1.000
    C154     C        0.49717    0.41733    0.97893    1.000
    H112     H        0.45947    0.39843    0.97783    1.000
    C155     C        0.18423    0.93397    0.30947    1.000
    H113     H        0.16963    0.92977    0.28537    1.000
    C156     C        0.18913    0.89287    0.32537    1.000
    O57      O        0.13623    0.78707    0.13147    1.000
    C157     C        0.21073    0.89967    0.35907    1.000
    H114     H        0.21013    0.87067    0.37157    1.000
    C158     C        0.22833    0.98967    0.36037    1.000
    C159     C        0.23423    0.94957    0.37577    1.000
    H115     H        0.25433    0.95597    0.39787    1.000
    O58      O        0.32803    0.74807    0.31347    1.000
    C160     C        0.20013    0.97907    0.32787    1.000
    H116     H        0.19163    0.00437    0.31847    1.000
    C161     C        0.24703    0.04047    0.37897    1.000
    O59      O        0.23573    0.07317    0.36277    1.000
    O60      O        0.27153    0.05117    0.40927    1.000
    C162     C        0.20743    0.87767    0.20817    1.000
    H117     H        0.23723    0.90497    0.19557    1.000
    C163     C        0.20333    0.87887    0.24497    1.000
    H118     H        0.23013    0.90807    0.25827    1.000
    C164     C        0.19293    0.72477    0.31207    1.000
    H119     H        0.17473    0.68717    0.31237    1.000
    C165     C        0.16383    0.75067    0.31227    1.000
    H120     H        0.12613    0.73177    0.31117    1.000
    C166     C        0.41640    0.14910    0.64280    1.000
    H121     H        0.42680    0.16370    0.61870    1.000
    C167     C        0.37040    0.14420    0.65870    1.000
    O61      O        0.31750    0.19710    0.46480    1.000
    C168     C        0.35560    0.12260    0.69240    1.000
    H122     H        0.32720    0.12320    0.70490    1.000
    C169     C        0.42800    0.10500    0.69370    1.000
    C170     C        0.38200    0.09910    0.70910    1.000
    H123     H        0.36830    0.07900    0.73120    1.000
    O62      O        0.08670    0.00530    0.64680    1.000
    C171     C        0.44560    0.13320    0.66120    1.000
    H124     H        0.47940    0.14170    0.65180    1.000
    C172     C        0.46010    0.08630    0.71230    1.000
    O63      O        0.50410    0.09760    0.69610    1.000
    O64      O        0.44630    0.06180    0.74260    1.000
    C173     C        0.33690    0.12590    0.54150    1.000
    H125     H        0.33440    0.09610    0.52890    1.000
    C174     C        0.34220    0.13000    0.57830    1.000
    H126     H        0.34460    0.10320    0.59160    1.000
    C175     C        0.19850    0.14040    0.64540    1.000
    H127     H        0.17910    0.15860    0.64570    1.000
    C176     C        0.25350    0.16950    0.64560    1.000
    H128     H        0.27230    0.20720    0.64450    1.000
    C177     C        0.08307    0.48243    0.97613    1.000
    H129     H        0.09347    0.49703    0.95203    1.000
    C178     C        0.03707    0.47753    0.99203    1.000
    O65      O        0.98417    0.53043    0.79813    1.000
    C179     C        0.02227    0.45593    0.02573    1.000
    H130     H        0.99387    0.45653    0.03823    1.000
    C180     C        0.09467    0.43833    0.02703    1.000
    C181     C        0.04867    0.43243    0.04243    1.000
    H131     H        0.03497    0.41233    0.06453    1.000
    O66      O        0.75337    0.33863    0.98013    1.000
    C182     C        0.11227    0.46653    0.99453    1.000
    H132     H        0.14607    0.47503    0.98513    1.000
    C183     C        0.12677    0.41963    0.04563    1.000
    O67      O        0.17077    0.43093    0.02943    1.000
    O68      O        0.11297    0.39513    0.07593    1.000
    C184     C        0.00357    0.45923    0.87483    1.000
    H133     H        0.00107    0.42943    0.86223    1.000
    C185     C        0.00887    0.46333    0.91163    1.000
    H134     H        0.01127    0.43653    0.92493    1.000
    C186     C        0.86517    0.47373    0.97873    1.000
    H135     H        0.84577    0.49193    0.97903    1.000
    C187     C        0.92017    0.50283    0.97893    1.000
    H136     H        0.93897    0.54053    0.97783    1.000
    C188     C        0.74973    0.81577    0.30947    1.000
    H137     H        0.76013    0.83037    0.28537    1.000
    C189     C        0.70373    0.81087    0.32537    1.000
    O69      O        0.65083    0.86377    0.13147    1.000
    C190     C        0.68893    0.78927    0.35907    1.000
    H138     H        0.66053    0.78987    0.37157    1.000
    C191     C        0.76133    0.77167    0.36037    1.000
    C192     C        0.71533    0.76577    0.37577    1.000
    H139     H        0.70163    0.74567    0.39787    1.000
    O70      O        0.42003    0.67197    0.31347    1.000
    C193     C        0.77893    0.79987    0.32787    1.000
    H140     H        0.81273    0.80837    0.31847    1.000
    C194     C        0.79343    0.75297    0.37897    1.000
    O71      O        0.83743    0.76427    0.36277    1.000
    O72      O        0.77963    0.72847    0.40927    1.000
    C195     C        0.67023    0.79257    0.20817    1.000
    H141     H        0.66773    0.76277    0.19557    1.000
    C196     C        0.67553    0.79667    0.24497    1.000
    H142     H        0.67793    0.76987    0.25827    1.000
    C197     C        0.53183    0.80707    0.31207    1.000
    H143     H        0.51243    0.82527    0.31237    1.000
    C198     C        0.58683    0.83617    0.31227    1.000
    H144     H        0.60563    0.87387    0.31117    1.000
    U1       U        0.00000    0.00000    0.64468    1.000
    U2       U        0.66667    0.33333    0.97801    1.000
    U3       U        0.33333    0.66667    0.31135    1.000
    U4       U        0.52809    0.47191    0.74492    1.000
    U5       U        0.19476    0.80524    0.07825    1.000
    U6       U        0.86142    0.13858    0.41159    1.000
    U7       U        0.52809    0.05618    0.74492    1.000
    U8       U        0.19476    0.38951    0.07825    1.000
    U9       U        0.86142    0.72285    0.41159    1.000
    U10      U        0.94382    0.47191    0.74492    1.000
    U11      U        0.61049    0.80524    0.07825    1.000
    U12      U        0.27715    0.13858    0.41159    1.000
    C199     C        0.34230    0.17115    0.64220    1.000
    C200     C        0.34410    0.17205    0.59760    1.000
    C201     C        0.17080    0.08540    0.64470    1.000
    C202     C        0.11130    0.05565    0.64630    1.000
    C203     C        0.28000    0.14000    0.64750    1.000
    C204     C        0.33510    0.16755    0.52110    1.000
    C205     C        0.32530    0.16265    0.48250    1.000
    C206     C        0.00897    0.50448    0.97553    1.000
    C207     C        0.01077    0.50538    0.93093    1.000
    C208     C        0.83747    0.41873    0.97803    1.000
    C209     C        0.77797    0.38898    0.97963    1.000
    C210     C        0.94667    0.47333    0.98083    1.000
    C211     C        0.00177    0.50088    0.85443    1.000
    C212     C        0.99197    0.49598    0.81583    1.000
    C213     C        0.67563    0.83782    0.30887    1.000
    C214     C        0.67743    0.83872    0.26427    1.000
    C215     C        0.50413    0.75207    0.31137    1.000
    C216     C        0.44463    0.72232    0.31297    1.000
    C217     C        0.61333    0.80667    0.31417    1.000
    C218     C        0.66843    0.83422    0.18777    1.000
    C219     C        0.65863    0.82932    0.14917    1.000
    C220     C        0.82885    0.17115    0.64220    1.000
    C221     C        0.82795    0.17205    0.59760    1.000
    C222     C        0.91460    0.08540    0.64470    1.000
    C223     C        0.94435    0.05565    0.64630    1.000
    C224     C        0.86000    0.14000    0.64750    1.000
    C225     C        0.83245    0.16755    0.52110    1.000
    C226     C        0.83735    0.16265    0.48250    1.000
    C227     C        0.49552    0.50448    0.97553    1.000
    C228     C        0.49462    0.50538    0.93093    1.000
    C229     C        0.58127    0.41873    0.97803    1.000
    C230     C        0.61102    0.38898    0.97963    1.000
    C231     C        0.52667    0.47333    0.98083    1.000
    C232     C        0.49912    0.50088    0.85443    1.000
    C233     C        0.50402    0.49598    0.81583    1.000
    C234     C        0.16218    0.83782    0.30887    1.000
    C235     C        0.16128    0.83872    0.26427    1.000
    C236     C        0.24793    0.75207    0.31137    1.000
    C237     C        0.27768    0.72232    0.31297    1.000
    C238     C        0.19333    0.80667    0.31417    1.000
    C239     C        0.16578    0.83422    0.18777    1.000
    C240     C        0.17068    0.82932    0.14917    1.000
    C241     C        0.82885    0.65770    0.64220    1.000
    C242     C        0.82795    0.65590    0.59760    1.000
    C243     C        0.91460    0.82920    0.64470    1.000
    C244     C        0.94435    0.88870    0.64630    1.000
    C245     C        0.86000    0.72000    0.64750    1.000
    C246     C        0.83245    0.66490    0.52110    1.000
    C247     C        0.83735    0.67470    0.48250    1.000
    C248     C        0.49552    0.99103    0.97553    1.000
    C249     C        0.49462    0.98923    0.93093    1.000
    C250     C        0.58127    0.16253    0.97803    1.000
    C251     C        0.61102    0.22203    0.97963    1.000
    C252     C        0.52667    0.05333    0.98083    1.000
    C253     C        0.49912    0.99823    0.85443    1.000
    C254     C        0.50402    0.00803    0.81583    1.000
    C255     C        0.16218    0.32437    0.30887    1.000
    C256     C        0.16128    0.32257    0.26427    1.000
    C257     C        0.24793    0.49587    0.31137    1.000
    C258     C        0.27768    0.55537    0.31297    1.000
    C259     C        0.19333    0.38667    0.31417    1.000
    C260     C        0.16578    0.33157    0.18777    1.000
    C261     C        0.17068    0.34137    0.14917    1.000
    O73      O        0.66160    0.41500    0.39980    1.000
    C262     C        0.28830    0.40760    0.44110    1.000
    C263     C        0.34110    0.43190    0.42520    1.000
    O74      O        0.27730    0.38450    0.47140    1.000
    C264     C        0.35070    0.45760    0.39150    1.000
    H145     H        0.32310    0.45940    0.37880    1.000
    O75      O        0.25210    0.41190    0.42350    1.000
    C265     C        0.44150    0.47480    0.39240    1.000
    C266     C        0.40320    0.48150    0.37580    1.000
    H146     H        0.41110    0.50190    0.35380    1.000
    O76      O        0.47050    0.45600    0.19810    1.000
    C267     C        0.43100    0.45060    0.42680    1.000
    H147     H        0.45840    0.44920    0.44000    1.000
    C268     C        0.52870    0.39170    0.39110    1.000
    H148     H        0.51090    0.35410    0.38960    1.000
    C269     C        0.50090    0.41700    0.38910    1.000
    H149     H        0.46330    0.39780    0.39000    1.000
    C270     C        0.38120    0.42860    0.44190    1.000
    H150     H        0.37440    0.41040    0.46490    1.000
    C271     C        0.45820    0.45990    0.31420    1.000
    H151     H        0.42780    0.43350    0.32690    1.000
    C272     C        0.46350    0.45610    0.27670    1.000
    H152     H        0.43980    0.42410    0.26440    1.000
    O77      O        0.32827    0.74833    0.73313    1.000
    C273     C        0.95497    0.74093    0.77443    1.000
    C274     C        0.00777    0.76523    0.75853    1.000
    O78      O        0.94397    0.71783    0.80473    1.000
    C275     C        0.01737    0.79093    0.72483    1.000
    H153     H        0.98977    0.79273    0.71213    1.000
    O79      O        0.91877    0.74523    0.75683    1.000
    C276     C        0.10817    0.80813    0.72573    1.000
    C277     C        0.06987    0.81483    0.70913    1.000
    H154     H        0.07777    0.83523    0.68713    1.000
    O80      O        0.13717    0.78933    0.53143    1.000
    C278     C        0.09767    0.78393    0.76013    1.000
    H155     H        0.12507    0.78253    0.77333    1.000
    C279     C        0.19537    0.72503    0.72443    1.000
    H156     H        0.17757    0.68743    0.72293    1.000
    C280     C        0.16757    0.75033    0.72243    1.000
    H157     H        0.12997    0.73113    0.72333    1.000
    C281     C        0.04787    0.76193    0.77523    1.000
    H158     H        0.04107    0.74373    0.79823    1.000
    C282     C        0.12487    0.79323    0.64753    1.000
    H159     H        0.09447    0.76683    0.66023    1.000
    C283     C        0.13017    0.78943    0.61003    1.000
    H160     H        0.10647    0.75743    0.59773    1.000
    O81      O        0.99493    0.08167    0.06647    1.000
    C284     C        0.62163    0.07427    0.10777    1.000
    C285     C        0.67443    0.09857    0.09187    1.000
    O82      O        0.61063    0.05117    0.13807    1.000
    C286     C        0.68403    0.12427    0.05817    1.000
    H161     H        0.65643    0.12607    0.04547    1.000
    O83      O        0.58543    0.07857    0.09017    1.000
    C287     C        0.77483    0.14147    0.05907    1.000
    C288     C        0.73653    0.14817    0.04247    1.000
    H162     H        0.74443    0.16857    0.02047    1.000
    O84      O        0.80383    0.12267    0.86477    1.000
    C289     C        0.76433    0.11727    0.09347    1.000
    H163     H        0.79173    0.11587    0.10667    1.000
    C290     C        0.86203    0.05837    0.05777    1.000
    H164     H        0.84423    0.02077    0.05627    1.000
    C291     C        0.83423    0.08367    0.05577    1.000
    H165     H        0.79663    0.06447    0.05667    1.000
    C292     C        0.71453    0.09527    0.10857    1.000
    H166     H        0.70773    0.07707    0.13157    1.000
    C293     C        0.79153    0.12657    0.98087    1.000
    H167     H        0.76113    0.10017    0.99357    1.000
    C294     C        0.79683    0.12277    0.94337    1.000
    H168     H        0.77313    0.09077    0.93107    1.000
    O85      O        0.58500    0.24660    0.39980    1.000
    C295     C        0.59240    0.88070    0.44110    1.000
    C296     C        0.56810    0.90920    0.42520    1.000
    O86      O        0.61550    0.89280    0.47140    1.000
    C297     C        0.54240    0.89310    0.39150    1.000
    H169     H        0.54060    0.86370    0.37880    1.000
    O87      O        0.58810    0.84020    0.42350    1.000
    C298     C        0.52520    0.96670    0.39240    1.000
    C299     C        0.51850    0.92170    0.37580    1.000
    H170     H        0.49810    0.90920    0.35380    1.000
    O88      O        0.54400    0.01450    0.19810    1.000
    C300     C        0.54940    0.98040    0.42680    1.000
    H171     H        0.55080    0.00920    0.44000    1.000
    C301     C        0.60830    0.13700    0.39110    1.000
    H172     H        0.64590    0.15680    0.38960    1.000
    C302     C        0.58300    0.08390    0.38910    1.000
    H173     H        0.60220    0.06550    0.39000    1.000
    C303     C        0.57140    0.95260    0.44190    1.000
    H174     H        0.58960    0.96400    0.46490    1.000
    C304     C        0.54010    0.99830    0.31420    1.000
    H175     H        0.56650    0.99430    0.32690    1.000
    C305     C        0.54390    0.00740    0.27670    1.000
    H176     H        0.57590    0.01570    0.26440    1.000
    O89      O        0.25167    0.57993    0.73313    1.000
    C306     C        0.25907    0.21403    0.77443    1.000
    C307     C        0.23477    0.24253    0.75853    1.000
    O90      O        0.28217    0.22613    0.80473    1.000
    C308     C        0.20907    0.22643    0.72483    1.000
    H177     H        0.20727    0.19703    0.71213    1.000
    O91      O        0.25477    0.17353    0.75683    1.000
    C309     C        0.19187    0.30003    0.72573    1.000
    C310     C        0.18517    0.25503    0.70913    1.000
    H178     H        0.16477    0.24253    0.68713    1.000
    O92      O        0.21067    0.34783    0.53143    1.000
    C311     C        0.21607    0.31373    0.76013    1.000
    H179     H        0.21747    0.34253    0.77333    1.000
    C312     C        0.27497    0.47033    0.72443    1.000
    H180     H        0.31257    0.49013    0.72293    1.000
    C313     C        0.24967    0.41723    0.72243    1.000
    H181     H        0.26887    0.39883    0.72333    1.000
    C314     C        0.23807    0.28593    0.77523    1.000
    H182     H        0.25627    0.29733    0.79823    1.000
    C315     C        0.20677    0.33163    0.64753    1.000
    H183     H        0.23317    0.32763    0.66023    1.000
    C316     C        0.21057    0.34073    0.61003    1.000
    H184     H        0.24257    0.34903    0.59773    1.000
    O93      O        0.91833    0.91327    0.06647    1.000
    C317     C        0.92573    0.54737    0.10777    1.000
    C318     C        0.90143    0.57587    0.09187    1.000
    O94      O        0.94883    0.55947    0.13807    1.000
    C319     C        0.87573    0.55977    0.05817    1.000
    H185     H        0.87393    0.53037    0.04547    1.000
    O95      O        0.92143    0.50687    0.09017    1.000
    C320     C        0.85853    0.63337    0.05907    1.000
    C321     C        0.85183    0.58837    0.04247    1.000
    H186     H        0.83143    0.57587    0.02047    1.000
    O96      O        0.87733    0.68117    0.86477    1.000
    C322     C        0.88273    0.64707    0.09347    1.000
    H187     H        0.88413    0.67587    0.10667    1.000
    C323     C        0.94163    0.80367    0.05777    1.000
    H188     H        0.97923    0.82347    0.05627    1.000
    C324     C        0.91633    0.75057    0.05577    1.000
    H189     H        0.93553    0.73217    0.05667    1.000
    C325     C        0.90473    0.61927    0.10857    1.000
    H190     H        0.92293    0.63067    0.13157    1.000
    C326     C        0.87343    0.66497    0.98087    1.000
    H191     H        0.89983    0.66097    0.99357    1.000
    C327     C        0.87723    0.67407    0.94337    1.000
    H192     H        0.90923    0.68237    0.93107    1.000
    O97      O        0.75340    0.33840    0.39980    1.000
    C328     C        0.11930    0.71170    0.44110    1.000
    C329     C        0.09080    0.65890    0.42520    1.000
    O98      O        0.10720    0.72270    0.47140    1.000
    C330     C        0.10690    0.64930    0.39150    1.000
    H193     H        0.13630    0.67690    0.37880    1.000
    O99      O        0.15980    0.74790    0.42350    1.000
    C331     C        0.03330    0.55850    0.39240    1.000
    C332     C        0.07830    0.59680    0.37580    1.000
    H194     H        0.09080    0.58890    0.35380    1.000
    O100     O        0.98550    0.52950    0.19810    1.000
    C333     C        0.01960    0.56900    0.42680    1.000
    H195     H        0.99080    0.54160    0.44000    1.000
    C334     C        0.86300    0.47130    0.39110    1.000
    H196     H        0.84320    0.48910    0.38960    1.000
    C335     C        0.91610    0.49910    0.38910    1.000
    H197     H        0.93450    0.53670    0.39000    1.000
    C336     C        0.04740    0.61880    0.44190    1.000
    H198     H        0.03600    0.62560    0.46490    1.000
    C337     C        0.00170    0.54180    0.31420    1.000
    H199     H        0.00570    0.57220    0.32690    1.000
    C338     C        0.99260    0.53650    0.27670    1.000
    H200     H        0.98430    0.56020    0.26440    1.000
    O101     O        0.42007    0.67173    0.73313    1.000
    C339     C        0.78597    0.04503    0.77443    1.000
    C340     C        0.75747    0.99223    0.75853    1.000
    O102     O        0.77387    0.05603    0.80473    1.000
    C341     C        0.77357    0.98263    0.72483    1.000
    H201     H        0.80297    0.01023    0.71213    1.000
    O103     O        0.82647    0.08123    0.75683    1.000
    C342     C        0.69997    0.89183    0.72573    1.000
    C343     C        0.74497    0.93013    0.70913    1.000
    H202     H        0.75747    0.92223    0.68713    1.000
    O104     O        0.65217    0.86283    0.53143    1.000
    C344     C        0.68627    0.90233    0.76013    1.000
    H203     H        0.65747    0.87493    0.77333    1.000
    C345     C        0.52967    0.80463    0.72443    1.000
    H204     H        0.50987    0.82243    0.72293    1.000
    C346     C        0.58277    0.83243    0.72243    1.000
    H205     H        0.60117    0.87003    0.72333    1.000
    C347     C        0.71407    0.95213    0.77523    1.000
    H206     H        0.70267    0.95893    0.79823    1.000
    C348     C        0.66837    0.87513    0.64753    1.000
    H207     H        0.67237    0.90553    0.66023    1.000
    C349     C        0.65927    0.86983    0.61003    1.000
    H208     H        0.65097    0.89353    0.59773    1.000
    O105     O        0.08673    0.00507    0.06647    1.000
    C350     C        0.45263    0.37837    0.10777    1.000
    C351     C        0.42413    0.32557    0.09187    1.000
    O106     O        0.44053    0.38937    0.13807    1.000
    C352     C        0.44023    0.31597    0.05817    1.000
    H209     H        0.46963    0.34357    0.04547    1.000
    O107     O        0.49313    0.41457    0.09017    1.000
    C353     C        0.36663    0.22517    0.05907    1.000
    C354     C        0.41163    0.26347    0.04247    1.000
    H210     H        0.42413    0.25557    0.02047    1.000
    O108     O        0.31883    0.19617    0.86477    1.000
    C355     C        0.35293    0.23567    0.09347    1.000
    H211     H        0.32413    0.20827    0.10667    1.000
    C356     C        0.19633    0.13797    0.05777    1.000
    H212     H        0.17653    0.15577    0.05627    1.000
    C357     C        0.24943    0.16577    0.05577    1.000
    H213     H        0.26783    0.20337    0.05667    1.000
    C358     C        0.38073    0.28547    0.10857    1.000
    H214     H        0.36933    0.29227    0.13157    1.000
    C359     C        0.33503    0.20847    0.98087    1.000
    H215     H        0.33903    0.23887    0.99357    1.000
    C360     C        0.32593    0.20317    0.94337    1.000
    H216     H        0.31763    0.22687    0.93107    1.000
    O109     O        0.58500    0.33840    0.39980    1.000
    C361     C        0.59240    0.71170    0.44110    1.000
    C362     C        0.56810    0.65890    0.42520    1.000
    O110     O        0.61550    0.72270    0.47140    1.000
    C363     C        0.54240    0.64930    0.39150    1.000
    H217     H        0.54060    0.67690    0.37880    1.000
    O111     O        0.58810    0.74790    0.42350    1.000
    C364     C        0.52520    0.55850    0.39240    1.000
    C365     C        0.51850    0.59680    0.37580    1.000
    H218     H        0.49810    0.58890    0.35380    1.000
    O112     O        0.54400    0.52950    0.19810    1.000
    C366     C        0.54940    0.56900    0.42680    1.000
    H219     H        0.55080    0.54160    0.44000    1.000
    C367     C        0.60830    0.47130    0.39110    1.000
    H220     H        0.64590    0.48910    0.38960    1.000
    C368     C        0.58300    0.49910    0.38910    1.000
    H221     H        0.60220    0.53670    0.39000    1.000
    C369     C        0.57140    0.61880    0.44190    1.000
    H222     H        0.58960    0.62560    0.46490    1.000
    C370     C        0.54010    0.54180    0.31420    1.000
    H223     H        0.56650    0.57220    0.32690    1.000
    C371     C        0.54390    0.53650    0.27670    1.000
    H224     H        0.57590    0.56020    0.26440    1.000
    O113     O        0.25167    0.67173    0.73313    1.000
    C372     C        0.25907    0.04503    0.77443    1.000
    C373     C        0.23477    0.99223    0.75853    1.000
    O114     O        0.28217    0.05603    0.80473    1.000
    C374     C        0.20907    0.98263    0.72483    1.000
    H225     H        0.20727    0.01023    0.71213    1.000
    O115     O        0.25477    0.08123    0.75683    1.000
    C375     C        0.19187    0.89183    0.72573    1.000
    C376     C        0.18517    0.93013    0.70913    1.000
    H226     H        0.16477    0.92223    0.68713    1.000
    O116     O        0.21067    0.86283    0.53143    1.000
    C377     C        0.21607    0.90233    0.76013    1.000
    H227     H        0.21747    0.87493    0.77333    1.000
    C378     C        0.27497    0.80463    0.72443    1.000
    H228     H        0.31257    0.82243    0.72293    1.000
    C379     C        0.24967    0.83243    0.72243    1.000
    H229     H        0.26887    0.87003    0.72333    1.000
    C380     C        0.23807    0.95213    0.77523    1.000
    H230     H        0.25627    0.95893    0.79823    1.000
    C381     C        0.20677    0.87513    0.64753    1.000
    H231     H        0.23317    0.90553    0.66023    1.000
    C382     C        0.21057    0.86983    0.61003    1.000
    H232     H        0.24257    0.89353    0.59773    1.000
    O117     O        0.91833    0.00507    0.06647    1.000
    C383     C        0.92573    0.37837    0.10777    1.000
    C384     C        0.90143    0.32557    0.09187    1.000
    O118     O        0.94883    0.38937    0.13807    1.000
    C385     C        0.87573    0.31597    0.05817    1.000
    H233     H        0.87393    0.34357    0.04547    1.000
    O119     O        0.92143    0.41457    0.09017    1.000
    C386     C        0.85853    0.22517    0.05907    1.000
    C387     C        0.85183    0.26347    0.04247    1.000
    H234     H        0.83143    0.25557    0.02047    1.000
    O120     O        0.87733    0.19617    0.86477    1.000
    C388     C        0.88273    0.23567    0.09347    1.000
    H235     H        0.88413    0.20827    0.10667    1.000
    C389     C        0.94163    0.13797    0.05777    1.000
    H236     H        0.97923    0.15577    0.05627    1.000
    C390     C        0.91633    0.16577    0.05577    1.000
    H237     H        0.93553    0.20337    0.05667    1.000
    C391     C        0.90473    0.28547    0.10857    1.000
    H238     H        0.92293    0.29227    0.13157    1.000
    C392     C        0.87343    0.20847    0.98087    1.000
    H239     H        0.89983    0.23887    0.99357    1.000
    C393     C        0.87723    0.20317    0.94337    1.000
    H240     H        0.90923    0.22687    0.93107    1.000
    O121     O        0.75340    0.41500    0.39980    1.000
    C394     C        0.11930    0.40760    0.44110    1.000
    C395     C        0.09080    0.43190    0.42520    1.000
    O122     O        0.10720    0.38450    0.47140    1.000
    C396     C        0.10690    0.45760    0.39150    1.000
    H241     H        0.13630    0.45940    0.37880    1.000
    O123     O        0.15980    0.41190    0.42350    1.000
    C397     C        0.03330    0.47480    0.39240    1.000
    C398     C        0.07830    0.48150    0.37580    1.000
    H242     H        0.09080    0.50190    0.35380    1.000
    O124     O        0.98550    0.45600    0.19810    1.000
    C399     C        0.01960    0.45060    0.42680    1.000
    H243     H        0.99080    0.44920    0.44000    1.000
    C400     C        0.86300    0.39170    0.39110    1.000
    H244     H        0.84320    0.35410    0.38960    1.000
    C401     C        0.91610    0.41700    0.38910    1.000
    H245     H        0.93450    0.39780    0.39000    1.000
    C402     C        0.04740    0.42860    0.44190    1.000
    H246     H        0.03600    0.41040    0.46490    1.000
    C403     C        0.00170    0.45990    0.31420    1.000
    H247     H        0.00570    0.43350    0.32690    1.000
    C404     C        0.99260    0.45610    0.27670    1.000
    H248     H        0.98430    0.42410    0.26440    1.000
    O125     O        0.42007    0.74833    0.73313    1.000
    C405     C        0.78597    0.74093    0.77443    1.000
    C406     C        0.75747    0.76523    0.75853    1.000
    O126     O        0.77387    0.71783    0.80473    1.000
    C407     C        0.77357    0.79093    0.72483    1.000
    H249     H        0.80297    0.79273    0.71213    1.000
    O127     O        0.82647    0.74523    0.75683    1.000
    C408     C        0.69997    0.80813    0.72573    1.000
    C409     C        0.74497    0.81483    0.70913    1.000
    H250     H        0.75747    0.83523    0.68713    1.000
    O128     O        0.65217    0.78933    0.53143    1.000
    C410     C        0.68627    0.78393    0.76013    1.000
    H251     H        0.65747    0.78253    0.77333    1.000
    C411     C        0.52967    0.72503    0.72443    1.000
    H252     H        0.50987    0.68743    0.72293    1.000
    C412     C        0.58277    0.75033    0.72243    1.000
    H253     H        0.60117    0.73113    0.72333    1.000
    C413     C        0.71407    0.76193    0.77523    1.000
    H254     H        0.70267    0.74373    0.79823    1.000
    C414     C        0.66837    0.79323    0.64753    1.000
    H255     H        0.67237    0.76683    0.66023    1.000
    C415     C        0.65927    0.78943    0.61003    1.000
    H256     H        0.65097    0.75743    0.59773    1.000
    O129     O        0.08673    0.08167    0.06647    1.000
    C416     C        0.45263    0.07427    0.10777    1.000
    C417     C        0.42413    0.09857    0.09187    1.000
    O130     O        0.44053    0.05117    0.13807    1.000
    C418     C        0.44023    0.12427    0.05817    1.000
    H257     H        0.46963    0.12607    0.04547    1.000
    O131     O        0.49313    0.07857    0.09017    1.000
    C419     C        0.36663    0.14147    0.05907    1.000
    C420     C        0.41163    0.14817    0.04247    1.000
    H258     H        0.42413    0.16857    0.02047    1.000
    O132     O        0.31883    0.12267    0.86477    1.000
    C421     C        0.35293    0.11727    0.09347    1.000
    H259     H        0.32413    0.11587    0.10667    1.000
    C422     C        0.19633    0.05837    0.05777    1.000
    H260     H        0.17653    0.02077    0.05627    1.000
    C423     C        0.24943    0.08367    0.05577    1.000
    H261     H        0.26783    0.06447    0.05667    1.000
    C424     C        0.38073    0.09527    0.10857    1.000
    H262     H        0.36933    0.07707    0.13157    1.000
    C425     C        0.33503    0.12657    0.98087    1.000
    H263     H        0.33903    0.10017    0.99357    1.000
    C426     C        0.32593    0.12277    0.94337    1.000
    H264     H        0.31763    0.09077    0.93107    1.000
    O133     O        0.66160    0.24660    0.39980    1.000
    C427     C        0.28830    0.88070    0.44110    1.000
    C428     C        0.34110    0.90920    0.42520    1.000
    O134     O        0.27730    0.89280    0.47140    1.000
    C429     C        0.35070    0.89310    0.39150    1.000
    H265     H        0.32310    0.86370    0.37880    1.000
    O135     O        0.25210    0.84020    0.42350    1.000
    C430     C        0.44150    0.96670    0.39240    1.000
    C431     C        0.40320    0.92170    0.37580    1.000
    H266     H        0.41110    0.90920    0.35380    1.000
    O136     O        0.47050    0.01450    0.19810    1.000
    C432     C        0.43100    0.98040    0.42680    1.000
    H267     H        0.45840    0.00920    0.44000    1.000
    C433     C        0.52870    0.13700    0.39110    1.000
    H268     H        0.51090    0.15680    0.38960    1.000
    C434     C        0.50090    0.08390    0.38910    1.000
    H269     H        0.46330    0.06550    0.39000    1.000
    C435     C        0.38120    0.95260    0.44190    1.000
    H270     H        0.37440    0.96400    0.46490    1.000
    C436     C        0.45820    0.99830    0.31420    1.000
    H271     H        0.42780    0.99430    0.32690    1.000
    C437     C        0.46350    0.00740    0.27670    1.000
    H272     H        0.43980    0.01570    0.26440    1.000
    O137     O        0.32827    0.57993    0.73313    1.000
    C438     C        0.95497    0.21403    0.77443    1.000
    C439     C        0.00777    0.24253    0.75853    1.000
    O138     O        0.94397    0.22613    0.80473    1.000
    C440     C        0.01737    0.22643    0.72483    1.000
    H273     H        0.98977    0.19703    0.71213    1.000
    O139     O        0.91877    0.17353    0.75683    1.000
    C441     C        0.10817    0.30003    0.72573    1.000
    C442     C        0.06987    0.25503    0.70913    1.000
    H274     H        0.07777    0.24253    0.68713    1.000
    O140     O        0.13717    0.34783    0.53143    1.000
    C443     C        0.09767    0.31373    0.76013    1.000
    H275     H        0.12507    0.34253    0.77333    1.000
    C444     C        0.19537    0.47033    0.72443    1.000
    H276     H        0.17757    0.49013    0.72293    1.000
    C445     C        0.16757    0.41723    0.72243    1.000
    H277     H        0.12997    0.39883    0.72333    1.000
    C446     C        0.04787    0.28593    0.77523    1.000
    H278     H        0.04107    0.29733    0.79823    1.000
    C447     C        0.12487    0.33163    0.64753    1.000
    H279     H        0.09447    0.32763    0.66023    1.000
    C448     C        0.13017    0.34073    0.61003    1.000
    H280     H        0.10647    0.34903    0.59773    1.000
    O141     O        0.99493    0.91327    0.06647    1.000
    C449     C        0.62163    0.54737    0.10777    1.000
    C450     C        0.67443    0.57587    0.09187    1.000
    O142     O        0.61063    0.55947    0.13807    1.000
    C451     C        0.68403    0.55977    0.05817    1.000
    H281     H        0.65643    0.53037    0.04547    1.000
    O143     O        0.58543    0.50687    0.09017    1.000
    C452     C        0.77483    0.63337    0.05907    1.000
    C453     C        0.73653    0.58837    0.04247    1.000
    H282     H        0.74443    0.57587    0.02047    1.000
    O144     O        0.80383    0.68117    0.86477    1.000
    C454     C        0.76433    0.64707    0.09347    1.000
    H283     H        0.79173    0.67587    0.10667    1.000
    C455     C        0.86203    0.80367    0.05777    1.000
    H284     H        0.84423    0.82347    0.05627    1.000
    C456     C        0.83423    0.75057    0.05577    1.000
    H285     H        0.79663    0.73217    0.05667    1.000
    C457     C        0.71453    0.61927    0.10857    1.000
    H286     H        0.70773    0.63067    0.13157    1.000
    C458     C        0.79153    0.66497    0.98087    1.000
    H287     H        0.76113    0.66097    0.99357    1.000
    C459     C        0.79683    0.67407    0.94337    1.000
    H288     H        0.77313    0.68237    0.93107    1.000
    C460     C        0.52840    0.47160    0.38590    1.000
    C461     C        0.49750    0.50250    0.37670    1.000
    C462     C        0.58100    0.41900    0.39500    1.000
    C463     C        0.61170    0.38830    0.39930    1.000
    C464     C        0.49760    0.50240    0.33350    1.000
    C465     C        0.50230    0.49770    0.25660    1.000
    C466     C        0.50320    0.49680    0.21390    1.000
    C467     C        0.19507    0.80493    0.71923    1.000
    C468     C        0.16417    0.83583    0.71003    1.000
    C469     C        0.24767    0.75233    0.72833    1.000
    C470     C        0.27837    0.72163    0.73263    1.000
    C471     C        0.16427    0.83573    0.66683    1.000
    C472     C        0.16897    0.83103    0.58993    1.000
    C473     C        0.16987    0.83013    0.54723    1.000
    C474     C        0.86173    0.13827    0.05257    1.000
    C475     C        0.83083    0.16917    0.04337    1.000
    C476     C        0.91433    0.08567    0.06167    1.000
    C477     C        0.94503    0.05497    0.06597    1.000
    C478     C        0.83093    0.16907    0.00017    1.000
    C479     C        0.83563    0.16437    0.92327    1.000
    C480     C        0.83653    0.16347    0.88057    1.000
    C481     C        0.52840    0.05680    0.38590    1.000
    C482     C        0.49750    0.99500    0.37670    1.000
    C483     C        0.58100    0.16200    0.39500    1.000
    C484     C        0.61170    0.22340    0.39930    1.000
    C485     C        0.49760    0.99520    0.33350    1.000
    C486     C        0.50230    0.00460    0.25660    1.000
    C487     C        0.50320    0.00640    0.21390    1.000
    C488     C        0.19507    0.39013    0.71923    1.000
    C489     C        0.16417    0.32833    0.71003    1.000
    C490     C        0.24767    0.49533    0.72833    1.000
    C491     C        0.27837    0.55673    0.73263    1.000
    C492     C        0.16427    0.32853    0.66683    1.000
    C493     C        0.16897    0.33793    0.58993    1.000
    C494     C        0.16987    0.33973    0.54723    1.000
    C495     C        0.86173    0.72347    0.05257    1.000
    C496     C        0.83083    0.66167    0.04337    1.000
    C497     C        0.91433    0.82867    0.06167    1.000
    C498     C        0.94503    0.89007    0.06597    1.000
    C499     C        0.83093    0.66187    0.00017    1.000
    C500     C        0.83563    0.67127    0.92327    1.000
    C501     C        0.83653    0.67307    0.88057    1.000
    C502     C        0.94320    0.47160    0.38590    1.000
    C503     C        0.00500    0.50250    0.37670    1.000
    C504     C        0.83800    0.41900    0.39500    1.000
    C505     C        0.77660    0.38830    0.39930    1.000
    C506     C        0.00480    0.50240    0.33350    1.000
    C507     C        0.99540    0.49770    0.25660    1.000
    C508     C        0.99360    0.49680    0.21390    1.000
    C509     C        0.60987    0.80493    0.71923    1.000
    C510     C        0.67167    0.83583    0.71003    1.000
    C511     C        0.50467    0.75233    0.72833    1.000
    C512     C        0.44327    0.72163    0.73263    1.000
    C513     C        0.67147    0.83573    0.66683    1.000
    C514     C        0.66207    0.83103    0.58993    1.000
    C515     C        0.66027    0.83013    0.54723    1.000
    C516     C        0.27653    0.13827    0.05257    1.000
    C517     C        0.33833    0.16917    0.04337    1.000
    C518     C        0.17133    0.08567    0.06167    1.000
    C519     C        0.10993    0.05497    0.06597    1.000
    C520     C        0.33813    0.16907    0.00017    1.000
    C521     C        0.32873    0.16437    0.92327    1.000
    C522     C        0.32693    0.16347    0.88057    1.000
    U13      U        0.19014    0.38028    0.47443    1.000
    U14      U        0.85681    0.71361    0.80776    1.000
    U15      U        0.52347    0.04695    0.14110    1.000
    U16      U        0.61972    0.80986    0.47443    1.000
    U17      U        0.28639    0.14319    0.80776    1.000
    U18      U        0.95305    0.47653    0.14110    1.000
    U19      U        0.19014    0.80986    0.47443    1.000
    U20      U        0.85681    0.14319    0.80776    1.000
    U21      U        0.52347    0.47653    0.14110    1.000
    U22      U        0.66667    0.33333    0.40149    1.000
    U23      U        0.33333    0.66667    0.73482    1.000
    U24      U        0.00000    0.00000    0.06816    1.000
