data_functionalizedCrystal
_audit_creation_method	'EQeq! by Chris Wilmer'
_symmetry_space_group_name_H-M	'P1'
_symmetry_Int_Tables_number	1
_symmetry_cell_setting	triclinic
loop_
_symmetry_equiv_pos_as_xyz
  x,y,z
_cell_length_a	22.0765
_cell_length_b	16.3158
_cell_length_c	25.68
_cell_angle_alpha	90
_cell_angle_beta	115.416
_cell_angle_gamma	90
loop_
_atom_site_label
_atom_site_type_symbol
_atom_site_fract_x
_atom_site_fract_y
_atom_site_fract_z
_atom_site_charge
Mof_Ag	Ag	0.8228	0.24959	0.86741	0.536
Mof_Ag	Ag	0.34348	0.45725	0.36767	0.523
Mof_C 	C 	0.00206	0.3827	0.99671	-0.131
Mof_H 	H 	0.0215	0.3818	0.0368	0.085
Mof_C 	C 	0.0329	0.812	0.41119	-0.141
Mof_H 	H 	0.0544	0.7905	0.39	0.082
Mof_C 	C 	0.1239	0.7575	0.50268	0.098
Mof_C 	C 	0.05978	0.8021	0.47046	0.06
Mof_C 	C 	0.2775	0.6369	0.00955	-0.134
Mof_H 	H 	0.2983	0.6338	0.0496	0.075
Mof_C 	C 	0.23588	0.5667	0.38856	0.082
Mof_H 	H 	0.214	0.5604	0.3488	-0.008
Mof_C 	C 	0.2195	0.6505	0.89247	0.067
Mof_H 	H 	0.1993	0.6553	0.8525	-0.026
Mof_C 	C 	0.94266	0.3424	0.96551	0.083
Mof_H 	H 	0.9223	0.3152	0.9856	-0.011
Mof_C 	C 	0.09703	0.4686	0.0015	0.099
Mof_C 	C 	0.02603	0.8362	0.50012	-0.142
Mof_H 	H 	0.0436	0.832	0.54	0.074
Mof_C 	C 	0.20969	0.7263	0.58792	0.101
Mof_C 	C 	0.96628	0.8761	0.46948	0.068
Mof_H 	H 	0.9437	0.8979	0.4896	-0.019
Mof_C 	C 	0.03248	0.4247	0.9674	0.065
Mof_C 	C 	0.3058	0.5069	0.24289	0.071
Mof_H 	H 	0.3498	0.5243	0.2638	-0.023
Mof_C 	C 	0.21522	0.5998	0.97813	0.055
Mof_C 	C 	0.1774	0.4567	0.18173	-0.136
Mof_H 	H 	0.1334	0.4386	0.1618	0.081
Mof_C 	C 	0.00162	0.4245	0.90749	-0.135
Mof_H 	H 	0.0202	0.4532	0.8866	0.08
Mof_C 	C 	0.32611	0.5406	0.47437	0.085
Mof_H 	H 	0.3678	0.5164	0.4948	-0.012
Mof_C 	C 	0.24281	0.7361	0.65192	0.06
Mof_C 	C 	0.3266	0.7025	0.74469	0.085
Mof_H 	H 	0.3653	0.6734	0.7672	-0.022
Mof_C 	C 	0.3076	0.6787	0.97963	0.074
Mof_H 	H 	0.349	0.7034	0.0006	-0.011
Mof_C 	C 	0.29848	0.5844	0.50512	-0.131
Mof_H 	H 	0.3209	0.5886	0.545	0.084
Mof_C 	C 	0.97348	0.8545	0.38442	0.072
Mof_H 	H 	0.9564	0.8625	0.3448	-0.02
Mof_C 	C 	0.17909	0.5021	0.08844	0.096
Mof_C 	C 	0.206	0.6727	0.50572	0.103
Mof_C 	C 	0.94273	0.381	0.87967	0.081
Mof_H 	H 	0.923	0.3798	0.8396	-0.007
Mof_C 	C 	0.2768	0.5177	0.18374	-0.14
Mof_H 	H 	0.301	0.5412	0.1655	0.072
Mof_C 	C 	0.18585	0.608	0.91853	-0.135
Mof_H 	H 	0.144	0.5851	0.8964	0.078
Mof_C 	C 	0.18198	0.5504	0.00718	0.092
Mof_C 	C 	0.2102	0.4482	0.24074	0.079
Mof_H 	H 	0.1873	0.4245	0.26	-0.015
Mof_C 	C 	0.23636	0.622	0.47502	0.067
Mof_C 	C 	0.21073	0.4928	0.15211	0.053
Mof_C 	C 	0.20471	0.6117	0.41534	-0.131
Mof_H 	H 	0.1629	0.6351	0.3938	0.083
Mof_C 	C 	0.2151	0.7878	0.67851	-0.134
Mof_H 	H 	0.1773	0.8188	0.6567	0.069
Mof_C 	C 	0.2444	0.7929	0.73784	0.069
Mof_H 	H 	0.2255	0.828	0.7553	-0.016
Mof_C 	C 	0.3012	0.6945	0.68564	-0.142
Mof_H 	H 	0.3227	0.6621	0.6689	0.084
Mof_N 	N 	0.91234	0.3401	0.90746	-0.187
Mof_N 	N 	0.2741	0.4726	0.2718	-0.198
Mof_N 	N 	0.27963	0.68523	0.9216	-0.209
Mof_N 	N 	0.12583	0.5094	0.97338	-0.139
Mof_N 	N 	0.12131	0.462	0.05897	-0.137
Mof_N 	N 	0.21046	0.5488	0.06488	-0.149
Mof_N 	N 	0.29632	0.5311	0.41691	-0.192
Mof_N 	N 	0.93886	0.8851	0.41184	-0.214
Mof_N 	N 	0.29904	0.7494	0.77171	-0.2
Mof_N 	N 	0.14806	0.7105	0.47292	-0.137
Mof_N 	N 	0.15314	0.7683	0.55984	-0.142
Mof_N 	N 	0.23848	0.6773	0.56333	-0.137
Mof_Ag	Ag	0.3228	0.74959	0.86741	0.535
Mof_Ag	Ag	0.84348	0.95725	0.36767	0.522
Mof_C 	C 	0.50206	0.8827	0.99671	-0.134
Mof_H 	H 	0.5215	0.8818	0.0368	0.086
Mof_C 	C 	0.5329	0.312	0.41119	-0.142
Mof_H 	H 	0.5544	0.2905	0.39	0.081
Mof_C 	C 	0.6239	0.2575	0.50268	0.097
Mof_C 	C 	0.55978	0.3021	0.47046	0.059
Mof_C 	C 	0.7775	0.1369	0.00955	-0.127
Mof_H 	H 	0.7983	0.1338	0.0496	0.072
Mof_C 	C 	0.73588	0.0667	0.38856	0.081
Mof_H 	H 	0.714	0.0604	0.3488	-0.009
Mof_C 	C 	0.7195	0.1505	0.89247	0.065
Mof_H 	H 	0.6993	0.1553	0.8525	-0.025
Mof_C 	C 	0.44266	0.8424	0.96551	0.085
Mof_H 	H 	0.4223	0.8152	0.9856	-0.012
Mof_C 	C 	0.59703	0.9686	0.0015	0.1
Mof_C 	C 	0.52603	0.3362	0.50012	-0.141
Mof_H 	H 	0.5436	0.332	0.54	0.074
Mof_C 	C 	0.70969	0.2263	0.58792	0.101
Mof_C 	C 	0.46628	0.3761	0.46948	0.068
Mof_H 	H 	0.4437	0.3979	0.4896	-0.018
Mof_C 	C 	0.53248	0.9247	0.9674	0.066
Mof_C 	C 	0.8058	0.0069	0.24289	0.071
Mof_H 	H 	0.8498	0.0243	0.2638	-0.023
Mof_C 	C 	0.71522	0.0998	0.97813	0.049
Mof_C 	C 	0.6774	0.9567	0.18173	-0.136
Mof_H 	H 	0.6334	0.9386	0.1618	0.081
Mof_C 	C 	0.50162	0.9245	0.90749	-0.137
Mof_H 	H 	0.5202	0.9532	0.8866	0.08
Mof_C 	C 	0.82611	0.0406	0.47437	0.085
Mof_H 	H 	0.8678	0.0164	0.4948	-0.012
Mof_C 	C 	0.74281	0.2361	0.65192	0.06
Mof_C 	C 	0.8266	0.2025	0.74469	0.085
Mof_H 	H 	0.8653	0.1734	0.7672	-0.022
Mof_C 	C 	0.8076	0.1787	0.97963	0.067
Mof_H 	H 	0.849	0.2034	0.0006	-0.008
Mof_C 	C 	0.79848	0.0844	0.50512	-0.131
Mof_H 	H 	0.8209	0.0886	0.545	0.084
Mof_C 	C 	0.47348	0.3545	0.38442	0.072
Mof_H 	H 	0.4564	0.3625	0.3448	-0.02
Mof_C 	C 	0.67909	0.0021	0.08844	0.097
Mof_C 	C 	0.706	0.1727	0.50572	0.103
Mof_C 	C 	0.44273	0.881	0.87967	0.083
Mof_H 	H 	0.423	0.8798	0.8396	-0.007
Mof_C 	C 	0.7768	0.0177	0.18374	-0.139
Mof_H 	H 	0.801	0.0412	0.1655	0.072
Mof_C 	C 	0.68585	0.108	0.91853	-0.131
Mof_H 	H 	0.644	0.0851	0.8964	0.076
Mof_C 	C 	0.68198	0.0504	0.00718	0.096
Mof_C 	C 	0.7102	0.9482	0.24074	0.079
Mof_H 	H 	0.6873	0.9245	0.26	-0.015
Mof_C 	C 	0.73636	0.122	0.47502	0.067
Mof_C 	C 	0.71073	0.9928	0.15211	0.052
Mof_C 	C 	0.70471	0.1117	0.41534	-0.131
Mof_H 	H 	0.6629	0.1351	0.3938	0.083
Mof_C 	C 	0.7151	0.2878	0.67851	-0.134
Mof_H 	H 	0.6773	0.3188	0.6567	0.069
Mof_C 	C 	0.7444	0.2929	0.73784	0.069
Mof_H 	H 	0.7255	0.328	0.7553	-0.016
Mof_C 	C 	0.8012	0.1945	0.68564	-0.142
Mof_H 	H 	0.8227	0.1621	0.6689	0.084
Mof_N 	N 	0.41234	0.8401	0.90746	-0.188
Mof_N 	N 	0.7741	0.9726	0.2718	-0.198
Mof_N 	N 	0.77963	0.18523	0.9216	-0.207
Mof_N 	N 	0.62583	0.0094	0.97338	-0.141
Mof_N 	N 	0.62131	0.962	0.05897	-0.137
Mof_N 	N 	0.71046	0.0488	0.06488	-0.149
Mof_N 	N 	0.79632	0.0311	0.41691	-0.192
Mof_N 	N 	0.43886	0.3851	0.41184	-0.214
Mof_N 	N 	0.79904	0.2494	0.77171	-0.2
Mof_N 	N 	0.64806	0.2105	0.47292	-0.137
Mof_N 	N 	0.65314	0.2683	0.55984	-0.142
Mof_N 	N 	0.73848	0.1773	0.56333	-0.137
Mof_Ag	Ag	0.1772	0.24959	0.63259	0.535
Mof_Ag	Ag	0.65652	0.45725	0.13233	0.522
Mof_C 	C 	0.99794	0.3827	0.50329	-0.135
Mof_H 	H 	0.9785	0.3818	0.4632	0.086
Mof_C 	C 	0.9671	0.812	0.08881	-0.142
Mof_H 	H 	0.9456	0.7905	0.11	0.081
Mof_C 	C 	0.8761	0.7575	0.99732	0.096
Mof_C 	C 	0.94022	0.8021	0.02954	0.061
Mof_C 	C 	0.7225	0.6369	0.49045	-0.132
Mof_H 	H 	0.7017	0.6338	0.4504	0.073
Mof_C 	C 	0.76412	0.5667	0.11144	0.082
Mof_H 	H 	0.786	0.5604	0.1512	-0.009
Mof_C 	C 	0.7805	0.6505	0.60753	0.066
Mof_H 	H 	0.8007	0.6553	0.6475	-0.026
Mof_C 	C 	0.05734	0.3424	0.53449	0.086
Mof_H 	H 	0.0777	0.3152	0.5144	-0.012
Mof_C 	C 	0.90297	0.4686	0.4985	0.1
Mof_C 	C 	0.97397	0.8362	0.99988	-0.143
Mof_H 	H 	0.9564	0.832	0.96	0.074
Mof_C 	C 	0.79031	0.7263	0.91208	0.101
Mof_C 	C 	0.03372	0.8761	0.03052	0.069
Mof_H 	H 	0.0563	0.8979	0.0104	-0.019
Mof_C 	C 	0.96752	0.4247	0.5326	0.066
Mof_C 	C 	0.6942	0.5069	0.25711	0.071
Mof_H 	H 	0.6502	0.5243	0.2362	-0.023
Mof_C 	C 	0.78478	0.5998	0.52187	0.052
Mof_C 	C 	0.8226	0.4567	0.31827	-0.136
Mof_H 	H 	0.8666	0.4386	0.3382	0.081
Mof_C 	C 	0.99838	0.4245	0.59251	-0.138
Mof_H 	H 	0.9798	0.4532	0.6134	0.08
Mof_C 	C 	0.67389	0.5406	0.02563	0.086
Mof_H 	H 	0.6322	0.5164	0.0052	-0.012
Mof_C 	C 	0.75719	0.7361	0.84808	0.06
Mof_C 	C 	0.6734	0.7025	0.75531	0.085
Mof_H 	H 	0.6347	0.6734	0.7328	-0.022
Mof_C 	C 	0.6924	0.6787	0.52037	0.071
Mof_H 	H 	0.651	0.7034	0.4994	-0.01
Mof_C 	C 	0.70152	0.5844	0.99488	-0.133
Mof_H 	H 	0.6791	0.5886	0.955	0.084
Mof_C 	C 	0.02652	0.8545	0.11558	0.071
Mof_H 	H 	0.0436	0.8625	0.1552	-0.02
Mof_C 	C 	0.82091	0.5021	0.41156	0.096
Mof_C 	C 	0.794	0.6727	0.99428	0.102
Mof_C 	C 	0.05727	0.381	0.62033	0.083
Mof_H 	H 	0.077	0.3798	0.6604	-0.007
Mof_C 	C 	0.7232	0.5177	0.31626	-0.14
Mof_H 	H 	0.699	0.5412	0.3345	0.072
Mof_C 	C 	0.81415	0.608	0.58147	-0.133
Mof_H 	H 	0.856	0.5851	0.6036	0.077
Mof_C 	C 	0.81802	0.5504	0.49282	0.094
Mof_C 	C 	0.7898	0.4482	0.25926	0.079
Mof_H 	H 	0.8127	0.4245	0.24	-0.015
Mof_C 	C 	0.76364	0.622	0.02498	0.068
Mof_C 	C 	0.78927	0.4928	0.34789	0.053
Mof_C 	C 	0.79529	0.6117	0.08466	-0.132
Mof_H 	H 	0.8371	0.6351	0.1062	0.084
Mof_C 	C 	0.7849	0.7878	0.82149	-0.134
Mof_H 	H 	0.8227	0.8188	0.8433	0.069
Mof_C 	C 	0.7556	0.7929	0.76216	0.069
Mof_H 	H 	0.7745	0.828	0.7447	-0.016
Mof_C 	C 	0.6988	0.6945	0.81436	-0.142
Mof_H 	H 	0.6773	0.6621	0.8311	0.084
Mof_N 	N 	0.08766	0.3401	0.59254	-0.188
Mof_N 	N 	0.7259	0.4726	0.2282	-0.198
Mof_N 	N 	0.72037	0.68523	0.5784	-0.208
Mof_N 	N 	0.87417	0.5094	0.52662	-0.14
Mof_N 	N 	0.87869	0.462	0.44103	-0.137
Mof_N 	N 	0.78954	0.5488	0.43512	-0.149
Mof_N 	N 	0.70368	0.5311	0.08309	-0.192
Mof_N 	N 	0.06114	0.8851	0.08816	-0.214
Mof_N 	N 	0.70096	0.7494	0.72829	-0.2
Mof_N 	N 	0.85194	0.7105	0.02708	-0.136
Mof_N 	N 	0.84686	0.7683	0.94016	-0.142
Mof_N 	N 	0.76152	0.6773	0.93667	-0.137
Mof_Ag	Ag	0.6772	0.74959	0.63259	0.535
Mof_Ag	Ag	0.15652	0.95725	0.13233	0.522
Mof_C 	C 	0.49794	0.8827	0.50329	-0.135
Mof_H 	H 	0.4785	0.8818	0.4632	0.086
Mof_C 	C 	0.4671	0.312	0.08881	-0.142
Mof_H 	H 	0.4456	0.2905	0.11	0.081
Mof_C 	C 	0.3761	0.2575	0.99732	0.097
Mof_C 	C 	0.44022	0.3021	0.02954	0.06
Mof_C 	C 	0.2225	0.1369	0.49045	-0.132
Mof_H 	H 	0.2017	0.1338	0.4504	0.073
Mof_C 	C 	0.26412	0.0667	0.11144	0.081
Mof_H 	H 	0.286	0.0604	0.1512	-0.009
Mof_C 	C 	0.2805	0.1505	0.60753	0.066
Mof_H 	H 	0.3007	0.1553	0.6475	-0.026
Mof_C 	C 	0.55734	0.8424	0.53449	0.085
Mof_H 	H 	0.5777	0.8152	0.5144	-0.012
Mof_C 	C 	0.40297	0.9686	0.4985	0.1
Mof_C 	C 	0.47397	0.3362	0.99988	-0.142
Mof_H 	H 	0.4564	0.332	0.96	0.074
Mof_C 	C 	0.29031	0.2263	0.91208	0.101
Mof_C 	C 	0.53372	0.3761	0.03052	0.069
Mof_H 	H 	0.5563	0.3979	0.0104	-0.019
Mof_C 	C 	0.46752	0.9247	0.5326	0.066
Mof_C 	C 	0.1942	0.0069	0.25711	0.071
Mof_H 	H 	0.1502	0.0243	0.2362	-0.023
Mof_C 	C 	0.28478	0.0998	0.52187	0.052
Mof_C 	C 	0.3226	0.9567	0.31827	-0.136
Mof_H 	H 	0.3666	0.9386	0.3382	0.081
Mof_C 	C 	0.49838	0.9245	0.59251	-0.137
Mof_H 	H 	0.4798	0.9532	0.6134	0.08
Mof_C 	C 	0.17389	0.0406	0.02563	0.085
Mof_H 	H 	0.1322	0.0164	0.0052	-0.012
Mof_C 	C 	0.25719	0.2361	0.84808	0.06
Mof_C 	C 	0.1734	0.2025	0.75531	0.085
Mof_H 	H 	0.1347	0.1734	0.7328	-0.022
Mof_C 	C 	0.1924	0.1787	0.52037	0.071
Mof_H 	H 	0.151	0.2034	0.4994	-0.01
Mof_C 	C 	0.20152	0.0844	0.99488	-0.131
Mof_H 	H 	0.1791	0.0886	0.955	0.084
Mof_C 	C 	0.52652	0.3545	0.11558	0.072
Mof_H 	H 	0.5436	0.3625	0.1552	-0.02
Mof_C 	C 	0.32091	0.0021	0.41156	0.096
Mof_C 	C 	0.294	0.1727	0.99428	0.103
Mof_C 	C 	0.55727	0.881	0.62033	0.083
Mof_H 	H 	0.577	0.8798	0.6604	-0.007
Mof_C 	C 	0.2232	0.0177	0.31626	-0.139
Mof_H 	H 	0.199	0.0412	0.3345	0.072
Mof_C 	C 	0.31415	0.108	0.58147	-0.133
Mof_H 	H 	0.356	0.0851	0.6036	0.077
Mof_C 	C 	0.31802	0.0504	0.49282	0.094
Mof_C 	C 	0.2898	0.9482	0.25926	0.079
Mof_H 	H 	0.3127	0.9245	0.24	-0.015
Mof_C 	C 	0.26364	0.122	0.02498	0.066
Mof_C 	C 	0.28927	0.9928	0.34789	0.053
Mof_C 	C 	0.29529	0.1117	0.08466	-0.131
Mof_H 	H 	0.3371	0.1351	0.1062	0.083
Mof_C 	C 	0.2849	0.2878	0.82149	-0.134
Mof_H 	H 	0.3227	0.3188	0.8433	0.069
Mof_C 	C 	0.2556	0.2929	0.76216	0.069
Mof_H 	H 	0.2745	0.328	0.7447	-0.016
Mof_C 	C 	0.1988	0.1945	0.81436	-0.142
Mof_H 	H 	0.1773	0.1621	0.8311	0.084
Mof_N 	N 	0.58766	0.8401	0.59254	-0.188
Mof_N 	N 	0.2259	0.9726	0.2282	-0.198
Mof_N 	N 	0.22037	0.18523	0.5784	-0.208
Mof_N 	N 	0.37417	0.0094	0.52662	-0.14
Mof_N 	N 	0.37869	0.962	0.44103	-0.137
Mof_N 	N 	0.28954	0.0488	0.43512	-0.149
Mof_N 	N 	0.20368	0.0311	0.08309	-0.191
Mof_N 	N 	0.56114	0.3851	0.08816	-0.214
Mof_N 	N 	0.20096	0.2494	0.72829	-0.2
Mof_N 	N 	0.35194	0.2105	0.02708	-0.137
Mof_N 	N 	0.34686	0.2683	0.94016	-0.142
Mof_N 	N 	0.26152	0.1773	0.93667	-0.137
Mof_Ag	Ag	0.1772	0.75041	0.13259	0.535
Mof_Ag	Ag	0.65652	0.54275	0.63233	0.522
Mof_C 	C 	0.99794	0.6173	0.00329	-0.132
Mof_H 	H 	0.9785	0.6182	0.9632	0.084
Mof_C 	C 	0.9671	0.188	0.58881	-0.142
Mof_H 	H 	0.9456	0.2095	0.61	0.081
Mof_C 	C 	0.8761	0.2425	0.49732	0.097
Mof_C 	C 	0.94022	0.1979	0.52954	0.059
Mof_C 	C 	0.7225	0.3631	0.99045	-0.135
Mof_H 	H 	0.7017	0.3662	0.9504	0.074
Mof_C 	C 	0.76412	0.4333	0.61144	0.081
Mof_H 	H 	0.786	0.4396	0.6512	-0.009
Mof_C 	C 	0.7805	0.3495	0.10753	0.067
Mof_H 	H 	0.8007	0.3447	0.1475	-0.026
Mof_C 	C 	0.05734	0.6576	0.03449	0.083
Mof_H 	H 	0.0777	0.6848	0.0144	-0.011
Mof_C 	C 	0.90297	0.5314	0.9985	0.099
Mof_C 	C 	0.97397	0.1638	0.49988	-0.142
Mof_H 	H 	0.9564	0.168	0.46	0.074
Mof_C 	C 	0.79031	0.2737	0.41208	0.101
Mof_C 	C 	0.03372	0.1239	0.53052	0.068
Mof_H 	H 	0.0563	0.1021	0.5104	-0.019
Mof_C 	C 	0.96752	0.5753	0.0326	0.065
Mof_C 	C 	0.6942	0.4931	0.75711	0.071
Mof_H 	H 	0.6502	0.4757	0.7362	-0.023
Mof_C 	C 	0.78478	0.4002	0.02187	0.055
Mof_C 	C 	0.8226	0.5433	0.81827	-0.136
Mof_H 	H 	0.8666	0.5614	0.8382	0.081
Mof_C 	C 	0.99838	0.5755	0.09251	-0.135
Mof_H 	H 	0.9798	0.5468	0.1134	0.08
Mof_C 	C 	0.67389	0.4594	0.52563	0.085
Mof_H 	H 	0.6322	0.4836	0.5052	-0.012
Mof_C 	C 	0.75719	0.2639	0.34808	0.06
Mof_C 	C 	0.6734	0.2975	0.25531	0.085
Mof_H 	H 	0.6347	0.3266	0.2328	-0.022
Mof_C 	C 	0.6924	0.3213	0.02037	0.074
Mof_H 	H 	0.651	0.2966	0.9994	-0.011
Mof_C 	C 	0.70152	0.4156	0.49488	-0.131
Mof_H 	H 	0.6791	0.4114	0.455	0.084
Mof_C 	C 	0.02652	0.1455	0.61558	0.072
Mof_H 	H 	0.0436	0.1375	0.6552	-0.02
Mof_C 	C 	0.82091	0.4979	0.91156	0.096
Mof_C 	C 	0.794	0.3273	0.49428	0.103
Mof_C 	C 	0.05727	0.619	0.12033	0.081
Mof_H 	H 	0.077	0.6202	0.1604	-0.007
Mof_C 	C 	0.7232	0.4823	0.81626	-0.14
Mof_H 	H 	0.699	0.4588	0.8345	0.072
Mof_C 	C 	0.81415	0.392	0.08147	-0.135
Mof_H 	H 	0.856	0.4149	0.1036	0.078
Mof_C 	C 	0.81802	0.4496	0.99282	0.092
Mof_C 	C 	0.7898	0.5518	0.75926	0.079
Mof_H 	H 	0.8127	0.5755	0.74	-0.015
Mof_C 	C 	0.76364	0.378	0.52498	0.067
Mof_C 	C 	0.78927	0.5072	0.84789	0.053
Mof_C 	C 	0.79529	0.3883	0.58466	-0.131
Mof_H 	H 	0.8371	0.3649	0.6062	0.083
Mof_C 	C 	0.7849	0.2122	0.32149	-0.134
Mof_H 	H 	0.8227	0.1812	0.3433	0.069
Mof_C 	C 	0.7556	0.2071	0.26216	0.069
Mof_H 	H 	0.7745	0.172	0.2447	-0.016
Mof_C 	C 	0.6988	0.3055	0.31436	-0.142
Mof_H 	H 	0.6773	0.3379	0.3311	0.084
Mof_N 	N 	0.08766	0.6599	0.09254	-0.187
Mof_N 	N 	0.7259	0.5274	0.7282	-0.198
Mof_N 	N 	0.72037	0.31477	0.0784	-0.209
Mof_N 	N 	0.87417	0.4906	0.02662	-0.139
Mof_N 	N 	0.87869	0.538	0.94103	-0.137
Mof_N 	N 	0.78954	0.4512	0.93512	-0.149
Mof_N 	N 	0.70368	0.4689	0.58309	-0.192
Mof_N 	N 	0.06114	0.1149	0.58816	-0.214
Mof_N 	N 	0.70096	0.2506	0.22829	-0.2
Mof_N 	N 	0.85194	0.2895	0.52708	-0.137
Mof_N 	N 	0.84686	0.2317	0.44016	-0.142
Mof_N 	N 	0.76152	0.3227	0.43667	-0.137
Mof_Ag	Ag	0.6772	0.25041	0.13259	0.535
Mof_Ag	Ag	0.15652	0.04275	0.63233	0.522
Mof_C 	C 	0.49794	0.1173	0.00329	-0.134
Mof_H 	H 	0.4785	0.1182	0.9632	0.086
Mof_C 	C 	0.4671	0.688	0.58881	-0.142
Mof_H 	H 	0.4456	0.7095	0.61	0.081
Mof_C 	C 	0.3761	0.7425	0.49732	0.097
Mof_C 	C 	0.44022	0.6979	0.52954	0.059
Mof_C 	C 	0.2225	0.8631	0.99045	-0.127
Mof_H 	H 	0.2017	0.8662	0.9504	0.072
Mof_C 	C 	0.26412	0.9333	0.61144	0.081
Mof_H 	H 	0.286	0.9396	0.6512	-0.009
Mof_C 	C 	0.2805	0.8495	0.10753	0.065
Mof_H 	H 	0.3007	0.8447	0.1475	-0.025
Mof_C 	C 	0.55734	0.1576	0.03449	0.085
Mof_H 	H 	0.5777	0.1848	0.0144	-0.012
Mof_C 	C 	0.40297	0.0314	0.9985	0.1
Mof_C 	C 	0.47397	0.6638	0.49988	-0.141
Mof_H 	H 	0.4564	0.668	0.46	0.074
Mof_C 	C 	0.29031	0.7737	0.41208	0.101
Mof_C 	C 	0.53372	0.6239	0.53052	0.068
Mof_H 	H 	0.5563	0.6021	0.5104	-0.018
Mof_C 	C 	0.46752	0.0753	0.0326	0.066
Mof_C 	C 	0.1942	0.9931	0.75711	0.071
Mof_H 	H 	0.1502	0.9757	0.7362	-0.023
Mof_C 	C 	0.28478	0.9002	0.02187	0.049
Mof_C 	C 	0.3226	0.0433	0.81827	-0.136
Mof_H 	H 	0.3666	0.0614	0.8382	0.081
Mof_C 	C 	0.49838	0.0755	0.09251	-0.137
Mof_H 	H 	0.4798	0.0468	0.1134	0.08
Mof_C 	C 	0.17389	0.9594	0.52563	0.085
Mof_H 	H 	0.1322	0.9836	0.5052	-0.012
Mof_C 	C 	0.25719	0.7639	0.34808	0.06
Mof_C 	C 	0.1734	0.7975	0.25531	0.085
Mof_H 	H 	0.1347	0.8266	0.2328	-0.022
Mof_C 	C 	0.1924	0.8213	0.02037	0.067
Mof_H 	H 	0.151	0.7966	0.9994	-0.008
Mof_C 	C 	0.20152	0.9156	0.49488	-0.131
Mof_H 	H 	0.1791	0.9114	0.455	0.084
Mof_C 	C 	0.52652	0.6455	0.61558	0.072
Mof_H 	H 	0.5436	0.6375	0.6552	-0.02
Mof_C 	C 	0.32091	0.9979	0.91156	0.097
Mof_C 	C 	0.294	0.8273	0.49428	0.103
Mof_C 	C 	0.55727	0.119	0.12033	0.083
Mof_H 	H 	0.577	0.1202	0.1604	-0.007
Mof_C 	C 	0.2232	0.9823	0.81626	-0.139
Mof_H 	H 	0.199	0.9588	0.8345	0.072
Mof_C 	C 	0.31415	0.892	0.08147	-0.131
Mof_H 	H 	0.356	0.9149	0.1036	0.076
Mof_C 	C 	0.31802	0.9496	0.99282	0.096
Mof_C 	C 	0.2898	0.0518	0.75926	0.079
Mof_H 	H 	0.3127	0.0755	0.74	-0.015
Mof_C 	C 	0.26364	0.878	0.52498	0.067
Mof_C 	C 	0.28927	0.0072	0.84789	0.052
Mof_C 	C 	0.29529	0.8883	0.58466	-0.131
Mof_H 	H 	0.3371	0.8649	0.6062	0.083
Mof_C 	C 	0.2849	0.7122	0.32149	-0.134
Mof_H 	H 	0.3227	0.6812	0.3433	0.069
Mof_C 	C 	0.2556	0.7071	0.26216	0.069
Mof_H 	H 	0.2745	0.672	0.2447	-0.016
Mof_C 	C 	0.1988	0.8055	0.31436	-0.142
Mof_H 	H 	0.1773	0.8379	0.3311	0.084
Mof_N 	N 	0.58766	0.1599	0.09254	-0.188
Mof_N 	N 	0.2259	0.0274	0.7282	-0.198
Mof_N 	N 	0.22037	0.81477	0.0784	-0.207
Mof_N 	N 	0.37417	0.9906	0.02662	-0.141
Mof_N 	N 	0.37869	0.038	0.94103	-0.137
Mof_N 	N 	0.28954	0.9512	0.93512	-0.149
Mof_N 	N 	0.20368	0.9689	0.58309	-0.192
Mof_N 	N 	0.56114	0.6149	0.58816	-0.214
Mof_N 	N 	0.20096	0.7506	0.22829	-0.2
Mof_N 	N 	0.35194	0.7895	0.52708	-0.137
Mof_N 	N 	0.34686	0.7317	0.44016	-0.142
Mof_N 	N 	0.26152	0.8227	0.43667	-0.137
Mof_Ag	Ag	0.8228	0.75041	0.36741	0.535
Mof_Ag	Ag	0.34348	0.54275	0.86767	0.522
Mof_C 	C 	0.00206	0.6173	0.49671	-0.135
Mof_H 	H 	0.0215	0.6182	0.5368	0.086
Mof_C 	C 	0.0329	0.188	0.91119	-0.142
Mof_H 	H 	0.0544	0.2095	0.89	0.081
Mof_C 	C 	0.1239	0.2425	0.00268	0.096
Mof_C 	C 	0.05978	0.1979	0.97046	0.061
Mof_C 	C 	0.2775	0.3631	0.50955	-0.132
Mof_H 	H 	0.2983	0.3662	0.5496	0.073
Mof_C 	C 	0.23588	0.4333	0.88856	0.082
Mof_H 	H 	0.214	0.4396	0.8488	-0.009
Mof_C 	C 	0.2195	0.3495	0.39247	0.066
Mof_H 	H 	0.1993	0.3447	0.3525	-0.026
Mof_C 	C 	0.94266	0.6576	0.46551	0.086
Mof_H 	H 	0.9223	0.6848	0.4856	-0.012
Mof_C 	C 	0.09703	0.5314	0.5015	0.1
Mof_C 	C 	0.02603	0.1638	0.00012	-0.143
Mof_H 	H 	0.0436	0.168	0.04	0.074
Mof_C 	C 	0.20969	0.2737	0.08792	0.101
Mof_C 	C 	0.96628	0.1239	0.96948	0.069
Mof_H 	H 	0.9437	0.1021	0.9896	-0.019
Mof_C 	C 	0.03248	0.5753	0.4674	0.066
Mof_C 	C 	0.3058	0.4931	0.74289	0.071
Mof_H 	H 	0.3498	0.4757	0.7638	-0.023
Mof_C 	C 	0.21522	0.4002	0.47813	0.052
Mof_C 	C 	0.1774	0.5433	0.68173	-0.136
Mof_H 	H 	0.1334	0.5614	0.6618	0.081
Mof_C 	C 	0.00162	0.5755	0.40749	-0.138
Mof_H 	H 	0.0202	0.5468	0.3866	0.08
Mof_C 	C 	0.32611	0.4594	0.97437	0.086
Mof_H 	H 	0.3678	0.4836	0.9948	-0.012
Mof_C 	C 	0.24281	0.2639	0.15192	0.06
Mof_C 	C 	0.3266	0.2975	0.24469	0.085
Mof_H 	H 	0.3653	0.3266	0.2672	-0.022
Mof_C 	C 	0.3076	0.3213	0.47963	0.071
Mof_H 	H 	0.349	0.2966	0.5006	-0.01
Mof_C 	C 	0.29848	0.4156	0.00512	-0.133
Mof_H 	H 	0.3209	0.4114	0.045	0.084
Mof_C 	C 	0.97348	0.1455	0.88442	0.071
Mof_H 	H 	0.9564	0.1375	0.8448	-0.02
Mof_C 	C 	0.17909	0.4979	0.58844	0.096
Mof_C 	C 	0.206	0.3273	0.00572	0.102
Mof_C 	C 	0.94273	0.619	0.37967	0.083
Mof_H 	H 	0.923	0.6202	0.3396	-0.007
Mof_C 	C 	0.2768	0.4823	0.68374	-0.14
Mof_H 	H 	0.301	0.4588	0.6655	0.072
Mof_C 	C 	0.18585	0.392	0.41853	-0.133
Mof_H 	H 	0.144	0.4149	0.3964	0.077
Mof_C 	C 	0.18198	0.4496	0.50718	0.094
Mof_C 	C 	0.2102	0.5518	0.74074	0.079
Mof_H 	H 	0.1873	0.5755	0.76	-0.015
Mof_C 	C 	0.23636	0.378	0.97502	0.068
Mof_C 	C 	0.21073	0.5072	0.65211	0.053
Mof_C 	C 	0.20471	0.3883	0.91534	-0.132
Mof_H 	H 	0.1629	0.3649	0.8938	0.084
Mof_C 	C 	0.2151	0.2122	0.17851	-0.134
Mof_H 	H 	0.1773	0.1812	0.1567	0.069
Mof_C 	C 	0.2444	0.2071	0.23784	0.069
Mof_H 	H 	0.2255	0.172	0.2553	-0.016
Mof_C 	C 	0.3012	0.3055	0.18564	-0.142
Mof_H 	H 	0.3227	0.3379	0.1689	0.084
Mof_N 	N 	0.91234	0.6599	0.40746	-0.188
Mof_N 	N 	0.2741	0.5274	0.7718	-0.198
Mof_N 	N 	0.27963	0.31477	0.4216	-0.208
Mof_N 	N 	0.12583	0.4906	0.47338	-0.14
Mof_N 	N 	0.12131	0.538	0.55897	-0.137
Mof_N 	N 	0.21046	0.4512	0.56488	-0.149
Mof_N 	N 	0.29632	0.4689	0.91691	-0.192
Mof_N 	N 	0.93886	0.1149	0.91184	-0.214
Mof_N 	N 	0.29904	0.2506	0.27171	-0.2
Mof_N 	N 	0.14806	0.2895	0.97292	-0.136
Mof_N 	N 	0.15314	0.2317	0.05984	-0.142
Mof_N 	N 	0.23848	0.3227	0.06333	-0.137
Mof_Ag	Ag	0.3228	0.25041	0.36741	0.535
Mof_Ag	Ag	0.84348	0.04275	0.86767	0.522
Mof_C 	C 	0.50206	0.1173	0.49671	-0.135
Mof_H 	H 	0.5215	0.1182	0.5368	0.086
Mof_C 	C 	0.5329	0.688	0.91119	-0.142
Mof_H 	H 	0.5544	0.7095	0.89	0.081
Mof_C 	C 	0.6239	0.7425	0.00268	0.097
Mof_C 	C 	0.55978	0.6979	0.97046	0.06
Mof_C 	C 	0.7775	0.8631	0.50955	-0.132
Mof_H 	H 	0.7983	0.8662	0.5496	0.073
Mof_C 	C 	0.73588	0.9333	0.88856	0.081
Mof_H 	H 	0.714	0.9396	0.8488	-0.009
Mof_C 	C 	0.7195	0.8495	0.39247	0.066
Mof_H 	H 	0.6993	0.8447	0.3525	-0.026
Mof_C 	C 	0.44266	0.1576	0.46551	0.085
Mof_H 	H 	0.4223	0.1848	0.4856	-0.012
Mof_C 	C 	0.59703	0.0314	0.5015	0.1
Mof_C 	C 	0.52603	0.6638	0.00012	-0.142
Mof_H 	H 	0.5436	0.668	0.04	0.074
Mof_C 	C 	0.70969	0.7737	0.08792	0.101
Mof_C 	C 	0.46628	0.6239	0.96948	0.069
Mof_H 	H 	0.4437	0.6021	0.9896	-0.019
Mof_C 	C 	0.53248	0.0753	0.4674	0.066
Mof_C 	C 	0.8058	0.9931	0.74289	0.071
Mof_H 	H 	0.8498	0.9757	0.7638	-0.023
Mof_C 	C 	0.71522	0.9002	0.47813	0.052
Mof_C 	C 	0.6774	0.0433	0.68173	-0.136
Mof_H 	H 	0.6334	0.0614	0.6618	0.081
Mof_C 	C 	0.50162	0.0755	0.40749	-0.137
Mof_H 	H 	0.5202	0.0468	0.3866	0.08
Mof_C 	C 	0.82611	0.9594	0.97437	0.085
Mof_H 	H 	0.8678	0.9836	0.9948	-0.012
Mof_C 	C 	0.74281	0.7639	0.15192	0.06
Mof_C 	C 	0.8266	0.7975	0.24469	0.085
Mof_H 	H 	0.8653	0.8266	0.2672	-0.022
Mof_C 	C 	0.8076	0.8213	0.47963	0.071
Mof_H 	H 	0.849	0.7966	0.5006	-0.01
Mof_C 	C 	0.79848	0.9156	0.00512	-0.131
Mof_H 	H 	0.8209	0.9114	0.045	0.084
Mof_C 	C 	0.47348	0.6455	0.88442	0.072
Mof_H 	H 	0.4564	0.6375	0.8448	-0.02
Mof_C 	C 	0.67909	0.9979	0.58844	0.096
Mof_C 	C 	0.706	0.8273	0.00572	0.103
Mof_C 	C 	0.44273	0.119	0.37967	0.083
Mof_H 	H 	0.423	0.1202	0.3396	-0.007
Mof_C 	C 	0.7768	0.9823	0.68374	-0.139
Mof_H 	H 	0.801	0.9588	0.6655	0.072
Mof_C 	C 	0.68585	0.892	0.41853	-0.133
Mof_H 	H 	0.644	0.9149	0.3964	0.077
Mof_C 	C 	0.68198	0.9496	0.50718	0.094
Mof_C 	C 	0.7102	0.0518	0.74074	0.079
Mof_H 	H 	0.6873	0.0755	0.76	-0.015
Mof_C 	C 	0.73636	0.878	0.97502	0.066
Mof_C 	C 	0.71073	0.0072	0.65211	0.053
Mof_C 	C 	0.70471	0.8883	0.91534	-0.131
Mof_H 	H 	0.6629	0.8649	0.8938	0.083
Mof_C 	C 	0.7151	0.7122	0.17851	-0.134
Mof_H 	H 	0.6773	0.6812	0.1567	0.069
Mof_C 	C 	0.7444	0.7071	0.23784	0.069
Mof_H 	H 	0.7255	0.672	0.2553	-0.016
Mof_C 	C 	0.8012	0.8055	0.18564	-0.142
Mof_H 	H 	0.8227	0.8379	0.1689	0.084
Mof_N 	N 	0.41234	0.1599	0.40746	-0.188
Mof_N 	N 	0.7741	0.0274	0.7718	-0.198
Mof_N 	N 	0.77963	0.81477	0.4216	-0.208
Mof_N 	N 	0.62583	0.9906	0.47338	-0.14
Mof_N 	N 	0.62131	0.038	0.55897	-0.137
Mof_N 	N 	0.71046	0.9512	0.56488	-0.149
Mof_N 	N 	0.79632	0.9689	0.91691	-0.191
Mof_N 	N 	0.43886	0.6149	0.91184	-0.214
Mof_N 	N 	0.79904	0.7506	0.27171	-0.2
Mof_N 	N 	0.64806	0.7895	0.97292	-0.137
Mof_N 	N 	0.65314	0.7317	0.05984	-0.142
Mof_N 	N 	0.73848	0.8227	0.06333	-0.137
_end
