# CIF file generated by openbabel 3.1.0, see https://openbabel.org
data_I
_chemical_name_common 'image0'
_cell_length_a 29.555
_cell_length_b 28.856
_cell_length_c 17.719
_cell_angle_alpha 90
_cell_angle_beta 90
_cell_angle_gamma 90
_space_group_name_H-M_alt 'P 1'
_space_group_name_Hall 'P 1'
loop_
    _symmetry_equiv_pos_as_xyz
    x,y,z
loop_
    _atom_site_label
    _atom_site_type_symbol
    _atom_site_fract_x
    _atom_site_fract_y
    _atom_site_fract_z
    _atom_site_occupancy
    Zn1      Zn       0.83755    0.75680    0.95392    1.000
    O1       O        0.82912    0.75689    0.83680    1.000
    C1       C        0.89490    0.67190    0.91220    1.000
    Zn2      Zn       0.81599    0.82151    0.81071    1.000
    O2       O        0.83840    0.75030    0.07400    1.000
    C2       C        0.91130    0.62940    0.95350    1.000
    Zn3      Zn       0.87561    0.72392    0.77922    1.000
    N1       N        0.96100    0.74430    0.30900    1.000
    C3       C        0.91840    0.58780    0.91380    1.000
    H1       H        0.91370    0.58670    0.86080    1.000
    C4       C        0.93210    0.54840    0.95210    1.000
    Zn4      Zn       0.93798    0.43988    0.79534    1.000
    C5       C        0.94010    0.50370    0.91100    1.000
    Zn5      Zn       0.96421    0.86499    0.28738    1.000
    C6       C        0.93820    0.55030    0.02930    1.000
    H2       H        0.94810    0.52330    0.05510    1.000
    Zn6      Zn       0.94304    0.92624    0.31588    1.000
    C7       C        0.93030    0.59090    0.07090    1.000
    C8       C        0.93380    0.59200    0.15480    1.000
    C9       C        0.91720    0.63050    0.03080    1.000
    H3       H        0.91210    0.65870    0.05740    1.000
    O3       O        0.88884    0.70699    0.95000    1.000
    C10      C        0.87930    0.85170    0.92210    1.000
    O4       O        0.88780    0.66803    0.84150    1.000
    C11      C        0.90140    0.88920    0.96500    1.000
    O5       O        0.93238    0.50228    0.84070    1.000
    C12      C        0.91340    0.88100    0.03980    1.000
    H4       H        0.90910    0.85120    0.06140    1.000
    O6       O        0.95181    0.46939    0.95000    1.000
    C13      C        0.93200    0.91730    0.08310    1.000
    O7       O        0.93150    0.55281    0.18710    1.000
    C14      C        0.94290    0.90920    0.16520    1.000
    O8       O        0.93880    0.62869    0.18750    1.000
    C15      C        0.93840    0.96080    0.05060    1.000
    H5       H        0.95040    0.98550    0.07990    1.000
    O9       O        0.88268    0.81115    0.94690    1.000
    C16      C        0.92740    0.96810    0.97610    1.000
    O10      O        0.85645    0.86374    0.86370    1.000
    C17      C        0.93870    0.01390    0.93870    1.000
    O11      O        0.94590    0.87058    0.19140    1.000
    C18      C        0.90930    0.93310    0.93260    1.000
    H6       H        0.90220    0.93850    0.88110    1.000
    O12      O        0.93230    0.94430    0.21130    1.000
    C19      C        0.75110    0.70370    0.92890    1.000
    O13      O        0.95240    0.04599    0.98150    1.000
    C20      C        0.70870    0.68810    0.96760    1.000
    O14      O        0.93460    0.01674    0.86930    1.000
    C21      C        0.67070    0.67550    0.92670    1.000
    H7       H        0.67180    0.67590    0.87310    1.000
    O15      O        0.78588    0.70871    0.96930    1.000
    C22      C        0.63050    0.66200    0.96320    1.000
    O16      O        0.74949    0.71170    0.86020    1.000
    C23      C        0.59050    0.64590    0.91930    1.000
    O17      O        0.90750    0.85520    0.35030    1.000
    C24      C        0.62810    0.66350    0.04120    1.000
    H8       H        0.60050    0.65690    0.06630    1.000
    O18      O        0.94702    0.85265    0.45150    1.000
    C25      C        0.66720    0.67500    0.08310    1.000
    O19      O        0.62700    0.68580    0.19920    1.000
    C26      C        0.66310    0.67570    0.16770    1.000
    O20      O        0.80103    0.83194    0.70500    1.000
    C27      C        0.70680    0.68700    0.04740    1.000
    H9       H        0.73290    0.69450    0.07630    1.000
    O21      O        0.78457    0.80793    0.96850    1.000
    C28      C        0.75240    0.82280    0.92730    1.000
    O22      O        0.75588    0.83272    0.85900    1.000
    C29      C        0.70730    0.82890    0.96280    1.000
    O23      O        0.89808    0.39873    0.85430    1.000
    C30      C        0.67250    0.84940    0.92260    1.000
    H10      H        0.67780    0.86060    0.87290    1.000
    O24      O        0.05246    0.36942    0.93780    1.000
    C31      C        0.62950    0.85370    0.95490    1.000
    O25      O        0.88970    0.69610    0.67580    1.000
    C32      C        0.90880    0.37570    0.91200    1.000
    O26      O        0.81910    0.71230    0.68720    1.000
    C33      C        0.62190    0.83790    0.02860    1.000
    H11      H        0.59250    0.84050    0.05010    1.000
    C34      C        0.65660    0.81860    0.07030    1.000
    C35      C        0.70010    0.81330    0.03590    1.000
    H12      H        0.72410    0.79910    0.06310    1.000
    C36      C        0.85190    0.69700    0.64900    1.000
    C37      C        0.97620    0.78910    0.29590    1.000
    C38      C        0.91700    0.72940    0.30930    1.000
    N2       N        0.82100    0.69720    0.16880    1.000
    C39      C        0.83740    0.70930    0.09700    1.000
    C40      C        0.80210    0.72530    0.21750    1.000
    H13      H        0.79380    0.70790    0.26300    1.000
    H14      H        0.77490    0.73900    0.19510    1.000
    H15      H        0.82350    0.74990    0.23090    1.000
    C41      C        0.81710    0.64750    0.18870    1.000
    H16      H        0.83210    0.62870    0.15000    1.000
    H17      H        0.78500    0.63890    0.19150    1.000
    H18      H        0.83150    0.64200    0.23770    1.000
    O27      O        0.89910    0.88130    0.35740    1.000
    H19      H        0.10330    0.75620    0.30930    1.000
    H20      H        0.08870    0.71050    0.26430    1.000
    H21      H        0.08850    0.71070    0.35460    1.000
    N3       N        0.84790    0.73200    0.18380    1.000
    O28      O        0.85120    0.76530    0.06750    1.000
    O29      O        0.95800    0.94180    0.19960    1.000
    C42      C        0.83150    0.74380    0.11690    1.000
    C43      C        0.89430    0.74660    0.20340    1.000
    H22      H        0.90250    0.73410    0.25300    1.000
    H23      H        0.89580    0.78050    0.20490    1.000
    H24      H        0.91550    0.73490    0.16540    1.000
    C44      C        0.82520    0.70440    0.24020    1.000
    H25      H        0.84550    0.69920    0.28300    1.000
    H26      H        0.81650    0.67450    0.21820    1.000
    H27      H        0.79800    0.72070    0.25750    1.000
    Zn7      Zn       0.33755    0.25680    0.95392    1.000
    O30      O        0.32912    0.25689    0.83680    1.000
    C45      C        0.39490    0.17190    0.91220    1.000
    Zn8      Zn       0.31599    0.32151    0.81071    1.000
    O31      O        0.33840    0.25030    0.07400    1.000
    C46      C        0.41130    0.12940    0.95350    1.000
    Zn9      Zn       0.37561    0.22392    0.77922    1.000
    N4       N        0.46100    0.24430    0.30900    1.000
    C47      C        0.41840    0.08780    0.91380    1.000
    H28      H        0.41370    0.08670    0.86080    1.000
    C48      C        0.43210    0.04840    0.95210    1.000
    Zn10     Zn       0.43798    0.93988    0.79534    1.000
    C49      C        0.44010    0.00370    0.91100    1.000
    Zn11     Zn       0.46421    0.36499    0.28738    1.000
    C50      C        0.43820    0.05030    0.02930    1.000
    H29      H        0.44810    0.02330    0.05510    1.000
    Zn12     Zn       0.44304    0.42624    0.31588    1.000
    C51      C        0.43030    0.09090    0.07090    1.000
    C52      C        0.43380    0.09200    0.15480    1.000
    C53      C        0.41720    0.13050    0.03080    1.000
    H30      H        0.41210    0.15870    0.05740    1.000
    O32      O        0.38884    0.20699    0.95000    1.000
    C54      C        0.37930    0.35170    0.92210    1.000
    O33      O        0.38780    0.16803    0.84150    1.000
    C55      C        0.40140    0.38920    0.96500    1.000
    O34      O        0.43238    0.00228    0.84070    1.000
    C56      C        0.41340    0.38100    0.03980    1.000
    H31      H        0.40910    0.35120    0.06140    1.000
    O35      O        0.45181    0.96939    0.95000    1.000
    C57      C        0.43200    0.41730    0.08310    1.000
    O36      O        0.43150    0.05281    0.18710    1.000
    C58      C        0.44290    0.40920    0.16520    1.000
    O37      O        0.43880    0.12869    0.18750    1.000
    C59      C        0.43840    0.46080    0.05060    1.000
    H32      H        0.45040    0.48550    0.07990    1.000
    O38      O        0.38268    0.31115    0.94690    1.000
    C60      C        0.42740    0.46810    0.97610    1.000
    O39      O        0.35645    0.36374    0.86370    1.000
    C61      C        0.43870    0.51390    0.93870    1.000
    O40      O        0.44590    0.37058    0.19140    1.000
    C62      C        0.40930    0.43310    0.93260    1.000
    H33      H        0.40220    0.43850    0.88110    1.000
    O41      O        0.43230    0.44430    0.21130    1.000
    C63      C        0.25110    0.20370    0.92890    1.000
    O42      O        0.45240    0.54599    0.98150    1.000
    C64      C        0.20870    0.18810    0.96760    1.000
    O43      O        0.43460    0.51674    0.86930    1.000
    C65      C        0.17070    0.17550    0.92670    1.000
    H34      H        0.17180    0.17590    0.87310    1.000
    O44      O        0.28588    0.20871    0.96930    1.000
    C66      C        0.13050    0.16200    0.96320    1.000
    O45      O        0.24949    0.21170    0.86020    1.000
    C67      C        0.09050    0.14590    0.91930    1.000
    O46      O        0.40750    0.35520    0.35030    1.000
    C68      C        0.12810    0.16350    0.04120    1.000
    H35      H        0.10050    0.15690    0.06630    1.000
    O47      O        0.44702    0.35265    0.45150    1.000
    C69      C        0.16720    0.17500    0.08310    1.000
    O48      O        0.12700    0.18580    0.19920    1.000
    C70      C        0.16310    0.17570    0.16770    1.000
    O49      O        0.30103    0.33194    0.70500    1.000
    C71      C        0.20680    0.18700    0.04740    1.000
    H36      H        0.23290    0.19450    0.07630    1.000
    O50      O        0.28457    0.30793    0.96850    1.000
    C72      C        0.25240    0.32280    0.92730    1.000
    O51      O        0.25588    0.33272    0.85900    1.000
    C73      C        0.20730    0.32890    0.96280    1.000
    O52      O        0.39808    0.89873    0.85430    1.000
    C74      C        0.17250    0.34940    0.92260    1.000
    H37      H        0.17780    0.36060    0.87290    1.000
    O53      O        0.55246    0.86942    0.93780    1.000
    C75      C        0.12950    0.35370    0.95490    1.000
    O54      O        0.38970    0.19610    0.67580    1.000
    C76      C        0.40880    0.87570    0.91200    1.000
    O55      O        0.31910    0.21230    0.68720    1.000
    C77      C        0.12190    0.33790    0.02860    1.000
    H38      H        0.09250    0.34050    0.05010    1.000
    C78      C        0.15660    0.31860    0.07030    1.000
    C79      C        0.20010    0.31330    0.03590    1.000
    H39      H        0.22410    0.29910    0.06310    1.000
    C80      C        0.35190    0.19700    0.64900    1.000
    C81      C        0.47620    0.28910    0.29590    1.000
    C82      C        0.41700    0.22940    0.30930    1.000
    N5       N        0.32100    0.19720    0.16880    1.000
    C83      C        0.33740    0.20930    0.09700    1.000
    C84      C        0.30210    0.22530    0.21750    1.000
    H40      H        0.29380    0.20790    0.26300    1.000
    H41      H        0.27490    0.23900    0.19510    1.000
    H42      H        0.32350    0.24990    0.23090    1.000
    C85      C        0.31710    0.14750    0.18870    1.000
    H43      H        0.33210    0.12870    0.15000    1.000
    H44      H        0.28500    0.13890    0.19150    1.000
    H45      H        0.33150    0.14200    0.23770    1.000
    O56      O        0.39910    0.38130    0.35740    1.000
    H46      H        0.60330    0.25620    0.30930    1.000
    H47      H        0.58870    0.21050    0.26430    1.000
    H48      H        0.58850    0.21070    0.35460    1.000
    N6       N        0.34790    0.23200    0.18380    1.000
    O57      O        0.35120    0.26530    0.06750    1.000
    O58      O        0.45800    0.44180    0.19960    1.000
    C86      C        0.33150    0.24380    0.11690    1.000
    C87      C        0.39430    0.24660    0.20340    1.000
    H49      H        0.40250    0.23410    0.25300    1.000
    H50      H        0.39580    0.28050    0.20490    1.000
    H51      H        0.41550    0.23490    0.16540    1.000
    C88      C        0.32520    0.20440    0.24020    1.000
    H52      H        0.34550    0.19920    0.28300    1.000
    H53      H        0.31650    0.17450    0.21820    1.000
    H54      H        0.29800    0.22070    0.25750    1.000
    Zn13     Zn       0.16245    0.24320    0.45392    1.000
    O59      O        0.17088    0.24311    0.33680    1.000
    C89      C        0.10510    0.32810    0.41220    1.000
    Zn14     Zn       0.18401    0.17849    0.31071    1.000
    O60      O        0.16160    0.24970    0.57400    1.000
    C90      C        0.08870    0.37060    0.45350    1.000
    Zn15     Zn       0.12439    0.27608    0.27922    1.000
    N7       N        0.03900    0.25570    0.80900    1.000
    C91      C        0.08160    0.41220    0.41380    1.000
    H55      H        0.08630    0.41330    0.36080    1.000
    C92      C        0.06790    0.45160    0.45210    1.000
    Zn16     Zn       0.06202    0.56012    0.29534    1.000
    C93      C        0.05990    0.49630    0.41100    1.000
    Zn17     Zn       0.03579    0.13501    0.78738    1.000
    C94      C        0.06180    0.44970    0.52930    1.000
    H56      H        0.05190    0.47670    0.55510    1.000
    Zn18     Zn       0.05696    0.07376    0.81588    1.000
    C95      C        0.06970    0.40910    0.57090    1.000
    C96      C        0.06620    0.40800    0.65480    1.000
    C97      C        0.08280    0.36950    0.53080    1.000
    H57      H        0.08790    0.34130    0.55740    1.000
    O61      O        0.11116    0.29301    0.45000    1.000
    C98      C        0.12070    0.14830    0.42210    1.000
    O62      O        0.11220    0.33197    0.34150    1.000
    C99      C        0.09860    0.11080    0.46500    1.000
    O63      O        0.06762    0.49772    0.34070    1.000
    C100     C        0.08660    0.11900    0.53980    1.000
    H58      H        0.09090    0.14880    0.56140    1.000
    O64      O        0.04819    0.53061    0.45000    1.000
    C101     C        0.06800    0.08270    0.58310    1.000
    O65      O        0.06850    0.44719    0.68710    1.000
    C102     C        0.05710    0.09080    0.66520    1.000
    O66      O        0.06120    0.37131    0.68750    1.000
    C103     C        0.06160    0.03920    0.55060    1.000
    H59      H        0.04960    0.01450    0.57990    1.000
    O67      O        0.11732    0.18885    0.44690    1.000
    C104     C        0.07260    0.03190    0.47610    1.000
    O68      O        0.14355    0.13626    0.36370    1.000
    C105     C        0.06130    0.98610    0.43870    1.000
    O69      O        0.05410    0.12942    0.69140    1.000
    C106     C        0.09070    0.06690    0.43260    1.000
    H60      H        0.09780    0.06150    0.38110    1.000
    O70      O        0.06770    0.05570    0.71130    1.000
    C107     C        0.24890    0.29630    0.42890    1.000
    O71      O        0.04760    0.95401    0.48150    1.000
    C108     C        0.29130    0.31190    0.46760    1.000
    O72      O        0.06540    0.98326    0.36930    1.000
    C109     C        0.32930    0.32450    0.42670    1.000
    H61      H        0.32820    0.32410    0.37310    1.000
    O73      O        0.21412    0.29129    0.46930    1.000
    C110     C        0.36950    0.33800    0.46320    1.000
    O74      O        0.25051    0.28830    0.36020    1.000
    C111     C        0.40950    0.35410    0.41930    1.000
    O75      O        0.09250    0.14480    0.85030    1.000
    C112     C        0.37190    0.33650    0.54120    1.000
    H62      H        0.39950    0.34310    0.56630    1.000
    O76      O        0.05298    0.14735    0.95150    1.000
    C113     C        0.33280    0.32500    0.58310    1.000
    O77      O        0.37300    0.31420    0.69920    1.000
    C114     C        0.33690    0.32430    0.66770    1.000
    O78      O        0.19897    0.16806    0.20500    1.000
    C115     C        0.29320    0.31300    0.54740    1.000
    H63      H        0.26710    0.30550    0.57630    1.000
    O79      O        0.21543    0.19207    0.46850    1.000
    C116     C        0.24760    0.17720    0.42730    1.000
    O80      O        0.24412    0.16728    0.35900    1.000
    C117     C        0.29270    0.17110    0.46280    1.000
    O81      O        0.10192    0.60127    0.35430    1.000
    C118     C        0.32750    0.15060    0.42260    1.000
    H64      H        0.32220    0.13940    0.37290    1.000
    O82      O        0.94754    0.63058    0.43780    1.000
    C119     C        0.37050    0.14630    0.45490    1.000
    O83      O        0.11030    0.30390    0.17580    1.000
    C120     C        0.09120    0.62430    0.41200    1.000
    O84      O        0.18090    0.28770    0.18720    1.000
    C121     C        0.37810    0.16210    0.52860    1.000
    H65      H        0.40750    0.15950    0.55010    1.000
    C122     C        0.34340    0.18140    0.57030    1.000
    C123     C        0.29990    0.18670    0.53590    1.000
    H66      H        0.27590    0.20090    0.56310    1.000
    C124     C        0.14810    0.30300    0.14900    1.000
    C125     C        0.02380    0.21090    0.79590    1.000
    C126     C        0.08300    0.27060    0.80930    1.000
    N8       N        0.17900    0.30280    0.66880    1.000
    C127     C        0.16260    0.29070    0.59700    1.000
    C128     C        0.19790    0.27470    0.71750    1.000
    H67      H        0.20620    0.29210    0.76300    1.000
    H68      H        0.22510    0.26100    0.69510    1.000
    H69      H        0.17650    0.25010    0.73090    1.000
    C129     C        0.18290    0.35250    0.68870    1.000
    H70      H        0.16790    0.37130    0.65000    1.000
    H71      H        0.21500    0.36110    0.69150    1.000
    H72      H        0.16850    0.35800    0.73770    1.000
    O85      O        0.10090    0.11870    0.85740    1.000
    H73      H        0.89670    0.24380    0.80930    1.000
    H74      H        0.91130    0.28950    0.76430    1.000
    H75      H        0.91150    0.28930    0.85460    1.000
    N9       N        0.15210    0.26800    0.68380    1.000
    O86      O        0.14880    0.23470    0.56750    1.000
    O87      O        0.04200    0.05820    0.69960    1.000
    C130     C        0.16850    0.25620    0.61690    1.000
    C131     C        0.10570    0.25340    0.70340    1.000
    H76      H        0.09750    0.26590    0.75300    1.000
    H77      H        0.10420    0.21950    0.70490    1.000
    H78      H        0.08450    0.26510    0.66540    1.000
    C132     C        0.17480    0.29560    0.74020    1.000
    H79      H        0.15450    0.30080    0.78300    1.000
    H80      H        0.18350    0.32550    0.71820    1.000
    H81      H        0.20200    0.27930    0.75750    1.000
    Zn19     Zn       0.66245    0.74320    0.45392    1.000
    O88      O        0.67088    0.74311    0.33680    1.000
    C133     C        0.60510    0.82810    0.41220    1.000
    Zn20     Zn       0.68401    0.67849    0.31071    1.000
    O89      O        0.66160    0.74970    0.57400    1.000
    C134     C        0.58870    0.87060    0.45350    1.000
    Zn21     Zn       0.62439    0.77608    0.27922    1.000
    N10      N        0.53900    0.75570    0.80900    1.000
    C135     C        0.58160    0.91220    0.41380    1.000
    H82      H        0.58630    0.91330    0.36080    1.000
    C136     C        0.56790    0.95160    0.45210    1.000
    Zn22     Zn       0.56202    0.06012    0.29534    1.000
    C137     C        0.55990    0.99630    0.41100    1.000
    Zn23     Zn       0.53579    0.63501    0.78738    1.000
    C138     C        0.56180    0.94970    0.52930    1.000
    H83      H        0.55190    0.97670    0.55510    1.000
    Zn24     Zn       0.55696    0.57376    0.81588    1.000
    C139     C        0.56970    0.90910    0.57090    1.000
    C140     C        0.56620    0.90800    0.65480    1.000
    C141     C        0.58280    0.86950    0.53080    1.000
    H84      H        0.58790    0.84130    0.55740    1.000
    O90      O        0.61116    0.79301    0.45000    1.000
    C142     C        0.62070    0.64830    0.42210    1.000
    O91      O        0.61220    0.83197    0.34150    1.000
    C143     C        0.59860    0.61080    0.46500    1.000
    O92      O        0.56762    0.99772    0.34070    1.000
    C144     C        0.58660    0.61900    0.53980    1.000
    H85      H        0.59090    0.64880    0.56140    1.000
    O93      O        0.54819    0.03061    0.45000    1.000
    C145     C        0.56800    0.58270    0.58310    1.000
    O94      O        0.56850    0.94719    0.68710    1.000
    C146     C        0.55710    0.59080    0.66520    1.000
    O95      O        0.56120    0.87131    0.68750    1.000
    C147     C        0.56160    0.53920    0.55060    1.000
    H86      H        0.54960    0.51450    0.57990    1.000
    O96      O        0.61732    0.68885    0.44690    1.000
    C148     C        0.57260    0.53190    0.47610    1.000
    O97      O        0.64355    0.63626    0.36370    1.000
    C149     C        0.56130    0.48610    0.43870    1.000
    O98      O        0.55410    0.62942    0.69140    1.000
    C150     C        0.59070    0.56690    0.43260    1.000
    H87      H        0.59780    0.56150    0.38110    1.000
    O99      O        0.56770    0.55570    0.71130    1.000
    C151     C        0.74890    0.79630    0.42890    1.000
    O100     O        0.54760    0.45401    0.48150    1.000
    C152     C        0.79130    0.81190    0.46760    1.000
    O101     O        0.56540    0.48326    0.36930    1.000
    C153     C        0.82930    0.82450    0.42670    1.000
    H88      H        0.82820    0.82410    0.37310    1.000
    O102     O        0.71412    0.79129    0.46930    1.000
    C154     C        0.86950    0.83800    0.46320    1.000
    O103     O        0.75051    0.78830    0.36020    1.000
    C155     C        0.90950    0.85410    0.41930    1.000
    O104     O        0.59250    0.64480    0.85030    1.000
    C156     C        0.87190    0.83650    0.54120    1.000
    H89      H        0.89950    0.84310    0.56630    1.000
    O105     O        0.55298    0.64735    0.95150    1.000
    C157     C        0.83280    0.82500    0.58310    1.000
    O106     O        0.87300    0.81420    0.69920    1.000
    C158     C        0.83690    0.82430    0.66770    1.000
    O107     O        0.69897    0.66806    0.20500    1.000
    C159     C        0.79320    0.81300    0.54740    1.000
    H90      H        0.76710    0.80550    0.57630    1.000
    O108     O        0.71543    0.69207    0.46850    1.000
    C160     C        0.74760    0.67720    0.42730    1.000
    O109     O        0.74412    0.66728    0.35900    1.000
    C161     C        0.79270    0.67110    0.46280    1.000
    O110     O        0.60192    0.10127    0.35430    1.000
    C162     C        0.82750    0.65060    0.42260    1.000
    H91      H        0.82220    0.63940    0.37290    1.000
    O111     O        0.44754    0.13058    0.43780    1.000
    C163     C        0.87050    0.64630    0.45490    1.000
    O112     O        0.61030    0.80390    0.17580    1.000
    C164     C        0.59120    0.12430    0.41200    1.000
    O113     O        0.68090    0.78770    0.18720    1.000
    C165     C        0.87810    0.66210    0.52860    1.000
    H92      H        0.90750    0.65950    0.55010    1.000
    C166     C        0.84340    0.68140    0.57030    1.000
    C167     C        0.79990    0.68670    0.53590    1.000
    H93      H        0.77590    0.70090    0.56310    1.000
    C168     C        0.64810    0.80300    0.14900    1.000
    C169     C        0.52380    0.71090    0.79590    1.000
    C170     C        0.58300    0.77060    0.80930    1.000
    N11      N        0.67900    0.80280    0.66880    1.000
    C171     C        0.66260    0.79070    0.59700    1.000
    C172     C        0.69790    0.77470    0.71750    1.000
    H94      H        0.70620    0.79210    0.76300    1.000
    H95      H        0.72510    0.76100    0.69510    1.000
    H96      H        0.67650    0.75010    0.73090    1.000
    C173     C        0.68290    0.85250    0.68870    1.000
    H97      H        0.66790    0.87130    0.65000    1.000
    H98      H        0.71500    0.86110    0.69150    1.000
    H99      H        0.66850    0.85800    0.73770    1.000
    O114     O        0.60090    0.61870    0.85740    1.000
    H100     H        0.39670    0.74380    0.80930    1.000
    H101     H        0.41130    0.78950    0.76430    1.000
    H102     H        0.41150    0.78930    0.85460    1.000
    N12      N        0.65210    0.76800    0.68380    1.000
    O115     O        0.64880    0.73470    0.56750    1.000
    O116     O        0.54200    0.55820    0.69960    1.000
    C174     C        0.66850    0.75620    0.61690    1.000
    C175     C        0.60570    0.75340    0.70340    1.000
    H103     H        0.59750    0.76590    0.75300    1.000
    H104     H        0.60420    0.71950    0.70490    1.000
    H105     H        0.58450    0.76510    0.66540    1.000
    C176     C        0.67480    0.79560    0.74020    1.000
    H106     H        0.65450    0.80080    0.78300    1.000
    H107     H        0.68350    0.82550    0.71820    1.000
    H108     H        0.70200    0.77930    0.75750    1.000
    Zn25     Zn       0.83755    0.24320    0.45392    1.000
    O117     O        0.82912    0.24311    0.33680    1.000
    C177     C        0.89490    0.32810    0.41220    1.000
    Zn26     Zn       0.81599    0.17849    0.31071    1.000
    O118     O        0.83840    0.24970    0.57400    1.000
    C178     C        0.91130    0.37060    0.45350    1.000
    Zn27     Zn       0.87561    0.27608    0.27922    1.000
    N13      N        0.96100    0.25570    0.80900    1.000
    C179     C        0.91840    0.41220    0.41380    1.000
    H109     H        0.91370    0.41330    0.36080    1.000
    C180     C        0.93210    0.45160    0.45210    1.000
    Zn28     Zn       0.93798    0.56012    0.29534    1.000
    C181     C        0.94010    0.49630    0.41100    1.000
    Zn29     Zn       0.96421    0.13501    0.78738    1.000
    C182     C        0.93820    0.44970    0.52930    1.000
    H110     H        0.94810    0.47670    0.55510    1.000
    Zn30     Zn       0.94304    0.07376    0.81588    1.000
    C183     C        0.93030    0.40910    0.57090    1.000
    C184     C        0.93380    0.40800    0.65480    1.000
    C185     C        0.91720    0.36950    0.53080    1.000
    H111     H        0.91210    0.34130    0.55740    1.000
    O119     O        0.88884    0.29301    0.45000    1.000
    C186     C        0.87930    0.14830    0.42210    1.000
    O120     O        0.88780    0.33197    0.34150    1.000
    C187     C        0.90140    0.11080    0.46500    1.000
    O121     O        0.93238    0.49772    0.34070    1.000
    C188     C        0.91340    0.11900    0.53980    1.000
    H112     H        0.90910    0.14880    0.56140    1.000
    O122     O        0.95181    0.53061    0.45000    1.000
    C189     C        0.93200    0.08270    0.58310    1.000
    O123     O        0.93150    0.44719    0.68710    1.000
    C190     C        0.94290    0.09080    0.66520    1.000
    O124     O        0.93880    0.37131    0.68750    1.000
    C191     C        0.93840    0.03920    0.55060    1.000
    H113     H        0.95040    0.01450    0.57990    1.000
    O125     O        0.88268    0.18885    0.44690    1.000
    C192     C        0.92740    0.03190    0.47610    1.000
    O126     O        0.85645    0.13626    0.36370    1.000
    C193     C        0.93870    0.98610    0.43870    1.000
    O127     O        0.94590    0.12942    0.69140    1.000
    C194     C        0.90930    0.06690    0.43260    1.000
    H114     H        0.90220    0.06150    0.38110    1.000
    O128     O        0.93230    0.05570    0.71130    1.000
    C195     C        0.75110    0.29630    0.42890    1.000
    O129     O        0.95240    0.95401    0.48150    1.000
    C196     C        0.70870    0.31190    0.46760    1.000
    O130     O        0.93460    0.98326    0.36930    1.000
    C197     C        0.67070    0.32450    0.42670    1.000
    H115     H        0.67180    0.32410    0.37310    1.000
    O131     O        0.78588    0.29129    0.46930    1.000
    C198     C        0.63050    0.33800    0.46320    1.000
    O132     O        0.74949    0.28830    0.36020    1.000
    C199     C        0.59050    0.35410    0.41930    1.000
    O133     O        0.90750    0.14480    0.85030    1.000
    C200     C        0.62810    0.33650    0.54120    1.000
    H116     H        0.60050    0.34310    0.56630    1.000
    O134     O        0.94702    0.14735    0.95150    1.000
    C201     C        0.66720    0.32500    0.58310    1.000
    O135     O        0.62700    0.31420    0.69920    1.000
    C202     C        0.66310    0.32430    0.66770    1.000
    O136     O        0.80103    0.16806    0.20500    1.000
    C203     C        0.70680    0.31300    0.54740    1.000
    H117     H        0.73290    0.30550    0.57630    1.000
    O137     O        0.78457    0.19207    0.46850    1.000
    C204     C        0.75240    0.17720    0.42730    1.000
    O138     O        0.75588    0.16728    0.35900    1.000
    C205     C        0.70730    0.17110    0.46280    1.000
    O139     O        0.89808    0.60127    0.35430    1.000
    C206     C        0.67250    0.15060    0.42260    1.000
    H118     H        0.67780    0.13940    0.37290    1.000
    O140     O        0.05246    0.63058    0.43780    1.000
    C207     C        0.62950    0.14630    0.45490    1.000
    O141     O        0.88970    0.30390    0.17580    1.000
    C208     C        0.90880    0.62430    0.41200    1.000
    O142     O        0.81910    0.28770    0.18720    1.000
    C209     C        0.62190    0.16210    0.52860    1.000
    H119     H        0.59250    0.15950    0.55010    1.000
    C210     C        0.65660    0.18140    0.57030    1.000
    C211     C        0.70010    0.18670    0.53590    1.000
    H120     H        0.72410    0.20090    0.56310    1.000
    C212     C        0.85190    0.30300    0.14900    1.000
    C213     C        0.97620    0.21090    0.79590    1.000
    C214     C        0.91700    0.27060    0.80930    1.000
    N14      N        0.82100    0.30280    0.66880    1.000
    C215     C        0.83740    0.29070    0.59700    1.000
    C216     C        0.80210    0.27470    0.71750    1.000
    H121     H        0.79380    0.29210    0.76300    1.000
    H122     H        0.77490    0.26100    0.69510    1.000
    H123     H        0.82350    0.25010    0.73090    1.000
    C217     C        0.81710    0.35250    0.68870    1.000
    H124     H        0.83210    0.37130    0.65000    1.000
    H125     H        0.78500    0.36110    0.69150    1.000
    H126     H        0.83150    0.35800    0.73770    1.000
    O143     O        0.89910    0.11870    0.85740    1.000
    H127     H        0.10330    0.24380    0.80930    1.000
    H128     H        0.08870    0.28950    0.76430    1.000
    H129     H        0.08850    0.28930    0.85460    1.000
    N15      N        0.84790    0.26800    0.68380    1.000
    O144     O        0.85120    0.23470    0.56750    1.000
    O145     O        0.95800    0.05820    0.69960    1.000
    C218     C        0.83150    0.25620    0.61690    1.000
    C219     C        0.89430    0.25340    0.70340    1.000
    H130     H        0.90250    0.26590    0.75300    1.000
    H131     H        0.89580    0.21950    0.70490    1.000
    H132     H        0.91550    0.26510    0.66540    1.000
    C220     C        0.82520    0.29560    0.74020    1.000
    H133     H        0.84550    0.30080    0.78300    1.000
    H134     H        0.81650    0.32550    0.71820    1.000
    H135     H        0.79800    0.27930    0.75750    1.000
    Zn31     Zn       0.33755    0.74320    0.45392    1.000
    O146     O        0.32912    0.74311    0.33680    1.000
    C221     C        0.39490    0.82810    0.41220    1.000
    Zn32     Zn       0.31599    0.67849    0.31071    1.000
    O147     O        0.33840    0.74970    0.57400    1.000
    C222     C        0.41130    0.87060    0.45350    1.000
    Zn33     Zn       0.37561    0.77608    0.27922    1.000
    N16      N        0.46100    0.75570    0.80900    1.000
    C223     C        0.41840    0.91220    0.41380    1.000
    H136     H        0.41370    0.91330    0.36080    1.000
    C224     C        0.43210    0.95160    0.45210    1.000
    Zn34     Zn       0.43798    0.06012    0.29534    1.000
    C225     C        0.44010    0.99630    0.41100    1.000
    Zn35     Zn       0.46421    0.63501    0.78738    1.000
    C226     C        0.43820    0.94970    0.52930    1.000
    H137     H        0.44810    0.97670    0.55510    1.000
    Zn36     Zn       0.44304    0.57376    0.81588    1.000
    C227     C        0.43030    0.90910    0.57090    1.000
    C228     C        0.43380    0.90800    0.65480    1.000
    C229     C        0.41720    0.86950    0.53080    1.000
    H138     H        0.41210    0.84130    0.55740    1.000
    O148     O        0.38884    0.79301    0.45000    1.000
    C230     C        0.37930    0.64830    0.42210    1.000
    O149     O        0.38780    0.83197    0.34150    1.000
    C231     C        0.40140    0.61080    0.46500    1.000
    O150     O        0.43238    0.99772    0.34070    1.000
    C232     C        0.41340    0.61900    0.53980    1.000
    H139     H        0.40910    0.64880    0.56140    1.000
    O151     O        0.45181    0.03061    0.45000    1.000
    C233     C        0.43200    0.58270    0.58310    1.000
    O152     O        0.43150    0.94719    0.68710    1.000
    C234     C        0.44290    0.59080    0.66520    1.000
    O153     O        0.43880    0.87131    0.68750    1.000
    C235     C        0.43840    0.53920    0.55060    1.000
    H140     H        0.45040    0.51450    0.57990    1.000
    O154     O        0.38268    0.68885    0.44690    1.000
    C236     C        0.42740    0.53190    0.47610    1.000
    O155     O        0.35645    0.63626    0.36370    1.000
    C237     C        0.43870    0.48610    0.43870    1.000
    O156     O        0.44590    0.62942    0.69140    1.000
    C238     C        0.40930    0.56690    0.43260    1.000
    H141     H        0.40220    0.56150    0.38110    1.000
    O157     O        0.43230    0.55570    0.71130    1.000
    C239     C        0.25110    0.79630    0.42890    1.000
    O158     O        0.45240    0.45401    0.48150    1.000
    C240     C        0.20870    0.81190    0.46760    1.000
    O159     O        0.43460    0.48326    0.36930    1.000
    C241     C        0.17070    0.82450    0.42670    1.000
    H142     H        0.17180    0.82410    0.37310    1.000
    O160     O        0.28588    0.79129    0.46930    1.000
    C242     C        0.13050    0.83800    0.46320    1.000
    O161     O        0.24949    0.78830    0.36020    1.000
    C243     C        0.09050    0.85410    0.41930    1.000
    O162     O        0.40750    0.64480    0.85030    1.000
    C244     C        0.12810    0.83650    0.54120    1.000
    H143     H        0.10050    0.84310    0.56630    1.000
    O163     O        0.44702    0.64735    0.95150    1.000
    C245     C        0.16720    0.82500    0.58310    1.000
    O164     O        0.12700    0.81420    0.69920    1.000
    C246     C        0.16310    0.82430    0.66770    1.000
    O165     O        0.30103    0.66806    0.20500    1.000
    C247     C        0.20680    0.81300    0.54740    1.000
    H144     H        0.23290    0.80550    0.57630    1.000
    O166     O        0.28457    0.69207    0.46850    1.000
    C248     C        0.25240    0.67720    0.42730    1.000
    O167     O        0.25588    0.66728    0.35900    1.000
    C249     C        0.20730    0.67110    0.46280    1.000
    O168     O        0.39808    0.10127    0.35430    1.000
    C250     C        0.17250    0.65060    0.42260    1.000
    H145     H        0.17780    0.63940    0.37290    1.000
    O169     O        0.55246    0.13058    0.43780    1.000
    C251     C        0.12950    0.64630    0.45490    1.000
    O170     O        0.38970    0.80390    0.17580    1.000
    C252     C        0.40880    0.12430    0.41200    1.000
    O171     O        0.31910    0.78770    0.18720    1.000
    C253     C        0.12190    0.66210    0.52860    1.000
    H146     H        0.09250    0.65950    0.55010    1.000
    C254     C        0.15660    0.68140    0.57030    1.000
    C255     C        0.20010    0.68670    0.53590    1.000
    H147     H        0.22410    0.70090    0.56310    1.000
    C256     C        0.35190    0.80300    0.14900    1.000
    C257     C        0.47620    0.71090    0.79590    1.000
    C258     C        0.41700    0.77060    0.80930    1.000
    N17      N        0.32100    0.80280    0.66880    1.000
    C259     C        0.33740    0.79070    0.59700    1.000
    C260     C        0.30210    0.77470    0.71750    1.000
    H148     H        0.29380    0.79210    0.76300    1.000
    H149     H        0.27490    0.76100    0.69510    1.000
    H150     H        0.32350    0.75010    0.73090    1.000
    C261     C        0.31710    0.85250    0.68870    1.000
    H151     H        0.33210    0.87130    0.65000    1.000
    H152     H        0.28500    0.86110    0.69150    1.000
    H153     H        0.33150    0.85800    0.73770    1.000
    O172     O        0.39910    0.61870    0.85740    1.000
    H154     H        0.60330    0.74380    0.80930    1.000
    H155     H        0.58870    0.78950    0.76430    1.000
    H156     H        0.58850    0.78930    0.85460    1.000
    N18      N        0.34790    0.76800    0.68380    1.000
    O173     O        0.35120    0.73470    0.56750    1.000
    O174     O        0.45800    0.55820    0.69960    1.000
    C262     C        0.33150    0.75620    0.61690    1.000
    C263     C        0.39430    0.75340    0.70340    1.000
    H157     H        0.40250    0.76590    0.75300    1.000
    H158     H        0.39580    0.71950    0.70490    1.000
    H159     H        0.41550    0.76510    0.66540    1.000
    C264     C        0.32520    0.79560    0.74020    1.000
    H160     H        0.34550    0.80080    0.78300    1.000
    H161     H        0.31650    0.82550    0.71820    1.000
    H162     H        0.29800    0.77930    0.75750    1.000
    Zn37     Zn       0.16245    0.75680    0.95392    1.000
    O175     O        0.17088    0.75689    0.83680    1.000
    C265     C        0.10510    0.67190    0.91220    1.000
    Zn38     Zn       0.18401    0.82151    0.81071    1.000
    O176     O        0.16160    0.75030    0.07400    1.000
    C266     C        0.08870    0.62940    0.95350    1.000
    Zn39     Zn       0.12439    0.72392    0.77922    1.000
    N19      N        0.03900    0.74430    0.30900    1.000
    C267     C        0.08160    0.58780    0.91380    1.000
    H163     H        0.08630    0.58670    0.86080    1.000
    C268     C        0.06790    0.54840    0.95210    1.000
    Zn40     Zn       0.06202    0.43988    0.79534    1.000
    C269     C        0.05990    0.50370    0.91100    1.000
    Zn41     Zn       0.03579    0.86499    0.28738    1.000
    C270     C        0.06180    0.55030    0.02930    1.000
    H164     H        0.05190    0.52330    0.05510    1.000
    Zn42     Zn       0.05696    0.92624    0.31588    1.000
    C271     C        0.06970    0.59090    0.07090    1.000
    C272     C        0.06620    0.59200    0.15480    1.000
    C273     C        0.08280    0.63050    0.03080    1.000
    H165     H        0.08790    0.65870    0.05740    1.000
    O177     O        0.11116    0.70699    0.95000    1.000
    C274     C        0.12070    0.85170    0.92210    1.000
    O178     O        0.11220    0.66803    0.84150    1.000
    C275     C        0.09860    0.88920    0.96500    1.000
    O179     O        0.06762    0.50228    0.84070    1.000
    C276     C        0.08660    0.88100    0.03980    1.000
    H166     H        0.09090    0.85120    0.06140    1.000
    O180     O        0.04819    0.46939    0.95000    1.000
    C277     C        0.06800    0.91730    0.08310    1.000
    O181     O        0.06850    0.55281    0.18710    1.000
    C278     C        0.05710    0.90920    0.16520    1.000
    O182     O        0.06120    0.62869    0.18750    1.000
    C279     C        0.06160    0.96080    0.05060    1.000
    H167     H        0.04960    0.98550    0.07990    1.000
    O183     O        0.11732    0.81115    0.94690    1.000
    C280     C        0.07260    0.96810    0.97610    1.000
    O184     O        0.14355    0.86374    0.86370    1.000
    C281     C        0.06130    0.01390    0.93870    1.000
    O185     O        0.05410    0.87058    0.19140    1.000
    C282     C        0.09070    0.93310    0.93260    1.000
    H168     H        0.09780    0.93850    0.88110    1.000
    O186     O        0.06770    0.94430    0.21130    1.000
    C283     C        0.24890    0.70370    0.92890    1.000
    O187     O        0.04760    0.04599    0.98150    1.000
    C284     C        0.29130    0.68810    0.96760    1.000
    O188     O        0.06540    0.01674    0.86930    1.000
    C285     C        0.32930    0.67550    0.92670    1.000
    H169     H        0.32820    0.67590    0.87310    1.000
    O189     O        0.21412    0.70871    0.96930    1.000
    C286     C        0.36950    0.66200    0.96320    1.000
    O190     O        0.25051    0.71170    0.86020    1.000
    C287     C        0.40950    0.64590    0.91930    1.000
    O191     O        0.09250    0.85520    0.35030    1.000
    C288     C        0.37190    0.66350    0.04120    1.000
    H170     H        0.39950    0.65690    0.06630    1.000
    O192     O        0.05298    0.85265    0.45150    1.000
    C289     C        0.33280    0.67500    0.08310    1.000
    O193     O        0.37300    0.68580    0.19920    1.000
    C290     C        0.33690    0.67570    0.16770    1.000
    O194     O        0.19897    0.83194    0.70500    1.000
    C291     C        0.29320    0.68700    0.04740    1.000
    H171     H        0.26710    0.69450    0.07630    1.000
    O195     O        0.21543    0.80793    0.96850    1.000
    C292     C        0.24760    0.82280    0.92730    1.000
    O196     O        0.24412    0.83272    0.85900    1.000
    C293     C        0.29270    0.82890    0.96280    1.000
    O197     O        0.10192    0.39873    0.85430    1.000
    C294     C        0.32750    0.84940    0.92260    1.000
    H172     H        0.32220    0.86060    0.87290    1.000
    O198     O        0.94754    0.36942    0.93780    1.000
    C295     C        0.37050    0.85370    0.95490    1.000
    O199     O        0.11030    0.69610    0.67580    1.000
    C296     C        0.09120    0.37570    0.91200    1.000
    O200     O        0.18090    0.71230    0.68720    1.000
    C297     C        0.37810    0.83790    0.02860    1.000
    H173     H        0.40750    0.84050    0.05010    1.000
    C298     C        0.34340    0.81860    0.07030    1.000
    C299     C        0.29990    0.81330    0.03590    1.000
    H174     H        0.27590    0.79910    0.06310    1.000
    C300     C        0.14810    0.69700    0.64900    1.000
    C301     C        0.02380    0.78910    0.29590    1.000
    C302     C        0.08300    0.72940    0.30930    1.000
    N20      N        0.17900    0.69720    0.16880    1.000
    C303     C        0.16260    0.70930    0.09700    1.000
    C304     C        0.19790    0.72530    0.21750    1.000
    H175     H        0.20620    0.70790    0.26300    1.000
    H176     H        0.22510    0.73900    0.19510    1.000
    H177     H        0.17650    0.74990    0.23090    1.000
    C305     C        0.18290    0.64750    0.18870    1.000
    H178     H        0.16790    0.62870    0.15000    1.000
    H179     H        0.21500    0.63890    0.19150    1.000
    H180     H        0.16850    0.64200    0.23770    1.000
    O201     O        0.10090    0.88130    0.35740    1.000
    H181     H        0.89670    0.75620    0.30930    1.000
    H182     H        0.91130    0.71050    0.26430    1.000
    H183     H        0.91150    0.71070    0.35460    1.000
    N21      N        0.15210    0.73200    0.18380    1.000
    O202     O        0.14880    0.76530    0.06750    1.000
    O203     O        0.04200    0.94180    0.19960    1.000
    C306     C        0.16850    0.74380    0.11690    1.000
    C307     C        0.10570    0.74660    0.20340    1.000
    H184     H        0.09750    0.73410    0.25300    1.000
    H185     H        0.10420    0.78050    0.20490    1.000
    H186     H        0.08450    0.73490    0.16540    1.000
    C308     C        0.17480    0.70440    0.24020    1.000
    H187     H        0.15450    0.69920    0.28300    1.000
    H188     H        0.18350    0.67450    0.21820    1.000
    H189     H        0.20200    0.72070    0.25750    1.000
    Zn43     Zn       0.66245    0.25680    0.95392    1.000
    O204     O        0.67088    0.25689    0.83680    1.000
    C309     C        0.60510    0.17190    0.91220    1.000
    Zn44     Zn       0.68401    0.32151    0.81071    1.000
    O205     O        0.66160    0.25030    0.07400    1.000
    C310     C        0.58870    0.12940    0.95350    1.000
    Zn45     Zn       0.62439    0.22392    0.77922    1.000
    N22      N        0.53900    0.24430    0.30900    1.000
    C311     C        0.58160    0.08780    0.91380    1.000
    H190     H        0.58630    0.08670    0.86080    1.000
    C312     C        0.56790    0.04840    0.95210    1.000
    Zn46     Zn       0.56202    0.93988    0.79534    1.000
    C313     C        0.55990    0.00370    0.91100    1.000
    Zn47     Zn       0.53579    0.36499    0.28738    1.000
    C314     C        0.56180    0.05030    0.02930    1.000
    H191     H        0.55190    0.02330    0.05510    1.000
    Zn48     Zn       0.55696    0.42624    0.31588    1.000
    C315     C        0.56970    0.09090    0.07090    1.000
    C316     C        0.56620    0.09200    0.15480    1.000
    C317     C        0.58280    0.13050    0.03080    1.000
    H192     H        0.58790    0.15870    0.05740    1.000
    O206     O        0.61116    0.20699    0.95000    1.000
    C318     C        0.62070    0.35170    0.92210    1.000
    O207     O        0.61220    0.16803    0.84150    1.000
    C319     C        0.59860    0.38920    0.96500    1.000
    O208     O        0.56762    0.00228    0.84070    1.000
    C320     C        0.58660    0.38100    0.03980    1.000
    H193     H        0.59090    0.35120    0.06140    1.000
    O209     O        0.54819    0.96939    0.95000    1.000
    C321     C        0.56800    0.41730    0.08310    1.000
    O210     O        0.56850    0.05281    0.18710    1.000
    C322     C        0.55710    0.40920    0.16520    1.000
    O211     O        0.56120    0.12869    0.18750    1.000
    C323     C        0.56160    0.46080    0.05060    1.000
    H194     H        0.54960    0.48550    0.07990    1.000
    O212     O        0.61732    0.31115    0.94690    1.000
    C324     C        0.57260    0.46810    0.97610    1.000
    O213     O        0.64355    0.36374    0.86370    1.000
    C325     C        0.56130    0.51390    0.93870    1.000
    O214     O        0.55410    0.37058    0.19140    1.000
    C326     C        0.59070    0.43310    0.93260    1.000
    H195     H        0.59780    0.43850    0.88110    1.000
    O215     O        0.56770    0.44430    0.21130    1.000
    C327     C        0.74890    0.20370    0.92890    1.000
    O216     O        0.54760    0.54599    0.98150    1.000
    C328     C        0.79130    0.18810    0.96760    1.000
    O217     O        0.56540    0.51674    0.86930    1.000
    C329     C        0.82930    0.17550    0.92670    1.000
    H196     H        0.82820    0.17590    0.87310    1.000
    O218     O        0.71412    0.20871    0.96930    1.000
    C330     C        0.86950    0.16200    0.96320    1.000
    O219     O        0.75051    0.21170    0.86020    1.000
    C331     C        0.90950    0.14590    0.91930    1.000
    O220     O        0.59250    0.35520    0.35030    1.000
    C332     C        0.87190    0.16350    0.04120    1.000
    H197     H        0.89950    0.15690    0.06630    1.000
    O221     O        0.55298    0.35265    0.45150    1.000
    C333     C        0.83280    0.17500    0.08310    1.000
    O222     O        0.87300    0.18580    0.19920    1.000
    C334     C        0.83690    0.17570    0.16770    1.000
    O223     O        0.69897    0.33194    0.70500    1.000
    C335     C        0.79320    0.18700    0.04740    1.000
    H198     H        0.76710    0.19450    0.07630    1.000
    O224     O        0.71543    0.30793    0.96850    1.000
    C336     C        0.74760    0.32280    0.92730    1.000
    O225     O        0.74412    0.33272    0.85900    1.000
    C337     C        0.79270    0.32890    0.96280    1.000
    O226     O        0.60192    0.89873    0.85430    1.000
    C338     C        0.82750    0.34940    0.92260    1.000
    H199     H        0.82220    0.36060    0.87290    1.000
    O227     O        0.44754    0.86942    0.93780    1.000
    C339     C        0.87050    0.35370    0.95490    1.000
    O228     O        0.61030    0.19610    0.67580    1.000
    C340     C        0.59120    0.87570    0.91200    1.000
    O229     O        0.68090    0.21230    0.68720    1.000
    C341     C        0.87810    0.33790    0.02860    1.000
    H200     H        0.90750    0.34050    0.05010    1.000
    C342     C        0.84340    0.31860    0.07030    1.000
    C343     C        0.79990    0.31330    0.03590    1.000
    H201     H        0.77590    0.29910    0.06310    1.000
    C344     C        0.64810    0.19700    0.64900    1.000
    C345     C        0.52380    0.28910    0.29590    1.000
    C346     C        0.58300    0.22940    0.30930    1.000
    N23      N        0.67900    0.19720    0.16880    1.000
    C347     C        0.66260    0.20930    0.09700    1.000
    C348     C        0.69790    0.22530    0.21750    1.000
    H202     H        0.70620    0.20790    0.26300    1.000
    H203     H        0.72510    0.23900    0.19510    1.000
    H204     H        0.67650    0.24990    0.23090    1.000
    C349     C        0.68290    0.14750    0.18870    1.000
    H205     H        0.66790    0.12870    0.15000    1.000
    H206     H        0.71500    0.13890    0.19150    1.000
    H207     H        0.66850    0.14200    0.23770    1.000
    O230     O        0.60090    0.38130    0.35740    1.000
    H208     H        0.39670    0.25620    0.30930    1.000
    H209     H        0.41130    0.21050    0.26430    1.000
    H210     H        0.41150    0.21070    0.35460    1.000
    N24      N        0.65210    0.23200    0.18380    1.000
    O231     O        0.64880    0.26530    0.06750    1.000
    O232     O        0.54200    0.44180    0.19960    1.000
    C350     C        0.66850    0.24380    0.11690    1.000
    C351     C        0.60570    0.24660    0.20340    1.000
    H211     H        0.59750    0.23410    0.25300    1.000
    H212     H        0.60420    0.28050    0.20490    1.000
    H213     H        0.58450    0.23490    0.16540    1.000
    C352     C        0.67480    0.20440    0.24020    1.000
    H214     H        0.65450    0.19920    0.28300    1.000
    H215     H        0.68350    0.17450    0.21820    1.000
    H216     H        0.70200    0.22070    0.25750    1.000
    Zn49     Zn       0.00000    0.41670    0.94125    1.000
    O233     O        0.00000    0.41850    0.82060    1.000
    O234     O        0.00000    0.91030    0.34720    1.000
    Zn50     Zn       0.00000    0.90040    0.46382    1.000
    O235     O        0.00000    0.80210    0.29220    1.000
    C353     C        0.00000    0.70740    0.31100    1.000
    Zn51     Zn       0.50000    0.91670    0.94125    1.000
    O236     O        0.50000    0.91850    0.82060    1.000
    O237     O        0.50000    0.41030    0.34720    1.000
    Zn52     Zn       0.50000    0.40040    0.46382    1.000
    O238     O        0.50000    0.30210    0.29220    1.000
    C354     C        0.50000    0.20740    0.31100    1.000
    Zn53     Zn       0.00000    0.58330    0.44125    1.000
    O239     O        0.00000    0.58150    0.32060    1.000
    O240     O        0.00000    0.08970    0.84720    1.000
    Zn54     Zn       0.00000    0.09960    0.96382    1.000
    O241     O        0.00000    0.19790    0.79220    1.000
    C355     C        0.00000    0.29260    0.81100    1.000
    Zn55     Zn       0.50000    0.08330    0.44125    1.000
    O242     O        0.50000    0.08150    0.32060    1.000
    O243     O        0.50000    0.58970    0.84720    1.000
    Zn56     Zn       0.50000    0.59960    0.96382    1.000
    O244     O        0.50000    0.69790    0.79220    1.000
    C356     C        0.50000    0.79260    0.81100    1.000
