data_functionalizedCrystal
_audit_creation_method	'EQeq! by Chris Wilmer'
_symmetry_space_group_name_H-M	'P1'
_symmetry_Int_Tables_number	1
_symmetry_cell_setting	triclinic
loop_
_symmetry_equiv_pos_as_xyz
  x,y,z
_cell_length_a	6.672
_cell_length_b	16.936
_cell_length_c	12.807
_cell_angle_alpha	90
_cell_angle_beta	90
_cell_angle_gamma	90
loop_
_atom_site_label
_atom_site_type_symbol
_atom_site_fract_x
_atom_site_fract_y
_atom_site_fract_z
_atom_site_charge
Mof_O 	O 	0.17409	0.82909	0.16125	-3.76
Mof_C 	C 	0.82311	0.96743	0.03091	0.03
Mof_H 	H 	0.68092	0.94214	0.05367	-0.051
Mof_O 	O 	0.67417	0.32902	0.66113	-3.731
Mof_C 	C 	0.32314	0.46722	0.53056	0.139
Mof_H 	H 	0.18097	0.44186	0.55321	-0.037
Mof_O 	O 	0.83273	0.67555	0.16129	-3.81
Mof_C 	C 	0.18376	0.53711	0.03118	0.13
Mof_H 	H 	0.32593	0.56241	0.05397	-0.064
Mof_O 	O 	0.33284	0.17548	0.6614	-3.738
Mof_C 	C 	0.68378	0.03698	0.53137	0.125
Mof_H 	H 	0.82596	0.06227	0.55413	-0.101
Mof_O 	O 	0.83284	0.32909	0.83997	-3.809
Mof_C 	C 	0.18378	0.46735	0.97046	0.13
Mof_H 	H 	0.32596	0.44203	0.94777	-0.065
Mof_O 	O 	0.33275	0.82901	0.34008	-3.739
Mof_C 	C 	0.68376	0.96721	0.47065	0.125
Mof_H 	H 	0.82593	0.94189	0.44793	-0.101
Mof_O 	O 	0.17418	0.17556	0.83997	-3.76
Mof_C 	C 	0.82313	0.03719	0.97017	0.029
Mof_H 	H 	0.68096	0.06251	0.94744	-0.052
Mof_O 	O 	0.6741	0.67553	0.33993	-3.731
Mof_C 	C 	0.32311	0.53699	0.46985	0.14
Mof_H 	H 	0.18093	0.56226	0.44704	-0.037
Mof_O 	O 	0.83285	0.17556	0.83993	-3.809
Mof_C 	C 	0.18383	0.03712	0.97006	0.13
Mof_H 	H 	0.32601	0.06238	0.94724	-0.064
Mof_O 	O 	0.33278	0.67549	0.33985	-3.739
Mof_C 	C 	0.68381	0.53705	0.46994	0.126
Mof_H 	H 	0.82597	0.56237	0.44721	-0.101
Mof_O 	O 	0.17415	0.32909	0.84	-3.759
Mof_C 	C 	0.82309	0.46734	0.97044	0.029
Mof_H 	H 	0.68092	0.44201	0.94772	-0.052
Mof_O 	O 	0.67405	0.82902	0.34009	-3.731
Mof_C 	C 	0.32307	0.96721	0.4707	0.139
Mof_H 	H 	0.18089	0.94188	0.44801	-0.038
Mof_O 	O 	0.17406	0.67554	0.16127	-3.76
Mof_C 	C 	0.82307	0.5371	0.03116	0.029
Mof_H 	H 	0.68089	0.56239	0.05393	-0.052
Mof_O 	O 	0.67416	0.17548	0.66136	-3.73
Mof_C 	C 	0.32309	0.03697	0.53142	0.139
Mof_H 	H 	0.18092	0.06226	0.55422	-0.037
Mof_O 	O 	0.83279	0.82913	0.16133	-3.809
Mof_C 	C 	0.1838	0.96736	0.0308	0.13
Mof_H 	H 	0.32596	0.94201	0.05347	-0.065
Mof_O 	O 	0.33286	0.32903	0.66116	-3.738
Mof_C 	C 	0.68383	0.46728	0.53065	0.125
Mof_H 	H 	0.826	0.44198	0.55338	-0.101
Mof_Al	Al	0.2535	0.75232	0.25059	16.37
Mof_Al	Al	0.75348	0.75233	0.25064	16.12
Mof_Al	Al	0.7536	0.25233	0.75058	16.117
Mof_Al	Al	0.2536	0.25233	0.75064	16.366
Mof_O 	O 	0.0035	0.75236	0.3067	-7.125
Mof_O 	O 	0.50362	0.25242	0.80671	-7.18
Mof_O 	O 	0.00362	0.25238	0.6945	-7.124
Mof_O 	O 	0.5035	0.7524	0.1945	-7.181
Mof_C 	C 	0.00345	0.93095	0.06246	-0.604
Mof_C 	C 	0.00344	0.85815	0.13181	2.575
Mof_C 	C 	0.50349	0.4308	0.56221	-0.708
Mof_C 	C 	0.50351	0.35804	0.63162	2.465
Mof_C 	C 	0.0034	0.57361	0.06268	-0.602
Mof_C 	C 	0.00339	0.64648	0.13186	2.575
Mof_C 	C 	0.50345	0.07348	0.56288	-0.707
Mof_C 	C 	0.50348	0.14639	0.63199	2.465
Mof_C 	C 	0.00345	0.4309	0.93884	-0.603
Mof_C 	C 	0.00348	0.35812	0.86948	2.574
Mof_C 	C 	0.5034	0.93077	0.43905	-0.708
Mof_C 	C 	0.50339	0.85803	0.36962	2.465
Mof_C 	C 	0.00349	0.07364	0.9386	-0.603
Mof_C 	C 	0.00351	0.1465	0.86938	2.574
Mof_C 	C 	0.50345	0.57353	0.43842	-0.708
Mof_C 	C 	0.50344	0.64643	0.36929	2.466
Mof_H 	H 	0.50364	0.25253	0.87402	2.038
Mof_H 	H 	0.00364	0.25243	0.62719	2.061
Mof_H 	H 	0.00351	0.75239	0.37402	2.06
Mof_H 	H 	0.50351	0.75249	0.12718	2.038
_end
