data_functionalizedCrystal
_audit_creation_method	'EQeq! by Chris Wilmer'
_symmetry_space_group_name_H-M	'P1'
_symmetry_Int_Tables_number	1
_symmetry_cell_setting	triclinic
loop_
_symmetry_equiv_pos_as_xyz
  x,y,z
_cell_length_a	12.6804
_cell_length_b	13.844
_cell_length_c	27.865
_cell_angle_alpha	104.246
_cell_angle_beta	97.317
_cell_angle_gamma	94.456
loop_
_atom_site_label
_atom_site_type_symbol
_atom_site_fract_x
_atom_site_fract_y
_atom_site_fract_z
_atom_site_charge
Mof_Tb	Tb	0.036	0.56599	0.93992	1.958
Mof_Tb	Tb	0.12156	0.07335	0.55197	1.924
Mof_Tb	Tb	0.46399	0.5478	0.58547	1.752
Mof_Tb	Tb	0.48915	0.89152	0.91347	1.782
Mof_Tb	Tb	0.964	0.43401	0.06008	1.957
Mof_Tb	Tb	0.87844	0.92665	0.44803	1.923
Mof_Tb	Tb	0.53601	0.4522	0.41453	1.752
Mof_Tb	Tb	0.51085	0.10848	0.08653	1.782
Mof_H 	H 	0.7373	0.2053	0.9425	0.007
Mof_H 	H 	0.7603	0.3712	0.8434	0.029
Mof_H 	H 	0.0269	0.8938	0.6548	0.038
Mof_H 	H 	0.5529	0.1219	0.8078	0.034
Mof_H 	H 	0.0612	0.2142	0.8087	0.089
Mof_H 	H 	0.7462	0.7943	0.5656	0.02
Mof_H 	H 	0.5071	0.1696	0.6528	0.012
Mof_H 	H 	0.6168	0.4242	0.7975	0.081
Mof_H 	H 	0.254	0.2397	0.0115	-0.01
Mof_H 	H 	0.3577	0.1328	0.8074	0.089
Mof_H 	H 	0.5477	0.4622	0.725	-0.001
Mof_H 	H 	0.075	0.9438	0.7449	0.092
Mof_H 	H 	0.1382	0.3139	0.8861	0.01
Mof_H 	H 	0.2058	0.9321	0.8083	0.016
Mof_H 	H 	0.3232	0.0876	0.8788	0.013
Mof_H 	H 	0.3324	0.0968	0.721	0.019
Mof_H 	H 	0.8099	0.7106	0.6934	0.037
Mof_H 	H 	0.0374	0.18	0.7223	0.021
Mof_H 	H 	0.5762	0.1304	0.7259	0.085
Mof_H 	H 	0.0964	0.6434	0.7884	0.007
Mof_H 	H 	0.9664	0.6544	0.7244	0.087
Mof_H 	H 	0.7291	0.4511	0.6163	0.017
Mof_H 	H 	0.0613	0.3835	0.7657	0.015
Mof_H 	H 	0.915	0.2266	0.6108	0.015
Mof_H 	H 	0.722	0.2417	0.487	0.008
Mof_H 	H 	0.7485	0.4711	0.6933	0.092
Mof_H 	H 	0.0036	0.3204	0.6808	0.085
Mof_H 	H 	0.8095	0.54	0.7778	0.014
Mof_H 	H 	0.2627	0.7947	0.0575	0.007
Mof_H 	H 	0.2397	0.6288	0.1566	0.029
Mof_H 	H 	0.9731	0.1062	0.3452	0.038
Mof_H 	H 	0.4471	0.8781	0.1922	0.034
Mof_H 	H 	0.9388	0.7858	0.1913	0.089
Mof_H 	H 	0.2538	0.2057	0.4344	0.02
Mof_H 	H 	0.4929	0.8304	0.3472	0.012
Mof_H 	H 	0.3832	0.5758	0.2025	0.081
Mof_H 	H 	0.746	0.7603	0.9885	-0.01
Mof_H 	H 	0.6423	0.8672	0.1926	0.089
Mof_H 	H 	0.4523	0.5378	0.275	-0.001
Mof_H 	H 	0.925	0.0562	0.2551	0.092
Mof_H 	H 	0.8618	0.6861	0.1139	0.01
Mof_H 	H 	0.7942	0.0679	0.1917	0.016
Mof_H 	H 	0.6768	0.9124	0.1212	0.013
Mof_H 	H 	0.6676	0.9032	0.279	0.019
Mof_H 	H 	0.1901	0.2894	0.3066	0.037
Mof_H 	H 	0.9626	0.82	0.2777	0.021
Mof_H 	H 	0.4238	0.8696	0.2741	0.085
Mof_H 	H 	0.9036	0.3566	0.2116	0.007
Mof_H 	H 	0.0336	0.3456	0.2756	0.087
Mof_H 	H 	0.2709	0.5489	0.3837	0.017
Mof_H 	H 	0.9387	0.6165	0.2343	0.015
Mof_H 	H 	0.085	0.7734	0.3892	0.015
Mof_H 	H 	0.278	0.7583	0.513	0.008
Mof_H 	H 	0.2515	0.5289	0.3067	0.092
Mof_H 	H 	0.9964	0.6796	0.3192	0.085
Mof_H 	H 	0.1905	0.46	0.2222	0.014
Mof_C 	C 	0.7163	0.2159	0.91116	0.066
Mof_C 	C 	0.729	0.3158	0.85175	0.035
Mof_C 	C 	0.9608	0.8552	0.64799	0.018
Mof_C 	C 	0.605	0.1671	0.83068	0.012
Mof_C 	C 	0.1161	0.1908	0.79135	-0.154
Mof_C 	C 	0.5861	0.0614	0.89077	0.316
Mof_C 	C 	0.1806	0.1343	0.71273	-0.123
Mof_C 	C 	0.7924	0.7965	0.5947	0.053
Mof_C 	C 	0.1652	0.1155	0.65697	0.324
Mof_C 	C 	0.5295	0.2208	0.6818	0.078
Mof_C 	C 	0.7607	0.7451	0.62818	-0.101
Mof_C 	C 	0.5952	0.3729	0.7685	-0.162
Mof_C 	C 	0.2482	0.2296	0.97698	0.127
Mof_C 	C 	0.6379	0.1489	0.87728	-0.115
Mof_C 	C 	0.6048	0.2734	0.76952	0.102
Mof_C 	C 	0.0091	0.799	0.72683	0.099
Mof_C 	C 	0.2928	0.1419	0.79036	-0.155
Mof_C 	C 	0.3012	0.1563	0.94939	-0.215
Mof_C 	C 	0.9313	0.8023	0.68188	-0.056
Mof_C 	C 	0.764	0.2988	0.89881	-0.165
Mof_C 	C 	0.5538	0.3956	0.7249	0.084
Mof_C 	C 	0.0802	0.8829	0.753	-0.161
Mof_C 	C 	0.1775	0.2731	0.90163	0.065
Mof_C 	C 	0.521	0.3205	0.68062	-0.163
Mof_C 	C 	0.6483	0.251	0.8176	-0.062
Mof_C 	C 	0.1587	0.8759	0.79105	0.076
Mof_C 	C 	0.2273	0.1969	0.87297	-0.095
Mof_C 	C 	0.2897	0.1383	0.89732	0.073
Mof_C 	C 	0.8919	0.8508	0.60408	-0.148
Mof_C 	C 	0.2779	0.1204	0.7386	0.059
Mof_C 	C 	0.8306	0.7468	0.67143	0.001
Mof_C 	C 	0.1675	0.7847	0.80373	-0.159
Mof_C 	C 	0.1018	0.1698	0.73935	0.059
Mof_C 	C 	0.571	0.197	0.7258	-0.155
Mof_C 	C 	0.2123	0.1769	0.81755	0.108
Mof_C 	C 	0.2592	0.7735	0.84151	0.377
Mof_C 	C 	0.0937	0.7034	0.7792	0.073
Mof_C 	C 	0.0151	0.71	0.7408	-0.163
Mof_C 	C 	0.8486	0.3715	0.93638	0.487
Mof_C 	C 	0.9297	0.9005	0.56519	0.47
Mof_C 	C 	0.3681	0.0966	0.97673	0.516
Mof_C 	C 	0.9796	0.5069	0.83578	0.339
Mof_C 	C 	0.7539	0.3935	0.59849	0.059
Mof_C 	C 	0.9417	0.4669	0.78065	-0.128
Mof_C 	C 	0.6527	0.684	0.61726	0.317
Mof_C 	C 	0.1259	0.3638	0.98332	0.488
Mof_C 	C 	0.9984	0.4021	0.75122	0.07
Mof_C 	C 	0.8231	0.2189	0.54453	-0.178
Mof_C 	C 	0.7159	0.3556	0.54764	-0.192
Mof_C 	C 	0.864	0.2585	0.59532	0.047
Mof_C 	C 	0.4802	0.3481	0.63349	0.399
Mof_C 	C 	0.8568	0.1244	0.51474	0.44
Mof_C 	C 	0.8291	0.3459	0.62328	-0.085
Mof_C 	C 	0.7492	0.2678	0.52079	0.106
Mof_C 	C 	0.8123	0.454	0.70758	-0.158
Mof_C 	C 	0.1867	0.2877	0.95339	-0.205
Mof_C 	C 	0.9635	0.3636	0.70014	-0.156
Mof_C 	C 	0.848	0.4947	0.75868	0.064
Mof_C 	C 	0.8691	0.3893	0.67782	0.108
Mof_C 	C 	0.6423	0.4126	0.52144	0.489
Mof_C 	C 	0.2837	0.7841	0.08884	0.066
Mof_C 	C 	0.271	0.6842	0.14825	0.035
Mof_C 	C 	0.0392	0.1448	0.35201	0.018
Mof_C 	C 	0.395	0.8329	0.16932	0.012
Mof_C 	C 	0.8839	0.8092	0.20865	-0.154
Mof_C 	C 	0.4139	0.9386	0.10923	0.316
Mof_C 	C 	0.8194	0.8657	0.28727	-0.123
Mof_C 	C 	0.2076	0.2035	0.4053	0.053
Mof_C 	C 	0.8348	0.8845	0.34303	0.324
Mof_C 	C 	0.4705	0.7792	0.3182	0.078
Mof_C 	C 	0.2393	0.2549	0.37182	-0.101
Mof_C 	C 	0.4048	0.6271	0.2315	-0.162
Mof_C 	C 	0.7518	0.7704	0.02302	0.127
Mof_C 	C 	0.3621	0.8511	0.12272	-0.115
Mof_C 	C 	0.3952	0.7266	0.23048	0.102
Mof_C 	C 	0.9909	0.201	0.27317	0.099
Mof_C 	C 	0.7072	0.8581	0.20964	-0.155
Mof_C 	C 	0.6988	0.8437	0.05061	-0.215
Mof_C 	C 	0.0687	0.1977	0.31812	-0.056
Mof_C 	C 	0.236	0.7012	0.10119	-0.165
Mof_C 	C 	0.4462	0.6044	0.2751	0.084
Mof_C 	C 	0.9198	0.1171	0.247	-0.161
Mof_C 	C 	0.8225	0.7269	0.09837	0.065
Mof_C 	C 	0.479	0.6795	0.31938	-0.163
Mof_C 	C 	0.3517	0.749	0.1824	-0.062
Mof_C 	C 	0.8413	0.1241	0.20895	0.076
Mof_C 	C 	0.7727	0.8031	0.12703	-0.095
Mof_C 	C 	0.7103	0.8617	0.10268	0.073
Mof_C 	C 	0.1081	0.1492	0.39592	-0.148
Mof_C 	C 	0.7221	0.8796	0.2614	0.059
Mof_C 	C 	0.1694	0.2532	0.32857	0.001
Mof_C 	C 	0.8325	0.2153	0.19627	-0.159
Mof_C 	C 	0.8982	0.8302	0.26065	0.059
Mof_C 	C 	0.429	0.803	0.2742	-0.155
Mof_C 	C 	0.7877	0.8231	0.18245	0.108
Mof_C 	C 	0.7408	0.2265	0.15849	0.377
Mof_C 	C 	0.9063	0.2966	0.2208	0.073
Mof_C 	C 	0.9849	0.29	0.2592	-0.163
Mof_C 	C 	0.1514	0.6285	0.06362	0.487
Mof_C 	C 	0.0703	0.0995	0.43481	0.47
Mof_C 	C 	0.6319	0.9034	0.02327	0.516
Mof_C 	C 	0.0204	0.4931	0.16422	0.339
Mof_C 	C 	0.2461	0.6065	0.40151	0.059
Mof_C 	C 	0.0583	0.5331	0.21935	-0.128
Mof_C 	C 	0.3473	0.316	0.38274	0.317
Mof_C 	C 	0.8741	0.6362	0.01668	0.488
Mof_C 	C 	0.0016	0.5979	0.24878	0.07
Mof_C 	C 	0.1769	0.7811	0.45547	-0.178
Mof_C 	C 	0.2841	0.6444	0.45236	-0.192
Mof_C 	C 	0.136	0.7415	0.40468	0.047
Mof_C 	C 	0.5198	0.6519	0.36651	0.399
Mof_C 	C 	0.1432	0.8756	0.48526	0.44
Mof_C 	C 	0.1709	0.6541	0.37672	-0.085
Mof_C 	C 	0.2508	0.7322	0.47921	0.106
Mof_C 	C 	0.1877	0.546	0.29242	-0.158
Mof_C 	C 	0.8133	0.7123	0.04661	-0.205
Mof_C 	C 	0.0365	0.6364	0.29986	-0.156
Mof_C 	C 	0.152	0.5053	0.24132	0.064
Mof_C 	C 	0.1309	0.6107	0.32218	0.108
Mof_C 	C 	0.3577	0.5874	0.47856	0.489
Mof_O 	O 	0.5146	0.0012	0.85909	-0.426
Mof_O 	O 	0.6147	0.047	0.93329	-0.42
Mof_O 	O 	0.2249	0.0617	0.63196	-0.417
Mof_O 	O 	0.0899	0.1536	0.63638	-0.442
Mof_O 	O 	0.1034	0.3494	0.02441	-0.504
Mof_O 	O 	0.0212	0.9507	0.57742	-0.49
Mof_O 	O 	0.5882	0.6867	0.5793	-0.417
Mof_O 	O 	0.6034	0.4837	0.54742	-0.545
Mof_O 	O 	0.9403	0.5806	0.86086	-0.442
Mof_O 	O 	0.8892	0.4442	0.92219	-0.503
Mof_O 	O 	0.7932	0.0746	0.47632	-0.471
Mof_O 	O 	0.8749	0.3534	0.97773	-0.544
Mof_O 	O 	0.9447	0.0943	0.52823	-0.587
Mof_O 	O 	0.099	0.4355	0.96663	-0.579
Mof_O 	O 	0.867	0.8911	0.52597	-0.548
Mof_O 	O 	0.4831	0.4412	0.6362	-0.525
Mof_O 	O 	0.6253	0.3856	0.47419	-0.555
Mof_O 	O 	0.4026	0.0201	0.95176	-0.551
Mof_O 	O 	0.3299	0.8488	0.85854	-0.503
Mof_O 	O 	0.629	0.6291	0.64518	-0.405
Mof_O 	O 	0.3857	0.1283	0.02373	-0.575
Mof_O 	O 	0.263	0.6909	0.85225	-0.357
Mof_O 	O 	0.4473	0.28	0.59431	-0.337
Mof_O 	O 	0.0507	0.4653	0.85658	-0.443
Mof_O 	O 	0.4854	0.9988	0.14091	-0.426
Mof_O 	O 	0.3853	0.953	0.06671	-0.42
Mof_O 	O 	0.7751	0.9383	0.36804	-0.417
Mof_O 	O 	0.9101	0.8464	0.36362	-0.442
Mof_O 	O 	0.8966	0.6506	0.97559	-0.504
Mof_O 	O 	0.9788	0.0493	0.42258	-0.49
Mof_O 	O 	0.4118	0.3133	0.4207	-0.417
Mof_O 	O 	0.3966	0.5163	0.45258	-0.545
Mof_O 	O 	0.0597	0.4194	0.13914	-0.442
Mof_O 	O 	0.1108	0.5558	0.07781	-0.503
Mof_O 	O 	0.2068	0.9254	0.52368	-0.471
Mof_O 	O 	0.1251	0.6466	0.02227	-0.544
Mof_O 	O 	0.0553	0.9057	0.47177	-0.587
Mof_O 	O 	0.901	0.5645	0.03337	-0.579
Mof_O 	O 	0.133	0.1089	0.47403	-0.548
Mof_O 	O 	0.5169	0.5588	0.3638	-0.525
Mof_O 	O 	0.3747	0.6144	0.52581	-0.555
Mof_O 	O 	0.5974	0.9799	0.04824	-0.551
Mof_O 	O 	0.6701	0.1512	0.14146	-0.503
Mof_O 	O 	0.371	0.3709	0.35482	-0.405
Mof_O 	O 	0.6143	0.8717	0.97627	-0.575
Mof_O 	O 	0.737	0.3091	0.14775	-0.357
Mof_O 	O 	0.5527	0.72	0.40569	-0.337
Mof_O 	O 	0.9493	0.5347	0.14342	-0.443
_end
