# CIF file generated by openbabel 3.1.0, see https://openbabel.org
data_I
_chemical_name_common 'image0'
_cell_length_a 30.6196
_cell_length_b 16.0904
_cell_length_c 25.8822
_cell_angle_alpha 90
_cell_angle_beta 90.008
_cell_angle_gamma 90
_space_group_name_H-M_alt 'P 1'
_space_group_name_Hall 'P 1'
loop_
    _symmetry_equiv_pos_as_xyz
    x,y,z
loop_
    _atom_site_label
    _atom_site_type_symbol
    _atom_site_fract_x
    _atom_site_fract_y
    _atom_site_fract_z
    _atom_site_occupancy
    Er1      Er       0.49945    0.58923    0.06281    1.000
    Er2      Er       0.49910    0.71497    0.25029    1.000
    Er3      Er       0.49900    0.57758    0.43718    1.000
    O1       O        0.44890    0.70320    0.19670    1.000
    O2       O        0.45640    0.65120    0.11850    1.000
    C1       C        0.43460    0.68340    0.15360    1.000
    C2       C        0.38670    0.69880    0.14090    1.000
    C3       C        0.35910    0.73440    0.17650    1.000
    H1       H        0.36960    0.74970    0.20880    1.000
    C4       C        0.31440    0.74790    0.16370    1.000
    H2       H        0.29590    0.77180    0.18800    1.000
    C5       C        0.29830    0.72660    0.11660    1.000
    C6       C        0.32610    0.69160    0.08190    1.000
    H3       H        0.31530    0.67670    0.04960    1.000
    C7       C        0.37100    0.67670    0.09300    1.000
    H4       H        0.38930    0.65270    0.06840    1.000
    C8       C        0.25160    0.74200    0.10450    1.000
    H5       H        0.23760    0.70030    0.08590    1.000
    O3       O        0.54760    0.71250    0.18440    1.000
    O4       O        0.55450    0.61420    0.12350    1.000
    C9       C        0.56750    0.67190    0.15120    1.000
    C10      C        0.61500    0.69730    0.14410    1.000
    C11      C        0.63090    0.76140    0.17400    1.000
    H6       H        0.61280    0.78770    0.19770    1.000
    C12      C        0.67520    0.78720    0.16860    1.000
    H7       H        0.68670    0.83000    0.18850    1.000
    C13      C        0.70010    0.74660    0.13310    1.000
    C14      C        0.68480    0.68360    0.10320    1.000
    H8       H        0.70310    0.65800    0.07930    1.000
    C15      C        0.64060    0.65700    0.10840    1.000
    H9       H        0.62950    0.61390    0.08830    1.000
    C16      C        0.74560    0.77810    0.13040    1.000
    H10      H        0.74770    0.82290    0.15300    1.000
    O5       O        0.04430    0.98100    0.07400    1.000
    O6       O        0.04280    0.88770    0.00980    1.000
    C17      C        0.05900    0.92290    0.04780    1.000
    C18      C        0.10330    0.88800    0.06340    1.000
    C19      C        0.12470    0.92220    0.10500    1.000
    H11      H        0.11170    0.96590    0.12280    1.000
    C20      C        0.16630    0.89250    0.12150    1.000
    H12      H        0.18010    0.91640    0.14980    1.000
    C21      C        0.18560    0.82890    0.09560    1.000
    C22      C        0.16440    0.79530    0.05450    1.000
    H13      H        0.17770    0.75170    0.03680    1.000
    C23      C        0.12280    0.82370    0.03710    1.000
    H14      H        0.10920    0.79930    0.00880    1.000
    C24      C        0.22890    0.80200    0.11560    1.000
    H15      H        0.24070    0.83710    0.14070    1.000
    O7       O        0.54660    0.59330    0.99480    1.000
    O8       O        0.55170    0.52170    0.91920    1.000
    C25      C        0.56310    0.57150    0.95320    1.000
    C26      C        0.60600    0.61500    0.94110    1.000
    C27      C        0.62210    0.67200    0.97580    1.000
    H16      H        0.60680    0.68370    0.00600    1.000
    C28      C        0.66240    0.71300    0.96510    1.000
    H17      H        0.67320    0.75140    0.98870    1.000
    C29      C        0.68540    0.69720    0.92120    1.000
    C30      C        0.66940    0.64090    0.88700    1.000
    H18      H        0.68500    0.62960    0.85690    1.000
    C31      C        0.62910    0.59890    0.89650    1.000
    H19      H        0.61850    0.56070    0.87270    1.000
    C32      C        0.72690    0.74370    0.91430    1.000
    H20      H        0.73040    0.79430    0.93110    1.000
    O9       O        0.55290    0.67550    0.30540    1.000
    O10      O        0.55420    0.59920    0.37510    1.000
    C33      C        0.57110    0.64920    0.34480    1.000
    C34      C        0.61680    0.68210    0.35510    1.000
    C35      C        0.63870    0.73770    0.32410    1.000
    H21      H        0.62510    0.75780    0.29450    1.000
    C36      C        0.68170    0.76540    0.33640    1.000
    H22      H        0.69610    0.80300    0.31510    1.000
    C37      C        0.70120    0.73580    0.37980    1.000
    C38      C        0.67980    0.68090    0.41060    1.000
    H23      H        0.69360    0.66140    0.44030    1.000
    C39      C        0.63680    0.65240    0.39890    1.000
    H24      H        0.62270    0.61470    0.42040    1.000
    C40      C        0.74580    0.76160    0.39560    1.000
    H25      H        0.75040    0.75930    0.43110    1.000
    O11      O        0.94640    0.80860    0.80550    1.000
    O12      O        0.95330    0.86990    0.88210    1.000
    C41      C        0.93340    0.82990    0.84870    1.000
    C42      C        0.88700    0.80230    0.86100    1.000
    C43      C        0.86490    0.75760    0.82400    1.000
    H26      H        0.87860    0.74540    0.79290    1.000
    C44      C        0.82130    0.72950    0.83250    1.000
    H27      H        0.80670    0.69950    0.80720    1.000
    C45      C        0.80140    0.74710    0.87810    1.000
    C46      C        0.82340    0.79120    0.91460    1.000
    H28      H        0.80950    0.80280    0.94580    1.000
    C47      C        0.86700    0.82030    0.90730    1.000
    H29      H        0.88130    0.85030    0.93280    1.000
    C48      C        0.75610    0.71790    0.88750    1.000
    H30      H        0.74880    0.67030    0.86910    1.000
    O13      O        0.95820    0.95680    0.43230    1.000
    O14      O        0.95250    0.87180    0.49900    1.000
    C49      C        0.93960    0.90220    0.45780    1.000
    C50      C        0.89680    0.87060    0.43540    1.000
    C51      C        0.88270    0.90460    0.38950    1.000
    H31      H        0.89870    0.94560    0.37270    1.000
    C52      C        0.84250    0.87450    0.36890    1.000
    H32      H        0.83180    0.89610    0.33810    1.000
    C53      C        0.81980    0.81450    0.39430    1.000
    C54      C        0.83430    0.78140    0.43940    1.000
    H33      H        0.81810    0.74040    0.45590    1.000
    C55      C        0.87440    0.80970    0.46140    1.000
    H34      H        0.88480    0.78770    0.49230    1.000
    C56      C        0.77820    0.78570    0.37100    1.000
    H35      H        0.77620    0.78570    0.33510    1.000
    O15      O        0.95400    0.90230    0.00250    1.000
    O16      O        0.95260    0.98650    0.07230    1.000
    C57      C        0.93930    0.93040    0.04360    1.000
    C58      C        0.89740    0.88860    0.06200    1.000
    C59      C        0.87980    0.82540    0.03300    1.000
    H36      H        0.89290    0.80760    0.00250    1.000
    C60      C        0.84060    0.78810    0.05160    1.000
    H37      H        0.82800    0.74520    0.03260    1.000
    C61      C        0.82080    0.81310    0.09590    1.000
    C62      C        0.83870    0.87560    0.12410    1.000
    H38      H        0.82540    0.89310    0.15450    1.000
    C63      C        0.87800    0.91470    0.10710    1.000
    H39      H        0.89040    0.95740    0.12630    1.000
    C64      C        0.78010    0.76940    0.11120    1.000
    H40      H        0.78310    0.71370    0.10220    1.000
    Er4      Er       0.99945    0.08923    0.06281    1.000
    Er5      Er       0.99910    0.21497    0.25029    1.000
    Er6      Er       0.99900    0.07758    0.43718    1.000
    O17      O        0.94890    0.20320    0.19670    1.000
    O18      O        0.95640    0.15120    0.11850    1.000
    C65      C        0.93460    0.18340    0.15360    1.000
    C66      C        0.88670    0.19880    0.14090    1.000
    C67      C        0.85910    0.23440    0.17650    1.000
    H41      H        0.86960    0.24970    0.20880    1.000
    C68      C        0.81440    0.24790    0.16370    1.000
    H42      H        0.79590    0.27180    0.18800    1.000
    C69      C        0.79830    0.22660    0.11660    1.000
    C70      C        0.82610    0.19160    0.08190    1.000
    H43      H        0.81530    0.17670    0.04960    1.000
    C71      C        0.87100    0.17670    0.09300    1.000
    H44      H        0.88930    0.15270    0.06840    1.000
    C72      C        0.75160    0.24200    0.10450    1.000
    H45      H        0.73760    0.20030    0.08590    1.000
    O19      O        0.04760    0.21250    0.18440    1.000
    O20      O        0.05450    0.11420    0.12350    1.000
    C73      C        0.06750    0.17190    0.15120    1.000
    C74      C        0.11500    0.19730    0.14410    1.000
    C75      C        0.13090    0.26140    0.17400    1.000
    H46      H        0.11280    0.28770    0.19770    1.000
    C76      C        0.17520    0.28720    0.16860    1.000
    H47      H        0.18670    0.33000    0.18850    1.000
    C77      C        0.20010    0.24660    0.13310    1.000
    C78      C        0.18480    0.18360    0.10320    1.000
    H48      H        0.20310    0.15800    0.07930    1.000
    C79      C        0.14060    0.15700    0.10840    1.000
    H49      H        0.12950    0.11390    0.08830    1.000
    C80      C        0.24560    0.27810    0.13040    1.000
    H50      H        0.24770    0.32290    0.15300    1.000
    O21      O        0.54430    0.48100    0.07400    1.000
    O22      O        0.54280    0.38770    0.00980    1.000
    C81      C        0.55900    0.42290    0.04780    1.000
    C82      C        0.60330    0.38800    0.06340    1.000
    C83      C        0.62470    0.42220    0.10500    1.000
    H51      H        0.61170    0.46590    0.12280    1.000
    C84      C        0.66630    0.39250    0.12150    1.000
    H52      H        0.68010    0.41640    0.14980    1.000
    C85      C        0.68560    0.32890    0.09560    1.000
    C86      C        0.66440    0.29530    0.05450    1.000
    H53      H        0.67770    0.25170    0.03680    1.000
    C87      C        0.62280    0.32370    0.03710    1.000
    H54      H        0.60920    0.29930    0.00880    1.000
    C88      C        0.72890    0.30200    0.11560    1.000
    H55      H        0.74070    0.33710    0.14070    1.000
    O23      O        0.04660    0.09330    0.99480    1.000
    O24      O        0.05170    0.02170    0.91920    1.000
    C89      C        0.06310    0.07150    0.95320    1.000
    C90      C        0.10600    0.11500    0.94110    1.000
    C91      C        0.12210    0.17200    0.97580    1.000
    H56      H        0.10680    0.18370    0.00600    1.000
    C92      C        0.16240    0.21300    0.96510    1.000
    H57      H        0.17320    0.25140    0.98870    1.000
    C93      C        0.18540    0.19720    0.92120    1.000
    C94      C        0.16940    0.14090    0.88700    1.000
    H58      H        0.18500    0.12960    0.85690    1.000
    C95      C        0.12910    0.09890    0.89650    1.000
    H59      H        0.11850    0.06070    0.87270    1.000
    C96      C        0.22690    0.24370    0.91430    1.000
    H60      H        0.23040    0.29430    0.93110    1.000
    O25      O        0.05290    0.17550    0.30540    1.000
    O26      O        0.05420    0.09920    0.37510    1.000
    C97      C        0.07110    0.14920    0.34480    1.000
    C98      C        0.11680    0.18210    0.35510    1.000
    C99      C        0.13870    0.23770    0.32410    1.000
    H61      H        0.12510    0.25780    0.29450    1.000
    C100     C        0.18170    0.26540    0.33640    1.000
    H62      H        0.19610    0.30300    0.31510    1.000
    C101     C        0.20120    0.23580    0.37980    1.000
    C102     C        0.17980    0.18090    0.41060    1.000
    H63      H        0.19360    0.16140    0.44030    1.000
    C103     C        0.13680    0.15240    0.39890    1.000
    H64      H        0.12270    0.11470    0.42040    1.000
    C104     C        0.24580    0.26160    0.39560    1.000
    H65      H        0.25040    0.25930    0.43110    1.000
    O27      O        0.44640    0.30860    0.80550    1.000
    O28      O        0.45330    0.36990    0.88210    1.000
    C105     C        0.43340    0.32990    0.84870    1.000
    C106     C        0.38700    0.30230    0.86100    1.000
    C107     C        0.36490    0.25760    0.82400    1.000
    H66      H        0.37860    0.24540    0.79290    1.000
    C108     C        0.32130    0.22950    0.83250    1.000
    H67      H        0.30670    0.19950    0.80720    1.000
    C109     C        0.30140    0.24710    0.87810    1.000
    C110     C        0.32340    0.29120    0.91460    1.000
    H68      H        0.30950    0.30280    0.94580    1.000
    C111     C        0.36700    0.32030    0.90730    1.000
    H69      H        0.38130    0.35030    0.93280    1.000
    C112     C        0.25610    0.21790    0.88750    1.000
    H70      H        0.24880    0.17030    0.86910    1.000
    O29      O        0.45820    0.45680    0.43230    1.000
    O30      O        0.45250    0.37180    0.49900    1.000
    C113     C        0.43960    0.40220    0.45780    1.000
    C114     C        0.39680    0.37060    0.43540    1.000
    C115     C        0.38270    0.40460    0.38950    1.000
    H71      H        0.39870    0.44560    0.37270    1.000
    C116     C        0.34250    0.37450    0.36890    1.000
    H72      H        0.33180    0.39610    0.33810    1.000
    C117     C        0.31980    0.31450    0.39430    1.000
    C118     C        0.33430    0.28140    0.43940    1.000
    H73      H        0.31810    0.24040    0.45590    1.000
    C119     C        0.37440    0.30970    0.46140    1.000
    H74      H        0.38480    0.28770    0.49230    1.000
    C120     C        0.27820    0.28570    0.37100    1.000
    H75      H        0.27620    0.28570    0.33510    1.000
    O31      O        0.45400    0.40230    0.00250    1.000
    O32      O        0.45260    0.48650    0.07230    1.000
    C121     C        0.43930    0.43040    0.04360    1.000
    C122     C        0.39740    0.38860    0.06200    1.000
    C123     C        0.37980    0.32540    0.03300    1.000
    H76      H        0.39290    0.30760    0.00250    1.000
    C124     C        0.34060    0.28810    0.05160    1.000
    H77      H        0.32800    0.24520    0.03260    1.000
    C125     C        0.32080    0.31310    0.09590    1.000
    C126     C        0.33870    0.37560    0.12410    1.000
    H78      H        0.32540    0.39310    0.15450    1.000
    C127     C        0.37800    0.41470    0.10710    1.000
    H79      H        0.39040    0.45740    0.12630    1.000
    C128     C        0.28010    0.26940    0.11120    1.000
    H80      H        0.28310    0.21370    0.10220    1.000
    Er7      Er       0.49945    0.41077    0.56281    1.000
    Er8      Er       0.49910    0.28503    0.75029    1.000
    Er9      Er       0.49900    0.42242    0.93718    1.000
    O33      O        0.44890    0.29680    0.69670    1.000
    O34      O        0.45640    0.34880    0.61850    1.000
    C129     C        0.43460    0.31660    0.65360    1.000
    C130     C        0.38670    0.30120    0.64090    1.000
    C131     C        0.35910    0.26560    0.67650    1.000
    H81      H        0.36960    0.25030    0.70880    1.000
    C132     C        0.31440    0.25210    0.66370    1.000
    H82      H        0.29590    0.22820    0.68800    1.000
    C133     C        0.29830    0.27340    0.61660    1.000
    C134     C        0.32610    0.30840    0.58190    1.000
    H83      H        0.31530    0.32330    0.54960    1.000
    C135     C        0.37100    0.32330    0.59300    1.000
    H84      H        0.38930    0.34730    0.56840    1.000
    C136     C        0.25160    0.25800    0.60450    1.000
    H85      H        0.23760    0.29970    0.58590    1.000
    O35      O        0.54760    0.28750    0.68440    1.000
    O36      O        0.55450    0.38580    0.62350    1.000
    C137     C        0.56750    0.32810    0.65120    1.000
    C138     C        0.61500    0.30270    0.64410    1.000
    C139     C        0.63090    0.23860    0.67400    1.000
    H86      H        0.61280    0.21230    0.69770    1.000
    C140     C        0.67520    0.21280    0.66860    1.000
    H87      H        0.68670    0.17000    0.68850    1.000
    C141     C        0.70010    0.25340    0.63310    1.000
    C142     C        0.68480    0.31640    0.60320    1.000
    H88      H        0.70310    0.34200    0.57930    1.000
    C143     C        0.64060    0.34300    0.60840    1.000
    H89      H        0.62950    0.38610    0.58830    1.000
    C144     C        0.74560    0.22190    0.63040    1.000
    H90      H        0.74770    0.17710    0.65300    1.000
    O37      O        0.04430    0.01900    0.57400    1.000
    O38      O        0.04280    0.11230    0.50980    1.000
    C145     C        0.05900    0.07710    0.54780    1.000
    C146     C        0.10330    0.11200    0.56340    1.000
    C147     C        0.12470    0.07780    0.60500    1.000
    H91      H        0.11170    0.03410    0.62280    1.000
    C148     C        0.16630    0.10750    0.62150    1.000
    H92      H        0.18010    0.08360    0.64980    1.000
    C149     C        0.18560    0.17110    0.59560    1.000
    C150     C        0.16440    0.20470    0.55450    1.000
    H93      H        0.17770    0.24830    0.53680    1.000
    C151     C        0.12280    0.17630    0.53710    1.000
    H94      H        0.10920    0.20070    0.50880    1.000
    C152     C        0.22890    0.19800    0.61560    1.000
    H95      H        0.24070    0.16290    0.64070    1.000
    O39      O        0.54660    0.40670    0.49480    1.000
    O40      O        0.55170    0.47830    0.41920    1.000
    C153     C        0.56310    0.42850    0.45320    1.000
    C154     C        0.60600    0.38500    0.44110    1.000
    C155     C        0.62210    0.32800    0.47580    1.000
    H96      H        0.60680    0.31630    0.50600    1.000
    C156     C        0.66240    0.28700    0.46510    1.000
    H97      H        0.67320    0.24860    0.48870    1.000
    C157     C        0.68540    0.30280    0.42120    1.000
    C158     C        0.66940    0.35910    0.38700    1.000
    H98      H        0.68500    0.37040    0.35690    1.000
    C159     C        0.62910    0.40110    0.39650    1.000
    H99      H        0.61850    0.43930    0.37270    1.000
    C160     C        0.72690    0.25630    0.41430    1.000
    H100     H        0.73040    0.20570    0.43110    1.000
    O41      O        0.55290    0.32450    0.80540    1.000
    O42      O        0.55420    0.40080    0.87510    1.000
    C161     C        0.57110    0.35080    0.84480    1.000
    C162     C        0.61680    0.31790    0.85510    1.000
    C163     C        0.63870    0.26230    0.82410    1.000
    H101     H        0.62510    0.24220    0.79450    1.000
    C164     C        0.68170    0.23460    0.83640    1.000
    H102     H        0.69610    0.19700    0.81510    1.000
    C165     C        0.70120    0.26420    0.87980    1.000
    C166     C        0.67980    0.31910    0.91060    1.000
    H103     H        0.69360    0.33860    0.94030    1.000
    C167     C        0.63680    0.34760    0.89890    1.000
    H104     H        0.62270    0.38530    0.92040    1.000
    C168     C        0.74580    0.23840    0.89560    1.000
    H105     H        0.75040    0.24070    0.93110    1.000
    O43      O        0.94640    0.19140    0.30550    1.000
    O44      O        0.95330    0.13010    0.38210    1.000
    C169     C        0.93340    0.17010    0.34870    1.000
    C170     C        0.88700    0.19770    0.36100    1.000
    C171     C        0.86490    0.24240    0.32400    1.000
    H106     H        0.87860    0.25460    0.29290    1.000
    C172     C        0.82130    0.27050    0.33250    1.000
    H107     H        0.80670    0.30050    0.30720    1.000
    C173     C        0.80140    0.25290    0.37810    1.000
    C174     C        0.82340    0.20880    0.41460    1.000
    H108     H        0.80950    0.19720    0.44580    1.000
    C175     C        0.86700    0.17970    0.40730    1.000
    H109     H        0.88130    0.14970    0.43280    1.000
    C176     C        0.75610    0.28210    0.38750    1.000
    H110     H        0.74880    0.32970    0.36910    1.000
    O45      O        0.95820    0.04320    0.93230    1.000
    O46      O        0.95250    0.12820    0.99900    1.000
    C177     C        0.93960    0.09780    0.95780    1.000
    C178     C        0.89680    0.12940    0.93540    1.000
    C179     C        0.88270    0.09540    0.88950    1.000
    H111     H        0.89870    0.05440    0.87270    1.000
    C180     C        0.84250    0.12550    0.86890    1.000
    H112     H        0.83180    0.10390    0.83810    1.000
    C181     C        0.81980    0.18550    0.89430    1.000
    C182     C        0.83430    0.21860    0.93940    1.000
    H113     H        0.81810    0.25960    0.95590    1.000
    C183     C        0.87440    0.19030    0.96140    1.000
    H114     H        0.88480    0.21230    0.99230    1.000
    C184     C        0.77820    0.21430    0.87100    1.000
    H115     H        0.77620    0.21430    0.83510    1.000
    O47      O        0.95400    0.09770    0.50250    1.000
    O48      O        0.95260    0.01350    0.57230    1.000
    C185     C        0.93930    0.06960    0.54360    1.000
    C186     C        0.89740    0.11140    0.56200    1.000
    C187     C        0.87980    0.17460    0.53300    1.000
    H116     H        0.89290    0.19240    0.50250    1.000
    C188     C        0.84060    0.21190    0.55160    1.000
    H117     H        0.82800    0.25480    0.53260    1.000
    C189     C        0.82080    0.18690    0.59590    1.000
    C190     C        0.83870    0.12440    0.62410    1.000
    H118     H        0.82540    0.10690    0.65450    1.000
    C191     C        0.87800    0.08530    0.60710    1.000
    H119     H        0.89040    0.04260    0.62630    1.000
    C192     C        0.78010    0.23060    0.61120    1.000
    H120     H        0.78310    0.28630    0.60220    1.000
    Er10     Er       0.99945    0.91077    0.56281    1.000
    Er11     Er       0.99910    0.78503    0.75029    1.000
    Er12     Er       0.99900    0.92242    0.93718    1.000
    O49      O        0.94890    0.79680    0.69670    1.000
    O50      O        0.95640    0.84880    0.61850    1.000
    C193     C        0.93460    0.81660    0.65360    1.000
    C194     C        0.88670    0.80120    0.64090    1.000
    C195     C        0.85910    0.76560    0.67650    1.000
    H121     H        0.86960    0.75030    0.70880    1.000
    C196     C        0.81440    0.75210    0.66370    1.000
    H122     H        0.79590    0.72820    0.68800    1.000
    C197     C        0.79830    0.77340    0.61660    1.000
    C198     C        0.82610    0.80840    0.58190    1.000
    H123     H        0.81530    0.82330    0.54960    1.000
    C199     C        0.87100    0.82330    0.59300    1.000
    H124     H        0.88930    0.84730    0.56840    1.000
    C200     C        0.75160    0.75800    0.60450    1.000
    H125     H        0.73760    0.79970    0.58590    1.000
    O51      O        0.04760    0.78750    0.68440    1.000
    O52      O        0.05450    0.88580    0.62350    1.000
    C201     C        0.06750    0.82810    0.65120    1.000
    C202     C        0.11500    0.80270    0.64410    1.000
    C203     C        0.13090    0.73860    0.67400    1.000
    H126     H        0.11280    0.71230    0.69770    1.000
    C204     C        0.17520    0.71280    0.66860    1.000
    H127     H        0.18670    0.67000    0.68850    1.000
    C205     C        0.20010    0.75340    0.63310    1.000
    C206     C        0.18480    0.81640    0.60320    1.000
    H128     H        0.20310    0.84200    0.57930    1.000
    C207     C        0.14060    0.84300    0.60840    1.000
    H129     H        0.12950    0.88610    0.58830    1.000
    C208     C        0.24560    0.72190    0.63040    1.000
    H130     H        0.24770    0.67710    0.65300    1.000
    O53      O        0.54430    0.51900    0.57400    1.000
    O54      O        0.54280    0.61230    0.50980    1.000
    C209     C        0.55900    0.57710    0.54780    1.000
    C210     C        0.60330    0.61200    0.56340    1.000
    C211     C        0.62470    0.57780    0.60500    1.000
    H131     H        0.61170    0.53410    0.62280    1.000
    C212     C        0.66630    0.60750    0.62150    1.000
    H132     H        0.68010    0.58360    0.64980    1.000
    C213     C        0.68560    0.67110    0.59560    1.000
    C214     C        0.66440    0.70470    0.55450    1.000
    H133     H        0.67770    0.74830    0.53680    1.000
    C215     C        0.62280    0.67630    0.53710    1.000
    H134     H        0.60920    0.70070    0.50880    1.000
    C216     C        0.72890    0.69800    0.61560    1.000
    H135     H        0.74070    0.66290    0.64070    1.000
    O55      O        0.04660    0.90670    0.49480    1.000
    O56      O        0.05170    0.97830    0.41920    1.000
    C217     C        0.06310    0.92850    0.45320    1.000
    C218     C        0.10600    0.88500    0.44110    1.000
    C219     C        0.12210    0.82800    0.47580    1.000
    H136     H        0.10680    0.81630    0.50600    1.000
    C220     C        0.16240    0.78700    0.46510    1.000
    H137     H        0.17320    0.74860    0.48870    1.000
    C221     C        0.18540    0.80280    0.42120    1.000
    C222     C        0.16940    0.85910    0.38700    1.000
    H138     H        0.18500    0.87040    0.35690    1.000
    C223     C        0.12910    0.90110    0.39650    1.000
    H139     H        0.11850    0.93930    0.37270    1.000
    C224     C        0.22690    0.75630    0.41430    1.000
    H140     H        0.23040    0.70570    0.43110    1.000
    O57      O        0.05290    0.82450    0.80540    1.000
    O58      O        0.05420    0.90080    0.87510    1.000
    C225     C        0.07110    0.85080    0.84480    1.000
    C226     C        0.11680    0.81790    0.85510    1.000
    C227     C        0.13870    0.76230    0.82410    1.000
    H141     H        0.12510    0.74220    0.79450    1.000
    C228     C        0.18170    0.73460    0.83640    1.000
    H142     H        0.19610    0.69700    0.81510    1.000
    C229     C        0.20120    0.76420    0.87980    1.000
    C230     C        0.17980    0.81910    0.91060    1.000
    H143     H        0.19360    0.83860    0.94030    1.000
    C231     C        0.13680    0.84760    0.89890    1.000
    H144     H        0.12270    0.88530    0.92040    1.000
    C232     C        0.24580    0.73840    0.89560    1.000
    H145     H        0.25040    0.74070    0.93110    1.000
    O59      O        0.44640    0.69140    0.30550    1.000
    O60      O        0.45330    0.63010    0.38210    1.000
    C233     C        0.43340    0.67010    0.34870    1.000
    C234     C        0.38700    0.69770    0.36100    1.000
    C235     C        0.36490    0.74240    0.32400    1.000
    H146     H        0.37860    0.75460    0.29290    1.000
    C236     C        0.32130    0.77050    0.33250    1.000
    H147     H        0.30670    0.80050    0.30720    1.000
    C237     C        0.30140    0.75290    0.37810    1.000
    C238     C        0.32340    0.70880    0.41460    1.000
    H148     H        0.30950    0.69720    0.44580    1.000
    C239     C        0.36700    0.67970    0.40730    1.000
    H149     H        0.38130    0.64970    0.43280    1.000
    C240     C        0.25610    0.78210    0.38750    1.000
    H150     H        0.24880    0.82970    0.36910    1.000
    O61      O        0.45820    0.54320    0.93230    1.000
    O62      O        0.45250    0.62820    0.99900    1.000
    C241     C        0.43960    0.59780    0.95780    1.000
    C242     C        0.39680    0.62940    0.93540    1.000
    C243     C        0.38270    0.59540    0.88950    1.000
    H151     H        0.39870    0.55440    0.87270    1.000
    C244     C        0.34250    0.62550    0.86890    1.000
    H152     H        0.33180    0.60390    0.83810    1.000
    C245     C        0.31980    0.68550    0.89430    1.000
    C246     C        0.33430    0.71860    0.93940    1.000
    H153     H        0.31810    0.75960    0.95590    1.000
    C247     C        0.37440    0.69030    0.96140    1.000
    H154     H        0.38480    0.71230    0.99230    1.000
    C248     C        0.27820    0.71430    0.87100    1.000
    H155     H        0.27620    0.71430    0.83510    1.000
    O63      O        0.45400    0.59770    0.50250    1.000
    O64      O        0.45260    0.51350    0.57230    1.000
    C249     C        0.43930    0.56960    0.54360    1.000
    C250     C        0.39740    0.61140    0.56200    1.000
    C251     C        0.37980    0.67460    0.53300    1.000
    H156     H        0.39290    0.69240    0.50250    1.000
    C252     C        0.34060    0.71190    0.55160    1.000
    H157     H        0.32800    0.75480    0.53260    1.000
    C253     C        0.32080    0.68690    0.59590    1.000
    C254     C        0.33870    0.62440    0.62410    1.000
    H158     H        0.32540    0.60690    0.65450    1.000
    C255     C        0.37800    0.58530    0.60710    1.000
    H159     H        0.39040    0.54260    0.62630    1.000
    C256     C        0.28010    0.73060    0.61120    1.000
    H160     H        0.28310    0.78630    0.60220    1.000
