data_functionalizedCrystal
_audit_creation_method	'EQeq! by Chris Wilmer'
_symmetry_space_group_name_H-M	'P1'
_symmetry_Int_Tables_number	1
_symmetry_cell_setting	triclinic
loop_
_symmetry_equiv_pos_as_xyz
  x,y,z
_cell_length_a	10.0483
_cell_length_b	13.4969
_cell_length_c	16.7346
_cell_angle_alpha	90
_cell_angle_beta	93.683
_cell_angle_gamma	90
loop_
_atom_site_label
_atom_site_type_symbol
_atom_site_fract_x
_atom_site_fract_y
_atom_site_fract_z
_atom_site_charge
Mof_S 	S 	0.29854	0.55461	0.25008	0.079
Mof_S 	S 	0.77207	0.25203	0.2948	0.053
Mof_Mg	Mg	0.40775	0.34378	0.0257	1.474
Mof_Mg	Mg	0.5293	0.10289	0.05125	1.465
Mof_O 	O 	0.3864	0.46066	0.10148	-0.522
Mof_O 	O 	0.92062	0.29501	0.45628	-0.609
Mof_O 	O 	0.6226	0.15887	0.15495	-0.505
Mof_O 	O 	0.93307	0.45451	0.43882	-0.68
Mof_O 	O 	0.14369	0.60059	0.39329	-0.52
Mof_O 	O 	0.199	0.76129	0.39861	-0.523
Mof_O 	O 	0.4845	0.59248	0.05543	-0.566
Mof_C 	C 	0.1992	0.6774	0.36814	0.435
Mof_C 	C 	0.2719	0.6676	0.29343	-0.117
Mof_C 	C 	0.3709	0.60942	0.17139	-0.157
Mof_C 	C 	0.4182	0.54935	0.10365	0.507
Mof_O 	O 	0.577	0.2968	0.08853	-0.556
Mof_C 	C 	0.623	0.2511	0.14897	0.409
Mof_C 	C 	0.6842	0.3097	0.21697	-0.112
Mof_C 	C 	0.8114	0.36394	0.33909	-0.164
Mof_C 	C 	0.8914	0.37013	0.4152	0.47
Mof_C 	C 	0.3161	0.7427	0.24855	-0.017
Mof_H 	H 	0.3102	0.8092	0.2626	0.047
Mof_C 	C 	0.372	0.7093	0.17833	0.022
Mof_H 	H 	0.4061	0.7515	0.1407	0.018
Mof_C 	C 	0.6833	0.4093	0.22533	-0.012
Mof_H 	H 	0.6389	0.452	0.189	0.039
Mof_C 	C 	0.7568	0.4413	0.29501	0.013
Mof_H 	H 	0.7672	0.5075	0.3096	0.029
Mof_S 	S 	0.20146	0.05461	0.24992	0.075
Mof_S 	S 	0.72793	0.75203	0.2052	0.055
Mof_Mg	Mg	0.09225	0.84378	0.4743	1.473
Mof_Mg	Mg	0.9707	0.60289	0.44875	1.465
Mof_O 	O 	0.1136	0.96066	0.39852	-0.522
Mof_O 	O 	0.57938	0.79501	0.04372	-0.607
Mof_O 	O 	0.8774	0.65887	0.34505	-0.503
Mof_O 	O 	0.56693	0.95451	0.06118	-0.676
Mof_O 	O 	0.35631	0.10059	0.10671	-0.523
Mof_O 	O 	0.301	0.26129	0.10139	-0.524
Mof_O 	O 	0.0155	0.09248	0.44457	-0.567
Mof_C 	C 	0.3008	0.1774	0.13186	0.435
Mof_C 	C 	0.2281	0.1676	0.20657	-0.117
Mof_C 	C 	0.1291	0.10942	0.32861	-0.157
Mof_C 	C 	0.0818	0.04935	0.39635	0.507
Mof_O 	O 	0.923	0.7968	0.41147	-0.554
Mof_C 	C 	0.877	0.7511	0.35103	0.408
Mof_C 	C 	0.8158	0.8097	0.28303	-0.108
Mof_C 	C 	0.6886	0.86394	0.16091	-0.169
Mof_C 	C 	0.6086	0.87013	0.0848	0.472
Mof_C 	C 	0.1839	0.2427	0.25145	-0.017
Mof_H 	H 	0.1898	0.3092	0.2374	0.046
Mof_C 	C 	0.128	0.2093	0.32167	0.021
Mof_H 	H 	0.0939	0.2515	0.3593	0.018
Mof_C 	C 	0.8167	0.9093	0.27467	-0.021
Mof_H 	H 	0.8611	0.952	0.311	0.044
Mof_C 	C 	0.7432	0.9413	0.20499	0.031
Mof_H 	H 	0.7328	0.0075	0.1904	0.017
Mof_S 	S 	0.70146	0.44539	0.74992	0.078
Mof_S 	S 	0.22793	0.74797	0.7052	0.052
Mof_Mg	Mg	0.59225	0.65622	0.9743	1.473
Mof_Mg	Mg	0.4707	0.89711	0.94875	1.464
Mof_O 	O 	0.6136	0.53934	0.89852	-0.522
Mof_O 	O 	0.07938	0.70499	0.54372	-0.609
Mof_O 	O 	0.3774	0.84113	0.84505	-0.505
Mof_O 	O 	0.06693	0.54549	0.56118	-0.68
Mof_O 	O 	0.85631	0.39941	0.60671	-0.52
Mof_O 	O 	0.801	0.23871	0.60139	-0.523
Mof_O 	O 	0.5155	0.40752	0.94457	-0.566
Mof_C 	C 	0.8008	0.3226	0.63186	0.435
Mof_C 	C 	0.7281	0.3324	0.70657	-0.117
Mof_C 	C 	0.6291	0.39058	0.82861	-0.157
Mof_C 	C 	0.5818	0.45065	0.89635	0.507
Mof_O 	O 	0.423	0.7032	0.91147	-0.556
Mof_C 	C 	0.377	0.7489	0.85103	0.409
Mof_C 	C 	0.3158	0.6903	0.78303	-0.112
Mof_C 	C 	0.1886	0.63606	0.66091	-0.164
Mof_C 	C 	0.1086	0.62987	0.5848	0.47
Mof_C 	C 	0.6839	0.2573	0.75145	-0.017
Mof_H 	H 	0.6898	0.1908	0.7374	0.047
Mof_C 	C 	0.628	0.2907	0.82167	0.022
Mof_H 	H 	0.5939	0.2485	0.8593	0.018
Mof_C 	C 	0.3167	0.5907	0.77467	-0.012
Mof_H 	H 	0.3611	0.548	0.811	0.039
Mof_C 	C 	0.2432	0.5587	0.70499	0.013
Mof_H 	H 	0.2328	0.4925	0.6904	0.029
Mof_S 	S 	0.79854	0.94539	0.75008	0.075
Mof_S 	S 	0.27207	0.24797	0.7948	0.055
Mof_Mg	Mg	0.90775	0.15622	0.5257	1.473
Mof_Mg	Mg	0.0293	0.39711	0.55125	1.465
Mof_O 	O 	0.8864	0.03934	0.60148	-0.522
Mof_O 	O 	0.42062	0.20499	0.95628	-0.607
Mof_O 	O 	0.1226	0.34113	0.65495	-0.503
Mof_O 	O 	0.43307	0.04549	0.93882	-0.676
Mof_O 	O 	0.64369	0.89941	0.89329	-0.523
Mof_O 	O 	0.699	0.73871	0.89861	-0.524
Mof_O 	O 	0.9845	0.90752	0.55543	-0.567
Mof_C 	C 	0.6992	0.8226	0.86814	0.435
Mof_C 	C 	0.7719	0.8324	0.79343	-0.117
Mof_C 	C 	0.8709	0.89058	0.67139	-0.157
Mof_C 	C 	0.9182	0.95065	0.60365	0.507
Mof_O 	O 	0.077	0.2032	0.58853	-0.554
Mof_C 	C 	0.123	0.2489	0.64897	0.408
Mof_C 	C 	0.1842	0.1903	0.71697	-0.108
Mof_C 	C 	0.3114	0.13606	0.83909	-0.169
Mof_C 	C 	0.3914	0.12987	0.9152	0.472
Mof_C 	C 	0.8161	0.7573	0.74855	-0.017
Mof_H 	H 	0.8102	0.6908	0.7626	0.046
Mof_C 	C 	0.872	0.7907	0.67833	0.021
Mof_H 	H 	0.9061	0.7485	0.6407	0.018
Mof_C 	C 	0.1833	0.0907	0.72533	-0.021
Mof_H 	H 	0.1389	0.048	0.689	0.044
Mof_C 	C 	0.2568	0.0587	0.79501	0.031
Mof_H 	H 	0.2672	0.9925	0.8096	0.017
_end
