data_functionalizedCrystal
_audit_creation_method	'EQeq! by Chris Wilmer'
_symmetry_space_group_name_H-M	'P1'
_symmetry_Int_Tables_number	1
_symmetry_cell_setting	triclinic
loop_
_symmetry_equiv_pos_as_xyz
  x,y,z
_cell_length_a	5.7843
_cell_length_b	30.2512
_cell_length_c	7.547
_cell_angle_alpha	90
_cell_angle_beta	112.53
_cell_angle_gamma	90
loop_
_atom_site_label
_atom_site_type_symbol
_atom_site_fract_x
_atom_site_fract_y
_atom_site_fract_z
_atom_site_charge
Mof_Cu	Cu	0.0788	0.45998	0.92319	0.816
Mof_Cu	Cu	0.67576	0.2871	0.98615	0.83
Mof_S 	S 	0.7204	0.5136	0.7552	-0.366
Mof_S 	S 	0.5113	0.24266	0.1573	-0.42
Mof_S 	S 	0.5016	0.35684	0.9657	-0.306
Mof_N 	N 	0.3119	0.4717	0.7963	-0.277
Mof_N 	N 	0.0326	0.278	0.0679	-0.278
Mof_N 	N 	0.8757	0.4087	0.9223	-0.283
Mof_C 	C 	0.4775	0.4885	0.7791	0.094
Mof_C 	C 	0.2315	0.2644	0.1055	0.111
Mof_C 	C 	0.725	0.3877	0.9398	0.087
Mof_Cu	Cu	0.9212	0.95998	0.57681	0.818
Mof_Cu	Cu	0.32424	0.7871	0.51385	0.837
Mof_S 	S 	0.2796	0.0136	0.7448	-0.373
Mof_S 	S 	0.4887	0.74266	0.3427	-0.433
Mof_S 	S 	0.4984	0.85684	0.5343	-0.299
Mof_N 	N 	0.6881	0.9717	0.7037	-0.277
Mof_N 	N 	0.9674	0.778	0.4321	-0.285
Mof_N 	N 	0.1243	0.9087	0.5777	-0.283
Mof_C 	C 	0.5225	0.9885	0.7209	0.094
Mof_C 	C 	0.7685	0.7644	0.3945	0.105
Mof_C 	C 	0.275	0.8877	0.5602	0.087
Mof_Cu	Cu	0.9212	0.54002	0.07681	0.817
Mof_Cu	Cu	0.32424	0.7129	0.01385	0.831
Mof_S 	S 	0.2796	0.4864	0.2448	-0.366
Mof_S 	S 	0.4887	0.75734	0.8427	-0.42
Mof_S 	S 	0.4984	0.64316	0.0343	-0.306
Mof_N 	N 	0.6881	0.5283	0.2037	-0.277
Mof_N 	N 	0.9674	0.722	0.9321	-0.278
Mof_N 	N 	0.1243	0.5913	0.0777	-0.283
Mof_C 	C 	0.5225	0.5115	0.2209	0.094
Mof_C 	C 	0.7685	0.7356	0.8945	0.111
Mof_C 	C 	0.275	0.6123	0.0602	0.087
Mof_Cu	Cu	0.0788	0.04002	0.42319	0.818
Mof_Cu	Cu	0.67576	0.2129	0.48615	0.837
Mof_S 	S 	0.7204	0.9864	0.2552	-0.373
Mof_S 	S 	0.5113	0.25734	0.6573	-0.433
Mof_S 	S 	0.5016	0.14316	0.4657	-0.299
Mof_N 	N 	0.3119	0.0283	0.2963	-0.277
Mof_N 	N 	0.0326	0.222	0.5679	-0.285
Mof_N 	N 	0.8757	0.0913	0.4223	-0.283
Mof_C 	C 	0.4775	0.0115	0.2791	0.094
Mof_C 	C 	0.2315	0.2356	0.6055	0.105
Mof_C 	C 	0.725	0.1123	0.4398	0.087
_end
