# CIF file generated by openbabel 3.1.0, see https://openbabel.org
data_I
_chemical_name_common 'image0'
_cell_length_a 8.782
_cell_length_b 14.9417
_cell_length_c 15.4943
_cell_angle_alpha 90
_cell_angle_beta 92.94
_cell_angle_gamma 90
_space_group_name_H-M_alt 'P 1'
_space_group_name_Hall 'P 1'
loop_
    _symmetry_equiv_pos_as_xyz
    x,y,z
loop_
    _atom_site_label
    _atom_site_type_symbol
    _atom_site_fract_x
    _atom_site_fract_y
    _atom_site_fract_z
    _atom_site_occupancy
    Zn1      Zn       0.65033    0.61909    0.01032    1.000
    P1       P        0.78990    0.72018    0.85023    1.000
    P2       P        0.66127    0.58030    0.58375    1.000
    O1       O        0.78060    0.64760    0.91643    1.000
    O2       O        0.81500    0.81290    0.88448    1.000
    O3       O        0.72500    0.49922    0.54044    1.000
    O4       O        0.56130    0.63797    0.52414    1.000
    O5       O        0.65500    0.72223    0.78397    1.000
    O6       O        0.58450    0.55504    0.66609    1.000
    H1       H        0.91000    0.69900    0.80700    1.000
    H2       H        0.78200    0.63030    0.60720    1.000
    Zn2      Zn       0.15033    0.11909    0.01032    1.000
    P3       P        0.28990    0.22018    0.85023    1.000
    P4       P        0.16127    0.08030    0.58375    1.000
    O7       O        0.28060    0.14760    0.91643    1.000
    O8       O        0.31500    0.31290    0.88448    1.000
    O9       O        0.22500    0.99922    0.54044    1.000
    O10      O        0.06130    0.13797    0.52414    1.000
    O11      O        0.15500    0.22223    0.78397    1.000
    O12      O        0.08450    0.05504    0.66609    1.000
    H3       H        0.41000    0.19900    0.80700    1.000
    H4       H        0.28200    0.13030    0.60720    1.000
    Zn3      Zn       0.34967    0.61909    0.48968    1.000
    P5       P        0.21010    0.72018    0.64977    1.000
    P6       P        0.33873    0.58030    0.91625    1.000
    O13      O        0.21940    0.64760    0.58357    1.000
    O14      O        0.18500    0.81290    0.61552    1.000
    O15      O        0.27500    0.49922    0.95956    1.000
    O16      O        0.43870    0.63797    0.97586    1.000
    O17      O        0.34500    0.72223    0.71603    1.000
    O18      O        0.41550    0.55504    0.83391    1.000
    H5       H        0.09000    0.69900    0.69300    1.000
    H6       H        0.21800    0.63030    0.89280    1.000
    Zn4      Zn       0.84967    0.11909    0.48968    1.000
    P7       P        0.71010    0.22018    0.64977    1.000
    P8       P        0.83873    0.08030    0.91625    1.000
    O19      O        0.71940    0.14760    0.58357    1.000
    O20      O        0.68500    0.31290    0.61552    1.000
    O21      O        0.77500    0.99922    0.95956    1.000
    O22      O        0.93870    0.13797    0.97586    1.000
    O23      O        0.84500    0.22223    0.71603    1.000
    O24      O        0.91550    0.05504    0.83391    1.000
    H7       H        0.59000    0.19900    0.69300    1.000
    H8       H        0.71800    0.13030    0.89280    1.000
    Zn5      Zn       0.34967    0.38091    0.98968    1.000
    P9       P        0.21010    0.27982    0.14977    1.000
    P10      P        0.33873    0.41970    0.41625    1.000
    O25      O        0.21940    0.35240    0.08357    1.000
    O26      O        0.18500    0.18710    0.11552    1.000
    O27      O        0.27500    0.50078    0.45956    1.000
    O28      O        0.43870    0.36203    0.47586    1.000
    O29      O        0.34500    0.27777    0.21603    1.000
    O30      O        0.41550    0.44496    0.33391    1.000
    H9       H        0.09000    0.30100    0.19300    1.000
    H10      H        0.21800    0.36970    0.39280    1.000
    Zn6      Zn       0.84967    0.88091    0.98968    1.000
    P11      P        0.71010    0.77982    0.14977    1.000
    P12      P        0.83873    0.91970    0.41625    1.000
    O31      O        0.71940    0.85240    0.08357    1.000
    O32      O        0.68500    0.68710    0.11552    1.000
    O33      O        0.77500    0.00078    0.45956    1.000
    O34      O        0.93870    0.86203    0.47586    1.000
    O35      O        0.84500    0.77777    0.21603    1.000
    O36      O        0.91550    0.94496    0.33391    1.000
    H11      H        0.59000    0.80100    0.19300    1.000
    H12      H        0.71800    0.86970    0.39280    1.000
    Zn7      Zn       0.65033    0.38091    0.51032    1.000
    P13      P        0.78990    0.27982    0.35023    1.000
    P14      P        0.66127    0.41970    0.08375    1.000
    O37      O        0.78060    0.35240    0.41643    1.000
    O38      O        0.81500    0.18710    0.38448    1.000
    O39      O        0.72500    0.50078    0.04044    1.000
    O40      O        0.56130    0.36203    0.02414    1.000
    O41      O        0.65500    0.27777    0.28397    1.000
    O42      O        0.58450    0.44496    0.16609    1.000
    H13      H        0.91000    0.30100    0.30700    1.000
    H14      H        0.78200    0.36970    0.10720    1.000
    Zn8      Zn       0.15033    0.88091    0.51032    1.000
    P15      P        0.28990    0.77982    0.35023    1.000
    P16      P        0.16127    0.91970    0.08375    1.000
    O43      O        0.28060    0.85240    0.41643    1.000
    O44      O        0.31500    0.68710    0.38448    1.000
    O45      O        0.22500    0.00078    0.04044    1.000
    O46      O        0.06130    0.86203    0.02414    1.000
    O47      O        0.15500    0.77777    0.28397    1.000
    O48      O        0.08450    0.94496    0.16609    1.000
    H15      H        0.41000    0.80100    0.30700    1.000
    H16      H        0.28200    0.86970    0.10720    1.000
    Zn9      Zn       0.50000    0.63203    0.75000    1.000
    Zn10     Zn       0.00000    0.13203    0.75000    1.000
    Zn11     Zn       0.50000    0.36797    0.25000    1.000
    Zn12     Zn       0.00000    0.86797    0.25000    1.000
