# CIF file generated by openbabel 3.1.0, see https://openbabel.org
data_I
_chemical_name_common 'image0'
_cell_length_a 11.3407
_cell_length_b 9.7856
_cell_length_c 14.4334
_cell_angle_alpha 90
_cell_angle_beta 91.449
_cell_angle_gamma 90
_space_group_name_H-M_alt 'P 1'
_space_group_name_Hall 'P 1'
loop_
    _symmetry_equiv_pos_as_xyz
    x,y,z
loop_
    _atom_site_label
    _atom_site_type_symbol
    _atom_site_fract_x
    _atom_site_fract_y
    _atom_site_fract_z
    _atom_site_occupancy
    Zn1      Zn       0.24321    0.08135    0.36880    1.000
    Zn2      Zn       0.24008    0.39482    0.31394    1.000
    O1       O        0.31540    0.97350    0.47709    1.000
    C1       C        0.25680    0.89450    0.52960    1.000
    H1       H        0.29900    0.84600    0.57000    1.000
    O2       O        0.14970    0.88730    0.53343    1.000
    O3       O        0.10170    0.15730    0.44056    1.000
    C2       C        0.06940    0.28070    0.44890    1.000
    H2       H        0.00000    0.28900    0.48700    1.000
    O4       O        0.11120    0.38060    0.40887    1.000
    O5       O        0.18990    0.20270    0.25450    1.000
    C3       C        0.16900    0.17550    0.16970    1.000
    H3       H        0.13600    0.25000    0.12900    1.000
    O6       O        0.18520    0.06480    0.13054    1.000
    O7       O        0.34610    0.25930    0.39118    1.000
    C4       C        0.42410    0.28960    0.45210    1.000
    H4       H        0.43100    0.38500    0.45500    1.000
    O8       O        0.48160    0.21000    0.50073    1.000
    O9       O        0.14910    0.91890    0.30478    1.000
    C5       C        0.04510    0.87410    0.31130    1.000
    H5       H        0.02400    0.80900    0.26700    1.000
    O10      O        0.97630    0.89910    0.37430    1.000
    O11      O        0.37000    0.99730    0.28065    1.000
    C6       C        0.48030    0.98730    0.28780    1.000
    H6       H        0.51700    0.96600    0.23100    1.000
    O12      O        0.54060    0.99970    0.35956    1.000
    Zn3      Zn       0.25679    0.58135    0.13120    1.000
    Zn4      Zn       0.25992    0.89482    0.18606    1.000
    O13      O        0.18460    0.47350    0.02291    1.000
    C7       C        0.24320    0.39450    0.97040    1.000
    H7       H        0.20100    0.34600    0.93000    1.000
    O14      O        0.35030    0.38730    0.96657    1.000
    O15      O        0.39830    0.65730    0.05944    1.000
    C8       C        0.43060    0.78070    0.05110    1.000
    H8       H        0.50000    0.78900    0.01300    1.000
    O16      O        0.38880    0.88060    0.09113    1.000
    O17      O        0.31010    0.70270    0.24550    1.000
    C9       C        0.33100    0.67550    0.33030    1.000
    H9       H        0.36400    0.75000    0.37100    1.000
    O18      O        0.31480    0.56480    0.36946    1.000
    O19      O        0.15390    0.75930    0.10882    1.000
    C10      C        0.07590    0.78960    0.04790    1.000
    H10      H        0.06900    0.88500    0.04500    1.000
    O20      O        0.01840    0.71000    0.99927    1.000
    O21      O        0.35090    0.41890    0.19522    1.000
    C11      C        0.45490    0.37410    0.18870    1.000
    H11      H        0.47600    0.30900    0.23300    1.000
    O22      O        0.52370    0.39910    0.12570    1.000
    O23      O        0.13000    0.49730    0.21935    1.000
    C12      C        0.01970    0.48730    0.21220    1.000
    H12      H        0.98300    0.46600    0.26900    1.000
    O24      O        0.95940    0.49970    0.14044    1.000
    Zn5      Zn       0.75679    0.91865    0.63120    1.000
    Zn6      Zn       0.75992    0.60518    0.68606    1.000
    O25      O        0.68460    0.02650    0.52291    1.000
    C13      C        0.74320    0.10550    0.47040    1.000
    H13      H        0.70100    0.15400    0.43000    1.000
    O26      O        0.85030    0.11270    0.46657    1.000
    O27      O        0.89830    0.84270    0.55944    1.000
    C14      C        0.93060    0.71930    0.55110    1.000
    H14      H        0.00000    0.71100    0.51300    1.000
    O28      O        0.88880    0.61940    0.59113    1.000
    O29      O        0.81010    0.79730    0.74550    1.000
    C15      C        0.83100    0.82450    0.83030    1.000
    H15      H        0.86400    0.75000    0.87100    1.000
    O30      O        0.81480    0.93520    0.86946    1.000
    O31      O        0.65390    0.74070    0.60882    1.000
    C16      C        0.57590    0.71040    0.54790    1.000
    H16      H        0.56900    0.61500    0.54500    1.000
    O32      O        0.51840    0.79000    0.49927    1.000
    O33      O        0.85090    0.08110    0.69522    1.000
    C17      C        0.95490    0.12590    0.68870    1.000
    H17      H        0.97600    0.19100    0.73300    1.000
    O34      O        0.02370    0.10090    0.62570    1.000
    O35      O        0.63000    0.00270    0.71935    1.000
    C18      C        0.51970    0.01270    0.71220    1.000
    H18      H        0.48300    0.03400    0.76900    1.000
    O36      O        0.45940    0.00030    0.64044    1.000
    Zn7      Zn       0.74321    0.41865    0.86880    1.000
    Zn8      Zn       0.74008    0.10518    0.81394    1.000
    O37      O        0.81540    0.52650    0.97709    1.000
    C19      C        0.75680    0.60550    0.02960    1.000
    H19      H        0.79900    0.65400    0.07000    1.000
    O38      O        0.64970    0.61270    0.03343    1.000
    O39      O        0.60170    0.34270    0.94056    1.000
    C20      C        0.56940    0.21930    0.94890    1.000
    H20      H        0.50000    0.21100    0.98700    1.000
    O40      O        0.61120    0.11940    0.90887    1.000
    O41      O        0.68990    0.29730    0.75450    1.000
    C21      C        0.66900    0.32450    0.66970    1.000
    H21      H        0.63600    0.25000    0.62900    1.000
    O42      O        0.68520    0.43520    0.63054    1.000
    O43      O        0.84610    0.24070    0.89118    1.000
    C22      C        0.92410    0.21040    0.95210    1.000
    H22      H        0.93100    0.11500    0.95500    1.000
    O44      O        0.98160    0.29000    0.00073    1.000
    O45      O        0.64910    0.58110    0.80478    1.000
    C23      C        0.54510    0.62590    0.81130    1.000
    H23      H        0.52400    0.69100    0.76700    1.000
    O46      O        0.47630    0.60090    0.87430    1.000
    O47      O        0.87000    0.50270    0.78065    1.000
    C24      C        0.98030    0.51270    0.78780    1.000
    H24      H        0.01700    0.53400    0.73100    1.000
    O48      O        0.04060    0.50030    0.85956    1.000
    Zn9      Zn       0.50000    0.00000    0.50000    1.000
    Zn10     Zn       0.00000    0.50000    0.00000    1.000
    Zn11     Zn       0.00000    0.00000    0.50000    1.000
    Zn12     Zn       0.50000    0.50000    0.00000    1.000
