data_functionalizedCrystal
_audit_creation_method	'EQeq! by Chris Wilmer'
_symmetry_space_group_name_H-M	'P1'
_symmetry_Int_Tables_number	1
_symmetry_cell_setting	triclinic
loop_
_symmetry_equiv_pos_as_xyz
  x,y,z
_cell_length_a	12.0144
_cell_length_b	16.9892
_cell_length_c	31.2716
_cell_angle_alpha	90
_cell_angle_beta	90
_cell_angle_gamma	90
loop_
_atom_site_label
_atom_site_type_symbol
_atom_site_fract_x
_atom_site_fract_y
_atom_site_fract_z
_atom_site_charge
Mof_Ag	Ag	0.4879	0.25694	0.43223	0.414
Mof_Ag	Ag	0.9063	0.17597	0.45366	0.41
Mof_Ag	Ag	0.57111	0.30894	0.53443	0.384
Mof_N 	N 	0.3562	0.0945	0.4252	-0.162
Mof_N 	N 	0.6312	0.4131	0.4286	-0.159
Mof_N 	N 	0.121	0.0782	0.4228	-0.16
Mof_N 	N 	0.7696	0.2244	0.4868	-0.178
Mof_N 	N 	0.3707	0.4158	0.5699	-0.161
Mof_C 	C 	0.4061	0.1489	0.4279	-0.101
Mof_C 	C 	0.5715	0.3613	0.4298	-0.115
Mof_C 	C 	0.046	0.1189	0.4299	-0.111
Mof_C 	C 	0.7005	0.2511	0.5062	-0.122
Mof_C 	C 	0.4425	0.3722	0.5604	-0.114
Mof_C 	C 	0.3395	0.0228	0.3344	0.075
Mof_H 	H 	0.4035	0.0395	0.3497	-0.011
Mof_C 	C 	0.3414	0.0228	0.2896	-0.144
Mof_H 	H 	0.4073	0.0388	0.2753	0.065
Mof_C 	C 	0.3412	0.972	0.1953	-0.036
Mof_H 	H 	0.4034	0.9518	0.2105	0.039
Mof_C 	C 	0.3431	0.9728	0.1519	-0.034
Mof_H 	H 	0.4074	0.9551	0.1371	0.031
Mof_C 	C 	0.3458	0.0176	0.0579	-0.166
Mof_H 	H 	0.4134	0.0302	0.0721	0.063
Mof_C 	C 	0.342	0.0165	0.0134	0.058
Mof_H 	H 	0.4085	0.0281	0.9982	-0.02
Mof_C 	C 	0.657	0.5138	0.3385	0.085
Mof_H 	H 	0.5902	0.5238	0.3538	-0.009
Mof_C 	C 	0.6538	0.5143	0.2947	-0.152
Mof_H 	H 	0.5855	0.5244	0.2804	0.073
Mof_C 	C 	0.6664	0.4622	0.2013	-0.06
Mof_H 	H 	0.609	0.4352	0.2162	0.04
Mof_C 	C 	0.6652	0.4633	0.1566	-0.035
Mof_H 	H 	0.606	0.4389	0.1415	0.024
Mof_C 	C 	0.658	0.495	0.0632	-0.198
Mof_H 	H 	0.5885	0.4919	0.0775	0.081
Mof_C 	C 	0.659	0.494	0.0174	0.087
Mof_H 	H 	0.5909	0.4887	0.0025	-0.024
Mof_Ag	Ag	0.0121	0.74306	0.43223	0.416
Mof_Ag	Ag	0.5937	0.82403	0.45366	0.421
Mof_Ag	Ag	0.92889	0.69106	0.53443	0.382
Mof_N 	N 	0.1438	0.9055	0.4252	-0.156
Mof_N 	N 	0.8688	0.5869	0.4286	-0.16
Mof_N 	N 	0.379	0.9218	0.4228	-0.153
Mof_N 	N 	0.7304	0.7756	0.4868	-0.179
Mof_N 	N 	0.1293	0.5842	0.5699	-0.162
Mof_C 	C 	0.0939	0.8511	0.4279	-0.1
Mof_C 	C 	0.9285	0.6387	0.4298	-0.116
Mof_C 	C 	0.454	0.8811	0.4299	-0.107
Mof_C 	C 	0.7995	0.7489	0.5062	-0.121
Mof_C 	C 	0.0575	0.6278	0.5604	-0.114
Mof_C 	C 	0.1605	0.9772	0.3344	0.093
Mof_H 	H 	0.0965	0.9605	0.3497	-0.008
Mof_C 	C 	0.1586	0.9772	0.2896	-0.126
Mof_H 	H 	0.0927	0.9612	0.2753	0.069
Mof_C 	C 	0.1588	0.028	0.1953	-0.052
Mof_H 	H 	0.0966	0.0482	0.2105	0.035
Mof_C 	C 	0.1569	0.0272	0.1519	-0.05
Mof_H 	H 	0.0926	0.0449	0.1371	0.028
Mof_C 	C 	0.1542	0.9824	0.0579	-0.148
Mof_H 	H 	0.0866	0.9698	0.0721	0.067
Mof_C 	C 	0.158	0.9835	0.0134	0.076
Mof_H 	H 	0.0915	0.9719	0.9982	-0.016
Mof_C 	C 	0.843	0.4862	0.3385	0.085
Mof_H 	H 	0.9098	0.4762	0.3538	-0.01
Mof_C 	C 	0.8462	0.4857	0.2947	-0.152
Mof_H 	H 	0.9145	0.4756	0.2804	0.073
Mof_C 	C 	0.8336	0.5378	0.2013	-0.06
Mof_H 	H 	0.891	0.5648	0.2162	0.04
Mof_C 	C 	0.8348	0.5367	0.1566	-0.035
Mof_H 	H 	0.894	0.5611	0.1415	0.024
Mof_C 	C 	0.842	0.505	0.0632	-0.198
Mof_H 	H 	0.9115	0.5081	0.0775	0.081
Mof_C 	C 	0.841	0.506	0.0174	0.087
Mof_H 	H 	0.9091	0.5113	0.0025	-0.024
Mof_Ag	Ag	0.5121	0.25694	0.06777	0.413
Mof_Ag	Ag	0.0937	0.17597	0.04634	0.41
Mof_Ag	Ag	0.42889	0.30894	0.96557	0.383
Mof_N 	N 	0.6438	0.0945	0.0748	-0.163
Mof_N 	N 	0.3688	0.4131	0.0714	-0.16
Mof_N 	N 	0.879	0.0782	0.0772	-0.161
Mof_N 	N 	0.2304	0.2244	0.0132	-0.179
Mof_N 	N 	0.6293	0.4158	0.9301	-0.162
Mof_C 	C 	0.5939	0.1489	0.0721	-0.102
Mof_C 	C 	0.4285	0.3613	0.0702	-0.116
Mof_C 	C 	0.954	0.1189	0.0701	-0.112
Mof_C 	C 	0.2995	0.2511	0.9938	-0.122
Mof_C 	C 	0.5575	0.3722	0.9396	-0.114
Mof_C 	C 	0.6605	0.0228	0.1656	0.075
Mof_H 	H 	0.5965	0.0395	0.1503	-0.011
Mof_C 	C 	0.6586	0.0228	0.2104	-0.144
Mof_H 	H 	0.5927	0.0388	0.2247	0.065
Mof_C 	C 	0.6588	0.972	0.3047	-0.036
Mof_H 	H 	0.5966	0.9518	0.2895	0.039
Mof_C 	C 	0.6569	0.9728	0.3481	-0.034
Mof_H 	H 	0.5926	0.9551	0.3629	0.032
Mof_C 	C 	0.6542	0.0176	0.4421	-0.165
Mof_H 	H 	0.5866	0.0302	0.4279	0.063
Mof_C 	C 	0.658	0.0165	0.4866	0.058
Mof_H 	H 	0.5915	0.0281	0.5018	-0.02
Mof_C 	C 	0.343	0.5138	0.1615	0.085
Mof_H 	H 	0.4098	0.5238	0.1462	-0.009
Mof_C 	C 	0.3462	0.5143	0.2053	-0.152
Mof_H 	H 	0.4145	0.5244	0.2196	0.073
Mof_C 	C 	0.3336	0.4622	0.2987	-0.06
Mof_H 	H 	0.391	0.4352	0.2838	0.04
Mof_C 	C 	0.3348	0.4633	0.3434	-0.035
Mof_H 	H 	0.394	0.4389	0.3585	0.024
Mof_C 	C 	0.342	0.495	0.4368	-0.199
Mof_H 	H 	0.4115	0.4919	0.4225	0.081
Mof_C 	C 	0.341	0.494	0.4826	0.087
Mof_H 	H 	0.4091	0.4887	0.4975	-0.024
Mof_Ag	Ag	0.9879	0.74306	0.06777	0.416
Mof_Ag	Ag	0.4063	0.82403	0.04634	0.421
Mof_Ag	Ag	0.07111	0.69106	0.96557	0.382
Mof_N 	N 	0.8562	0.9055	0.0748	-0.156
Mof_N 	N 	0.1312	0.5869	0.0714	-0.16
Mof_N 	N 	0.621	0.9218	0.0772	-0.153
Mof_N 	N 	0.2696	0.7756	0.0132	-0.179
Mof_N 	N 	0.8707	0.5842	0.9301	-0.162
Mof_C 	C 	0.9061	0.8511	0.0721	-0.1
Mof_C 	C 	0.0715	0.6387	0.0702	-0.115
Mof_C 	C 	0.546	0.8811	0.0701	-0.107
Mof_C 	C 	0.2005	0.7489	0.9938	-0.121
Mof_C 	C 	0.9425	0.6278	0.9396	-0.114
Mof_C 	C 	0.8395	0.9772	0.1656	0.093
Mof_H 	H 	0.9035	0.9605	0.1503	-0.008
Mof_C 	C 	0.8414	0.9772	0.2104	-0.126
Mof_H 	H 	0.9073	0.9612	0.2247	0.069
Mof_C 	C 	0.8412	0.028	0.3047	-0.052
Mof_H 	H 	0.9034	0.0482	0.2895	0.035
Mof_C 	C 	0.8431	0.0272	0.3481	-0.05
Mof_H 	H 	0.9074	0.0449	0.3629	0.028
Mof_C 	C 	0.8458	0.9824	0.4421	-0.148
Mof_H 	H 	0.9134	0.9698	0.4279	0.067
Mof_C 	C 	0.842	0.9835	0.4866	0.075
Mof_H 	H 	0.9085	0.9719	0.5018	-0.016
Mof_C 	C 	0.157	0.4862	0.1615	0.085
Mof_H 	H 	0.0902	0.4762	0.1462	-0.01
Mof_C 	C 	0.1538	0.4857	0.2053	-0.152
Mof_H 	H 	0.0855	0.4756	0.2196	0.073
Mof_C 	C 	0.1664	0.5378	0.2987	-0.06
Mof_H 	H 	0.109	0.5648	0.2838	0.04
Mof_C 	C 	0.1652	0.5367	0.3434	-0.035
Mof_H 	H 	0.106	0.5611	0.3585	0.024
Mof_C 	C 	0.158	0.505	0.4368	-0.199
Mof_H 	H 	0.0885	0.5081	0.4225	0.081
Mof_C 	C 	0.159	0.506	0.4826	0.087
Mof_H 	H 	0.0909	0.5113	0.4975	-0.024
Mof_Ag	Ag	0.5121	0.74306	0.56777	0.416
Mof_Ag	Ag	0.0937	0.82403	0.54634	0.421
Mof_Ag	Ag	0.42889	0.69106	0.46557	0.382
Mof_N 	N 	0.6438	0.9055	0.5748	-0.156
Mof_N 	N 	0.3688	0.5869	0.5714	-0.16
Mof_N 	N 	0.879	0.9218	0.5772	-0.153
Mof_N 	N 	0.2304	0.7756	0.5132	-0.179
Mof_N 	N 	0.6293	0.5842	0.4301	-0.162
Mof_C 	C 	0.5939	0.8511	0.5721	-0.1
Mof_C 	C 	0.4285	0.6387	0.5702	-0.116
Mof_C 	C 	0.954	0.8811	0.5701	-0.107
Mof_C 	C 	0.2995	0.7489	0.4938	-0.121
Mof_C 	C 	0.5575	0.6278	0.4396	-0.114
Mof_C 	C 	0.6605	0.9772	0.6656	0.093
Mof_H 	H 	0.5965	0.9605	0.6503	-0.008
Mof_C 	C 	0.6586	0.9772	0.7104	-0.126
Mof_H 	H 	0.5927	0.9612	0.7247	0.069
Mof_C 	C 	0.6588	0.028	0.8047	-0.052
Mof_H 	H 	0.5966	0.0482	0.7895	0.035
Mof_C 	C 	0.6569	0.0272	0.8481	-0.05
Mof_H 	H 	0.5926	0.0449	0.8629	0.028
Mof_C 	C 	0.6542	0.9824	0.9421	-0.148
Mof_H 	H 	0.5866	0.9698	0.9279	0.067
Mof_C 	C 	0.658	0.9835	0.9866	0.075
Mof_H 	H 	0.5915	0.9719	0.0018	-0.016
Mof_C 	C 	0.343	0.4862	0.6615	0.085
Mof_H 	H 	0.4098	0.4762	0.6462	-0.01
Mof_C 	C 	0.3462	0.4857	0.7053	-0.152
Mof_H 	H 	0.4145	0.4756	0.7196	0.073
Mof_C 	C 	0.3336	0.5378	0.7987	-0.06
Mof_H 	H 	0.391	0.5648	0.7838	0.04
Mof_C 	C 	0.3348	0.5367	0.8434	-0.035
Mof_H 	H 	0.394	0.5611	0.8585	0.024
Mof_C 	C 	0.342	0.505	0.9368	-0.198
Mof_H 	H 	0.4115	0.5081	0.9225	0.081
Mof_C 	C 	0.341	0.506	0.9826	0.087
Mof_H 	H 	0.4091	0.5113	0.9975	-0.024
Mof_Ag	Ag	0.9879	0.25694	0.56777	0.413
Mof_Ag	Ag	0.4063	0.17597	0.54634	0.409
Mof_Ag	Ag	0.07111	0.30894	0.46557	0.383
Mof_N 	N 	0.8562	0.0945	0.5748	-0.163
Mof_N 	N 	0.1312	0.4131	0.5714	-0.16
Mof_N 	N 	0.621	0.0782	0.5772	-0.161
Mof_N 	N 	0.2696	0.2244	0.5132	-0.179
Mof_N 	N 	0.8707	0.4158	0.4301	-0.162
Mof_C 	C 	0.9061	0.1489	0.5721	-0.102
Mof_C 	C 	0.0715	0.3613	0.5702	-0.116
Mof_C 	C 	0.546	0.1189	0.5701	-0.112
Mof_C 	C 	0.2005	0.2511	0.4938	-0.122
Mof_C 	C 	0.9425	0.3722	0.4396	-0.114
Mof_C 	C 	0.8395	0.0228	0.6656	0.075
Mof_H 	H 	0.9035	0.0395	0.6503	-0.011
Mof_C 	C 	0.8414	0.0228	0.7104	-0.144
Mof_H 	H 	0.9073	0.0388	0.7247	0.066
Mof_C 	C 	0.8412	0.972	0.8047	-0.036
Mof_H 	H 	0.9034	0.9518	0.7895	0.039
Mof_C 	C 	0.8431	0.9728	0.8481	-0.034
Mof_H 	H 	0.9074	0.9551	0.8629	0.032
Mof_C 	C 	0.8458	0.0176	0.9421	-0.166
Mof_H 	H 	0.9134	0.0302	0.9279	0.063
Mof_C 	C 	0.842	0.0165	0.9866	0.058
Mof_H 	H 	0.9085	0.0281	0.0018	-0.02
Mof_C 	C 	0.157	0.5138	0.6615	0.085
Mof_H 	H 	0.0902	0.5238	0.6462	-0.009
Mof_C 	C 	0.1538	0.5143	0.7053	-0.152
Mof_H 	H 	0.0855	0.5244	0.7196	0.073
Mof_C 	C 	0.1664	0.4622	0.7987	-0.06
Mof_H 	H 	0.109	0.4352	0.7838	0.04
Mof_C 	C 	0.1652	0.4633	0.8434	-0.035
Mof_H 	H 	0.106	0.4389	0.8585	0.024
Mof_C 	C 	0.158	0.495	0.9368	-0.198
Mof_H 	H 	0.0885	0.4919	0.9225	0.081
Mof_C 	C 	0.159	0.494	0.9826	0.087
Mof_H 	H 	0.0909	0.4887	0.9975	-0.024
Mof_Ag	Ag	0.4879	0.74306	0.93223	0.416
Mof_Ag	Ag	0.9063	0.82403	0.95366	0.421
Mof_Ag	Ag	0.57111	0.69106	0.03443	0.382
Mof_N 	N 	0.3562	0.9055	0.9252	-0.156
Mof_N 	N 	0.6312	0.5869	0.9286	-0.16
Mof_N 	N 	0.121	0.9218	0.9228	-0.153
Mof_N 	N 	0.7696	0.7756	0.9868	-0.179
Mof_N 	N 	0.3707	0.5842	0.0699	-0.162
Mof_C 	C 	0.4061	0.8511	0.9279	-0.1
Mof_C 	C 	0.5715	0.6387	0.9298	-0.116
Mof_C 	C 	0.046	0.8811	0.9299	-0.108
Mof_C 	C 	0.7005	0.7489	0.0062	-0.121
Mof_C 	C 	0.4425	0.6278	0.0604	-0.114
Mof_C 	C 	0.3395	0.9772	0.8344	0.093
Mof_H 	H 	0.4035	0.9605	0.8497	-0.008
Mof_C 	C 	0.3414	0.9772	0.7896	-0.126
Mof_H 	H 	0.4073	0.9612	0.7753	0.069
Mof_C 	C 	0.3412	0.028	0.6953	-0.052
Mof_H 	H 	0.4034	0.0482	0.7105	0.035
Mof_C 	C 	0.3431	0.0272	0.6519	-0.05
Mof_H 	H 	0.4074	0.0449	0.6371	0.028
Mof_C 	C 	0.3458	0.9824	0.5579	-0.148
Mof_H 	H 	0.4134	0.9698	0.5721	0.067
Mof_C 	C 	0.342	0.9835	0.5134	0.075
Mof_H 	H 	0.4085	0.9719	0.4982	-0.016
Mof_C 	C 	0.657	0.4862	0.8385	0.085
Mof_H 	H 	0.5902	0.4762	0.8538	-0.01
Mof_C 	C 	0.6538	0.4857	0.7947	-0.152
Mof_H 	H 	0.5855	0.4756	0.7804	0.073
Mof_C 	C 	0.6664	0.5378	0.7013	-0.06
Mof_H 	H 	0.609	0.5648	0.7162	0.04
Mof_C 	C 	0.6652	0.5367	0.6566	-0.035
Mof_H 	H 	0.606	0.5611	0.6415	0.024
Mof_C 	C 	0.658	0.505	0.5632	-0.199
Mof_H 	H 	0.5885	0.5081	0.5775	0.081
Mof_C 	C 	0.659	0.506	0.5174	0.087
Mof_H 	H 	0.5909	0.5113	0.5025	-0.024
Mof_Ag	Ag	0.0121	0.25694	0.93223	0.413
Mof_Ag	Ag	0.5937	0.17597	0.95366	0.409
Mof_Ag	Ag	0.92889	0.30894	0.03443	0.383
Mof_N 	N 	0.1438	0.0945	0.9252	-0.163
Mof_N 	N 	0.8688	0.4131	0.9286	-0.16
Mof_N 	N 	0.379	0.0782	0.9228	-0.161
Mof_N 	N 	0.7304	0.2244	0.9868	-0.179
Mof_N 	N 	0.1293	0.4158	0.0699	-0.162
Mof_C 	C 	0.0939	0.1489	0.9279	-0.102
Mof_C 	C 	0.9285	0.3613	0.9298	-0.115
Mof_C 	C 	0.454	0.1189	0.9299	-0.112
Mof_C 	C 	0.7995	0.2511	0.0062	-0.122
Mof_C 	C 	0.0575	0.3722	0.0604	-0.114
Mof_C 	C 	0.1605	0.0228	0.8344	0.075
Mof_H 	H 	0.0965	0.0395	0.8497	-0.011
Mof_C 	C 	0.1586	0.0228	0.7896	-0.144
Mof_H 	H 	0.0927	0.0388	0.7753	0.066
Mof_C 	C 	0.1588	0.972	0.6953	-0.036
Mof_H 	H 	0.0966	0.9518	0.7105	0.039
Mof_C 	C 	0.1569	0.9728	0.6519	-0.034
Mof_H 	H 	0.0926	0.9551	0.6371	0.031
Mof_C 	C 	0.1542	0.0176	0.5579	-0.165
Mof_H 	H 	0.0866	0.0302	0.5721	0.063
Mof_C 	C 	0.158	0.0165	0.5134	0.058
Mof_H 	H 	0.0915	0.0281	0.4982	-0.02
Mof_C 	C 	0.843	0.5138	0.8385	0.085
Mof_H 	H 	0.9098	0.5238	0.8538	-0.009
Mof_C 	C 	0.8462	0.5143	0.7947	-0.152
Mof_H 	H 	0.9145	0.5244	0.7804	0.073
Mof_C 	C 	0.8336	0.4622	0.7013	-0.06
Mof_H 	H 	0.891	0.4352	0.7162	0.04
Mof_C 	C 	0.8348	0.4633	0.6566	-0.035
Mof_H 	H 	0.894	0.4389	0.6415	0.024
Mof_C 	C 	0.842	0.495	0.5632	-0.199
Mof_H 	H 	0.9115	0.4919	0.5775	0.081
Mof_C 	C 	0.841	0.494	0.5174	0.087
Mof_H 	H 	0.9091	0.4887	0.5025	-0.024
Mof_Fe	Fe	0.25	0	0.42348	0.644
Mof_N 	N 	0.25	0	0.3556	-0.203
Mof_N 	N 	0.25	0	0.9908	-0.209
Mof_C 	C 	0.25	7.90961e-33	0.2656	0.056
Mof_C 	C 	0.25	0	0.2179	-0.03
Mof_C 	C 	0.25	1.9774e-33	0.1288	-0.043
Mof_C 	C 	0.25	0	0.0821	0.038
Mof_Fe	Fe	0.75	-9.88702e-34	0.07652	0.644
Mof_N 	N 	0.75	0	0.1444	-0.203
Mof_N 	N 	0.75	7.90961e-33	0.5092	-0.209
Mof_C 	C 	0.75	0	0.2344	0.056
Mof_C 	C 	0.75	0	0.2821	-0.03
Mof_C 	C 	0.75	0	0.3712	-0.043
Mof_C 	C 	0.75	7.90961e-33	0.4179	0.038
Mof_Fe	Fe	0.75	7.90961e-33	0.57652	0.644
Mof_N 	N 	0.75	0	0.6444	-0.203
Mof_N 	N 	0.75	1.23588e-34	0.0092	-0.209
Mof_C 	C 	0.75	0	0.7344	0.056
Mof_C 	C 	0.75	0	0.7821	-0.03
Mof_C 	C 	0.75	1.58192e-32	0.8712	-0.043
Mof_C 	C 	0.75	1.58192e-32	0.9179	0.038
Mof_Fe	Fe	0.25	0	0.92348	0.644
Mof_N 	N 	0.25	0	0.8556	-0.203
Mof_N 	N 	0.25	0	0.4908	-0.209
Mof_C 	C 	0.25	1.58192e-32	0.7656	0.056
Mof_C 	C 	0.25	1.58192e-32	0.7179	-0.03
Mof_C 	C 	0.25	-7.90961e-33	0.6288	-0.043
Mof_C 	C 	0.25	0	0.5821	0.038
Mof_Fe	Fe	0.75	0.5	0.4282	0.66
Mof_N 	N 	0.75	0.5	0.3605	-0.198
Mof_N 	N 	0.75	0.5	0.996	-0.214
Mof_C 	C 	0.75	0.5	0.2708	0.075
Mof_C 	C 	0.75	0.5	0.2245	-0.012
Mof_C 	C 	0.75	0.5	0.1343	-0.048
Mof_C 	C 	0.75	0.5	0.0865	0.105
Mof_Fe	Fe	0.25	0.5	0.0718	0.66
Mof_N 	N 	0.25	0.5	0.1395	-0.198
Mof_N 	N 	0.25	0.5	0.504	-0.214
Mof_C 	C 	0.25	0.5	0.2292	0.075
Mof_C 	C 	0.25	0.5	0.2755	-0.012
Mof_C 	C 	0.25	0.5	0.3657	-0.048
Mof_C 	C 	0.25	0.5	0.4135	0.105
Mof_Fe	Fe	0.25	0.5	0.5718	0.66
Mof_N 	N 	0.25	0.5	0.6395	-0.198
Mof_N 	N 	0.25	0.5	0.004	-0.214
Mof_C 	C 	0.25	0.5	0.7292	0.075
Mof_C 	C 	0.25	0.5	0.7755	-0.012
Mof_C 	C 	0.25	0.5	0.8657	-0.048
Mof_C 	C 	0.25	0.5	0.9135	0.105
Mof_Fe	Fe	0.75	0.5	0.9282	0.66
Mof_N 	N 	0.75	0.5	0.8605	-0.198
Mof_N 	N 	0.75	0.5	0.496	-0.214
Mof_C 	C 	0.75	0.5	0.7708	0.075
Mof_C 	C 	0.75	0.5	0.7245	-0.012
Mof_C 	C 	0.75	0.5	0.6343	-0.048
Mof_C 	C 	0.75	0.5	0.5865	0.105
_end
