data_functionalizedCrystal
_audit_creation_method	'EQeq! by Chris Wilmer'
_symmetry_space_group_name_H-M	'P1'
_symmetry_Int_Tables_number	1
_symmetry_cell_setting	triclinic
loop_
_symmetry_equiv_pos_as_xyz
  x,y,z
_cell_length_a	6.6882
_cell_length_b	15.1634
_cell_length_c	15.1634
_cell_angle_alpha	62.123
_cell_angle_beta	81.5454
_cell_angle_gamma	98.4546
loop_
_atom_site_label
_atom_site_type_symbol
_atom_site_fract_x
_atom_site_fract_y
_atom_site_fract_z
_atom_site_charge
Mof_Ni	Ni	0.6982	0.3137	0.269	1.093
Mof_Ni	Ni	0.9672	0.269	0.4173	1.093
Mof_Ni	Ni	0.3845	0.4173	0.3137	1.094
Mof_Ni	Ni	0.3018	0.6863	0.731	1.093
Mof_Ni	Ni	0.0328	0.731	0.5827	1.093
Mof_Ni	Ni	0.6155	0.5827	0.6863	1.094
Mof_H 	H 	0.644	0.542	0.47	0.053
Mof_H 	H 	0.114	0.47	0.988	0.053
Mof_H 	H 	0.102	0.988	0.542	0.052
Mof_H 	H 	0.356	0.458	0.53	0.053
Mof_H 	H 	0.886	0.53	0.012	0.053
Mof_H 	H 	0.898	0.012	0.458	0.052
Mof_C 	C 	0.7518	0.4311	0.3837	0.425
Mof_C 	C 	0.8943	0.4622	0.4463	-0.19
Mof_C 	C 	0.0699	0.4386	0.4629	0.171
Mof_C 	C 	0.8293	0.5281	0.4762	-0.029
Mof_C 	C 	0.1355	0.3837	0.1852	0.426
Mof_C 	C 	0.3406	0.4463	0.0915	-0.19
Mof_C 	C 	0.5328	0.4629	0.0985	0.171
Mof_C 	C 	0.3055	0.4762	0.9957	-0.029
Mof_C 	C 	0.3207	0.1852	0.4311	0.425
Mof_C 	C 	0.4321	0.0915	0.4622	-0.189
Mof_C 	C 	0.6313	0.0985	0.4386	0.171
Mof_C 	C 	0.3012	0.9957	0.5281	-0.029
Mof_C 	C 	0.2482	0.5689	0.6163	0.425
Mof_C 	C 	0.1057	0.5378	0.5537	-0.19
Mof_C 	C 	0.9301	0.5614	0.5371	0.171
Mof_C 	C 	0.1707	0.4719	0.5238	-0.029
Mof_C 	C 	0.8645	0.6163	0.8148	0.426
Mof_C 	C 	0.6594	0.5537	0.9085	-0.19
Mof_C 	C 	0.4672	0.5371	0.9015	0.171
Mof_C 	C 	0.6945	0.5238	0.0043	-0.029
Mof_C 	C 	0.6793	0.8148	0.5689	0.425
Mof_C 	C 	0.5679	0.9085	0.5378	-0.189
Mof_C 	C 	0.3687	0.9015	0.5614	0.171
Mof_C 	C 	0.6988	0.0043	0.4719	-0.029
Mof_O 	O 	0.5943	0.4743	0.3714	-0.435
Mof_O 	O 	0.8075	0.3786	0.3531	-0.599
Mof_O 	O 	0.1472	0.3693	0.4407	-0.49
Mof_O 	O 	0.9657	0.3714	0.1543	-0.435
Mof_O 	O 	0.1606	0.3531	0.2683	-0.599
Mof_O 	O 	0.5879	0.4407	0.19	-0.49
Mof_O 	O 	0.12	0.1543	0.4743	-0.434
Mof_O 	O 	0.4289	0.2683	0.3786	-0.599
Mof_O 	O 	0.7779	0.19	0.3693	-0.49
Mof_O 	O 	0.4057	0.5257	0.6286	-0.435
Mof_O 	O 	0.1925	0.6214	0.6469	-0.599
Mof_O 	O 	0.8528	0.6307	0.5593	-0.49
Mof_O 	O 	0.0343	0.6286	0.8457	-0.435
Mof_O 	O 	0.8394	0.6469	0.7317	-0.599
Mof_O 	O 	0.4121	0.5593	0.81	-0.49
Mof_O 	O 	0.88	0.8457	0.5257	-0.434
Mof_O 	O 	0.5711	0.7317	0.6214	-0.599
Mof_O 	O 	0.2221	0.81	0.6307	-0.49
_end
