data_functionalizedCrystal
_audit_creation_method	'EQeq! by Chris Wilmer'
_symmetry_space_group_name_H-M	'P1'
_symmetry_Int_Tables_number	1
_symmetry_cell_setting	triclinic
loop_
_symmetry_equiv_pos_as_xyz
  x,y,z
_cell_length_a	33.261
_cell_length_b	33.261
_cell_length_c	33.261
_cell_angle_alpha	90
_cell_angle_beta	90
_cell_angle_gamma	90
loop_
_atom_site_label
_atom_site_type_symbol
_atom_site_fract_x
_atom_site_fract_y
_atom_site_fract_z
_atom_site_charge
Mof_O 	O 	0.37364	0.62649	0.06079	-0.461
Mof_O 	O 	0.3944	0.5744	0.0263	-0.553
Mof_C 	C 	0.3184	0.6514	0.00701	-0.045
Mof_H 	H 	0.3221	0.6679	0.0293	0.066
Mof_C 	C 	0.34127	0.6167	0.0028	-0.069
Mof_C 	C 	0.3358	0.59201	0.9695	-0.055
Mof_H 	H 	0.3511	0.5688	0.9667	0.062
Mof_C 	C 	0.3075	0.6021	0.9404	0.045
Mof_C 	C 	0.2847	0.6368	0.9446	-0.108
Mof_H 	H 	0.2658	0.6436	0.9252	0.074
Mof_C 	C 	0.2902	0.6615	0.9779	0.045
Mof_C 	C 	0.3737	0.6022	0.0317	0.441
Mof_C 	C 	0.2634	0.6926	0.9837	-0.006
Mof_C 	C 	0.2401	0.7197	0.9858	-0.05
Mof_C 	C 	0.1756	0.7531	0.9689	-0.175
Mof_H 	H 	0.1726	0.7378	0.9457	0.097
Mof_C 	C 	0.1491	0.7844	0.9769	0.115
Mof_C 	C 	0.1536	0.8072	0.0117	-0.157
Mof_H 	H 	0.1359	0.8282	0.017	0.087
Mof_C 	C 	0.1846	0.7987	0.0384	0.073
Mof_H 	H 	0.1876	0.814	0.0616	-0
Mof_C 	C 	0.2111	0.7674	0.0304	-0.16
Mof_H 	H 	0.2318	0.7617	0.0483	0.088
Mof_C 	C 	0.2066	0.7446	0.9957	0.114
Mof_C 	C 	0.2996	0.5533	0.8778	-0.05
Mof_C 	C 	0.3031	0.5761	0.9048	-0.009
Mof_O 	O 	0.12636	0.37351	0.56079	-0.462
Mof_O 	O 	0.1056	0.4256	0.5263	-0.554
Mof_C 	C 	0.1816	0.3486	0.50701	-0.046
Mof_H 	H 	0.1779	0.3321	0.5293	0.065
Mof_C 	C 	0.15873	0.3833	0.5028	-0.07
Mof_C 	C 	0.1642	0.40799	0.4695	-0.056
Mof_H 	H 	0.1489	0.4312	0.4667	0.061
Mof_C 	C 	0.1925	0.3979	0.4404	0.044
Mof_C 	C 	0.2153	0.3632	0.4446	-0.109
Mof_H 	H 	0.2342	0.3564	0.4252	0.073
Mof_C 	C 	0.2098	0.3385	0.4779	0.044
Mof_C 	C 	0.1263	0.3978	0.5317	0.44
Mof_C 	C 	0.2366	0.3074	0.4837	-0.007
Mof_C 	C 	0.2599	0.2803	0.4858	-0.051
Mof_C 	C 	0.3244	0.2469	0.4689	-0.176
Mof_H 	H 	0.3274	0.2622	0.4457	0.096
Mof_C 	C 	0.3509	0.2156	0.4769	0.114
Mof_C 	C 	0.3464	0.1928	0.5117	-0.158
Mof_H 	H 	0.3641	0.1718	0.517	0.086
Mof_C 	C 	0.3154	0.2013	0.5384	0.073
Mof_H 	H 	0.3124	0.186	0.5616	-0
Mof_C 	C 	0.2889	0.2326	0.5304	-0.16
Mof_H 	H 	0.2682	0.2383	0.5483	0.088
Mof_C 	C 	0.2934	0.2554	0.4957	0.114
Mof_C 	C 	0.2004	0.4467	0.3778	-0.05
Mof_C 	C 	0.1969	0.4239	0.4048	-0.009
Mof_O 	O 	0.62636	0.12649	0.43921	-0.462
Mof_O 	O 	0.6056	0.0744	0.4737	-0.554
Mof_C 	C 	0.6816	0.1514	0.49299	-0.046
Mof_H 	H 	0.6779	0.1679	0.4707	0.065
Mof_C 	C 	0.65873	0.1167	0.4972	-0.07
Mof_C 	C 	0.6642	0.09201	0.5305	-0.056
Mof_H 	H 	0.6489	0.0688	0.5333	0.061
Mof_C 	C 	0.6925	0.1021	0.5596	0.044
Mof_C 	C 	0.7153	0.1368	0.5554	-0.109
Mof_H 	H 	0.7342	0.1436	0.5748	0.073
Mof_C 	C 	0.7098	0.1615	0.5221	0.044
Mof_C 	C 	0.6263	0.1022	0.4683	0.44
Mof_C 	C 	0.7366	0.1926	0.5163	-0.007
Mof_C 	C 	0.7599	0.2197	0.5142	-0.051
Mof_C 	C 	0.8244	0.2531	0.5311	-0.176
Mof_H 	H 	0.8274	0.2378	0.5543	0.096
Mof_C 	C 	0.8509	0.2844	0.5231	0.114
Mof_C 	C 	0.8464	0.3072	0.4883	-0.158
Mof_H 	H 	0.8641	0.3282	0.483	0.086
Mof_C 	C 	0.8154	0.2987	0.4616	0.073
Mof_H 	H 	0.8124	0.314	0.4384	-0
Mof_C 	C 	0.7889	0.2674	0.4696	-0.16
Mof_H 	H 	0.7682	0.2617	0.4517	0.088
Mof_C 	C 	0.7934	0.2446	0.5043	0.114
Mof_C 	C 	0.7004	0.0533	0.6222	-0.05
Mof_C 	C 	0.6969	0.0761	0.5952	-0.009
Mof_O 	O 	0.87364	0.87351	0.93921	-0.462
Mof_O 	O 	0.8944	0.9256	0.9737	-0.554
Mof_C 	C 	0.8184	0.8486	0.99299	-0.046
Mof_H 	H 	0.8221	0.8321	0.9707	0.065
Mof_C 	C 	0.84127	0.8833	0.9972	-0.07
Mof_C 	C 	0.8358	0.90799	0.0305	-0.056
Mof_H 	H 	0.8511	0.9312	0.0333	0.061
Mof_C 	C 	0.8075	0.8979	0.0596	0.044
Mof_C 	C 	0.7847	0.8632	0.0554	-0.109
Mof_H 	H 	0.7658	0.8564	0.0748	0.073
Mof_C 	C 	0.7902	0.8385	0.0221	0.044
Mof_C 	C 	0.8737	0.8978	0.9683	0.44
Mof_C 	C 	0.7634	0.8074	0.0163	-0.007
Mof_C 	C 	0.7401	0.7803	0.0142	-0.051
Mof_C 	C 	0.6756	0.7469	0.0311	-0.175
Mof_H 	H 	0.6726	0.7622	0.0543	0.096
Mof_C 	C 	0.6491	0.7156	0.0231	0.114
Mof_C 	C 	0.6536	0.6928	0.9883	-0.158
Mof_H 	H 	0.6359	0.6718	0.983	0.086
Mof_C 	C 	0.6846	0.7013	0.9616	0.073
Mof_H 	H 	0.6876	0.686	0.9384	-0
Mof_C 	C 	0.7111	0.7326	0.9696	-0.16
Mof_H 	H 	0.7318	0.7383	0.9517	0.088
Mof_C 	C 	0.7066	0.7554	0.0043	0.114
Mof_C 	C 	0.7996	0.9467	0.1222	-0.05
Mof_C 	C 	0.8031	0.9239	0.0952	-0.009
Mof_O 	O 	0.06079	0.37364	0.62649	-0.462
Mof_O 	O 	0.0263	0.3944	0.5744	-0.554
Mof_C 	C 	0.00701	0.3184	0.6514	-0.046
Mof_H 	H 	0.0293	0.3221	0.6679	0.065
Mof_C 	C 	0.0028	0.34127	0.6167	-0.07
Mof_C 	C 	0.9695	0.3358	0.59201	-0.056
Mof_H 	H 	0.9667	0.3511	0.5688	0.061
Mof_C 	C 	0.9404	0.3075	0.6021	0.044
Mof_C 	C 	0.9446	0.2847	0.6368	-0.109
Mof_H 	H 	0.9252	0.2658	0.6436	0.073
Mof_C 	C 	0.9779	0.2902	0.6615	0.044
Mof_C 	C 	0.0317	0.3737	0.6022	0.44
Mof_C 	C 	0.9837	0.2634	0.6926	-0.007
Mof_C 	C 	0.9858	0.2401	0.7197	-0.051
Mof_C 	C 	0.9689	0.1756	0.7531	-0.176
Mof_H 	H 	0.9457	0.1726	0.7378	0.096
Mof_C 	C 	0.9769	0.1491	0.7844	0.114
Mof_C 	C 	0.0117	0.1536	0.8072	-0.158
Mof_H 	H 	0.017	0.1359	0.8282	0.086
Mof_C 	C 	0.0384	0.1846	0.7987	0.073
Mof_H 	H 	0.0616	0.1876	0.814	-0
Mof_C 	C 	0.0304	0.2111	0.7674	-0.16
Mof_H 	H 	0.0483	0.2318	0.7617	0.088
Mof_C 	C 	0.9957	0.2066	0.7446	0.114
Mof_C 	C 	0.8778	0.2996	0.5533	-0.05
Mof_C 	C 	0.9048	0.3031	0.5761	-0.009
Mof_O 	O 	0.56079	0.12636	0.37351	-0.462
Mof_O 	O 	0.5263	0.1056	0.4256	-0.554
Mof_C 	C 	0.50701	0.1816	0.3486	-0.046
Mof_H 	H 	0.5293	0.1779	0.3321	0.065
Mof_C 	C 	0.5028	0.15873	0.3833	-0.07
Mof_C 	C 	0.4695	0.1642	0.40799	-0.056
Mof_H 	H 	0.4667	0.1489	0.4312	0.061
Mof_C 	C 	0.4404	0.1925	0.3979	0.044
Mof_C 	C 	0.4446	0.2153	0.3632	-0.109
Mof_H 	H 	0.4252	0.2342	0.3564	0.073
Mof_C 	C 	0.4779	0.2098	0.3385	0.044
Mof_C 	C 	0.5317	0.1263	0.3978	0.44
Mof_C 	C 	0.4837	0.2366	0.3074	-0.007
Mof_C 	C 	0.4858	0.2599	0.2803	-0.051
Mof_C 	C 	0.4689	0.3244	0.2469	-0.176
Mof_H 	H 	0.4457	0.3274	0.2622	0.096
Mof_C 	C 	0.4769	0.3509	0.2156	0.114
Mof_C 	C 	0.5117	0.3464	0.1928	-0.158
Mof_H 	H 	0.517	0.3641	0.1718	0.086
Mof_C 	C 	0.5384	0.3154	0.2013	0.073
Mof_H 	H 	0.5616	0.3124	0.186	-0
Mof_C 	C 	0.5304	0.2889	0.2326	-0.16
Mof_H 	H 	0.5483	0.2682	0.2383	0.088
Mof_C 	C 	0.4957	0.2934	0.2554	0.114
Mof_C 	C 	0.3778	0.2004	0.4467	-0.05
Mof_C 	C 	0.4048	0.1969	0.4239	-0.009
Mof_O 	O 	0.43921	0.62636	0.12649	-0.462
Mof_O 	O 	0.4737	0.6056	0.0744	-0.554
Mof_C 	C 	0.49299	0.6816	0.1514	-0.046
Mof_H 	H 	0.4707	0.6779	0.1679	0.065
Mof_C 	C 	0.4972	0.65873	0.1167	-0.07
Mof_C 	C 	0.5305	0.6642	0.09201	-0.056
Mof_H 	H 	0.5333	0.6489	0.0688	0.061
Mof_C 	C 	0.5596	0.6925	0.1021	0.044
Mof_C 	C 	0.5554	0.7153	0.1368	-0.109
Mof_H 	H 	0.5748	0.7342	0.1436	0.073
Mof_C 	C 	0.5221	0.7098	0.1615	0.044
Mof_C 	C 	0.4683	0.6263	0.1022	0.44
Mof_C 	C 	0.5163	0.7366	0.1926	-0.007
Mof_C 	C 	0.5142	0.7599	0.2197	-0.051
Mof_C 	C 	0.5311	0.8244	0.2531	-0.176
Mof_H 	H 	0.5543	0.8274	0.2378	0.096
Mof_C 	C 	0.5231	0.8509	0.2844	0.114
Mof_C 	C 	0.4883	0.8464	0.3072	-0.158
Mof_H 	H 	0.483	0.8641	0.3282	0.086
Mof_C 	C 	0.4616	0.8154	0.2987	0.073
Mof_H 	H 	0.4384	0.8124	0.314	-0
Mof_C 	C 	0.4696	0.7889	0.2674	-0.16
Mof_H 	H 	0.4517	0.7682	0.2617	0.088
Mof_C 	C 	0.5043	0.7934	0.2446	0.114
Mof_C 	C 	0.6222	0.7004	0.0533	-0.05
Mof_C 	C 	0.5952	0.6969	0.0761	-0.009
Mof_O 	O 	0.93921	0.87364	0.87351	-0.462
Mof_O 	O 	0.9737	0.8944	0.9256	-0.554
Mof_C 	C 	0.99299	0.8184	0.8486	-0.046
Mof_H 	H 	0.9707	0.8221	0.8321	0.065
Mof_C 	C 	0.9972	0.84127	0.8833	-0.07
Mof_C 	C 	0.0305	0.8358	0.90799	-0.056
Mof_H 	H 	0.0333	0.8511	0.9312	0.061
Mof_C 	C 	0.0596	0.8075	0.8979	0.044
Mof_C 	C 	0.0554	0.7847	0.8632	-0.109
Mof_H 	H 	0.0748	0.7658	0.8564	0.073
Mof_C 	C 	0.0221	0.7902	0.8385	0.044
Mof_C 	C 	0.9683	0.8737	0.8978	0.44
Mof_C 	C 	0.0163	0.7634	0.8074	-0.007
Mof_C 	C 	0.0142	0.7401	0.7803	-0.051
Mof_C 	C 	0.0311	0.6756	0.7469	-0.175
Mof_H 	H 	0.0543	0.6726	0.7622	0.096
Mof_C 	C 	0.0231	0.6491	0.7156	0.114
Mof_C 	C 	0.9883	0.6536	0.6928	-0.158
Mof_H 	H 	0.983	0.6359	0.6718	0.086
Mof_C 	C 	0.9616	0.6846	0.7013	0.073
Mof_H 	H 	0.9384	0.6876	0.686	-0
Mof_C 	C 	0.9696	0.7111	0.7326	-0.16
Mof_H 	H 	0.9517	0.7318	0.7383	0.088
Mof_C 	C 	0.0043	0.7066	0.7554	0.114
Mof_C 	C 	0.1222	0.7996	0.9467	-0.05
Mof_C 	C 	0.0952	0.8031	0.9239	-0.009
Mof_O 	O 	0.62649	0.06079	0.37364	-0.462
Mof_O 	O 	0.5744	0.0263	0.3944	-0.554
Mof_C 	C 	0.6514	0.00701	0.3184	-0.046
Mof_H 	H 	0.6679	0.0293	0.3221	0.065
Mof_C 	C 	0.6167	0.0028	0.34127	-0.07
Mof_C 	C 	0.59201	0.9695	0.3358	-0.056
Mof_H 	H 	0.5688	0.9667	0.3511	0.061
Mof_C 	C 	0.6021	0.9404	0.3075	0.044
Mof_C 	C 	0.6368	0.9446	0.2847	-0.109
Mof_H 	H 	0.6436	0.9252	0.2658	0.073
Mof_C 	C 	0.6615	0.9779	0.2902	0.044
Mof_C 	C 	0.6022	0.0317	0.3737	0.44
Mof_C 	C 	0.6926	0.9837	0.2634	-0.007
Mof_C 	C 	0.7197	0.9858	0.2401	-0.051
Mof_C 	C 	0.7531	0.9689	0.1756	-0.176
Mof_H 	H 	0.7378	0.9457	0.1726	0.096
Mof_C 	C 	0.7844	0.9769	0.1491	0.114
Mof_C 	C 	0.8072	0.0117	0.1536	-0.158
Mof_H 	H 	0.8282	0.017	0.1359	0.086
Mof_C 	C 	0.7987	0.0384	0.1846	0.073
Mof_H 	H 	0.814	0.0616	0.1876	-0
Mof_C 	C 	0.7674	0.0304	0.2111	-0.16
Mof_H 	H 	0.7617	0.0483	0.2318	0.088
Mof_C 	C 	0.7446	0.9957	0.2066	0.114
Mof_C 	C 	0.5533	0.8778	0.2996	-0.05
Mof_C 	C 	0.5761	0.9048	0.3031	-0.009
Mof_O 	O 	0.37351	0.56079	0.12636	-0.462
Mof_O 	O 	0.4256	0.5263	0.1056	-0.554
Mof_C 	C 	0.3486	0.50701	0.1816	-0.046
Mof_H 	H 	0.3321	0.5293	0.1779	0.065
Mof_C 	C 	0.3833	0.5028	0.15873	-0.07
Mof_C 	C 	0.40799	0.4695	0.1642	-0.056
Mof_H 	H 	0.4312	0.4667	0.1489	0.061
Mof_C 	C 	0.3979	0.4404	0.1925	0.044
Mof_C 	C 	0.3632	0.4446	0.2153	-0.109
Mof_H 	H 	0.3564	0.4252	0.2342	0.073
Mof_C 	C 	0.3385	0.4779	0.2098	0.044
Mof_C 	C 	0.3978	0.5317	0.1263	0.44
Mof_C 	C 	0.3074	0.4837	0.2366	-0.007
Mof_C 	C 	0.2803	0.4858	0.2599	-0.051
Mof_C 	C 	0.2469	0.4689	0.3244	-0.176
Mof_H 	H 	0.2622	0.4457	0.3274	0.096
Mof_C 	C 	0.2156	0.4769	0.3509	0.114
Mof_C 	C 	0.1928	0.5117	0.3464	-0.158
Mof_H 	H 	0.1718	0.517	0.3641	0.086
Mof_C 	C 	0.2013	0.5384	0.3154	0.073
Mof_H 	H 	0.186	0.5616	0.3124	-0
Mof_C 	C 	0.2326	0.5304	0.2889	-0.16
Mof_H 	H 	0.2383	0.5483	0.2682	0.088
Mof_C 	C 	0.2554	0.4957	0.2934	0.114
Mof_C 	C 	0.4467	0.3778	0.2004	-0.05
Mof_C 	C 	0.4239	0.4048	0.1969	-0.009
Mof_O 	O 	0.12649	0.43921	0.62636	-0.462
Mof_O 	O 	0.0744	0.4737	0.6056	-0.554
Mof_C 	C 	0.1514	0.49299	0.6816	-0.046
Mof_H 	H 	0.1679	0.4707	0.6779	0.065
Mof_C 	C 	0.1167	0.4972	0.65873	-0.07
Mof_C 	C 	0.09201	0.5305	0.6642	-0.056
Mof_H 	H 	0.0688	0.5333	0.6489	0.061
Mof_C 	C 	0.1021	0.5596	0.6925	0.044
Mof_C 	C 	0.1368	0.5554	0.7153	-0.109
Mof_H 	H 	0.1436	0.5748	0.7342	0.073
Mof_C 	C 	0.1615	0.5221	0.7098	0.044
Mof_C 	C 	0.1022	0.4683	0.6263	0.44
Mof_C 	C 	0.1926	0.5163	0.7366	-0.007
Mof_C 	C 	0.2197	0.5142	0.7599	-0.051
Mof_C 	C 	0.2531	0.5311	0.8244	-0.176
Mof_H 	H 	0.2378	0.5543	0.8274	0.096
Mof_C 	C 	0.2844	0.5231	0.8509	0.114
Mof_C 	C 	0.3072	0.4883	0.8464	-0.158
Mof_H 	H 	0.3282	0.483	0.8641	0.086
Mof_C 	C 	0.2987	0.4616	0.8154	0.073
Mof_H 	H 	0.314	0.4384	0.8124	-0
Mof_C 	C 	0.2674	0.4696	0.7889	-0.16
Mof_H 	H 	0.2617	0.4517	0.7682	0.088
Mof_C 	C 	0.2446	0.5043	0.7934	0.114
Mof_C 	C 	0.0533	0.6222	0.7004	-0.05
Mof_C 	C 	0.0761	0.5952	0.6969	-0.009
Mof_O 	O 	0.87351	0.93921	0.87364	-0.462
Mof_O 	O 	0.9256	0.9737	0.8944	-0.554
Mof_C 	C 	0.8486	0.99299	0.8184	-0.046
Mof_H 	H 	0.8321	0.9707	0.8221	0.065
Mof_C 	C 	0.8833	0.9972	0.84127	-0.07
Mof_C 	C 	0.90799	0.0305	0.8358	-0.056
Mof_H 	H 	0.9312	0.0333	0.8511	0.061
Mof_C 	C 	0.8979	0.0596	0.8075	0.044
Mof_C 	C 	0.8632	0.0554	0.7847	-0.109
Mof_H 	H 	0.8564	0.0748	0.7658	0.073
Mof_C 	C 	0.8385	0.0221	0.7902	0.044
Mof_C 	C 	0.8978	0.9683	0.8737	0.44
Mof_C 	C 	0.8074	0.0163	0.7634	-0.007
Mof_C 	C 	0.7803	0.0142	0.7401	-0.051
Mof_C 	C 	0.7469	0.0311	0.6756	-0.175
Mof_H 	H 	0.7622	0.0543	0.6726	0.096
Mof_C 	C 	0.7156	0.0231	0.6491	0.114
Mof_C 	C 	0.6928	0.9883	0.6536	-0.158
Mof_H 	H 	0.6718	0.983	0.6359	0.086
Mof_C 	C 	0.7013	0.9616	0.6846	0.073
Mof_H 	H 	0.686	0.9384	0.6876	-0
Mof_C 	C 	0.7326	0.9696	0.7111	-0.16
Mof_H 	H 	0.7383	0.9517	0.7318	0.088
Mof_C 	C 	0.7554	0.0043	0.7066	0.114
Mof_C 	C 	0.9467	0.1222	0.7996	-0.05
Mof_C 	C 	0.9239	0.0952	0.8031	-0.009
Mof_O 	O 	0.37649	0.62364	0.18921	-0.462
Mof_O 	O 	0.3244	0.6444	0.2237	-0.554
Mof_C 	C 	0.4014	0.5684	0.24299	-0.046
Mof_H 	H 	0.4179	0.5721	0.2207	0.065
Mof_C 	C 	0.3667	0.59127	0.2472	-0.07
Mof_C 	C 	0.34201	0.5858	0.2805	-0.056
Mof_H 	H 	0.3188	0.6011	0.2833	0.061
Mof_C 	C 	0.3521	0.5575	0.3096	0.044
Mof_C 	C 	0.3868	0.5347	0.3054	-0.109
Mof_H 	H 	0.3936	0.5158	0.3248	0.073
Mof_C 	C 	0.4115	0.5402	0.2721	0.044
Mof_C 	C 	0.3522	0.6237	0.2183	0.44
Mof_C 	C 	0.4426	0.5134	0.2663	-0.007
Mof_C 	C 	0.4697	0.4901	0.2642	-0.051
Mof_C 	C 	0.5031	0.4256	0.2811	-0.176
Mof_H 	H 	0.4878	0.4226	0.3043	0.096
Mof_C 	C 	0.5344	0.3991	0.2731	0.114
Mof_C 	C 	0.5572	0.4036	0.2383	-0.158
Mof_H 	H 	0.5782	0.3859	0.233	0.086
Mof_C 	C 	0.5487	0.4346	0.2116	0.073
Mof_H 	H 	0.564	0.4376	0.1884	-0
Mof_C 	C 	0.5174	0.4611	0.2196	-0.16
Mof_H 	H 	0.5117	0.4818	0.2017	0.088
Mof_C 	C 	0.4946	0.4566	0.2543	0.114
Mof_C 	C 	0.3033	0.5496	0.3722	-0.05
Mof_C 	C 	0.3261	0.5531	0.3452	-0.009
Mof_O 	O 	0.12351	0.37636	0.68921	-0.462
Mof_O 	O 	0.1756	0.3556	0.7237	-0.554
Mof_C 	C 	0.0986	0.4316	0.74299	-0.046
Mof_H 	H 	0.0821	0.4279	0.7207	0.065
Mof_C 	C 	0.1333	0.40873	0.7472	-0.07
Mof_C 	C 	0.15799	0.4142	0.7805	-0.056
Mof_H 	H 	0.1812	0.3989	0.7833	0.061
Mof_C 	C 	0.1479	0.4425	0.8096	0.044
Mof_C 	C 	0.1132	0.4653	0.8054	-0.109
Mof_H 	H 	0.1064	0.4842	0.8248	0.073
Mof_C 	C 	0.0885	0.4598	0.7721	0.044
Mof_C 	C 	0.1478	0.3763	0.7183	0.44
Mof_C 	C 	0.0574	0.4866	0.7663	-0.007
Mof_C 	C 	0.0303	0.5099	0.7642	-0.051
Mof_C 	C 	0.9969	0.5744	0.7811	-0.175
Mof_H 	H 	0.0122	0.5774	0.8043	0.096
Mof_C 	C 	0.9656	0.6009	0.7731	0.114
Mof_C 	C 	0.9428	0.5964	0.7383	-0.158
Mof_H 	H 	0.9218	0.6141	0.733	0.086
Mof_C 	C 	0.9513	0.5654	0.7116	0.073
Mof_H 	H 	0.936	0.5624	0.6884	-0
Mof_C 	C 	0.9826	0.5389	0.7196	-0.16
Mof_H 	H 	0.9883	0.5182	0.7017	0.088
Mof_C 	C 	0.0054	0.5434	0.7543	0.114
Mof_C 	C 	0.1967	0.4504	0.8722	-0.05
Mof_C 	C 	0.1739	0.4469	0.8452	-0.009
Mof_O 	O 	0.87649	0.87636	0.81079	-0.462
Mof_O 	O 	0.8244	0.8556	0.7763	-0.554
Mof_C 	C 	0.9014	0.9316	0.75701	-0.046
Mof_H 	H 	0.9179	0.9279	0.7793	0.065
Mof_C 	C 	0.8667	0.90873	0.7528	-0.07
Mof_C 	C 	0.84201	0.9142	0.7195	-0.056
Mof_H 	H 	0.8188	0.8989	0.7167	0.061
Mof_C 	C 	0.8521	0.9425	0.6904	0.044
Mof_C 	C 	0.8868	0.9653	0.6946	-0.109
Mof_H 	H 	0.8936	0.9842	0.6752	0.073
Mof_C 	C 	0.9115	0.9598	0.7279	0.044
Mof_C 	C 	0.8522	0.8763	0.7817	0.44
Mof_C 	C 	0.9426	0.9866	0.7337	-0.007
Mof_C 	C 	0.9697	0.0099	0.7358	-0.051
Mof_C 	C 	0.0031	0.0744	0.7189	-0.175
Mof_H 	H 	0.9878	0.0774	0.6957	0.096
Mof_C 	C 	0.0344	0.1009	0.7269	0.114
Mof_C 	C 	0.0572	0.0964	0.7617	-0.158
Mof_H 	H 	0.0782	0.1141	0.767	0.086
Mof_C 	C 	0.0487	0.0654	0.7884	0.073
Mof_H 	H 	0.064	0.0624	0.8116	-0
Mof_C 	C 	0.0174	0.0389	0.7804	-0.16
Mof_H 	H 	0.0117	0.0182	0.7983	0.088
Mof_C 	C 	0.9946	0.0434	0.7457	0.114
Mof_C 	C 	0.8033	0.9504	0.6278	-0.05
Mof_C 	C 	0.8261	0.9469	0.6548	-0.009
Mof_O 	O 	0.62351	0.12364	0.31079	-0.462
Mof_O 	O 	0.6756	0.1444	0.2763	-0.554
Mof_C 	C 	0.5986	0.0684	0.25701	-0.046
Mof_H 	H 	0.5821	0.0721	0.2793	0.065
Mof_C 	C 	0.6333	0.09127	0.2528	-0.07
Mof_C 	C 	0.65799	0.0858	0.2195	-0.056
Mof_H 	H 	0.6812	0.1011	0.2167	0.061
Mof_C 	C 	0.6479	0.0575	0.1904	0.044
Mof_C 	C 	0.6132	0.0347	0.1946	-0.109
Mof_H 	H 	0.6064	0.0158	0.1752	0.073
Mof_C 	C 	0.5885	0.0402	0.2279	0.044
Mof_C 	C 	0.6478	0.1237	0.2817	0.44
Mof_C 	C 	0.5574	0.0134	0.2337	-0.007
Mof_C 	C 	0.5303	0.9901	0.2358	-0.051
Mof_C 	C 	0.4969	0.9256	0.2189	-0.176
Mof_H 	H 	0.5122	0.9226	0.1957	0.096
Mof_C 	C 	0.4656	0.8991	0.2269	0.114
Mof_C 	C 	0.4428	0.9036	0.2617	-0.158
Mof_H 	H 	0.4218	0.8859	0.267	0.086
Mof_C 	C 	0.4513	0.9346	0.2884	0.073
Mof_H 	H 	0.436	0.9376	0.3116	-0
Mof_C 	C 	0.4826	0.9611	0.2804	-0.16
Mof_H 	H 	0.4883	0.9818	0.2983	0.088
Mof_C 	C 	0.5054	0.9566	0.2457	0.114
Mof_C 	C 	0.6967	0.0496	0.1278	-0.05
Mof_C 	C 	0.6739	0.0531	0.1548	-0.009
Mof_O 	O 	0.12364	0.31079	0.62351	-0.462
Mof_O 	O 	0.1444	0.2763	0.6756	-0.554
Mof_C 	C 	0.0684	0.25701	0.5986	-0.046
Mof_H 	H 	0.0721	0.2793	0.5821	0.065
Mof_C 	C 	0.09127	0.2528	0.6333	-0.07
Mof_C 	C 	0.0858	0.2195	0.65799	-0.056
Mof_H 	H 	0.1011	0.2167	0.6812	0.061
Mof_C 	C 	0.0575	0.1904	0.6479	0.044
Mof_C 	C 	0.0347	0.1946	0.6132	-0.109
Mof_H 	H 	0.0158	0.1752	0.6064	0.073
Mof_C 	C 	0.0402	0.2279	0.5885	0.044
Mof_C 	C 	0.1237	0.2817	0.6478	0.44
Mof_C 	C 	0.0134	0.2337	0.5574	-0.007
Mof_C 	C 	0.9901	0.2358	0.5303	-0.051
Mof_C 	C 	0.9256	0.2189	0.4969	-0.176
Mof_H 	H 	0.9226	0.1957	0.5122	0.096
Mof_C 	C 	0.8991	0.2269	0.4656	0.114
Mof_C 	C 	0.9036	0.2617	0.4428	-0.158
Mof_H 	H 	0.8859	0.267	0.4218	0.086
Mof_C 	C 	0.9346	0.2884	0.4513	0.073
Mof_H 	H 	0.9376	0.3116	0.436	-0
Mof_C 	C 	0.9611	0.2804	0.4826	-0.16
Mof_H 	H 	0.9818	0.2983	0.4883	0.088
Mof_C 	C 	0.9566	0.2457	0.5054	0.114
Mof_C 	C 	0.0496	0.1278	0.6967	-0.05
Mof_C 	C 	0.0531	0.1548	0.6739	-0.009
Mof_O 	O 	0.87636	0.81079	0.87649	-0.462
Mof_O 	O 	0.8556	0.7763	0.8244	-0.554
Mof_C 	C 	0.9316	0.75701	0.9014	-0.046
Mof_H 	H 	0.9279	0.7793	0.9179	0.065
Mof_C 	C 	0.90873	0.7528	0.8667	-0.07
Mof_C 	C 	0.9142	0.7195	0.84201	-0.056
Mof_H 	H 	0.8989	0.7167	0.8188	0.061
Mof_C 	C 	0.9425	0.6904	0.8521	0.044
Mof_C 	C 	0.9653	0.6946	0.8868	-0.109
Mof_H 	H 	0.9842	0.6752	0.8936	0.073
Mof_C 	C 	0.9598	0.7279	0.9115	0.044
Mof_C 	C 	0.8763	0.7817	0.8522	0.44
Mof_C 	C 	0.9866	0.7337	0.9426	-0.007
Mof_C 	C 	0.0099	0.7358	0.9697	-0.051
Mof_C 	C 	0.0744	0.7189	0.0031	-0.175
Mof_H 	H 	0.0774	0.6957	0.9878	0.096
Mof_C 	C 	0.1009	0.7269	0.0344	0.114
Mof_C 	C 	0.0964	0.7617	0.0572	-0.158
Mof_H 	H 	0.1141	0.767	0.0782	0.086
Mof_C 	C 	0.0654	0.7884	0.0487	0.073
Mof_H 	H 	0.0624	0.8116	0.064	-0
Mof_C 	C 	0.0389	0.7804	0.0174	-0.16
Mof_H 	H 	0.0182	0.7983	0.0117	0.088
Mof_C 	C 	0.0434	0.7457	0.9946	0.114
Mof_C 	C 	0.9504	0.6278	0.8033	-0.05
Mof_C 	C 	0.9469	0.6548	0.8261	-0.009
Mof_O 	O 	0.37636	0.68921	0.12351	-0.462
Mof_O 	O 	0.3556	0.7237	0.1756	-0.554
Mof_C 	C 	0.4316	0.74299	0.0986	-0.046
Mof_H 	H 	0.4279	0.7207	0.0821	0.065
Mof_C 	C 	0.40873	0.7472	0.1333	-0.07
Mof_C 	C 	0.4142	0.7805	0.15799	-0.056
Mof_H 	H 	0.3989	0.7833	0.1812	0.061
Mof_C 	C 	0.4425	0.8096	0.1479	0.044
Mof_C 	C 	0.4653	0.8054	0.1132	-0.109
Mof_H 	H 	0.4842	0.8248	0.1064	0.073
Mof_C 	C 	0.4598	0.7721	0.0885	0.044
Mof_C 	C 	0.3763	0.7183	0.1478	0.44
Mof_C 	C 	0.4866	0.7663	0.0574	-0.007
Mof_C 	C 	0.5099	0.7642	0.0303	-0.051
Mof_C 	C 	0.5744	0.7811	0.9969	-0.175
Mof_H 	H 	0.5774	0.8043	0.0122	0.096
Mof_C 	C 	0.6009	0.7731	0.9656	0.114
Mof_C 	C 	0.5964	0.7383	0.9428	-0.158
Mof_H 	H 	0.6141	0.733	0.9218	0.086
Mof_C 	C 	0.5654	0.7116	0.9513	0.073
Mof_H 	H 	0.5624	0.6884	0.936	-0
Mof_C 	C 	0.5389	0.7196	0.9826	-0.16
Mof_H 	H 	0.5182	0.7017	0.9883	0.088
Mof_C 	C 	0.5434	0.7543	0.0054	0.114
Mof_C 	C 	0.4504	0.8722	0.1967	-0.05
Mof_C 	C 	0.4469	0.8452	0.1739	-0.009
Mof_O 	O 	0.62364	0.18921	0.37649	-0.462
Mof_O 	O 	0.6444	0.2237	0.3244	-0.554
Mof_C 	C 	0.5684	0.24299	0.4014	-0.046
Mof_H 	H 	0.5721	0.2207	0.4179	0.065
Mof_C 	C 	0.59127	0.2472	0.3667	-0.07
Mof_C 	C 	0.5858	0.2805	0.34201	-0.056
Mof_H 	H 	0.6011	0.2833	0.3188	0.061
Mof_C 	C 	0.5575	0.3096	0.3521	0.044
Mof_C 	C 	0.5347	0.3054	0.3868	-0.109
Mof_H 	H 	0.5158	0.3248	0.3936	0.073
Mof_C 	C 	0.5402	0.2721	0.4115	0.044
Mof_C 	C 	0.6237	0.2183	0.3522	0.44
Mof_C 	C 	0.5134	0.2663	0.4426	-0.007
Mof_C 	C 	0.4901	0.2642	0.4697	-0.051
Mof_C 	C 	0.4256	0.2811	0.5031	-0.176
Mof_H 	H 	0.4226	0.3043	0.4878	0.096
Mof_C 	C 	0.3991	0.2731	0.5344	0.114
Mof_C 	C 	0.4036	0.2383	0.5572	-0.158
Mof_H 	H 	0.3859	0.233	0.5782	0.086
Mof_C 	C 	0.4346	0.2116	0.5487	0.073
Mof_H 	H 	0.4376	0.1884	0.564	-0
Mof_C 	C 	0.4611	0.2196	0.5174	-0.16
Mof_H 	H 	0.4818	0.2017	0.5117	0.088
Mof_C 	C 	0.4566	0.2543	0.4946	0.114
Mof_C 	C 	0.5496	0.3722	0.3033	-0.05
Mof_C 	C 	0.5531	0.3452	0.3261	-0.009
Mof_O 	O 	0.81079	0.87649	0.87636	-0.462
Mof_O 	O 	0.7763	0.8244	0.8556	-0.554
Mof_C 	C 	0.75701	0.9014	0.9316	-0.046
Mof_H 	H 	0.7793	0.9179	0.9279	0.065
Mof_C 	C 	0.7528	0.8667	0.90873	-0.07
Mof_C 	C 	0.7195	0.84201	0.9142	-0.056
Mof_H 	H 	0.7167	0.8188	0.8989	0.061
Mof_C 	C 	0.6904	0.8521	0.9425	0.044
Mof_C 	C 	0.6946	0.8868	0.9653	-0.109
Mof_H 	H 	0.6752	0.8936	0.9842	0.073
Mof_C 	C 	0.7279	0.9115	0.9598	0.044
Mof_C 	C 	0.7817	0.8522	0.8763	0.44
Mof_C 	C 	0.7337	0.9426	0.9866	-0.007
Mof_C 	C 	0.7358	0.9697	0.0099	-0.051
Mof_C 	C 	0.7189	0.0031	0.0744	-0.175
Mof_H 	H 	0.6957	0.9878	0.0774	0.096
Mof_C 	C 	0.7269	0.0344	0.1009	0.114
Mof_C 	C 	0.7617	0.0572	0.0964	-0.158
Mof_H 	H 	0.767	0.0782	0.1141	0.086
Mof_C 	C 	0.7884	0.0487	0.0654	0.073
Mof_H 	H 	0.8116	0.064	0.0624	-0
Mof_C 	C 	0.7804	0.0174	0.0389	-0.16
Mof_H 	H 	0.7983	0.0117	0.0182	0.088
Mof_C 	C 	0.7457	0.9946	0.0434	0.114
Mof_C 	C 	0.6278	0.8033	0.9504	-0.05
Mof_C 	C 	0.6548	0.8261	0.9469	-0.009
Mof_O 	O 	0.31079	0.62351	0.12364	-0.462
Mof_O 	O 	0.2763	0.6756	0.1444	-0.554
Mof_C 	C 	0.25701	0.5986	0.0684	-0.046
Mof_H 	H 	0.2793	0.5821	0.0721	0.065
Mof_C 	C 	0.2528	0.6333	0.09127	-0.07
Mof_C 	C 	0.2195	0.65799	0.0858	-0.056
Mof_H 	H 	0.2167	0.6812	0.1011	0.061
Mof_C 	C 	0.1904	0.6479	0.0575	0.044
Mof_C 	C 	0.1946	0.6132	0.0347	-0.109
Mof_H 	H 	0.1752	0.6064	0.0158	0.073
Mof_C 	C 	0.2279	0.5885	0.0402	0.044
Mof_C 	C 	0.2817	0.6478	0.1237	0.44
Mof_C 	C 	0.2337	0.5574	0.0134	-0.007
Mof_C 	C 	0.2358	0.5303	0.9901	-0.051
Mof_C 	C 	0.2189	0.4969	0.9256	-0.176
Mof_H 	H 	0.1957	0.5122	0.9226	0.096
Mof_C 	C 	0.2269	0.4656	0.8991	0.114
Mof_C 	C 	0.2617	0.4428	0.9036	-0.158
Mof_H 	H 	0.267	0.4218	0.8859	0.086
Mof_C 	C 	0.2884	0.4513	0.9346	0.073
Mof_H 	H 	0.3116	0.436	0.9376	-0
Mof_C 	C 	0.2804	0.4826	0.9611	-0.16
Mof_H 	H 	0.2983	0.4883	0.9818	0.088
Mof_C 	C 	0.2457	0.5054	0.9566	0.114
Mof_C 	C 	0.1278	0.6967	0.0496	-0.05
Mof_C 	C 	0.1548	0.6739	0.0531	-0.009
Mof_O 	O 	0.18921	0.37649	0.62364	-0.462
Mof_O 	O 	0.2237	0.3244	0.6444	-0.554
Mof_C 	C 	0.24299	0.4014	0.5684	-0.046
Mof_H 	H 	0.2207	0.4179	0.5721	0.065
Mof_C 	C 	0.2472	0.3667	0.59127	-0.07
Mof_C 	C 	0.2805	0.34201	0.5858	-0.056
Mof_H 	H 	0.2833	0.3188	0.6011	0.061
Mof_C 	C 	0.3096	0.3521	0.5575	0.044
Mof_C 	C 	0.3054	0.3868	0.5347	-0.109
Mof_H 	H 	0.3248	0.3936	0.5158	0.073
Mof_C 	C 	0.2721	0.4115	0.5402	0.044
Mof_C 	C 	0.2183	0.3522	0.6237	0.44
Mof_C 	C 	0.2663	0.4426	0.5134	-0.007
Mof_C 	C 	0.2642	0.4697	0.4901	-0.051
Mof_C 	C 	0.2811	0.5031	0.4256	-0.176
Mof_H 	H 	0.3043	0.4878	0.4226	0.096
Mof_C 	C 	0.2731	0.5344	0.3991	0.114
Mof_C 	C 	0.2383	0.5572	0.4036	-0.158
Mof_H 	H 	0.233	0.5782	0.3859	0.086
Mof_C 	C 	0.2116	0.5487	0.4346	0.073
Mof_H 	H 	0.1884	0.564	0.4376	-0
Mof_C 	C 	0.2196	0.5174	0.4611	-0.16
Mof_H 	H 	0.2017	0.5117	0.4818	0.088
Mof_C 	C 	0.2543	0.4946	0.4566	0.114
Mof_C 	C 	0.3722	0.3033	0.5496	-0.05
Mof_C 	C 	0.3452	0.3261	0.5531	-0.009
Mof_O 	O 	0.68921	0.12351	0.37636	-0.462
Mof_O 	O 	0.7237	0.1756	0.3556	-0.554
Mof_C 	C 	0.74299	0.0986	0.4316	-0.046
Mof_H 	H 	0.7207	0.0821	0.4279	0.065
Mof_C 	C 	0.7472	0.1333	0.40873	-0.07
Mof_C 	C 	0.7805	0.15799	0.4142	-0.056
Mof_H 	H 	0.7833	0.1812	0.3989	0.061
Mof_C 	C 	0.8096	0.1479	0.4425	0.044
Mof_C 	C 	0.8054	0.1132	0.4653	-0.109
Mof_H 	H 	0.8248	0.1064	0.4842	0.073
Mof_C 	C 	0.7721	0.0885	0.4598	0.044
Mof_C 	C 	0.7183	0.1478	0.3763	0.44
Mof_C 	C 	0.7663	0.0574	0.4866	-0.007
Mof_C 	C 	0.7642	0.0303	0.5099	-0.051
Mof_C 	C 	0.7811	0.9969	0.5744	-0.175
Mof_H 	H 	0.8043	0.0122	0.5774	0.096
Mof_C 	C 	0.7731	0.9656	0.6009	0.114
Mof_C 	C 	0.7383	0.9428	0.5964	-0.158
Mof_H 	H 	0.733	0.9218	0.6141	0.086
Mof_C 	C 	0.7116	0.9513	0.5654	0.073
Mof_H 	H 	0.6884	0.936	0.5624	-0
Mof_C 	C 	0.7196	0.9826	0.5389	-0.16
Mof_H 	H 	0.7017	0.9883	0.5182	0.088
Mof_C 	C 	0.7543	0.0054	0.5434	0.114
Mof_C 	C 	0.8722	0.1967	0.4504	-0.05
Mof_C 	C 	0.8452	0.1739	0.4469	-0.009
Mof_Zn	Zn	0.375	0.625	0.125	1.235
Mof_Zn	Zn	0.125	0.375	0.625	1.235
Mof_Zn	Zn	0.625	0.125	0.375	1.235
Mof_Zn	Zn	0.875	0.875	0.875	1.235
Mof_Zn	Zn	0.43692	0.56308	0.06308	1.209
Mof_Zn	Zn	0.06308	0.43692	0.56308	1.209
Mof_Zn	Zn	0.56308	0.06308	0.43692	1.209
Mof_Zn	Zn	0.93692	0.93692	0.93692	1.209
Mof_Zn	Zn	0.31308	0.68692	0.18692	1.209
Mof_Zn	Zn	0.18692	0.31308	0.68692	1.209
Mof_Zn	Zn	0.81308	0.81308	0.81308	1.209
Mof_Zn	Zn	0.68692	0.18692	0.31308	1.209
_end
