data_functionalizedCrystal
_audit_creation_method	'EQeq! by Chris Wilmer'
_symmetry_space_group_name_H-M	'P1'
_symmetry_Int_Tables_number	1
_symmetry_cell_setting	triclinic
loop_
_symmetry_equiv_pos_as_xyz
  x,y,z
_cell_length_a	32.4109
_cell_length_b	19.2358
_cell_length_c	31.4795
_cell_angle_alpha	90
_cell_angle_beta	109.208
_cell_angle_gamma	90
loop_
_atom_site_label
_atom_site_type_symbol
_atom_site_fract_x
_atom_site_fract_y
_atom_site_fract_z
_atom_site_charge
Mof_C 	C 	0.35752	0.29037	0.56809	0.013
Mof_C 	C 	0.35278	0.22273	0.58445	-0.011
Mof_C 	C 	0.34925	0.16549	0.55644	0.005
Mof_C 	C 	0.35292	0.174	0.51287	-0.017
Mof_C 	C 	0.14254	0.25971	0.50281	0.012
Mof_C 	C 	0.36099	0.29881	0.52557	-0.012
Mof_C 	C 	0.15668	0.13928	0.50298	0.053
Mof_C 	C 	0.31585	0.41339	0.51608	0.043
Mof_C 	C 	0.31001	0.39467	0.55948	-0.021
Mof_C 	C 	0.33138	0.33854	0.58516	0.006
Mof_C 	C 	0.31137	0.30032	0.6116	-0.02
Mof_C 	C 	0.32823	0.22804	0.61634	0.05
Mof_C 	C 	0.2938	0.16666	0.61406	0.05
Mof_C 	C 	0.28959	0.11289	0.57918	-0.015
Mof_C 	C 	0.3172	0.11016	0.55385	0.006
Mof_C 	C 	0.30153	0.08538	0.50871	-0.02
Mof_C 	C 	0.32725	0.11832	0.48317	0.042
Mof_C 	C 	0.19874	0.35828	0.5678	0.046
Mof_C 	C 	0.19507	0.28416	0.57896	-0.008
Mof_C 	C 	0.16724	0.23836	0.54926	0.017
Mof_C 	C 	0.17829	0.1673	0.54882	-0.012
Mof_C 	C 	0.21899	0.14421	0.57611	0.02
Mof_C 	C 	0.24443	0.09559	0.55891	0.013
Mof_C 	C 	0.22896	0.071	0.51495	-0.023
Mof_C 	C 	0.25781	0.06806	0.48926	0.01
Mof_C 	C 	0.26647	0.41074	0.55731	0.001
Mof_C 	C 	0.24633	0.37349	0.58336	-0.022
Mof_C 	C 	0.26898	0.31625	0.60962	0.006
Mof_C 	C 	0.23697	0.26028	0.60726	0.012
Mof_C 	C 	0.24827	0.1905	0.60702	-0.013
Mof_C 	C 	0.35899	0.43415	0.50979	-0.164
Mof_C 	C 	0.33751	0.08876	0.44343	-0.148
Mof_C 	C 	0.3324	0.17965	0.65499	-0.156
Mof_O 	O 	0.40095	0.4541	0.58806	-0.272
Mof_C 	C 	0.39972	0.43954	0.55073	0.329
Mof_O 	O 	0.43385	0.42309	0.53814	-0.186
Mof_C 	C 	0.47581	0.42067	0.57333	-0.193
Mof_H 	H 	0.4752	0.4514	0.5983	0.095
Mof_H 	H 	0.4986	0.4383	0.5615	0.099
Mof_C 	C 	0.48754	0.34756	0.59111	0.405
Mof_O 	O 	0.46279	0.29868	0.57114	-0.453
Mof_O 	O 	0.52137	0.34032	0.62416	-0.474
Mof_O 	O 	0.33378	0.48356	0.43566	-0.26
Mof_C 	C 	0.35592	0.48747	0.47418	0.335
Mof_O 	O 	0.38033	0.54246	0.49288	-0.221
Mof_C 	C 	0.38114	0.59628	0.46155	-0.125
Mof_H 	H 	0.3961	0.6377	0.4784	0.055
Mof_H 	H 	0.3508	0.6097	0.4442	0.079
Mof_C 	C 	0.40452	0.57353	0.429	0.353
Mof_O 	O 	0.42402	0.51765	0.43405	-0.284
Mof_O 	O 	0.40134	0.61783	0.39827	-0.466
Mof_O 	O 	0.39233	0.15631	0.42478	-0.235
Mof_C 	C 	0.38258	0.10781	0.44253	0.329
Mof_O 	O 	0.40985	0.05948	0.46721	-0.181
Mof_C 	C 	0.45535	0.0673	0.47251	-0.209
Mof_H 	H 	0.4581	0.0881	0.4448	0.173
Mof_H 	H 	0.4692	0.0208	0.4764	0.147
Mof_C 	C 	0.47954	0.11297	0.51286	0.395
Mof_O 	O 	0.45765	0.14422	0.5333	-0.536
Mof_O 	O 	0.51984	0.11538	0.52055	-0.511
Mof_O 	O 	0.3093	0.9756	0.4475	-0.11
Mof_C 	C 	0.32423	0.01565	0.42768	0.283
Mof_O 	O 	0.3265	0.0086	0.3864	-0.081
Mof_C 	C 	0.32	0.9395	0.3672	-0.039
Mof_H 	H 	0.3047	0.9422	0.3343	0.026
Mof_H 	H 	0.302	0.9115	0.3808	0.043
Mof_C 	C 	0.3651	0.9055	0.3767	0.177
Mof_O 	O 	0.3883	0.89973	0.41619	-0.448
Mof_O 	O 	0.37081	0.8817	0.3429	-0.307
Mof_O 	O 	0.36834	0.06894	0.65801	-0.26
Mof_C 	C 	0.37068	0.12965	0.66627	0.331
Mof_O 	O 	0.40687	0.16498	0.68475	-0.189
Mof_C 	C 	0.44799	0.1283	0.69856	-0.193
Mof_H 	H 	0.4425	0.0776	0.696	0.104
Mof_H 	H 	0.4642	0.1391	0.7304	0.118
Mof_C 	C 	0.47522	0.14887	0.66967	0.406
Mof_O 	O 	0.45538	0.17112	0.63078	-0.537
Mof_O 	O 	0.5152	0.13888	0.68702	-0.597
Mof_O 	O 	0.30065	0.1792	0.71336	-0.237
Mof_C 	C 	0.32433	0.20724	0.69677	0.334
Mof_O 	O 	0.347	0.26429	0.71049	-0.204
Mof_C 	C 	0.34787	0.2917	0.75368	-0.176
Mof_H 	H 	0.3192	0.2838	0.7577	0.107
Mof_H 	H 	0.3532	0.3425	0.7545	0.082
Mof_C 	C 	0.38357	0.2568	0.79177	0.411
Mof_O 	O 	0.396	0.19821	0.7848	-0.399
Mof_O 	O 	0.39634	0.28899	0.82852	-0.459
Mof_Zn	Zn	0.48268	0.20253	0.58728	1.189
Mof_Zn	Zn	0.58128	0.39082	0.6582	1.204
Mof_Zn	Zn	0.57069	0.18291	0.5542	1.18
Mof_Zn	Zn	0.56812	0.13607	0.66473	1.15
Mof_O 	O 	0.54642	0.19601	0.60839	-0.796
Mof_O 	O 	0.56954	0.39205	0.71878	-0.444
Mof_O 	O 	0.59071	0.1744	0.4973	-0.444
Mof_C 	C 	0.6283	0.1547	0.4979	0.196
Mof_H 	H 	0.6444	0.1272	0.5229	-0.025
Mof_N 	N 	0.6479	0.168	0.4678	-0.171
Mof_C 	C 	0.6259	0.2138	0.4288	0.14
Mof_H 	H 	0.5939	0.2107	0.4222	0.022
Mof_H 	H 	0.6325	0.1966	0.4021	-0.016
Mof_C 	C 	0.6395	0.2881	0.4366	-0.5
Mof_H 	H 	0.6248	0.3151	0.4094	0.159
Mof_H 	H 	0.6712	0.2915	0.4436	0.169
Mof_H 	H 	0.6314	0.3064	0.4618	0.172
Mof_C 	C 	0.696	0.1505	0.4777	0.146
Mof_H 	H 	0.7129	0.1936	0.4785	-0.021
Mof_H 	H 	0.7077	0.1272	0.5073	-0.002
Mof_C 	C 	0.6997	0.1029	0.4409	-0.518
Mof_H 	H 	0.7303	0.0892	0.4474	0.183
Mof_H 	H 	0.6895	0.1274	0.412	0.183
Mof_H 	H 	0.6818	0.0614	0.4394	0.194
Mof_O 	O 	0.5885	0.0528	0.7183	0.033
Mof_O 	O 	0.53182	0.0489	0.61971	5.449
Mof_C 	C 	0.5236	0.9953	0.6362	-2.479
Mof_H 	H 	0.541	0.9839	0.6661	0.492
Mof_N 	N 	0.4916	0.9519	0.6143	0.534
Mof_C 	C 	0.4582	0.9707	0.5731	-0.857
Mof_H 	H 	0.47	0.0062	0.5574	0.092
Mof_H 	H 	0.4503	0.9293	0.5534	0.319
Mof_C 	C 	0.4188	0.9982	0.5801	-0.213
Mof_H 	H 	0.4051	0.0327	0.5569	0.077
Mof_H 	H 	0.3982	0.9601	0.5784	0.051
Mof_H 	H 	0.4267	0.0201	0.6098	0.131
Mof_C 	C 	0.4893	0.8833	0.6345	-0.787
Mof_H 	H 	0.5087	0.8833	0.6662	0.3
Mof_H 	H 	0.4591	0.8751	0.6342	0.264
Mof_C 	C 	0.5028	0.8244	0.6094	-0.365
Mof_H 	H 	0.5066	0.7816	0.6271	0.09
Mof_H 	H 	0.4801	0.8174	0.5802	0.058
Mof_H 	H 	0.5304	0.8364	0.6048	0.179
Mof_O 	O 	0.312	0.9673	0.444	-0.117
Mof_O 	O 	0.3344	0.0102	0.3898	-0.092
Mof_C 	C 	0.322	0.948	0.3636	-0.1
Mof_H 	H 	0.3207	0.9578	0.3323	0.104
Mof_H 	H 	0.2923	0.9341	0.3628	0.067
Mof_C 	C 	0.3534	0.8875	0.3819	0.234
Mof_O 	O 	0.3365	0.8324	0.3623	-0.387
Mof_H 	H 	0.3533	0.7988	0.3729	0.189
Mof_C 	C 	0.5548	0.4397	0.7361	0.92
Mof_H 	H 	0.5419	0.4782	0.7175	-0.294
Mof_N 	N 	0.5555	0.441	0.7785	-0.292
Mof_C 	C 	0.5812	0.3843	0.81	-0.027
Mof_H 	H 	0.6042	0.3654	0.799	0.071
Mof_H 	H 	0.5952	0.4033	0.8406	0.089
Mof_C 	C 	0.5506	0.3307	0.8108	0.609
Mof_H 	H 	0.5665	0.2887	0.8246	-0.122
Mof_H 	H 	0.532	0.3203	0.78	-0.414
Mof_H 	H 	0.5324	0.3465	0.8284	-0.121
Mof_C 	C 	0.5268	0.4916	0.7928	0.391
Mof_H 	H 	0.5135	0.4682	0.8132	-0.102
Mof_H 	H 	0.503	0.5085	0.7662	-0.085
Mof_C 	C 	0.5547	0.5523	0.8169	-1.055
Mof_H 	H 	0.5365	0.5856	0.8262	0.321
Mof_H 	H 	0.5677	0.5753	0.7966	0.392
Mof_H 	H 	0.578	0.5353	0.8435	0.472
Mof_C 	C 	0.5853	0.4411	0.7461	-0.63
Mof_H 	H 	0.5967	0.4809	0.7358	0.177
Mof_N 	N 	0.5864	0.4388	0.7882	0.004
Mof_C 	C 	0.5524	0.3938	0.7977	-0.029
Mof_H 	H 	0.5676	0.3622	0.8228	-0.202
Mof_H 	H 	0.5333	0.4243	0.8083	0.039
Mof_C 	C 	0.5245	0.3511	0.7606	0.234
Mof_H 	H 	0.5254	0.3694	0.7319	-0.056
Mof_H 	H 	0.4944	0.3524	0.761	-0.085
Mof_H 	H 	0.535	0.303	0.7643	0.202
Mof_C 	C 	0.6037	0.5045	0.8167	0.522
Mof_H 	H 	0.5919	0.5467	0.7989	-0.213
Mof_H 	H 	0.5946	0.5045	0.8437	-0.297
Mof_C 	C 	0.6538	0.5037	0.8304	-0.831
Mof_H 	H 	0.6656	0.5461	0.8473	0.265
Mof_H 	H 	0.6624	0.5015	0.8034	0.267
Mof_H 	H 	0.6652	0.463	0.8494	0.28
Mof_C 	C 	0.5947	0.1152	0.4848	0.121
Mof_H 	H 	0.5987	0.0776	0.5053	0.006
Mof_N 	N 	0.5936	0.1033	0.4433	-0.154
Mof_C 	C 	0.5741	0.1552	0.4078	0.018
Mof_H 	H 	0.5891	0.2001	0.4177	-0.022
Mof_H 	H 	0.5805	0.1408	0.3804	-0.02
Mof_C 	C 	0.5271	0.1672	0.3952	-0.255
Mof_H 	H 	0.5164	0.1884	0.3653	0.19
Mof_H 	H 	0.5212	0.1984	0.4172	0.103
Mof_H 	H 	0.5122	0.1228	0.3948	0.473
Mof_C 	C 	0.6026	0.0301	0.4303	0.093
Mof_H 	H 	0.622	0.0321	0.4117	-0.01
Mof_H 	H 	0.6175	0.0028	0.4577	0.009
Mof_C 	C 	0.5598	0.9956	0.4041	0.01
Mof_H 	H 	0.5656	0.9495	0.3941	-0.105
Mof_H 	H 	0.5445	0.0241	0.3778	0.043
Mof_H 	H 	0.5416	0.9909	0.4233	0.393
Mof_O 	O 	0.5859	0.0417	0.6717	-1.666
Mof_C 	C 	0.5635	0.0093	0.6388	3.775
Mof_H 	H 	0.5417	0.0317	0.6148	-5.359
Mof_O 	O 	0.5712	0.9404	0.6378	-0.774
Mof_C 	C 	0.85752	0.79037	0.56809	0.013
Mof_C 	C 	0.85278	0.72273	0.58445	-0.011
Mof_C 	C 	0.84925	0.66549	0.55644	0.005
Mof_C 	C 	0.85292	0.674	0.51287	-0.017
Mof_C 	C 	0.64254	0.75971	0.50281	0.012
Mof_C 	C 	0.86099	0.79881	0.52557	-0.012
Mof_C 	C 	0.65668	0.63928	0.50298	0.053
Mof_C 	C 	0.81585	0.91339	0.51608	0.043
Mof_C 	C 	0.81001	0.89467	0.55948	-0.021
Mof_C 	C 	0.83138	0.83854	0.58516	0.006
Mof_C 	C 	0.81137	0.80032	0.6116	-0.02
Mof_C 	C 	0.82823	0.72804	0.61634	0.05
Mof_C 	C 	0.7938	0.66666	0.61406	0.05
Mof_C 	C 	0.78959	0.61289	0.57918	-0.015
Mof_C 	C 	0.8172	0.61016	0.55385	0.006
Mof_C 	C 	0.80153	0.58538	0.50871	-0.02
Mof_C 	C 	0.82725	0.61832	0.48317	0.042
Mof_C 	C 	0.69874	0.85828	0.5678	0.046
Mof_C 	C 	0.69507	0.78416	0.57896	-0.008
Mof_C 	C 	0.66724	0.73836	0.54926	0.017
Mof_C 	C 	0.67829	0.6673	0.54882	-0.012
Mof_C 	C 	0.71899	0.64421	0.57611	0.02
Mof_C 	C 	0.74443	0.59559	0.55891	0.013
Mof_C 	C 	0.72896	0.571	0.51495	-0.023
Mof_C 	C 	0.75781	0.56806	0.48926	0.01
Mof_C 	C 	0.76647	0.91074	0.55731	0.001
Mof_C 	C 	0.74633	0.87349	0.58336	-0.022
Mof_C 	C 	0.76898	0.81625	0.60962	0.006
Mof_C 	C 	0.73697	0.76028	0.60726	0.012
Mof_C 	C 	0.74827	0.6905	0.60702	-0.013
Mof_C 	C 	0.85899	0.93415	0.50979	-0.164
Mof_C 	C 	0.83751	0.58876	0.44343	-0.148
Mof_C 	C 	0.8324	0.67965	0.65499	-0.155
Mof_O 	O 	0.90095	0.9541	0.58806	-0.272
Mof_C 	C 	0.89972	0.93954	0.55073	0.329
Mof_O 	O 	0.93385	0.92309	0.53814	-0.186
Mof_C 	C 	0.97581	0.92067	0.57333	-0.193
Mof_H 	H 	0.9752	0.9514	0.5983	0.095
Mof_H 	H 	0.9986	0.9383	0.5615	0.099
Mof_C 	C 	0.98754	0.84756	0.59111	0.406
Mof_O 	O 	0.96279	0.79868	0.57114	-0.453
Mof_O 	O 	0.02137	0.84032	0.62416	-0.474
Mof_O 	O 	0.83378	0.98356	0.43566	-0.26
Mof_C 	C 	0.85592	0.98747	0.47418	0.334
Mof_O 	O 	0.88033	0.04246	0.49288	-0.221
Mof_C 	C 	0.88114	0.09628	0.46155	-0.125
Mof_H 	H 	0.8961	0.1377	0.4784	0.055
Mof_H 	H 	0.8508	0.1097	0.4442	0.079
Mof_C 	C 	0.90452	0.07353	0.429	0.354
Mof_O 	O 	0.92402	0.01765	0.43405	-0.284
Mof_O 	O 	0.90134	0.11783	0.39827	-0.466
Mof_O 	O 	0.89233	0.65631	0.42478	-0.235
Mof_C 	C 	0.88258	0.60781	0.44253	0.328
Mof_O 	O 	0.90985	0.55948	0.46721	-0.181
Mof_C 	C 	0.95535	0.5673	0.47251	-0.209
Mof_H 	H 	0.9581	0.5881	0.4448	0.173
Mof_H 	H 	0.9692	0.5208	0.4764	0.147
Mof_C 	C 	0.97954	0.61297	0.51286	0.395
Mof_O 	O 	0.95765	0.64422	0.5333	-0.536
Mof_O 	O 	0.01984	0.61538	0.52055	-0.511
Mof_O 	O 	0.8093	0.4756	0.4475	-0.11
Mof_C 	C 	0.82423	0.51565	0.42768	0.283
Mof_O 	O 	0.8265	0.5086	0.3864	-0.081
Mof_C 	C 	0.82	0.4395	0.3672	-0.038
Mof_H 	H 	0.8047	0.4422	0.3343	0.026
Mof_H 	H 	0.802	0.4115	0.3808	0.043
Mof_C 	C 	0.8651	0.4055	0.3767	0.177
Mof_O 	O 	0.8883	0.39973	0.41619	-0.448
Mof_O 	O 	0.87081	0.3817	0.3429	-0.307
Mof_O 	O 	0.86834	0.56894	0.65801	-0.259
Mof_C 	C 	0.87068	0.62965	0.66627	0.331
Mof_O 	O 	0.90687	0.66498	0.68475	-0.189
Mof_C 	C 	0.94799	0.6283	0.69856	-0.193
Mof_H 	H 	0.9425	0.5776	0.696	0.105
Mof_H 	H 	0.9642	0.6391	0.7304	0.118
Mof_C 	C 	0.97522	0.64887	0.66967	0.407
Mof_O 	O 	0.95538	0.67112	0.63078	-0.537
Mof_O 	O 	0.0152	0.63888	0.68702	-0.597
Mof_O 	O 	0.80065	0.6792	0.71336	-0.237
Mof_C 	C 	0.82433	0.70724	0.69677	0.334
Mof_O 	O 	0.847	0.76429	0.71049	-0.204
Mof_C 	C 	0.84787	0.7917	0.75368	-0.176
Mof_H 	H 	0.8192	0.7838	0.7577	0.107
Mof_H 	H 	0.8532	0.8425	0.7545	0.082
Mof_C 	C 	0.88357	0.7568	0.79177	0.411
Mof_O 	O 	0.896	0.69821	0.7848	-0.399
Mof_O 	O 	0.89634	0.78899	0.82852	-0.459
Mof_Zn	Zn	0.98268	0.70253	0.58728	1.189
Mof_Zn	Zn	0.08128	0.89082	0.6582	1.204
Mof_Zn	Zn	0.07069	0.68291	0.5542	1.18
Mof_Zn	Zn	0.06812	0.63607	0.66473	1.15
Mof_O 	O 	0.04642	0.69601	0.60839	-0.796
Mof_O 	O 	0.06954	0.89205	0.71878	-0.444
Mof_O 	O 	0.09071	0.6744	0.4973	-0.444
Mof_C 	C 	0.1283	0.6547	0.4979	0.196
Mof_H 	H 	0.1444	0.6272	0.5229	-0.025
Mof_N 	N 	0.1479	0.668	0.4678	-0.171
Mof_C 	C 	0.1259	0.7138	0.4288	0.14
Mof_H 	H 	0.0939	0.7107	0.4222	0.022
Mof_H 	H 	0.1325	0.6966	0.4021	-0.016
Mof_C 	C 	0.1395	0.7881	0.4366	-0.5
Mof_H 	H 	0.1248	0.8151	0.4094	0.159
Mof_H 	H 	0.1712	0.7915	0.4436	0.169
Mof_H 	H 	0.1314	0.8064	0.4618	0.172
Mof_C 	C 	0.196	0.6505	0.4777	0.146
Mof_H 	H 	0.2129	0.6936	0.4785	-0.021
Mof_H 	H 	0.2077	0.6272	0.5073	-0.002
Mof_C 	C 	0.1997	0.6029	0.4409	-0.518
Mof_H 	H 	0.2303	0.5892	0.4474	0.183
Mof_H 	H 	0.1895	0.6274	0.412	0.182
Mof_H 	H 	0.1818	0.5614	0.4394	0.194
Mof_O 	O 	0.0885	0.5528	0.7183	0.033
Mof_O 	O 	0.03182	0.5489	0.61971	5.438
Mof_C 	C 	0.0236	0.4953	0.6362	-2.476
Mof_H 	H 	0.041	0.4839	0.6661	0.492
Mof_N 	N 	0.9916	0.4519	0.6143	0.534
Mof_C 	C 	0.9582	0.4707	0.5731	-0.865
Mof_H 	H 	0.97	0.5062	0.5574	0.093
Mof_H 	H 	0.9503	0.4293	0.5534	0.321
Mof_C 	C 	0.9188	0.4982	0.5801	-0.211
Mof_H 	H 	0.9051	0.5327	0.5569	0.076
Mof_H 	H 	0.8982	0.4601	0.5784	0.051
Mof_H 	H 	0.9267	0.5201	0.6098	0.131
Mof_C 	C 	0.9893	0.3833	0.6345	-0.787
Mof_H 	H 	0.0087	0.3833	0.6662	0.3
Mof_H 	H 	0.9591	0.3751	0.6342	0.263
Mof_C 	C 	0.0028	0.3244	0.6094	-0.365
Mof_H 	H 	0.0066	0.2816	0.6271	0.09
Mof_H 	H 	0.9801	0.3174	0.5802	0.058
Mof_H 	H 	0.0304	0.3364	0.6048	0.179
Mof_O 	O 	0.812	0.4673	0.444	-0.117
Mof_O 	O 	0.8344	0.5102	0.3898	-0.092
Mof_C 	C 	0.822	0.448	0.3636	-0.1
Mof_H 	H 	0.8207	0.4578	0.3323	0.105
Mof_H 	H 	0.7923	0.4341	0.3628	0.067
Mof_C 	C 	0.8534	0.3875	0.3819	0.234
Mof_O 	O 	0.8365	0.3324	0.3623	-0.387
Mof_H 	H 	0.8533	0.2988	0.3729	0.189
Mof_C 	C 	0.0548	0.9397	0.7361	0.922
Mof_H 	H 	0.0419	0.9782	0.7175	-0.295
Mof_N 	N 	0.0555	0.941	0.7785	-0.294
Mof_C 	C 	0.0812	0.8843	0.81	-0.024
Mof_H 	H 	0.1042	0.8654	0.799	0.071
Mof_H 	H 	0.0952	0.9033	0.8406	0.089
Mof_C 	C 	0.0506	0.8307	0.8108	0.607
Mof_H 	H 	0.0665	0.7887	0.8246	-0.121
Mof_H 	H 	0.032	0.8203	0.78	-0.412
Mof_H 	H 	0.0324	0.8465	0.8284	-0.12
Mof_C 	C 	0.0268	0.9916	0.7928	0.402
Mof_H 	H 	0.0135	0.9682	0.8132	-0.105
Mof_H 	H 	0.003	0.0085	0.7662	-0.09
Mof_C 	C 	0.0547	0.0523	0.8169	-1.072
Mof_H 	H 	0.0365	0.0856	0.8262	0.325
Mof_H 	H 	0.0677	0.0753	0.7966	0.398
Mof_H 	H 	0.078	0.0353	0.8435	0.479
Mof_C 	C 	0.0853	0.9411	0.7461	-0.632
Mof_H 	H 	0.0967	0.9809	0.7358	0.177
Mof_N 	N 	0.0864	0.9388	0.7882	0.004
Mof_C 	C 	0.0524	0.8938	0.7977	-0.03
Mof_H 	H 	0.0676	0.8622	0.8228	-0.202
Mof_H 	H 	0.0333	0.9243	0.8083	0.038
Mof_C 	C 	0.0245	0.8511	0.7606	0.233
Mof_H 	H 	0.0254	0.8694	0.7319	-0.056
Mof_H 	H 	0.9944	0.8524	0.761	-0.085
Mof_H 	H 	0.035	0.803	0.7643	0.201
Mof_C 	C 	0.1037	0.0045	0.8167	0.53
Mof_H 	H 	0.0919	0.0467	0.7989	-0.217
Mof_H 	H 	0.0946	0.0045	0.8437	-0.303
Mof_C 	C 	0.1538	0.0037	0.8304	-0.844
Mof_H 	H 	0.1656	0.0461	0.8473	0.268
Mof_H 	H 	0.1624	0.0015	0.8034	0.27
Mof_H 	H 	0.1652	0.963	0.8494	0.284
Mof_C 	C 	0.0947	0.6152	0.4848	0.12
Mof_H 	H 	0.0987	0.5776	0.5053	0.006
Mof_N 	N 	0.0936	0.6033	0.4433	-0.153
Mof_C 	C 	0.0741	0.6552	0.4078	0.018
Mof_H 	H 	0.0891	0.7001	0.4177	-0.022
Mof_H 	H 	0.0805	0.6408	0.3804	-0.02
Mof_C 	C 	0.0271	0.6672	0.3952	-0.256
Mof_H 	H 	0.0164	0.6884	0.3653	0.19
Mof_H 	H 	0.0212	0.6984	0.4172	0.103
Mof_H 	H 	0.0122	0.6228	0.3948	0.473
Mof_C 	C 	0.1026	0.5301	0.4303	0.093
Mof_H 	H 	0.122	0.5321	0.4117	-0.01
Mof_H 	H 	0.1175	0.5028	0.4577	0.008
Mof_C 	C 	0.0598	0.4956	0.4041	0.009
Mof_H 	H 	0.0656	0.4495	0.3941	-0.105
Mof_H 	H 	0.0445	0.5241	0.3778	0.044
Mof_H 	H 	0.0416	0.4909	0.4233	0.397
Mof_O 	O 	0.0859	0.5417	0.6717	-1.664
Mof_C 	C 	0.0635	0.5093	0.6388	3.771
Mof_H 	H 	0.0417	0.5317	0.6148	-5.35
Mof_O 	O 	0.0712	0.4404	0.6378	-0.774
Mof_C 	C 	0.64248	0.29037	0.93191	0.015
Mof_C 	C 	0.64722	0.22273	0.91555	-0.012
Mof_C 	C 	0.65075	0.16549	0.94356	0.006
Mof_C 	C 	0.64708	0.174	0.98713	-0.022
Mof_C 	C 	0.85746	0.25971	0.99719	0.01
Mof_C 	C 	0.63901	0.29881	0.97443	-0.015
Mof_C 	C 	0.84332	0.13928	0.99702	0.048
Mof_C 	C 	0.68415	0.41339	0.98392	0.043
Mof_C 	C 	0.68999	0.39467	0.94052	-0.021
Mof_C 	C 	0.66862	0.33854	0.91484	0.006
Mof_C 	C 	0.68863	0.30032	0.8884	-0.02
Mof_C 	C 	0.67177	0.22804	0.88366	0.05
Mof_C 	C 	0.7062	0.16666	0.88594	0.05
Mof_C 	C 	0.71041	0.11289	0.92082	-0.017
Mof_C 	C 	0.6828	0.11016	0.94615	0.008
Mof_C 	C 	0.69847	0.08538	0.99129	-0.027
Mof_C 	C 	0.67275	0.11832	0.01683	0.048
Mof_C 	C 	0.80126	0.35828	0.9322	0.046
Mof_C 	C 	0.80493	0.28416	0.92104	-0.008
Mof_C 	C 	0.83276	0.23836	0.95074	0.017
Mof_C 	C 	0.82171	0.1673	0.95118	-0.01
Mof_C 	C 	0.78101	0.14421	0.92389	0.019
Mof_C 	C 	0.75557	0.09559	0.94109	0.016
Mof_C 	C 	0.77104	0.071	0.98505	-0.029
Mof_C 	C 	0.74219	0.06806	0.01074	0.017
Mof_C 	C 	0.73353	0.41074	0.94269	0.001
Mof_C 	C 	0.75367	0.37349	0.91664	-0.022
Mof_C 	C 	0.73102	0.31625	0.89038	0.006
Mof_C 	C 	0.76303	0.26028	0.89274	0.011
Mof_C 	C 	0.75173	0.1905	0.89298	-0.013
Mof_C 	C 	0.64101	0.43415	0.99021	-0.165
Mof_C 	C 	0.66249	0.08876	0.05657	-0.149
Mof_C 	C 	0.6676	0.17965	0.84501	-0.156
Mof_O 	O 	0.59905	0.4541	0.91194	-0.272
Mof_C 	C 	0.60028	0.43954	0.94927	0.329
Mof_O 	O 	0.56615	0.42309	0.96186	-0.186
Mof_C 	C 	0.52419	0.42067	0.92667	-0.193
Mof_H 	H 	0.5248	0.4514	0.9017	0.095
Mof_H 	H 	0.5014	0.4383	0.9385	0.099
Mof_C 	C 	0.51246	0.34756	0.90889	0.405
Mof_O 	O 	0.53721	0.29868	0.92886	-0.453
Mof_O 	O 	0.47863	0.34032	0.87584	-0.474
Mof_O 	O 	0.66622	0.48356	0.06434	-0.26
Mof_C 	C 	0.64408	0.48747	0.02582	0.335
Mof_O 	O 	0.61967	0.54246	0.00712	-0.221
Mof_C 	C 	0.61886	0.59628	0.03845	-0.125
Mof_H 	H 	0.6039	0.6377	0.0216	0.055
Mof_H 	H 	0.6492	0.6097	0.0558	0.078
Mof_C 	C 	0.59548	0.57353	0.071	0.353
Mof_O 	O 	0.57598	0.51765	0.06595	-0.284
Mof_O 	O 	0.59866	0.61783	0.10173	-0.466
Mof_O 	O 	0.60767	0.15631	0.07522	-0.235
Mof_C 	C 	0.61742	0.10781	0.05747	0.329
Mof_O 	O 	0.59015	0.05948	0.03279	-0.18
Mof_C 	C 	0.54465	0.0673	0.02749	-0.206
Mof_H 	H 	0.5419	0.0881	0.0552	0.173
Mof_H 	H 	0.5308	0.0208	0.0236	0.148
Mof_C 	C 	0.52046	0.11297	0.98714	0.393
Mof_O 	O 	0.54235	0.14422	0.9667	-0.536
Mof_O 	O 	0.48016	0.11538	0.97945	-0.511
Mof_O 	O 	0.6907	0.9756	0.0525	-0.111
Mof_C 	C 	0.67577	0.01565	0.07232	0.287
Mof_O 	O 	0.6735	0.0086	0.1136	-0.081
Mof_C 	C 	0.68	0.9395	0.1328	-0.039
Mof_H 	H 	0.6953	0.9422	0.1657	0.026
Mof_H 	H 	0.698	0.9115	0.1192	0.043
Mof_C 	C 	0.6349	0.9055	0.1233	0.177
Mof_O 	O 	0.6117	0.89973	0.08381	-0.448
Mof_O 	O 	0.62919	0.8817	0.1571	-0.307
Mof_O 	O 	0.63166	0.06894	0.84199	-0.26
Mof_C 	C 	0.62932	0.12965	0.83373	0.331
Mof_O 	O 	0.59313	0.16498	0.81525	-0.189
Mof_C 	C 	0.55201	0.1283	0.80144	-0.193
Mof_H 	H 	0.5575	0.0776	0.804	0.104
Mof_H 	H 	0.5358	0.1391	0.7696	0.118
Mof_C 	C 	0.52478	0.14887	0.83033	0.406
Mof_O 	O 	0.54462	0.17112	0.86922	-0.537
Mof_O 	O 	0.4848	0.13888	0.81298	-0.598
Mof_O 	O 	0.69935	0.1792	0.78664	-0.237
Mof_C 	C 	0.67567	0.20724	0.80323	0.334
Mof_O 	O 	0.653	0.26429	0.78951	-0.204
Mof_C 	C 	0.65213	0.2917	0.74632	-0.176
Mof_H 	H 	0.6808	0.2838	0.7423	0.107
Mof_H 	H 	0.6468	0.3425	0.7455	0.082
Mof_C 	C 	0.61643	0.2568	0.70823	0.411
Mof_O 	O 	0.604	0.19821	0.7152	-0.399
Mof_O 	O 	0.60366	0.28899	0.67148	-0.459
Mof_Zn	Zn	0.51732	0.20253	0.91272	1.188
Mof_Zn	Zn	0.41872	0.39082	0.8418	1.204
Mof_Zn	Zn	0.42931	0.18291	0.9458	1.18
Mof_Zn	Zn	0.43188	0.13607	0.83527	1.15
Mof_O 	O 	0.45358	0.19601	0.89161	-0.797
Mof_O 	O 	0.43046	0.39205	0.78122	-0.444
Mof_O 	O 	0.40929	0.1744	0.0027	-0.445
Mof_C 	C 	0.3717	0.1547	0.0021	0.197
Mof_H 	H 	0.3556	0.1272	0.9771	-0.027
Mof_N 	N 	0.3521	0.168	0.0322	-0.172
Mof_C 	C 	0.3741	0.2138	0.0712	0.141
Mof_H 	H 	0.4061	0.2107	0.0778	0.021
Mof_H 	H 	0.3675	0.1966	0.0979	-0.016
Mof_C 	C 	0.3605	0.2881	0.0634	-0.501
Mof_H 	H 	0.3752	0.3151	0.0906	0.159
Mof_H 	H 	0.3288	0.2915	0.0564	0.17
Mof_H 	H 	0.3686	0.3064	0.0382	0.173
Mof_C 	C 	0.304	0.1505	0.0223	0.153
Mof_H 	H 	0.2871	0.1936	0.0215	-0.023
Mof_H 	H 	0.2923	0.1272	0.9927	-0.005
Mof_C 	C 	0.3003	0.1029	0.0591	-0.524
Mof_H 	H 	0.2697	0.0892	0.0526	0.185
Mof_H 	H 	0.3105	0.1274	0.088	0.184
Mof_H 	H 	0.3182	0.0614	0.0606	0.196
Mof_O 	O 	0.4115	0.0528	0.7817	0.033
Mof_O 	O 	0.46818	0.0489	0.88029	5.463
Mof_C 	C 	0.4764	0.9953	0.8638	-2.48
Mof_H 	H 	0.459	0.9839	0.8339	0.492
Mof_N 	N 	0.5084	0.9519	0.8857	0.531
Mof_C 	C 	0.5418	0.9707	0.9269	-0.828
Mof_H 	H 	0.53	0.0062	0.9426	0.089
Mof_H 	H 	0.5497	0.9293	0.9466	0.309
Mof_C 	C 	0.5812	0.9982	0.9199	-0.22
Mof_H 	H 	0.5949	0.0327	0.9431	0.077
Mof_H 	H 	0.6018	0.9601	0.9216	0.053
Mof_H 	H 	0.5733	0.0201	0.8902	0.131
Mof_C 	C 	0.5107	0.8833	0.8655	-0.784
Mof_H 	H 	0.4913	0.8833	0.8338	0.299
Mof_H 	H 	0.5409	0.8751	0.8658	0.263
Mof_C 	C 	0.4972	0.8244	0.8906	-0.364
Mof_H 	H 	0.4934	0.7816	0.8729	0.09
Mof_H 	H 	0.5199	0.8174	0.9198	0.057
Mof_H 	H 	0.4696	0.8364	0.8952	0.179
Mof_O 	O 	0.688	0.9673	0.056	-0.118
Mof_O 	O 	0.6656	0.0102	0.1102	-0.092
Mof_C 	C 	0.678	0.948	0.1364	-0.1
Mof_H 	H 	0.6793	0.9578	0.1677	0.104
Mof_H 	H 	0.7077	0.9341	0.1372	0.066
Mof_C 	C 	0.6466	0.8875	0.1181	0.234
Mof_O 	O 	0.6635	0.8324	0.1377	-0.387
Mof_H 	H 	0.6467	0.7988	0.1271	0.189
Mof_C 	C 	0.4452	0.4397	0.7639	0.92
Mof_H 	H 	0.4581	0.4782	0.7825	-0.294
Mof_N 	N 	0.4445	0.441	0.7215	-0.292
Mof_C 	C 	0.4188	0.3843	0.69	-0.027
Mof_H 	H 	0.3958	0.3654	0.701	0.071
Mof_H 	H 	0.4048	0.4033	0.6594	0.089
Mof_C 	C 	0.4494	0.3307	0.6892	0.609
Mof_H 	H 	0.4335	0.2887	0.6754	-0.122
Mof_H 	H 	0.468	0.3203	0.72	-0.414
Mof_H 	H 	0.4676	0.3465	0.6716	-0.121
Mof_C 	C 	0.4732	0.4916	0.7072	0.391
Mof_H 	H 	0.4865	0.4682	0.6868	-0.102
Mof_H 	H 	0.497	0.5085	0.7338	-0.085
Mof_C 	C 	0.4453	0.5523	0.6831	-1.055
Mof_H 	H 	0.4635	0.5856	0.6738	0.321
Mof_H 	H 	0.4323	0.5753	0.7034	0.392
Mof_H 	H 	0.422	0.5353	0.6565	0.472
Mof_C 	C 	0.4147	0.4411	0.7539	-0.63
Mof_H 	H 	0.4033	0.4809	0.7642	0.177
Mof_N 	N 	0.4136	0.4388	0.7118	0.004
Mof_C 	C 	0.4476	0.3938	0.7023	-0.029
Mof_H 	H 	0.4324	0.3622	0.6772	-0.202
Mof_H 	H 	0.4667	0.4243	0.6917	0.039
Mof_C 	C 	0.4755	0.3511	0.7394	0.234
Mof_H 	H 	0.4746	0.3694	0.7681	-0.056
Mof_H 	H 	0.5056	0.3524	0.739	-0.085
Mof_H 	H 	0.465	0.303	0.7357	0.202
Mof_C 	C 	0.3963	0.5045	0.6833	0.522
Mof_H 	H 	0.4081	0.5467	0.7011	-0.213
Mof_H 	H 	0.4054	0.5045	0.6563	-0.296
Mof_C 	C 	0.3462	0.5037	0.6696	-0.831
Mof_H 	H 	0.3344	0.5461	0.6527	0.265
Mof_H 	H 	0.3376	0.5015	0.6966	0.267
Mof_H 	H 	0.3348	0.463	0.6506	0.28
Mof_C 	C 	0.4053	0.1152	0.0152	0.126
Mof_H 	H 	0.4013	0.0776	0.9947	0.002
Mof_N 	N 	0.4064	0.1033	0.0567	-0.155
Mof_C 	C 	0.4259	0.1552	0.0922	0.019
Mof_H 	H 	0.4109	0.2001	0.0823	-0.022
Mof_H 	H 	0.4195	0.1408	0.1196	-0.021
Mof_C 	C 	0.4729	0.1672	0.1048	-0.256
Mof_H 	H 	0.4836	0.1884	0.1347	0.189
Mof_H 	H 	0.4788	0.1984	0.0828	0.103
Mof_H 	H 	0.4878	0.1228	0.1052	0.471
Mof_C 	C 	0.3974	0.0301	0.0697	0.094
Mof_H 	H 	0.378	0.0321	0.0883	-0.01
Mof_H 	H 	0.3825	0.0028	0.0423	0.01
Mof_C 	C 	0.4402	0.9956	0.0959	0.013
Mof_H 	H 	0.4344	0.9495	0.1059	-0.105
Mof_H 	H 	0.4555	0.0241	0.1222	0.042
Mof_H 	H 	0.4584	0.9909	0.0767	0.379
Mof_O 	O 	0.4141	0.0417	0.8283	-1.668
Mof_C 	C 	0.4365	0.0093	0.8612	3.78
Mof_H 	H 	0.4583	0.0317	0.8852	-5.374
Mof_O 	O 	0.4288	0.9404	0.8622	-0.775
Mof_C 	C 	0.14248	0.79037	0.93191	0.012
Mof_C 	C 	0.14722	0.72273	0.91555	-0.01
Mof_C 	C 	0.15075	0.66549	0.94356	0.004
Mof_C 	C 	0.14708	0.674	0.98713	-0.015
Mof_C 	C 	0.35746	0.75971	0.99719	0.017
Mof_C 	C 	0.13901	0.79881	0.97443	-0.008
Mof_C 	C 	0.34332	0.63928	0.99702	0.055
Mof_C 	C 	0.18415	0.91339	0.98392	0.047
Mof_C 	C 	0.18999	0.89467	0.94052	-0.021
Mof_C 	C 	0.16862	0.83854	0.91484	0.007
Mof_C 	C 	0.18863	0.80032	0.8884	-0.02
Mof_C 	C 	0.17177	0.72804	0.88366	0.049
Mof_C 	C 	0.2062	0.66666	0.88594	0.05
Mof_C 	C 	0.21041	0.61289	0.92082	-0.015
Mof_C 	C 	0.1828	0.61016	0.94615	0.006
Mof_C 	C 	0.19847	0.58538	0.99129	-0.02
Mof_C 	C 	0.17275	0.61832	0.01683	0.041
Mof_C 	C 	0.30126	0.85828	0.9322	0.045
Mof_C 	C 	0.30493	0.78416	0.92104	-0.007
Mof_C 	C 	0.33276	0.73836	0.95074	0.016
Mof_C 	C 	0.32171	0.6673	0.95118	-0.012
Mof_C 	C 	0.28101	0.64421	0.92389	0.02
Mof_C 	C 	0.25557	0.59559	0.94109	0.013
Mof_C 	C 	0.27104	0.571	0.98505	-0.022
Mof_C 	C 	0.24219	0.56806	0.01074	0.01
Mof_C 	C 	0.23353	0.91074	0.94269	-0.001
Mof_C 	C 	0.25367	0.87349	0.91664	-0.021
Mof_C 	C 	0.23102	0.81625	0.89038	0.005
Mof_C 	C 	0.26303	0.76028	0.89274	0.011
Mof_C 	C 	0.25173	0.6905	0.89298	-0.013
Mof_C 	C 	0.14101	0.93415	0.99021	-0.161
Mof_C 	C 	0.16249	0.58876	0.05657	-0.147
Mof_C 	C 	0.1676	0.67965	0.84501	-0.155
Mof_O 	O 	0.09905	0.9541	0.91194	-0.271
Mof_C 	C 	0.10028	0.93954	0.94927	0.327
Mof_O 	O 	0.06615	0.92309	0.96186	-0.185
Mof_C 	C 	0.02419	0.92067	0.92667	-0.193
Mof_H 	H 	0.0248	0.9514	0.9017	0.095
Mof_H 	H 	0.0014	0.9383	0.9385	0.099
Mof_C 	C 	0.01246	0.84756	0.90889	0.405
Mof_O 	O 	0.03721	0.79868	0.92886	-0.453
Mof_O 	O 	0.97863	0.84032	0.87584	-0.473
Mof_O 	O 	0.16622	0.98356	0.06434	-0.259
Mof_C 	C 	0.14408	0.98747	0.02582	0.329
Mof_O 	O 	0.11967	0.04246	0.00712	-0.218
Mof_C 	C 	0.11886	0.09628	0.03845	-0.126
Mof_H 	H 	0.1039	0.1377	0.0216	0.056
Mof_H 	H 	0.1492	0.1097	0.0558	0.079
Mof_C 	C 	0.09548	0.07353	0.071	0.354
Mof_O 	O 	0.07598	0.01765	0.06595	-0.283
Mof_O 	O 	0.09866	0.11783	0.10173	-0.466
Mof_O 	O 	0.10767	0.65631	0.07522	-0.235
Mof_C 	C 	0.11742	0.60781	0.05747	0.328
Mof_O 	O 	0.09015	0.55948	0.03279	-0.181
Mof_C 	C 	0.04465	0.5673	0.02749	-0.209
Mof_H 	H 	0.0419	0.5881	0.0552	0.173
Mof_H 	H 	0.0308	0.5208	0.0236	0.147
Mof_C 	C 	0.02046	0.61297	0.98714	0.394
Mof_O 	O 	0.04235	0.64422	0.9667	-0.536
Mof_O 	O 	0.98016	0.61538	0.97945	-0.51
Mof_O 	O 	0.1907	0.4756	0.0525	-0.11
Mof_C 	C 	0.17577	0.51565	0.07232	0.283
Mof_O 	O 	0.1735	0.5086	0.1136	-0.081
Mof_C 	C 	0.18	0.4395	0.1328	-0.038
Mof_H 	H 	0.1953	0.4422	0.1657	0.026
Mof_H 	H 	0.198	0.4115	0.1192	0.043
Mof_C 	C 	0.1349	0.4055	0.1233	0.177
Mof_O 	O 	0.1117	0.39973	0.08381	-0.448
Mof_O 	O 	0.12919	0.3817	0.1571	-0.307
Mof_O 	O 	0.13166	0.56894	0.84199	-0.259
Mof_C 	C 	0.12932	0.62965	0.83373	0.331
Mof_O 	O 	0.09313	0.66498	0.81525	-0.189
Mof_C 	C 	0.05201	0.6283	0.80144	-0.193
Mof_H 	H 	0.0575	0.5776	0.804	0.104
Mof_H 	H 	0.0358	0.6391	0.7696	0.118
Mof_C 	C 	0.02478	0.64887	0.83033	0.406
Mof_O 	O 	0.04462	0.67112	0.86922	-0.537
Mof_O 	O 	0.9848	0.63888	0.81298	-0.597
Mof_O 	O 	0.19935	0.6792	0.78664	-0.237
Mof_C 	C 	0.17567	0.70724	0.80323	0.334
Mof_O 	O 	0.153	0.76429	0.78951	-0.204
Mof_C 	C 	0.15213	0.7917	0.74632	-0.176
Mof_H 	H 	0.1808	0.7838	0.7423	0.107
Mof_H 	H 	0.1468	0.8425	0.7455	0.082
Mof_C 	C 	0.11643	0.7568	0.70823	0.411
Mof_O 	O 	0.104	0.69821	0.7152	-0.399
Mof_O 	O 	0.10366	0.78899	0.67148	-0.459
Mof_Zn	Zn	0.01732	0.70253	0.91272	1.189
Mof_Zn	Zn	0.91872	0.89082	0.8418	1.204
Mof_Zn	Zn	0.92931	0.68291	0.9458	1.181
Mof_Zn	Zn	0.93188	0.63607	0.83527	1.15
Mof_O 	O 	0.95358	0.69601	0.89161	-0.796
Mof_O 	O 	0.93046	0.89205	0.78122	-0.444
Mof_O 	O 	0.90929	0.6744	0.0027	-0.444
Mof_C 	C 	0.8717	0.6547	0.0021	0.194
Mof_H 	H 	0.8556	0.6272	0.9771	-0.024
Mof_N 	N 	0.8521	0.668	0.0322	-0.17
Mof_C 	C 	0.8741	0.7138	0.0712	0.138
Mof_H 	H 	0.9061	0.7107	0.0778	0.023
Mof_H 	H 	0.8675	0.6966	0.0979	-0.015
Mof_C 	C 	0.8605	0.7881	0.0634	-0.497
Mof_H 	H 	0.8752	0.8151	0.0906	0.158
Mof_H 	H 	0.8288	0.7915	0.0564	0.168
Mof_H 	H 	0.8686	0.8064	0.0382	0.17
Mof_C 	C 	0.804	0.6505	0.0223	0.143
Mof_H 	H 	0.7871	0.6936	0.0215	-0.021
Mof_H 	H 	0.7923	0.6272	0.9927	-0
Mof_C 	C 	0.8003	0.6029	0.0591	-0.516
Mof_H 	H 	0.7697	0.5892	0.0526	0.182
Mof_H 	H 	0.8105	0.6274	0.088	0.182
Mof_H 	H 	0.8182	0.5614	0.0606	0.193
Mof_O 	O 	0.9115	0.5528	0.7817	0.033
Mof_O 	O 	0.96818	0.5489	0.88029	5.439
Mof_C 	C 	0.9764	0.4953	0.8638	-2.476
Mof_H 	H 	0.959	0.4839	0.8339	0.492
Mof_N 	N 	0.0084	0.4519	0.8857	0.534
Mof_C 	C 	0.0418	0.4707	0.9269	-0.864
Mof_H 	H 	0.03	0.5062	0.9426	0.093
Mof_H 	H 	0.0497	0.4293	0.9466	0.321
Mof_C 	C 	0.0812	0.4982	0.9199	-0.211
Mof_H 	H 	0.0949	0.5327	0.9431	0.076
Mof_H 	H 	0.1018	0.4601	0.9216	0.051
Mof_H 	H 	0.0733	0.5201	0.8902	0.131
Mof_C 	C 	0.0107	0.3833	0.8655	-0.788
Mof_H 	H 	0.9913	0.3833	0.8338	0.301
Mof_H 	H 	0.0409	0.3751	0.8658	0.263
Mof_C 	C 	0.9972	0.3244	0.8906	-0.371
Mof_H 	H 	0.9934	0.2816	0.8729	0.092
Mof_H 	H 	0.0199	0.3174	0.9198	0.057
Mof_H 	H 	0.9696	0.3364	0.8952	0.181
Mof_O 	O 	0.188	0.4673	0.056	-0.117
Mof_O 	O 	0.1656	0.5102	0.1102	-0.092
Mof_C 	C 	0.178	0.448	0.1364	-0.1
Mof_H 	H 	0.1793	0.4578	0.1677	0.105
Mof_H 	H 	0.2077	0.4341	0.1372	0.067
Mof_C 	C 	0.1466	0.3875	0.1181	0.234
Mof_O 	O 	0.1635	0.3324	0.1377	-0.387
Mof_H 	H 	0.1467	0.2988	0.1271	0.189
Mof_C 	C 	0.9452	0.9397	0.7639	0.922
Mof_H 	H 	0.9581	0.9782	0.7825	-0.294
Mof_N 	N 	0.9445	0.941	0.7215	-0.293
Mof_C 	C 	0.9188	0.8843	0.69	-0.026
Mof_H 	H 	0.8958	0.8654	0.701	0.071
Mof_H 	H 	0.9048	0.9033	0.6594	0.089
Mof_C 	C 	0.9494	0.8307	0.6892	0.608
Mof_H 	H 	0.9335	0.7887	0.6754	-0.122
Mof_H 	H 	0.968	0.8203	0.72	-0.413
Mof_H 	H 	0.9676	0.8465	0.6716	-0.12
Mof_C 	C 	0.9732	0.9916	0.7072	0.395
Mof_H 	H 	0.9865	0.9682	0.6868	-0.103
Mof_H 	H 	0.997	0.0085	0.7338	-0.086
Mof_C 	C 	0.9453	0.0523	0.6831	-1.062
Mof_H 	H 	0.9635	0.0856	0.6738	0.323
Mof_H 	H 	0.9323	0.0753	0.7034	0.395
Mof_H 	H 	0.922	0.0353	0.6565	0.475
Mof_C 	C 	0.9147	0.9411	0.7539	-0.631
Mof_H 	H 	0.9033	0.9809	0.7642	0.177
Mof_N 	N 	0.9136	0.9388	0.7118	0.004
Mof_C 	C 	0.9476	0.8938	0.7023	-0.03
Mof_H 	H 	0.9324	0.8622	0.6772	-0.202
Mof_H 	H 	0.9667	0.9243	0.6917	0.039
Mof_C 	C 	0.9755	0.8511	0.7394	0.235
Mof_H 	H 	0.9746	0.8694	0.7681	-0.057
Mof_H 	H 	0.0056	0.8524	0.739	-0.085
Mof_H 	H 	0.965	0.803	0.7357	0.201
Mof_C 	C 	0.8963	0.0045	0.6833	0.524
Mof_H 	H 	0.9081	0.0467	0.7011	-0.215
Mof_H 	H 	0.9054	0.0045	0.6563	-0.299
Mof_C 	C 	0.8462	0.0037	0.6696	-0.836
Mof_H 	H 	0.8344	0.0461	0.6527	0.266
Mof_H 	H 	0.8376	0.0015	0.6966	0.268
Mof_H 	H 	0.8348	0.963	0.6506	0.281
Mof_C 	C 	0.9053	0.6152	0.0152	0.119
Mof_H 	H 	0.9013	0.5776	0.9947	0.007
Mof_N 	N 	0.9064	0.6033	0.0567	-0.153
Mof_C 	C 	0.9259	0.6552	0.0922	0.014
Mof_H 	H 	0.9109	0.7001	0.0823	-0.022
Mof_H 	H 	0.9195	0.6408	0.1196	-0.019
Mof_C 	C 	0.9729	0.6672	0.1048	-0.247
Mof_H 	H 	0.9836	0.6884	0.1347	0.187
Mof_H 	H 	0.9788	0.6984	0.0828	0.102
Mof_H 	H 	0.9878	0.6228	0.1052	0.471
Mof_C 	C 	0.8974	0.5301	0.0697	0.093
Mof_H 	H 	0.878	0.5321	0.0883	-0.01
Mof_H 	H 	0.8825	0.5028	0.0423	0.008
Mof_C 	C 	0.9402	0.4956	0.0959	0.009
Mof_H 	H 	0.9344	0.4495	0.1059	-0.105
Mof_H 	H 	0.9555	0.5241	0.1222	0.044
Mof_H 	H 	0.9584	0.4909	0.0767	0.397
Mof_O 	O 	0.9141	0.5417	0.8283	-1.664
Mof_C 	C 	0.9365	0.5093	0.8612	3.771
Mof_H 	H 	0.9583	0.5317	0.8852	-5.35
Mof_O 	O 	0.9288	0.4404	0.8622	-0.774
Mof_C 	C 	0.64248	0.70963	0.43191	0.013
Mof_C 	C 	0.64722	0.77727	0.41555	-0.011
Mof_C 	C 	0.65075	0.83451	0.44356	0.005
Mof_C 	C 	0.64708	0.826	0.48713	-0.017
Mof_C 	C 	0.85746	0.74029	0.49719	0.012
Mof_C 	C 	0.63901	0.70119	0.47443	-0.012
Mof_C 	C 	0.84332	0.86072	0.49702	0.053
Mof_C 	C 	0.68415	0.58661	0.48392	0.043
Mof_C 	C 	0.68999	0.60533	0.44052	-0.021
Mof_C 	C 	0.66862	0.66146	0.41484	0.006
Mof_C 	C 	0.68863	0.69968	0.3884	-0.02
Mof_C 	C 	0.67177	0.77196	0.38366	0.05
Mof_C 	C 	0.7062	0.83334	0.38594	0.05
Mof_C 	C 	0.71041	0.88711	0.42082	-0.015
Mof_C 	C 	0.6828	0.88984	0.44615	0.006
Mof_C 	C 	0.69847	0.91462	0.49129	-0.02
Mof_C 	C 	0.67275	0.88168	0.51683	0.042
Mof_C 	C 	0.80126	0.64172	0.4322	0.046
Mof_C 	C 	0.80493	0.71584	0.42104	-0.008
Mof_C 	C 	0.83276	0.76164	0.45074	0.017
Mof_C 	C 	0.82171	0.8327	0.45118	-0.012
Mof_C 	C 	0.78101	0.85579	0.42389	0.02
Mof_C 	C 	0.75557	0.90441	0.44109	0.013
Mof_C 	C 	0.77104	0.929	0.48505	-0.023
Mof_C 	C 	0.74219	0.93194	0.51074	0.01
Mof_C 	C 	0.73353	0.58926	0.44269	0.001
Mof_C 	C 	0.75367	0.62651	0.41664	-0.022
Mof_C 	C 	0.73102	0.68375	0.39038	0.006
Mof_C 	C 	0.76303	0.73972	0.39274	0.012
Mof_C 	C 	0.75173	0.8095	0.39298	-0.013
Mof_C 	C 	0.64101	0.56585	0.49021	-0.164
Mof_C 	C 	0.66249	0.91124	0.55657	-0.148
Mof_C 	C 	0.6676	0.82035	0.34501	-0.156
Mof_O 	O 	0.59905	0.5459	0.41194	-0.272
Mof_C 	C 	0.60028	0.56046	0.44927	0.329
Mof_O 	O 	0.56615	0.57691	0.46186	-0.186
Mof_C 	C 	0.52419	0.57933	0.42667	-0.193
Mof_H 	H 	0.5248	0.5486	0.4017	0.095
Mof_H 	H 	0.5014	0.5617	0.4385	0.099
Mof_C 	C 	0.51246	0.65244	0.40889	0.405
Mof_O 	O 	0.53721	0.70132	0.42886	-0.453
Mof_O 	O 	0.47863	0.65968	0.37584	-0.474
Mof_O 	O 	0.66622	0.51644	0.56434	-0.26
Mof_C 	C 	0.64408	0.51253	0.52582	0.335
Mof_O 	O 	0.61967	0.45754	0.50712	-0.221
Mof_C 	C 	0.61886	0.40372	0.53845	-0.125
Mof_H 	H 	0.6039	0.3623	0.5216	0.055
Mof_H 	H 	0.6492	0.3903	0.5558	0.079
Mof_C 	C 	0.59548	0.42647	0.571	0.353
Mof_O 	O 	0.57598	0.48235	0.56595	-0.284
Mof_O 	O 	0.59866	0.38217	0.60173	-0.466
Mof_O 	O 	0.60767	0.84369	0.57522	-0.235
Mof_C 	C 	0.61742	0.89219	0.55747	0.329
Mof_O 	O 	0.59015	0.94052	0.53279	-0.181
Mof_C 	C 	0.54465	0.9327	0.52749	-0.209
Mof_H 	H 	0.5419	0.9119	0.5552	0.173
Mof_H 	H 	0.5308	0.9792	0.5236	0.147
Mof_C 	C 	0.52046	0.88703	0.48714	0.395
Mof_O 	O 	0.54235	0.85578	0.4667	-0.536
Mof_O 	O 	0.48016	0.88462	0.47945	-0.511
Mof_O 	O 	0.6907	0.0244	0.5525	-0.11
Mof_C 	C 	0.67577	0.98435	0.57232	0.283
Mof_O 	O 	0.6735	0.9914	0.6136	-0.081
Mof_C 	C 	0.68	0.0605	0.6328	-0.039
Mof_H 	H 	0.6953	0.0578	0.6657	0.026
Mof_H 	H 	0.698	0.0885	0.6192	0.043
Mof_C 	C 	0.6349	0.0945	0.6233	0.177
Mof_O 	O 	0.6117	0.10027	0.58381	-0.448
Mof_O 	O 	0.62919	0.1183	0.6571	-0.307
Mof_O 	O 	0.63166	0.93106	0.34199	-0.26
Mof_C 	C 	0.62932	0.87035	0.33373	0.331
Mof_O 	O 	0.59313	0.83502	0.31525	-0.189
Mof_C 	C 	0.55201	0.8717	0.30144	-0.193
Mof_H 	H 	0.5575	0.9224	0.304	0.104
Mof_H 	H 	0.5358	0.8609	0.2696	0.118
Mof_C 	C 	0.52478	0.85113	0.33033	0.406
Mof_O 	O 	0.54462	0.82888	0.36922	-0.537
Mof_O 	O 	0.4848	0.86112	0.31298	-0.597
Mof_O 	O 	0.69935	0.8208	0.28664	-0.237
Mof_C 	C 	0.67567	0.79276	0.30323	0.334
Mof_O 	O 	0.653	0.73571	0.28951	-0.204
Mof_C 	C 	0.65213	0.7083	0.24632	-0.176
Mof_H 	H 	0.6808	0.7162	0.2423	0.107
Mof_H 	H 	0.6468	0.6575	0.2455	0.082
Mof_C 	C 	0.61643	0.7432	0.20823	0.411
Mof_O 	O 	0.604	0.80179	0.2152	-0.399
Mof_O 	O 	0.60366	0.71101	0.17148	-0.459
Mof_Zn	Zn	0.51732	0.79747	0.41272	1.189
Mof_Zn	Zn	0.41872	0.60918	0.3418	1.204
Mof_Zn	Zn	0.42931	0.81709	0.4458	1.18
Mof_Zn	Zn	0.43188	0.86393	0.33527	1.15
Mof_O 	O 	0.45358	0.80399	0.39161	-0.796
Mof_O 	O 	0.43046	0.60795	0.28122	-0.444
Mof_O 	O 	0.40929	0.8256	0.5027	-0.444
Mof_C 	C 	0.3717	0.8453	0.5021	0.196
Mof_H 	H 	0.3556	0.8728	0.4771	-0.025
Mof_N 	N 	0.3521	0.832	0.5322	-0.171
Mof_C 	C 	0.3741	0.7862	0.5712	0.14
Mof_H 	H 	0.4061	0.7893	0.5778	0.022
Mof_H 	H 	0.3675	0.8034	0.5979	-0.016
Mof_C 	C 	0.3605	0.7119	0.5634	-0.5
Mof_H 	H 	0.3752	0.6849	0.5906	0.159
Mof_H 	H 	0.3288	0.7085	0.5564	0.169
Mof_H 	H 	0.3686	0.6936	0.5382	0.172
Mof_C 	C 	0.304	0.8495	0.5223	0.146
Mof_H 	H 	0.2871	0.8064	0.5215	-0.021
Mof_H 	H 	0.2923	0.8728	0.4927	-0.002
Mof_C 	C 	0.3003	0.8971	0.5591	-0.518
Mof_H 	H 	0.2697	0.9108	0.5526	0.183
Mof_H 	H 	0.3105	0.8726	0.588	0.183
Mof_H 	H 	0.3182	0.9386	0.5606	0.194
Mof_O 	O 	0.4115	0.9472	0.2817	0.033
Mof_O 	O 	0.46818	0.9511	0.38029	5.449
Mof_C 	C 	0.4764	0.0047	0.3638	-2.479
Mof_H 	H 	0.459	0.0161	0.3339	0.492
Mof_N 	N 	0.5084	0.0481	0.3857	0.534
Mof_C 	C 	0.5418	0.0293	0.4269	-0.857
Mof_H 	H 	0.53	0.9938	0.4426	0.092
Mof_H 	H 	0.5497	0.0707	0.4466	0.319
Mof_C 	C 	0.5812	0.0018	0.4199	-0.213
Mof_H 	H 	0.5949	0.9673	0.4431	0.077
Mof_H 	H 	0.6018	0.0399	0.4216	0.051
Mof_H 	H 	0.5733	0.9799	0.3902	0.131
Mof_C 	C 	0.5107	0.1167	0.3655	-0.787
Mof_H 	H 	0.4913	0.1167	0.3338	0.3
Mof_H 	H 	0.5409	0.1249	0.3658	0.264
Mof_C 	C 	0.4972	0.1756	0.3906	-0.365
Mof_H 	H 	0.4934	0.2184	0.3729	0.09
Mof_H 	H 	0.5199	0.1826	0.4198	0.058
Mof_H 	H 	0.4696	0.1636	0.3952	0.179
Mof_O 	O 	0.688	0.0327	0.556	-0.117
Mof_O 	O 	0.6656	0.9898	0.6102	-0.092
Mof_C 	C 	0.678	0.052	0.6364	-0.1
Mof_H 	H 	0.6793	0.0422	0.6677	0.104
Mof_H 	H 	0.7077	0.0659	0.6372	0.067
Mof_C 	C 	0.6466	0.1125	0.6181	0.234
Mof_O 	O 	0.6635	0.1676	0.6377	-0.387
Mof_H 	H 	0.6467	0.2012	0.6271	0.189
Mof_C 	C 	0.4452	0.5603	0.2639	0.92
Mof_H 	H 	0.4581	0.5218	0.2825	-0.294
Mof_N 	N 	0.4445	0.559	0.2215	-0.292
Mof_C 	C 	0.4188	0.6157	0.19	-0.027
Mof_H 	H 	0.3958	0.6346	0.201	0.071
Mof_H 	H 	0.4048	0.5967	0.1594	0.089
Mof_C 	C 	0.4494	0.6693	0.1892	0.609
Mof_H 	H 	0.4335	0.7113	0.1754	-0.122
Mof_H 	H 	0.468	0.6797	0.22	-0.414
Mof_H 	H 	0.4676	0.6535	0.1716	-0.121
Mof_C 	C 	0.4732	0.5084	0.2072	0.391
Mof_H 	H 	0.4865	0.5318	0.1868	-0.102
Mof_H 	H 	0.497	0.4915	0.2338	-0.085
Mof_C 	C 	0.4453	0.4477	0.1831	-1.055
Mof_H 	H 	0.4635	0.4144	0.1738	0.321
Mof_H 	H 	0.4323	0.4247	0.2034	0.392
Mof_H 	H 	0.422	0.4647	0.1565	0.472
Mof_C 	C 	0.4147	0.5589	0.2539	-0.63
Mof_H 	H 	0.4033	0.5191	0.2642	0.177
Mof_N 	N 	0.4136	0.5612	0.2118	0.004
Mof_C 	C 	0.4476	0.6062	0.2023	-0.029
Mof_H 	H 	0.4324	0.6378	0.1772	-0.202
Mof_H 	H 	0.4667	0.5757	0.1917	0.039
Mof_C 	C 	0.4755	0.6489	0.2394	0.234
Mof_H 	H 	0.4746	0.6306	0.2681	-0.056
Mof_H 	H 	0.5056	0.6476	0.239	-0.085
Mof_H 	H 	0.465	0.697	0.2357	0.202
Mof_C 	C 	0.3963	0.4955	0.1833	0.522
Mof_H 	H 	0.4081	0.4533	0.2011	-0.213
Mof_H 	H 	0.4054	0.4955	0.1563	-0.297
Mof_C 	C 	0.3462	0.4963	0.1696	-0.831
Mof_H 	H 	0.3344	0.4539	0.1527	0.265
Mof_H 	H 	0.3376	0.4985	0.1966	0.267
Mof_H 	H 	0.3348	0.537	0.1506	0.28
Mof_C 	C 	0.4053	0.8848	0.5152	0.121
Mof_H 	H 	0.4013	0.9224	0.4947	0.006
Mof_N 	N 	0.4064	0.8967	0.5567	-0.154
Mof_C 	C 	0.4259	0.8448	0.5922	0.018
Mof_H 	H 	0.4109	0.7999	0.5823	-0.022
Mof_H 	H 	0.4195	0.8592	0.6196	-0.02
Mof_C 	C 	0.4729	0.8328	0.6048	-0.255
Mof_H 	H 	0.4836	0.8116	0.6347	0.19
Mof_H 	H 	0.4788	0.8016	0.5828	0.103
Mof_H 	H 	0.4878	0.8772	0.6052	0.473
Mof_C 	C 	0.3974	0.9699	0.5697	0.093
Mof_H 	H 	0.378	0.9679	0.5883	-0.01
Mof_H 	H 	0.3825	0.9972	0.5423	0.009
Mof_C 	C 	0.4402	0.0044	0.5959	0.01
Mof_H 	H 	0.4344	0.0505	0.6059	-0.105
Mof_H 	H 	0.4555	0.9759	0.6222	0.043
Mof_H 	H 	0.4584	0.0091	0.5767	0.393
Mof_O 	O 	0.4141	0.9583	0.3283	-1.666
Mof_C 	C 	0.4365	0.9907	0.3612	3.775
Mof_H 	H 	0.4583	0.9683	0.3852	-5.359
Mof_O 	O 	0.4288	0.0596	0.3622	-0.774
Mof_C 	C 	0.14248	0.20963	0.43191	0.013
Mof_C 	C 	0.14722	0.27727	0.41555	-0.011
Mof_C 	C 	0.15075	0.33451	0.44356	0.005
Mof_C 	C 	0.14708	0.326	0.48713	-0.017
Mof_C 	C 	0.35746	0.24029	0.49719	0.012
Mof_C 	C 	0.13901	0.20119	0.47443	-0.012
Mof_C 	C 	0.34332	0.36072	0.49702	0.053
Mof_C 	C 	0.18415	0.08661	0.48392	0.043
Mof_C 	C 	0.18999	0.10533	0.44052	-0.021
Mof_C 	C 	0.16862	0.16146	0.41484	0.006
Mof_C 	C 	0.18863	0.19968	0.3884	-0.02
Mof_C 	C 	0.17177	0.27196	0.38366	0.05
Mof_C 	C 	0.2062	0.33334	0.38594	0.05
Mof_C 	C 	0.21041	0.38711	0.42082	-0.015
Mof_C 	C 	0.1828	0.38984	0.44615	0.006
Mof_C 	C 	0.19847	0.41462	0.49129	-0.02
Mof_C 	C 	0.17275	0.38168	0.51683	0.042
Mof_C 	C 	0.30126	0.14172	0.4322	0.046
Mof_C 	C 	0.30493	0.21584	0.42104	-0.008
Mof_C 	C 	0.33276	0.26164	0.45074	0.017
Mof_C 	C 	0.32171	0.3327	0.45118	-0.012
Mof_C 	C 	0.28101	0.35579	0.42389	0.02
Mof_C 	C 	0.25557	0.40441	0.44109	0.013
Mof_C 	C 	0.27104	0.429	0.48505	-0.023
Mof_C 	C 	0.24219	0.43194	0.51074	0.01
Mof_C 	C 	0.23353	0.08926	0.44269	0.001
Mof_C 	C 	0.25367	0.12651	0.41664	-0.022
Mof_C 	C 	0.23102	0.18375	0.39038	0.006
Mof_C 	C 	0.26303	0.23972	0.39274	0.012
Mof_C 	C 	0.25173	0.3095	0.39298	-0.013
Mof_C 	C 	0.14101	0.06585	0.49021	-0.164
Mof_C 	C 	0.16249	0.41124	0.55657	-0.148
Mof_C 	C 	0.1676	0.32035	0.34501	-0.155
Mof_O 	O 	0.09905	0.0459	0.41194	-0.272
Mof_C 	C 	0.10028	0.06046	0.44927	0.329
Mof_O 	O 	0.06615	0.07691	0.46186	-0.186
Mof_C 	C 	0.02419	0.07933	0.42667	-0.193
Mof_H 	H 	0.0248	0.0486	0.4017	0.095
Mof_H 	H 	0.0014	0.0617	0.4385	0.099
Mof_C 	C 	0.01246	0.15244	0.40889	0.406
Mof_O 	O 	0.03721	0.20132	0.42886	-0.453
Mof_O 	O 	0.97863	0.15968	0.37584	-0.474
Mof_O 	O 	0.16622	0.01644	0.56434	-0.26
Mof_C 	C 	0.14408	0.01253	0.52582	0.334
Mof_O 	O 	0.11967	0.95754	0.50712	-0.221
Mof_C 	C 	0.11886	0.90372	0.53845	-0.125
Mof_H 	H 	0.1039	0.8623	0.5216	0.055
Mof_H 	H 	0.1492	0.8903	0.5558	0.079
Mof_C 	C 	0.09548	0.92647	0.571	0.354
Mof_O 	O 	0.07598	0.98235	0.56595	-0.284
Mof_O 	O 	0.09866	0.88217	0.60173	-0.466
Mof_O 	O 	0.10767	0.34369	0.57522	-0.235
Mof_C 	C 	0.11742	0.39219	0.55747	0.328
Mof_O 	O 	0.09015	0.44052	0.53279	-0.181
Mof_C 	C 	0.04465	0.4327	0.52749	-0.209
Mof_H 	H 	0.0419	0.4119	0.5552	0.173
Mof_H 	H 	0.0308	0.4792	0.5236	0.147
Mof_C 	C 	0.02046	0.38703	0.48714	0.395
Mof_O 	O 	0.04235	0.35578	0.4667	-0.536
Mof_O 	O 	0.98016	0.38462	0.47945	-0.511
Mof_O 	O 	0.1907	0.5244	0.5525	-0.11
Mof_C 	C 	0.17577	0.48435	0.57232	0.283
Mof_O 	O 	0.1735	0.4914	0.6136	-0.081
Mof_C 	C 	0.18	0.5605	0.6328	-0.038
Mof_H 	H 	0.1953	0.5578	0.6657	0.026
Mof_H 	H 	0.198	0.5885	0.6192	0.043
Mof_C 	C 	0.1349	0.5945	0.6233	0.177
Mof_O 	O 	0.1117	0.60027	0.58381	-0.448
Mof_O 	O 	0.12919	0.6183	0.6571	-0.307
Mof_O 	O 	0.13166	0.43106	0.34199	-0.259
Mof_C 	C 	0.12932	0.37035	0.33373	0.331
Mof_O 	O 	0.09313	0.33502	0.31525	-0.189
Mof_C 	C 	0.05201	0.3717	0.30144	-0.193
Mof_H 	H 	0.0575	0.4224	0.304	0.105
Mof_H 	H 	0.0358	0.3609	0.2696	0.118
Mof_C 	C 	0.02478	0.35113	0.33033	0.407
Mof_O 	O 	0.04462	0.32888	0.36922	-0.537
Mof_O 	O 	0.9848	0.36112	0.31298	-0.597
Mof_O 	O 	0.19935	0.3208	0.28664	-0.237
Mof_C 	C 	0.17567	0.29276	0.30323	0.334
Mof_O 	O 	0.153	0.23571	0.28951	-0.204
Mof_C 	C 	0.15213	0.2083	0.24632	-0.176
Mof_H 	H 	0.1808	0.2162	0.2423	0.107
Mof_H 	H 	0.1468	0.1575	0.2455	0.082
Mof_C 	C 	0.11643	0.2432	0.20823	0.411
Mof_O 	O 	0.104	0.30179	0.2152	-0.399
Mof_O 	O 	0.10366	0.21101	0.17148	-0.459
Mof_Zn	Zn	0.01732	0.29747	0.41272	1.189
Mof_Zn	Zn	0.91872	0.10918	0.3418	1.204
Mof_Zn	Zn	0.92931	0.31709	0.4458	1.18
Mof_Zn	Zn	0.93188	0.36393	0.33527	1.15
Mof_O 	O 	0.95358	0.30399	0.39161	-0.796
Mof_O 	O 	0.93046	0.10795	0.28122	-0.444
Mof_O 	O 	0.90929	0.3256	0.5027	-0.444
Mof_C 	C 	0.8717	0.3453	0.5021	0.196
Mof_H 	H 	0.8556	0.3728	0.4771	-0.025
Mof_N 	N 	0.8521	0.332	0.5322	-0.171
Mof_C 	C 	0.8741	0.2862	0.5712	0.14
Mof_H 	H 	0.9061	0.2893	0.5778	0.022
Mof_H 	H 	0.8675	0.3034	0.5979	-0.016
Mof_C 	C 	0.8605	0.2119	0.5634	-0.5
Mof_H 	H 	0.8752	0.1849	0.5906	0.159
Mof_H 	H 	0.8288	0.2085	0.5564	0.169
Mof_H 	H 	0.8686	0.1936	0.5382	0.172
Mof_C 	C 	0.804	0.3495	0.5223	0.146
Mof_H 	H 	0.7871	0.3064	0.5215	-0.021
Mof_H 	H 	0.7923	0.3728	0.4927	-0.002
Mof_C 	C 	0.8003	0.3971	0.5591	-0.518
Mof_H 	H 	0.7697	0.4108	0.5526	0.183
Mof_H 	H 	0.8105	0.3726	0.588	0.182
Mof_H 	H 	0.8182	0.4386	0.5606	0.194
Mof_O 	O 	0.9115	0.4472	0.2817	0.033
Mof_O 	O 	0.96818	0.4511	0.38029	5.438
Mof_C 	C 	0.9764	0.5047	0.3638	-2.476
Mof_H 	H 	0.959	0.5161	0.3339	0.492
Mof_N 	N 	0.0084	0.5481	0.3857	0.534
Mof_C 	C 	0.0418	0.5293	0.4269	-0.865
Mof_H 	H 	0.03	0.4938	0.4426	0.093
Mof_H 	H 	0.0497	0.5707	0.4466	0.321
Mof_C 	C 	0.0812	0.5018	0.4199	-0.211
Mof_H 	H 	0.0949	0.4673	0.4431	0.076
Mof_H 	H 	0.1018	0.5399	0.4216	0.051
Mof_H 	H 	0.0733	0.4799	0.3902	0.131
Mof_C 	C 	0.0107	0.6167	0.3655	-0.787
Mof_H 	H 	0.9913	0.6167	0.3338	0.3
Mof_H 	H 	0.0409	0.6249	0.3658	0.263
Mof_C 	C 	0.9972	0.6756	0.3906	-0.365
Mof_H 	H 	0.9934	0.7184	0.3729	0.09
Mof_H 	H 	0.0199	0.6826	0.4198	0.058
Mof_H 	H 	0.9696	0.6636	0.3952	0.179
Mof_O 	O 	0.188	0.5327	0.556	-0.117
Mof_O 	O 	0.1656	0.4898	0.6102	-0.092
Mof_C 	C 	0.178	0.552	0.6364	-0.1
Mof_H 	H 	0.1793	0.5422	0.6677	0.105
Mof_H 	H 	0.2077	0.5659	0.6372	0.067
Mof_C 	C 	0.1466	0.6125	0.6181	0.234
Mof_O 	O 	0.1635	0.6676	0.6377	-0.387
Mof_H 	H 	0.1467	0.7012	0.6271	0.189
Mof_C 	C 	0.9452	0.0603	0.2639	0.922
Mof_H 	H 	0.9581	0.0218	0.2825	-0.295
Mof_N 	N 	0.9445	0.059	0.2215	-0.294
Mof_C 	C 	0.9188	0.1157	0.19	-0.024
Mof_H 	H 	0.8958	0.1346	0.201	0.071
Mof_H 	H 	0.9048	0.0967	0.1594	0.089
Mof_C 	C 	0.9494	0.1693	0.1892	0.607
Mof_H 	H 	0.9335	0.2113	0.1754	-0.121
Mof_H 	H 	0.968	0.1797	0.22	-0.412
Mof_H 	H 	0.9676	0.1535	0.1716	-0.12
Mof_C 	C 	0.9732	0.0084	0.2072	0.402
Mof_H 	H 	0.9865	0.0318	0.1868	-0.105
Mof_H 	H 	0.997	0.9915	0.2338	-0.09
Mof_C 	C 	0.9453	0.9477	0.1831	-1.072
Mof_H 	H 	0.9635	0.9144	0.1738	0.325
Mof_H 	H 	0.9323	0.9247	0.2034	0.398
Mof_H 	H 	0.922	0.9647	0.1565	0.479
Mof_C 	C 	0.9147	0.0589	0.2539	-0.632
Mof_H 	H 	0.9033	0.0191	0.2642	0.177
Mof_N 	N 	0.9136	0.0612	0.2118	0.004
Mof_C 	C 	0.9476	0.1062	0.2023	-0.03
Mof_H 	H 	0.9324	0.1378	0.1772	-0.202
Mof_H 	H 	0.9667	0.0757	0.1917	0.038
Mof_C 	C 	0.9755	0.1489	0.2394	0.233
Mof_H 	H 	0.9746	0.1306	0.2681	-0.056
Mof_H 	H 	0.0056	0.1476	0.239	-0.085
Mof_H 	H 	0.965	0.197	0.2357	0.201
Mof_C 	C 	0.8963	0.9955	0.1833	0.53
Mof_H 	H 	0.9081	0.9533	0.2011	-0.217
Mof_H 	H 	0.9054	0.9955	0.1563	-0.303
Mof_C 	C 	0.8462	0.9963	0.1696	-0.844
Mof_H 	H 	0.8344	0.9539	0.1527	0.268
Mof_H 	H 	0.8376	0.9985	0.1966	0.27
Mof_H 	H 	0.8348	0.037	0.1506	0.284
Mof_C 	C 	0.9053	0.3848	0.5152	0.12
Mof_H 	H 	0.9013	0.4224	0.4947	0.006
Mof_N 	N 	0.9064	0.3967	0.5567	-0.153
Mof_C 	C 	0.9259	0.3448	0.5922	0.018
Mof_H 	H 	0.9109	0.2999	0.5823	-0.022
Mof_H 	H 	0.9195	0.3592	0.6196	-0.02
Mof_C 	C 	0.9729	0.3328	0.6048	-0.256
Mof_H 	H 	0.9836	0.3116	0.6347	0.19
Mof_H 	H 	0.9788	0.3016	0.5828	0.103
Mof_H 	H 	0.9878	0.3772	0.6052	0.473
Mof_C 	C 	0.8974	0.4699	0.5697	0.093
Mof_H 	H 	0.878	0.4679	0.5883	-0.01
Mof_H 	H 	0.8825	0.4972	0.5423	0.008
Mof_C 	C 	0.9402	0.5044	0.5959	0.009
Mof_H 	H 	0.9344	0.5505	0.6059	-0.105
Mof_H 	H 	0.9555	0.4759	0.6222	0.044
Mof_H 	H 	0.9584	0.5091	0.5767	0.397
Mof_O 	O 	0.9141	0.4583	0.3283	-1.664
Mof_C 	C 	0.9365	0.4907	0.3612	3.771
Mof_H 	H 	0.9583	0.4683	0.3852	-5.35
Mof_O 	O 	0.9288	0.5596	0.3622	-0.774
Mof_C 	C 	0.35752	0.70963	0.06809	0.015
Mof_C 	C 	0.35278	0.77727	0.08445	-0.012
Mof_C 	C 	0.34925	0.83451	0.05644	0.006
Mof_C 	C 	0.35292	0.826	0.01287	-0.022
Mof_C 	C 	0.14254	0.74029	0.00281	0.01
Mof_C 	C 	0.36099	0.70119	0.02557	-0.015
Mof_C 	C 	0.15668	0.86072	0.00298	0.048
Mof_C 	C 	0.31585	0.58661	0.01608	0.043
Mof_C 	C 	0.31001	0.60533	0.05948	-0.021
Mof_C 	C 	0.33138	0.66146	0.08516	0.006
Mof_C 	C 	0.31137	0.69968	0.1116	-0.02
Mof_C 	C 	0.32823	0.77196	0.11634	0.05
Mof_C 	C 	0.2938	0.83334	0.11406	0.05
Mof_C 	C 	0.28959	0.88711	0.07918	-0.017
Mof_C 	C 	0.3172	0.88984	0.05385	0.008
Mof_C 	C 	0.30153	0.91462	0.00871	-0.027
Mof_C 	C 	0.32725	0.88168	0.98317	0.048
Mof_C 	C 	0.19874	0.64172	0.0678	0.046
Mof_C 	C 	0.19507	0.71584	0.07896	-0.008
Mof_C 	C 	0.16724	0.76164	0.04926	0.017
Mof_C 	C 	0.17829	0.8327	0.04882	-0.01
Mof_C 	C 	0.21899	0.85579	0.07611	0.019
Mof_C 	C 	0.24443	0.90441	0.05891	0.016
Mof_C 	C 	0.22896	0.929	0.01495	-0.029
Mof_C 	C 	0.25781	0.93194	0.98926	0.017
Mof_C 	C 	0.26647	0.58926	0.05731	0.001
Mof_C 	C 	0.24633	0.62651	0.08336	-0.022
Mof_C 	C 	0.26898	0.68375	0.10962	0.006
Mof_C 	C 	0.23697	0.73972	0.10726	0.011
Mof_C 	C 	0.24827	0.8095	0.10702	-0.013
Mof_C 	C 	0.35899	0.56585	0.00979	-0.165
Mof_C 	C 	0.33751	0.91124	0.94343	-0.149
Mof_C 	C 	0.3324	0.82035	0.15499	-0.156
Mof_O 	O 	0.40095	0.5459	0.08806	-0.272
Mof_C 	C 	0.39972	0.56046	0.05073	0.329
Mof_O 	O 	0.43385	0.57691	0.03814	-0.186
Mof_C 	C 	0.47581	0.57933	0.07333	-0.193
Mof_H 	H 	0.4752	0.5486	0.0983	0.095
Mof_H 	H 	0.4986	0.5617	0.0615	0.099
Mof_C 	C 	0.48754	0.65244	0.09111	0.405
Mof_O 	O 	0.46279	0.70132	0.07114	-0.453
Mof_O 	O 	0.52137	0.65968	0.12416	-0.474
Mof_O 	O 	0.33378	0.51644	0.93566	-0.26
Mof_C 	C 	0.35592	0.51253	0.97418	0.335
Mof_O 	O 	0.38033	0.45754	0.99288	-0.221
Mof_C 	C 	0.38114	0.40372	0.96155	-0.125
Mof_H 	H 	0.3961	0.3623	0.9784	0.055
Mof_H 	H 	0.3508	0.3903	0.9442	0.078
Mof_C 	C 	0.40452	0.42647	0.929	0.353
Mof_O 	O 	0.42402	0.48235	0.93405	-0.284
Mof_O 	O 	0.40134	0.38217	0.89827	-0.466
Mof_O 	O 	0.39233	0.84369	0.92478	-0.235
Mof_C 	C 	0.38258	0.89219	0.94253	0.329
Mof_O 	O 	0.40985	0.94052	0.96721	-0.18
Mof_C 	C 	0.45535	0.9327	0.97251	-0.206
Mof_H 	H 	0.4581	0.9119	0.9448	0.173
Mof_H 	H 	0.4692	0.9792	0.9764	0.148
Mof_C 	C 	0.47954	0.88703	0.01286	0.393
Mof_O 	O 	0.45765	0.85578	0.0333	-0.536
Mof_O 	O 	0.51984	0.88462	0.02055	-0.511
Mof_O 	O 	0.3093	0.0244	0.9475	-0.111
Mof_C 	C 	0.32423	0.98435	0.92768	0.287
Mof_O 	O 	0.3265	0.9914	0.8864	-0.081
Mof_C 	C 	0.32	0.0605	0.8672	-0.039
Mof_H 	H 	0.3047	0.0578	0.8343	0.026
Mof_H 	H 	0.302	0.0885	0.8808	0.043
Mof_C 	C 	0.3651	0.0945	0.8767	0.177
Mof_O 	O 	0.3883	0.10027	0.91619	-0.448
Mof_O 	O 	0.37081	0.1183	0.8429	-0.307
Mof_O 	O 	0.36834	0.93106	0.15801	-0.26
Mof_C 	C 	0.37068	0.87035	0.16627	0.331
Mof_O 	O 	0.40687	0.83502	0.18475	-0.189
Mof_C 	C 	0.44799	0.8717	0.19856	-0.193
Mof_H 	H 	0.4425	0.9224	0.196	0.104
Mof_H 	H 	0.4642	0.8609	0.2304	0.118
Mof_C 	C 	0.47522	0.85113	0.16967	0.406
Mof_O 	O 	0.45538	0.82888	0.13078	-0.537
Mof_O 	O 	0.5152	0.86112	0.18702	-0.598
Mof_O 	O 	0.30065	0.8208	0.21336	-0.237
Mof_C 	C 	0.32433	0.79276	0.19677	0.334
Mof_O 	O 	0.347	0.73571	0.21049	-0.204
Mof_C 	C 	0.34787	0.7083	0.25368	-0.176
Mof_H 	H 	0.3192	0.7162	0.2577	0.107
Mof_H 	H 	0.3532	0.6575	0.2545	0.082
Mof_C 	C 	0.38357	0.7432	0.29177	0.411
Mof_O 	O 	0.396	0.80179	0.2848	-0.399
Mof_O 	O 	0.39634	0.71101	0.32852	-0.459
Mof_Zn	Zn	0.48268	0.79747	0.08728	1.188
Mof_Zn	Zn	0.58128	0.60918	0.1582	1.204
Mof_Zn	Zn	0.57069	0.81709	0.0542	1.18
Mof_Zn	Zn	0.56812	0.86393	0.16473	1.15
Mof_O 	O 	0.54642	0.80399	0.10839	-0.797
Mof_O 	O 	0.56954	0.60795	0.21878	-0.444
Mof_O 	O 	0.59071	0.8256	0.9973	-0.445
Mof_C 	C 	0.6283	0.8453	0.9979	0.197
Mof_H 	H 	0.6444	0.8728	0.0229	-0.027
Mof_N 	N 	0.6479	0.832	0.9678	-0.172
Mof_C 	C 	0.6259	0.7862	0.9288	0.141
Mof_H 	H 	0.5939	0.7893	0.9222	0.021
Mof_H 	H 	0.6325	0.8034	0.9021	-0.016
Mof_C 	C 	0.6395	0.7119	0.9366	-0.501
Mof_H 	H 	0.6248	0.6849	0.9094	0.159
Mof_H 	H 	0.6712	0.7085	0.9436	0.17
Mof_H 	H 	0.6314	0.6936	0.9618	0.173
Mof_C 	C 	0.696	0.8495	0.9777	0.153
Mof_H 	H 	0.7129	0.8064	0.9785	-0.023
Mof_H 	H 	0.7077	0.8728	0.0073	-0.005
Mof_C 	C 	0.6997	0.8971	0.9409	-0.524
Mof_H 	H 	0.7303	0.9108	0.9474	0.185
Mof_H 	H 	0.6895	0.8726	0.912	0.184
Mof_H 	H 	0.6818	0.9386	0.9394	0.196
Mof_O 	O 	0.5885	0.9472	0.2183	0.033
Mof_O 	O 	0.53182	0.9511	0.11971	5.463
Mof_C 	C 	0.5236	0.0047	0.1362	-2.48
Mof_H 	H 	0.541	0.0161	0.1661	0.492
Mof_N 	N 	0.4916	0.0481	0.1143	0.531
Mof_C 	C 	0.4582	0.0293	0.0731	-0.828
Mof_H 	H 	0.47	0.9938	0.0574	0.089
Mof_H 	H 	0.4503	0.0707	0.0534	0.309
Mof_C 	C 	0.4188	0.0018	0.0801	-0.22
Mof_H 	H 	0.4051	0.9673	0.0569	0.077
Mof_H 	H 	0.3982	0.0399	0.0784	0.053
Mof_H 	H 	0.4267	0.9799	0.1098	0.131
Mof_C 	C 	0.4893	0.1167	0.1345	-0.784
Mof_H 	H 	0.5087	0.1167	0.1662	0.299
Mof_H 	H 	0.4591	0.1249	0.1342	0.263
Mof_C 	C 	0.5028	0.1756	0.1094	-0.364
Mof_H 	H 	0.5066	0.2184	0.1271	0.09
Mof_H 	H 	0.4801	0.1826	0.0802	0.057
Mof_H 	H 	0.5304	0.1636	0.1048	0.179
Mof_O 	O 	0.312	0.0327	0.944	-0.118
Mof_O 	O 	0.3344	0.9898	0.8898	-0.092
Mof_C 	C 	0.322	0.052	0.8636	-0.1
Mof_H 	H 	0.3207	0.0422	0.8323	0.104
Mof_H 	H 	0.2923	0.0659	0.8628	0.066
Mof_C 	C 	0.3534	0.1125	0.8819	0.234
Mof_O 	O 	0.3365	0.1676	0.8623	-0.387
Mof_H 	H 	0.3533	0.2012	0.8729	0.189
Mof_C 	C 	0.5548	0.5603	0.2361	0.92
Mof_H 	H 	0.5419	0.5218	0.2175	-0.294
Mof_N 	N 	0.5555	0.559	0.2785	-0.292
Mof_C 	C 	0.5812	0.6157	0.31	-0.027
Mof_H 	H 	0.6042	0.6346	0.299	0.071
Mof_H 	H 	0.5952	0.5967	0.3406	0.089
Mof_C 	C 	0.5506	0.6693	0.3108	0.609
Mof_H 	H 	0.5665	0.7113	0.3246	-0.122
Mof_H 	H 	0.532	0.6797	0.28	-0.414
Mof_H 	H 	0.5324	0.6535	0.3284	-0.121
Mof_C 	C 	0.5268	0.5084	0.2928	0.391
Mof_H 	H 	0.5135	0.5318	0.3132	-0.102
Mof_H 	H 	0.503	0.4915	0.2662	-0.085
Mof_C 	C 	0.5547	0.4477	0.3169	-1.055
Mof_H 	H 	0.5365	0.4144	0.3262	0.321
Mof_H 	H 	0.5677	0.4247	0.2966	0.392
Mof_H 	H 	0.578	0.4647	0.3435	0.472
Mof_C 	C 	0.5853	0.5589	0.2461	-0.63
Mof_H 	H 	0.5967	0.5191	0.2358	0.177
Mof_N 	N 	0.5864	0.5612	0.2882	0.004
Mof_C 	C 	0.5524	0.6062	0.2977	-0.029
Mof_H 	H 	0.5676	0.6378	0.3228	-0.202
Mof_H 	H 	0.5333	0.5757	0.3083	0.039
Mof_C 	C 	0.5245	0.6489	0.2606	0.234
Mof_H 	H 	0.5254	0.6306	0.2319	-0.056
Mof_H 	H 	0.4944	0.6476	0.261	-0.085
Mof_H 	H 	0.535	0.697	0.2643	0.202
Mof_C 	C 	0.6037	0.4955	0.3167	0.522
Mof_H 	H 	0.5919	0.4533	0.2989	-0.213
Mof_H 	H 	0.5946	0.4955	0.3437	-0.296
Mof_C 	C 	0.6538	0.4963	0.3304	-0.831
Mof_H 	H 	0.6656	0.4539	0.3473	0.265
Mof_H 	H 	0.6624	0.4985	0.3034	0.267
Mof_H 	H 	0.6652	0.537	0.3494	0.28
Mof_C 	C 	0.5947	0.8848	0.9848	0.126
Mof_H 	H 	0.5987	0.9224	0.0053	0.002
Mof_N 	N 	0.5936	0.8967	0.9433	-0.155
Mof_C 	C 	0.5741	0.8448	0.9078	0.019
Mof_H 	H 	0.5891	0.7999	0.9177	-0.022
Mof_H 	H 	0.5805	0.8592	0.8804	-0.021
Mof_C 	C 	0.5271	0.8328	0.8952	-0.256
Mof_H 	H 	0.5164	0.8116	0.8653	0.189
Mof_H 	H 	0.5212	0.8016	0.9172	0.103
Mof_H 	H 	0.5122	0.8772	0.8948	0.471
Mof_C 	C 	0.6026	0.9699	0.9303	0.094
Mof_H 	H 	0.622	0.9679	0.9117	-0.01
Mof_H 	H 	0.6175	0.9972	0.9577	0.01
Mof_C 	C 	0.5598	0.0044	0.9041	0.013
Mof_H 	H 	0.5656	0.0505	0.8941	-0.105
Mof_H 	H 	0.5445	0.9759	0.8778	0.042
Mof_H 	H 	0.5416	0.0091	0.9233	0.379
Mof_O 	O 	0.5859	0.9583	0.1717	-1.668
Mof_C 	C 	0.5635	0.9907	0.1388	3.78
Mof_H 	H 	0.5417	0.9683	0.1148	-5.374
Mof_O 	O 	0.5712	0.0596	0.1378	-0.775
Mof_C 	C 	0.85752	0.20963	0.06809	0.012
Mof_C 	C 	0.85278	0.27727	0.08445	-0.01
Mof_C 	C 	0.84925	0.33451	0.05644	0.004
Mof_C 	C 	0.85292	0.326	0.01287	-0.015
Mof_C 	C 	0.64254	0.24029	0.00281	0.017
Mof_C 	C 	0.86099	0.20119	0.02557	-0.008
Mof_C 	C 	0.65668	0.36072	0.00298	0.055
Mof_C 	C 	0.81585	0.08661	0.01608	0.047
Mof_C 	C 	0.81001	0.10533	0.05948	-0.021
Mof_C 	C 	0.83138	0.16146	0.08516	0.007
Mof_C 	C 	0.81137	0.19968	0.1116	-0.02
Mof_C 	C 	0.82823	0.27196	0.11634	0.049
Mof_C 	C 	0.7938	0.33334	0.11406	0.05
Mof_C 	C 	0.78959	0.38711	0.07918	-0.015
Mof_C 	C 	0.8172	0.38984	0.05385	0.006
Mof_C 	C 	0.80153	0.41462	0.00871	-0.02
Mof_C 	C 	0.82725	0.38168	0.98317	0.041
Mof_C 	C 	0.69874	0.14172	0.0678	0.045
Mof_C 	C 	0.69507	0.21584	0.07896	-0.007
Mof_C 	C 	0.66724	0.26164	0.04926	0.016
Mof_C 	C 	0.67829	0.3327	0.04882	-0.012
Mof_C 	C 	0.71899	0.35579	0.07611	0.02
Mof_C 	C 	0.74443	0.40441	0.05891	0.013
Mof_C 	C 	0.72896	0.429	0.01495	-0.022
Mof_C 	C 	0.75781	0.43194	0.98926	0.01
Mof_C 	C 	0.76647	0.08926	0.05731	-0.001
Mof_C 	C 	0.74633	0.12651	0.08336	-0.021
Mof_C 	C 	0.76898	0.18375	0.10962	0.005
Mof_C 	C 	0.73697	0.23972	0.10726	0.011
Mof_C 	C 	0.74827	0.3095	0.10702	-0.013
Mof_C 	C 	0.85899	0.06585	0.00979	-0.161
Mof_C 	C 	0.83751	0.41124	0.94343	-0.147
Mof_C 	C 	0.8324	0.32035	0.15499	-0.155
Mof_O 	O 	0.90095	0.0459	0.08806	-0.271
Mof_C 	C 	0.89972	0.06046	0.05073	0.327
Mof_O 	O 	0.93385	0.07691	0.03814	-0.185
Mof_C 	C 	0.97581	0.07933	0.07333	-0.193
Mof_H 	H 	0.9752	0.0486	0.0983	0.095
Mof_H 	H 	0.9986	0.0617	0.0615	0.099
Mof_C 	C 	0.98754	0.15244	0.09111	0.405
Mof_O 	O 	0.96279	0.20132	0.07114	-0.453
Mof_O 	O 	0.02137	0.15968	0.12416	-0.473
Mof_O 	O 	0.83378	0.01644	0.93566	-0.259
Mof_C 	C 	0.85592	0.01253	0.97418	0.329
Mof_O 	O 	0.88033	0.95754	0.99288	-0.218
Mof_C 	C 	0.88114	0.90372	0.96155	-0.126
Mof_H 	H 	0.8961	0.8623	0.9784	0.056
Mof_H 	H 	0.8508	0.8903	0.9442	0.079
Mof_C 	C 	0.90452	0.92647	0.929	0.354
Mof_O 	O 	0.92402	0.98235	0.93405	-0.283
Mof_O 	O 	0.90134	0.88217	0.89827	-0.466
Mof_O 	O 	0.89233	0.34369	0.92478	-0.235
Mof_C 	C 	0.88258	0.39219	0.94253	0.328
Mof_O 	O 	0.90985	0.44052	0.96721	-0.181
Mof_C 	C 	0.95535	0.4327	0.97251	-0.209
Mof_H 	H 	0.9581	0.4119	0.9448	0.173
Mof_H 	H 	0.9692	0.4792	0.9764	0.147
Mof_C 	C 	0.97954	0.38703	0.01286	0.394
Mof_O 	O 	0.95765	0.35578	0.0333	-0.536
Mof_O 	O 	0.01984	0.38462	0.02055	-0.51
Mof_O 	O 	0.8093	0.5244	0.9475	-0.11
Mof_C 	C 	0.82423	0.48435	0.92768	0.283
Mof_O 	O 	0.8265	0.4914	0.8864	-0.081
Mof_C 	C 	0.82	0.5605	0.8672	-0.038
Mof_H 	H 	0.8047	0.5578	0.8343	0.026
Mof_H 	H 	0.802	0.5885	0.8808	0.043
Mof_C 	C 	0.8651	0.5945	0.8767	0.177
Mof_O 	O 	0.8883	0.60027	0.91619	-0.448
Mof_O 	O 	0.87081	0.6183	0.8429	-0.307
Mof_O 	O 	0.86834	0.43106	0.15801	-0.259
Mof_C 	C 	0.87068	0.37035	0.16627	0.331
Mof_O 	O 	0.90687	0.33502	0.18475	-0.189
Mof_C 	C 	0.94799	0.3717	0.19856	-0.193
Mof_H 	H 	0.9425	0.4224	0.196	0.104
Mof_H 	H 	0.9642	0.3609	0.2304	0.118
Mof_C 	C 	0.97522	0.35113	0.16967	0.406
Mof_O 	O 	0.95538	0.32888	0.13078	-0.537
Mof_O 	O 	0.0152	0.36112	0.18702	-0.597
Mof_O 	O 	0.80065	0.3208	0.21336	-0.237
Mof_C 	C 	0.82433	0.29276	0.19677	0.334
Mof_O 	O 	0.847	0.23571	0.21049	-0.204
Mof_C 	C 	0.84787	0.2083	0.25368	-0.176
Mof_H 	H 	0.8192	0.2162	0.2577	0.107
Mof_H 	H 	0.8532	0.1575	0.2545	0.082
Mof_C 	C 	0.88357	0.2432	0.29177	0.411
Mof_O 	O 	0.896	0.30179	0.2848	-0.399
Mof_O 	O 	0.89634	0.21101	0.32852	-0.459
Mof_Zn	Zn	0.98268	0.29747	0.08728	1.189
Mof_Zn	Zn	0.08128	0.10918	0.1582	1.204
Mof_Zn	Zn	0.07069	0.31709	0.0542	1.181
Mof_Zn	Zn	0.06812	0.36393	0.16473	1.15
Mof_O 	O 	0.04642	0.30399	0.10839	-0.796
Mof_O 	O 	0.06954	0.10795	0.21878	-0.444
Mof_O 	O 	0.09071	0.3256	0.9973	-0.444
Mof_C 	C 	0.1283	0.3453	0.9979	0.194
Mof_H 	H 	0.1444	0.3728	0.0229	-0.024
Mof_N 	N 	0.1479	0.332	0.9678	-0.17
Mof_C 	C 	0.1259	0.2862	0.9288	0.138
Mof_H 	H 	0.0939	0.2893	0.9222	0.023
Mof_H 	H 	0.1325	0.3034	0.9021	-0.015
Mof_C 	C 	0.1395	0.2119	0.9366	-0.497
Mof_H 	H 	0.1248	0.1849	0.9094	0.158
Mof_H 	H 	0.1712	0.2085	0.9436	0.168
Mof_H 	H 	0.1314	0.1936	0.9618	0.17
Mof_C 	C 	0.196	0.3495	0.9777	0.143
Mof_H 	H 	0.2129	0.3064	0.9785	-0.021
Mof_H 	H 	0.2077	0.3728	0.0073	-0
Mof_C 	C 	0.1997	0.3971	0.9409	-0.516
Mof_H 	H 	0.2303	0.4108	0.9474	0.182
Mof_H 	H 	0.1895	0.3726	0.912	0.182
Mof_H 	H 	0.1818	0.4386	0.9394	0.193
Mof_O 	O 	0.0885	0.4472	0.2183	0.033
Mof_O 	O 	0.03182	0.4511	0.11971	5.439
Mof_C 	C 	0.0236	0.5047	0.1362	-2.476
Mof_H 	H 	0.041	0.5161	0.1661	0.492
Mof_N 	N 	0.9916	0.5481	0.1143	0.534
Mof_C 	C 	0.9582	0.5293	0.0731	-0.864
Mof_H 	H 	0.97	0.4938	0.0574	0.093
Mof_H 	H 	0.9503	0.5707	0.0534	0.321
Mof_C 	C 	0.9188	0.5018	0.0801	-0.211
Mof_H 	H 	0.9051	0.4673	0.0569	0.076
Mof_H 	H 	0.8982	0.5399	0.0784	0.051
Mof_H 	H 	0.9267	0.4799	0.1098	0.131
Mof_C 	C 	0.9893	0.6167	0.1345	-0.788
Mof_H 	H 	0.0087	0.6167	0.1662	0.301
Mof_H 	H 	0.9591	0.6249	0.1342	0.263
Mof_C 	C 	0.0028	0.6756	0.1094	-0.371
Mof_H 	H 	0.0066	0.7184	0.1271	0.092
Mof_H 	H 	0.9801	0.6826	0.0802	0.057
Mof_H 	H 	0.0304	0.6636	0.1048	0.181
Mof_O 	O 	0.812	0.5327	0.944	-0.117
Mof_O 	O 	0.8344	0.4898	0.8898	-0.092
Mof_C 	C 	0.822	0.552	0.8636	-0.1
Mof_H 	H 	0.8207	0.5422	0.8323	0.105
Mof_H 	H 	0.7923	0.5659	0.8628	0.067
Mof_C 	C 	0.8534	0.6125	0.8819	0.234
Mof_O 	O 	0.8365	0.6676	0.8623	-0.387
Mof_H 	H 	0.8533	0.7012	0.8729	0.189
Mof_C 	C 	0.0548	0.0603	0.2361	0.922
Mof_H 	H 	0.0419	0.0218	0.2175	-0.294
Mof_N 	N 	0.0555	0.059	0.2785	-0.293
Mof_C 	C 	0.0812	0.1157	0.31	-0.026
Mof_H 	H 	0.1042	0.1346	0.299	0.071
Mof_H 	H 	0.0952	0.0967	0.3406	0.089
Mof_C 	C 	0.0506	0.1693	0.3108	0.608
Mof_H 	H 	0.0665	0.2113	0.3246	-0.122
Mof_H 	H 	0.032	0.1797	0.28	-0.413
Mof_H 	H 	0.0324	0.1535	0.3284	-0.12
Mof_C 	C 	0.0268	0.0084	0.2928	0.395
Mof_H 	H 	0.0135	0.0318	0.3132	-0.103
Mof_H 	H 	0.003	0.9915	0.2662	-0.086
Mof_C 	C 	0.0547	0.9477	0.3169	-1.062
Mof_H 	H 	0.0365	0.9144	0.3262	0.323
Mof_H 	H 	0.0677	0.9247	0.2966	0.395
Mof_H 	H 	0.078	0.9647	0.3435	0.475
Mof_C 	C 	0.0853	0.0589	0.2461	-0.631
Mof_H 	H 	0.0967	0.0191	0.2358	0.177
Mof_N 	N 	0.0864	0.0612	0.2882	0.004
Mof_C 	C 	0.0524	0.1062	0.2977	-0.03
Mof_H 	H 	0.0676	0.1378	0.3228	-0.202
Mof_H 	H 	0.0333	0.0757	0.3083	0.039
Mof_C 	C 	0.0245	0.1489	0.2606	0.235
Mof_H 	H 	0.0254	0.1306	0.2319	-0.057
Mof_H 	H 	0.9944	0.1476	0.261	-0.085
Mof_H 	H 	0.035	0.197	0.2643	0.201
Mof_C 	C 	0.1037	0.9955	0.3167	0.524
Mof_H 	H 	0.0919	0.9533	0.2989	-0.215
Mof_H 	H 	0.0946	0.9955	0.3437	-0.299
Mof_C 	C 	0.1538	0.9963	0.3304	-0.836
Mof_H 	H 	0.1656	0.9539	0.3473	0.266
Mof_H 	H 	0.1624	0.9985	0.3034	0.268
Mof_H 	H 	0.1652	0.037	0.3494	0.281
Mof_C 	C 	0.0947	0.3848	0.9848	0.119
Mof_H 	H 	0.0987	0.4224	0.0053	0.007
Mof_N 	N 	0.0936	0.3967	0.9433	-0.153
Mof_C 	C 	0.0741	0.3448	0.9078	0.014
Mof_H 	H 	0.0891	0.2999	0.9177	-0.022
Mof_H 	H 	0.0805	0.3592	0.8804	-0.019
Mof_C 	C 	0.0271	0.3328	0.8952	-0.247
Mof_H 	H 	0.0164	0.3116	0.8653	0.187
Mof_H 	H 	0.0212	0.3016	0.9172	0.102
Mof_H 	H 	0.0122	0.3772	0.8948	0.471
Mof_C 	C 	0.1026	0.4699	0.9303	0.093
Mof_H 	H 	0.122	0.4679	0.9117	-0.01
Mof_H 	H 	0.1175	0.4972	0.9577	0.008
Mof_C 	C 	0.0598	0.5044	0.9041	0.009
Mof_H 	H 	0.0656	0.5505	0.8941	-0.105
Mof_H 	H 	0.0445	0.4759	0.8778	0.044
Mof_H 	H 	0.0416	0.5091	0.9233	0.397
Mof_O 	O 	0.0859	0.4583	0.1717	-1.664
Mof_C 	C 	0.0635	0.4907	0.1388	3.771
Mof_H 	H 	0.0417	0.4683	0.1148	-5.35
Mof_O 	O 	0.0712	0.5596	0.1378	-0.774
_end
