# CIF file generated by openbabel 3.1.0, see https://openbabel.org
data_I
_chemical_name_common 'OTAVAH_clean'
_cell_length_a 10.04
_cell_length_b 17.788
_cell_length_c 19.786
_cell_angle_alpha 90
_cell_angle_beta 90
_cell_angle_gamma 90
_space_group_name_H-M_alt 'P 1'
_space_group_name_Hall 'P 1'
loop_
    _symmetry_equiv_pos_as_xyz
    x,y,z
loop_
    _atom_site_label
    _atom_site_type_symbol
    _atom_site_fract_x
    _atom_site_fract_y
    _atom_site_fract_z
    _atom_site_occupancy
    Gd1      Gd       0.46953    0.25000    0.25000    1.000
    Gd2      Gd       0.03047    0.75000    0.75000    1.000
    Gd3      Gd       0.53047    0.75000    0.75000    1.000
    Gd4      Gd       0.96953    0.25000    0.25000    1.000
    H1       H        0.33020    0.11490    0.57170    1.000
    H2       H        0.23860    0.12900    0.08150    1.000
    H3       H        0.30550    0.06180    0.99120    1.000
    H4       H        0.37610    0.13660    0.45890    1.000
    H5       H        0.98710    0.22510    0.55490    1.000
    H6       H        0.02790    0.24480    0.44060    1.000
    H7       H        0.13870    0.16070    0.61980    1.000
    H8       H        0.62320    0.99340    0.09360    1.000
    H9       H        0.55170    0.06190    0.18490    1.000
    H10      H        0.33020    0.38510    0.92830    1.000
    H11      H        0.23860    0.37100    0.41850    1.000
    H12      H        0.30550    0.43820    0.50880    1.000
    H13      H        0.37610    0.36340    0.04110    1.000
    H14      H        0.98710    0.27490    0.94510    1.000
    H15      H        0.02790    0.25520    0.05940    1.000
    H16      H        0.13870    0.33930    0.88020    1.000
    H17      H        0.62320    0.50660    0.40640    1.000
    H18      H        0.55170    0.43810    0.31510    1.000
    H19      H        0.16980    0.88510    0.07170    1.000
    H20      H        0.26140    0.87100    0.58150    1.000
    H21      H        0.19450    0.93820    0.49120    1.000
    H22      H        0.12390    0.86340    0.95890    1.000
    H23      H        0.51290    0.77490    0.05490    1.000
    H24      H        0.47210    0.75520    0.94060    1.000
    H25      H        0.36130    0.83930    0.11980    1.000
    H26      H        0.87680    0.00660    0.59360    1.000
    H27      H        0.94830    0.93810    0.68490    1.000
    H28      H        0.16980    0.61490    0.42830    1.000
    H29      H        0.26140    0.62900    0.91850    1.000
    H30      H        0.19450    0.56180    0.00880    1.000
    H31      H        0.12390    0.63660    0.54110    1.000
    H32      H        0.51290    0.72510    0.44510    1.000
    H33      H        0.47210    0.74480    0.55940    1.000
    H34      H        0.36130    0.66070    0.38020    1.000
    H35      H        0.87680    0.49340    0.90640    1.000
    H36      H        0.94830    0.56190    0.81510    1.000
    H37      H        0.66980    0.88510    0.42830    1.000
    H38      H        0.76140    0.87100    0.91850    1.000
    H39      H        0.69450    0.93820    0.00880    1.000
    H40      H        0.62390    0.86340    0.54110    1.000
    H41      H        0.01290    0.77490    0.44510    1.000
    H42      H        0.97210    0.75520    0.55940    1.000
    H43      H        0.86130    0.83930    0.38020    1.000
    H44      H        0.37680    0.00660    0.90640    1.000
    H45      H        0.44830    0.93810    0.81510    1.000
    H46      H        0.66980    0.61490    0.07170    1.000
    H47      H        0.76140    0.62900    0.58150    1.000
    H48      H        0.69450    0.56180    0.49120    1.000
    H49      H        0.62390    0.63660    0.95890    1.000
    H50      H        0.01290    0.72510    0.05490    1.000
    H51      H        0.97210    0.74480    0.94060    1.000
    H52      H        0.86130    0.66070    0.11980    1.000
    H53      H        0.37680    0.49340    0.59360    1.000
    H54      H        0.44830    0.56190    0.68490    1.000
    H55      H        0.83020    0.11490    0.92830    1.000
    H56      H        0.73860    0.12900    0.41850    1.000
    H57      H        0.80550    0.06180    0.50880    1.000
    H58      H        0.87610    0.13660    0.04110    1.000
    H59      H        0.48710    0.22510    0.94510    1.000
    H60      H        0.52790    0.24480    0.05940    1.000
    H61      H        0.63870    0.16070    0.88020    1.000
    H62      H        0.12320    0.99340    0.40640    1.000
    H63      H        0.05170    0.06190    0.31510    1.000
    H64      H        0.83020    0.38510    0.57170    1.000
    H65      H        0.73860    0.37100    0.08150    1.000
    H66      H        0.80550    0.43820    0.99120    1.000
    H67      H        0.87610    0.36340    0.45890    1.000
    H68      H        0.48710    0.27490    0.55490    1.000
    H69      H        0.52790    0.25520    0.44060    1.000
    H70      H        0.63870    0.33930    0.61980    1.000
    H71      H        0.12320    0.50660    0.09360    1.000
    H72      H        0.05170    0.43810    0.18490    1.000
    C1       C        0.22990    0.20440    0.36310    1.000
    C2       C        0.47650    0.02140    0.03080    1.000
    C3       C        0.20610    0.19300    0.43820    1.000
    C4       C        0.27000    0.14170    0.54540    1.000
    C5       C        0.31770    0.10180    0.08350    1.000
    C6       C        0.35790    0.06220    0.03000    1.000
    C7       C        0.29720    0.15420    0.47770    1.000
    C8       C        0.06510    0.20700    0.53540    1.000
    C9       C        0.08980    0.21910    0.46690    1.000
    C10      C        0.15530    0.16860    0.57410    1.000
    C11      C        0.54540    0.02160    0.09010    1.000
    C12      C        0.50260    0.06260    0.14500    1.000
    C13      C        0.22990    0.29560    0.13690    1.000
    C14      C        0.47650    0.47860    0.46920    1.000
    C15      C        0.20610    0.30700    0.06180    1.000
    C16      C        0.27000    0.35830    0.95460    1.000
    C17      C        0.31770    0.39820    0.41650    1.000
    C18      C        0.35790    0.43780    0.47000    1.000
    C19      C        0.29720    0.34580    0.02230    1.000
    C20      C        0.06510    0.29300    0.96460    1.000
    C21      C        0.08980    0.28090    0.03310    1.000
    C22      C        0.15530    0.33140    0.92590    1.000
    C23      C        0.54540    0.47840    0.40990    1.000
    C24      C        0.50260    0.43740    0.35500    1.000
    C25      C        0.27010    0.79560    0.86310    1.000
    C26      C        0.02350    0.97860    0.53080    1.000
    C27      C        0.29390    0.80700    0.93820    1.000
    C28      C        0.23000    0.85830    0.04540    1.000
    C29      C        0.18230    0.89820    0.58350    1.000
    C30      C        0.14210    0.93780    0.53000    1.000
    C31      C        0.20280    0.84580    0.97770    1.000
    C32      C        0.43490    0.79300    0.03540    1.000
    C33      C        0.41020    0.78090    0.96690    1.000
    C34      C        0.34470    0.83140    0.07410    1.000
    C35      C        0.95460    0.97840    0.59010    1.000
    C36      C        0.99740    0.93740    0.64500    1.000
    C37      C        0.27010    0.70440    0.63690    1.000
    C38      C        0.02350    0.52140    0.96920    1.000
    C39      C        0.29390    0.69300    0.56180    1.000
    C40      C        0.23000    0.64170    0.45460    1.000
    C41      C        0.18230    0.60180    0.91650    1.000
    C42      C        0.14210    0.56220    0.97000    1.000
    C43      C        0.20280    0.65420    0.52230    1.000
    C44      C        0.43490    0.70700    0.46460    1.000
    C45      C        0.41020    0.71910    0.53310    1.000
    C46      C        0.34470    0.66860    0.42590    1.000
    C47      C        0.95460    0.52160    0.90990    1.000
    C48      C        0.99740    0.56260    0.85500    1.000
    C49      C        0.77010    0.79560    0.63690    1.000
    C50      C        0.52350    0.97860    0.96920    1.000
    C51      C        0.79390    0.80700    0.56180    1.000
    C52      C        0.73000    0.85830    0.45460    1.000
    C53      C        0.68230    0.89820    0.91650    1.000
    C54      C        0.64210    0.93780    0.97000    1.000
    C55      C        0.70280    0.84580    0.52230    1.000
    C56      C        0.93490    0.79300    0.46460    1.000
    C57      C        0.91020    0.78090    0.53310    1.000
    C58      C        0.84470    0.83140    0.42590    1.000
    C59      C        0.45460    0.97840    0.90990    1.000
    C60      C        0.49740    0.93740    0.85500    1.000
    C61      C        0.77010    0.70440    0.86310    1.000
    C62      C        0.52350    0.52140    0.53080    1.000
    C63      C        0.79390    0.69300    0.93820    1.000
    C64      C        0.73000    0.64170    0.04540    1.000
    C65      C        0.68230    0.60180    0.58350    1.000
    C66      C        0.64210    0.56220    0.53000    1.000
    C67      C        0.70280    0.65420    0.97770    1.000
    C68      C        0.93490    0.70700    0.03540    1.000
    C69      C        0.91020    0.71910    0.96690    1.000
    C70      C        0.84470    0.66860    0.07410    1.000
    C71      C        0.45460    0.52160    0.59010    1.000
    C72      C        0.49740    0.56260    0.64500    1.000
    C73      C        0.72990    0.20440    0.13690    1.000
    C74      C        0.97650    0.02140    0.46920    1.000
    C75      C        0.70610    0.19300    0.06180    1.000
    C76      C        0.77000    0.14170    0.95460    1.000
    C77      C        0.81770    0.10180    0.41650    1.000
    C78      C        0.85790    0.06220    0.47000    1.000
    C79      C        0.79720    0.15420    0.02230    1.000
    C80      C        0.56510    0.20700    0.96460    1.000
    C81      C        0.58980    0.21910    0.03310    1.000
    C82      C        0.65530    0.16860    0.92590    1.000
    C83      C        0.04540    0.02160    0.40990    1.000
    C84      C        0.00260    0.06260    0.35500    1.000
    C85      C        0.72990    0.29560    0.36310    1.000
    C86      C        0.97650    0.47860    0.03080    1.000
    C87      C        0.70610    0.30700    0.43820    1.000
    C88      C        0.77000    0.35830    0.54540    1.000
    C89      C        0.81770    0.39820    0.08350    1.000
    C90      C        0.85790    0.43780    0.03000    1.000
    C91      C        0.79720    0.34580    0.47770    1.000
    C92      C        0.56510    0.29300    0.53540    1.000
    C93      C        0.58980    0.28090    0.46690    1.000
    C94      C        0.65530    0.33140    0.57410    1.000
    C95      C        0.04540    0.47840    0.09010    1.000
    C96      C        0.00260    0.43740    0.14500    1.000
    N1       N        0.39300    0.10260    0.14150    1.000
    N2       N        0.39300    0.39740    0.35850    1.000
    N3       N        0.10700    0.89740    0.64150    1.000
    N4       N        0.10700    0.60260    0.85850    1.000
    N5       N        0.60700    0.89740    0.85850    1.000
    N6       N        0.60700    0.60260    0.64150    1.000
    N7       N        0.89300    0.10260    0.35850    1.000
    N8       N        0.89300    0.39740    0.14150    1.000
    O1       O        0.35250    0.14490    0.19425    1.000
    O2       O        0.34500    0.19820    0.34085    1.000
    O3       O        0.12970    0.21980    0.32811    1.000
    O4       O        0.35250    0.35510    0.30575    1.000
    O5       O        0.34500    0.30180    0.15915    1.000
    O6       O        0.12970    0.28020    0.17189    1.000
    O7       O        0.14750    0.85510    0.69425    1.000
    O8       O        0.15500    0.80180    0.84085    1.000
    O9       O        0.37030    0.78020    0.82811    1.000
    O10      O        0.14750    0.64490    0.80575    1.000
    O11      O        0.15500    0.69820    0.65915    1.000
    O12      O        0.37030    0.71980    0.67189    1.000
    O13      O        0.64750    0.85510    0.80575    1.000
    O14      O        0.65500    0.80180    0.65915    1.000
    O15      O        0.87030    0.78020    0.67189    1.000
    O16      O        0.64750    0.64490    0.69425    1.000
    O17      O        0.65500    0.69820    0.84085    1.000
    O18      O        0.87030    0.71980    0.82811    1.000
    O19      O        0.85250    0.14490    0.30575    1.000
    O20      O        0.84500    0.19820    0.15915    1.000
    O21      O        0.62970    0.21980    0.17189    1.000
    O22      O        0.85250    0.35510    0.19425    1.000
    O23      O        0.84500    0.30180    0.34085    1.000
    O24      O        0.62970    0.28020    0.32811    1.000
