data_functionalizedCrystal
_audit_creation_method	'EQeq! by Chris Wilmer'
_symmetry_space_group_name_H-M	'P1'
_symmetry_Int_Tables_number	1
_symmetry_cell_setting	triclinic
loop_
_symmetry_equiv_pos_as_xyz
  x,y,z
_cell_length_a	10.6187
_cell_length_b	15.777
_cell_length_c	18.958
_cell_angle_alpha	97.359
_cell_angle_beta	90
_cell_angle_gamma	90
loop_
_atom_site_label
_atom_site_type_symbol
_atom_site_fract_x
_atom_site_fract_y
_atom_site_fract_z
_atom_site_charge
Mof_Cd	Cd	0.57917	0.95804	0.57373	0.5
Mof_Cd	Cd	0.42083	0.04196	0.42627	0.446
Mof_Cd	Cd	0.57917	0.04196	0.92627	0.446
Mof_Cd	Cd	0.48533	0	0.75	0.482
Mof_Cd	Cd	0.51467	0	0.25	0.481
Mof_Cd	Cd	0.42083	0.95804	0.07373	0.498
Mof_H 	H 	0.3481	0.3469	0.7615	0.152
Mof_H 	H 	0.16	0.8142	0.7178	0.003
Mof_H 	H 	0.8726	0.6759	0.9878	0.155
Mof_H 	H 	0.808	0.3285	0.0664	0.156
Mof_H 	H 	0.1274	0.3241	0.0122	0.155
Mof_H 	H 	0.7005	0.2035	0.0343	-0.005
Mof_H 	H 	0.2995	0.2035	0.5343	-0.005
Mof_H 	H 	0.192	0.6715	0.9336	0.156
Mof_H 	H 	0.6519	0.6531	0.2385	0.151
Mof_H 	H 	0.7803	0.7814	0.8774	0.151
Mof_H 	H 	0.16	0.1858	0.7822	-0.005
Mof_H 	H 	0.0043	0.29	0.8111	0.138
Mof_H 	H 	0.7005	0.7965	0.4657	-0.001
Mof_H 	H 	0.7923	0.5164	0.5865	0.223
Mof_H 	H 	0.9884	0.3511	0.6911	0.204
Mof_H 	H 	0.6897	0.3163	0.858	-0.004
Mof_H 	H 	0.2077	0.4836	0.4135	0.223
Mof_H 	H 	0.192	0.3285	0.5664	0.156
Mof_H 	H 	0.1274	0.6759	0.4878	0.154
Mof_H 	H 	0.7229	0.5865	0.7247	0.148
Mof_H 	H 	0.2077	0.5164	0.0865	0.223
Mof_H 	H 	0.2197	0.2186	0.1226	0.149
Mof_H 	H 	0.5469	0.2186	0.2287	-0.005
Mof_H 	H 	0.7315	0.7866	0.0138	-0.006
Mof_H 	H 	0.2771	0.4135	0.2753	0.15
Mof_H 	H 	0.0116	0.3511	0.1911	0.204
Mof_H 	H 	0.7412	0.8778	0.7976	0.005
Mof_H 	H 	0.1637	0.5543	0.6251	0.224
Mof_H 	H 	0.7315	0.2134	0.4862	-0.01
Mof_H 	H 	0.5469	0.7814	0.2713	-0.003
Mof_H 	H 	0.7229	0.4135	0.7753	0.15
Mof_H 	H 	0.2685	0.2134	0.9862	-0.011
Mof_H 	H 	0.2197	0.7814	0.3774	0.151
Mof_H 	H 	0.7803	0.2186	0.6226	0.149
Mof_H 	H 	0.808	0.6715	0.4336	0.156
Mof_H 	H 	0.84	0.1858	0.2822	-0.005
Mof_H 	H 	0.9957	0.29	0.3111	0.138
Mof_H 	H 	0.2588	0.8778	0.2976	0.005
Mof_H 	H 	0.3103	0.3163	0.358	-0.004
Mof_H 	H 	0.4531	0.7814	0.7713	-0.003
Mof_H 	H 	0.8363	0.4457	0.3749	0.224
Mof_H 	H 	0.6897	0.6837	0.642	-0.001
Mof_H 	H 	0.9957	0.71	0.1889	0.138
Mof_H 	H 	0.2995	0.7965	0.9657	-0.001
Mof_H 	H 	0.2588	0.1222	0.2024	-0.013
Mof_H 	H 	0.0116	0.6489	0.3089	0.205
Mof_H 	H 	0.1637	0.4457	0.8749	0.224
Mof_H 	H 	0.8726	0.3241	0.5122	0.155
Mof_H 	H 	0.3481	0.6531	0.7385	0.151
Mof_H 	H 	0.7923	0.4836	0.9135	0.223
Mof_H 	H 	0.3103	0.6837	0.142	-0.001
Mof_H 	H 	0.8363	0.5543	0.1251	0.224
Mof_H 	H 	0.9884	0.6489	0.8089	0.205
Mof_H 	H 	0.7412	0.1222	0.7024	-0.013
Mof_H 	H 	0.2771	0.5865	0.2247	0.148
Mof_H 	H 	0.0043	0.71	0.6889	0.138
Mof_H 	H 	0.84	0.8142	0.2178	0.003
Mof_H 	H 	0.6519	0.3469	0.2615	0.152
Mof_H 	H 	0.4531	0.2186	0.7287	-0.005
Mof_H 	H 	0.2685	0.7866	0.5138	-0.006
Mof_C 	C 	0.0507	0.6843	0.5856	0.309
Mof_C 	C 	0.126	0.4269	0.1393	0.423
Mof_C 	C 	0.8689	0.2946	0.4665	-0.299
Mof_C 	C 	0.7085	0.7902	0.7129	-0.18
Mof_C 	C 	0.0507	0.3157	0.9144	0.312
Mof_C 	C 	0.0232	0.454	0.3974	0.439
Mof_C 	C 	0.6731	0.8513	0.6621	0.328
Mof_C 	C 	0.3263	0.1203	0.8647	0.341
Mof_C 	C 	0.546	0.8852	0.3912	0.37
Mof_C 	C 	0.1311	0.7054	0.5335	-0.292
Mof_C 	C 	0.8673	0.4995	0.6059	-0.473
Mof_C 	C 	0.7557	0.6937	0.4012	-0.304
Mof_C 	C 	0.7717	0.1883	0.3828	-0.186
Mof_C 	C 	0.7259	0.645	0.7392	-0.292
Mof_C 	C 	0.2172	0.2295	0.9504	0.169
Mof_C 	C 	0.2443	0.6937	0.9012	-0.304
Mof_C 	C 	0.3867	0.1957	0.6282	-0.207
Mof_C 	C 	0.2948	0.7034	0.1896	0.149
Mof_C 	C 	0.546	0.1148	0.1088	0.373
Mof_C 	C 	0.2593	0.3483	0.6674	0.317
Mof_C 	C 	0.9856	0.3997	0.6681	-0.475
Mof_C 	C 	0.874	0.5731	0.8607	0.423
Mof_C 	C 	0.7085	0.2098	0.7871	-0.192
Mof_C 	C 	0.3376	0.3173	0.7162	-0.287
Mof_C 	C 	0.7052	0.7034	0.6896	0.149
Mof_C 	C 	0.3269	0.8513	0.1621	0.328
Mof_C 	C 	0.6624	0.3173	0.2162	-0.286
Mof_C 	C 	0.2283	0.8117	0.6172	-0.176
Mof_C 	C 	0.7407	0.6517	0.3326	0.316
Mof_C 	C 	0.1311	0.2946	0.9665	-0.299
Mof_C 	C 	0.059	0.7246	0.6541	-0.278
Mof_C 	C 	0.454	0.1148	0.6088	0.374
Mof_C 	C 	0.9493	0.6843	0.0856	0.31
Mof_C 	C 	0.7502	0.3244	0.6914	0.325
Mof_C 	C 	0.7407	0.3483	0.1674	0.317
Mof_C 	C 	0.2741	0.355	0.2608	-0.299
Mof_C 	C 	0.3269	0.1487	0.3379	0.335
Mof_C 	C 	0.2408	0.7618	0.3306	-0.298
Mof_C 	C 	0.9768	0.546	0.6026	0.438
Mof_C 	C 	0.2498	0.6756	0.3086	0.32
Mof_C 	C 	0.9493	0.3157	0.4144	0.311
Mof_C 	C 	0.3263	0.8797	0.6353	0.34
Mof_C 	C 	0.8673	0.5005	0.8941	-0.474
Mof_C 	C 	0.8491	0.2118	0.3287	0.146
Mof_C 	C 	0.7369	0.1806	0.7173	0.173
Mof_C 	C 	0.0144	0.6003	0.3319	-0.475
Mof_C 	C 	0.9068	0.4492	0.1607	0.447
Mof_C 	C 	0.2631	0.1806	0.2173	0.173
Mof_C 	C 	0.5994	0.7595	0.3039	0.167
Mof_C 	C 	0.9856	0.6003	0.8319	-0.475
Mof_C 	C 	0.2631	0.8194	0.2827	0.163
Mof_C 	C 	0.6133	0.1957	0.1282	-0.207
Mof_C 	C 	0.2915	0.7902	0.2129	-0.18
Mof_C 	C 	0.7502	0.6756	0.8086	0.32
Mof_C 	C 	0.7052	0.2966	0.8104	0.156
Mof_C 	C 	0.059	0.2754	0.8459	-0.285
Mof_C 	C 	0.2593	0.6517	0.8326	0.316
Mof_C 	C 	0.2283	0.1883	0.8828	-0.187
Mof_C 	C 	0.2498	0.3244	0.1914	0.325
Mof_C 	C 	0.7259	0.355	0.7608	-0.299
Mof_C 	C 	0.874	0.4269	0.6393	0.423
Mof_C 	C 	0.9068	0.5508	0.3393	0.448
Mof_C 	C 	0.0912	0.4779	0.8711	-0.493
Mof_C 	C 	0.6737	0.1203	0.3647	0.341
Mof_C 	C 	0.6737	0.8797	0.1353	0.34
Mof_C 	C 	0.9768	0.454	0.8974	0.439
Mof_C 	C 	0.6133	0.8043	0.3718	-0.199
Mof_C 	C 	0.2172	0.7705	0.5496	0.164
Mof_C 	C 	0.7592	0.2382	0.6694	-0.308
Mof_C 	C 	0.5994	0.2405	0.1961	0.17
Mof_C 	C 	0.2915	0.2098	0.2871	-0.192
Mof_C 	C 	0.8689	0.7054	0.0335	-0.294
Mof_C 	C 	0.6624	0.6827	0.2838	-0.284
Mof_C 	C 	0.9088	0.4779	0.3711	-0.493
Mof_C 	C 	0.6731	0.1487	0.8379	0.335
Mof_C 	C 	0.8491	0.7882	0.1713	0.144
Mof_C 	C 	0.1509	0.2118	0.8287	0.147
Mof_C 	C 	0.4006	0.2405	0.6961	0.17
Mof_C 	C 	0.7828	0.7705	0.0496	0.166
Mof_C 	C 	0.3376	0.6827	0.7838	-0.284
Mof_C 	C 	0.1327	0.4995	0.1059	-0.474
Mof_C 	C 	0.0912	0.5221	0.6289	-0.492
Mof_C 	C 	0.6917	0.7685	0.4197	0.178
Mof_C 	C 	0.7717	0.8117	0.1172	-0.177
Mof_C 	C 	0.0144	0.3997	0.1681	-0.475
Mof_C 	C 	0.2948	0.2966	0.3104	0.156
Mof_C 	C 	0.3083	0.7685	0.9197	0.178
Mof_C 	C 	0.1509	0.7882	0.6713	0.143
Mof_C 	C 	0.1327	0.5005	0.3941	-0.474
Mof_C 	C 	0.2741	0.645	0.2392	-0.292
Mof_C 	C 	0.7828	0.2295	0.4504	0.168
Mof_C 	C 	0.2408	0.2382	0.1694	-0.308
Mof_C 	C 	0.7557	0.3063	0.0988	-0.308
Mof_C 	C 	0.7592	0.7618	0.8306	-0.298
Mof_C 	C 	0.126	0.5731	0.3607	0.423
Mof_C 	C 	0.3867	0.8043	0.8718	-0.199
Mof_C 	C 	0.6917	0.2315	0.0803	0.18
Mof_C 	C 	0.4006	0.7595	0.8039	0.167
Mof_C 	C 	0.2443	0.3063	0.5988	-0.308
Mof_C 	C 	0.9088	0.5221	0.1289	-0.492
Mof_C 	C 	0.7369	0.8194	0.7827	0.163
Mof_C 	C 	0.0232	0.546	0.1026	0.438
Mof_C 	C 	0.454	0.8852	0.8912	0.369
Mof_C 	C 	0.3083	0.2315	0.5803	0.18
Mof_C 	C 	0.941	0.2754	0.3459	-0.285
Mof_C 	C 	0.0932	0.5508	0.8393	0.448
Mof_C 	C 	0.941	0.7246	0.1541	-0.279
Mof_C 	C 	0.0932	0.4492	0.6607	0.447
Mof_O 	O 	0.3461	0.9065	0.6995	-0.271
Mof_O 	O 	0.2059	0.5719	0.8096	-0.333
Mof_O 	O 	0.5422	0.0815	0.0447	-0.317
Mof_O 	O 	0.7612	0.382	0.6419	-0.344
Mof_O 	O 	0.4578	0.9185	0.9553	-0.291
Mof_O 	O 	0.6164	0.0941	0.4177	-0.281
Mof_O 	O 	0.6483	0.0706	0.8127	-0.302
Mof_O 	O 	0.0377	0.6187	0.0681	-0.335
Mof_O 	O 	0.6483	0.9294	0.6873	-0.275
Mof_O 	O 	0.6164	0.9059	0.0823	-0.263
Mof_O 	O 	0.3461	0.0935	0.8005	-0.293
Mof_O 	O 	0.665	0.1721	0.9033	-0.279
Mof_O 	O 	0.7612	0.618	0.8581	-0.342
Mof_O 	O 	0.3517	0.9294	0.1873	-0.275
Mof_O 	O 	0.9623	0.3813	0.9319	-0.337
Mof_O 	O 	0.4948	0.0772	0.1557	-0.325
Mof_O 	O 	0.9623	0.6187	0.5681	-0.335
Mof_O 	O 	0.5052	0.0772	0.6557	-0.325
Mof_O 	O 	0.7941	0.4281	0.1904	-0.333
Mof_O 	O 	0.3836	0.0941	0.9177	-0.281
Mof_O 	O 	0.5422	0.9185	0.4553	-0.291
Mof_O 	O 	0.7941	0.5719	0.3096	-0.333
Mof_O 	O 	0.3517	0.0706	0.3127	-0.302
Mof_O 	O 	0.335	0.1721	0.4033	-0.279
Mof_O 	O 	0.665	0.8279	0.5967	-0.276
Mof_O 	O 	0.2059	0.4281	0.6904	-0.333
Mof_O 	O 	0.4948	0.9228	0.3443	-0.29
Mof_O 	O 	0.6539	0.0935	0.3005	-0.293
Mof_O 	O 	0.335	0.8279	0.0967	-0.276
Mof_O 	O 	0.4578	0.0815	0.5447	-0.318
Mof_O 	O 	0.6539	0.9065	0.1995	-0.271
Mof_O 	O 	0.3836	0.9059	0.5823	-0.263
Mof_O 	O 	0.2388	0.618	0.3581	-0.342
Mof_O 	O 	0.5052	0.9228	0.8443	-0.29
Mof_O 	O 	0.0377	0.3813	0.4319	-0.337
Mof_O 	O 	0.2388	0.382	0.1419	-0.344
_end
