data_functionalizedCrystal
_audit_creation_method	'EQeq! by Chris Wilmer'
_symmetry_space_group_name_H-M	'P1'
_symmetry_Int_Tables_number	1
_symmetry_cell_setting	triclinic
loop_
_symmetry_equiv_pos_as_xyz
  x,y,z
_cell_length_a	27.742
_cell_length_b	13.8719
_cell_length_c	44.522
_cell_angle_alpha	90
_cell_angle_beta	90
_cell_angle_gamma	90
loop_
_atom_site_label
_atom_site_type_symbol
_atom_site_fract_x
_atom_site_fract_y
_atom_site_fract_z
_atom_site_charge
Mof_Zn	Zn	0.5244	0.88176	0.58515	1.163
Mof_Zn	Zn	0.54604	0.64231	0.4123	1.163
Mof_Zn	Zn	0.26057	0.1814	0.81989	1.164
Mof_I 	I 	0.50673	0.8043	0.53406	-0.393
Mof_I 	I 	0.57321	0.79744	0.62516	-0.372
Mof_I 	I 	0.48084	0.55568	0.38298	-0.365
Mof_I 	I 	0.55651	0.82418	0.41514	-0.385
Mof_I 	I 	0.17167	0.17832	0.83433	-0.374
Mof_I 	I 	0.30272	0.34292	0.81252	-0.373
Mof_C 	C 	0.54949	0.0573	0.54983	0.077
Mof_H 	H 	0.535	0.0217	0.534	-0.009
Mof_C 	C 	0.56437	0.1503	0.54406	-0.132
Mof_H 	H 	0.5606	0.1778	0.5247	0.092
Mof_C 	C 	0.57504	0.0662	0.59874	0.074
Mof_H 	H 	0.579	0.0366	0.6178	-0.007
Mof_C 	C 	0.59063	0.1596	0.59508	-0.133
Mof_H 	H 	0.6049	0.1936	0.6113	0.099
Mof_C 	C 	0.58512	0.203	0.56741	0.055
Mof_C 	C 	0.5989	0.3057	0.5627	0.088
Mof_C 	C 	0.6995	0.5048	0.65009	0.075
Mof_H 	H 	0.7133	0.4724	0.6668	-0.013
Mof_C 	C 	0.6772	0.4506	0.62825	-0.123
Mof_H 	H 	0.6754	0.3824	0.63	0.084
Mof_C 	C 	0.6832	0.6449	0.62542	0.077
Mof_H 	H 	0.6848	0.7132	0.6244	-0.013
Mof_C 	C 	0.6604	0.5962	0.60231	-0.117
Mof_H 	H 	0.6471	0.6304	0.5858	0.081
Mof_C 	C 	0.65754	0.4968	0.60376	0.065
Mof_C 	C 	0.63244	0.4423	0.57966	0.103
Mof_C 	C 	0.571	0.634	0.47768	0.064
Mof_H 	H 	0.576	0.7013	0.4754	-0.003
Mof_C 	C 	0.5843	0.5906	0.50453	-0.111
Mof_H 	H 	0.5981	0.6278	0.5203	0.077
Mof_C 	C 	0.54244	0.4898	0.45889	0.064
Mof_H 	H 	0.5269	0.4551	0.4432	-0.012
Mof_C 	C 	0.55489	0.4413	0.48485	-0.118
Mof_H 	H 	0.5485	0.3744	0.4869	0.09
Mof_C 	C 	0.57704	0.4927	0.50808	0.051
Mof_C 	C 	0.59312	0.4414	0.53565	0.098
Mof_C 	C 	0.11239	0.9366	0.63372	0.056
Mof_H 	H 	0.083	0.9461	0.6442	-0.008
Mof_C 	C 	0.15513	0.9547	0.64838	-0.113
Mof_H 	H 	0.1551	0.975	0.6687	0.079
Mof_C 	C 	0.15249	0.8959	0.59018	0.068
Mof_H 	H 	0.1515	0.8753	0.5698	-0.013
Mof_C 	C 	0.19698	0.914	0.60311	-0.117
Mof_H 	H 	0.2259	0.9071	0.5919	0.078
Mof_C 	C 	0.19809	0.9427	0.63309	0.05
Mof_C 	C 	0.24456	0.9577	0.64892	0.104
Mof_C 	C 	0.41766	0.9061	0.5907	0.07
Mof_H 	H 	0.4182	0.8881	0.5701	-0.009
Mof_C 	C 	0.37313	0.9214	0.60446	-0.11
Mof_H 	H 	0.344	0.914	0.5935	0.079
Mof_C 	C 	0.45825	0.9428	0.63419	0.068
Mof_H 	H 	0.4879	0.9508	0.6446	-0.008
Mof_C 	C 	0.41572	0.9594	0.6496	-0.11
Mof_H 	H 	0.4162	0.9786	0.6701	0.079
Mof_C 	C 	0.37222	0.9475	0.63457	0.052
Mof_C 	C 	0.32571	0.9601	0.65006	0.101
Mof_C 	C 	0.3132	0.1055	0.76672	0.067
Mof_H 	H 	0.3402	0.1319	0.7769	-0.01
Mof_C 	C 	0.31948	0.0689	0.73839	-0.118
Mof_H 	H 	0.3504	0.0691	0.7293	0.08
Mof_C 	C 	0.23269	0.0668	0.76665	0.06
Mof_H 	H 	0.2026	0.0643	0.7768	0.001
Mof_C 	C 	0.23582	0.0296	0.73758	-0.11
Mof_H 	H 	0.2082	0.0036	0.7279	0.08
Mof_C 	C 	0.28007	0.0316	0.72324	0.051
Mof_C 	C 	0.28329	0.9981	0.69165	0.102
Mof_N 	N 	0.5545	0.0149	0.57657	-0.274
Mof_N 	N 	0.70279	0.6016	0.6489	-0.277
Mof_N 	N 	0.55151	0.5847	0.45488	-0.27
Mof_N 	N 	0.62529	0.3482	0.58407	-0.134
Mof_N 	N 	0.6178	0.4927	0.55574	-0.139
Mof_N 	N 	0.58172	0.3484	0.53809	-0.144
Mof_N 	N 	0.11071	0.906	0.60502	-0.27
Mof_N 	N 	0.45943	0.9159	0.60519	-0.268
Mof_N 	N 	0.27037	0.1056	0.78072	-0.272
Mof_N 	N 	0.28566	0.945	0.63402	-0.139
Mof_N 	N 	0.32709	0.987	0.67923	-0.138
Mof_N 	N 	0.24137	0.9837	0.67777	-0.14
Mof_Zn	Zn	0.9756	0.11824	0.08515	1.164
Mof_Zn	Zn	0.95396	0.35769	0.9123	1.164
Mof_Zn	Zn	0.23943	0.8186	0.31989	1.165
Mof_I 	I 	0.99327	0.1957	0.03406	-0.393
Mof_I 	I 	0.92679	0.20256	0.12516	-0.372
Mof_I 	I 	0.01916	0.44432	0.88298	-0.363
Mof_I 	I 	0.94349	0.17582	0.91514	-0.384
Mof_I 	I 	0.32833	0.82168	0.33433	-0.373
Mof_I 	I 	0.19728	0.65708	0.31252	-0.372
Mof_C 	C 	0.95051	0.9427	0.04983	0.078
Mof_H 	H 	0.965	0.9783	0.034	-0.008
Mof_C 	C 	0.93563	0.8497	0.04406	-0.131
Mof_H 	H 	0.9394	0.8222	0.0247	0.093
Mof_C 	C 	0.92496	0.9338	0.09874	0.075
Mof_H 	H 	0.921	0.9634	0.1178	-0.006
Mof_C 	C 	0.90937	0.8404	0.09508	-0.132
Mof_H 	H 	0.8951	0.8064	0.1113	0.099
Mof_C 	C 	0.91488	0.797	0.06741	0.055
Mof_C 	C 	0.9011	0.6943	0.0627	0.088
Mof_C 	C 	0.8005	0.4952	0.15009	0.075
Mof_H 	H 	0.7867	0.5276	0.1668	-0.013
Mof_C 	C 	0.8228	0.5494	0.12825	-0.123
Mof_H 	H 	0.8246	0.6176	0.13	0.084
Mof_C 	C 	0.8168	0.3551	0.12542	0.077
Mof_H 	H 	0.8152	0.2868	0.1244	-0.013
Mof_C 	C 	0.8396	0.4038	0.10231	-0.117
Mof_H 	H 	0.8529	0.3696	0.0858	0.081
Mof_C 	C 	0.84246	0.5032	0.10376	0.065
Mof_C 	C 	0.86756	0.5577	0.07966	0.103
Mof_C 	C 	0.929	0.366	0.97768	0.064
Mof_H 	H 	0.924	0.2987	0.9754	-0.003
Mof_C 	C 	0.9157	0.4094	0.00453	-0.111
Mof_H 	H 	0.9019	0.3722	0.0203	0.077
Mof_C 	C 	0.95756	0.5102	0.95889	0.064
Mof_H 	H 	0.9731	0.5449	0.9432	-0.012
Mof_C 	C 	0.94511	0.5587	0.98485	-0.118
Mof_H 	H 	0.9515	0.6256	0.9869	0.09
Mof_C 	C 	0.92296	0.5073	0.00808	0.051
Mof_C 	C 	0.90688	0.5586	0.03565	0.098
Mof_C 	C 	0.38761	0.0634	0.13372	0.057
Mof_H 	H 	0.417	0.0539	0.1442	-0.008
Mof_C 	C 	0.34487	0.0453	0.14838	-0.113
Mof_H 	H 	0.3449	0.025	0.1687	0.079
Mof_C 	C 	0.34751	0.1041	0.09018	0.068
Mof_H 	H 	0.3485	0.1247	0.0698	-0.013
Mof_C 	C 	0.30302	0.086	0.10311	-0.117
Mof_H 	H 	0.2741	0.0929	0.0919	0.078
Mof_C 	C 	0.30191	0.0573	0.13309	0.05
Mof_C 	C 	0.25544	0.0423	0.14892	0.104
Mof_C 	C 	0.08234	0.0939	0.0907	0.07
Mof_H 	H 	0.0818	0.1119	0.0701	-0.009
Mof_C 	C 	0.12687	0.0786	0.10446	-0.11
Mof_H 	H 	0.156	0.086	0.0935	0.079
Mof_C 	C 	0.04175	0.0572	0.13419	0.068
Mof_H 	H 	0.0121	0.0492	0.1446	-0.008
Mof_C 	C 	0.08428	0.0406	0.1496	-0.11
Mof_H 	H 	0.0838	0.0214	0.1701	0.08
Mof_C 	C 	0.12778	0.0525	0.13457	0.052
Mof_C 	C 	0.17429	0.0399	0.15006	0.101
Mof_C 	C 	0.1868	0.8945	0.26672	0.067
Mof_H 	H 	0.1598	0.8681	0.2769	-0.01
Mof_C 	C 	0.18052	0.9311	0.23839	-0.117
Mof_H 	H 	0.1496	0.9309	0.2293	0.08
Mof_C 	C 	0.26731	0.9332	0.26665	0.059
Mof_H 	H 	0.2974	0.9357	0.2768	0.001
Mof_C 	C 	0.26418	0.9704	0.23758	-0.11
Mof_H 	H 	0.2918	0.9964	0.2279	0.08
Mof_C 	C 	0.21993	0.9684	0.22324	0.05
Mof_C 	C 	0.21671	0.0019	0.19165	0.103
Mof_N 	N 	0.9455	0.9851	0.07657	-0.273
Mof_N 	N 	0.79721	0.3984	0.1489	-0.277
Mof_N 	N 	0.94849	0.4153	0.95488	-0.27
Mof_N 	N 	0.87471	0.6518	0.08407	-0.134
Mof_N 	N 	0.8822	0.5073	0.05574	-0.139
Mof_N 	N 	0.91828	0.6516	0.03809	-0.144
Mof_N 	N 	0.38929	0.094	0.10502	-0.27
Mof_N 	N 	0.04057	0.0841	0.10519	-0.267
Mof_N 	N 	0.22963	0.8944	0.28072	-0.272
Mof_N 	N 	0.21434	0.055	0.13402	-0.139
Mof_N 	N 	0.17291	0.013	0.17923	-0.138
Mof_N 	N 	0.25863	0.0163	0.17777	-0.14
Mof_Zn	Zn	0.4756	0.38176	0.91485	1.164
Mof_Zn	Zn	0.45396	0.14231	0.0877	1.164
Mof_Zn	Zn	0.73943	0.6814	0.68011	1.165
Mof_I 	I 	0.49327	0.3043	0.96594	-0.392
Mof_I 	I 	0.42679	0.29744	0.87484	-0.371
Mof_I 	I 	0.51916	0.05568	0.11702	-0.364
Mof_I 	I 	0.44349	0.32418	0.08486	-0.384
Mof_I 	I 	0.82833	0.67832	0.66567	-0.373
Mof_I 	I 	0.69728	0.84292	0.68748	-0.372
Mof_C 	C 	0.45051	0.5573	0.95017	0.078
Mof_H 	H 	0.465	0.5217	0.966	-0.008
Mof_C 	C 	0.43563	0.6503	0.95594	-0.131
Mof_H 	H 	0.4394	0.6778	0.9753	0.093
Mof_C 	C 	0.42496	0.5662	0.90126	0.075
Mof_H 	H 	0.421	0.5366	0.8822	-0.006
Mof_C 	C 	0.40937	0.6596	0.90492	-0.132
Mof_H 	H 	0.3951	0.6936	0.8887	0.099
Mof_C 	C 	0.41488	0.703	0.93259	0.055
Mof_C 	C 	0.4011	0.8057	0.9373	0.088
Mof_C 	C 	0.3005	0.0048	0.84991	0.077
Mof_H 	H 	0.2867	0.9724	0.8332	-0.014
Mof_C 	C 	0.3228	0.9506	0.87175	-0.124
Mof_H 	H 	0.3246	0.8824	0.87	0.084
Mof_C 	C 	0.3168	0.1449	0.87458	0.077
Mof_H 	H 	0.3152	0.2132	0.8756	-0.013
Mof_C 	C 	0.3396	0.0962	0.89769	-0.117
Mof_H 	H 	0.3529	0.1304	0.9142	0.081
Mof_C 	C 	0.34246	0.9968	0.89624	0.064
Mof_C 	C 	0.36756	0.9423	0.92034	0.103
Mof_C 	C 	0.429	0.134	0.02232	0.064
Mof_H 	H 	0.424	0.2013	0.0246	-0.003
Mof_C 	C 	0.4157	0.0906	0.99547	-0.111
Mof_H 	H 	0.4019	0.1278	0.9797	0.077
Mof_C 	C 	0.45756	0.9898	0.04111	0.064
Mof_H 	H 	0.4731	0.9551	0.0568	-0.012
Mof_C 	C 	0.44511	0.9413	0.01515	-0.118
Mof_H 	H 	0.4515	0.8744	0.0131	0.09
Mof_C 	C 	0.42296	0.9927	0.99192	0.05
Mof_C 	C 	0.40688	0.9414	0.96435	0.098
Mof_C 	C 	0.88761	0.4366	0.86628	0.056
Mof_H 	H 	0.917	0.4461	0.8558	-0.008
Mof_C 	C 	0.84487	0.4547	0.85162	-0.113
Mof_H 	H 	0.8449	0.475	0.8313	0.079
Mof_C 	C 	0.84751	0.3959	0.90982	0.068
Mof_H 	H 	0.8485	0.3753	0.9302	-0.013
Mof_C 	C 	0.80302	0.414	0.89689	-0.117
Mof_H 	H 	0.7741	0.4071	0.9081	0.078
Mof_C 	C 	0.80191	0.4427	0.86691	0.05
Mof_C 	C 	0.75544	0.4577	0.85108	0.104
Mof_C 	C 	0.58234	0.4061	0.9093	0.07
Mof_H 	H 	0.5818	0.3881	0.9299	-0.009
Mof_C 	C 	0.62687	0.4214	0.89554	-0.11
Mof_H 	H 	0.656	0.414	0.9065	0.079
Mof_C 	C 	0.54175	0.4428	0.86581	0.068
Mof_H 	H 	0.5121	0.4508	0.8554	-0.008
Mof_C 	C 	0.58428	0.4594	0.8504	-0.11
Mof_H 	H 	0.5838	0.4786	0.8299	0.079
Mof_C 	C 	0.62778	0.4475	0.86543	0.052
Mof_C 	C 	0.67429	0.4601	0.84994	0.101
Mof_C 	C 	0.6868	0.6055	0.73328	0.067
Mof_H 	H 	0.6598	0.6319	0.7231	-0.01
Mof_C 	C 	0.68052	0.5689	0.76161	-0.117
Mof_H 	H 	0.6496	0.5691	0.7707	0.08
Mof_C 	C 	0.76731	0.5668	0.73335	0.059
Mof_H 	H 	0.7974	0.5643	0.7232	0.001
Mof_C 	C 	0.76418	0.5296	0.76242	-0.11
Mof_H 	H 	0.7918	0.5036	0.7721	0.08
Mof_C 	C 	0.71993	0.5316	0.77676	0.05
Mof_C 	C 	0.71671	0.4981	0.80835	0.102
Mof_N 	N 	0.4455	0.5149	0.92343	-0.274
Mof_N 	N 	0.29721	0.1016	0.8511	-0.277
Mof_N 	N 	0.44849	0.0847	0.04512	-0.27
Mof_N 	N 	0.37471	0.8482	0.91593	-0.134
Mof_N 	N 	0.3822	0.9927	0.94426	-0.139
Mof_N 	N 	0.41828	0.8484	0.96191	-0.144
Mof_N 	N 	0.88929	0.406	0.89498	-0.27
Mof_N 	N 	0.54057	0.4159	0.89481	-0.268
Mof_N 	N 	0.72963	0.6056	0.71928	-0.272
Mof_N 	N 	0.71434	0.445	0.86598	-0.139
Mof_N 	N 	0.67291	0.487	0.82077	-0.138
Mof_N 	N 	0.75863	0.4837	0.82223	-0.14
Mof_Zn	Zn	0.0244	0.61824	0.41485	1.164
Mof_Zn	Zn	0.04604	0.85769	0.5877	1.164
Mof_Zn	Zn	0.76057	0.3186	0.18011	1.165
Mof_I 	I 	0.00673	0.6957	0.46594	-0.392
Mof_I 	I 	0.07321	0.70256	0.37484	-0.371
Mof_I 	I 	0.98084	0.94432	0.61702	-0.363
Mof_I 	I 	0.05651	0.67582	0.58486	-0.384
Mof_I 	I 	0.67167	0.32168	0.16567	-0.373
Mof_I 	I 	0.80272	0.15708	0.18748	-0.372
Mof_C 	C 	0.04949	0.4427	0.45017	0.078
Mof_H 	H 	0.035	0.4783	0.466	-0.008
Mof_C 	C 	0.06437	0.3497	0.45594	-0.131
Mof_H 	H 	0.0606	0.3222	0.4753	0.093
Mof_C 	C 	0.07504	0.4338	0.40126	0.075
Mof_H 	H 	0.079	0.4634	0.3822	-0.006
Mof_C 	C 	0.09063	0.3404	0.40492	-0.132
Mof_H 	H 	0.1049	0.3064	0.3887	0.099
Mof_C 	C 	0.08512	0.297	0.43259	0.055
Mof_C 	C 	0.0989	0.1943	0.4373	0.088
Mof_C 	C 	0.1995	0.9952	0.34991	0.074
Mof_H 	H 	0.2133	0.0276	0.3332	-0.012
Mof_C 	C 	0.1772	0.0494	0.37175	-0.122
Mof_H 	H 	0.1754	0.1176	0.37	0.084
Mof_C 	C 	0.1832	0.8551	0.37458	0.077
Mof_H 	H 	0.1848	0.7868	0.3756	-0.013
Mof_C 	C 	0.1604	0.9038	0.39769	-0.118
Mof_H 	H 	0.1471	0.8696	0.4142	0.081
Mof_C 	C 	0.15754	0.0032	0.39624	0.065
Mof_C 	C 	0.13244	0.0577	0.42034	0.103
Mof_C 	C 	0.071	0.866	0.52232	0.065
Mof_H 	H 	0.076	0.7987	0.5246	-0.003
Mof_C 	C 	0.0843	0.9094	0.49547	-0.113
Mof_H 	H 	0.0981	0.8722	0.4797	0.078
Mof_C 	C 	0.04244	0.0102	0.54111	0.065
Mof_H 	H 	0.0269	0.0449	0.5568	-0.012
Mof_C 	C 	0.05489	0.0587	0.51515	-0.119
Mof_H 	H 	0.0485	0.1256	0.5131	0.091
Mof_C 	C 	0.07704	0.0073	0.49192	0.052
Mof_C 	C 	0.09312	0.0586	0.46435	0.098
Mof_C 	C 	0.61239	0.5634	0.36628	0.057
Mof_H 	H 	0.583	0.5539	0.3558	-0.008
Mof_C 	C 	0.65513	0.5453	0.35162	-0.113
Mof_H 	H 	0.6551	0.525	0.3313	0.079
Mof_C 	C 	0.65249	0.6041	0.40982	0.068
Mof_H 	H 	0.6515	0.6247	0.4302	-0.013
Mof_C 	C 	0.69698	0.586	0.39689	-0.117
Mof_H 	H 	0.7259	0.5929	0.4081	0.078
Mof_C 	C 	0.69809	0.5573	0.36691	0.05
Mof_C 	C 	0.74456	0.5423	0.35108	0.104
Mof_C 	C 	0.91766	0.5939	0.4093	0.07
Mof_H 	H 	0.9182	0.6119	0.4299	-0.009
Mof_C 	C 	0.87313	0.5786	0.39554	-0.11
Mof_H 	H 	0.844	0.586	0.4065	0.079
Mof_C 	C 	0.95825	0.5572	0.36581	0.068
Mof_H 	H 	0.9879	0.5492	0.3554	-0.008
Mof_C 	C 	0.91572	0.5406	0.3504	-0.11
Mof_H 	H 	0.9162	0.5214	0.3299	0.079
Mof_C 	C 	0.87222	0.5525	0.36543	0.052
Mof_C 	C 	0.82571	0.5399	0.34994	0.101
Mof_C 	C 	0.8132	0.3945	0.23328	0.067
Mof_H 	H 	0.8402	0.3681	0.2231	-0.01
Mof_C 	C 	0.81948	0.4311	0.26161	-0.117
Mof_H 	H 	0.8504	0.4309	0.2707	0.08
Mof_C 	C 	0.73269	0.4332	0.23335	0.059
Mof_H 	H 	0.7026	0.4357	0.2232	0.001
Mof_C 	C 	0.73582	0.4704	0.26242	-0.11
Mof_H 	H 	0.7082	0.4964	0.2721	0.08
Mof_C 	C 	0.78007	0.4684	0.27676	0.05
Mof_C 	C 	0.78329	0.5019	0.30835	0.102
Mof_N 	N 	0.0545	0.4851	0.42343	-0.274
Mof_N 	N 	0.20279	0.8984	0.3511	-0.276
Mof_N 	N 	0.05151	0.9153	0.54512	-0.271
Mof_N 	N 	0.12529	0.1518	0.41593	-0.134
Mof_N 	N 	0.1178	0.0073	0.44426	-0.139
Mof_N 	N 	0.08172	0.1516	0.46191	-0.144
Mof_N 	N 	0.61071	0.594	0.39498	-0.27
Mof_N 	N 	0.95943	0.5841	0.39481	-0.267
Mof_N 	N 	0.77037	0.3944	0.21928	-0.272
Mof_N 	N 	0.78566	0.555	0.36598	-0.139
Mof_N 	N 	0.82709	0.513	0.32077	-0.138
Mof_N 	N 	0.74137	0.5163	0.32223	-0.14
Mof_Zn	Zn	0.4756	0.11824	0.41485	1.164
Mof_Zn	Zn	0.45396	0.35769	0.5877	1.164
Mof_Zn	Zn	0.73943	0.8186	0.18011	1.165
Mof_I 	I 	0.49327	0.1957	0.46594	-0.392
Mof_I 	I 	0.42679	0.20256	0.37484	-0.371
Mof_I 	I 	0.51916	0.44432	0.61702	-0.364
Mof_I 	I 	0.44349	0.17582	0.58486	-0.384
Mof_I 	I 	0.82833	0.82168	0.16567	-0.373
Mof_I 	I 	0.69728	0.65708	0.18748	-0.372
Mof_C 	C 	0.45051	0.9427	0.45017	0.078
Mof_H 	H 	0.465	0.9783	0.466	-0.008
Mof_C 	C 	0.43563	0.8497	0.45594	-0.131
Mof_H 	H 	0.4394	0.8222	0.4753	0.093
Mof_C 	C 	0.42496	0.9338	0.40126	0.075
Mof_H 	H 	0.421	0.9634	0.3822	-0.006
Mof_C 	C 	0.40937	0.8404	0.40492	-0.132
Mof_H 	H 	0.3951	0.8064	0.3887	0.099
Mof_C 	C 	0.41488	0.797	0.43259	0.055
Mof_C 	C 	0.4011	0.6943	0.4373	0.088
Mof_C 	C 	0.3005	0.4952	0.34991	0.075
Mof_H 	H 	0.2867	0.5276	0.3332	-0.013
Mof_C 	C 	0.3228	0.5494	0.37175	-0.123
Mof_H 	H 	0.3246	0.6176	0.37	0.084
Mof_C 	C 	0.3168	0.3551	0.37458	0.077
Mof_H 	H 	0.3152	0.2868	0.3756	-0.013
Mof_C 	C 	0.3396	0.4038	0.39769	-0.117
Mof_H 	H 	0.3529	0.3696	0.4142	0.081
Mof_C 	C 	0.34246	0.5032	0.39624	0.065
Mof_C 	C 	0.36756	0.5577	0.42034	0.103
Mof_C 	C 	0.429	0.366	0.52232	0.064
Mof_H 	H 	0.424	0.2987	0.5246	-0.003
Mof_C 	C 	0.4157	0.4094	0.49547	-0.111
Mof_H 	H 	0.4019	0.3722	0.4797	0.077
Mof_C 	C 	0.45756	0.5102	0.54111	0.064
Mof_H 	H 	0.4731	0.5449	0.5568	-0.012
Mof_C 	C 	0.44511	0.5587	0.51515	-0.118
Mof_H 	H 	0.4515	0.6256	0.5131	0.09
Mof_C 	C 	0.42296	0.5073	0.49192	0.051
Mof_C 	C 	0.40688	0.5586	0.46435	0.098
Mof_C 	C 	0.88761	0.0634	0.36628	0.056
Mof_H 	H 	0.917	0.0539	0.3558	-0.008
Mof_C 	C 	0.84487	0.0453	0.35162	-0.113
Mof_H 	H 	0.8449	0.025	0.3313	0.079
Mof_C 	C 	0.84751	0.1041	0.40982	0.068
Mof_H 	H 	0.8485	0.1247	0.4302	-0.013
Mof_C 	C 	0.80302	0.086	0.39689	-0.117
Mof_H 	H 	0.7741	0.0929	0.4081	0.078
Mof_C 	C 	0.80191	0.0573	0.36691	0.05
Mof_C 	C 	0.75544	0.0423	0.35108	0.104
Mof_C 	C 	0.58234	0.0939	0.4093	0.07
Mof_H 	H 	0.5818	0.1119	0.4299	-0.009
Mof_C 	C 	0.62687	0.0786	0.39554	-0.11
Mof_H 	H 	0.656	0.086	0.4065	0.079
Mof_C 	C 	0.54175	0.0572	0.36581	0.068
Mof_H 	H 	0.5121	0.0492	0.3554	-0.008
Mof_C 	C 	0.58428	0.0406	0.3504	-0.11
Mof_H 	H 	0.5838	0.0214	0.3299	0.079
Mof_C 	C 	0.62778	0.0525	0.36543	0.052
Mof_C 	C 	0.67429	0.0399	0.34994	0.101
Mof_C 	C 	0.6868	0.8945	0.23328	0.067
Mof_H 	H 	0.6598	0.8681	0.2231	-0.01
Mof_C 	C 	0.68052	0.9311	0.26161	-0.118
Mof_H 	H 	0.6496	0.9309	0.2707	0.08
Mof_C 	C 	0.76731	0.9332	0.23335	0.06
Mof_H 	H 	0.7974	0.9357	0.2232	0.001
Mof_C 	C 	0.76418	0.9704	0.26242	-0.11
Mof_H 	H 	0.7918	0.9964	0.2721	0.08
Mof_C 	C 	0.71993	0.9684	0.27676	0.051
Mof_C 	C 	0.71671	0.0019	0.30835	0.102
Mof_N 	N 	0.4455	0.9851	0.42343	-0.274
Mof_N 	N 	0.29721	0.3984	0.3511	-0.277
Mof_N 	N 	0.44849	0.4153	0.54512	-0.27
Mof_N 	N 	0.37471	0.6518	0.41593	-0.134
Mof_N 	N 	0.3822	0.5073	0.44426	-0.139
Mof_N 	N 	0.41828	0.6516	0.46191	-0.144
Mof_N 	N 	0.88929	0.094	0.39498	-0.27
Mof_N 	N 	0.54057	0.0841	0.39481	-0.268
Mof_N 	N 	0.72963	0.8944	0.21928	-0.272
Mof_N 	N 	0.71434	0.055	0.36598	-0.139
Mof_N 	N 	0.67291	0.013	0.32077	-0.138
Mof_N 	N 	0.75863	0.0163	0.32223	-0.14
Mof_Zn	Zn	0.0244	0.88176	0.91485	1.164
Mof_Zn	Zn	0.04604	0.64231	0.0877	1.164
Mof_Zn	Zn	0.76057	0.1814	0.68011	1.165
Mof_I 	I 	0.00673	0.8043	0.96594	-0.393
Mof_I 	I 	0.07321	0.79744	0.87484	-0.372
Mof_I 	I 	0.98084	0.55568	0.11702	-0.363
Mof_I 	I 	0.05651	0.82418	0.08486	-0.384
Mof_I 	I 	0.67167	0.17832	0.66567	-0.373
Mof_I 	I 	0.80272	0.34292	0.68748	-0.372
Mof_C 	C 	0.04949	0.0573	0.95017	0.078
Mof_H 	H 	0.035	0.0217	0.966	-0.008
Mof_C 	C 	0.06437	0.1503	0.95594	-0.131
Mof_H 	H 	0.0606	0.1778	0.9753	0.093
Mof_C 	C 	0.07504	0.0662	0.90126	0.075
Mof_H 	H 	0.079	0.0366	0.8822	-0.006
Mof_C 	C 	0.09063	0.1596	0.90492	-0.132
Mof_H 	H 	0.1049	0.1936	0.8887	0.099
Mof_C 	C 	0.08512	0.203	0.93259	0.055
Mof_C 	C 	0.0989	0.3057	0.9373	0.088
Mof_C 	C 	0.1995	0.5048	0.84991	0.075
Mof_H 	H 	0.2133	0.4724	0.8332	-0.013
Mof_C 	C 	0.1772	0.4506	0.87175	-0.123
Mof_H 	H 	0.1754	0.3824	0.87	0.084
Mof_C 	C 	0.1832	0.6449	0.87458	0.077
Mof_H 	H 	0.1848	0.7132	0.8756	-0.013
Mof_C 	C 	0.1604	0.5962	0.89769	-0.117
Mof_H 	H 	0.1471	0.6304	0.9142	0.081
Mof_C 	C 	0.15754	0.4968	0.89624	0.065
Mof_C 	C 	0.13244	0.4423	0.92034	0.103
Mof_C 	C 	0.071	0.634	0.02232	0.064
Mof_H 	H 	0.076	0.7013	0.0246	-0.003
Mof_C 	C 	0.0843	0.5906	0.99547	-0.111
Mof_H 	H 	0.0981	0.6278	0.9797	0.077
Mof_C 	C 	0.04244	0.4898	0.04111	0.064
Mof_H 	H 	0.0269	0.4551	0.0568	-0.012
Mof_C 	C 	0.05489	0.4413	0.01515	-0.118
Mof_H 	H 	0.0485	0.3744	0.0131	0.09
Mof_C 	C 	0.07704	0.4927	0.99192	0.051
Mof_C 	C 	0.09312	0.4414	0.96435	0.098
Mof_C 	C 	0.61239	0.9366	0.86628	0.057
Mof_H 	H 	0.583	0.9461	0.8558	-0.008
Mof_C 	C 	0.65513	0.9547	0.85162	-0.113
Mof_H 	H 	0.6551	0.975	0.8313	0.079
Mof_C 	C 	0.65249	0.8959	0.90982	0.068
Mof_H 	H 	0.6515	0.8753	0.9302	-0.013
Mof_C 	C 	0.69698	0.914	0.89689	-0.117
Mof_H 	H 	0.7259	0.9071	0.9081	0.078
Mof_C 	C 	0.69809	0.9427	0.86691	0.05
Mof_C 	C 	0.74456	0.9577	0.85108	0.104
Mof_C 	C 	0.91766	0.9061	0.9093	0.07
Mof_H 	H 	0.9182	0.8881	0.9299	-0.009
Mof_C 	C 	0.87313	0.9214	0.89554	-0.11
Mof_H 	H 	0.844	0.914	0.9065	0.079
Mof_C 	C 	0.95825	0.9428	0.86581	0.068
Mof_H 	H 	0.9879	0.9508	0.8554	-0.008
Mof_C 	C 	0.91572	0.9594	0.8504	-0.11
Mof_H 	H 	0.9162	0.9786	0.8299	0.08
Mof_C 	C 	0.87222	0.9475	0.86543	0.052
Mof_C 	C 	0.82571	0.9601	0.84994	0.101
Mof_C 	C 	0.8132	0.1055	0.73328	0.067
Mof_H 	H 	0.8402	0.1319	0.7231	-0.01
Mof_C 	C 	0.81948	0.0689	0.76161	-0.117
Mof_H 	H 	0.8504	0.0691	0.7707	0.08
Mof_C 	C 	0.73269	0.0668	0.73335	0.059
Mof_H 	H 	0.7026	0.0643	0.7232	0.001
Mof_C 	C 	0.73582	0.0296	0.76242	-0.11
Mof_H 	H 	0.7082	0.0036	0.7721	0.08
Mof_C 	C 	0.78007	0.0316	0.77676	0.05
Mof_C 	C 	0.78329	0.9981	0.80835	0.103
Mof_N 	N 	0.0545	0.0149	0.92343	-0.273
Mof_N 	N 	0.20279	0.6016	0.8511	-0.277
Mof_N 	N 	0.05151	0.5847	0.04512	-0.27
Mof_N 	N 	0.12529	0.3482	0.91593	-0.134
Mof_N 	N 	0.1178	0.4927	0.94426	-0.139
Mof_N 	N 	0.08172	0.3484	0.96191	-0.144
Mof_N 	N 	0.61071	0.906	0.89498	-0.27
Mof_N 	N 	0.95943	0.9159	0.89481	-0.267
Mof_N 	N 	0.77037	0.1056	0.71928	-0.272
Mof_N 	N 	0.78566	0.945	0.86598	-0.139
Mof_N 	N 	0.82709	0.987	0.82077	-0.138
Mof_N 	N 	0.74137	0.9837	0.82223	-0.14
Mof_Zn	Zn	0.5244	0.61824	0.08515	1.164
Mof_Zn	Zn	0.54604	0.85769	0.9123	1.164
Mof_Zn	Zn	0.26057	0.3186	0.31989	1.165
Mof_I 	I 	0.50673	0.6957	0.03406	-0.392
Mof_I 	I 	0.57321	0.70256	0.12516	-0.371
Mof_I 	I 	0.48084	0.94432	0.88298	-0.364
Mof_I 	I 	0.55651	0.67582	0.91514	-0.384
Mof_I 	I 	0.17167	0.32168	0.33433	-0.373
Mof_I 	I 	0.30272	0.15708	0.31252	-0.372
Mof_C 	C 	0.54949	0.4427	0.04983	0.078
Mof_H 	H 	0.535	0.4783	0.034	-0.008
Mof_C 	C 	0.56437	0.3497	0.04406	-0.131
Mof_H 	H 	0.5606	0.3222	0.0247	0.093
Mof_C 	C 	0.57504	0.4338	0.09874	0.075
Mof_H 	H 	0.579	0.4634	0.1178	-0.006
Mof_C 	C 	0.59063	0.3404	0.09508	-0.132
Mof_H 	H 	0.6049	0.3064	0.1113	0.099
Mof_C 	C 	0.58512	0.297	0.06741	0.055
Mof_C 	C 	0.5989	0.1943	0.0627	0.088
Mof_C 	C 	0.6995	0.9952	0.15009	0.077
Mof_H 	H 	0.7133	0.0276	0.1668	-0.014
Mof_C 	C 	0.6772	0.0494	0.12825	-0.124
Mof_H 	H 	0.6754	0.1176	0.13	0.084
Mof_C 	C 	0.6832	0.8551	0.12542	0.077
Mof_H 	H 	0.6848	0.7868	0.1244	-0.013
Mof_C 	C 	0.6604	0.9038	0.10231	-0.117
Mof_H 	H 	0.6471	0.8696	0.0858	0.081
Mof_C 	C 	0.65754	0.0032	0.10376	0.064
Mof_C 	C 	0.63244	0.0577	0.07966	0.103
Mof_C 	C 	0.571	0.866	0.97768	0.064
Mof_H 	H 	0.576	0.7987	0.9754	-0.003
Mof_C 	C 	0.5843	0.9094	0.00453	-0.111
Mof_H 	H 	0.5981	0.8722	0.0203	0.077
Mof_C 	C 	0.54244	0.0102	0.95889	0.064
Mof_H 	H 	0.5269	0.0449	0.9432	-0.012
Mof_C 	C 	0.55489	0.0587	0.98485	-0.118
Mof_H 	H 	0.5485	0.1256	0.9869	0.09
Mof_C 	C 	0.57704	0.0073	0.00808	0.05
Mof_C 	C 	0.59312	0.0586	0.03565	0.098
Mof_C 	C 	0.11239	0.5634	0.13372	0.056
Mof_H 	H 	0.083	0.5539	0.1442	-0.008
Mof_C 	C 	0.15513	0.5453	0.14838	-0.113
Mof_H 	H 	0.1551	0.525	0.1687	0.079
Mof_C 	C 	0.15249	0.6041	0.09018	0.068
Mof_H 	H 	0.1515	0.6247	0.0698	-0.013
Mof_C 	C 	0.19698	0.586	0.10311	-0.117
Mof_H 	H 	0.2259	0.5929	0.0919	0.078
Mof_C 	C 	0.19809	0.5573	0.13309	0.05
Mof_C 	C 	0.24456	0.5423	0.14892	0.104
Mof_C 	C 	0.41766	0.5939	0.0907	0.07
Mof_H 	H 	0.4182	0.6119	0.0701	-0.009
Mof_C 	C 	0.37313	0.5786	0.10446	-0.11
Mof_H 	H 	0.344	0.586	0.0935	0.079
Mof_C 	C 	0.45825	0.5572	0.13419	0.068
Mof_H 	H 	0.4879	0.5492	0.1446	-0.008
Mof_C 	C 	0.41572	0.5406	0.1496	-0.11
Mof_H 	H 	0.4162	0.5214	0.1701	0.079
Mof_C 	C 	0.37222	0.5525	0.13457	0.052
Mof_C 	C 	0.32571	0.5399	0.15006	0.101
Mof_C 	C 	0.3132	0.3945	0.26672	0.067
Mof_H 	H 	0.3402	0.3681	0.2769	-0.01
Mof_C 	C 	0.31948	0.4311	0.23839	-0.117
Mof_H 	H 	0.3504	0.4309	0.2293	0.08
Mof_C 	C 	0.23269	0.4332	0.26665	0.059
Mof_H 	H 	0.2026	0.4357	0.2768	0.001
Mof_C 	C 	0.23582	0.4704	0.23758	-0.11
Mof_H 	H 	0.2082	0.4964	0.2279	0.08
Mof_C 	C 	0.28007	0.4684	0.22324	0.05
Mof_C 	C 	0.28329	0.5019	0.19165	0.102
Mof_N 	N 	0.5545	0.4851	0.07657	-0.274
Mof_N 	N 	0.70279	0.8984	0.1489	-0.277
Mof_N 	N 	0.55151	0.9153	0.95488	-0.27
Mof_N 	N 	0.62529	0.1518	0.08407	-0.134
Mof_N 	N 	0.6178	0.0073	0.05574	-0.139
Mof_N 	N 	0.58172	0.1516	0.03809	-0.144
Mof_N 	N 	0.11071	0.594	0.10502	-0.27
Mof_N 	N 	0.45943	0.5841	0.10519	-0.268
Mof_N 	N 	0.27037	0.3944	0.28072	-0.272
Mof_N 	N 	0.28566	0.555	0.13402	-0.139
Mof_N 	N 	0.32709	0.513	0.17923	-0.138
Mof_N 	N 	0.24137	0.5163	0.17777	-0.14
Mof_Zn	Zn	0.9756	0.38176	0.58515	1.164
Mof_Zn	Zn	0.95396	0.14231	0.4123	1.164
Mof_Zn	Zn	0.23943	0.6814	0.81989	1.165
Mof_I 	I 	0.99327	0.3043	0.53406	-0.392
Mof_I 	I 	0.92679	0.29744	0.62516	-0.371
Mof_I 	I 	0.01916	0.05568	0.38298	-0.363
Mof_I 	I 	0.94349	0.32418	0.41514	-0.384
Mof_I 	I 	0.32833	0.67832	0.83433	-0.373
Mof_I 	I 	0.19728	0.84292	0.81252	-0.372
Mof_C 	C 	0.95051	0.5573	0.54983	0.078
Mof_H 	H 	0.965	0.5217	0.534	-0.008
Mof_C 	C 	0.93563	0.6503	0.54406	-0.131
Mof_H 	H 	0.9394	0.6778	0.5247	0.093
Mof_C 	C 	0.92496	0.5662	0.59874	0.075
Mof_H 	H 	0.921	0.5366	0.6178	-0.006
Mof_C 	C 	0.90937	0.6596	0.59508	-0.132
Mof_H 	H 	0.8951	0.6936	0.6113	0.099
Mof_C 	C 	0.91488	0.703	0.56741	0.055
Mof_C 	C 	0.9011	0.8057	0.5627	0.088
Mof_C 	C 	0.8005	0.0048	0.65009	0.074
Mof_H 	H 	0.7867	0.9724	0.6668	-0.012
Mof_C 	C 	0.8228	0.9506	0.62825	-0.122
Mof_H 	H 	0.8246	0.8824	0.63	0.084
Mof_C 	C 	0.8168	0.1449	0.62542	0.077
Mof_H 	H 	0.8152	0.2132	0.6244	-0.013
Mof_C 	C 	0.8396	0.0962	0.60231	-0.118
Mof_H 	H 	0.8529	0.1304	0.5858	0.081
Mof_C 	C 	0.84246	0.9968	0.60376	0.065
Mof_C 	C 	0.86756	0.9423	0.57966	0.103
Mof_C 	C 	0.929	0.134	0.47768	0.065
Mof_H 	H 	0.924	0.2013	0.4754	-0.003
Mof_C 	C 	0.9157	0.0906	0.50453	-0.113
Mof_H 	H 	0.9019	0.1278	0.5203	0.078
Mof_C 	C 	0.95756	0.9898	0.45889	0.065
Mof_H 	H 	0.9731	0.9551	0.4432	-0.012
Mof_C 	C 	0.94511	0.9413	0.48485	-0.119
Mof_H 	H 	0.9515	0.8744	0.4869	0.091
Mof_C 	C 	0.92296	0.9927	0.50808	0.052
Mof_C 	C 	0.90688	0.9414	0.53565	0.098
Mof_C 	C 	0.38761	0.4366	0.63372	0.057
Mof_H 	H 	0.417	0.4461	0.6442	-0.008
Mof_C 	C 	0.34487	0.4547	0.64838	-0.113
Mof_H 	H 	0.3449	0.475	0.6687	0.079
Mof_C 	C 	0.34751	0.3959	0.59018	0.068
Mof_H 	H 	0.3485	0.3753	0.5698	-0.013
Mof_C 	C 	0.30302	0.414	0.60311	-0.117
Mof_H 	H 	0.2741	0.4071	0.5919	0.078
Mof_C 	C 	0.30191	0.4427	0.63309	0.05
Mof_C 	C 	0.25544	0.4577	0.64892	0.104
Mof_C 	C 	0.08234	0.4061	0.5907	0.07
Mof_H 	H 	0.0818	0.3881	0.5701	-0.009
Mof_C 	C 	0.12687	0.4214	0.60446	-0.11
Mof_H 	H 	0.156	0.414	0.5935	0.079
Mof_C 	C 	0.04175	0.4428	0.63419	0.068
Mof_H 	H 	0.0121	0.4508	0.6446	-0.008
Mof_C 	C 	0.08428	0.4594	0.6496	-0.11
Mof_H 	H 	0.0838	0.4786	0.6701	0.079
Mof_C 	C 	0.12778	0.4475	0.63457	0.052
Mof_C 	C 	0.17429	0.4601	0.65006	0.101
Mof_C 	C 	0.1868	0.6055	0.76672	0.067
Mof_H 	H 	0.1598	0.6319	0.7769	-0.01
Mof_C 	C 	0.18052	0.5689	0.73839	-0.117
Mof_H 	H 	0.1496	0.5691	0.7293	0.08
Mof_C 	C 	0.26731	0.5668	0.76665	0.059
Mof_H 	H 	0.2974	0.5643	0.7768	0.001
Mof_C 	C 	0.26418	0.5296	0.73758	-0.11
Mof_H 	H 	0.2918	0.5036	0.7279	0.08
Mof_C 	C 	0.21993	0.5316	0.72324	0.05
Mof_C 	C 	0.21671	0.4981	0.69165	0.102
Mof_N 	N 	0.9455	0.5149	0.57657	-0.274
Mof_N 	N 	0.79721	0.1016	0.6489	-0.276
Mof_N 	N 	0.94849	0.0847	0.45488	-0.271
Mof_N 	N 	0.87471	0.8482	0.58407	-0.134
Mof_N 	N 	0.8822	0.9927	0.55574	-0.139
Mof_N 	N 	0.91828	0.8484	0.53809	-0.144
Mof_N 	N 	0.38929	0.406	0.60502	-0.27
Mof_N 	N 	0.04057	0.4159	0.60519	-0.267
Mof_N 	N 	0.22963	0.6056	0.78072	-0.272
Mof_N 	N 	0.21434	0.445	0.63402	-0.139
Mof_N 	N 	0.17291	0.487	0.67923	-0.138
Mof_N 	N 	0.25863	0.4837	0.67777	-0.14
_end
