# CIF file generated by openbabel 3.1.0, see https://openbabel.org
data_I
_chemical_name_common 'image0'
_cell_length_a 17.3266
_cell_length_b 21.9786
_cell_length_c 23.2172
_cell_angle_alpha 99.59
_cell_angle_beta 108.832
_cell_angle_gamma 107.228
_space_group_name_H-M_alt 'P 1'
_space_group_name_Hall 'P 1'
loop_
    _symmetry_equiv_pos_as_xyz
    x,y,z
loop_
    _atom_site_label
    _atom_site_type_symbol
    _atom_site_fract_x
    _atom_site_fract_y
    _atom_site_fract_z
    _atom_site_occupancy
    Ag1      Ag       0.07168    0.87655    0.17179    1.000
    N1       N        0.19190    0.88446    0.26521    1.000
    N2       N        0.01000    0.76471    0.13771    1.000
    N3       N        0.03090    0.96442    0.18317    1.000
    N4       N        0.16300    0.91056    0.11276    1.000
    C1       C        0.22880    0.83890    0.26020    1.000
    C2       C        0.22360    0.92760    0.32180    1.000
    C3       C        0.96330    0.72890    0.16430    1.000
    C4       C        0.02860    0.73140    0.09340    1.000
    C5       C        0.29660    0.83660    0.30980    1.000
    H1       H        0.20690    0.80660    0.22020    1.000
    H2       H        0.19900    0.96060    0.32620    1.000
    C6       C        0.28940    0.92870    0.37480    1.000
    C7       C        0.93350    0.66030    0.14920    1.000
    H3       H        0.94960    0.75190    0.19560    1.000
    H4       H        0.06160    0.75610    0.07360    1.000
    C8       C        0.00180    0.66270    0.07520    1.000
    C9       C        0.32790    0.88180    0.36884    1.000
    H5       H        0.32160    0.80420    0.30360    1.000
    H6       H        0.30820    0.96050    0.41450    1.000
    C10      C        0.95420    0.62600    0.10360    1.000
    H7       H        0.89980    0.63690    0.16930    1.000
    H8       H        0.01610    0.64110    0.04340    1.000
    C11      C        0.39820    0.88030    0.42360    1.000
    C12      C        0.92130    0.55360    0.08200    1.000
    O1       O        0.43735    0.83684    0.40972    1.000
    C13      C        0.43190    0.91220    0.48660    1.000
    O2       O        0.88640    0.52090    0.11901    1.000
    C14      C        0.91160    0.50880    0.02930    1.000
    C15      C        0.49900    0.84220    0.46726    1.000
    C16      C        0.49760    0.88730    0.51620    1.000
    H9       H        0.41540    0.94450    0.50690    1.000
    C17      C        0.85170    0.45460    0.08690    1.000
    H10      H        0.93230    0.51900    0.99750    1.000
    C18      C        0.86510    0.44450    0.03050    1.000
    C19      C        0.55500    0.80840    0.47616    1.000
    C20      C        0.55540    0.89680    0.57786    1.000
    C21      C        0.80460    0.40448    0.10380    1.000
    C22      C        0.82830    0.37990    0.99070    1.000
    N5       N        0.61060    0.81811    0.53513    1.000
    H11      H        0.55420    0.77860    0.44100    1.000
    C23      C        0.60930    0.86096    0.58561    1.000
    H12      H        0.55760    0.92700    0.61330    1.000
    N6       N        0.76530    0.34154    0.06330    1.000
    H13      H        0.79930    0.41330    0.14360    1.000
    H14      H        0.83770    0.36990    0.95260    1.000
    C24      C        0.77720    0.33010    0.00790    1.000
    Fe1      Fe       0.70133    0.77885    0.56034    1.000
    C25      C        0.67000    0.86292    0.64719    1.000
    Fe2      Fe       0.67591    0.26649    0.07026    1.000
    C26      C        0.72580    0.26130    0.96720    1.000
    N7       N        0.79120    0.74890    0.61156    1.000
    N8       N        0.71480    0.82288    0.64161    1.000
    N9       N        0.60800    0.69192    0.54245    1.000
    N10      N        0.69100    0.73797    0.47848    1.000
    N11      N        0.78610    0.85460    0.55043    1.000
    C27      C        0.68420    0.89990    0.70747    1.000
    N12      N        0.76100    0.23471    0.12385    1.000
    N13      N        0.68500    0.30996    0.15070    1.000
    N14      N        0.58960    0.30890    0.04262    1.000
    N15      N        0.67240    0.22641    0.99072    1.000
    N16      N        0.57970    0.18090    0.04880    1.000
    C28      C        0.72700    0.23200    0.90950    1.000
    C29      C        0.82000    0.70411    0.58862    1.000
    C30      C        0.81570    0.77190    0.67598    1.000
    C31      C        0.77470    0.81810    0.69370    1.000
    C32      C        0.56770    0.67470    0.58107    1.000
    C33      C        0.58070    0.64960    0.48297    1.000
    C34      C        0.63210    0.67619    0.44739    1.000
    C35      C        0.74100    0.77320    0.45220    1.000
    C36      C        0.79340    0.84222    0.49241    1.000
    C37      C        0.82340    0.91670    0.58861    1.000
    C38      C        0.74360    0.89390    0.76040    1.000
    H15      H        0.65340    0.92860    0.71190    1.000
    C39      C        0.79230    0.19060    0.10320    1.000
    C40      C        0.78150    0.25718    0.18816    1.000
    C41      C        0.74110    0.30358    0.20319    1.000
    C42      C        0.64050    0.35000    0.15469    1.000
    C43      C        0.58560    0.35048    0.09155    1.000
    C44      C        0.54030    0.30170    0.98230    1.000
    C45      C        0.61520    0.16370    0.95830    1.000
    C46      C        0.55860    0.13690    0.99120    1.000
    C47      C        0.53130    0.16400    0.08299    1.000
    H16      H        0.76590    0.25630    0.89310    1.000
    C48      C        0.67100    0.16740    0.87680    1.000
    H17      H        0.80510    0.68860    0.54430    1.000
    C49      C        0.87180    0.68100    0.63100    1.000
    C50      C        0.86870    0.75090    0.71960    1.000
    C51      C        0.79040    0.85330    0.75420    1.000
    H18      H        0.58710    0.70300    0.62270    1.000
    C52      C        0.49760    0.61490    0.55890    1.000
    C53      C        0.51030    0.58960    0.45900    1.000
    C54      C        0.62230    0.64440    0.38700    1.000
    C55      C        0.73550    0.74500    0.39240    1.000
    C56      C        0.83940    0.89100    0.47220    1.000
    C57      C        0.86670    0.96687    0.56910    1.000
    H19      H        0.82000    0.92620    0.62900    1.000
    H20      H        0.75260    0.91780    0.80150    1.000
    H21      H        0.78000    0.17550    0.05920    1.000
    C58      C        0.84290    0.16750    0.14660    1.000
    C59      C        0.83470    0.23721    0.23314    1.000
    C60      C        0.75390    0.33840    0.26380    1.000
    C61      C        0.64930    0.38500    0.21320    1.000
    C62      C        0.53450    0.38870    0.08175    1.000
    C63      C        0.48700    0.33760    0.97132    1.000
    H22      H        0.54210    0.27270    0.94800    1.000
    C64      C        0.61390    0.13260    0.90110    1.000
    C65      C        0.48960    0.07650    0.96540    1.000
    C66      C        0.46320    0.10370    0.05910    1.000
    H23      H        0.54420    0.19330    0.12280    1.000
    H24      H        0.67110    0.14650    0.83760    1.000
    O3       O        0.90060    0.63146    0.61512    1.000
    C67      C        0.89780    0.70300    0.69630    1.000
    H25      H        0.88500    0.76830    0.76390    1.000
    H26      H        0.83210    0.84980    0.79070    1.000
    O4       O        0.44840    0.59088    0.59061    1.000
    C68      C        0.46580    0.57160    0.49820    1.000
    H27      H        0.49250    0.56150    0.41740    1.000
    H28      H        0.58080    0.60030    0.36470    1.000
    C69      C        0.67560    0.67960    0.36020    1.000
    H29      H        0.77110    0.76920    0.37380    1.000
    H30      H        0.84580    0.88040    0.43300    1.000
    C70      C        0.87590    0.95600    0.51120    1.000
    O5       O        0.89840    0.03244    0.59993    1.000
    O6       O        0.87610    0.12100    0.13270    1.000
    C71      C        0.86540    0.19020    0.21190    1.000
    H31      H        0.84970    0.25510    0.27720    1.000
    H32      H        0.79350    0.33440    0.30100    1.000
    C72      C        0.70700    0.37900    0.26790    1.000
    H33      H        0.61670    0.41250    0.21610    1.000
    H34      H        0.53390    0.41790    0.11660    1.000
    C73      C        0.48420    0.38320    0.01941    1.000
    O7       O        0.43280    0.33552    0.91292    1.000
    H35      H        0.57460    0.08800    0.87860    1.000
    H36      H        0.47680    0.04780    0.92530    1.000
    C74      C        0.43830    0.05890    0.00080    1.000
    O8       O        0.40820    0.07935    0.08826    1.000
    C75      C        0.94570    0.62310    0.67250    1.000
    C76      C        0.94570    0.66420    0.72230    1.000
    C77      C        0.38220    0.53240    0.54830    1.000
    C78      C        0.39050    0.51840    0.49240    1.000
    H37      H        0.67120    0.65880    0.31930    1.000
    C79      C        0.91760    0.02050    0.50670    1.000
    C80      C        0.92890    0.06420    0.56010    1.000
    C81      C        0.91980    0.11270    0.19110    1.000
    C82      C        0.91640    0.15310    0.23970    1.000
    H38      H        0.71410    0.40310    0.30850    1.000
    C83      C        0.42480    0.41140    0.98720    1.000
    C84      C        0.39610    0.38190    0.92500    1.000
    C85      C        0.36200    0.00430    0.99270    1.000
    C86      C        0.34680    0.01860    0.04660    1.000
    C87      C        0.97820    0.56900    0.66910    1.000
    H39      H        0.97210    0.66690    0.76590    1.000
    C88      C        0.31980    0.49620    0.57180    1.000
    H40      H        0.35360    0.48070    0.45650    1.000
    H41      H        0.93410    0.03070    0.47310    1.000
    C89      C        0.96470    0.13720    0.58350    1.000
    C90      C        0.96100    0.06360    0.18840    1.000
    H42      H        0.94240    0.15670    0.28350    1.000
    H43      H        0.40870    0.44480    0.00630    1.000
    C91      C        0.33040    0.38536    0.86823    1.000
    H44      H        0.32870    0.96590    0.95700    1.000
    C92      C        0.28330    0.98270    0.06900    1.000
    C93      C        0.97560    0.53380    0.61390    1.000
    C94      C        0.01370    0.55160    0.72370    1.000
    C95      C        0.33970    0.50400    0.63560    1.000
    C96      C        0.23670    0.45210    0.52900    1.000
    C97      C        0.96190    0.17020    0.63720    1.000
    C98      C        0.00260    0.17440    0.54940    1.000
    C99      C        0.97460    0.03910    0.13520    1.000
    C100     C        0.98600    0.03880    0.24020    1.000
    C101     C        0.28970    0.33350    0.81270    1.000
    C102     C        0.30860    0.44150    0.86920    1.000
    C103     C        0.30330    0.99400    0.13360    1.000
    C104     C        0.20150    0.93570    0.02670    1.000
    H45      H        0.95210    0.54430    0.57550    1.000
    C105     C        0.00710    0.48320    0.61340    1.000
    C106     C        0.04250    0.49950    0.71950    1.000
    H46      H        0.01820    0.57540    0.76350    1.000
    H47      H        0.39540    0.53450    0.66640    1.000
    C107     C        0.27690    0.46640    0.65420    1.000
    C108     C        0.17810    0.41820    0.55120    1.000
    H48      H        0.22070    0.44560    0.48460    1.000
    H49      H        0.93620    0.14620    0.66110    1.000
    C109     C        0.99690    0.23900    0.65680    1.000
    C110     C        0.03610    0.24270    0.57240    1.000
    H50      H        0.00510    0.15300    0.51140    1.000
    H51      H        0.96000    0.05560    0.09950    1.000
    C111     C        0.00970    0.99020    0.13460    1.000
    C112     C        0.01940    0.98960    0.23460    1.000
    H52      H        0.98000    0.05540    0.27830    1.000
    H53      H        0.30410    0.29490    0.81020    1.000
    C113     C        0.22760    0.33880    0.76080    1.000
    C114     C        0.24700    0.44240    0.81530    1.000
    H54      H        0.33590    0.47830    0.90650    1.000
    H55      H        0.35750    0.02670    0.16420    1.000
    C115     C        0.24040    0.95540    0.15170    1.000
    C116     C        0.14440    0.90110    0.05030    1.000
    H56      H        0.18530    0.92750    0.98220    1.000
    N17      N        0.04030    0.46550    0.66560    1.000
    H57      H        0.00500    0.45970    0.57430    1.000
    H58      H        0.06490    0.48730    0.75700    1.000
    N18      N        0.19750    0.42545    0.61309    1.000
    H59      H        0.29170    0.47040    0.69810    1.000
    H60      H        0.12140    0.38830    0.52150    1.000
    N19      N        0.03400    0.27512    0.62512    1.000
    H61      H        0.99440    0.26160    0.69450    1.000
    H62      H        0.06210    0.26800    0.54940    1.000
    H63      H        0.01920    0.97410    0.09790    1.000
    H64      H        0.03540    0.97250    0.26980    1.000
    N20      N        0.20550    0.39232    0.76048    1.000
    H65      H        0.19880    0.30240    0.72310    1.000
    H66      H        0.23240    0.48090    0.81640    1.000
    H67      H        0.25490    0.96210    0.19600    1.000
    H68      H        0.08900    0.86890    0.02090    1.000
    Ag2      Ag       0.09824    0.38745    0.66252    1.000
    Ag3      Ag       0.92832    0.12345    0.82821    1.000
    N21      N        0.80810    0.11554    0.73479    1.000
    N22      N        0.99000    0.23529    0.86229    1.000
    N23      N        0.96910    0.03558    0.81683    1.000
    N24      N        0.83700    0.08944    0.88724    1.000
    C117     C        0.77120    0.16110    0.73980    1.000
    C118     C        0.77640    0.07240    0.67820    1.000
    C119     C        0.03670    0.27110    0.83570    1.000
    C120     C        0.97140    0.26860    0.90660    1.000
    C121     C        0.70340    0.16340    0.69020    1.000
    H69      H        0.79310    0.19340    0.77980    1.000
    H70      H        0.80100    0.03940    0.67380    1.000
    C122     C        0.71060    0.07130    0.62520    1.000
    C123     C        0.06650    0.33970    0.85080    1.000
    H71      H        0.05040    0.24810    0.80440    1.000
    H72      H        0.93840    0.24390    0.92640    1.000
    C124     C        0.99820    0.33730    0.92480    1.000
    C125     C        0.67210    0.11820    0.63116    1.000
    H73      H        0.67840    0.19580    0.69640    1.000
    H74      H        0.69180    0.03950    0.58550    1.000
    C126     C        0.04580    0.37400    0.89640    1.000
    H75      H        0.10020    0.36310    0.83070    1.000
    H76      H        0.98390    0.35890    0.95660    1.000
    C127     C        0.60180    0.11970    0.57640    1.000
    C128     C        0.07870    0.44640    0.91800    1.000
    O9       O        0.56265    0.16316    0.59028    1.000
    C129     C        0.56810    0.08780    0.51340    1.000
    O10      O        0.11360    0.47910    0.88099    1.000
    C130     C        0.08840    0.49120    0.97070    1.000
    C131     C        0.50100    0.15780    0.53274    1.000
    C132     C        0.50240    0.11270    0.48380    1.000
    H77      H        0.58460    0.05550    0.49310    1.000
    C133     C        0.14830    0.54540    0.91310    1.000
    H78      H        0.06770    0.48100    0.00250    1.000
    C134     C        0.13490    0.55550    0.96950    1.000
    C135     C        0.44500    0.19160    0.52384    1.000
    C136     C        0.44460    0.10320    0.42214    1.000
    C137     C        0.19540    0.59552    0.89620    1.000
    C138     C        0.17170    0.62010    0.00930    1.000
    N25      N        0.38940    0.18189    0.46487    1.000
    H79      H        0.44580    0.22140    0.55900    1.000
    C139     C        0.39070    0.13904    0.41439    1.000
    H80      H        0.44240    0.07300    0.38670    1.000
    N26      N        0.23470    0.65846    0.93670    1.000
    H81      H        0.20070    0.58670    0.85640    1.000
    H82      H        0.16230    0.63010    0.04740    1.000
    C140     C        0.22280    0.66990    0.99210    1.000
    Fe3      Fe       0.29867    0.22115    0.43966    1.000
    C141     C        0.33000    0.13708    0.35281    1.000
    Fe4      Fe       0.32409    0.73351    0.92974    1.000
    C142     C        0.27420    0.73870    0.03280    1.000
    N27      N        0.20880    0.25110    0.38844    1.000
    N28      N        0.28520    0.17712    0.35839    1.000
    N29      N        0.39200    0.30808    0.45755    1.000
    N30      N        0.30900    0.26203    0.52152    1.000
    N31      N        0.21390    0.14540    0.44957    1.000
    C143     C        0.31580    0.10010    0.29253    1.000
    N32      N        0.23900    0.76529    0.87615    1.000
    N33      N        0.31500    0.69004    0.84930    1.000
    N34      N        0.41040    0.69110    0.95738    1.000
    N35      N        0.32760    0.77359    0.00928    1.000
    N36      N        0.42030    0.81910    0.95120    1.000
    C144     C        0.27300    0.76800    0.09050    1.000
    C145     C        0.18000    0.29589    0.41138    1.000
    C146     C        0.18430    0.22810    0.32402    1.000
    C147     C        0.22530    0.18190    0.30630    1.000
    C148     C        0.43230    0.32530    0.41893    1.000
    C149     C        0.41930    0.35040    0.51703    1.000
    C150     C        0.36790    0.32381    0.55261    1.000
    C151     C        0.25900    0.22680    0.54780    1.000
    C152     C        0.20660    0.15778    0.50759    1.000
    C153     C        0.17660    0.08330    0.41139    1.000
    C154     C        0.25640    0.10610    0.23960    1.000
    H83      H        0.34660    0.07140    0.28810    1.000
    C155     C        0.20770    0.80940    0.89680    1.000
    C156     C        0.21850    0.74282    0.81184    1.000
    C157     C        0.25890    0.69642    0.79681    1.000
    C158     C        0.35950    0.65000    0.84531    1.000
    C159     C        0.41440    0.64952    0.90845    1.000
    C160     C        0.45970    0.69830    0.01770    1.000
    C161     C        0.38480    0.83630    0.04170    1.000
    C162     C        0.44140    0.86310    0.00880    1.000
    C163     C        0.46870    0.83600    0.91701    1.000
    H84      H        0.23410    0.74370    0.10690    1.000
    C164     C        0.32900    0.83260    0.12320    1.000
    H85      H        0.19490    0.31140    0.45570    1.000
    C165     C        0.12820    0.31900    0.36900    1.000
    C166     C        0.13130    0.24910    0.28040    1.000
    C167     C        0.20960    0.14670    0.24580    1.000
    H86      H        0.41290    0.29700    0.37730    1.000
    C168     C        0.50240    0.38510    0.44110    1.000
    C169     C        0.48970    0.41040    0.54100    1.000
    C170     C        0.37770    0.35560    0.61300    1.000
    C171     C        0.26450    0.25500    0.60760    1.000
    C172     C        0.16060    0.10900    0.52780    1.000
    C173     C        0.13330    0.03313    0.43090    1.000
    H87      H        0.18000    0.07380    0.37100    1.000
    H88      H        0.24740    0.08220    0.19850    1.000
    H89      H        0.22000    0.82450    0.94080    1.000
    C174     C        0.15710    0.83250    0.85340    1.000
    C175     C        0.16530    0.76279    0.76686    1.000
    C176     C        0.24610    0.66160    0.73620    1.000
    C177     C        0.35070    0.61500    0.78680    1.000
    C178     C        0.46550    0.61130    0.91825    1.000
    C179     C        0.51300    0.66240    0.02868    1.000
    H90      H        0.45790    0.72730    0.05200    1.000
    C180     C        0.38610    0.86740    0.09890    1.000
    C181     C        0.51040    0.92350    0.03460    1.000
    C182     C        0.53680    0.89630    0.94090    1.000
    H91      H        0.45580    0.80670    0.87720    1.000
    H92      H        0.32890    0.85350    0.16240    1.000
    O11      O        0.09940    0.36854    0.38488    1.000
    C183     C        0.10220    0.29700    0.30370    1.000
    H93      H        0.11500    0.23170    0.23610    1.000
    H94      H        0.16790    0.15020    0.20930    1.000
    O12      O        0.55160    0.40912    0.40939    1.000
    C184     C        0.53420    0.42840    0.50180    1.000
    H95      H        0.50750    0.43850    0.58260    1.000
    H96      H        0.41920    0.39970    0.63530    1.000
    C185     C        0.32440    0.32040    0.63980    1.000
    H97      H        0.22890    0.23080    0.62620    1.000
    H98      H        0.15420    0.11960    0.56700    1.000
    C186     C        0.12410    0.04400    0.48880    1.000
    O13      O        0.10160    0.96756    0.40007    1.000
    O14      O        0.12390    0.87900    0.86730    1.000
    C187     C        0.13460    0.80980    0.78810    1.000
    H99      H        0.15030    0.74490    0.72280    1.000
    H100     H        0.20650    0.66560    0.69900    1.000
    C188     C        0.29300    0.62100    0.73210    1.000
    H101     H        0.38330    0.58750    0.78390    1.000
    H102     H        0.46610    0.58210    0.88340    1.000
    C189     C        0.51580    0.61680    0.98059    1.000
    O15      O        0.56720    0.66448    0.08708    1.000
    H103     H        0.42540    0.91200    0.12140    1.000
    H104     H        0.52320    0.95220    0.07470    1.000
    C190     C        0.56170    0.94110    0.99920    1.000
    O16      O        0.59180    0.92065    0.91174    1.000
    C191     C        0.05430    0.37690    0.32750    1.000
    C192     C        0.05430    0.33580    0.27770    1.000
    C193     C        0.61780    0.46760    0.45170    1.000
    C194     C        0.60950    0.48160    0.50760    1.000
    H105     H        0.32880    0.34120    0.68070    1.000
    C195     C        0.08240    0.97950    0.49330    1.000
    C196     C        0.07110    0.93580    0.43990    1.000
    C197     C        0.08020    0.88730    0.80890    1.000
    C198     C        0.08360    0.84690    0.76030    1.000
    H106     H        0.28590    0.59690    0.69150    1.000
    C199     C        0.57520    0.58860    0.01280    1.000
    C200     C        0.60390    0.61810    0.07500    1.000
    C201     C        0.63800    0.99570    0.00730    1.000
    C202     C        0.65320    0.98140    0.95340    1.000
    C203     C        0.02180    0.43100    0.33090    1.000
    H107     H        0.02790    0.33310    0.23410    1.000
    C204     C        0.68020    0.50380    0.42820    1.000
    H108     H        0.64640    0.51930    0.54350    1.000
    H109     H        0.06590    0.96930    0.52690    1.000
    C205     C        0.03530    0.86280    0.41650    1.000
    C206     C        0.03900    0.93640    0.81160    1.000
    H110     H        0.05760    0.84330    0.71650    1.000
    H111     H        0.59130    0.55520    0.99370    1.000
    C207     C        0.66960    0.61464    0.13177    1.000
    H112     H        0.67130    0.03410    0.04300    1.000
    C208     C        0.71670    0.01730    0.93100    1.000
    C209     C        0.02440    0.46620    0.38610    1.000
    C210     C        0.98630    0.44840    0.27630    1.000
    C211     C        0.66030    0.49600    0.36440    1.000
    C212     C        0.76330    0.54790    0.47100    1.000
    C213     C        0.03810    0.82980    0.36280    1.000
    C214     C        0.99740    0.82560    0.45060    1.000
    C215     C        0.02540    0.96090    0.86480    1.000
    C216     C        0.01400    0.96120    0.75980    1.000
    C217     C        0.71030    0.66650    0.18730    1.000
    C218     C        0.69140    0.55850    0.13080    1.000
    C219     C        0.69670    0.00600    0.86640    1.000
    C220     C        0.79850    0.06430    0.97330    1.000
    H113     H        0.04790    0.45570    0.42450    1.000
    C221     C        0.99290    0.51680    0.38660    1.000
    C222     C        0.95750    0.50050    0.28050    1.000
    H114     H        0.98180    0.42460    0.23650    1.000
    H115     H        0.60460    0.46550    0.33360    1.000
    C223     C        0.72310    0.53360    0.34580    1.000
    C224     C        0.82190    0.58180    0.44880    1.000
    H116     H        0.77930    0.55440    0.51540    1.000
    H117     H        0.06380    0.85380    0.33890    1.000
    C225     C        0.00310    0.76100    0.34320    1.000
    C226     C        0.96390    0.75730    0.42760    1.000
    H118     H        0.99490    0.84700    0.48860    1.000
    H119     H        0.04000    0.94440    0.90050    1.000
    C227     C        0.99030    0.00980    0.86540    1.000
    C228     C        0.98060    0.01040    0.76540    1.000
    H120     H        0.02000    0.94460    0.72170    1.000
    H121     H        0.69590    0.70510    0.18980    1.000
    C229     C        0.77240    0.66120    0.23920    1.000
    C230     C        0.75300    0.55760    0.18470    1.000
    H122     H        0.66410    0.52170    0.09350    1.000
    H123     H        0.64250    0.97330    0.83580    1.000
    C231     C        0.75960    0.04460    0.84830    1.000
    C232     C        0.85560    0.09890    0.94970    1.000
    H124     H        0.81470    0.07250    0.01780    1.000
    N37      N        0.95970    0.53450    0.33440    1.000
    H125     H        0.99500    0.54030    0.42570    1.000
    H126     H        0.93510    0.51270    0.24300    1.000
    N38      N        0.80250    0.57455    0.38691    1.000
    H127     H        0.70830    0.52960    0.30190    1.000
    H128     H        0.87860    0.61170    0.47850    1.000
    N39      N        0.96600    0.72488    0.37488    1.000
    H129     H        0.00560    0.73840    0.30550    1.000
    H130     H        0.93790    0.73200    0.45060    1.000
    H131     H        0.98080    0.02590    0.90210    1.000
    H132     H        0.96460    0.02750    0.73020    1.000
    N40      N        0.79450    0.60768    0.23952    1.000
    H133     H        0.80120    0.69760    0.27690    1.000
    H134     H        0.76760    0.51910    0.18360    1.000
    H135     H        0.74510    0.03790    0.80400    1.000
    H136     H        0.91100    0.13110    0.97910    1.000
    Ag4      Ag       0.90176    0.61255    0.33748    1.000
