# CIF file generated by openbabel 3.1.0, see https://openbabel.org
data_I
_chemical_name_common 'EVOMOR_clean'
_cell_length_a 8.8647
_cell_length_b 11.707
_cell_length_c 17.8824
_cell_angle_alpha 90
_cell_angle_beta 90
_cell_angle_gamma 99.713
_space_group_name_H-M_alt 'P 1'
_space_group_name_Hall 'P 1'
loop_
    _symmetry_equiv_pos_as_xyz
    x,y,z
loop_
    _atom_site_label
    _atom_site_type_symbol
    _atom_site_fract_x
    _atom_site_fract_y
    _atom_site_fract_z
    _atom_site_occupancy
    Mn1      Mn       0.79401    0.38120    0.17008    1.000
    Mn2      Mn       0.70599    0.61880    0.67008    1.000
    Mn3      Mn       0.20599    0.61880    0.82992    1.000
    Mn4      Mn       0.29401    0.38120    0.32992    1.000
    H1       H        0.98170    0.18610    0.23540    1.000
    H2       H        0.98340    0.99240    0.23680    1.000
    H3       H        0.61630    0.94810    0.10710    1.000
    H4       H        0.62440    0.14350    0.10770    1.000
    H5       H        0.95760    0.81150    0.25040    1.000
    H6       H        0.95130    0.61550    0.24660    1.000
    H7       H        0.63780    0.57950    0.09250    1.000
    H8       H        0.63580    0.77430    0.09180    1.000
    H9       H        0.71690    0.38590    0.88210    1.000
    H10      H        0.88400    0.40030    0.91380    1.000
    H11      H        0.88440    0.59100    0.94330    1.000
    H12      H        0.70790    0.57870    0.92810    1.000
    H13      H        0.51830    0.81390    0.73540    1.000
    H14      H        0.51660    0.00760    0.73680    1.000
    H15      H        0.88370    0.05190    0.60710    1.000
    H16      H        0.87560    0.85650    0.60770    1.000
    H17      H        0.54240    0.18850    0.75040    1.000
    H18      H        0.54870    0.38450    0.74660    1.000
    H19      H        0.86220    0.42050    0.59250    1.000
    H20      H        0.86420    0.22570    0.59180    1.000
    H21      H        0.78310    0.61410    0.38210    1.000
    H22      H        0.61600    0.59970    0.41380    1.000
    H23      H        0.61560    0.40900    0.44330    1.000
    H24      H        0.79210    0.42130    0.42810    1.000
    H25      H        0.01830    0.81390    0.76460    1.000
    H26      H        0.01660    0.00760    0.76320    1.000
    H27      H        0.38370    0.05190    0.89290    1.000
    H28      H        0.37560    0.85650    0.89230    1.000
    H29      H        0.04240    0.18850    0.74960    1.000
    H30      H        0.04870    0.38450    0.75340    1.000
    H31      H        0.36220    0.42050    0.90750    1.000
    H32      H        0.36420    0.22570    0.90820    1.000
    H33      H        0.28310    0.61410    0.11790    1.000
    H34      H        0.11600    0.59970    0.08620    1.000
    H35      H        0.11560    0.40900    0.05670    1.000
    H36      H        0.29210    0.42130    0.07190    1.000
    H37      H        0.48170    0.18610    0.26460    1.000
    H38      H        0.48340    0.99240    0.26320    1.000
    H39      H        0.11630    0.94810    0.39290    1.000
    H40      H        0.12440    0.14350    0.39230    1.000
    H41      H        0.45760    0.81150    0.24960    1.000
    H42      H        0.45130    0.61550    0.25340    1.000
    H43      H        0.13780    0.57950    0.40750    1.000
    H44      H        0.13580    0.77430    0.40820    1.000
    H45      H        0.21690    0.38590    0.61790    1.000
    H46      H        0.38400    0.40030    0.58620    1.000
    H47      H        0.38440    0.59100    0.55670    1.000
    H48      H        0.20790    0.57870    0.57190    1.000
    C1       C        0.90610    0.13760    0.20910    1.000
    C2       C        0.90780    0.02090    0.21000    1.000
    C3       C        0.79930    0.94520    0.17190    1.000
    C4       C        0.69290    0.99490    0.13390    1.000
    C5       C        0.69770    0.11300    0.13490    1.000
    C6       C        0.79740    0.81800    0.17110    1.000
    C7       C        0.89140    0.76640    0.21750    1.000
    C8       C        0.88680    0.64790    0.21490    1.000
    C9       C        0.70330    0.62670    0.12470    1.000
    C10      C        0.70150    0.74420    0.12400    1.000
    C11      C        0.72170    0.38300    0.99690    1.000
    C12      C        0.78480    0.42340    0.92060    1.000
    C13      C        0.80140    0.55340    0.91190    1.000
    C14      C        0.83350    0.58820    0.83180    1.000
    C15      C        0.59390    0.86240    0.70910    1.000
    C16      C        0.59220    0.97910    0.71000    1.000
    C17      C        0.70070    0.05480    0.67190    1.000
    C18      C        0.80710    0.00510    0.63390    1.000
    C19      C        0.80230    0.88700    0.63490    1.000
    C20      C        0.70260    0.18200    0.67110    1.000
    C21      C        0.60860    0.23360    0.71750    1.000
    C22      C        0.61320    0.35210    0.71490    1.000
    C23      C        0.79670    0.37330    0.62470    1.000
    C24      C        0.79850    0.25580    0.62400    1.000
    C25      C        0.77830    0.61700    0.49690    1.000
    C26      C        0.71520    0.57660    0.42060    1.000
    C27      C        0.69860    0.44660    0.41190    1.000
    C28      C        0.66650    0.41180    0.33180    1.000
    C29      C        0.09390    0.86240    0.79090    1.000
    C30      C        0.09220    0.97910    0.79000    1.000
    C31      C        0.20070    0.05480    0.82810    1.000
    C32      C        0.30710    0.00510    0.86610    1.000
    C33      C        0.30230    0.88700    0.86510    1.000
    C34      C        0.20260    0.18200    0.82890    1.000
    C35      C        0.10860    0.23360    0.78250    1.000
    C36      C        0.11320    0.35210    0.78510    1.000
    C37      C        0.29670    0.37330    0.87530    1.000
    C38      C        0.29850    0.25580    0.87600    1.000
    C39      C        0.27830    0.61700    0.00310    1.000
    C40      C        0.21520    0.57660    0.07940    1.000
    C41      C        0.19860    0.44660    0.08810    1.000
    C42      C        0.16650    0.41180    0.16820    1.000
    C43      C        0.40610    0.13760    0.29090    1.000
    C44      C        0.40780    0.02090    0.29000    1.000
    C45      C        0.29930    0.94520    0.32810    1.000
    C46      C        0.19290    0.99490    0.36610    1.000
    C47      C        0.19770    0.11300    0.36510    1.000
    C48      C        0.29740    0.81800    0.32890    1.000
    C49      C        0.39140    0.76640    0.28250    1.000
    C50      C        0.38680    0.64790    0.28510    1.000
    C51      C        0.20330    0.62670    0.37530    1.000
    C52      C        0.20150    0.74420    0.37600    1.000
    C53      C        0.22170    0.38300    0.50310    1.000
    C54      C        0.28480    0.42340    0.57940    1.000
    C55      C        0.30140    0.55340    0.58810    1.000
    C56      C        0.33350    0.58820    0.66820    1.000
    N1       N        0.80120    0.18530    0.17240    1.000
    N2       N        0.79470    0.57730    0.16940    1.000
    N3       N        0.69880    0.81470    0.67240    1.000
    N4       N        0.70530    0.42270    0.66940    1.000
    N5       N        0.19880    0.81470    0.82760    1.000
    N6       N        0.20530    0.42270    0.83060    1.000
    N7       N        0.30120    0.18530    0.32760    1.000
    N8       N        0.29470    0.57730    0.33060    1.000
    O1       O        0.81540    0.38540    0.04949    1.000
    O2       O        0.58190    0.35110    0.00260    1.000
    O3       O        0.96540    0.58800    0.80597    1.000
    O4       O        0.72540    0.61240    0.79233    1.000
    O5       O        0.68460    0.61460    0.54949    1.000
    O6       O        0.91810    0.64890    0.50260    1.000
    O7       O        0.53460    0.41200    0.30597    1.000
    O8       O        0.77460    0.38760    0.29233    1.000
    O9       O        0.18460    0.61460    0.95051    1.000
    O10      O        0.41810    0.64890    0.99740    1.000
    O11      O        0.03460    0.41200    0.19403    1.000
    O12      O        0.27460    0.38760    0.20767    1.000
    O13      O        0.31540    0.38540    0.45051    1.000
    O14      O        0.08190    0.35110    0.49740    1.000
    O15      O        0.46540    0.58800    0.69403    1.000
    O16      O        0.22540    0.61240    0.70767    1.000
