data_functionalizedCrystal
_audit_creation_method	'EQeq! by Chris Wilmer'
_symmetry_space_group_name_H-M	'P1'
_symmetry_Int_Tables_number	1
_symmetry_cell_setting	triclinic
loop_
_symmetry_equiv_pos_as_xyz
  x,y,z
_cell_length_a	25.3468
_cell_length_b	25.3468
_cell_length_c	25.3468
_cell_angle_alpha	90
_cell_angle_beta	90
_cell_angle_gamma	90
loop_
_atom_site_label
_atom_site_type_symbol
_atom_site_fract_x
_atom_site_fract_y
_atom_site_fract_z
_atom_site_charge
Mof_C 	C 	0.45685	0.99155	0.38894	0.059
Mof_C 	C 	0.47455	0.99203	0.33433	-0.057
Mof_H 	H 	0.45125	0.99286	0.29857	0.031
Mof_C 	C 	0.39191	0.98855	0.4586	0.07
Mof_C 	C 	0.33649	0.98304	0.47428	-0.07
Mof_H 	H 	0.30237	0.97972	0.44885	0.03
Mof_C 	C 	0.40645	0.9909	0.40293	-0.095
Mof_C 	C 	0.61115	0.99534	0.45688	0.14
Mof_C 	C 	0.66562	0.99978	0.47445	-0.336
Mof_H 	H 	0.70121	0.00222	0.45097	0.171
Mof_C 	C 	0.5416	0.99096	0.39187	0.083
Mof_C 	C 	0.52583	0.99068	0.33621	-0.074
Mof_H 	H 	0.55111	0.9899	0.30184	0.031
Mof_C 	C 	0.59729	0.99243	0.40655	-0.135
Mof_N 	N 	0.50124	0.99121	0.42426	-0.282
Mof_C 	C 	0.38911	0.98637	0.54328	0.057
Mof_C 	C 	0.33472	0.98152	0.52558	-0.061
Mof_H 	H 	0.29927	0.97699	0.54895	0.028
Mof_C 	C 	0.4585	0.99268	0.60831	0.073
Mof_C 	C 	0.47416	0.99499	0.66396	-0.072
Mof_H 	H 	0.44882	0.99495	0.6983	0.036
Mof_C 	C 	0.40292	0.9887	0.59366	-0.096
Mof_N 	N 	0.4243	0.98956	0.49893	-0.279
Mof_C 	C 	0.54314	0.99698	0.61124	0.04
Mof_C 	C 	0.52542	0.99691	0.66585	-0.053
Mof_H 	H 	0.54868	0.99821	0.70162	0.025
Mof_C 	C 	0.60815	0.99805	0.54154	-0.052
Mof_C 	C 	0.66369	0.00156	0.52572	0.219
Mof_H 	H 	0.69784	0.00572	0.55099	0.004
Mof_Ni	Ni	0.50005	0.99256	0.50009	1.046
Mof_C 	C 	0.59353	0.99818	0.59726	-0.055
Mof_N 	N 	0.49883	0.99415	0.57593	-0.275
Mof_N 	N 	0.57582	0.99534	0.50125	-0.27
Mof_C 	C 	0.38919	0.44928	0.00543	0.074
Mof_C 	C 	0.33486	0.46702	0.01084	-0.056
Mof_H 	H 	0.29947	0.44369	0.01598	0.044
Mof_C 	C 	0.45845	0.3844	0.99698	0.09
Mof_C 	C 	0.47393	0.32909	0.98998	-0.064
Mof_H 	H 	0.4484	0.29505	0.98671	0.051
Mof_C 	C 	0.40295	0.39891	0.00233	-0.112
Mof_C 	C 	0.45696	0.60357	0.99975	0.08
Mof_C 	C 	0.47472	0.65815	0.9987	-0.055
Mof_H 	H 	0.45146	0.69389	0.99667	0.042
Mof_C 	C 	0.39196	0.53396	0.00263	0.089
Mof_C 	C 	0.3366	0.5183	0.00873	-0.067
Mof_H 	H 	0.30251	0.54375	0.01222	0.046
Mof_C 	C 	0.40654	0.58962	0.00012	-0.12
Mof_N 	N 	0.42432	0.49363	0.00161	-0.28
Mof_C 	C 	0.54307	0.3816	0.99256	0.075
Mof_C 	C 	0.52519	0.32732	0.98715	-0.055
Mof_H 	H 	0.54843	0.29195	0.98142	0.048
Mof_C 	C 	0.60826	0.45085	0.99881	0.09
Mof_C 	C 	0.6639	0.46642	0.00184	-0.068
Mof_H 	H 	0.6982	0.44103	0.00199	0.046
Mof_C 	C 	0.5935	0.39531	0.99458	-0.112
Mof_N 	N 	0.49884	0.41672	0.99749	-0.279
Mof_C 	C 	0.61125	0.53546	0.0039	0.073
Mof_C 	C 	0.66583	0.51766	0.00448	-0.055
Mof_H 	H 	0.70159	0.54089	0.00653	0.043
Mof_C 	C 	0.54167	0.60061	0.0026	0.086
Mof_C 	C 	0.52595	0.65628	0.0014	-0.069
Mof_H 	H 	0.55124	0.69064	0.00225	0.044
Mof_Ni	Ni	0.50011	0.49246	0.0003	1.051
Mof_C 	C 	0.59736	0.58588	0.00427	-0.112
Mof_N 	N 	0.57593	0.49122	0.00029	-0.28
Mof_N 	N 	0.50131	0.56826	0.00182	-0.281
Mof_C 	C 	0.99687	0.38129	0.45691	0.065
Mof_C 	C 	0.99147	0.32695	0.47461	-0.055
Mof_H 	H 	0.98732	0.29147	0.45121	0.044
Mof_C 	C 	0.0031	0.45072	0.39196	0.086
Mof_C 	C 	0.00861	0.46643	0.33654	-0.062
Mof_H 	H 	0.01289	0.44105	0.3025	0.047
Mof_C 	C 	0.00017	0.39507	0.40657	-0.102
Mof_C 	C 	0.00341	0.44923	0.61103	0.067
Mof_C 	C 	0.00895	0.46693	0.66536	-0.049
Mof_H 	H 	0.01323	0.44354	0.70082	0.045
Mof_C 	C 	0.99706	0.38428	0.54162	0.073
Mof_C 	C 	0.99163	0.32885	0.52593	-0.061
Mof_H 	H 	0.9875	0.2948	0.55132	0.046
Mof_C 	C 	0.00011	0.3989	0.59726	-0.088
Mof_N 	N 	0.99919	0.41654	0.50125	-0.277
Mof_C 	C 	0.0031	0.53544	0.38897	0.084
Mof_C 	C 	0.00866	0.51775	0.33464	-0.059
Mof_H 	H 	0.01284	0.54116	0.29917	0.046
Mof_C 	C 	0.9965	0.60036	0.45839	0.086
Mof_C 	C 	0.99079	0.65576	0.4741	-0.066
Mof_H 	H 	0.98644	0.68979	0.44871	0.042
Mof_C 	C 	0.99961	0.58577	0.40275	-0.12
Mof_N 	N 	0.00082	0.49109	0.42422	-0.277
Mof_C 	C 	0.99638	0.60335	0.54311	0.079
Mof_C 	C 	0.99067	0.65766	0.52542	-0.061
Mof_H 	H 	0.98635	0.69312	0.54882	0.04
Mof_C 	C 	0.0031	0.53395	0.60805	0.1
Mof_C 	C 	0.00874	0.51826	0.66346	-0.07
Mof_H 	H 	0.01296	0.54365	0.6975	0.05
Mof_Ni	Ni	0.99994	0.49233	0.50001	1.048
Mof_C 	C 	0.99988	0.58959	0.59344	-0.132
Mof_N 	N 	0.99882	0.56811	0.49876	-0.282
Mof_N 	N 	0.00094	0.49358	0.57579	-0.277
Mof_O 	O 	0.86397	0.99504	0.92811	-0.674
Mof_O 	O 	0.13617	0.98978	0.92828	-0.665
Mof_O 	O 	0.99912	0.06384	0.86369	-0.611
Mof_O 	O 	0.00205	0.92028	0.86411	-0.64
Mof_O 	O 	0.00049	0.856	0.92851	-0.633
Mof_O 	O 	0.99822	0.1283	0.92792	-0.64
Mof_O 	O 	0.07181	0.9907	0.86394	-0.675
Mof_O 	O 	0.92836	0.99357	0.86379	-0.669
Mof_Zr	Zr	8e-05	0.99217	0.90688	3.23
Mof_O 	O 	0.04785	0.94422	0.95223	-1.282
Mof_O 	O 	0.95213	0.04024	0.95192	-1.241
Mof_C 	C 	0.87939	0.99518	0.87914	0.489
Mof_C 	C 	0.12076	0.98943	0.87929	0.489
Mof_C 	C 	0.99808	0.11284	0.87898	0.472
Mof_C 	C 	0.00188	0.87131	0.87953	0.472
Mof_H 	H 	0.07038	0.06224	0.92987	0.328
Mof_O 	O 	0.04773	0.03982	0.95236	-1.469
Mof_H 	H 	0.9296	0.92226	0.92997	0.32
Mof_O 	O 	0.95223	0.94473	0.95243	-1.521
Mof_O 	O 	0.13617	0.99318	0.07181	-0.671
Mof_O 	O 	0.86383	0.99157	0.07179	-0.676
Mof_O 	O 	0.07181	0.1284	0.00112	-0.633
Mof_O 	O 	0.07152	0.85607	0.99808	-0.632
Mof_O 	O 	0.92789	0.85641	0.00275	-0.639
Mof_O 	O 	0.92821	0.12858	0.99724	-0.636
Mof_O 	O 	0.00199	0.06442	0.13594	-0.6
Mof_O 	O 	0.99896	0.92083	0.13634	-0.646
Mof_O 	O 	0.00101	0.12869	0.07148	-0.63
Mof_O 	O 	0.99785	0.85639	0.07206	-0.64
Mof_O 	O 	0.13615	0.06402	0.00224	-0.601
Mof_O 	O 	0.86386	0.06426	0.99851	-0.609
Mof_O 	O 	0.86362	0.92086	0.00127	-0.647
Mof_O 	O 	0.13597	0.92035	0.99907	-0.639
Mof_O 	O 	0.07184	0.99459	0.13617	-0.677
Mof_O 	O 	0.92824	0.99055	0.13612	-0.669
Mof_Zr	Zr	0.09314	0.99218	9e-05	3.228
Mof_Zr	Zr	0.90681	0.99255	0.99998	3.23
Mof_Zr	Zr	0.99999	0.08551	0.99978	3.234
Mof_Zr	Zr	0.99974	0.89919	0.00019	3.235
Mof_Zr	Zr	4e-05	0.99254	0.09317	3.229
Mof_O 	O 	0.95196	0.94466	0.04802	-1.287
Mof_O 	O 	0.04794	0.04034	0.04782	-1.232
Mof_C 	C 	0.12082	0.99449	0.12077	0.489
Mof_C 	C 	0.87925	0.99042	0.12075	0.49
Mof_C 	C 	0.12078	0.11302	0.00246	0.469
Mof_C 	C 	0.12053	0.87141	0.99791	0.472
Mof_C 	C 	0.87895	0.87188	0.00289	0.475
Mof_C 	C 	0.87922	0.1132	0.99698	0.47
Mof_C 	C 	0.00217	0.11338	0.12048	0.467
Mof_C 	C 	0.99772	0.87184	0.12103	0.475
Mof_H 	H 	0.92988	0.06276	0.07	0.326
Mof_O 	O 	0.95239	0.04016	0.04756	-1.477
Mof_H 	H 	0.06996	0.92214	0.07027	0.322
Mof_O 	O 	0.0475	0.94469	0.04773	-1.523
Mof_C 	C 	0.28362	0.99293	0.28352	-0.076
Mof_C 	C 	0.3173	0.94909	0.28891	-0.027
Mof_C 	C 	0.35658	0.94816	0.32789	-0.052
Mof_C 	C 	0.36382	0.99144	0.36181	-0.031
Mof_C 	C 	0.33018	0.0352	0.35665	0.018
Mof_C 	C 	0.29032	0.03582	0.31818	0.04
Mof_C 	C 	0.24192	0.99392	0.24177	-0.023
Mof_C 	C 	0.1905	0.01149	0.25318	-0.017
Mof_C 	C 	0.15122	0.01156	0.21411	0.13
Mof_C 	C 	0.16255	0.99488	0.16234	-0.225
Mof_C 	C 	0.21419	0.97793	0.15083	0.054
Mof_C 	C 	0.25319	0.97709	0.1901	-0.086
Mof_H 	H 	0.38168	0.91376	0.33143	0.037
Mof_H 	H 	0.3349	0.06896	0.38241	0.046
Mof_H 	H 	0.112	0.02501	0.2244	0.038
Mof_H 	H 	0.22437	0.96461	0.11153	0.02
Mof_H 	H 	0.2653	0.07029	0.3149	0.033
Mof_H 	H 	0.18041	0.02437	0.29264	0.053
Mof_H 	H 	0.3128	0.91518	0.26333	0.03
Mof_H 	H 	0.29248	0.96378	0.17986	0.04
Mof_C 	C 	0.71727	0.99077	0.28431	-0.078
Mof_C 	C 	0.71103	0.94755	0.31864	-0.025
Mof_C 	C 	0.67195	0.94793	0.35785	-0.064
Mof_C 	C 	0.63867	0.99183	0.3642	-0.015
Mof_C 	C 	0.64515	0.03526	0.33035	0.008
Mof_C 	C 	0.68367	0.03456	0.29058	0.041
Mof_C 	C 	0.75868	0.99024	0.24227	-0.02
Mof_C 	C 	0.74714	0.00751	0.19079	-0.019
Mof_C 	C 	0.78596	0.00693	0.15131	0.125
Mof_C 	C 	0.83764	0.98986	0.16244	-0.221
Mof_C 	C 	0.84922	0.97282	0.21403	0.056
Mof_C 	C 	0.81016	0.97262	0.25328	-0.086
Mof_H 	H 	0.66769	0.91398	0.38345	0.038
Mof_H 	H 	0.62019	0.06966	0.33469	0.049
Mof_H 	H 	0.77562	0.02054	0.11214	0.035
Mof_H 	H 	0.88849	0.95927	0.22404	0.025
Mof_H 	H 	0.68778	0.06868	0.2652	0.032
Mof_H 	H 	0.70781	0.02092	0.18088	0.053
Mof_H 	H 	0.73594	0.91307	0.31462	0.028
Mof_H 	H 	0.82046	0.95945	0.29259	0.04
Mof_C 	C 	0.71629	0.99849	0.71674	-0.069
Mof_C 	C 	0.70937	0.95487	0.68308	-0.034
Mof_C 	C 	0.66951	0.95477	0.64467	-0.046
Mof_C 	C 	0.63611	0.99858	0.63843	-0.054
Mof_C 	C 	0.64339	0.04251	0.6715	0.024
Mof_C 	C 	0.68269	0.04228	0.71052	0.03
Mof_C 	C 	0.75823	0.99818	0.75825	-0.021
Mof_C 	C 	0.7473	0.01543	0.80986	-0.019
Mof_C 	C 	0.78641	0.01423	0.84906	0.122
Mof_C 	C 	0.83778	0.99655	0.83747	-0.217
Mof_C 	C 	0.84885	0.97989	0.78565	0.053
Mof_C 	C 	0.80949	0.98028	0.7467	-0.084
Mof_H 	H 	0.66464	0.92044	0.6197	0.029
Mof_H 	H 	0.61835	0.07687	0.66725	0.043
Mof_H 	H 	0.77647	0.02754	0.88842	0.04
Mof_H 	H 	0.88785	0.96587	0.77528	0.021
Mof_H 	H 	0.6873	0.07668	0.73543	0.035
Mof_H 	H 	0.70814	0.02907	0.82016	0.053
Mof_H 	H 	0.73426	0.92038	0.6871	0.03
Mof_H 	H 	0.81933	0.96712	0.70726	0.039
Mof_C 	C 	0.28296	0.98773	0.71593	-0.074
Mof_C 	C 	0.31784	0.94488	0.71007	-0.027
Mof_C 	C 	0.3564	0.94496	0.6703	-0.052
Mof_C 	C 	0.36154	0.98824	0.63601	-0.029
Mof_C 	C 	0.32711	0.03128	0.64212	0.018
Mof_C 	C 	0.28806	0.03087	0.68132	0.038
Mof_C 	C 	0.24135	0.98751	0.75778	-0.021
Mof_C 	C 	0.18962	0.00407	0.74635	-0.017
Mof_C 	C 	0.15054	0.00413	0.78552	0.125
Mof_C 	C 	0.16226	0.98837	0.83749	-0.22
Mof_C 	C 	0.21408	0.97195	0.84897	0.056
Mof_C 	C 	0.25298	0.97114	0.80954	-0.084
Mof_H 	H 	0.38239	0.91129	0.66626	0.037
Mof_H 	H 	0.33045	0.06517	0.61632	0.047
Mof_H 	H 	0.11119	0.01718	0.77518	0.037
Mof_H 	H 	0.22453	0.95937	0.88845	0.027
Mof_H 	H 	0.26225	0.0647	0.68507	0.033
Mof_H 	H 	0.17921	0.01648	0.70681	0.054
Mof_H 	H 	0.3147	0.91088	0.73575	0.031
Mof_H 	H 	0.2925	0.95852	0.81976	0.042
Mof_C 	C 	0.28328	0.27627	0.00358	-0.012
Mof_C 	C 	0.28679	0.31229	0.96144	-0.022
Mof_C 	C 	0.32573	0.35159	0.9609	-0.062
Mof_C 	C 	0.36166	0.35644	0.00287	0.05
Mof_C 	C 	0.35831	0.32058	0.04502	-0.064
Mof_C 	C 	0.31979	0.28075	0.04523	-0.024
Mof_C 	C 	0.24161	0.23444	0.00399	0.038
Mof_C 	C 	0.25357	0.1823	0.01888	-0.073
Mof_C 	C 	0.21458	0.14293	0.01825	0.045
Mof_C 	C 	0.16236	0.1548	0.00344	-0.124
Mof_C 	C 	0.15033	0.20713	0.98916	0.044
Mof_C 	C 	0.18946	0.24627	0.98911	-0.074
Mof_H 	H 	0.32778	0.37848	0.92776	0.044
Mof_H 	H 	0.38558	0.32349	0.07778	0.045
Mof_H 	H 	0.22534	0.10319	0.02965	0.055
Mof_H 	H 	0.11067	0.21783	0.97741	0.039
Mof_H 	H 	0.31797	0.25395	0.07845	0.038
Mof_H 	H 	0.2934	0.17173	0.03017	0.057
Mof_H 	H 	0.25979	0.30959	0.92844	0.036
Mof_H 	H 	0.17874	0.28609	0.97793	0.05
Mof_C 	C 	0.28358	0.70889	0.99843	-0.012
Mof_C 	C 	0.2899	0.67399	0.95567	-0.024
Mof_C 	C 	0.32984	0.6356	0.95611	-0.069
Mof_C 	C 	0.36394	0.63077	0.99956	0.06
Mof_C 	C 	0.35707	0.66495	0.0427	-0.072
Mof_C 	C 	0.31772	0.70384	0.04194	-0.028
Mof_C 	C 	0.24179	0.75056	0.99768	0.042
Mof_C 	C 	0.25316	0.80232	0.01417	-0.084
Mof_C 	C 	0.21408	0.8415	0.01364	0.036
Mof_C 	C 	0.16227	0.82984	0.99735	-0.128
Mof_C 	C 	0.15084	0.77799	0.98101	0.043
Mof_C 	C 	0.19019	0.73898	0.98077	-0.079
Mof_H 	H 	0.33424	0.60961	0.92248	0.044
Mof_H 	H 	0.38249	0.66164	0.07688	0.043
Mof_H 	H 	0.22436	0.88087	0.02667	0.029
Mof_H 	H 	0.11147	0.76758	0.96805	0.039
Mof_H 	H 	0.31351	0.7296	0.07576	0.031
Mof_H 	H 	0.29258	0.81269	0.02697	0.044
Mof_H 	H 	0.26451	0.67702	0.92145	0.033
Mof_H 	H 	0.18002	0.69945	0.96818	0.05
Mof_C 	C 	0.71701	0.70843	0.00532	-0.016
Mof_C 	C 	0.68507	0.70017	0.96066	-0.024
Mof_C 	C 	0.6467	0.66028	0.96028	-0.065
Mof_C 	C 	0.63866	0.62832	0.00486	0.05
Mof_C 	C 	0.67017	0.63677	0.04972	-0.067
Mof_C 	C 	0.70922	0.67606	0.04978	-0.026
Mof_C 	C 	0.75834	0.75051	0.00538	0.037
Mof_C 	C 	0.8095	0.74009	0.02422	-0.081
Mof_C 	C 	0.84861	0.77929	0.02321	0.044
Mof_C 	C 	0.83732	0.83026	0.00422	-0.139
Mof_C 	C 	0.78591	0.84086	0.98608	0.044
Mof_C 	C 	0.74709	0.80137	0.98621	-0.081
Mof_H 	H 	0.62307	0.65436	0.92517	0.042
Mof_H 	H 	0.66463	0.61271	0.08459	0.042
Mof_H 	H 	0.88766	0.76976	0.03769	0.034
Mof_H 	H 	0.77582	0.87955	0.97102	0.026
Mof_H 	H 	0.73287	0.68167	0.08491	0.032
Mof_H 	H 	0.81954	0.70124	0.03891	0.047
Mof_H 	H 	0.6904	0.72406	0.92564	0.031
Mof_H 	H 	0.70799	0.81077	0.9718	0.044
Mof_C 	C 	0.71576	0.27531	0.99393	-0.012
Mof_C 	C 	0.71032	0.31044	0.95123	-0.024
Mof_C 	C 	0.67051	0.349	0.95114	-0.066
Mof_C 	C 	0.63577	0.35383	0.99408	0.054
Mof_C 	C 	0.64146	0.31912	0.03696	-0.066
Mof_C 	C 	0.68069	0.28012	0.03673	-0.024
Mof_C 	C 	0.75765	0.23372	0.99398	0.039
Mof_C 	C 	0.74612	0.18198	0.01043	-0.077
Mof_C 	C 	0.78533	0.14294	0.01088	0.044
Mof_C 	C 	0.83743	0.1547	0.9956	-0.128
Mof_C 	C 	0.84901	0.20652	0.97925	0.043
Mof_C 	C 	0.80955	0.2454	0.97807	-0.079
Mof_H 	H 	0.66684	0.37523	0.91762	0.044
Mof_H 	H 	0.61534	0.32225	0.07063	0.045
Mof_H 	H 	0.77489	0.10358	0.02383	0.043
Mof_H 	H 	0.88859	0.217	0.96701	0.036
Mof_H 	H 	0.68412	0.25414	0.07046	0.036
Mof_H 	H 	0.70648	0.17152	0.02246	0.053
Mof_H 	H 	0.73636	0.30754	0.9175	0.035
Mof_H 	H 	0.81986	0.28492	0.96555	0.048
Mof_C 	C 	0.00179	0.27544	0.284	-0.004
Mof_C 	C 	0.04381	0.27982	0.32006	-0.024
Mof_C 	C 	0.0434	0.31874	0.35941	-0.064
Mof_C 	C 	0.00065	0.35374	0.36418	0.058
Mof_C 	C 	0.95852	0.34932	0.32842	-0.072
Mof_C 	C 	0.95923	0.31086	0.28858	-0.031
Mof_C 	C 	0.00232	0.23402	0.24195	0.046
Mof_C 	C 	0.98697	0.24603	0.18998	-0.083
Mof_C 	C 	0.98755	0.20718	0.15053	0.033
Mof_C 	C 	0.00279	0.15504	0.16213	-0.115
Mof_C 	C 	0.01801	0.14302	0.21419	0.044
Mof_C 	C 	0.01812	0.18206	0.25345	-0.074
Mof_H 	H 	0.07646	0.32155	0.38633	0.046
Mof_H 	H 	0.92508	0.37575	0.33138	0.043
Mof_H 	H 	0.97542	0.21792	0.11099	0.036
Mof_H 	H 	0.03014	0.1034	0.22462	0.049
Mof_H 	H 	0.92604	0.30826	0.26181	0.035
Mof_H 	H 	0.97505	0.28574	0.17966	0.048
Mof_H 	H 	0.07741	0.25359	0.31733	0.037
Mof_H 	H 	0.02978	0.17135	0.29313	0.055
Mof_C 	C 	0.99868	0.27634	0.71691	-0.017
Mof_C 	C 	0.04123	0.28097	0.68148	-0.019
Mof_C 	C 	0.04188	0.32081	0.64302	-0.05
Mof_C 	C 	0.99971	0.35651	0.6386	0.029
Mof_C 	C 	0.95696	0.35168	0.6736	-0.059
Mof_C 	C 	0.95661	0.31233	0.71251	-0.027
Mof_C 	C 	0.99819	0.2343	0.75834	0.031
Mof_C 	C 	0.98225	0.24578	0.81026	-0.078
Mof_C 	C 	0.9823	0.20653	0.84929	0.045
Mof_C 	C 	0.9976	0.15449	0.83732	-0.138
Mof_C 	C 	0.01306	0.1429	0.78524	0.057
Mof_C 	C 	0.0137	0.18235	0.74639	-0.067
Mof_H 	H 	0.07531	0.32381	0.61658	0.043
Mof_H 	H 	0.92387	0.37857	0.67079	0.04
Mof_H 	H 	0.97003	0.21694	0.88888	0.035
Mof_H 	H 	0.02531	0.10338	0.77456	0.045
Mof_H 	H 	0.92301	0.30956	0.73874	0.035
Mof_H 	H 	0.97049	0.28544	0.82093	0.047
Mof_H 	H 	0.07446	0.25425	0.68408	0.036
Mof_H 	H 	0.02575	0.17204	0.70672	0.055
Mof_C 	C 	0.00137	0.70924	0.716	-0.01
Mof_C 	C 	0.959	0.67357	0.71164	-0.029
Mof_C 	C 	0.95832	0.63512	0.67179	-0.08
Mof_C 	C 	0.0003	0.63093	0.63583	0.072
Mof_C 	C 	0.04288	0.66618	0.64041	-0.073
Mof_C 	C 	0.04324	0.7051	0.67975	-0.023
Mof_C 	C 	0.00187	0.75066	0.75804	0.045
Mof_C 	C 	0.01713	0.80275	0.7464	-0.082
Mof_C 	C 	0.01705	0.84178	0.78566	0.042
Mof_C 	C 	0.0024	0.82966	0.83785	-0.126
Mof_C 	C 	0.98766	0.77739	0.84959	0.034
Mof_C 	C 	0.98704	0.73854	0.81014	-0.087
Mof_H 	H 	0.92502	0.60849	0.66898	0.044
Mof_H 	H 	0.07583	0.66356	0.61333	0.045
Mof_H 	H 	0.02876	0.8815	0.7751	0.03
Mof_H 	H 	0.97599	0.76655	0.88923	0.034
Mof_H 	H 	0.07669	0.73154	0.68231	0.031
Mof_H 	H 	0.02837	0.81354	0.70662	0.045
Mof_H 	H 	0.92593	0.67597	0.73857	0.031
Mof_H 	H 	0.97553	0.69873	0.82055	0.048
Mof_C 	C 	0.99794	0.70835	0.28312	-0.02
Mof_C 	C 	0.95604	0.67214	0.28736	-0.025
Mof_C 	C 	0.95645	0.63279	0.32628	-0.068
Mof_C 	C 	0.99911	0.62816	0.36142	0.048
Mof_C 	C 	0.04113	0.66408	0.35714	-0.062
Mof_C 	C 	0.04039	0.70393	0.31869	-0.021
Mof_C 	C 	0.9974	0.7504	0.24171	0.035
Mof_C 	C 	0.01249	0.80244	0.25378	-0.078
Mof_C 	C 	0.01194	0.84188	0.21492	0.046
Mof_C 	C 	0.99703	0.83019	0.1627	-0.14
Mof_C 	C 	0.98206	0.77808	0.15063	0.045
Mof_C 	C 	0.9819	0.73883	0.18967	-0.081
Mof_H 	H 	0.92348	0.60575	0.32897	0.042
Mof_H 	H 	0.07449	0.66123	0.38368	0.042
Mof_H 	H 	0.02385	0.88146	0.22572	0.026
Mof_H 	H 	0.97019	0.76758	0.11095	0.034
Mof_H 	H 	0.07349	0.73082	0.31621	0.03
Mof_H 	H 	0.02416	0.81281	0.29355	0.044
Mof_H 	H 	0.92252	0.67475	0.26101	0.032
Mof_H 	H 	0.97045	0.6991	0.17892	0.047
_end
