# CIF file generated by openbabel 3.1.0, see https://openbabel.org
data_I
_chemical_name_common 'image0'
_cell_length_a 13.5263
_cell_length_b 13.5263
_cell_length_c 8.0567
_cell_angle_alpha 90
_cell_angle_beta 90
_cell_angle_gamma 120
_space_group_name_H-M_alt 'P 1'
_space_group_name_Hall 'P 1'
loop_
    _symmetry_equiv_pos_as_xyz
    x,y,z
loop_
    _atom_site_label
    _atom_site_type_symbol
    _atom_site_fract_x
    _atom_site_fract_y
    _atom_site_fract_z
    _atom_site_occupancy
    C1       C        0.35426    0.56009    0.72420    1.000
    C2       C        0.46465    0.67738    0.45110    1.000
    N1       N        0.36859    0.50032    0.81020    1.000
    Mn1      Mn       0.30250    0.33791    0.95413    1.000
    O1       O        0.22991    0.18078    0.09280    1.000
    N2       N        0.36678    0.42724    0.19760    1.000
    N3       N        0.45632    0.32084    0.89370    1.000
    O2       O        0.18784    0.24517    0.75310    1.000
    N4       N        0.13888    0.34651    0.99970    1.000
    C3       C        0.26724    0.15694    0.21910    1.000
    H1       H        0.44330    0.46000    0.19940    1.000
    H2       H        0.34950    0.48330    0.20530    1.000
    C4       C        0.31960    0.35190    0.34410    1.000
    C5       C        0.34566    0.25420    0.33600    1.000
    H3       H        0.23760    0.32080    0.34840    1.000
    H4       H        0.35240    0.39600    0.44440    1.000
    H5       H        0.42320    0.28670    0.29150    1.000
    H6       H        0.28610    0.19750    0.55990    1.000
    H7       H        0.41070    0.25550    0.55500    1.000
    C6       C        0.43991    0.79417    0.72420    1.000
    C7       C        0.32262    0.78727    0.45110    1.000
    N5       N        0.49968    0.86827    0.81020    1.000
    Mn2      Mn       0.66209    0.96459    0.95413    1.000
    O3       O        0.81922    0.04913    0.09280    1.000
    N6       N        0.57276    0.93954    0.19760    1.000
    N7       N        0.67916    0.13548    0.89370    1.000
    O4       O        0.75483    0.94267    0.75310    1.000
    N8       N        0.65349    0.79237    0.99970    1.000
    C8       C        0.84306    0.11030    0.21910    1.000
    H8       H        0.54000    0.98330    0.19940    1.000
    H9       H        0.51670    0.86620    0.20530    1.000
    C9       C        0.64810    0.96770    0.34410    1.000
    C10      C        0.74580    0.09146    0.33600    1.000
    H10      H        0.67920    0.91680    0.34840    1.000
    H11      H        0.60400    0.95640    0.44440    1.000
    H12      H        0.71330    0.13650    0.29150    1.000
    H13      H        0.80250    0.08860    0.55990    1.000
    H14      H        0.74450    0.15520    0.55500    1.000
    C11      C        0.20583    0.64574    0.72420    1.000
    C12      C        0.21273    0.53535    0.45110    1.000
    N9       N        0.13173    0.63141    0.81020    1.000
    Mn3      Mn       0.03541    0.69750    0.95413    1.000
    O5       O        0.95087    0.77009    0.09280    1.000
    N10      N        0.06046    0.63322    0.19760    1.000
    N11      N        0.86452    0.54368    0.89370    1.000
    O6       O        0.05733    0.81216    0.75310    1.000
    N12      N        0.20763    0.86112    0.99970    1.000
    C13      C        0.88970    0.73276    0.21910    1.000
    H15      H        0.01670    0.55670    0.19940    1.000
    H16      H        0.13380    0.65050    0.20530    1.000
    C14      C        0.03230    0.68040    0.34410    1.000
    C15      C        0.90854    0.65434    0.33600    1.000
    H17      H        0.08320    0.76240    0.34840    1.000
    H18      H        0.04360    0.64760    0.44440    1.000
    H19      H        0.86350    0.57680    0.29150    1.000
    H20      H        0.91140    0.71390    0.55990    1.000
    H21      H        0.84480    0.58930    0.55500    1.000
    C16      C        0.64574    0.43991    0.22420    1.000
    C17      C        0.53535    0.32262    0.95110    1.000
    N13      N        0.63141    0.49968    0.31020    1.000
    Mn4      Mn       0.69750    0.66209    0.45413    1.000
    O7       O        0.77009    0.81922    0.59280    1.000
    N14      N        0.63322    0.57276    0.69760    1.000
    N15      N        0.54368    0.67916    0.39370    1.000
    O8       O        0.81216    0.75483    0.25310    1.000
    N16      N        0.86112    0.65349    0.49970    1.000
    C18      C        0.73276    0.84306    0.71910    1.000
    H22      H        0.55670    0.54000    0.69940    1.000
    H23      H        0.65050    0.51670    0.70530    1.000
    C19      C        0.68040    0.64810    0.84410    1.000
    C20      C        0.65434    0.74580    0.83600    1.000
    H24      H        0.76240    0.67920    0.84840    1.000
    H25      H        0.64760    0.60400    0.94440    1.000
    H26      H        0.57680    0.71330    0.79150    1.000
    H27      H        0.71390    0.80250    0.05990    1.000
    H28      H        0.58930    0.74450    0.05500    1.000
    C21      C        0.56009    0.20583    0.22420    1.000
    C22      C        0.67738    0.21273    0.95110    1.000
    N17      N        0.50032    0.13173    0.31020    1.000
    Mn5      Mn       0.33791    0.03541    0.45413    1.000
    O9       O        0.18078    0.95087    0.59280    1.000
    N18      N        0.42724    0.06046    0.69760    1.000
    N19      N        0.32084    0.86452    0.39370    1.000
    O10      O        0.24517    0.05733    0.25310    1.000
    N20      N        0.34651    0.20763    0.49970    1.000
    C23      C        0.15694    0.88970    0.71910    1.000
    H29      H        0.46000    0.01670    0.69940    1.000
    H30      H        0.48330    0.13380    0.70530    1.000
    C24      C        0.35190    0.03230    0.84410    1.000
    C25      C        0.25420    0.90854    0.83600    1.000
    H31      H        0.32080    0.08320    0.84840    1.000
    H32      H        0.39600    0.04360    0.94440    1.000
    H33      H        0.28670    0.86350    0.79150    1.000
    H34      H        0.19750    0.91140    0.05990    1.000
    H35      H        0.25550    0.84480    0.05500    1.000
    C26      C        0.79417    0.35426    0.22420    1.000
    C27      C        0.78727    0.46465    0.95110    1.000
    N21      N        0.86827    0.36859    0.31020    1.000
    Mn6      Mn       0.96459    0.30250    0.45413    1.000
    O11      O        0.04913    0.22991    0.59280    1.000
    N22      N        0.93954    0.36678    0.69760    1.000
    N23      N        0.13548    0.45632    0.39370    1.000
    O12      O        0.94267    0.18784    0.25310    1.000
    N24      N        0.79237    0.13888    0.49970    1.000
    C28      C        0.11030    0.26724    0.71910    1.000
    H36      H        0.98330    0.44330    0.69940    1.000
    H37      H        0.86620    0.34950    0.70530    1.000
    C29      C        0.96770    0.31960    0.84410    1.000
    C30      C        0.09146    0.34566    0.83600    1.000
    H38      H        0.91680    0.23760    0.84840    1.000
    H39      H        0.95640    0.35240    0.94440    1.000
    H40      H        0.13650    0.42320    0.79150    1.000
    H41      H        0.08860    0.28610    0.05990    1.000
    H42      H        0.15520    0.41070    0.05500    1.000
    Mn7      Mn       0.33333    0.66667    0.57942    1.000
    Mn8      Mn       0.66667    0.33333    0.07942    1.000
