# CIF file generated by openbabel 3.1.0, see https://openbabel.org
data_I
_chemical_name_common 'image0'
_cell_length_a 10.168
_cell_length_b 18.035
_cell_length_c 27.054
_cell_angle_alpha 90
_cell_angle_beta 99.321
_cell_angle_gamma 90
_space_group_name_H-M_alt 'P 1'
_space_group_name_Hall 'P 1'
loop_
    _symmetry_equiv_pos_as_xyz
    x,y,z
loop_
    _atom_site_label
    _atom_site_type_symbol
    _atom_site_fract_x
    _atom_site_fract_y
    _atom_site_fract_z
    _atom_site_occupancy
    Co1      Co       0.46930    0.69084    0.30951    1.000
    Co2      Co       0.64085    0.76571    0.21691    1.000
    O1       O        0.35500    0.64781    0.35658    1.000
    O2       O        0.24180    0.70493    0.29330    1.000
    O3       O        0.65490    0.66851    0.33874    1.000
    O4       O        0.56260    0.84480    0.25399    1.000
    C1       C        0.75200    0.68330    0.31815    1.000
    C2       C        0.24540    0.66760    0.33175    1.000
    O5       O        0.74830    0.71696    0.27867    1.000
    C3       C        0.12000    0.64740    0.35020    1.000
    C4       C        0.12370    0.60270    0.39145    1.000
    H1       H        0.20490    0.58350    0.40690    1.000
    C5       C        0.50410    0.99710    0.44849    1.000
    O6       O        0.48170    0.79715    0.31803    1.000
    C6       C        0.88390    0.65710    0.34405    1.000
    O7       O        0.54510    0.11749    0.24296    1.000
    C7       C        0.52330    0.92265    0.31980    1.000
    C8       C        0.89020    0.61430    0.38656    1.000
    H2       H        0.81260    0.60450    0.39940    1.000
    C9       C        0.51940    0.05416    0.31537    1.000
    C10      C        0.08080    0.56320    0.50189    1.000
    C11      C        0.00970    0.54000    0.45619    1.000
    C12      C        0.99910    0.67390    0.32605    1.000
    H3       H        0.99560    0.70330    0.29760    1.000
    C13      C        0.00960    0.58570    0.41031    1.000
    C14      C        0.50930    0.99390    0.39397    1.000
    C15      C        0.52780    0.98710    0.29275    1.000
    H4       H        0.53660    0.98490    0.25910    1.000
    C16      C        0.51580    0.92679    0.36990    1.000
    H5       H        0.51500    0.88320    0.38820    1.000
    C17      C        0.52430    0.84890    0.29543    1.000
    C18      C        0.06910    0.52290    0.54650    1.000
    C19      C        0.51000    0.05830    0.36574    1.000
    H6       H        0.50400    0.10430    0.38080    1.000
    O8       O        0.06140    0.88900    0.42421    1.000
    O9       O        0.30880    0.71110    0.55812    1.000
    C20      C        0.61390    0.02420    0.48113    1.000
    O10      O        0.28580    0.64080    0.63694    1.000
    C21      C        0.16050    0.62880    0.50628    1.000
    H7       H        0.16540    0.65710    0.47790    1.000
    C22      C        0.39170    0.97220    0.46628    1.000
    C23      C        0.13760    0.55080    0.59238    1.000
    H8       H        0.12890    0.52660    0.62200    1.000
    C24      C        0.28100    0.94310    0.43445    1.000
    H9       H        0.28410    0.93930    0.40040    1.000
    C25      C        0.22810    0.65020    0.55033    1.000
    O11      O        0.95450    0.09350    0.48449    1.000
    C26      C        0.73270    0.04580    0.46473    1.000
    H10      H        0.73800    0.04180    0.43080    1.000
    O12      O        0.48370    0.18283    0.30331    1.000
    C27      C        0.16900    0.92010    0.45175    1.000
    C28      C        0.21500    0.61120    0.59418    1.000
    C29      C        0.83910    0.07210    0.49601    1.000
    C30      C        0.32570    0.75270    0.51520    1.000
    H11      H        0.37640    0.72430    0.49490    1.000
    H12      H        0.37220    0.79790    0.52550    1.000
    H13      H        0.24000    0.76420    0.49620    1.000
    C31      C        0.96950    0.08650    0.43280    1.000
    H14      H        0.90840    0.11970    0.41300    1.000
    H15      H        0.05920    0.09980    0.42970    1.000
    H16      H        0.95210    0.03660    0.42130    1.000
    C32      C        0.06920    0.87120    0.37290    1.000
    H17      H        0.11650    0.90980    0.35880    1.000
    H18      H        0.98090    0.86700    0.35420    1.000
    H19      H        0.11550    0.82500    0.37160    1.000
    C33      C        0.27480    0.60260    0.68280    1.000
    H20      H        0.31640    0.55480    0.68280    1.000
    H21      H        0.18240    0.59640    0.68540    1.000
    H22      H        0.31810    0.63100    0.71070    1.000
    C34      C        0.51420    0.12430    0.28512    1.000
    O13      O        0.80530    0.80620    0.20230    1.000
    H23      H        0.80600    0.83170    0.17590    1.000
    H24      H        0.87700    0.79970    0.22280    1.000
    O14      O        0.77780    0.72550    0.17740    1.000
    H25      H        0.83350    0.68490    0.19200    1.000
    H26      H        0.75320    0.72320    0.14120    1.000
    Co3      Co       0.53070    0.19084    0.19049    1.000
    Co4      Co       0.35915    0.26571    0.28309    1.000
    O15      O        0.64500    0.14781    0.14342    1.000
    O16      O        0.75820    0.20493    0.20670    1.000
    O17      O        0.34510    0.16851    0.16126    1.000
    O18      O        0.43740    0.34480    0.24601    1.000
    C35      C        0.24800    0.18330    0.18185    1.000
    C36      C        0.75460    0.16760    0.16825    1.000
    O19      O        0.25170    0.21696    0.22133    1.000
    C37      C        0.88000    0.14740    0.14980    1.000
    C38      C        0.87630    0.10270    0.10855    1.000
    H27      H        0.79510    0.08350    0.09310    1.000
    C39      C        0.49590    0.49710    0.05151    1.000
    O20      O        0.51830    0.29715    0.18197    1.000
    C40      C        0.11610    0.15710    0.15595    1.000
    O21      O        0.45490    0.61749    0.25704    1.000
    C41      C        0.47670    0.42265    0.18020    1.000
    C42      C        0.10980    0.11430    0.11344    1.000
    H28      H        0.18740    0.10450    0.10060    1.000
    C43      C        0.48060    0.55416    0.18463    1.000
    C44      C        0.91920    0.06320    0.99811    1.000
    C45      C        0.99030    0.04000    0.04381    1.000
    C46      C        0.00090    0.17390    0.17395    1.000
    H29      H        0.00440    0.20330    0.20240    1.000
    C47      C        0.99040    0.08570    0.08969    1.000
    C48      C        0.49070    0.49390    0.10603    1.000
    C49      C        0.47220    0.48710    0.20725    1.000
    H30      H        0.46340    0.48490    0.24090    1.000
    C50      C        0.48420    0.42679    0.13010    1.000
    H31      H        0.48500    0.38320    0.11180    1.000
    C51      C        0.47570    0.34890    0.20457    1.000
    C52      C        0.93090    0.02290    0.95350    1.000
    C53      C        0.49000    0.55830    0.13426    1.000
    H32      H        0.49600    0.60430    0.11920    1.000
    O22      O        0.93860    0.38900    0.07579    1.000
    O23      O        0.69120    0.21110    0.94188    1.000
    C54      C        0.38610    0.52420    0.01887    1.000
    O24      O        0.71420    0.14080    0.86306    1.000
    C55      C        0.83950    0.12880    0.99372    1.000
    H33      H        0.83460    0.15710    0.02210    1.000
    C56      C        0.60830    0.47220    0.03372    1.000
    C57      C        0.86240    0.05080    0.90762    1.000
    H34      H        0.87110    0.02660    0.87800    1.000
    C58      C        0.71900    0.44310    0.06555    1.000
    H35      H        0.71590    0.43930    0.09960    1.000
    C59      C        0.77190    0.15020    0.94967    1.000
    O25      O        0.04550    0.59350    0.01551    1.000
    C60      C        0.26730    0.54580    0.03527    1.000
    H36      H        0.26200    0.54180    0.06920    1.000
    O26      O        0.51630    0.68283    0.19669    1.000
    C61      C        0.83100    0.42010    0.04825    1.000
    C62      C        0.78500    0.11120    0.90582    1.000
    C63      C        0.16090    0.57210    0.00399    1.000
    C64      C        0.67430    0.25270    0.98480    1.000
    H37      H        0.62360    0.22430    0.00510    1.000
    H38      H        0.62780    0.29790    0.97450    1.000
    H39      H        0.76000    0.26420    0.00380    1.000
    C65      C        0.03050    0.58650    0.06720    1.000
    H40      H        0.09160    0.61970    0.08700    1.000
    H41      H        0.94080    0.59980    0.07030    1.000
    H42      H        0.04790    0.53660    0.07870    1.000
    C66      C        0.93080    0.37120    0.12710    1.000
    H43      H        0.88350    0.40980    0.14120    1.000
    H44      H        0.01910    0.36700    0.14580    1.000
    H45      H        0.88450    0.32500    0.12840    1.000
    C67      C        0.72520    0.10260    0.81720    1.000
    H46      H        0.68360    0.05480    0.81720    1.000
    H47      H        0.81760    0.09640    0.81460    1.000
    H48      H        0.68190    0.13100    0.78930    1.000
    C68      C        0.48580    0.62430    0.21488    1.000
    O27      O        0.19470    0.30620    0.29770    1.000
    H49      H        0.19400    0.33170    0.32410    1.000
    H50      H        0.12300    0.29970    0.27720    1.000
    O28      O        0.22220    0.22550    0.32260    1.000
    H51      H        0.16650    0.18490    0.30800    1.000
    H52      H        0.24680    0.22320    0.35880    1.000
    Co5      Co       0.53070    0.30916    0.69049    1.000
    Co6      Co       0.35915    0.23429    0.78309    1.000
    O29      O        0.64500    0.35219    0.64342    1.000
    O30      O        0.75820    0.29507    0.70670    1.000
    O31      O        0.34510    0.33149    0.66126    1.000
    O32      O        0.43740    0.15520    0.74601    1.000
    C69      C        0.24800    0.31670    0.68185    1.000
    C70      C        0.75460    0.33240    0.66825    1.000
    O33      O        0.25170    0.28304    0.72133    1.000
    C71      C        0.88000    0.35260    0.64980    1.000
    C72      C        0.87630    0.39730    0.60855    1.000
    H53      H        0.79510    0.41650    0.59310    1.000
    C73      C        0.49590    0.00290    0.55151    1.000
    O34      O        0.51830    0.20285    0.68197    1.000
    C74      C        0.11610    0.34290    0.65595    1.000
    O35      O        0.45490    0.88251    0.75704    1.000
    C75      C        0.47670    0.07735    0.68020    1.000
    C76      C        0.10980    0.38570    0.61344    1.000
    H54      H        0.18740    0.39550    0.60060    1.000
    C77      C        0.48060    0.94584    0.68463    1.000
    C78      C        0.91920    0.43680    0.49811    1.000
    C79      C        0.99030    0.46000    0.54381    1.000
    C80      C        0.00090    0.32610    0.67395    1.000
    H55      H        0.00440    0.29670    0.70240    1.000
    C81      C        0.99040    0.41430    0.58969    1.000
    C82      C        0.49070    0.00610    0.60603    1.000
    C83      C        0.47220    0.01290    0.70725    1.000
    H56      H        0.46340    0.01510    0.74090    1.000
    C84      C        0.48420    0.07321    0.63010    1.000
    H57      H        0.48500    0.11680    0.61180    1.000
    C85      C        0.47570    0.15110    0.70457    1.000
    C86      C        0.93090    0.47710    0.45350    1.000
    C87      C        0.49000    0.94170    0.63426    1.000
    H58      H        0.49600    0.89570    0.61920    1.000
    O36      O        0.93860    0.11100    0.57579    1.000
    O37      O        0.69120    0.28890    0.44188    1.000
    C88      C        0.38610    0.97580    0.51887    1.000
    O38      O        0.71420    0.35920    0.36306    1.000
    C89      C        0.83950    0.37120    0.49372    1.000
    H59      H        0.83460    0.34290    0.52210    1.000
    C90      C        0.60830    0.02780    0.53372    1.000
    C91      C        0.86240    0.44920    0.40762    1.000
    H60      H        0.87110    0.47340    0.37800    1.000
    C92      C        0.71900    0.05690    0.56555    1.000
    H61      H        0.71590    0.06070    0.59960    1.000
    C93      C        0.77190    0.34980    0.44967    1.000
    O39      O        0.04550    0.90650    0.51551    1.000
    C94      C        0.26730    0.95420    0.53527    1.000
    H62      H        0.26200    0.95820    0.56920    1.000
    O40      O        0.51630    0.81717    0.69669    1.000
    C95      C        0.83100    0.07990    0.54825    1.000
    C96      C        0.78500    0.38880    0.40582    1.000
    C97      C        0.16090    0.92790    0.50399    1.000
    C98      C        0.67430    0.24730    0.48480    1.000
    H63      H        0.62360    0.27570    0.50510    1.000
    H64      H        0.62780    0.20210    0.47450    1.000
    H65      H        0.76000    0.23580    0.50380    1.000
    C99      C        0.03050    0.91350    0.56720    1.000
    H66      H        0.09160    0.88030    0.58700    1.000
    H67      H        0.94080    0.90020    0.57030    1.000
    H68      H        0.04790    0.96340    0.57870    1.000
    C100     C        0.93080    0.12880    0.62710    1.000
    H69      H        0.88350    0.09020    0.64120    1.000
    H70      H        0.01910    0.13300    0.64580    1.000
    H71      H        0.88450    0.17500    0.62840    1.000
    C101     C        0.72520    0.39740    0.31720    1.000
    H72      H        0.68360    0.44520    0.31720    1.000
    H73      H        0.81760    0.40360    0.31460    1.000
    H74      H        0.68190    0.36900    0.28930    1.000
    C102     C        0.48580    0.87570    0.71488    1.000
    O41      O        0.19470    0.19380    0.79770    1.000
    H75      H        0.19400    0.16830    0.82410    1.000
    H76      H        0.12300    0.20030    0.77720    1.000
    O42      O        0.22220    0.27450    0.82260    1.000
    H77      H        0.16650    0.31510    0.80800    1.000
    H78      H        0.24680    0.27680    0.85880    1.000
    Co7      Co       0.46930    0.80916    0.80951    1.000
    Co8      Co       0.64085    0.73429    0.71691    1.000
    O43      O        0.35500    0.85219    0.85658    1.000
    O44      O        0.24180    0.79507    0.79330    1.000
    O45      O        0.65490    0.83149    0.83874    1.000
    O46      O        0.56260    0.65520    0.75399    1.000
    C103     C        0.75200    0.81670    0.81815    1.000
    C104     C        0.24540    0.83240    0.83175    1.000
    O47      O        0.74830    0.78304    0.77867    1.000
    C105     C        0.12000    0.85260    0.85020    1.000
    C106     C        0.12370    0.89730    0.89145    1.000
    H79      H        0.20490    0.91650    0.90690    1.000
    C107     C        0.50410    0.50290    0.94849    1.000
    O48      O        0.48170    0.70285    0.81803    1.000
    C108     C        0.88390    0.84290    0.84405    1.000
    O49      O        0.54510    0.38251    0.74296    1.000
    C109     C        0.52330    0.57735    0.81980    1.000
    C110     C        0.89020    0.88570    0.88656    1.000
    H80      H        0.81260    0.89550    0.89940    1.000
    C111     C        0.51940    0.44584    0.81537    1.000
    C112     C        0.08080    0.93680    0.00189    1.000
    C113     C        0.00970    0.96000    0.95619    1.000
    C114     C        0.99910    0.82610    0.82605    1.000
    H81      H        0.99560    0.79670    0.79760    1.000
    C115     C        0.00960    0.91430    0.91031    1.000
    C116     C        0.50930    0.50610    0.89397    1.000
    C117     C        0.52780    0.51290    0.79275    1.000
    H82      H        0.53660    0.51510    0.75910    1.000
    C118     C        0.51580    0.57321    0.86990    1.000
    H83      H        0.51500    0.61680    0.88820    1.000
    C119     C        0.52430    0.65110    0.79543    1.000
    C120     C        0.06910    0.97710    0.04650    1.000
    C121     C        0.51000    0.44170    0.86574    1.000
    H84      H        0.50400    0.39570    0.88080    1.000
    O50      O        0.06140    0.61100    0.92421    1.000
    O51      O        0.30880    0.78890    0.05812    1.000
    C122     C        0.61390    0.47580    0.98113    1.000
    O52      O        0.28580    0.85920    0.13694    1.000
    C123     C        0.16050    0.87120    0.00628    1.000
    H85      H        0.16540    0.84290    0.97790    1.000
    C124     C        0.39170    0.52780    0.96628    1.000
    C125     C        0.13760    0.94920    0.09238    1.000
    H86      H        0.12890    0.97340    0.12200    1.000
    C126     C        0.28100    0.55690    0.93445    1.000
    H87      H        0.28410    0.56070    0.90040    1.000
    C127     C        0.22810    0.84980    0.05033    1.000
    O53      O        0.95450    0.40650    0.98449    1.000
    C128     C        0.73270    0.45420    0.96473    1.000
    H88      H        0.73800    0.45820    0.93080    1.000
    O54      O        0.48370    0.31717    0.80331    1.000
    C129     C        0.16900    0.57990    0.95175    1.000
    C130     C        0.21500    0.88880    0.09418    1.000
    C131     C        0.83910    0.42790    0.99601    1.000
    C132     C        0.32570    0.74730    0.01520    1.000
    H89      H        0.37640    0.77570    0.99490    1.000
    H90      H        0.37220    0.70210    0.02550    1.000
    H91      H        0.24000    0.73580    0.99620    1.000
    C133     C        0.96950    0.41350    0.93280    1.000
    H92      H        0.90840    0.38030    0.91300    1.000
    H93      H        0.05920    0.40020    0.92970    1.000
    H94      H        0.95210    0.46340    0.92130    1.000
    C134     C        0.06920    0.62880    0.87290    1.000
    H95      H        0.11650    0.59020    0.85880    1.000
    H96      H        0.98090    0.63300    0.85420    1.000
    H97      H        0.11550    0.67500    0.87160    1.000
    C135     C        0.27480    0.89740    0.18280    1.000
    H98      H        0.31640    0.94520    0.18280    1.000
    H99      H        0.18240    0.90360    0.18540    1.000
    H100     H        0.31810    0.86900    0.21070    1.000
    C136     C        0.51420    0.37570    0.78512    1.000
    O55      O        0.80530    0.69380    0.70230    1.000
    H101     H        0.80600    0.66830    0.67590    1.000
    H102     H        0.87700    0.70030    0.72280    1.000
    O56      O        0.77780    0.77450    0.67740    1.000
    H103     H        0.83350    0.81510    0.69200    1.000
    H104     H        0.75320    0.77680    0.64120    1.000
