# CIF file generated by openbabel 3.1.0, see https://openbabel.org
data_I
_chemical_name_common 'image0'
_cell_length_a 11.2896
_cell_length_b 12.1049
_cell_length_c 16.1579
_cell_angle_alpha 90
_cell_angle_beta 129.914
_cell_angle_gamma 90
_space_group_name_H-M_alt 'P 1'
_space_group_name_Hall 'P 1'
loop_
    _symmetry_equiv_pos_as_xyz
    x,y,z
loop_
    _atom_site_label
    _atom_site_type_symbol
    _atom_site_fract_x
    _atom_site_fract_y
    _atom_site_fract_z
    _atom_site_occupancy
    Zn1      Zn       0.82132    0.02471    0.48098    1.000
    S1       S        0.97715    0.96244    0.71584    1.000
    O1       O        0.92720    0.92544    0.61072    1.000
    O2       O        0.13310    0.92960    0.80265    1.000
    O3       O        0.94460    0.07620    0.71460    1.000
    O4       O        0.39460    0.98006    0.55763    1.000
    O5       O        0.36210    0.85415    0.63532    1.000
    O6       O        0.78410    0.57851    0.87254    1.000
    O7       O        0.02394    0.64134    0.96261    1.000
    C1       C        0.85760    0.88758    0.73180    1.000
    C2       C        0.70490    0.92009    0.67184    1.000
    H1       H        0.66680    0.97890    0.62390    1.000
    C3       C        0.60930    0.86461    0.68369    1.000
    C4       C        0.44530    0.90080    0.62190    1.000
    C5       C        0.66690    0.77597    0.75412    1.000
    H2       H        0.60270    0.73830    0.76180    1.000
    C6       C        0.81930    0.74286    0.81331    1.000
    C7       C        0.91620    0.79983    0.80278    1.000
    H3       H        0.01900    0.77910    0.84300    1.000
    C8       C        0.88120    0.64705    0.88854    1.000
    Zn2      Zn       0.17868    0.52471    0.01902    1.000
    S2       S        0.02285    0.46244    0.78416    1.000
    O8       O        0.07280    0.42544    0.88928    1.000
    O9       O        0.86690    0.42960    0.69735    1.000
    O10      O        0.05540    0.57620    0.78540    1.000
    O11      O        0.60540    0.48006    0.94237    1.000
    O12      O        0.63790    0.35415    0.86468    1.000
    O13      O        0.21590    0.07851    0.62746    1.000
    O14      O        0.97606    0.14134    0.53739    1.000
    C9       C        0.14240    0.38758    0.76820    1.000
    C10      C        0.29510    0.42009    0.82816    1.000
    H4       H        0.33320    0.47890    0.87610    1.000
    C11      C        0.39070    0.36461    0.81631    1.000
    C12      C        0.55470    0.40080    0.87810    1.000
    C13      C        0.33310    0.27597    0.74588    1.000
    H5       H        0.39730    0.23830    0.73820    1.000
    C14      C        0.18070    0.24286    0.68669    1.000
    C15      C        0.08380    0.29983    0.69722    1.000
    H6       H        0.98100    0.27910    0.65700    1.000
    C16      C        0.11880    0.14705    0.61146    1.000
    Zn3      Zn       0.17868    0.97529    0.51902    1.000
    S3       S        0.02285    0.03756    0.28416    1.000
    O15      O        0.07280    0.07456    0.38928    1.000
    O16      O        0.86690    0.07040    0.19735    1.000
    O17      O        0.05540    0.92380    0.28540    1.000
    O18      O        0.60540    0.01994    0.44237    1.000
    O19      O        0.63790    0.14585    0.36468    1.000
    O20      O        0.21590    0.42149    0.12746    1.000
    O21      O        0.97606    0.35866    0.03739    1.000
    C17      C        0.14240    0.11242    0.26820    1.000
    C18      C        0.29510    0.07991    0.32816    1.000
    H7       H        0.33320    0.02110    0.37610    1.000
    C19      C        0.39070    0.13539    0.31631    1.000
    C20      C        0.55470    0.09920    0.37810    1.000
    C21      C        0.33310    0.22403    0.24588    1.000
    H8       H        0.39730    0.26170    0.23820    1.000
    C22      C        0.18070    0.25714    0.18669    1.000
    C23      C        0.08380    0.20017    0.19722    1.000
    H9       H        0.98100    0.22090    0.15700    1.000
    C24      C        0.11880    0.35295    0.11146    1.000
    Zn4      Zn       0.82132    0.47529    0.98098    1.000
    S4       S        0.97715    0.53756    0.21584    1.000
    O22      O        0.92720    0.57456    0.11072    1.000
    O23      O        0.13310    0.57040    0.30265    1.000
    O24      O        0.94460    0.42380    0.21460    1.000
    O25      O        0.39460    0.51994    0.05763    1.000
    O26      O        0.36210    0.64585    0.13532    1.000
    O27      O        0.78410    0.92149    0.37254    1.000
    O28      O        0.02394    0.85866    0.46261    1.000
    C25      C        0.85760    0.61242    0.23180    1.000
    C26      C        0.70490    0.57991    0.17184    1.000
    H10      H        0.66680    0.52110    0.12390    1.000
    C27      C        0.60930    0.63539    0.18369    1.000
    C28      C        0.44530    0.59920    0.12190    1.000
    C29      C        0.66690    0.72403    0.25412    1.000
    H11      H        0.60270    0.76170    0.26180    1.000
    C30      C        0.81930    0.75714    0.31331    1.000
    C31      C        0.91620    0.70017    0.30278    1.000
    H12      H        0.01900    0.72090    0.34300    1.000
    C32      C        0.88120    0.85295    0.38854    1.000
