data_functionalizedCrystal
_audit_creation_method	'EQeq! by Chris Wilmer'
_symmetry_space_group_name_H-M	'P1'
_symmetry_Int_Tables_number	1
_symmetry_cell_setting	triclinic
loop_
_symmetry_equiv_pos_as_xyz
  x,y,z
_cell_length_a	34.091
_cell_length_b	34.091
_cell_length_c	8.5082
_cell_angle_alpha	90
_cell_angle_beta	90
_cell_angle_gamma	120
loop_
_atom_site_label
_atom_site_type_symbol
_atom_site_fract_x
_atom_site_fract_y
_atom_site_fract_z
_atom_site_charge
Mof_Ag	Ag	0.85146	0.171	0.49633	0.641
Mof_O 	O 	0.33046	0.32525	0.56093	-0.199
Mof_N 	N 	0.79312	0.13135	0.3424	-0.189
Mof_N 	N 	0.72173	0.91738	0.3888	-0.19
Mof_C 	C 	0.78052	0.15334	0.2426	0.071
Mof_H 	H 	0.7976	0.1855	0.2409	0.024
Mof_C 	C 	0.41082	0.4652	0.47543	-0.105
Mof_H 	H 	0.06983	0.81547	0.73937	0.124
Mof_C 	C 	0.38567	0.4186	0.47723	0.035
Mof_H 	H 	0.35997	0.40293	0.41123	0.072
Mof_C 	C 	0.39876	0.39511	0.57783	-0.053
Mof_C 	C 	0.76904	0.08589	0.3412	0.051
Mof_H 	H 	0.7778	0.0696	0.4098	0.044
Mof_C 	C 	0.37105	0.34446	0.58273	0.179
Mof_C 	C 	0.72779	0.98491	0.2791	-0.052
Mof_C 	C 	0.43687	0.33092	0.55343	0.042
Mof_H 	H 	0.45347	0.35833	0.49593	0.076
Mof_C 	C 	0.78805	0.96973	0.2462	-0.066
Mof_H 	H 	0.8171	0.9775	0.2066	0.15
Mof_C 	C 	0.76322	0.93046	0.3304	0.086
Mof_H 	H 	0.7759	0.9116	0.3483	0.063
Mof_C 	C 	0.70466	0.94441	0.3621	0.072
Mof_H 	H 	0.6753	0.9356	0.4014	0.033
Mof_C 	C 	0.847	0.25731	0.5332	0.133
Mof_O 	O 	0.18071	0.90447	0.32077	-0.255
Mof_O 	O 	0.85192	0.24936	0.3961	-0.204
Mof_C 	C 	0.17108	0.96321	0.22637	0.805
Mof_F 	F 	0.84843	0.32424	0.437	-0.461
Mof_F 	F 	0.12683	0.94701	0.25497	-0.432
Mof_F 	F 	0.19376	0.98889	0.34957	-0.47
Mof_Ag	Ag	0.51813	0.50433	0.82966	0.64
Mof_O 	O 	0.99712	0.65859	0.89427	-0.2
Mof_N 	N 	0.45979	0.46468	0.67573	-0.19
Mof_N 	N 	0.3884	0.25071	0.72213	-0.191
Mof_C 	C 	0.44719	0.48667	0.57593	0.071
Mof_H 	H 	0.46427	0.51883	0.57423	0.023
Mof_C 	C 	0.07748	0.79854	0.80877	-0.105
Mof_H 	H 	0.7365	0.1488	0.0727	0.122
Mof_C 	C 	0.05233	0.75194	0.81057	0.034
Mof_H 	H 	0.02663	0.73627	0.74457	0.07
Mof_C 	C 	0.06542	0.72845	0.91117	-0.055
Mof_C 	C 	0.43571	0.41922	0.67453	0.05
Mof_H 	H 	0.44447	0.40293	0.74313	0.043
Mof_C 	C 	0.03771	0.6778	0.91607	0.178
Mof_C 	C 	0.39446	0.31824	0.61243	-0.053
Mof_C 	C 	0.10353	0.66426	0.88677	0.04
Mof_H 	H 	0.12013	0.69167	0.82927	0.075
Mof_C 	C 	0.45472	0.30306	0.57953	-0.066
Mof_H 	H 	0.48377	0.31083	0.53993	0.149
Mof_C 	C 	0.42989	0.26379	0.66373	0.085
Mof_H 	H 	0.44257	0.24493	0.68163	0.062
Mof_C 	C 	0.37133	0.27774	0.69543	0.071
Mof_H 	H 	0.34197	0.26893	0.73473	0.032
Mof_C 	C 	0.51367	0.59064	0.86653	0.133
Mof_O 	O 	0.84738	0.2378	0.6541	-0.256
Mof_O 	O 	0.51859	0.58269	0.72943	-0.205
Mof_C 	C 	0.83775	0.29654	0.5597	0.804
Mof_F 	F 	0.5151	0.65757	0.77033	-0.462
Mof_F 	F 	0.7935	0.28034	0.5883	-0.432
Mof_F 	F 	0.86043	0.32222	0.6829	-0.469
Mof_Ag	Ag	0.18479	0.83767	0.163	0.641
Mof_O 	O 	0.66379	0.99192	0.2276	-0.2
Mof_N 	N 	0.12645	0.79802	0.00907	-0.189
Mof_N 	N 	0.05506	0.58405	0.05547	-0.19
Mof_C 	C 	0.11385	0.82001	0.90927	0.069
Mof_H 	H 	0.13093	0.85217	0.90757	0.023
Mof_C 	C 	0.74415	0.13187	0.1421	-0.106
Mof_H 	H 	0.40317	0.48213	0.40603	0.123
Mof_C 	C 	0.719	0.08527	0.1439	0.033
Mof_H 	H 	0.6933	0.0696	0.0779	0.07
Mof_C 	C 	0.73209	0.06178	0.2445	-0.054
Mof_C 	C 	0.10237	0.75256	0.00787	0.052
Mof_H 	H 	0.11113	0.73627	0.07647	0.043
Mof_C 	C 	0.70438	0.01113	0.2494	0.178
Mof_C 	C 	0.06112	0.65158	0.94577	-0.054
Mof_C 	C 	0.7702	0.99759	0.2201	0.042
Mof_H 	H 	0.7868	0.025	0.1626	0.074
Mof_C 	C 	0.12138	0.6364	0.91287	-0.064
Mof_H 	H 	0.15043	0.64417	0.87327	0.147
Mof_C 	C 	0.09655	0.59713	0.99707	0.079
Mof_H 	H 	0.10923	0.57827	0.01497	0.066
Mof_C 	C 	0.03799	0.61108	0.02877	0.072
Mof_H 	H 	0.00863	0.60227	0.06807	0.032
Mof_C 	C 	0.18033	0.92398	0.19987	0.132
Mof_O 	O 	0.51405	0.57113	0.98743	-0.256
Mof_O 	O 	0.18525	0.91603	0.06277	-0.204
Mof_C 	C 	0.50442	0.62987	0.89303	0.802
Mof_F 	F 	0.18176	0.99091	0.10367	-0.462
Mof_F 	F 	0.46017	0.61367	0.92163	-0.432
Mof_F 	F 	0.5271	0.65555	0.01623	-0.468
Mof_Ag	Ag	0.829	0.68046	0.49633	0.64
Mof_O 	O 	0.67475	0.0052	0.56093	-0.2
Mof_N 	N 	0.86865	0.66177	0.3424	-0.19
Mof_N 	N 	0.08262	0.80435	0.3888	-0.191
Mof_C 	C 	0.84666	0.62718	0.2426	0.07
Mof_H 	H 	0.8145	0.6121	0.2409	0.023
Mof_C 	C 	0.5348	0.94561	0.47543	-0.106
Mof_H 	H 	0.18453	0.25437	0.73937	0.123
Mof_C 	C 	0.5814	0.96706	0.47723	0.034
Mof_H 	H 	0.59707	0.95703	0.41123	0.071
Mof_C 	C 	0.60489	0.00364	0.57783	-0.054
Mof_C 	C 	0.91411	0.68315	0.3412	0.05
Mof_H 	H 	0.9304	0.7082	0.4098	0.043
Mof_C 	C 	0.65554	0.02658	0.58273	0.178
Mof_C 	C 	0.01509	0.74288	0.2791	-0.053
Mof_C 	C 	0.66908	0.10594	0.55343	0.041
Mof_H 	H 	0.64167	0.09513	0.49593	0.075
Mof_C 	C 	0.03027	0.81832	0.2462	-0.067
Mof_H 	H 	0.0225	0.8396	0.2066	0.149
Mof_C 	C 	0.06954	0.83276	0.3304	0.085
Mof_H 	H 	0.0884	0.8643	0.3483	0.062
Mof_C 	C 	0.05559	0.76025	0.3621	0.071
Mof_H 	H 	0.0644	0.7397	0.4014	0.032
Mof_C 	C 	0.74269	0.58969	0.5332	0.132
Mof_O 	O 	0.09553	0.27625	0.32077	-0.256
Mof_O 	O 	0.75064	0.60256	0.3961	-0.205
Mof_C 	C 	0.03679	0.20788	0.22637	0.804
Mof_F 	F 	0.67576	0.52419	0.437	-0.462
Mof_F 	F 	0.05299	0.17983	0.25497	-0.432
Mof_F 	F 	0.01111	0.20488	0.34957	-0.47
Mof_Ag	Ag	0.49567	0.01379	0.82966	0.641
Mof_O 	O 	0.34141	0.33854	0.89427	-0.2
Mof_N 	N 	0.53532	0.9951	0.67573	-0.19
Mof_N 	N 	0.74929	0.13768	0.72213	-0.191
Mof_C 	C 	0.51333	0.96051	0.57593	0.071
Mof_H 	H 	0.48117	0.94543	0.57423	0.023
Mof_C 	C 	0.20146	0.27895	0.80877	-0.105
Mof_H 	H 	0.8512	0.5877	0.0727	0.123
Mof_C 	C 	0.24806	0.3004	0.81057	0.034
Mof_H 	H 	0.26373	0.29037	0.74457	0.07
Mof_C 	C 	0.27155	0.33698	0.91117	-0.055
Mof_C 	C 	0.58078	0.01648	0.67453	0.05
Mof_H 	H 	0.59707	0.04153	0.74313	0.043
Mof_C 	C 	0.3222	0.35992	0.91607	0.179
Mof_C 	C 	0.68176	0.07621	0.61243	-0.053
Mof_C 	C 	0.33574	0.43928	0.88677	0.04
Mof_H 	H 	0.30833	0.42847	0.82927	0.075
Mof_C 	C 	0.69694	0.15165	0.57953	-0.066
Mof_H 	H 	0.68917	0.17293	0.53993	0.149
Mof_C 	C 	0.73621	0.16609	0.66373	0.085
Mof_H 	H 	0.75507	0.19763	0.68163	0.062
Mof_C 	C 	0.72226	0.09358	0.69543	0.071
Mof_H 	H 	0.73107	0.07303	0.73473	0.032
Mof_C 	C 	0.40936	0.92302	0.86653	0.133
Mof_O 	O 	0.7622	0.60958	0.6541	-0.256
Mof_O 	O 	0.41731	0.93589	0.72943	-0.205
Mof_C 	C 	0.70346	0.54121	0.5597	0.804
Mof_F 	F 	0.34243	0.85752	0.77033	-0.462
Mof_F 	F 	0.71966	0.51316	0.5883	-0.432
Mof_F 	F 	0.67778	0.53821	0.6829	-0.469
Mof_Ag	Ag	0.16233	0.34713	0.163	0.641
Mof_O 	O 	0.00808	0.67187	0.2276	-0.2
Mof_N 	N 	0.20198	0.32844	0.00907	-0.189
Mof_N 	N 	0.41595	0.47102	0.05547	-0.19
Mof_C 	C 	0.17999	0.29385	0.90927	0.07
Mof_H 	H 	0.14783	0.27877	0.90757	0.023
Mof_C 	C 	0.86813	0.61228	0.1421	-0.106
Mof_H 	H 	0.51787	0.92103	0.40603	0.123
Mof_C 	C 	0.91473	0.63373	0.1439	0.034
Mof_H 	H 	0.9304	0.6237	0.0779	0.07
Mof_C 	C 	0.93822	0.67031	0.2445	-0.054
Mof_C 	C 	0.24744	0.34982	0.00787	0.051
Mof_H 	H 	0.26373	0.37487	0.07647	0.043
Mof_C 	C 	0.98887	0.69325	0.2494	0.178
Mof_C 	C 	0.34842	0.40955	0.94577	-0.053
Mof_C 	C 	0.00241	0.77261	0.2201	0.041
Mof_H 	H 	0.975	0.7618	0.1626	0.074
Mof_C 	C 	0.3636	0.48499	0.91287	-0.064
Mof_H 	H 	0.35583	0.50627	0.87327	0.147
Mof_C 	C 	0.40287	0.49943	0.99707	0.08
Mof_H 	H 	0.42173	0.53097	0.01497	0.065
Mof_C 	C 	0.38892	0.42692	0.02877	0.072
Mof_H 	H 	0.39773	0.40637	0.06807	0.032
Mof_C 	C 	0.07602	0.25636	0.19987	0.132
Mof_O 	O 	0.42887	0.94291	0.98743	-0.256
Mof_O 	O 	0.08397	0.26923	0.06277	-0.204
Mof_C 	C 	0.37013	0.87454	0.89303	0.802
Mof_F 	F 	0.00909	0.19086	0.10367	-0.462
Mof_F 	F 	0.38633	0.84649	0.92163	-0.432
Mof_F 	F 	0.34445	0.87154	0.01623	-0.468
Mof_Ag	Ag	0.31954	0.14854	0.49633	0.64
Mof_O 	O 	0.9948	0.66954	0.56093	-0.2
Mof_N 	N 	0.33823	0.20688	0.3424	-0.19
Mof_N 	N 	0.19565	0.27827	0.3888	-0.191
Mof_C 	C 	0.37282	0.21948	0.2426	0.07
Mof_H 	H 	0.3879	0.2024	0.2409	0.023
Mof_C 	C 	0.05439	0.58918	0.47543	-0.106
Mof_H 	H 	0.74563	0.93017	0.73937	0.123
Mof_C 	C 	0.03294	0.61433	0.47723	0.034
Mof_H 	H 	0.04297	0.64003	0.41123	0.071
Mof_C 	C 	0.99636	0.60124	0.57783	-0.054
Mof_C 	C 	0.31685	0.23096	0.3412	0.05
Mof_H 	H 	0.2918	0.2222	0.4098	0.043
Mof_C 	C 	0.97342	0.62895	0.58273	0.178
Mof_C 	C 	0.25712	0.27221	0.2791	-0.053
Mof_C 	C 	0.89406	0.56313	0.55343	0.041
Mof_H 	H 	0.90487	0.54653	0.49593	0.075
Mof_C 	C 	0.18168	0.21195	0.2462	-0.066
Mof_H 	H 	0.1604	0.1829	0.2066	0.148
Mof_C 	C 	0.16724	0.23678	0.3304	0.085
Mof_H 	H 	0.1357	0.2241	0.3483	0.062
Mof_C 	C 	0.23975	0.29534	0.3621	0.071
Mof_H 	H 	0.2603	0.3247	0.4014	0.032
Mof_C 	C 	0.41031	0.153	0.5332	0.132
Mof_O 	O 	0.72375	0.81929	0.32077	-0.256
Mof_O 	O 	0.39744	0.14808	0.3961	-0.205
Mof_C 	C 	0.79212	0.82892	0.22637	0.804
Mof_F 	F 	0.47581	0.15157	0.437	-0.462
Mof_F 	F 	0.82017	0.87317	0.25497	-0.432
Mof_F 	F 	0.79512	0.80624	0.34957	-0.47
Mof_Ag	Ag	0.98621	0.48187	0.82966	0.64
Mof_O 	O 	0.66146	0.00288	0.89427	-0.2
Mof_N 	N 	0.0049	0.54021	0.67573	-0.19
Mof_N 	N 	0.86232	0.6116	0.72213	-0.191
Mof_C 	C 	0.03949	0.55281	0.57593	0.071
Mof_H 	H 	0.05457	0.53573	0.57423	0.023
Mof_C 	C 	0.72105	0.92252	0.80877	-0.105
Mof_H 	H 	0.4123	0.2635	0.0727	0.123
Mof_C 	C 	0.6996	0.94767	0.81057	0.034
Mof_H 	H 	0.70963	0.97337	0.74457	0.07
Mof_C 	C 	0.66302	0.93458	0.91117	-0.055
Mof_C 	C 	0.98352	0.56429	0.67453	0.05
Mof_H 	H 	0.95847	0.55553	0.74313	0.043
Mof_C 	C 	0.64008	0.96229	0.91607	0.178
Mof_C 	C 	0.92379	0.60554	0.61243	-0.053
Mof_C 	C 	0.56072	0.89647	0.88677	0.04
Mof_H 	H 	0.57153	0.87987	0.82927	0.075
Mof_C 	C 	0.84835	0.54528	0.57953	-0.066
Mof_H 	H 	0.82707	0.51623	0.53993	0.149
Mof_C 	C 	0.83391	0.57011	0.66373	0.085
Mof_H 	H 	0.80237	0.55743	0.68163	0.062
Mof_C 	C 	0.90642	0.62867	0.69543	0.071
Mof_H 	H 	0.92697	0.65803	0.73473	0.032
Mof_C 	C 	0.07698	0.48633	0.86653	0.133
Mof_O 	O 	0.39042	0.15262	0.6541	-0.256
Mof_O 	O 	0.06411	0.48141	0.72943	-0.205
Mof_C 	C 	0.45879	0.16225	0.5597	0.804
Mof_F 	F 	0.14248	0.4849	0.77033	-0.462
Mof_F 	F 	0.48684	0.2065	0.5883	-0.432
Mof_F 	F 	0.46179	0.13957	0.6829	-0.469
Mof_Ag	Ag	0.65287	0.81521	0.163	0.641
Mof_O 	O 	0.32813	0.33621	0.2276	-0.2
Mof_N 	N 	0.67156	0.87355	0.00907	-0.189
Mof_N 	N 	0.52898	0.94494	0.05547	-0.19
Mof_C 	C 	0.70615	0.88615	0.90927	0.069
Mof_H 	H 	0.72123	0.86907	0.90757	0.023
Mof_C 	C 	0.38772	0.25585	0.1421	-0.106
Mof_H 	H 	0.07897	0.59683	0.40603	0.123
Mof_C 	C 	0.36627	0.281	0.1439	0.034
Mof_H 	H 	0.3763	0.3067	0.0779	0.07
Mof_C 	C 	0.32969	0.26791	0.2445	-0.054
Mof_C 	C 	0.65018	0.89763	0.00787	0.051
Mof_H 	H 	0.62513	0.88887	0.07647	0.043
Mof_C 	C 	0.30675	0.29562	0.2494	0.178
Mof_C 	C 	0.59045	0.93888	0.94577	-0.054
Mof_C 	C 	0.22739	0.2298	0.2201	0.041
Mof_H 	H 	0.2382	0.2132	0.1626	0.074
Mof_C 	C 	0.51501	0.87862	0.91287	-0.064
Mof_H 	H 	0.49373	0.84957	0.87327	0.147
Mof_C 	C 	0.50057	0.90345	0.99707	0.079
Mof_H 	H 	0.46903	0.89077	0.01497	0.066
Mof_C 	C 	0.57308	0.96201	0.02877	0.072
Mof_H 	H 	0.59363	0.99137	0.06807	0.032
Mof_C 	C 	0.74364	0.81967	0.19987	0.132
Mof_O 	O 	0.05709	0.48595	0.98743	-0.256
Mof_O 	O 	0.73077	0.81475	0.06277	-0.204
Mof_C 	C 	0.12546	0.49558	0.89303	0.802
Mof_F 	F 	0.80914	0.81824	0.10367	-0.462
Mof_F 	F 	0.15351	0.53983	0.92163	-0.432
Mof_F 	F 	0.12846	0.4729	0.01623	-0.468
Mof_Ag	Ag	0.14854	0.829	0.50367	0.64
Mof_O 	O 	0.66954	0.67475	0.43907	-0.2
Mof_N 	N 	0.20688	0.86865	0.6576	-0.19
Mof_N 	N 	0.27827	0.08262	0.6112	-0.191
Mof_C 	C 	0.21948	0.84666	0.7574	0.07
Mof_H 	H 	0.2024	0.8145	0.7591	0.023
Mof_C 	C 	0.58918	0.5348	0.52457	-0.106
Mof_H 	H 	0.93017	0.18453	0.26063	0.123
Mof_C 	C 	0.61433	0.5814	0.52277	0.034
Mof_H 	H 	0.64003	0.59707	0.58877	0.071
Mof_C 	C 	0.60124	0.60489	0.42217	-0.054
Mof_C 	C 	0.23096	0.91411	0.6588	0.05
Mof_H 	H 	0.2222	0.9304	0.5902	0.043
Mof_C 	C 	0.62895	0.65554	0.41727	0.178
Mof_C 	C 	0.27221	0.01509	0.7209	-0.053
Mof_C 	C 	0.56313	0.66908	0.44657	0.041
Mof_H 	H 	0.54653	0.64167	0.50407	0.075
Mof_C 	C 	0.21195	0.03027	0.7538	-0.067
Mof_H 	H 	0.1829	0.0225	0.7934	0.149
Mof_C 	C 	0.23678	0.06954	0.6696	0.085
Mof_H 	H 	0.2241	0.0884	0.6517	0.062
Mof_C 	C 	0.29534	0.05559	0.6379	0.071
Mof_H 	H 	0.3247	0.0644	0.5986	0.032
Mof_C 	C 	0.153	0.74269	0.4668	0.132
Mof_O 	O 	0.81929	0.09553	0.67923	-0.256
Mof_O 	O 	0.14808	0.75064	0.6039	-0.205
Mof_C 	C 	0.82892	0.03679	0.77363	0.804
Mof_F 	F 	0.15157	0.67576	0.563	-0.462
Mof_F 	F 	0.87317	0.05299	0.74503	-0.432
Mof_F 	F 	0.80624	0.01111	0.65043	-0.47
Mof_Ag	Ag	0.81521	0.16233	0.837	0.641
Mof_O 	O 	0.33621	0.00808	0.7724	-0.2
Mof_N 	N 	0.87355	0.20198	0.99093	-0.189
Mof_N 	N 	0.94494	0.41595	0.94453	-0.19
Mof_C 	C 	0.88615	0.17999	0.09073	0.069
Mof_H 	H 	0.86907	0.14783	0.09243	0.023
Mof_C 	C 	0.25585	0.86813	0.8579	-0.106
Mof_H 	H 	0.59683	0.51787	0.59397	0.123
Mof_C 	C 	0.281	0.91473	0.8561	0.033
Mof_H 	H 	0.3067	0.9304	0.9221	0.07
Mof_C 	C 	0.26791	0.93822	0.7555	-0.054
Mof_C 	C 	0.89763	0.24744	0.99213	0.052
Mof_H 	H 	0.88887	0.26373	0.92353	0.043
Mof_C 	C 	0.29562	0.98887	0.7506	0.178
Mof_C 	C 	0.93888	0.34842	0.05423	-0.054
Mof_C 	C 	0.2298	0.00241	0.7799	0.042
Mof_H 	H 	0.2132	0.975	0.8374	0.074
Mof_C 	C 	0.87862	0.3636	0.08713	-0.064
Mof_H 	H 	0.84957	0.35583	0.12673	0.147
Mof_C 	C 	0.90345	0.40287	0.00293	0.079
Mof_H 	H 	0.89077	0.42173	0.98503	0.066
Mof_C 	C 	0.96201	0.38892	0.97123	0.072
Mof_H 	H 	0.99137	0.39773	0.93193	0.032
Mof_C 	C 	0.81967	0.07602	0.80013	0.132
Mof_O 	O 	0.48595	0.42887	0.01257	-0.256
Mof_O 	O 	0.81475	0.08397	0.93723	-0.204
Mof_C 	C 	0.49558	0.37013	0.10697	0.802
Mof_F 	F 	0.81824	0.00909	0.89633	-0.462
Mof_F 	F 	0.53983	0.38633	0.07837	-0.432
Mof_F 	F 	0.4729	0.34445	0.98377	-0.468
Mof_Ag	Ag	0.48187	0.49567	0.17034	0.64
Mof_O 	O 	0.00288	0.34141	0.10573	-0.2
Mof_N 	N 	0.54021	0.53532	0.32427	-0.19
Mof_N 	N 	0.6116	0.74929	0.27787	-0.191
Mof_C 	C 	0.55281	0.51333	0.42407	0.071
Mof_H 	H 	0.53573	0.48117	0.42577	0.023
Mof_C 	C 	0.92252	0.20146	0.19123	-0.105
Mof_H 	H 	0.2635	0.8512	0.9273	0.122
Mof_C 	C 	0.94767	0.24806	0.18943	0.034
Mof_H 	H 	0.97337	0.26373	0.25543	0.07
Mof_C 	C 	0.93458	0.27155	0.08883	-0.055
Mof_C 	C 	0.56429	0.58078	0.32547	0.05
Mof_H 	H 	0.55553	0.59707	0.25687	0.043
Mof_C 	C 	0.96229	0.3222	0.08393	0.178
Mof_C 	C 	0.60554	0.68176	0.38757	-0.053
Mof_C 	C 	0.89647	0.33574	0.11323	0.04
Mof_H 	H 	0.87987	0.30833	0.17073	0.075
Mof_C 	C 	0.54528	0.69694	0.42047	-0.066
Mof_H 	H 	0.51623	0.68917	0.46007	0.149
Mof_C 	C 	0.57011	0.73621	0.33627	0.085
Mof_H 	H 	0.55743	0.75507	0.31837	0.062
Mof_C 	C 	0.62867	0.72226	0.30457	0.071
Mof_H 	H 	0.65803	0.73107	0.26527	0.032
Mof_C 	C 	0.48633	0.40936	0.13347	0.133
Mof_O 	O 	0.15262	0.7622	0.3459	-0.256
Mof_O 	O 	0.48141	0.41731	0.27057	-0.205
Mof_C 	C 	0.16225	0.70346	0.4403	0.804
Mof_F 	F 	0.4849	0.34243	0.22967	-0.462
Mof_F 	F 	0.2065	0.71966	0.4117	-0.432
Mof_F 	F 	0.13957	0.67778	0.3171	-0.469
Mof_Ag	Ag	0.171	0.31954	0.50367	0.64
Mof_O 	O 	0.32525	0.9948	0.43907	-0.2
Mof_N 	N 	0.13135	0.33823	0.6576	-0.19
Mof_N 	N 	0.91738	0.19565	0.6112	-0.191
Mof_C 	C 	0.15334	0.37282	0.7574	0.07
Mof_H 	H 	0.1855	0.3879	0.7591	0.023
Mof_C 	C 	0.4652	0.05439	0.52457	-0.106
Mof_H 	H 	0.81547	0.74563	0.26063	0.123
Mof_C 	C 	0.4186	0.03294	0.52277	0.034
Mof_H 	H 	0.40293	0.04297	0.58877	0.071
Mof_C 	C 	0.39511	0.99636	0.42217	-0.054
Mof_C 	C 	0.08589	0.31685	0.6588	0.05
Mof_H 	H 	0.0696	0.2918	0.5902	0.043
Mof_C 	C 	0.34446	0.97342	0.41727	0.178
Mof_C 	C 	0.98491	0.25712	0.7209	-0.053
Mof_C 	C 	0.33092	0.89406	0.44657	0.041
Mof_H 	H 	0.35833	0.90487	0.50407	0.075
Mof_C 	C 	0.96973	0.18168	0.7538	-0.067
Mof_H 	H 	0.9775	0.1604	0.7934	0.149
Mof_C 	C 	0.93046	0.16724	0.6696	0.085
Mof_H 	H 	0.9116	0.1357	0.6517	0.062
Mof_C 	C 	0.94441	0.23975	0.6379	0.071
Mof_H 	H 	0.9356	0.2603	0.5986	0.032
Mof_C 	C 	0.25731	0.41031	0.4668	0.132
Mof_O 	O 	0.90447	0.72375	0.67923	-0.256
Mof_O 	O 	0.24936	0.39744	0.6039	-0.205
Mof_C 	C 	0.96321	0.79212	0.77363	0.804
Mof_F 	F 	0.32424	0.47581	0.563	-0.462
Mof_F 	F 	0.94701	0.82017	0.74503	-0.432
Mof_F 	F 	0.98889	0.79512	0.65043	-0.47
Mof_Ag	Ag	0.83767	0.65287	0.837	0.641
Mof_O 	O 	0.99192	0.32813	0.7724	-0.2
Mof_N 	N 	0.79802	0.67156	0.99093	-0.189
Mof_N 	N 	0.58405	0.52898	0.94453	-0.19
Mof_C 	C 	0.82001	0.70615	0.09073	0.07
Mof_H 	H 	0.85217	0.72123	0.09243	0.023
Mof_C 	C 	0.13187	0.38772	0.8579	-0.106
Mof_H 	H 	0.48213	0.07897	0.59397	0.123
Mof_C 	C 	0.08527	0.36627	0.8561	0.034
Mof_H 	H 	0.0696	0.3763	0.9221	0.07
Mof_C 	C 	0.06178	0.32969	0.7555	-0.054
Mof_C 	C 	0.75256	0.65018	0.99213	0.051
Mof_H 	H 	0.73627	0.62513	0.92353	0.043
Mof_C 	C 	0.01113	0.30675	0.7506	0.178
Mof_C 	C 	0.65158	0.59045	0.05423	-0.053
Mof_C 	C 	0.99759	0.22739	0.7799	0.041
Mof_H 	H 	0.025	0.2382	0.8374	0.074
Mof_C 	C 	0.6364	0.51501	0.08713	-0.064
Mof_H 	H 	0.64417	0.49373	0.12673	0.147
Mof_C 	C 	0.59713	0.50057	0.00293	0.08
Mof_H 	H 	0.57827	0.46903	0.98503	0.065
Mof_C 	C 	0.61108	0.57308	0.97123	0.072
Mof_H 	H 	0.60227	0.59363	0.93193	0.032
Mof_C 	C 	0.92398	0.74364	0.80013	0.132
Mof_O 	O 	0.57113	0.05709	0.01257	-0.256
Mof_O 	O 	0.91603	0.73077	0.93723	-0.204
Mof_C 	C 	0.62987	0.12546	0.10697	0.802
Mof_F 	F 	0.99091	0.80914	0.89633	-0.462
Mof_F 	F 	0.61367	0.15351	0.07837	-0.432
Mof_F 	F 	0.65555	0.12846	0.98377	-0.468
Mof_Ag	Ag	0.50433	0.98621	0.17034	0.641
Mof_O 	O 	0.65859	0.66146	0.10573	-0.2
Mof_N 	N 	0.46468	0.0049	0.32427	-0.19
Mof_N 	N 	0.25071	0.86232	0.27787	-0.191
Mof_C 	C 	0.48667	0.03949	0.42407	0.071
Mof_H 	H 	0.51883	0.05457	0.42577	0.023
Mof_C 	C 	0.79854	0.72105	0.19123	-0.105
Mof_H 	H 	0.1488	0.4123	0.9273	0.123
Mof_C 	C 	0.75194	0.6996	0.18943	0.034
Mof_H 	H 	0.73627	0.70963	0.25543	0.07
Mof_C 	C 	0.72845	0.66302	0.08883	-0.055
Mof_C 	C 	0.41922	0.98352	0.32547	0.05
Mof_H 	H 	0.40293	0.95847	0.25687	0.043
Mof_C 	C 	0.6778	0.64008	0.08393	0.179
Mof_C 	C 	0.31824	0.92379	0.38757	-0.053
Mof_C 	C 	0.66426	0.56072	0.11323	0.04
Mof_H 	H 	0.69167	0.57153	0.17073	0.075
Mof_C 	C 	0.30306	0.84835	0.42047	-0.066
Mof_H 	H 	0.31083	0.82707	0.46007	0.149
Mof_C 	C 	0.26379	0.83391	0.33627	0.085
Mof_H 	H 	0.24493	0.80237	0.31837	0.062
Mof_C 	C 	0.27774	0.90642	0.30457	0.071
Mof_H 	H 	0.26893	0.92697	0.26527	0.032
Mof_C 	C 	0.59064	0.07698	0.13347	0.133
Mof_O 	O 	0.2378	0.39042	0.3459	-0.256
Mof_O 	O 	0.58269	0.06411	0.27057	-0.205
Mof_C 	C 	0.29654	0.45879	0.4403	0.804
Mof_F 	F 	0.65757	0.14248	0.22967	-0.462
Mof_F 	F 	0.28034	0.48684	0.4117	-0.432
Mof_F 	F 	0.32222	0.46179	0.3171	-0.469
Mof_Ag	Ag	0.68046	0.85146	0.50367	0.64
Mof_O 	O 	0.0052	0.33046	0.43907	-0.2
Mof_N 	N 	0.66177	0.79312	0.6576	-0.19
Mof_N 	N 	0.80435	0.72173	0.6112	-0.191
Mof_C 	C 	0.62718	0.78052	0.7574	0.07
Mof_H 	H 	0.6121	0.7976	0.7591	0.023
Mof_C 	C 	0.94561	0.41082	0.52457	-0.106
Mof_H 	H 	0.25437	0.06983	0.26063	0.123
Mof_C 	C 	0.96706	0.38567	0.52277	0.034
Mof_H 	H 	0.95703	0.35997	0.58877	0.071
Mof_C 	C 	0.00364	0.39876	0.42217	-0.054
Mof_C 	C 	0.68315	0.76904	0.6588	0.05
Mof_H 	H 	0.7082	0.7778	0.5902	0.043
Mof_C 	C 	0.02658	0.37105	0.41727	0.178
Mof_C 	C 	0.74288	0.72779	0.7209	-0.053
Mof_C 	C 	0.10594	0.43687	0.44657	0.041
Mof_H 	H 	0.09513	0.45347	0.50407	0.075
Mof_C 	C 	0.81832	0.78805	0.7538	-0.066
Mof_H 	H 	0.8396	0.8171	0.7934	0.148
Mof_C 	C 	0.83276	0.76322	0.6696	0.085
Mof_H 	H 	0.8643	0.7759	0.6517	0.062
Mof_C 	C 	0.76025	0.70466	0.6379	0.071
Mof_H 	H 	0.7397	0.6753	0.5986	0.032
Mof_C 	C 	0.58969	0.847	0.4668	0.132
Mof_O 	O 	0.27625	0.18071	0.67923	-0.256
Mof_O 	O 	0.60256	0.85192	0.6039	-0.205
Mof_C 	C 	0.20788	0.17108	0.77363	0.804
Mof_F 	F 	0.52419	0.84843	0.563	-0.462
Mof_F 	F 	0.17983	0.12683	0.74503	-0.432
Mof_F 	F 	0.20488	0.19376	0.65043	-0.47
Mof_Ag	Ag	0.34713	0.18479	0.837	0.641
Mof_O 	O 	0.67187	0.66379	0.7724	-0.2
Mof_N 	N 	0.32844	0.12645	0.99093	-0.189
Mof_N 	N 	0.47102	0.05506	0.94453	-0.19
Mof_C 	C 	0.29385	0.11385	0.09073	0.069
Mof_H 	H 	0.27877	0.13093	0.09243	0.023
Mof_C 	C 	0.61228	0.74415	0.8579	-0.106
Mof_H 	H 	0.92103	0.40317	0.59397	0.123
Mof_C 	C 	0.63373	0.719	0.8561	0.034
Mof_H 	H 	0.6237	0.6933	0.9221	0.07
Mof_C 	C 	0.67031	0.73209	0.7555	-0.054
Mof_C 	C 	0.34982	0.10237	0.99213	0.051
Mof_H 	H 	0.37487	0.11113	0.92353	0.043
Mof_C 	C 	0.69325	0.70438	0.7506	0.178
Mof_C 	C 	0.40955	0.06112	0.05423	-0.054
Mof_C 	C 	0.77261	0.7702	0.7799	0.041
Mof_H 	H 	0.7618	0.7868	0.8374	0.074
Mof_C 	C 	0.48499	0.12138	0.08713	-0.064
Mof_H 	H 	0.50627	0.15043	0.12673	0.147
Mof_C 	C 	0.49943	0.09655	0.00293	0.079
Mof_H 	H 	0.53097	0.10923	0.98503	0.066
Mof_C 	C 	0.42692	0.03799	0.97123	0.072
Mof_H 	H 	0.40637	0.00863	0.93193	0.032
Mof_C 	C 	0.25636	0.18033	0.80013	0.132
Mof_O 	O 	0.94291	0.51405	0.01257	-0.256
Mof_O 	O 	0.26923	0.18525	0.93723	-0.204
Mof_C 	C 	0.87454	0.50442	0.10697	0.802
Mof_F 	F 	0.19086	0.18176	0.89633	-0.462
Mof_F 	F 	0.84649	0.46017	0.07837	-0.432
Mof_F 	F 	0.87154	0.5271	0.98377	-0.468
Mof_Ag	Ag	0.01379	0.51813	0.17034	0.64
Mof_O 	O 	0.33854	0.99712	0.10573	-0.2
Mof_N 	N 	0.9951	0.45979	0.32427	-0.19
Mof_N 	N 	0.13768	0.3884	0.27787	-0.191
Mof_C 	C 	0.96051	0.44719	0.42407	0.071
Mof_H 	H 	0.94543	0.46427	0.42577	0.023
Mof_C 	C 	0.27895	0.07748	0.19123	-0.105
Mof_H 	H 	0.5877	0.7365	0.9273	0.123
Mof_C 	C 	0.3004	0.05233	0.18943	0.034
Mof_H 	H 	0.29037	0.02663	0.25543	0.07
Mof_C 	C 	0.33698	0.06542	0.08883	-0.055
Mof_C 	C 	0.01648	0.43571	0.32547	0.05
Mof_H 	H 	0.04153	0.44447	0.25687	0.043
Mof_C 	C 	0.35992	0.03771	0.08393	0.178
Mof_C 	C 	0.07621	0.39446	0.38757	-0.053
Mof_C 	C 	0.43928	0.10353	0.11323	0.04
Mof_H 	H 	0.42847	0.12013	0.17073	0.075
Mof_C 	C 	0.15165	0.45472	0.42047	-0.066
Mof_H 	H 	0.17293	0.48377	0.46007	0.149
Mof_C 	C 	0.16609	0.42989	0.33627	0.085
Mof_H 	H 	0.19763	0.44257	0.31837	0.062
Mof_C 	C 	0.09358	0.37133	0.30457	0.071
Mof_H 	H 	0.07303	0.34197	0.26527	0.032
Mof_C 	C 	0.92302	0.51367	0.13347	0.133
Mof_O 	O 	0.60958	0.84738	0.3459	-0.256
Mof_O 	O 	0.93589	0.51859	0.27057	-0.205
Mof_C 	C 	0.54121	0.83775	0.4403	0.804
Mof_F 	F 	0.85752	0.5151	0.22967	-0.462
Mof_F 	F 	0.51316	0.7935	0.4117	-0.432
Mof_F 	F 	0.53821	0.86043	0.3171	-0.469
_end
