# CIF file generated by openbabel 3.1.0, see https://openbabel.org
data_I
_chemical_name_common 'image0'
_cell_length_a 21.9848
_cell_length_b 16.5617
_cell_length_c 25.6443
_cell_angle_alpha 90
_cell_angle_beta 115.366
_cell_angle_gamma 90
_space_group_name_H-M_alt 'P 1'
_space_group_name_Hall 'P 1'
loop_
    _symmetry_equiv_pos_as_xyz
    x,y,z
loop_
    _atom_site_label
    _atom_site_type_symbol
    _atom_site_fract_x
    _atom_site_fract_y
    _atom_site_fract_z
    _atom_site_occupancy
    Ag1      Ag       0.27390    0.20897    0.86825    1.000
    Ag2      Ag       0.79500    0.50132    0.36769    1.000
    C1       C        0.62780    0.47600    0.08782    1.000
    C2       C        0.42270    0.90040    0.39260    1.000
    H1       H        0.40290    0.90500    0.35260    1.000
    C3       C        0.65380    0.71970    0.50129    1.000
    C4       C        0.62800    0.56160    0.91130    1.000
    H2       H        0.58550    0.53980    0.89000    1.000
    C5       C        0.62800    0.50700    0.00244    1.000
    C6       C        0.48210    0.88720    0.50940    1.000
    H3       H        0.50140    0.88420    0.54950    1.000
    C7       C        0.40310    0.31690    0.88920    1.000
    H4       H        0.38460    0.31130    0.84930    1.000
    C8       C        0.74340    0.63350    0.49629    1.000
    H5       H        0.76390    0.63300    0.53640    1.000
    C9       C        0.57530    0.80070    0.50720    1.000
    C10      C        0.65990    0.55230    0.97032    1.000
    C11      C        0.72290    0.58650    0.99940    1.000
    H6       H        0.74550    0.58210    0.03940    1.000
    C12      C        0.77190    0.59270    0.46560    1.000
    H7       H        0.81220    0.56540    0.48580    1.000
    C13      C        0.75170    0.62660    0.96920    1.000
    H8       H        0.79420    0.64900    0.98960    1.000
    C14      C        0.45730    0.33410    0.00560    1.000
    H9       H        0.47500    0.33800    0.04560    1.000
    C15      C        0.65830    0.48620    0.15180    1.000
    C16      C        0.46090    0.36100    0.91560    1.000
    H10      H        0.48130    0.38360    0.89390    1.000
    C17      C        0.68370    0.67510    0.46686    1.000
    C18      C        0.69020    0.74260    0.65190    1.000
    C19      C        0.48230    0.85760    0.41865    1.000
    H11      H        0.50160    0.83410    0.39640    1.000
    C20      C        0.54980    0.42280    0.00565    1.000
    C21      C        0.77930    0.69870    0.74030    1.000
    H12      H        0.82150    0.67500    0.75940    1.000
    C22      C        0.75270    0.70700    0.68110    1.000
    H13      H        0.77670    0.68890    0.66100    1.000
    C23      C        0.66100    0.60420    0.88440    1.000
    H14      H        0.63880    0.61120    0.84460    1.000
    C24      C        0.65650    0.76800    0.68410    1.000
    H15      H        0.61420    0.79180    0.66620    1.000
    C25      C        0.71220    0.53800    0.17830    1.000
    H16      H        0.72840    0.56860    0.15660    1.000
    C26      C        0.68690    0.75730    0.74290    1.000
    H17      H        0.66400    0.77500    0.76400    1.000
    C27      C        0.39890    0.29060    0.97470    1.000
    H18      H        0.37760    0.26640    0.99510    1.000
    C28      C        0.65830    0.75220    0.58790    1.000
    C29      C        0.74140    0.54340    0.23770    1.000
    H19      H        0.77730    0.57880    0.25530    1.000
    C30      C        0.51270    0.85020    0.47797    1.000
    C31      C        0.65560    0.67460    0.40750    1.000
    H20      H        0.61630    0.70330    0.38640    1.000
    C32      C        0.48910    0.37200    0.97511    1.000
    C33      C        0.63350    0.44500    0.18530    1.000
    H21      H        0.59530    0.41270    0.16870    1.000
    C34      C        0.42230    0.92860    0.47970    1.000
    H22      H        0.40210    0.95300    0.50100    1.000
    C35      C        0.66750    0.45350    0.24450    1.000
    H23      H        0.65180    0.42430    0.26710    1.000
    C36      C        0.68640    0.63120    0.37990    1.000
    H24      H        0.66600    0.62990    0.33980    1.000
    N1       N        0.37154    0.28130    0.91767    1.000
    N2       N        0.72209    0.63560    0.91184    1.000
    N3       N        0.72090    0.50030    0.27143    1.000
    N4       N        0.57474    0.46100    0.97288    1.000
    N5       N        0.65628    0.51820    0.05968    1.000
    N6       N        0.57504    0.42750    0.06315    1.000
    N7       N        0.74411    0.59050    0.40749    1.000
    N8       N        0.74680    0.72340    0.77159    1.000
    N9       N        0.39200    0.93550    0.42218    1.000
    N10      N        0.59761    0.76040    0.47329    1.000
    N11      N        0.68682    0.71240    0.55894    1.000
    N12      N        0.60415    0.79890    0.56459    1.000
    Ag3      Ag       0.77390    0.70897    0.86825    1.000
    Ag4      Ag       0.29500    0.00132    0.36769    1.000
    C37      C        0.12780    0.97600    0.08782    1.000
    C38      C        0.92270    0.40040    0.39260    1.000
    H25      H        0.90290    0.40500    0.35260    1.000
    C39      C        0.15380    0.21970    0.50129    1.000
    C40      C        0.12800    0.06160    0.91130    1.000
    H26      H        0.08550    0.03980    0.89000    1.000
    C41      C        0.12800    0.00700    0.00244    1.000
    C42      C        0.98210    0.38720    0.50940    1.000
    H27      H        0.00140    0.38420    0.54950    1.000
    C43      C        0.90310    0.81690    0.88920    1.000
    H28      H        0.88460    0.81130    0.84930    1.000
    C44      C        0.24340    0.13350    0.49629    1.000
    H29      H        0.26390    0.13300    0.53640    1.000
    C45      C        0.07530    0.30070    0.50720    1.000
    C46      C        0.15990    0.05230    0.97032    1.000
    C47      C        0.22290    0.08650    0.99940    1.000
    H30      H        0.24550    0.08210    0.03940    1.000
    C48      C        0.27190    0.09270    0.46560    1.000
    H31      H        0.31220    0.06540    0.48580    1.000
    C49      C        0.25170    0.12660    0.96920    1.000
    H32      H        0.29420    0.14900    0.98960    1.000
    C50      C        0.95730    0.83410    0.00560    1.000
    H33      H        0.97500    0.83800    0.04560    1.000
    C51      C        0.15830    0.98620    0.15180    1.000
    C52      C        0.96090    0.86100    0.91560    1.000
    H34      H        0.98130    0.88360    0.89390    1.000
    C53      C        0.18370    0.17510    0.46686    1.000
    C54      C        0.19020    0.24260    0.65190    1.000
    C55      C        0.98230    0.35760    0.41865    1.000
    H35      H        0.00160    0.33410    0.39640    1.000
    C56      C        0.04980    0.92280    0.00565    1.000
    C57      C        0.27930    0.19870    0.74030    1.000
    H36      H        0.32150    0.17500    0.75940    1.000
    C58      C        0.25270    0.20700    0.68110    1.000
    H37      H        0.27670    0.18890    0.66100    1.000
    C59      C        0.16100    0.10420    0.88440    1.000
    H38      H        0.13880    0.11120    0.84460    1.000
    C60      C        0.15650    0.26800    0.68410    1.000
    H39      H        0.11420    0.29180    0.66620    1.000
    C61      C        0.21220    0.03800    0.17830    1.000
    H40      H        0.22840    0.06860    0.15660    1.000
    C62      C        0.18690    0.25730    0.74290    1.000
    H41      H        0.16400    0.27500    0.76400    1.000
    C63      C        0.89890    0.79060    0.97470    1.000
    H42      H        0.87760    0.76640    0.99510    1.000
    C64      C        0.15830    0.25220    0.58790    1.000
    C65      C        0.24140    0.04340    0.23770    1.000
    H43      H        0.27730    0.07880    0.25530    1.000
    C66      C        0.01270    0.35020    0.47797    1.000
    C67      C        0.15560    0.17460    0.40750    1.000
    H44      H        0.11630    0.20330    0.38640    1.000
    C68      C        0.98910    0.87200    0.97511    1.000
    C69      C        0.13350    0.94500    0.18530    1.000
    H45      H        0.09530    0.91270    0.16870    1.000
    C70      C        0.92230    0.42860    0.47970    1.000
    H46      H        0.90210    0.45300    0.50100    1.000
    C71      C        0.16750    0.95350    0.24450    1.000
    H47      H        0.15180    0.92430    0.26710    1.000
    C72      C        0.18640    0.13120    0.37990    1.000
    H48      H        0.16600    0.12990    0.33980    1.000
    N13      N        0.87154    0.78130    0.91767    1.000
    N14      N        0.22209    0.13560    0.91184    1.000
    N15      N        0.22090    0.00030    0.27143    1.000
    N16      N        0.07474    0.96100    0.97288    1.000
    N17      N        0.15628    0.01820    0.05968    1.000
    N18      N        0.07504    0.92750    0.06315    1.000
    N19      N        0.24411    0.09050    0.40749    1.000
    N20      N        0.24680    0.22340    0.77159    1.000
    N21      N        0.89200    0.43550    0.42218    1.000
    N22      N        0.09761    0.26040    0.47329    1.000
    N23      N        0.18682    0.21240    0.55894    1.000
    N24      N        0.10415    0.29890    0.56459    1.000
    Ag5      Ag       0.72610    0.20897    0.63175    1.000
    Ag6      Ag       0.20500    0.50132    0.13231    1.000
    C73      C        0.37220    0.47600    0.41218    1.000
    C74      C        0.57730    0.90040    0.10740    1.000
    H49      H        0.59710    0.90500    0.14740    1.000
    C75      C        0.34620    0.71970    0.99871    1.000
    C76      C        0.37200    0.56160    0.58870    1.000
    H50      H        0.41450    0.53980    0.61000    1.000
    C77      C        0.37200    0.50700    0.49756    1.000
    C78      C        0.51790    0.88720    0.99060    1.000
    H51      H        0.49860    0.88420    0.95050    1.000
    C79      C        0.59690    0.31690    0.61080    1.000
    H52      H        0.61540    0.31130    0.65070    1.000
    C80      C        0.25660    0.63350    0.00371    1.000
    H53      H        0.23610    0.63300    0.96360    1.000
    C81      C        0.42470    0.80070    0.99280    1.000
    C82      C        0.34010    0.55230    0.52968    1.000
    C83      C        0.27710    0.58650    0.50060    1.000
    H54      H        0.25450    0.58210    0.46060    1.000
    C84      C        0.22810    0.59270    0.03440    1.000
    H55      H        0.18780    0.56540    0.01420    1.000
    C85      C        0.24830    0.62660    0.53080    1.000
    H56      H        0.20580    0.64900    0.51040    1.000
    C86      C        0.54270    0.33410    0.49440    1.000
    H57      H        0.52500    0.33800    0.45440    1.000
    C87      C        0.34170    0.48620    0.34820    1.000
    C88      C        0.53910    0.36100    0.58440    1.000
    H58      H        0.51870    0.38360    0.60610    1.000
    C89      C        0.31630    0.67510    0.03314    1.000
    C90      C        0.30980    0.74260    0.84810    1.000
    C91      C        0.51770    0.85760    0.08135    1.000
    H59      H        0.49840    0.83410    0.10360    1.000
    C92      C        0.45020    0.42280    0.49435    1.000
    C93      C        0.22070    0.69870    0.75970    1.000
    H60      H        0.17850    0.67500    0.74060    1.000
    C94      C        0.24730    0.70700    0.81890    1.000
    H61      H        0.22330    0.68890    0.83900    1.000
    C95      C        0.33900    0.60420    0.61560    1.000
    H62      H        0.36120    0.61120    0.65540    1.000
    C96      C        0.34350    0.76800    0.81590    1.000
    H63      H        0.38580    0.79180    0.83380    1.000
    C97      C        0.28780    0.53800    0.32170    1.000
    H64      H        0.27160    0.56860    0.34340    1.000
    C98      C        0.31310    0.75730    0.75710    1.000
    H65      H        0.33600    0.77500    0.73600    1.000
    C99      C        0.60110    0.29060    0.52530    1.000
    H66      H        0.62240    0.26640    0.50490    1.000
    C100     C        0.34170    0.75220    0.91210    1.000
    C101     C        0.25860    0.54340    0.26230    1.000
    H67      H        0.22270    0.57880    0.24470    1.000
    C102     C        0.48730    0.85020    0.02203    1.000
    C103     C        0.34440    0.67460    0.09250    1.000
    H68      H        0.38370    0.70330    0.11360    1.000
    C104     C        0.51090    0.37200    0.52489    1.000
    C105     C        0.36650    0.44500    0.31470    1.000
    H69      H        0.40470    0.41270    0.33130    1.000
    C106     C        0.57770    0.92860    0.02030    1.000
    H70      H        0.59790    0.95300    0.99900    1.000
    C107     C        0.33250    0.45350    0.25550    1.000
    H71      H        0.34820    0.42430    0.23290    1.000
    C108     C        0.31360    0.63120    0.12010    1.000
    H72      H        0.33400    0.62990    0.16020    1.000
    N25      N        0.62846    0.28130    0.58233    1.000
    N26      N        0.27791    0.63560    0.58816    1.000
    N27      N        0.27910    0.50030    0.22857    1.000
    N28      N        0.42526    0.46100    0.52712    1.000
    N29      N        0.34372    0.51820    0.44032    1.000
    N30      N        0.42496    0.42750    0.43685    1.000
    N31      N        0.25589    0.59050    0.09251    1.000
    N32      N        0.25320    0.72340    0.72841    1.000
    N33      N        0.60800    0.93550    0.07782    1.000
    N34      N        0.40239    0.76040    0.02671    1.000
    N35      N        0.31318    0.71240    0.94106    1.000
    N36      N        0.39585    0.79890    0.93541    1.000
    Ag7      Ag       0.22610    0.70897    0.63175    1.000
    Ag8      Ag       0.70500    0.00132    0.13231    1.000
    C109     C        0.87220    0.97600    0.41218    1.000
    C110     C        0.07730    0.40040    0.10740    1.000
    H73      H        0.09710    0.40500    0.14740    1.000
    C111     C        0.84620    0.21970    0.99871    1.000
    C112     C        0.87200    0.06160    0.58870    1.000
    H74      H        0.91450    0.03980    0.61000    1.000
    C113     C        0.87200    0.00700    0.49756    1.000
    C114     C        0.01790    0.38720    0.99060    1.000
    H75      H        0.99860    0.38420    0.95050    1.000
    C115     C        0.09690    0.81690    0.61080    1.000
    H76      H        0.11540    0.81130    0.65070    1.000
    C116     C        0.75660    0.13350    0.00371    1.000
    H77      H        0.73610    0.13300    0.96360    1.000
    C117     C        0.92470    0.30070    0.99280    1.000
    C118     C        0.84010    0.05230    0.52968    1.000
    C119     C        0.77710    0.08650    0.50060    1.000
    H78      H        0.75450    0.08210    0.46060    1.000
    C120     C        0.72810    0.09270    0.03440    1.000
    H79      H        0.68780    0.06540    0.01420    1.000
    C121     C        0.74830    0.12660    0.53080    1.000
    H80      H        0.70580    0.14900    0.51040    1.000
    C122     C        0.04270    0.83410    0.49440    1.000
    H81      H        0.02500    0.83800    0.45440    1.000
    C123     C        0.84170    0.98620    0.34820    1.000
    C124     C        0.03910    0.86100    0.58440    1.000
    H82      H        0.01870    0.88360    0.60610    1.000
    C125     C        0.81630    0.17510    0.03314    1.000
    C126     C        0.80980    0.24260    0.84810    1.000
    C127     C        0.01770    0.35760    0.08135    1.000
    H83      H        0.99840    0.33410    0.10360    1.000
    C128     C        0.95020    0.92280    0.49435    1.000
    C129     C        0.72070    0.19870    0.75970    1.000
    H84      H        0.67850    0.17500    0.74060    1.000
    C130     C        0.74730    0.20700    0.81890    1.000
    H85      H        0.72330    0.18890    0.83900    1.000
    C131     C        0.83900    0.10420    0.61560    1.000
    H86      H        0.86120    0.11120    0.65540    1.000
    C132     C        0.84350    0.26800    0.81590    1.000
    H87      H        0.88580    0.29180    0.83380    1.000
    C133     C        0.78780    0.03800    0.32170    1.000
    H88      H        0.77160    0.06860    0.34340    1.000
    C134     C        0.81310    0.25730    0.75710    1.000
    H89      H        0.83600    0.27500    0.73600    1.000
    C135     C        0.10110    0.79060    0.52530    1.000
    H90      H        0.12240    0.76640    0.50490    1.000
    C136     C        0.84170    0.25220    0.91210    1.000
    C137     C        0.75860    0.04340    0.26230    1.000
    H91      H        0.72270    0.07880    0.24470    1.000
    C138     C        0.98730    0.35020    0.02203    1.000
    C139     C        0.84440    0.17460    0.09250    1.000
    H92      H        0.88370    0.20330    0.11360    1.000
    C140     C        0.01090    0.87200    0.52489    1.000
    C141     C        0.86650    0.94500    0.31470    1.000
    H93      H        0.90470    0.91270    0.33130    1.000
    C142     C        0.07770    0.42860    0.02030    1.000
    H94      H        0.09790    0.45300    0.99900    1.000
    C143     C        0.83250    0.95350    0.25550    1.000
    H95      H        0.84820    0.92430    0.23290    1.000
    C144     C        0.81360    0.13120    0.12010    1.000
    H96      H        0.83400    0.12990    0.16020    1.000
    N37      N        0.12846    0.78130    0.58233    1.000
    N38      N        0.77791    0.13560    0.58816    1.000
    N39      N        0.77910    0.00030    0.22857    1.000
    N40      N        0.92526    0.96100    0.52712    1.000
    N41      N        0.84372    0.01820    0.44032    1.000
    N42      N        0.92496    0.92750    0.43685    1.000
    N43      N        0.75589    0.09050    0.09251    1.000
    N44      N        0.75320    0.22340    0.72841    1.000
    N45      N        0.10800    0.43550    0.07782    1.000
    N46      N        0.90239    0.26040    0.02671    1.000
    N47      N        0.81318    0.21240    0.94106    1.000
    N48      N        0.89585    0.29890    0.93541    1.000
    Ag9      Ag       0.72610    0.79103    0.13175    1.000
    Ag10     Ag       0.20500    0.49868    0.63231    1.000
    C145     C        0.37220    0.52400    0.91218    1.000
    C146     C        0.57730    0.09960    0.60740    1.000
    H97      H        0.59710    0.09500    0.64740    1.000
    C147     C        0.34620    0.28030    0.49871    1.000
    C148     C        0.37200    0.43840    0.08870    1.000
    H98      H        0.41450    0.46020    0.11000    1.000
    C149     C        0.37200    0.49300    0.99756    1.000
    C150     C        0.51790    0.11280    0.49060    1.000
    H99      H        0.49860    0.11580    0.45050    1.000
    C151     C        0.59690    0.68310    0.11080    1.000
    H100     H        0.61540    0.68870    0.15070    1.000
    C152     C        0.25660    0.36650    0.50371    1.000
    H101     H        0.23610    0.36700    0.46360    1.000
    C153     C        0.42470    0.19930    0.49280    1.000
    C154     C        0.34010    0.44770    0.02968    1.000
    C155     C        0.27710    0.41350    0.00060    1.000
    H102     H        0.25450    0.41790    0.96060    1.000
    C156     C        0.22810    0.40730    0.53440    1.000
    H103     H        0.18780    0.43460    0.51420    1.000
    C157     C        0.24830    0.37340    0.03080    1.000
    H104     H        0.20580    0.35100    0.01040    1.000
    C158     C        0.54270    0.66590    0.99440    1.000
    H105     H        0.52500    0.66200    0.95440    1.000
    C159     C        0.34170    0.51380    0.84820    1.000
    C160     C        0.53910    0.63900    0.08440    1.000
    H106     H        0.51870    0.61640    0.10610    1.000
    C161     C        0.31630    0.32490    0.53314    1.000
    C162     C        0.30980    0.25740    0.34810    1.000
    C163     C        0.51770    0.14240    0.58135    1.000
    H107     H        0.49840    0.16590    0.60360    1.000
    C164     C        0.45020    0.57720    0.99435    1.000
    C165     C        0.22070    0.30130    0.25970    1.000
    H108     H        0.17850    0.32500    0.24060    1.000
    C166     C        0.24730    0.29300    0.31890    1.000
    H109     H        0.22330    0.31110    0.33900    1.000
    C167     C        0.33900    0.39580    0.11560    1.000
    H110     H        0.36120    0.38880    0.15540    1.000
    C168     C        0.34350    0.23200    0.31590    1.000
    H111     H        0.38580    0.20820    0.33380    1.000
    C169     C        0.28780    0.46200    0.82170    1.000
    H112     H        0.27160    0.43140    0.84340    1.000
    C170     C        0.31310    0.24270    0.25710    1.000
    H113     H        0.33600    0.22500    0.23600    1.000
    C171     C        0.60110    0.70940    0.02530    1.000
    H114     H        0.62240    0.73360    0.00490    1.000
    C172     C        0.34170    0.24780    0.41210    1.000
    C173     C        0.25860    0.45660    0.76230    1.000
    H115     H        0.22270    0.42120    0.74470    1.000
    C174     C        0.48730    0.14980    0.52203    1.000
    C175     C        0.34440    0.32540    0.59250    1.000
    H116     H        0.38370    0.29670    0.61360    1.000
    C176     C        0.51090    0.62800    0.02489    1.000
    C177     C        0.36650    0.55500    0.81470    1.000
    H117     H        0.40470    0.58730    0.83130    1.000
    C178     C        0.57770    0.07140    0.52030    1.000
    H118     H        0.59790    0.04700    0.49900    1.000
    C179     C        0.33250    0.54650    0.75550    1.000
    H119     H        0.34820    0.57570    0.73290    1.000
    C180     C        0.31360    0.36880    0.62010    1.000
    H120     H        0.33400    0.37010    0.66020    1.000
    N49      N        0.62846    0.71870    0.08233    1.000
    N50      N        0.27791    0.36440    0.08816    1.000
    N51      N        0.27910    0.49970    0.72857    1.000
    N52      N        0.42526    0.53900    0.02712    1.000
    N53      N        0.34372    0.48180    0.94032    1.000
    N54      N        0.42496    0.57250    0.93685    1.000
    N55      N        0.25589    0.40950    0.59251    1.000
    N56      N        0.25320    0.27660    0.22841    1.000
    N57      N        0.60800    0.06450    0.57782    1.000
    N58      N        0.40239    0.23960    0.52671    1.000
    N59      N        0.31318    0.28760    0.44106    1.000
    N60      N        0.39585    0.20110    0.43541    1.000
    Ag11     Ag       0.22610    0.29103    0.13175    1.000
    Ag12     Ag       0.70500    0.99868    0.63231    1.000
    C181     C        0.87220    0.02400    0.91218    1.000
    C182     C        0.07730    0.59960    0.60740    1.000
    H121     H        0.09710    0.59500    0.64740    1.000
    C183     C        0.84620    0.78030    0.49871    1.000
    C184     C        0.87200    0.93840    0.08870    1.000
    H122     H        0.91450    0.96020    0.11000    1.000
    C185     C        0.87200    0.99300    0.99756    1.000
    C186     C        0.01790    0.61280    0.49060    1.000
    H123     H        0.99860    0.61580    0.45050    1.000
    C187     C        0.09690    0.18310    0.11080    1.000
    H124     H        0.11540    0.18870    0.15070    1.000
    C188     C        0.75660    0.86650    0.50371    1.000
    H125     H        0.73610    0.86700    0.46360    1.000
    C189     C        0.92470    0.69930    0.49280    1.000
    C190     C        0.84010    0.94770    0.02968    1.000
    C191     C        0.77710    0.91350    0.00060    1.000
    H126     H        0.75450    0.91790    0.96060    1.000
    C192     C        0.72810    0.90730    0.53440    1.000
    H127     H        0.68780    0.93460    0.51420    1.000
    C193     C        0.74830    0.87340    0.03080    1.000
    H128     H        0.70580    0.85100    0.01040    1.000
    C194     C        0.04270    0.16590    0.99440    1.000
    H129     H        0.02500    0.16200    0.95440    1.000
    C195     C        0.84170    0.01380    0.84820    1.000
    C196     C        0.03910    0.13900    0.08440    1.000
    H130     H        0.01870    0.11640    0.10610    1.000
    C197     C        0.81630    0.82490    0.53314    1.000
    C198     C        0.80980    0.75740    0.34810    1.000
    C199     C        0.01770    0.64240    0.58135    1.000
    H131     H        0.99840    0.66590    0.60360    1.000
    C200     C        0.95020    0.07720    0.99435    1.000
    C201     C        0.72070    0.80130    0.25970    1.000
    H132     H        0.67850    0.82500    0.24060    1.000
    C202     C        0.74730    0.79300    0.31890    1.000
    H133     H        0.72330    0.81110    0.33900    1.000
    C203     C        0.83900    0.89580    0.11560    1.000
    H134     H        0.86120    0.88880    0.15540    1.000
    C204     C        0.84350    0.73200    0.31590    1.000
    H135     H        0.88580    0.70820    0.33380    1.000
    C205     C        0.78780    0.96200    0.82170    1.000
    H136     H        0.77160    0.93140    0.84340    1.000
    C206     C        0.81310    0.74270    0.25710    1.000
    H137     H        0.83600    0.72500    0.23600    1.000
    C207     C        0.10110    0.20940    0.02530    1.000
    H138     H        0.12240    0.23360    0.00490    1.000
    C208     C        0.84170    0.74780    0.41210    1.000
    C209     C        0.75860    0.95660    0.76230    1.000
    H139     H        0.72270    0.92120    0.74470    1.000
    C210     C        0.98730    0.64980    0.52203    1.000
    C211     C        0.84440    0.82540    0.59250    1.000
    H140     H        0.88370    0.79670    0.61360    1.000
    C212     C        0.01090    0.12800    0.02489    1.000
    C213     C        0.86650    0.05500    0.81470    1.000
    H141     H        0.90470    0.08730    0.83130    1.000
    C214     C        0.07770    0.57140    0.52030    1.000
    H142     H        0.09790    0.54700    0.49900    1.000
    C215     C        0.83250    0.04650    0.75550    1.000
    H143     H        0.84820    0.07570    0.73290    1.000
    C216     C        0.81360    0.86880    0.62010    1.000
    H144     H        0.83400    0.87010    0.66020    1.000
    N61      N        0.12846    0.21870    0.08233    1.000
    N62      N        0.77791    0.86440    0.08816    1.000
    N63      N        0.77910    0.99970    0.72857    1.000
    N64      N        0.92526    0.03900    0.02712    1.000
    N65      N        0.84372    0.98180    0.94032    1.000
    N66      N        0.92496    0.07250    0.93685    1.000
    N67      N        0.75589    0.90950    0.59251    1.000
    N68      N        0.75320    0.77660    0.22841    1.000
    N69      N        0.10800    0.56450    0.57782    1.000
    N70      N        0.90239    0.73960    0.52671    1.000
    N71      N        0.81318    0.78760    0.44106    1.000
    N72      N        0.89585    0.70110    0.43541    1.000
    Ag13     Ag       0.27390    0.79103    0.36825    1.000
    Ag14     Ag       0.79500    0.49868    0.86769    1.000
    C217     C        0.62780    0.52400    0.58782    1.000
    C218     C        0.42270    0.09960    0.89260    1.000
    H145     H        0.40290    0.09500    0.85260    1.000
    C219     C        0.65380    0.28030    0.00129    1.000
    C220     C        0.62800    0.43840    0.41130    1.000
    H146     H        0.58550    0.46020    0.39000    1.000
    C221     C        0.62800    0.49300    0.50244    1.000
    C222     C        0.48210    0.11280    0.00940    1.000
    H147     H        0.50140    0.11580    0.04950    1.000
    C223     C        0.40310    0.68310    0.38920    1.000
    H148     H        0.38460    0.68870    0.34930    1.000
    C224     C        0.74340    0.36650    0.99629    1.000
    H149     H        0.76390    0.36700    0.03640    1.000
    C225     C        0.57530    0.19930    0.00720    1.000
    C226     C        0.65990    0.44770    0.47032    1.000
    C227     C        0.72290    0.41350    0.49940    1.000
    H150     H        0.74550    0.41790    0.53940    1.000
    C228     C        0.77190    0.40730    0.96560    1.000
    H151     H        0.81220    0.43460    0.98580    1.000
    C229     C        0.75170    0.37340    0.46920    1.000
    H152     H        0.79420    0.35100    0.48960    1.000
    C230     C        0.45730    0.66590    0.50560    1.000
    H153     H        0.47500    0.66200    0.54560    1.000
    C231     C        0.65830    0.51380    0.65180    1.000
    C232     C        0.46090    0.63900    0.41560    1.000
    H154     H        0.48130    0.61640    0.39390    1.000
    C233     C        0.68370    0.32490    0.96686    1.000
    C234     C        0.69020    0.25740    0.15190    1.000
    C235     C        0.48230    0.14240    0.91865    1.000
    H155     H        0.50160    0.16590    0.89640    1.000
    C236     C        0.54980    0.57720    0.50565    1.000
    C237     C        0.77930    0.30130    0.24030    1.000
    H156     H        0.82150    0.32500    0.25940    1.000
    C238     C        0.75270    0.29300    0.18110    1.000
    H157     H        0.77670    0.31110    0.16100    1.000
    C239     C        0.66100    0.39580    0.38440    1.000
    H158     H        0.63880    0.38880    0.34460    1.000
    C240     C        0.65650    0.23200    0.18410    1.000
    H159     H        0.61420    0.20820    0.16620    1.000
    C241     C        0.71220    0.46200    0.67830    1.000
    H160     H        0.72840    0.43140    0.65660    1.000
    C242     C        0.68690    0.24270    0.24290    1.000
    H161     H        0.66400    0.22500    0.26400    1.000
    C243     C        0.39890    0.70940    0.47470    1.000
    H162     H        0.37760    0.73360    0.49510    1.000
    C244     C        0.65830    0.24780    0.08790    1.000
    C245     C        0.74140    0.45660    0.73770    1.000
    H163     H        0.77730    0.42120    0.75530    1.000
    C246     C        0.51270    0.14980    0.97797    1.000
    C247     C        0.65560    0.32540    0.90750    1.000
    H164     H        0.61630    0.29670    0.88640    1.000
    C248     C        0.48910    0.62800    0.47511    1.000
    C249     C        0.63350    0.55500    0.68530    1.000
    H165     H        0.59530    0.58730    0.66870    1.000
    C250     C        0.42230    0.07140    0.97970    1.000
    H166     H        0.40210    0.04700    0.00100    1.000
    C251     C        0.66750    0.54650    0.74450    1.000
    H167     H        0.65180    0.57570    0.76710    1.000
    C252     C        0.68640    0.36880    0.87990    1.000
    H168     H        0.66600    0.37010    0.83980    1.000
    N73      N        0.37154    0.71870    0.41767    1.000
    N74      N        0.72209    0.36440    0.41184    1.000
    N75      N        0.72090    0.49970    0.77143    1.000
    N76      N        0.57474    0.53900    0.47288    1.000
    N77      N        0.65628    0.48180    0.55968    1.000
    N78      N        0.57504    0.57250    0.56315    1.000
    N79      N        0.74411    0.40950    0.90749    1.000
    N80      N        0.74680    0.27660    0.27159    1.000
    N81      N        0.39200    0.06450    0.92218    1.000
    N82      N        0.59761    0.23960    0.97329    1.000
    N83      N        0.68682    0.28760    0.05894    1.000
    N84      N        0.60415    0.20110    0.06459    1.000
    Ag15     Ag       0.77390    0.29103    0.36825    1.000
    Ag16     Ag       0.29500    0.99868    0.86769    1.000
    C253     C        0.12780    0.02400    0.58782    1.000
    C254     C        0.92270    0.59960    0.89260    1.000
    H169     H        0.90290    0.59500    0.85260    1.000
    C255     C        0.15380    0.78030    0.00129    1.000
    C256     C        0.12800    0.93840    0.41130    1.000
    H170     H        0.08550    0.96020    0.39000    1.000
    C257     C        0.12800    0.99300    0.50244    1.000
    C258     C        0.98210    0.61280    0.00940    1.000
    H171     H        0.00140    0.61580    0.04950    1.000
    C259     C        0.90310    0.18310    0.38920    1.000
    H172     H        0.88460    0.18870    0.34930    1.000
    C260     C        0.24340    0.86650    0.99629    1.000
    H173     H        0.26390    0.86700    0.03640    1.000
    C261     C        0.07530    0.69930    0.00720    1.000
    C262     C        0.15990    0.94770    0.47032    1.000
    C263     C        0.22290    0.91350    0.49940    1.000
    H174     H        0.24550    0.91790    0.53940    1.000
    C264     C        0.27190    0.90730    0.96560    1.000
    H175     H        0.31220    0.93460    0.98580    1.000
    C265     C        0.25170    0.87340    0.46920    1.000
    H176     H        0.29420    0.85100    0.48960    1.000
    C266     C        0.95730    0.16590    0.50560    1.000
    H177     H        0.97500    0.16200    0.54560    1.000
    C267     C        0.15830    0.01380    0.65180    1.000
    C268     C        0.96090    0.13900    0.41560    1.000
    H178     H        0.98130    0.11640    0.39390    1.000
    C269     C        0.18370    0.82490    0.96686    1.000
    C270     C        0.19020    0.75740    0.15190    1.000
    C271     C        0.98230    0.64240    0.91865    1.000
    H179     H        0.00160    0.66590    0.89640    1.000
    C272     C        0.04980    0.07720    0.50565    1.000
    C273     C        0.27930    0.80130    0.24030    1.000
    H180     H        0.32150    0.82500    0.25940    1.000
    C274     C        0.25270    0.79300    0.18110    1.000
    H181     H        0.27670    0.81110    0.16100    1.000
    C275     C        0.16100    0.89580    0.38440    1.000
    H182     H        0.13880    0.88880    0.34460    1.000
    C276     C        0.15650    0.73200    0.18410    1.000
    H183     H        0.11420    0.70820    0.16620    1.000
    C277     C        0.21220    0.96200    0.67830    1.000
    H184     H        0.22840    0.93140    0.65660    1.000
    C278     C        0.18690    0.74270    0.24290    1.000
    H185     H        0.16400    0.72500    0.26400    1.000
    C279     C        0.89890    0.20940    0.47470    1.000
    H186     H        0.87760    0.23360    0.49510    1.000
    C280     C        0.15830    0.74780    0.08790    1.000
    C281     C        0.24140    0.95660    0.73770    1.000
    H187     H        0.27730    0.92120    0.75530    1.000
    C282     C        0.01270    0.64980    0.97797    1.000
    C283     C        0.15560    0.82540    0.90750    1.000
    H188     H        0.11630    0.79670    0.88640    1.000
    C284     C        0.98910    0.12800    0.47511    1.000
    C285     C        0.13350    0.05500    0.68530    1.000
    H189     H        0.09530    0.08730    0.66870    1.000
    C286     C        0.92230    0.57140    0.97970    1.000
    H190     H        0.90210    0.54700    0.00100    1.000
    C287     C        0.16750    0.04650    0.74450    1.000
    H191     H        0.15180    0.07570    0.76710    1.000
    C288     C        0.18640    0.86880    0.87990    1.000
    H192     H        0.16600    0.87010    0.83980    1.000
    N85      N        0.87154    0.21870    0.41767    1.000
    N86      N        0.22209    0.86440    0.41184    1.000
    N87      N        0.22090    0.99970    0.77143    1.000
    N88      N        0.07474    0.03900    0.47288    1.000
    N89      N        0.15628    0.98180    0.55968    1.000
    N90      N        0.07504    0.07250    0.56315    1.000
    N91      N        0.24411    0.90950    0.90749    1.000
    N92      N        0.24680    0.77660    0.27159    1.000
    N93      N        0.89200    0.56450    0.92218    1.000
    N94      N        0.09761    0.73960    0.97329    1.000
    N95      N        0.18682    0.78760    0.05894    1.000
    N96      N        0.10415    0.70110    0.06459    1.000
