# CIF file generated by openbabel 3.1.0, see https://openbabel.org
data_I
_chemical_name_common 'image0'
_cell_length_a 29.5467
_cell_length_b 12.9685
_cell_length_c 14.2361
_cell_angle_alpha 90
_cell_angle_beta 94.61
_cell_angle_gamma 90
_space_group_name_H-M_alt 'P 1'
_space_group_name_Hall 'P 1'
loop_
    _symmetry_equiv_pos_as_xyz
    x,y,z
loop_
    _atom_site_label
    _atom_site_type_symbol
    _atom_site_fract_x
    _atom_site_fract_y
    _atom_site_fract_z
    _atom_site_occupancy
    Eu1      Eu       0.18659    0.70005    0.96755    1.000
    C1       C        0.10230    0.74470    0.04060    1.000
    C2       C        0.05730    0.76820    0.07760    1.000
    C3       C        0.03100    0.68940    0.10840    1.000
    H1       H        0.04280    0.62290    0.11310    1.000
    C4       C        0.98690    0.70750    0.13280    1.000
    H2       H        0.96880    0.65320    0.15050    1.000
    C5       C        0.97020    0.80720    0.13020    1.000
    C6       C        0.99750    0.88730    0.10200    1.000
    H3       H        0.98650    0.95460    0.10060    1.000
    C7       C        0.04060    0.86740    0.07620    1.000
    H4       H        0.05860    0.92140    0.05760    1.000
    C8       C        0.92290    0.82330    0.15070    1.000
    C9       C        0.75480    0.06560    0.06510    1.000
    C10      C        0.78444    0.99390    0.12450    1.000
    C11      C        0.83050    0.98820    0.11200    1.000
    H5       H        0.84320    0.03080    0.06870    1.000
    C12      C        0.85730    0.91840    0.16480    1.000
    C13      C        0.83830    0.85960    0.23320    1.000
    H6       H        0.85640    0.81390    0.26990    1.000
    C14      C        0.79241    0.86830    0.24730    1.000
    C15      C        0.76540    0.93450    0.19160    1.000
    H7       H        0.73450    0.93910    0.19920    1.000
    C16      C        0.77270    0.80890    0.32510    1.000
    N1       N        0.90395    0.91190    0.14790    1.000
    O1       O        0.12504    0.81680    0.00870    1.000
    O2       O        0.11669    0.65320    0.04310    1.000
    O3       O        0.71319    0.04490    0.05030    1.000
    O4       O        0.77096    0.14610    0.02960    1.000
    O5       O        0.79815    0.74600    0.37010    1.000
    O6       O        0.73256    0.82880    0.34080    1.000
    H8       H        0.91100    0.75600    0.16300    1.000
    Eu2      Eu       0.68659    0.20005    0.96755    1.000
    C17      C        0.60230    0.24470    0.04060    1.000
    C18      C        0.55730    0.26820    0.07760    1.000
    C19      C        0.53100    0.18940    0.10840    1.000
    H9       H        0.54280    0.12290    0.11310    1.000
    C20      C        0.48690    0.20750    0.13280    1.000
    H10      H        0.46880    0.15320    0.15050    1.000
    C21      C        0.47020    0.30720    0.13020    1.000
    C22      C        0.49750    0.38730    0.10200    1.000
    H11      H        0.48650    0.45460    0.10060    1.000
    C23      C        0.54060    0.36740    0.07620    1.000
    H12      H        0.55860    0.42140    0.05760    1.000
    C24      C        0.42290    0.32330    0.15070    1.000
    C25      C        0.25480    0.56560    0.06510    1.000
    C26      C        0.28444    0.49390    0.12450    1.000
    C27      C        0.33050    0.48820    0.11200    1.000
    H13      H        0.34320    0.53080    0.06870    1.000
    C28      C        0.35730    0.41840    0.16480    1.000
    C29      C        0.33830    0.35960    0.23320    1.000
    H14      H        0.35640    0.31390    0.26990    1.000
    C30      C        0.29241    0.36830    0.24730    1.000
    C31      C        0.26540    0.43450    0.19160    1.000
    H15      H        0.23450    0.43910    0.19920    1.000
    C32      C        0.27270    0.30890    0.32510    1.000
    N2       N        0.40395    0.41190    0.14790    1.000
    O7       O        0.62504    0.31680    0.00870    1.000
    O8       O        0.61669    0.15320    0.04310    1.000
    O9       O        0.21319    0.54490    0.05030    1.000
    O10      O        0.27096    0.64610    0.02960    1.000
    O11      O        0.29815    0.24600    0.37010    1.000
    O12      O        0.23256    0.32880    0.34080    1.000
    H16      H        0.41100    0.25600    0.16300    1.000
    Eu3      Eu       0.81341    0.70005    0.53245    1.000
    C33      C        0.89770    0.74470    0.45940    1.000
    C34      C        0.94270    0.76820    0.42240    1.000
    C35      C        0.96900    0.68940    0.39160    1.000
    H17      H        0.95720    0.62290    0.38690    1.000
    C36      C        0.01310    0.70750    0.36720    1.000
    H18      H        0.03120    0.65320    0.34950    1.000
    C37      C        0.02980    0.80720    0.36980    1.000
    C38      C        0.00250    0.88730    0.39800    1.000
    H19      H        0.01350    0.95460    0.39940    1.000
    C39      C        0.95940    0.86740    0.42380    1.000
    H20      H        0.94140    0.92140    0.44240    1.000
    C40      C        0.07710    0.82330    0.34930    1.000
    C41      C        0.24520    0.06560    0.43490    1.000
    C42      C        0.21556    0.99390    0.37550    1.000
    C43      C        0.16950    0.98820    0.38800    1.000
    H21      H        0.15680    0.03080    0.43130    1.000
    C44      C        0.14270    0.91840    0.33520    1.000
    C45      C        0.16170    0.85960    0.26680    1.000
    H22      H        0.14360    0.81390    0.23010    1.000
    C46      C        0.20759    0.86830    0.25270    1.000
    C47      C        0.23460    0.93450    0.30840    1.000
    H23      H        0.26550    0.93910    0.30080    1.000
    C48      C        0.22730    0.80890    0.17490    1.000
    N3       N        0.09605    0.91190    0.35210    1.000
    O13      O        0.87496    0.81680    0.49130    1.000
    O14      O        0.88331    0.65320    0.45690    1.000
    O15      O        0.28681    0.04490    0.44970    1.000
    O16      O        0.22904    0.14610    0.47040    1.000
    O17      O        0.20185    0.74600    0.12990    1.000
    O18      O        0.26744    0.82880    0.15920    1.000
    H24      H        0.08900    0.75600    0.33700    1.000
    Eu4      Eu       0.31341    0.20005    0.53245    1.000
    C49      C        0.39770    0.24470    0.45940    1.000
    C50      C        0.44270    0.26820    0.42240    1.000
    C51      C        0.46900    0.18940    0.39160    1.000
    H25      H        0.45720    0.12290    0.38690    1.000
    C52      C        0.51310    0.20750    0.36720    1.000
    H26      H        0.53120    0.15320    0.34950    1.000
    C53      C        0.52980    0.30720    0.36980    1.000
    C54      C        0.50250    0.38730    0.39800    1.000
    H27      H        0.51350    0.45460    0.39940    1.000
    C55      C        0.45940    0.36740    0.42380    1.000
    H28      H        0.44140    0.42140    0.44240    1.000
    C56      C        0.57710    0.32330    0.34930    1.000
    C57      C        0.74520    0.56560    0.43490    1.000
    C58      C        0.71556    0.49390    0.37550    1.000
    C59      C        0.66950    0.48820    0.38800    1.000
    H29      H        0.65680    0.53080    0.43130    1.000
    C60      C        0.64270    0.41840    0.33520    1.000
    C61      C        0.66170    0.35960    0.26680    1.000
    H30      H        0.64360    0.31390    0.23010    1.000
    C62      C        0.70759    0.36830    0.25270    1.000
    C63      C        0.73460    0.43450    0.30840    1.000
    H31      H        0.76550    0.43910    0.30080    1.000
    C64      C        0.72730    0.30890    0.17490    1.000
    N4       N        0.59605    0.41190    0.35210    1.000
    O19      O        0.37496    0.31680    0.49130    1.000
    O20      O        0.38331    0.15320    0.45690    1.000
    O21      O        0.78681    0.54490    0.44970    1.000
    O22      O        0.72904    0.64610    0.47040    1.000
    O23      O        0.70185    0.24600    0.12990    1.000
    O24      O        0.76744    0.32880    0.15920    1.000
    H32      H        0.58900    0.25600    0.33700    1.000
    Eu5      Eu       0.81341    0.29995    0.03245    1.000
    C65      C        0.89770    0.25530    0.95940    1.000
    C66      C        0.94270    0.23180    0.92240    1.000
    C67      C        0.96900    0.31060    0.89160    1.000
    H33      H        0.95720    0.37710    0.88690    1.000
    C68      C        0.01310    0.29250    0.86720    1.000
    H34      H        0.03120    0.34680    0.84950    1.000
    C69      C        0.02980    0.19280    0.86980    1.000
    C70      C        0.00250    0.11270    0.89800    1.000
    H35      H        0.01350    0.04540    0.89940    1.000
    C71      C        0.95940    0.13260    0.92380    1.000
    H36      H        0.94140    0.07860    0.94240    1.000
    C72      C        0.07710    0.17670    0.84930    1.000
    C73      C        0.24520    0.93440    0.93490    1.000
    C74      C        0.21556    0.00610    0.87550    1.000
    C75      C        0.16950    0.01180    0.88800    1.000
    H37      H        0.15680    0.96920    0.93130    1.000
    C76      C        0.14270    0.08160    0.83520    1.000
    C77      C        0.16170    0.14040    0.76680    1.000
    H38      H        0.14360    0.18610    0.73010    1.000
    C78      C        0.20759    0.13170    0.75270    1.000
    C79      C        0.23460    0.06550    0.80840    1.000
    H39      H        0.26550    0.06090    0.80080    1.000
    C80      C        0.22730    0.19110    0.67490    1.000
    N5       N        0.09605    0.08810    0.85210    1.000
    O25      O        0.87496    0.18320    0.99130    1.000
    O26      O        0.88331    0.34680    0.95690    1.000
    O27      O        0.28681    0.95510    0.94970    1.000
    O28      O        0.22904    0.85390    0.97040    1.000
    O29      O        0.20185    0.25400    0.62990    1.000
    O30      O        0.26744    0.17120    0.65920    1.000
    H40      H        0.08900    0.24400    0.83700    1.000
    Eu6      Eu       0.31341    0.79995    0.03245    1.000
    C81      C        0.39770    0.75530    0.95940    1.000
    C82      C        0.44270    0.73180    0.92240    1.000
    C83      C        0.46900    0.81060    0.89160    1.000
    H41      H        0.45720    0.87710    0.88690    1.000
    C84      C        0.51310    0.79250    0.86720    1.000
    H42      H        0.53120    0.84680    0.84950    1.000
    C85      C        0.52980    0.69280    0.86980    1.000
    C86      C        0.50250    0.61270    0.89800    1.000
    H43      H        0.51350    0.54540    0.89940    1.000
    C87      C        0.45940    0.63260    0.92380    1.000
    H44      H        0.44140    0.57860    0.94240    1.000
    C88      C        0.57710    0.67670    0.84930    1.000
    C89      C        0.74520    0.43440    0.93490    1.000
    C90      C        0.71556    0.50610    0.87550    1.000
    C91      C        0.66950    0.51180    0.88800    1.000
    H45      H        0.65680    0.46920    0.93130    1.000
    C92      C        0.64270    0.58160    0.83520    1.000
    C93      C        0.66170    0.64040    0.76680    1.000
    H46      H        0.64360    0.68610    0.73010    1.000
    C94      C        0.70759    0.63170    0.75270    1.000
    C95      C        0.73460    0.56550    0.80840    1.000
    H47      H        0.76550    0.56090    0.80080    1.000
    C96      C        0.72730    0.69110    0.67490    1.000
    N6       N        0.59605    0.58810    0.85210    1.000
    O31      O        0.37496    0.68320    0.99130    1.000
    O32      O        0.38331    0.84680    0.95690    1.000
    O33      O        0.78681    0.45510    0.94970    1.000
    O34      O        0.72904    0.35390    0.97040    1.000
    O35      O        0.70185    0.75400    0.62990    1.000
    O36      O        0.76744    0.67120    0.65920    1.000
    H48      H        0.58900    0.74400    0.83700    1.000
    Eu7      Eu       0.18659    0.29995    0.46755    1.000
    C97      C        0.10230    0.25530    0.54060    1.000
    C98      C        0.05730    0.23180    0.57760    1.000
    C99      C        0.03100    0.31060    0.60840    1.000
    H49      H        0.04280    0.37710    0.61310    1.000
    C100     C        0.98690    0.29250    0.63280    1.000
    H50      H        0.96880    0.34680    0.65050    1.000
    C101     C        0.97020    0.19280    0.63020    1.000
    C102     C        0.99750    0.11270    0.60200    1.000
    H51      H        0.98650    0.04540    0.60060    1.000
    C103     C        0.04060    0.13260    0.57620    1.000
    H52      H        0.05860    0.07860    0.55760    1.000
    C104     C        0.92290    0.17670    0.65070    1.000
    C105     C        0.75480    0.93440    0.56510    1.000
    C106     C        0.78444    0.00610    0.62450    1.000
    C107     C        0.83050    0.01180    0.61200    1.000
    H53      H        0.84320    0.96920    0.56870    1.000
    C108     C        0.85730    0.08160    0.66480    1.000
    C109     C        0.83830    0.14040    0.73320    1.000
    H54      H        0.85640    0.18610    0.76990    1.000
    C110     C        0.79241    0.13170    0.74730    1.000
    C111     C        0.76540    0.06550    0.69160    1.000
    H55      H        0.73450    0.06090    0.69920    1.000
    C112     C        0.77270    0.19110    0.82510    1.000
    N7       N        0.90395    0.08810    0.64790    1.000
    O37      O        0.12504    0.18320    0.50870    1.000
    O38      O        0.11669    0.34680    0.54310    1.000
    O39      O        0.71319    0.95510    0.55030    1.000
    O40      O        0.77096    0.85390    0.52960    1.000
    O41      O        0.79815    0.25400    0.87010    1.000
    O42      O        0.73256    0.17120    0.84080    1.000
    H56      H        0.91100    0.24400    0.66300    1.000
    Eu8      Eu       0.68659    0.79995    0.46755    1.000
    C113     C        0.60230    0.75530    0.54060    1.000
    C114     C        0.55730    0.73180    0.57760    1.000
    C115     C        0.53100    0.81060    0.60840    1.000
    H57      H        0.54280    0.87710    0.61310    1.000
    C116     C        0.48690    0.79250    0.63280    1.000
    H58      H        0.46880    0.84680    0.65050    1.000
    C117     C        0.47020    0.69280    0.63020    1.000
    C118     C        0.49750    0.61270    0.60200    1.000
    H59      H        0.48650    0.54540    0.60060    1.000
    C119     C        0.54060    0.63260    0.57620    1.000
    H60      H        0.55860    0.57860    0.55760    1.000
    C120     C        0.42290    0.67670    0.65070    1.000
    C121     C        0.25480    0.43440    0.56510    1.000
    C122     C        0.28444    0.50610    0.62450    1.000
    C123     C        0.33050    0.51180    0.61200    1.000
    H61      H        0.34320    0.46920    0.56870    1.000
    C124     C        0.35730    0.58160    0.66480    1.000
    C125     C        0.33830    0.64040    0.73320    1.000
    H62      H        0.35640    0.68610    0.76990    1.000
    C126     C        0.29241    0.63170    0.74730    1.000
    C127     C        0.26540    0.56550    0.69160    1.000
    H63      H        0.23450    0.56090    0.69920    1.000
    C128     C        0.27270    0.69110    0.82510    1.000
    N8       N        0.40395    0.58810    0.64790    1.000
    O43      O        0.62504    0.68320    0.50870    1.000
    O44      O        0.61669    0.84680    0.54310    1.000
    O45      O        0.21319    0.45510    0.55030    1.000
    O46      O        0.27096    0.35390    0.52960    1.000
    O47      O        0.29815    0.75400    0.87010    1.000
    O48      O        0.23256    0.67120    0.84080    1.000
    H64      H        0.41100    0.74400    0.66300    1.000
