data_functionalizedCrystal
_audit_creation_method	'EQeq! by Chris Wilmer'
_symmetry_space_group_name_H-M	'P1'
_symmetry_Int_Tables_number	1
_symmetry_cell_setting	triclinic
loop_
_symmetry_equiv_pos_as_xyz
  x,y,z
_cell_length_a	16.1312
_cell_length_b	16.1312
_cell_length_c	16.2674
_cell_angle_alpha	73.6582
_cell_angle_beta	68.1988
_cell_angle_gamma	109.983
loop_
_atom_site_label
_atom_site_type_symbol
_atom_site_fract_x
_atom_site_fract_y
_atom_site_fract_z
_atom_site_charge
Mof_Ni	Ni	0.5	0	-0	1.019
Mof_Ni	Ni	0.5	0.5	0.5	1.064
Mof_Ni	Ni	0.5	-3.48266e-17	0.5	1.045
Mof_Ni	Ni	-0	0	-0	1.007
Mof_H 	H 	0.4416	0.0154	0.2166	0.269
Mof_H 	H 	0.3717	0.0623	0.2414	0.282
Mof_H 	H 	0.3078	0.0009	0.1443	-0.265
Mof_H 	H 	0.7296	0.1417	0.9009	0.035
Mof_H 	H 	0.7558	0.2226	0.8	0.032
Mof_H 	H 	0.6059	0.2314	0.8917	0.004
Mof_H 	H 	0.6827	0.2608	0.9301	0.009
Mof_H 	H 	0.4127	0.22	0.0907	0.43
Mof_H 	H 	0.3926	0.145	0.0472	0.455
Mof_H 	H 	0.4965	0.247	0.9841	0.494
Mof_H 	H 	0.5801	0.1762	0.1613	0.382
Mof_H 	H 	0.5134	0.2284	0.17	0.377
Mof_H 	H 	0.6137	0.271	0.0677	0.37
Mof_H 	H 	0.1852	0.8378	0.2886	0.329
Mof_H 	H 	0.1913	0.9271	0.3116	0.334
Mof_H 	H 	0.2464	0.8706	0.34	0.337
Mof_H 	H 	0.2531	0.8724	0.6903	0.249
Mof_H 	H 	0.1808	0.7846	0.6836	0.238
Mof_H 	H 	0.3037	0.8854	0.4997	-0.166
Mof_H 	H 	0.5864	0.9384	0.6302	0.032
Mof_H 	H 	0.6463	0.8939	0.5742	0.034
Mof_H 	H 	0.504	0.8021	0.5679	0.019
Mof_H 	H 	0.4728	0.7752	0.6798	0.005
Mof_H 	H 	0.19	0.6635	0.7917	0.353
Mof_H 	H 	0.2528	0.7479	0.8095	0.368
Mof_H 	H 	0.2954	0.6795	0.7819	0.363
Mof_H 	H 	0.3316	0.7694	0.5364	0.417
Mof_H 	H 	0.2446	0.6711	0.6361	0.387
Mof_H 	H 	0.3608	0.704	0.5988	0.408
Mof_H 	H 	0.1533	0.9258	0.6101	0.284
Mof_H 	H 	0.1438	0.867	0.549	0.268
Mof_H 	H 	0.215	0.9833	0.4927	0.299
Mof_H 	H 	0.5975	0.1066	0.0503	0.08
Mof_H 	H 	0.3878	0.8786	0.1834	0.108
Mof_H 	H 	0.4125	0.8783	0.677	0.093
Mof_H 	H 	0.3456	0.0217	0.5657	0.095
Mof_H 	H 	0.732	0.6582	0.2834	0.228
Mof_H 	H 	0.8037	0.6131	0.2586	0.232
Mof_H 	H 	0.6452	0.4521	0.3557	-0.147
Mof_H 	H 	0.5426	0.6305	0.5991	0.021
Mof_H 	H 	0.5226	0.5558	0.7	0.02
Mof_H 	H 	0.6231	0.4976	0.6083	0.021
Mof_H 	H 	0.6909	0.6128	0.5699	0.018
Mof_H 	H 	0.8107	0.5034	0.4093	0.347
Mof_H 	H 	0.6922	0.4398	0.4528	0.369
Mof_H 	H 	0.7311	0.4806	0.5159	0.366
Mof_H 	H 	0.8375	0.7414	0.3387	0.361
Mof_H 	H 	0.8984	0.6834	0.33	0.356
Mof_H 	H 	0.8387	0.6814	0.4323	0.359
Mof_H 	H 	0.6264	0.4738	0.2114	0.246
Mof_H 	H 	0.7387	0.5029	0.1884	0.235
Mof_H 	H 	0.7106	0.5864	0.16	0.252
Mof_H 	H 	0.0627	0.9434	0.8097	0.226
Mof_H 	H 	0.9682	0.8644	0.8164	0.236
Mof_H 	H 	0.8851	0.8034	0.0003	-0.182
Mof_H 	H 	0.0686	0.2166	0.8698	-0.049
Mof_H 	H 	0.9681	0.2205	0.9258	-0.008
Mof_H 	H 	0.87	0.0719	0.9321	0.04
Mof_H 	H 	0.955	0.1526	0.8202	0.034
Mof_H 	H 	0.9552	0.9817	0.7083	0.413
Mof_H 	H 	0.0574	0.0623	0.6905	0.355
Mof_H 	H 	0.9614	0.0773	0.7181	0.393
Mof_H 	H 	0.8058	0.868	0.9636	0.47
Mof_H 	H 	0.8072	0.8807	0.8639	0.433
Mof_H 	H 	0.8028	0.9596	0.9012	0.459
Mof_H 	H 	0.0359	0.7634	0.8899	0.164
Mof_H 	H 	0.916	0.6928	0.951	0.189
Mof_H 	H 	0.976	0.7077	0.0073	0.16
Mof_H 	H 	0.6569	0.6478	0.4497	0.095
Mof_H 	H 	0.562	0.5712	0.3166	0.101
Mof_H 	H 	0.0553	0.0895	0.823	0.049
Mof_H 	H 	0.0874	0.9113	0.9343	0.114
Mof_H 	H 	0.5584	0.9846	0.7834	0.199
Mof_H 	H 	0.6283	0.9377	0.7586	0.193
Mof_H 	H 	0.6922	0.9991	0.8557	-0.064
Mof_H 	H 	0.2704	0.8583	0.0991	0.01
Mof_H 	H 	0.2442	0.7774	0.2	-0
Mof_H 	H 	0.3941	0.7686	0.1083	0.031
Mof_H 	H 	0.3173	0.7392	0.0699	0.015
Mof_H 	H 	0.5873	0.78	0.9093	0.269
Mof_H 	H 	0.6074	0.855	0.9528	0.293
Mof_H 	H 	0.5035	0.753	0.0159	0.251
Mof_H 	H 	0.4199	0.8238	0.8387	0.317
Mof_H 	H 	0.4866	0.7716	0.83	0.311
Mof_H 	H 	0.3863	0.729	0.9323	0.32
Mof_H 	H 	0.8148	0.1622	0.7114	0.209
Mof_H 	H 	0.8087	0.0729	0.6884	0.185
Mof_H 	H 	0.7536	0.1294	0.66	0.213
Mof_H 	H 	0.7469	0.1276	0.3097	0.208
Mof_H 	H 	0.8192	0.2154	0.3164	0.216
Mof_H 	H 	0.6963	0.1146	0.5003	-0.134
Mof_H 	H 	0.4136	0.0616	0.3698	-0.008
Mof_H 	H 	0.3537	0.1061	0.4258	-0.002
Mof_H 	H 	0.496	0.1979	0.4321	0.024
Mof_H 	H 	0.5272	0.2248	0.3202	0.008
Mof_H 	H 	0.81	0.3365	0.2083	0.328
Mof_H 	H 	0.7472	0.2521	0.1905	0.335
Mof_H 	H 	0.7046	0.3205	0.2181	0.336
Mof_H 	H 	0.6684	0.2306	0.4636	0.399
Mof_H 	H 	0.7554	0.3289	0.3639	0.374
Mof_H 	H 	0.6392	0.296	0.4012	0.392
Mof_H 	H 	0.8467	0.0742	0.3899	0.236
Mof_H 	H 	0.8562	0.133	0.451	0.233
Mof_H 	H 	0.785	0.0167	0.5073	0.229
Mof_H 	H 	0.4025	0.8934	0.9497	0.106
Mof_H 	H 	0.6122	0.1214	0.8166	0.097
Mof_H 	H 	0.5875	0.1217	0.323	0.075
Mof_H 	H 	0.6544	0.9783	0.4343	0.114
Mof_H 	H 	0.268	0.3418	0.7166	0.226
Mof_H 	H 	0.1963	0.3869	0.7414	0.227
Mof_H 	H 	0.3548	0.5479	0.6443	-0.149
Mof_H 	H 	0.4574	0.3695	0.4009	0.017
Mof_H 	H 	0.4774	0.4442	0.3	0.012
Mof_H 	H 	0.3769	0.5024	0.3917	0.018
Mof_H 	H 	0.3091	0.3872	0.4301	0.009
Mof_H 	H 	0.1893	0.4966	0.5907	0.326
Mof_H 	H 	0.3078	0.5602	0.5472	0.353
Mof_H 	H 	0.2689	0.5194	0.4841	0.347
Mof_H 	H 	0.1625	0.2586	0.6613	0.326
Mof_H 	H 	0.1016	0.3166	0.67	0.316
Mof_H 	H 	0.1613	0.3186	0.5677	0.32
Mof_H 	H 	0.3736	0.5262	0.7886	0.263
Mof_H 	H 	0.2613	0.4971	0.8116	0.248
Mof_H 	H 	0.2894	0.4136	0.84	0.273
Mof_H 	H 	0.9373	0.0566	0.1903	0.212
Mof_H 	H 	0.0318	0.1356	0.1836	0.187
Mof_H 	H 	0.1149	0.1966	0.9997	-0.088
Mof_H 	H 	0.9314	0.7834	0.1302	0.048
Mof_H 	H 	0.0319	0.7795	0.0742	0.028
Mof_H 	H 	0.13	0.9281	0.0679	0.028
Mof_H 	H 	0.045	0.8474	0.1798	0
Mof_H 	H 	0.0448	0.0183	0.2917	0.132
Mof_H 	H 	0.9426	0.9377	0.3095	0.217
Mof_H 	H 	0.0386	0.9227	0.2819	0.192
Mof_H 	H 	0.1942	0.132	0.0364	0.277
Mof_H 	H 	0.1928	0.1193	0.1361	0.262
Mof_H 	H 	0.1972	0.0404	0.0988	0.267
Mof_H 	H 	0.9641	0.2366	0.1101	0.337
Mof_H 	H 	0.084	0.3072	0.049	0.293
Mof_H 	H 	0.024	0.2923	0.9927	0.345
Mof_H 	H 	0.3431	0.3522	0.5503	0.093
Mof_H 	H 	0.438	0.4288	0.6834	0.103
Mof_H 	H 	0.9447	0.9105	0.177	0.1
Mof_H 	H 	0.9126	0.0887	0.0657	0.095
Mof_W 	W 	0.39543	0.14543	0.75	0.495
Mof_W 	W 	0.60457	0.85457	0.25	0.545
Mof_C 	C 	0.4072	0.0813	0.8771	-0.062
Mof_C 	C 	0.4681	0.0958	0.6499	-0.07
Mof_C 	C 	0.3001	0.9854	0.8231	-0.019
Mof_C 	C 	0.5593	0.2194	0.6981	-0.064
Mof_C 	C 	0.4931	0.1446	0.0973	0.828
Mof_C 	C 	0.4079	0.046	0.1915	-0.976
Mof_C 	C 	0.327	0.9669	0.1879	0.697
Mof_C 	C 	0.7	0.1685	0.8659	-0.086
Mof_C 	C 	0.6384	0.2071	0.9245	-0.01
Mof_C 	C 	0.4441	0.1937	0.0504	-1.494
Mof_C 	C 	0.5558	0.2112	0.1268	-1.297
Mof_C 	C 	0.2282	0.8938	0.2918	-1.099
Mof_C 	C 	0.3143	0.7853	0.6606	0.779
Mof_C 	C 	0.2519	0.8366	0.6513	-0.811
Mof_C 	C 	0.2815	0.9104	0.5473	0.539
Mof_C 	C 	0.5952	0.9146	0.5808	-0.083
Mof_C 	C 	0.4962	0.8278	0.6158	-0.058
Mof_C 	C 	0.2579	0.7124	0.7711	-1.231
Mof_C 	C 	0.3127	0.7272	0.6027	-1.315
Mof_C 	C 	0.1897	0.9228	0.5501	-0.944
Mof_C 	C 	0.4584	0.2843	0.6229	-0.051
Mof_C 	C 	0.2457	0.118	0.8501	-0.059
Mof_C 	C 	0.3085	0.1232	0.6769	-0.084
Mof_C 	C 	0.4175	0.2574	0.8019	-0.056
Mof_C 	C 	0.7419	0.5904	0.4027	0.694
Mof_C 	C 	0.7375	0.5994	0.3085	-0.757
Mof_C 	C 	0.6548	0.5149	0.3121	0.437
Mof_C 	C 	0.5344	0.5659	0.6341	-0.057
Mof_C 	C 	0.6316	0.5629	0.5755	-0.075
Mof_C 	C 	0.7441	0.4945	0.4496	-1.175
Mof_C 	C 	0.838	0.6826	0.3732	-1.184
Mof_C 	C 	0.6856	0.52	0.2082	-0.841
Mof_C 	C 	0.9459	0.9749	0.8394	0.862
Mof_C 	C 	0.9879	0.9032	0.8487	-0.767
Mof_C 	C 	0.9577	0.8288	0.9527	0.475
Mof_C 	C 	0.9954	0.176	0.9192	0.084
Mof_C 	C 	0.9436	0.112	0.8842	-0.134
Mof_C 	C 	0.9835	0.029	0.7289	-1.334
Mof_C 	C 	0.8299	0.9154	0.8973	-1.432
Mof_C 	C 	0.9729	0.7398	0.9499	-0.609
Mof_C 	C 	0.5928	0.9187	0.1229	-0.047
Mof_C 	C 	0.5319	0.9042	0.3501	-0.046
Mof_C 	C 	0.6999	0.0146	0.1769	-0.129
Mof_C 	C 	0.4407	0.7806	0.3019	-0.068
Mof_C 	C 	0.5069	0.8554	0.9027	0.571
Mof_C 	C 	0.5921	0.954	0.8085	-0.59
Mof_C 	C 	0.673	0.0331	0.8121	0.265
Mof_C 	C 	0.3	0.8315	0.1341	-0.025
Mof_C 	C 	0.3616	0.7929	0.0755	-0.12
Mof_C 	C 	0.5559	0.8063	0.9496	-0.891
Mof_C 	C 	0.4442	0.7888	0.8732	-1.042
Mof_C 	C 	0.7718	0.1062	0.7082	-0.697
Mof_C 	C 	0.6857	0.2147	0.3394	0.724
Mof_C 	C 	0.7481	0.1634	0.3487	-0.731
Mof_C 	C 	0.7185	0.0896	0.4527	0.398
Mof_C 	C 	0.4048	0.0854	0.4192	-0.055
Mof_C 	C 	0.5038	0.1722	0.3842	-0.081
Mof_C 	C 	0.7421	0.2876	0.2289	-1.157
Mof_C 	C 	0.6873	0.2728	0.3973	-1.26
Mof_C 	C 	0.8103	0.0772	0.4499	-0.809
Mof_C 	C 	0.5416	0.7157	0.3771	-0.06
Mof_C 	C 	0.7543	0.882	0.1499	-0.055
Mof_C 	C 	0.6915	0.8768	0.3231	-0.059
Mof_C 	C 	0.5825	0.7426	0.1981	-0.074
Mof_C 	C 	0.2581	0.4096	0.5973	0.661
Mof_C 	C 	0.2625	0.4006	0.6915	-0.743
Mof_C 	C 	0.3452	0.4851	0.6879	0.443
Mof_C 	C 	0.4656	0.4341	0.3659	-0.055
Mof_C 	C 	0.3684	0.4371	0.4245	-0.074
Mof_C 	C 	0.2559	0.5055	0.5504	-1.128
Mof_C 	C 	0.162	0.3174	0.6268	-1.106
Mof_C 	C 	0.3144	0.48	0.7918	-0.871
Mof_C 	C 	0.0541	0.0251	0.1606	0.44
Mof_C 	C 	0.0121	0.0968	0.1513	-0.675
Mof_C 	C 	0.0423	0.1712	0.0473	0.394
Mof_C 	C 	0.0046	0.824	0.0808	-0.153
Mof_C 	C 	0.0564	0.888	0.1158	-0.044
Mof_C 	C 	0.0165	0.971	0.2711	-0.639
Mof_C 	C 	0.1701	0.0846	0.1027	-0.924
Mof_C 	C 	0.0271	0.2602	0.0501	-1.094
Mof_N 	N 	0.4173	0.0485	0.942	-0.214
Mof_N 	N 	0.4969	0.0643	0.598	-0.232
Mof_N 	N 	0.2509	0.9	0.8653	-0.138
Mof_N 	N 	0.6441	0.2583	0.6722	-0.129
Mof_N 	N 	0.5597	0.1202	0.0243	-0.388
Mof_N 	N 	0.3688	0.9086	0.1432	-0.338
Mof_N 	N 	0.4209	0.8629	0.6258	-0.354
Mof_N 	N 	0.3665	0.0021	0.518	-0.364
Mof_N 	N 	0.4905	0.3593	0.558	-0.225
Mof_N 	N 	0.1623	0.0949	0.902	-0.217
Mof_N 	N 	0.2653	0.1162	0.6347	-0.149
Mof_N 	N 	0.4305	0.3163	0.8278	-0.126
Mof_N 	N 	0.6445	0.584	0.4757	-0.342
Mof_N 	N 	0.5518	0.512	0.3568	-0.314
Mof_N 	N 	0.9887	0.0467	0.8742	-0.331
Mof_N 	N 	0.0201	0.8845	0.982	-0.307
Mof_N 	N 	0.5827	0.9515	0.058	-0.218
Mof_N 	N 	0.5031	0.9357	0.402	-0.208
Mof_N 	N 	0.7491	0.1	0.1347	-0.14
Mof_N 	N 	0.3559	0.7417	0.3278	-0.133
Mof_N 	N 	0.4403	0.8798	0.9757	-0.296
Mof_N 	N 	0.6312	0.0914	0.8568	-0.287
Mof_N 	N 	0.5791	0.1371	0.3742	-0.35
Mof_N 	N 	0.6335	0.9979	0.482	-0.296
Mof_N 	N 	0.5095	0.6407	0.442	-0.222
Mof_N 	N 	0.8377	0.9051	0.098	-0.215
Mof_N 	N 	0.7347	0.8838	0.3653	-0.125
Mof_N 	N 	0.5695	0.6837	0.1722	-0.134
Mof_N 	N 	0.3555	0.416	0.5243	-0.338
Mof_N 	N 	0.4482	0.488	0.6432	-0.315
Mof_N 	N 	0.0113	0.9533	0.1258	-0.305
Mof_N 	N 	0.9799	0.1155	0.018	-0.342
_end
