# CIF file generated by openbabel 3.1.0, see https://openbabel.org
data_I
_chemical_name_common 'image0'
_cell_length_a 15.5074
_cell_length_b 13.298
_cell_length_c 10.6553
_cell_angle_alpha 90
_cell_angle_beta 103.131
_cell_angle_gamma 90
_space_group_name_H-M_alt 'P 1'
_space_group_name_Hall 'P 1'
loop_
    _symmetry_equiv_pos_as_xyz
    x,y,z
loop_
    _atom_site_label
    _atom_site_type_symbol
    _atom_site_fract_x
    _atom_site_fract_y
    _atom_site_fract_z
    _atom_site_occupancy
    In1      In       0.37553    0.66421    0.48304    1.000
    In2      In       0.12045    0.66708    0.50012    1.000
    O1       O        0.33310    0.63560    0.27260    1.000
    O2       O        0.33770    0.69870    0.08060    1.000
    O3       O        0.41810    0.79750    0.38550    1.000
    O4       O        0.42710    0.85780    0.19400    1.000
    O5       O        0.07700    0.80010    0.59910    1.000
    O6       O        0.06190    0.85270    0.79170    1.000
    O7       O        0.16930    0.64080    0.70900    1.000
    O8       O        0.15930    0.69650    0.90120    1.000
    O9       O        0.51420    0.62940    0.48520    1.000
    O10      O        0.61330    0.50630    0.51110    1.000
    O11      O        0.98440    0.62960    0.51240    1.000
    O12      O        0.88930    0.50450    0.50390    1.000
    O13      O        0.24660    0.61930    0.48540    1.000
    C1       C        0.35370    0.70150    0.20040    1.000
    C2       C        0.40380    0.79390    0.26630    1.000
    C3       C        0.08970    0.79360    0.71770    1.000
    C4       C        0.14450    0.70260    0.78250    1.000
    C5       C        0.53700    0.53880    0.49930    1.000
    C6       C        0.96280    0.53830    0.50520    1.000
    In3      In       0.62447    0.16421    0.01696    1.000
    In4      In       0.87955    0.16708    0.99988    1.000
    O14      O        0.66690    0.13560    0.22740    1.000
    O15      O        0.66230    0.19870    0.41940    1.000
    O16      O        0.58190    0.29750    0.11450    1.000
    O17      O        0.57290    0.35780    0.30600    1.000
    O18      O        0.92300    0.30010    0.90090    1.000
    O19      O        0.93810    0.35270    0.70830    1.000
    O20      O        0.83070    0.14080    0.79100    1.000
    O21      O        0.84070    0.19650    0.59880    1.000
    O22      O        0.48580    0.12940    0.01480    1.000
    O23      O        0.38670    0.00630    0.98890    1.000
    O24      O        0.01560    0.12960    0.98760    1.000
    O25      O        0.11070    0.00450    0.99610    1.000
    O26      O        0.75340    0.11930    0.01460    1.000
    C7       C        0.64630    0.20150    0.29960    1.000
    C8       C        0.59620    0.29390    0.23370    1.000
    C9       C        0.91030    0.29360    0.78230    1.000
    C10      C        0.85550    0.20260    0.71750    1.000
    C11      C        0.46300    0.03880    0.00070    1.000
    C12      C        0.03720    0.03830    0.99480    1.000
    In5      In       0.62447    0.33579    0.51696    1.000
    In6      In       0.87955    0.33292    0.49988    1.000
    O27      O        0.66690    0.36440    0.72740    1.000
    O28      O        0.66230    0.30130    0.91940    1.000
    O29      O        0.58190    0.20250    0.61450    1.000
    O30      O        0.57290    0.14220    0.80600    1.000
    O31      O        0.92300    0.19990    0.40090    1.000
    O32      O        0.93810    0.14730    0.20830    1.000
    O33      O        0.83070    0.35920    0.29100    1.000
    O34      O        0.84070    0.30350    0.09880    1.000
    O35      O        0.48580    0.37060    0.51480    1.000
    O36      O        0.38670    0.49370    0.48890    1.000
    O37      O        0.01560    0.37040    0.48760    1.000
    O38      O        0.11070    0.49550    0.49610    1.000
    O39      O        0.75340    0.38070    0.51460    1.000
    C13      C        0.64630    0.29850    0.79960    1.000
    C14      C        0.59620    0.20610    0.73370    1.000
    C15      C        0.91030    0.20640    0.28230    1.000
    C16      C        0.85550    0.29740    0.21750    1.000
    C17      C        0.46300    0.46120    0.50070    1.000
    C18      C        0.03720    0.46170    0.49480    1.000
    In7      In       0.37553    0.83579    0.98304    1.000
    In8      In       0.12045    0.83292    0.00012    1.000
    O40      O        0.33310    0.86440    0.77260    1.000
    O41      O        0.33770    0.80130    0.58060    1.000
    O42      O        0.41810    0.70250    0.88550    1.000
    O43      O        0.42710    0.64220    0.69400    1.000
    O44      O        0.07700    0.69990    0.09910    1.000
    O45      O        0.06190    0.64730    0.29170    1.000
    O46      O        0.16930    0.85920    0.20900    1.000
    O47      O        0.15930    0.80350    0.40120    1.000
    O48      O        0.51420    0.87060    0.98520    1.000
    O49      O        0.61330    0.99370    0.01110    1.000
    O50      O        0.98440    0.87040    0.01240    1.000
    O51      O        0.88930    0.99550    0.00390    1.000
    O52      O        0.24660    0.88070    0.98540    1.000
    C19      C        0.35370    0.79850    0.70040    1.000
    C20      C        0.40380    0.70610    0.76630    1.000
    C21      C        0.08970    0.70640    0.21770    1.000
    C22      C        0.14450    0.79740    0.28250    1.000
    C23      C        0.53700    0.96120    0.99930    1.000
    C24      C        0.96280    0.96170    0.00520    1.000
