# CIF file generated by openbabel 3.1.0, see https://openbabel.org
data_I
_chemical_name_common 'FUNBAS_clean'
_cell_length_a 11.521
_cell_length_b 14.008
_cell_length_c 15.701
_cell_angle_alpha 96.679
_cell_angle_beta 90
_cell_angle_gamma 90
_space_group_name_H-M_alt 'P 1'
_space_group_name_Hall 'P 1'
loop_
    _symmetry_equiv_pos_as_xyz
    x,y,z
loop_
    _atom_site_label
    _atom_site_type_symbol
    _atom_site_fract_x
    _atom_site_fract_y
    _atom_site_fract_z
    _atom_site_occupancy
    Zn1      Zn       0.09520    0.19570    0.98308    1.000
    Zn2      Zn       0.09560    0.40460    0.00210    1.000
    H1       H        0.40690    0.17990    0.15160    1.000
    H2       H        0.52020    0.17460    0.27470    1.000
    H3       H        0.38900    0.43190    0.37470    1.000
    H4       H        0.27580    0.43720    0.25160    1.000
    H5       H        0.79640    0.29660    0.49560    1.000
    H6       H        0.39910    0.27760    0.48340    1.000
    H7       H        0.81050    0.41250    0.63670    1.000
    H8       H        0.92650    0.41210    0.76600    1.000
    H9       H        0.76450    0.16770    0.80720    1.000
    H10      H        0.66000    0.16570    0.68540    1.000
    H11      H        0.80160    0.16420    0.32800    1.000
    H12      H        0.89860    0.17020    0.21030    1.000
    H13      H        0.77170    0.42850    0.18640    1.000
    H14      H        0.65950    0.41560    0.31070    1.000
    H15      H        0.36840    0.16780    0.60970    1.000
    H16      H        0.28720    0.15470    0.73600    1.000
    H17      H        0.40440    0.41970    0.82730    1.000
    H18      H        0.53370    0.40280    0.71720    1.000
    H19      H        0.27210    0.56780    0.99120    1.000
    H20      H        0.26780    0.71680    0.02850    1.000
    H21      H        0.91740    0.73880    0.99860    1.000
    H22      H        0.93280    0.56490    0.02100    1.000
    H23      H        0.26500    0.85220    0.97240    1.000
    H24      H        0.25100    0.03520    0.92860    1.000
    H25      H        0.95200    0.03880    0.03750    1.000
    H26      H        0.94100    0.87860    0.07380    1.000
    C1       C        0.24000    0.31300    0.11400    1.000
    C2       C        0.33070    0.30900    0.19000    1.000
    C3       C        0.40330    0.23100    0.19690    1.000
    C4       C        0.47060    0.22790    0.27000    1.000
    C5       C        0.46520    0.30270    0.33630    1.000
    C6       C        0.39270    0.38070    0.32940    1.000
    C7       C        0.32540    0.38390    0.25630    1.000
    C8       C        0.53200    0.28100    0.41500    1.000
    C9       C        0.64900    0.30200    0.41100    1.000
    C10      C        0.71400    0.29200    0.49300    1.000
    C11      C        0.65000    0.27500    0.56600    1.000
    C12      C        0.52500    0.29500    0.56900    1.000
    C13      C        0.48100    0.28400    0.48700    1.000
    C14      C        0.72700    0.28800    0.65000    1.000
    C15      C        0.80400    0.36200    0.67200    1.000
    C16      C        0.87400    0.36100    0.74800    1.000
    C17      C        0.86200    0.28600    0.78900    1.000
    C18      C        0.77700    0.21600    0.77000    1.000
    C19      C        0.71400    0.21600    0.70100    1.000
    C20      C        0.73200    0.29300    0.33300    1.000
    C21      C        0.79900    0.22100    0.30100    1.000
    C22      C        0.86000    0.22700    0.23500    1.000
    C23      C        0.87400    0.30400    0.19700    1.000
    C24      C        0.78300    0.37700    0.22000    1.000
    C25      C        0.71600    0.36800    0.29200    1.000
    C26      C        0.46400    0.27600    0.64700    1.000
    C27      C        0.38600    0.21500    0.65700    1.000
    C28      C        0.32800    0.21200    0.72900    1.000
    C29      C        0.31900    0.29700    0.80600    1.000
    C30      C        0.39900    0.36300    0.78800    1.000
    C31      C        0.47400    0.35600    0.71900    1.000
    C32      C        0.20100    0.60100    0.00190    1.000
    C33      C        0.19700    0.68500    0.01200    1.000
    C34      C        0.10100    0.74500    0.00230    1.000
    C35      C        0.98900    0.70500    0.00270    1.000
    C36      C        0.00200    0.59900    0.01100    1.000
    C37      C        0.08500    0.85200    0.00100    1.000
    C38      C        0.19600    0.88900    0.97700    1.000
    C39      C        0.19000    0.00600    0.95700    1.000
    C40      C        0.01800    0.00100    0.02000    1.000
    C41      C        0.00100    0.90200    0.04000    1.000
    C42      C        0.24600    0.29600    0.86900    1.000
    C43      C        0.93700    0.30600    0.11600    1.000
    C44      C        0.94600    0.28300    0.87500    1.000
    N1       N        0.09700    0.54990    0.00620    1.000
    N2       N        0.09400    0.05530    0.98570    1.000
    O1       O        0.22900    0.38500    0.08620    1.000
    O2       O        0.22910    0.22320    0.06740    1.000
    O3       O        0.23200    0.37600    0.91970    1.000
    O4       O        0.23380    0.20900    0.90360    1.000
    O5       O        0.99120    0.23470    0.08540    1.000
    O6       O        0.98600    0.39000    0.10120    1.000
    O7       O        0.98330    0.36400    0.90470    1.000
    O8       O        0.98340    0.21600    0.88770    1.000
    Zn3      Zn       0.59520    0.80430    0.01692    1.000
    Zn4      Zn       0.59560    0.59540    0.99790    1.000
    H27      H        0.90690    0.82010    0.84840    1.000
    H28      H        0.02020    0.82540    0.72530    1.000
    H29      H        0.88900    0.56810    0.62530    1.000
    H30      H        0.77580    0.56280    0.74840    1.000
    H31      H        0.29640    0.70340    0.50440    1.000
    H32      H        0.89910    0.72240    0.51660    1.000
    H33      H        0.31050    0.58750    0.36330    1.000
    H34      H        0.42650    0.58790    0.23400    1.000
    H35      H        0.26450    0.83230    0.19280    1.000
    H36      H        0.16000    0.83430    0.31460    1.000
    H37      H        0.30160    0.83580    0.67200    1.000
    H38      H        0.39860    0.82980    0.78970    1.000
    H39      H        0.27170    0.57150    0.81360    1.000
    H40      H        0.15950    0.58440    0.68930    1.000
    H41      H        0.86840    0.83220    0.39030    1.000
    H42      H        0.78720    0.84530    0.26400    1.000
    H43      H        0.90440    0.58030    0.17270    1.000
    H44      H        0.03370    0.59720    0.28280    1.000
    H45      H        0.77210    0.43220    0.00880    1.000
    H46      H        0.76780    0.28320    0.97150    1.000
    H47      H        0.41740    0.26120    0.00140    1.000
    H48      H        0.43280    0.43510    0.97900    1.000
    H49      H        0.76500    0.14780    0.02760    1.000
    H50      H        0.75100    0.96480    0.07140    1.000
    H51      H        0.45200    0.96120    0.96250    1.000
    H52      H        0.44100    0.12140    0.92620    1.000
    C45      C        0.74000    0.68700    0.88600    1.000
    C46      C        0.83070    0.69100    0.81000    1.000
    C47      C        0.90330    0.76900    0.80310    1.000
    C48      C        0.97060    0.77210    0.73000    1.000
    C49      C        0.96520    0.69730    0.66370    1.000
    C50      C        0.89270    0.61930    0.67060    1.000
    C51      C        0.82540    0.61610    0.74370    1.000
    C52      C        0.03200    0.71900    0.58500    1.000
    C53      C        0.14900    0.69800    0.58900    1.000
    C54      C        0.21400    0.70800    0.50700    1.000
    C55      C        0.15000    0.72500    0.43400    1.000
    C56      C        0.02500    0.70500    0.43100    1.000
    C57      C        0.98100    0.71600    0.51300    1.000
    C58      C        0.22700    0.71200    0.35000    1.000
    C59      C        0.30400    0.63800    0.32800    1.000
    C60      C        0.37400    0.63900    0.25200    1.000
    C61      C        0.36200    0.71400    0.21100    1.000
    C62      C        0.27700    0.78400    0.23000    1.000
    C63      C        0.21400    0.78400    0.29900    1.000
    C64      C        0.23200    0.70700    0.66700    1.000
    C65      C        0.29900    0.77900    0.69900    1.000
    C66      C        0.36000    0.77300    0.76500    1.000
    C67      C        0.37400    0.69600    0.80300    1.000
    C68      C        0.28300    0.62300    0.78000    1.000
    C69      C        0.21600    0.63200    0.70800    1.000
    C70      C        0.96400    0.72400    0.35300    1.000
    C71      C        0.88600    0.78500    0.34300    1.000
    C72      C        0.82800    0.78800    0.27100    1.000
    C73      C        0.81900    0.70300    0.19400    1.000
    C74      C        0.89900    0.63700    0.21200    1.000
    C75      C        0.97400    0.64400    0.28100    1.000
    C76      C        0.70100    0.39900    0.99810    1.000
    C77      C        0.69700    0.31500    0.98800    1.000
    C78      C        0.60100    0.25500    0.99770    1.000
    C79      C        0.48900    0.29500    0.99730    1.000
    C80      C        0.50200    0.40100    0.98900    1.000
    C81      C        0.58500    0.14800    0.99900    1.000
    C82      C        0.69600    0.11100    0.02300    1.000
    C83      C        0.69000    0.99400    0.04300    1.000
    C84      C        0.51800    0.99900    0.98000    1.000
    C85      C        0.50100    0.09800    0.96000    1.000
    C86      C        0.74600    0.70400    0.13100    1.000
    C87      C        0.43700    0.69400    0.88400    1.000
    C88      C        0.44600    0.71700    0.12500    1.000
    N3       N        0.59700    0.45010    0.99380    1.000
    N4       N        0.59400    0.94470    0.01430    1.000
    O9       O        0.72900    0.61500    0.91380    1.000
    O10      O        0.72910    0.77680    0.93260    1.000
    O11      O        0.73200    0.62400    0.08030    1.000
    O12      O        0.73380    0.79100    0.09640    1.000
    O13      O        0.49120    0.76530    0.91460    1.000
    O14      O        0.48600    0.61000    0.89880    1.000
    O15      O        0.48330    0.63600    0.09530    1.000
    O16      O        0.48340    0.78400    0.11230    1.000
