data_functionalizedCrystal
_audit_creation_method	'EQeq! by Chris Wilmer'
_symmetry_space_group_name_H-M	'P1'
_symmetry_Int_Tables_number	1
_symmetry_cell_setting	triclinic
loop_
_symmetry_equiv_pos_as_xyz
  x,y,z
_cell_length_a	11.1637
_cell_length_b	13.4231
_cell_length_c	19.713
_cell_angle_alpha	71.964
_cell_angle_beta	74.613
_cell_angle_gamma	75.764
loop_
_atom_site_label
_atom_site_type_symbol
_atom_site_fract_x
_atom_site_fract_y
_atom_site_fract_z
_atom_site_charge
Mof_Tb	Tb	0.49274	0.10327	0.07806	0.628
Mof_Co	Co	0.78619	0.51451	0.4213	1.113
Mof_S 	S 	0.70025	0.32025	0.01753	0.544
Mof_S 	S 	0.46843	0.83002	0.11823	0.501
Mof_S 	S 	0.80489	0.83438	0.78272	0.729
Mof_S 	S 	0.34486	0.99025	0.76084	0.593
Mof_O 	O 	0.6657	0.2127	0.0427	-0.384
Mof_O 	O 	0.6092	0.4034	0.98176	-0.236
Mof_O 	O 	0.8284	0.3153	0.97309	-0.23
Mof_O 	O 	0.4707	0.8365	0.04353	-0.482
Mof_O 	O 	0.5751	0.7625	0.1415	-0.248
Mof_O 	O 	0.451	0.944	0.12332	-0.47
Mof_O 	O 	0.8592	0.9162	0.7431	-0.336
Mof_O 	O 	0.876	0.7573	0.8348	-0.281
Mof_O 	O 	0.6783	0.8729	0.8154	-0.474
Mof_O 	O 	0.3814	0.9074	0.7161	-0.261
Mof_O 	O 	0.2131	0.0267	0.7785	-0.261
Mof_O 	O 	0.4035	0.953	0.82243	-0.452
Mof_O 	O 	0.6766	0.9968	0.0381	-0.217
Mof_O 	O 	0.404	0.2982	0.0517	-0.301
Mof_O 	O 	0.3017	0.1109	0.04644	-0.229
Mof_N 	N 	0.7013	0.407	0.4139	-0.282
Mof_N 	N 	0.8556	0.5449	0.31582	-0.284
Mof_N 	N 	0.8849	0.6112	0.4304	-0.285
Mof_N 	N 	0.7084	0.491	0.52463	-0.284
Mof_C 	C 	0.7467	0.4337	0.28242	-0.163
Mof_C 	C 	0.8212	0.5093	0.26567	0.111
Mof_C 	C 	0.8879	0.554	0.19403	-0.063
Mof_H 	H 	0.8798	0.5439	0.151	0.085
Mof_C 	C 	0.9625	0.6114	0.1996	-0.086
Mof_H 	H 	0.0167	0.6488	0.1611	0.1
Mof_C 	C 	0.9462	0.6069	0.27508	0.12
Mof_C 	C 	0.0126	0.6533	0.30529	-0.176
Mof_C 	C 	0.9825	0.655	0.3765	0.117
Mof_C 	C 	0.0364	0.7109	0.4062	-0.096
Mof_H 	H 	0.1055	0.7442	0.3821	0.068
Mof_C 	C 	0.9723	0.7093	0.4762	-0.097
Mof_H 	H 	0.9865	0.7426	0.5075	0.06
Mof_C 	C 	0.8777	0.6445	0.49046	0.106
Mof_C 	C 	0.7923	0.6221	0.55724	-0.175
Mof_C 	C 	0.713	0.5503	0.57152	0.102
Mof_C 	C 	0.6329	0.5136	0.64128	-0.075
Mof_H 	H 	0.618	0.5398	0.6818	0.062
Mof_C 	C 	0.5855	0.437	0.63688	-0.091
Mof_H 	H 	0.5302	0.3995	0.6745	0.064
Mof_C 	C 	0.63	0.4189	0.56674	0.1
Mof_C 	C 	0.6032	0.3387	0.54376	-0.165
Mof_C 	C 	0.6379	0.3332	0.47131	0.104
Mof_C 	C 	0.6023	0.2668	0.4426	-0.081
Mof_H 	H 	0.5602	0.2106	0.4696	0.067
Mof_C 	C 	0.6363	0.2942	0.3719	-0.091
Mof_H 	H 	0.6205	0.262	0.3404	0.079
Mof_C 	C 	0.7009	0.3807	0.3507	0.117
Mof_C 	C 	0.7285	0.4005	0.21928	0.164
Mof_C 	C 	0.7906	0.3076	0.20256	-0.201
Mof_H 	H 	0.8437	0.2601	0.2321	0.127
Mof_C 	C 	0.7764	0.2829	0.1432	0.129
Mof_H 	H 	0.8187	0.2181	0.1338	0.024
Mof_C 	C 	0.7013	0.3512	0.09718	-0.16
Mof_C 	C 	0.6424	0.4453	0.1119	0.107
Mof_H 	H 	0.5969	0.4953	0.0791	0.04
Mof_C 	C 	0.6478	0.4697	0.175	-0.187
Mof_H 	H 	0.5985	0.531	0.1871	0.115
Mof_C 	C 	0.116	0.7042	0.25434	0.203
Mof_C 	C 	0.2206	0.645	0.2208	-0.25
Mof_H 	H 	0.2198	0.5733	0.2284	0.129
Mof_C 	C 	0.3229	0.6825	0.1783	0.175
Mof_H 	H 	0.3906	0.6376	0.1576	-0.009
Mof_C 	C 	0.3271	0.7893	0.1652	-0.199
Mof_C 	C 	0.2224	0.8537	0.1973	0.138
Mof_H 	H 	0.2232	0.9256	0.1891	0.02
Mof_C 	C 	0.1152	0.8107	0.2423	-0.22
Mof_H 	H 	0.0456	0.8538	0.2632	0.137
Mof_C 	C 	0.79	0.6718	0.61422	0.189
Mof_C 	C 	0.8905	0.6458	0.64863	-0.232
Mof_H 	H 	0.9574	0.593	0.6367	0.079
Mof_C 	C 	0.8967	0.6928	0.6985	0.162
Mof_H 	H 	0.9686	0.675	0.7181	-0.015
Mof_C 	C 	0.7964	0.7675	0.7205	-0.227
Mof_C 	C 	0.6891	0.7873	0.693	0.167
Mof_H 	H 	0.6176	0.8329	0.7096	-0.008
Mof_C 	C 	0.688	0.7392	0.6409	-0.242
Mof_H 	H 	0.6147	0.7532	0.6231	0.123
Mof_C 	C 	0.5367	0.2579	0.59808	0.146
Mof_C 	C 	0.5942	0.1842	0.6519	-0.194
Mof_H 	H 	0.6752	0.188	0.6539	0.108
Mof_C 	C 	0.5346	0.1051	0.7026	0.125
Mof_H 	H 	0.5767	0.055	0.737	0.016
Mof_C 	C 	0.4163	0.1005	0.7021	-0.16
Mof_C 	C 	0.3535	0.1733	0.6529	0.096
Mof_H 	H 	0.2709	0.1703	0.6534	0.009
Mof_C 	C 	0.4135	0.2527	0.6015	-0.187
Mof_H 	H 	0.3692	0.3037	0.5685	0.048
Mof_Tb	Tb	0.49872	0.11545	0.08896	0.697
Mof_Tb	Tb	0.4709	0.15059	0.08564	0.556
Mof_S 	S 	0.418	0.8948	0.0862	0.246
Mof_Tb	Tb	0.50726	0.89673	0.92194	0.629
Mof_Co	Co	0.21381	0.48549	0.5787	1.114
Mof_S 	S 	0.29975	0.67975	0.98247	0.545
Mof_S 	S 	0.53157	0.16998	0.88177	0.502
Mof_S 	S 	0.19511	0.16562	0.21728	0.729
Mof_S 	S 	0.65514	0.00975	0.23916	0.593
Mof_O 	O 	0.3343	0.7873	0.9573	-0.384
Mof_O 	O 	0.3908	0.5966	0.01824	-0.236
Mof_O 	O 	0.1716	0.6847	0.02691	-0.23
Mof_O 	O 	0.5293	0.1635	0.95647	-0.482
Mof_O 	O 	0.4249	0.2375	0.8585	-0.248
Mof_O 	O 	0.549	0.056	0.87668	-0.47
Mof_O 	O 	0.1408	0.0838	0.2569	-0.336
Mof_O 	O 	0.124	0.2427	0.1652	-0.281
Mof_O 	O 	0.3217	0.1271	0.1846	-0.474
Mof_O 	O 	0.6186	0.0926	0.2839	-0.261
Mof_O 	O 	0.7869	0.9733	0.2215	-0.261
Mof_O 	O 	0.5965	0.047	0.17757	-0.452
Mof_O 	O 	0.3234	0.0032	0.9619	-0.217
Mof_O 	O 	0.596	0.7018	0.9483	-0.301
Mof_O 	O 	0.6983	0.8891	0.95356	-0.229
Mof_N 	N 	0.2987	0.593	0.5861	-0.282
Mof_N 	N 	0.1444	0.4551	0.68418	-0.284
Mof_N 	N 	0.1151	0.3888	0.5696	-0.285
Mof_N 	N 	0.2916	0.509	0.47537	-0.284
Mof_C 	C 	0.2533	0.5663	0.71758	-0.163
Mof_C 	C 	0.1788	0.4907	0.73433	0.111
Mof_C 	C 	0.1121	0.446	0.80597	-0.063
Mof_H 	H 	0.1202	0.4561	0.849	0.085
Mof_C 	C 	0.0375	0.3886	0.8004	-0.086
Mof_H 	H 	0.9833	0.3512	0.8389	0.1
Mof_C 	C 	0.0538	0.3931	0.72492	0.12
Mof_C 	C 	0.9874	0.3467	0.69471	-0.176
Mof_C 	C 	0.0175	0.345	0.6235	0.117
Mof_C 	C 	0.9636	0.2891	0.5938	-0.096
Mof_H 	H 	0.8945	0.2558	0.6179	0.068
Mof_C 	C 	0.0277	0.2907	0.5238	-0.097
Mof_H 	H 	0.0135	0.2574	0.4925	0.06
Mof_C 	C 	0.1223	0.3555	0.50954	0.106
Mof_C 	C 	0.2077	0.3779	0.44276	-0.175
Mof_C 	C 	0.287	0.4497	0.42848	0.102
Mof_C 	C 	0.3671	0.4864	0.35872	-0.075
Mof_H 	H 	0.382	0.4602	0.3182	0.062
Mof_C 	C 	0.4145	0.563	0.36312	-0.091
Mof_H 	H 	0.4698	0.6005	0.3255	0.064
Mof_C 	C 	0.37	0.5811	0.43326	0.1
Mof_C 	C 	0.3968	0.6613	0.45624	-0.165
Mof_C 	C 	0.3621	0.6668	0.52869	0.104
Mof_C 	C 	0.3977	0.7332	0.5574	-0.081
Mof_H 	H 	0.4398	0.7894	0.5304	0.067
Mof_C 	C 	0.3637	0.7058	0.6281	-0.091
Mof_H 	H 	0.3795	0.738	0.6596	0.079
Mof_C 	C 	0.2991	0.6193	0.6493	0.117
Mof_C 	C 	0.2715	0.5995	0.78072	0.164
Mof_C 	C 	0.2094	0.6924	0.79744	-0.201
Mof_H 	H 	0.1563	0.7399	0.7679	0.127
Mof_C 	C 	0.2236	0.7171	0.8568	0.129
Mof_H 	H 	0.1813	0.7819	0.8662	0.024
Mof_C 	C 	0.2987	0.6488	0.90282	-0.16
Mof_C 	C 	0.3576	0.5547	0.8881	0.107
Mof_H 	H 	0.4031	0.5047	0.9209	0.04
Mof_C 	C 	0.3522	0.5303	0.825	-0.187
Mof_H 	H 	0.4015	0.469	0.8129	0.115
Mof_C 	C 	0.884	0.2958	0.74566	0.203
Mof_C 	C 	0.7794	0.355	0.7792	-0.25
Mof_H 	H 	0.7802	0.4267	0.7716	0.129
Mof_C 	C 	0.6771	0.3175	0.8217	0.175
Mof_H 	H 	0.6094	0.3624	0.8424	-0.009
Mof_C 	C 	0.6729	0.2107	0.8348	-0.199
Mof_C 	C 	0.7776	0.1463	0.8027	0.138
Mof_H 	H 	0.7768	0.0744	0.8109	0.02
Mof_C 	C 	0.8848	0.1893	0.7577	-0.22
Mof_H 	H 	0.9544	0.1462	0.7368	0.137
Mof_C 	C 	0.21	0.3282	0.38578	0.189
Mof_C 	C 	0.1095	0.3542	0.35137	-0.232
Mof_H 	H 	0.0426	0.407	0.3633	0.079
Mof_C 	C 	0.1033	0.3072	0.3015	0.162
Mof_H 	H 	0.0314	0.325	0.2819	-0.015
Mof_C 	C 	0.2036	0.2325	0.2795	-0.227
Mof_C 	C 	0.3109	0.2127	0.307	0.167
Mof_H 	H 	0.3824	0.1671	0.2904	-0.008
Mof_C 	C 	0.312	0.2608	0.3591	-0.242
Mof_H 	H 	0.3853	0.2468	0.3769	0.123
Mof_C 	C 	0.4633	0.7421	0.40192	0.146
Mof_C 	C 	0.4058	0.8158	0.3481	-0.194
Mof_H 	H 	0.3248	0.812	0.3461	0.108
Mof_C 	C 	0.4654	0.8949	0.2974	0.125
Mof_H 	H 	0.4233	0.945	0.263	0.016
Mof_C 	C 	0.5837	0.8995	0.2979	-0.16
Mof_C 	C 	0.6465	0.8267	0.3471	0.096
Mof_H 	H 	0.7291	0.8297	0.3466	0.009
Mof_C 	C 	0.5865	0.7473	0.3985	-0.187
Mof_H 	H 	0.6308	0.6963	0.4315	0.048
Mof_Tb	Tb	0.50128	0.88455	0.91104	0.697
Mof_Tb	Tb	0.5291	0.84941	0.91436	0.556
Mof_S 	S 	0.582	0.1052	0.9138	0.246
_end
