# CIF file generated by openbabel 3.1.0, see https://openbabel.org
data_I
_chemical_name_common 'image0'
_cell_length_a 6.2924
_cell_length_b 8.6702
_cell_length_c 12.9527
_cell_angle_alpha 105.432
_cell_angle_beta 90.451
_cell_angle_gamma 105.118
_space_group_name_H-M_alt 'P 1'
_space_group_name_Hall 'P 1'
loop_
    _symmetry_equiv_pos_as_xyz
    x,y,z
loop_
    _atom_site_label
    _atom_site_type_symbol
    _atom_site_fract_x
    _atom_site_fract_y
    _atom_site_fract_z
    _atom_site_occupancy
    C1       C        0.94560    0.55190    0.04580    1.000
    C2       C        0.40520    0.42050    0.47950    1.000
    C3       C        0.26570    0.10450    0.78050    1.000
    Eu1      Eu       0.44137    0.47133    0.74264    1.000
    Eu2      Eu       0.19080    0.83336    0.92483    1.000
    O1       O        0.51250    0.76920    0.83950    1.000
    O2       O        0.79750    0.66900    0.83870    1.000
    O3       O        0.83970    0.93190    0.92450    1.000
    O4       O        0.36060    0.37140    0.38060    1.000
    O5       O        0.31400    0.35080    0.54640    1.000
    O6       O        0.16510    0.96040    0.77700    1.000
    O7       O        0.23370    0.18350    0.71680    1.000
    O8       O        0.55750    0.34110    0.87360    1.000
    O9       O        0.49420    0.11600    0.93350    1.000
    C4       C        0.71690    0.79270    0.86870    1.000
    C5       C        0.45650    0.19670    0.87110    1.000
    O10      O        0.98020    0.70210    0.05540    1.000
    O11      O        0.14070    0.60160    0.70520    1.000
    H1       H        0.16500    0.71110    0.67490    1.000
    H2       H        0.13320    0.64610    0.79080    1.000
    O12      O        0.73220    0.32860    0.66170    1.000
    H3       H        0.60980    0.27940    0.65990    1.000
    H4       H        0.76920    0.32480    0.60230    1.000
    O13      O        0.82670    0.47150    0.10320    1.000
    C6       C        0.05440    0.44810    0.95420    1.000
    C7       C        0.59480    0.57950    0.52050    1.000
    C8       C        0.73430    0.89550    0.21950    1.000
    Eu3      Eu       0.55863    0.52867    0.25736    1.000
    Eu4      Eu       0.80920    0.16664    0.07517    1.000
    O14      O        0.48750    0.23080    0.16050    1.000
    O15      O        0.20250    0.33100    0.16130    1.000
    O16      O        0.16030    0.06810    0.07550    1.000
    O17      O        0.63940    0.62860    0.61940    1.000
    O18      O        0.68600    0.64920    0.45360    1.000
    O19      O        0.83490    0.03960    0.22300    1.000
    O20      O        0.76630    0.81650    0.28320    1.000
    O21      O        0.44250    0.65890    0.12640    1.000
    O22      O        0.50580    0.88400    0.06650    1.000
    C9       C        0.28310    0.20730    0.13130    1.000
    C10      C        0.54350    0.80330    0.12890    1.000
    O23      O        0.01980    0.29790    0.94460    1.000
    O24      O        0.85930    0.39840    0.29480    1.000
    H5       H        0.83500    0.28890    0.32510    1.000
    H6       H        0.86680    0.35390    0.20920    1.000
    O25      O        0.26780    0.67140    0.33830    1.000
    H7       H        0.39020    0.72060    0.34010    1.000
    H8       H        0.23080    0.67520    0.39770    1.000
    O26      O        0.17330    0.52850    0.89680    1.000
