# CIF file generated by openbabel 3.1.0, see https://openbabel.org
data_I
_chemical_name_common 'POHLOP_clean'
_cell_length_a 8.821
_cell_length_b 9.288
_cell_length_c 18.955
_cell_angle_alpha 90
_cell_angle_beta 90
_cell_angle_gamma 109.557
_space_group_name_H-M_alt 'P 1'
_space_group_name_Hall 'P 1'
loop_
    _symmetry_equiv_pos_as_xyz
    x,y,z
loop_
    _atom_site_label
    _atom_site_type_symbol
    _atom_site_fract_x
    _atom_site_fract_y
    _atom_site_fract_z
    _atom_site_occupancy
    Eu1      Eu       0.28973    0.51552    0.94679    1.000
    Eu2      Eu       0.71027    0.98448    0.44679    1.000
    Eu3      Eu       0.28973    0.01552    0.55321    1.000
    Eu4      Eu       0.71027    0.48448    0.05321    1.000
    H1       H        0.29770    0.05860    0.05900    1.000
    H2       H        0.91390    0.42150    0.78970    1.000
    H3       H        0.24480    0.66910    0.30770    1.000
    H4       H        0.70230    0.44140    0.55900    1.000
    H5       H        0.56160    0.98260    0.18650    1.000
    H6       H        0.29770    0.55860    0.44100    1.000
    H7       H        0.08610    0.07850    0.28970    1.000
    H8       H        0.91390    0.92150    0.71030    1.000
    H9       H        0.70230    0.94140    0.94100    1.000
    H10      H        0.75520    0.33090    0.69230    1.000
    H11      H        0.43840    0.51740    0.68650    1.000
    H12      H        0.24480    0.16910    0.19230    1.000
    H13      H        0.43840    0.01740    0.81350    1.000
    H14      H        0.56160    0.48260    0.31350    1.000
    H15      H        0.75520    0.83090    0.80770    1.000
    H16      H        0.08610    0.57850    0.21030    1.000
    C1       C        0.72410    0.28550    0.73610    1.000
    C2       C        0.39440    0.74490    0.54890    1.000
    C3       C        0.53430    0.09870    0.80890    1.000
    C4       C        0.58240    0.16220    0.74270    1.000
    C5       C        0.56630    0.07820    0.93810    1.000
    C6       C        0.11630    0.16050    0.42260    1.000
    C7       C        0.41760    0.83780    0.25730    1.000
    C8       C        0.22840    0.22500    0.36110    1.000
    C9       C        0.27590    0.71450    0.26390    1.000
    C10      C        0.81810    0.84020    0.70550    1.000
    C11      C        0.44490    0.11170    0.97420    1.000
    C12      C        0.27590    0.21450    0.23610    1.000
    C13      C        0.62120    0.46540    0.53560    1.000
    C14      C        0.46570    0.40130    0.30890    1.000
    C15      C        0.39440    0.24490    0.95110    1.000
    C16      C        0.55510    0.88830    0.02580    1.000
    C17      C        0.51770    0.40050    0.17810    1.000
    C18      C        0.37350    0.84560    0.13240    1.000
    C19      C        0.43370    0.92180    0.06190    1.000
    C20      C        0.62120    0.96540    0.96440    1.000
    C21      C        0.18190    0.65980    0.20550    1.000
    C22      C        0.72410    0.78550    0.76390    1.000
    C23      C        0.81810    0.34020    0.79450    1.000
    C24      C        0.44490    0.61170    0.52580    1.000
    C25      C        0.88370    0.33950    0.92260    1.000
    C26      C        0.60560    0.25510    0.45110    1.000
    C27      C        0.37880    0.03460    0.03560    1.000
    C28      C        0.48230    0.59950    0.82190    1.000
    C29      C        0.77160    0.77500    0.63890    1.000
    C30      C        0.60560    0.75510    0.04890    1.000
    C31      C        0.37880    0.53460    0.46440    1.000
    C32      C        0.62650    0.15440    0.86760    1.000
    C33      C        0.77160    0.27500    0.86110    1.000
    C34      C        0.11630    0.66050    0.07740    1.000
    C35      C        0.48230    0.09950    0.67810    1.000
    C36      C        0.22840    0.72500    0.13890    1.000
    C37      C        0.62650    0.65440    0.63240    1.000
    C38      C        0.43370    0.42180    0.43810    1.000
    C39      C        0.51770    0.90050    0.32190    1.000
    C40      C        0.56630    0.57820    0.56190    1.000
    C41      C        0.46570    0.90130    0.19110    1.000
    C42      C        0.53430    0.59870    0.69110    1.000
    C43      C        0.18190    0.15980    0.29450    1.000
    C44      C        0.41760    0.33780    0.24270    1.000
    C45      C        0.55510    0.38830    0.47420    1.000
    C46      C        0.88370    0.83950    0.57740    1.000
    C47      C        0.58240    0.66220    0.75730    1.000
    C48      C        0.37350    0.34560    0.36760    1.000
    O1       O        0.49430    0.87880    0.53620    1.000
    O2       O        0.26090    0.22770    0.92510    1.000
    O3       O        0.73910    0.77230    0.07490    1.000
    O4       O        0.53720    0.15520    0.61871    1.000
    O5       O        0.46280    0.84480    0.38129    1.000
    O6       O        0.17500    0.66160    0.01700    1.000
    O7       O        0.17500    0.16160    0.48300    1.000
    O8       O        0.96890    0.61290    0.09150    1.000
    O9       O        0.34810    0.99740    0.68280    1.000
    O10      O        0.46280    0.34480    0.11871    1.000
    O11      O        0.50570    0.12120    0.46380    1.000
    O12      O        0.82500    0.33840    0.98300    1.000
    O13      O        0.49430    0.37880    0.96380    1.000
    O14      O        0.82500    0.83840    0.51700    1.000
    O15      O        0.03110    0.38710    0.90850    1.000
    O16      O        0.26090    0.72770    0.57490    1.000
    O17      O        0.96890    0.11290    0.40850    1.000
    O18      O        0.65190    0.00260    0.31720    1.000
    O19      O        0.34810    0.49740    0.81720    1.000
    O20      O        0.65190    0.50260    0.18280    1.000
    O21      O        0.50570    0.62120    0.03620    1.000
    O22      O        0.73910    0.27230    0.42510    1.000
    O23      O        0.53720    0.65520    0.88129    1.000
    O24      O        0.03110    0.88710    0.59150    1.000
