data_functionalizedCrystal
_audit_creation_method	'EQeq! by Chris Wilmer'
_symmetry_space_group_name_H-M	'P1'
_symmetry_Int_Tables_number	1
_symmetry_cell_setting	triclinic
loop_
_symmetry_equiv_pos_as_xyz
  x,y,z
_cell_length_a	18.6233
_cell_length_b	18.6233
_cell_length_c	18.6233
_cell_angle_alpha	90
_cell_angle_beta	90
_cell_angle_gamma	90
loop_
_atom_site_label
_atom_site_type_symbol
_atom_site_fract_x
_atom_site_fract_y
_atom_site_fract_z
_atom_site_charge
Mof_N 	N 	0.36899	0.17389	0.08854	-0.116
Mof_N 	N 	0.42462	0.12873	0.07781	-0.189
Mof_N 	N 	0.63101	0.82611	0.08854	-0.109
Mof_N 	N 	0.57538	0.87127	0.07781	-0.177
Mof_N 	N 	0.63101	0.17389	0.91146	-0.081
Mof_N 	N 	0.57538	0.12873	0.92219	-0.15
Mof_N 	N 	0.36899	0.82611	0.91146	-0.078
Mof_N 	N 	0.42462	0.87127	0.92219	-0.139
Mof_N 	N 	0.08854	0.36899	0.17389	-0.116
Mof_N 	N 	0.07781	0.42462	0.12873	-0.189
Mof_N 	N 	0.08854	0.63101	0.82611	-0.109
Mof_N 	N 	0.07781	0.57538	0.87127	-0.177
Mof_N 	N 	0.91146	0.63101	0.17389	-0.081
Mof_N 	N 	0.92219	0.57538	0.12873	-0.15
Mof_N 	N 	0.91146	0.36899	0.82611	-0.078
Mof_N 	N 	0.92219	0.42462	0.87127	-0.138
Mof_N 	N 	0.17389	0.08854	0.36899	-0.115
Mof_N 	N 	0.12873	0.07781	0.42462	-0.188
Mof_N 	N 	0.82611	0.08854	0.63101	-0.108
Mof_N 	N 	0.87127	0.07781	0.57538	-0.176
Mof_N 	N 	0.17389	0.91146	0.63101	-0.08
Mof_N 	N 	0.12873	0.92219	0.57538	-0.149
Mof_N 	N 	0.82611	0.91146	0.36899	-0.077
Mof_N 	N 	0.87127	0.92219	0.42462	-0.138
Mof_N 	N 	0.17389	0.36899	0.91146	-0.082
Mof_N 	N 	0.12873	0.42462	0.92219	-0.149
Mof_N 	N 	0.82611	0.63101	0.91146	-0.075
Mof_N 	N 	0.87127	0.57538	0.92219	-0.137
Mof_N 	N 	0.17389	0.63101	0.08854	-0.114
Mof_N 	N 	0.12873	0.57538	0.07781	-0.188
Mof_N 	N 	0.82611	0.36899	0.08854	-0.11
Mof_N 	N 	0.87127	0.42462	0.07781	-0.177
Mof_N 	N 	0.36899	0.08854	0.82611	-0.11
Mof_N 	N 	0.42462	0.07781	0.87127	-0.177
Mof_N 	N 	0.63101	0.08854	0.17389	-0.114
Mof_N 	N 	0.57538	0.07781	0.12873	-0.188
Mof_N 	N 	0.63101	0.91146	0.82611	-0.075
Mof_N 	N 	0.57538	0.92219	0.87127	-0.137
Mof_N 	N 	0.36899	0.91146	0.17389	-0.082
Mof_N 	N 	0.42462	0.92219	0.12873	-0.149
Mof_N 	N 	0.08854	0.17389	0.63101	-0.114
Mof_N 	N 	0.07781	0.12873	0.57538	-0.188
Mof_N 	N 	0.08854	0.82611	0.36899	-0.11
Mof_N 	N 	0.07781	0.87127	0.42462	-0.177
Mof_N 	N 	0.91146	0.17389	0.36899	-0.082
Mof_N 	N 	0.92219	0.12873	0.42462	-0.149
Mof_N 	N 	0.91146	0.82611	0.63101	-0.075
Mof_N 	N 	0.92219	0.87127	0.57538	-0.137
Mof_N 	N 	0.63101	0.82611	0.91146	-0.075
Mof_N 	N 	0.57538	0.87127	0.92219	-0.137
Mof_N 	N 	0.36899	0.17389	0.91146	-0.082
Mof_N 	N 	0.42462	0.12873	0.92219	-0.149
Mof_N 	N 	0.36899	0.82611	0.08854	-0.11
Mof_N 	N 	0.42462	0.87127	0.07781	-0.177
Mof_N 	N 	0.63101	0.17389	0.08854	-0.114
Mof_N 	N 	0.57538	0.12873	0.07781	-0.188
Mof_N 	N 	0.91146	0.63101	0.82611	-0.075
Mof_N 	N 	0.92219	0.57538	0.87127	-0.137
Mof_N 	N 	0.91146	0.36899	0.17389	-0.082
Mof_N 	N 	0.92219	0.42462	0.12873	-0.149
Mof_N 	N 	0.08854	0.36899	0.82611	-0.11
Mof_N 	N 	0.07781	0.42462	0.87127	-0.177
Mof_N 	N 	0.08854	0.63101	0.17389	-0.114
Mof_N 	N 	0.07781	0.57538	0.12873	-0.188
Mof_N 	N 	0.82611	0.91146	0.63101	-0.075
Mof_N 	N 	0.87127	0.92219	0.57538	-0.137
Mof_N 	N 	0.17389	0.91146	0.36899	-0.082
Mof_N 	N 	0.12873	0.92219	0.42462	-0.149
Mof_N 	N 	0.82611	0.08854	0.36899	-0.11
Mof_N 	N 	0.87127	0.07781	0.42462	-0.177
Mof_N 	N 	0.17389	0.08854	0.63101	-0.114
Mof_N 	N 	0.12873	0.07781	0.57538	-0.188
Mof_N 	N 	0.82611	0.63101	0.08854	-0.108
Mof_N 	N 	0.87127	0.57538	0.07781	-0.176
Mof_N 	N 	0.17389	0.36899	0.08854	-0.115
Mof_N 	N 	0.12873	0.42462	0.07781	-0.188
Mof_N 	N 	0.82611	0.36899	0.91146	-0.077
Mof_N 	N 	0.87127	0.42462	0.92219	-0.138
Mof_N 	N 	0.17389	0.63101	0.91146	-0.08
Mof_N 	N 	0.12873	0.57538	0.92219	-0.149
Mof_N 	N 	0.63101	0.91146	0.17389	-0.08
Mof_N 	N 	0.57538	0.92219	0.12873	-0.149
Mof_N 	N 	0.36899	0.91146	0.82611	-0.077
Mof_N 	N 	0.42462	0.92219	0.87127	-0.138
Mof_N 	N 	0.36899	0.08854	0.17389	-0.115
Mof_N 	N 	0.42462	0.07781	0.12873	-0.188
Mof_N 	N 	0.63101	0.08854	0.82611	-0.108
Mof_N 	N 	0.57538	0.07781	0.87127	-0.176
Mof_N 	N 	0.91146	0.82611	0.36899	-0.077
Mof_N 	N 	0.92219	0.87127	0.42462	-0.138
Mof_N 	N 	0.91146	0.17389	0.63101	-0.08
Mof_N 	N 	0.92219	0.12873	0.57538	-0.149
Mof_N 	N 	0.08854	0.82611	0.63101	-0.108
Mof_N 	N 	0.07781	0.87127	0.57538	-0.176
Mof_N 	N 	0.08854	0.17389	0.36899	-0.115
Mof_N 	N 	0.07781	0.12873	0.42462	-0.188
Mof_Cu	Cu	0.5	0.13144	-0	0.782
Mof_Cu	Cu	0.5	0.86856	-0	0.798
Mof_Cu	Cu	-4.39247e-33	0.5	0.13144	0.782
Mof_Cu	Cu	-4.55989e-33	0.5	0.86856	0.798
Mof_Cu	Cu	0.13144	0	0.5	0.782
Mof_Cu	Cu	0.86856	0	0.5	0.798
Mof_Cu	Cu	0.13144	0.5	-0	0.782
Mof_Cu	Cu	0.86856	0.5	-0	0.798
Mof_Cu	Cu	0.5	0	0.86856	0.798
Mof_Cu	Cu	0.5	0	0.13144	0.782
Mof_Cu	Cu	-5.94177e-33	0.13144	0.5	0.782
Mof_Cu	Cu	-2.03353e-33	0.86856	0.5	0.798
Mof_C 	C 	0.2402	0.2402	0.1483	-0.085
Mof_H 	H 	0.2604	0.2604	0.1073	0.055
Mof_C 	C 	0.7598	0.7598	0.1483	-0.091
Mof_H 	H 	0.7396	0.7396	0.1073	0.066
Mof_C 	C 	0.7598	0.2402	0.8517	-0.092
Mof_H 	H 	0.7396	0.2604	0.8927	0.095
Mof_C 	C 	0.2402	0.7598	0.8517	-0.092
Mof_H 	H 	0.2604	0.7396	0.8927	0.095
Mof_C 	C 	0.1483	0.2402	0.2402	-0.085
Mof_H 	H 	0.1073	0.2604	0.2604	0.055
Mof_C 	C 	0.1483	0.7598	0.7598	-0.091
Mof_H 	H 	0.1073	0.7396	0.7396	0.066
Mof_C 	C 	0.8517	0.7598	0.2402	-0.092
Mof_H 	H 	0.8927	0.7396	0.2604	0.095
Mof_C 	C 	0.8517	0.2402	0.7598	-0.092
Mof_H 	H 	0.8927	0.2604	0.7396	0.095
Mof_C 	C 	0.2402	0.1483	0.2402	-0.085
Mof_H 	H 	0.2604	0.1073	0.2604	0.055
Mof_C 	C 	0.7598	0.1483	0.7598	-0.091
Mof_H 	H 	0.7396	0.1073	0.7396	0.066
Mof_C 	C 	0.2402	0.8517	0.7598	-0.092
Mof_H 	H 	0.2604	0.8927	0.7396	0.095
Mof_C 	C 	0.7598	0.8517	0.2402	-0.092
Mof_H 	H 	0.7396	0.8927	0.2604	0.095
Mof_C 	C 	0.2402	0.2402	0.8517	-0.089
Mof_H 	H 	0.2604	0.2604	0.8927	0.089
Mof_C 	C 	0.7598	0.7598	0.8517	-0.095
Mof_H 	H 	0.7396	0.7396	0.8927	0.1
Mof_C 	C 	0.2402	0.7598	0.1483	-0.088
Mof_H 	H 	0.2604	0.7396	0.1073	0.06
Mof_C 	C 	0.7598	0.2402	0.1483	-0.088
Mof_H 	H 	0.7396	0.2604	0.1073	0.06
Mof_C 	C 	0.2402	0.1483	0.7598	-0.088
Mof_H 	H 	0.2604	0.1073	0.7396	0.06
Mof_C 	C 	0.7598	0.1483	0.2402	-0.088
Mof_H 	H 	0.7396	0.1073	0.2604	0.06
Mof_C 	C 	0.7598	0.8517	0.7598	-0.095
Mof_H 	H 	0.7396	0.8927	0.7396	0.1
Mof_C 	C 	0.2402	0.8517	0.2402	-0.089
Mof_H 	H 	0.2604	0.8927	0.2604	0.089
Mof_C 	C 	0.1483	0.2402	0.7598	-0.088
Mof_H 	H 	0.1073	0.2604	0.7396	0.06
Mof_C 	C 	0.1483	0.7598	0.2402	-0.088
Mof_H 	H 	0.1073	0.7396	0.2604	0.06
Mof_C 	C 	0.8517	0.2402	0.2402	-0.089
Mof_H 	H 	0.8927	0.2604	0.2604	0.089
Mof_C 	C 	0.8517	0.7598	0.7598	-0.095
Mof_H 	H 	0.8927	0.7396	0.7396	0.1
Mof_C 	C 	0.2709	0.1792	0.1792	0.007
Mof_C 	C 	0.3362	0.1471	0.1471	0.09
Mof_C 	C 	0.7291	0.8208	0.1792	0.037
Mof_C 	C 	0.6638	0.8529	0.1471	0.103
Mof_C 	C 	0.7291	0.1792	0.8208	0.037
Mof_C 	C 	0.6638	0.1471	0.8529	0.103
Mof_C 	C 	0.2709	0.8208	0.8208	0.047
Mof_C 	C 	0.3362	0.8529	0.8529	0.112
Mof_C 	C 	0.1792	0.2709	0.1792	0.007
Mof_C 	C 	0.1471	0.3362	0.1471	0.09
Mof_C 	C 	0.1792	0.7291	0.8208	0.037
Mof_C 	C 	0.1471	0.6638	0.8529	0.103
Mof_C 	C 	0.8208	0.7291	0.1792	0.037
Mof_C 	C 	0.8529	0.6638	0.1471	0.103
Mof_C 	C 	0.8208	0.2709	0.8208	0.047
Mof_C 	C 	0.8529	0.3362	0.8529	0.112
Mof_C 	C 	0.1792	0.1792	0.2709	0.007
Mof_C 	C 	0.1471	0.1471	0.3362	0.09
Mof_C 	C 	0.8208	0.1792	0.7291	0.037
Mof_C 	C 	0.8529	0.1471	0.6638	0.103
Mof_C 	C 	0.1792	0.8208	0.7291	0.037
Mof_C 	C 	0.1471	0.8529	0.6638	0.103
Mof_C 	C 	0.8208	0.8208	0.2709	0.047
Mof_C 	C 	0.8529	0.8529	0.3362	0.112
Mof_C 	C 	0.1792	0.2709	0.8208	0.027
Mof_C 	C 	0.1471	0.3362	0.8529	0.101
Mof_C 	C 	0.8208	0.7291	0.8208	0.057
Mof_C 	C 	0.8529	0.6638	0.8529	0.114
Mof_C 	C 	0.1792	0.7291	0.1792	0.017
Mof_C 	C 	0.1471	0.6638	0.1471	0.091
Mof_C 	C 	0.8208	0.2709	0.1792	0.027
Mof_C 	C 	0.8529	0.3362	0.1471	0.101
Mof_C 	C 	0.2709	0.1792	0.8208	0.027
Mof_C 	C 	0.3362	0.1471	0.8529	0.101
Mof_C 	C 	0.7291	0.1792	0.1792	0.017
Mof_C 	C 	0.6638	0.1471	0.1471	0.091
Mof_C 	C 	0.7291	0.8208	0.8208	0.057
Mof_C 	C 	0.6638	0.8529	0.8529	0.114
Mof_C 	C 	0.2709	0.8208	0.1792	0.027
Mof_C 	C 	0.3362	0.8529	0.1471	0.101
Mof_C 	C 	0.1792	0.1792	0.7291	0.017
Mof_C 	C 	0.1471	0.1471	0.6638	0.091
Mof_C 	C 	0.1792	0.8208	0.2709	0.027
Mof_C 	C 	0.1471	0.8529	0.3362	0.101
Mof_C 	C 	0.8208	0.1792	0.2709	0.027
Mof_C 	C 	0.8529	0.1471	0.3362	0.101
Mof_C 	C 	0.8208	0.8208	0.7291	0.057
Mof_C 	C 	0.8529	0.8529	0.6638	0.114
_end
