data_functionalizedCrystal
_audit_creation_method	'EQeq! by Chris Wilmer'
_symmetry_space_group_name_H-M	'P1'
_symmetry_Int_Tables_number	1
_symmetry_cell_setting	triclinic
loop_
_symmetry_equiv_pos_as_xyz
  x,y,z
_cell_length_a	7.6575
_cell_length_b	10.477
_cell_length_c	30.456
_cell_angle_alpha	99.06
_cell_angle_beta	90
_cell_angle_gamma	90
loop_
_atom_site_label
_atom_site_type_symbol
_atom_site_fract_x
_atom_site_fract_y
_atom_site_fract_z
_atom_site_charge
Mof_Pr	Pr	0.37153	0.55207	0.76821	2.713
Mof_Pr	Pr	0.87153	0.44793	0.73179	2.763
Mof_Pr	Pr	0.62847	0.44793	0.23179	2.733
Mof_Pr	Pr	0.12847	0.55207	0.26821	2.699
Mof_Co	Co	0.44581	0.71354	0.13005	1.156
Mof_Co	Co	0.94581	0.28646	0.36995	1.162
Mof_Co	Co	0.55419	0.28646	0.86995	1.156
Mof_Co	Co	0.05419	0.71354	0.63005	1.149
Mof_Co	Co	0.5	0	-0	1.133
Mof_Co	Co	2.87699e-32	-4.71157e-17	0.5	1.135
Mof_H 	H 	0.5562	0.7564	0.9183	0.058
Mof_H 	H 	0.1502	0.7983	0.878	0.083
Mof_H 	H 	0.8777	0.1274	0.9856	0.027
Mof_H 	H 	0.8185	0.0771	0.2169	0.044
Mof_H 	H 	0.4249	0.023	0.1861	0.077
Mof_H 	H 	0.0286	0.6888	0.1243	-0.009
Mof_H 	H 	0.1059	0.0356	0.938	0.113
Mof_H 	H 	0.8129	0.8338	0.1603	0.13
Mof_H 	H 	0.0562	0.2436	0.5817	0.047
Mof_H 	H 	0.6502	0.2017	0.622	0.055
Mof_H 	H 	0.3777	0.8726	0.5144	-0.029
Mof_H 	H 	0.3185	0.9229	0.2831	0.045
Mof_H 	H 	0.9249	0.977	0.3139	0.071
Mof_H 	H 	0.5286	0.3112	0.3757	-0.009
Mof_H 	H 	0.6059	0.9644	0.562	0.191
Mof_H 	H 	0.3129	0.1662	0.3397	0.119
Mof_H 	H 	0.4438	0.2436	0.0817	0.056
Mof_H 	H 	0.8498	0.2017	0.122	0.037
Mof_H 	H 	0.1223	0.8726	0.0144	-0.033
Mof_H 	H 	0.1815	0.9229	0.7831	0.073
Mof_H 	H 	0.5751	0.977	0.8139	0.055
Mof_H 	H 	0.9714	0.3112	0.8757	-0.008
Mof_H 	H 	0.8941	0.9644	0.062	0.187
Mof_H 	H 	0.1871	0.1662	0.8397	0.124
Mof_H 	H 	0.9438	0.7564	0.4183	0.071
Mof_H 	H 	0.3498	0.7983	0.378	0.058
Mof_H 	H 	0.6223	0.1274	0.4856	0.025
Mof_H 	H 	0.6815	0.0771	0.7169	0.062
Mof_H 	H 	0.0751	0.023	0.6861	0.064
Mof_H 	H 	0.4714	0.6888	0.6243	-0.009
Mof_H 	H 	0.3941	0.0356	0.438	0.105
Mof_H 	H 	0.6871	0.8338	0.6603	0.133
Mof_C 	C 	0.4703	0.7902	0.04455	0.206
Mof_C 	C 	0.5677	0.8949	0.07708	0.205
Mof_C 	C 	0.6516	0.5553	0.86153	0.49
Mof_C 	C 	0.755	0.6732	0.87945	-0.095
Mof_C 	C 	0.6753	0.7646	0.91047	-0.029
Mof_C 	C 	0.775	0.8692	0.92995	0.037
Mof_C 	C 	0.9492	0.882	0.9166	0.124
Mof_C 	C 	0.0315	0.7896	0.88606	-0.108
Mof_C 	C 	0.9327	0.6841	0.86779	-0.038
Mof_C 	C 	0.0137	0.5841	0.83363	0.461
Mof_C 	C 	0.8713	0.0476	0.96595	0.045
Mof_C 	C 	0.9988	0.2616	0.26694	0.467
Mof_C 	C 	0.0604	0.1567	0.23044	-0.123
Mof_C 	C 	0.9401	0.0661	0.21142	-0.063
Mof_C 	C 	0.0053	0.958	0.18393	0.08
Mof_C 	C 	0.1845	0.9388	0.17533	0.1
Mof_C 	C 	0.3039	0.0331	0.19267	-0.134
Mof_C 	C 	0.2419	0.1423	0.21984	-0.045
Mof_C 	C 	0.3689	0.2473	0.23495	0.411
Mof_C 	C 	0.0517	0.7707	0.14162	0.107
Mof_C 	C 	0.9703	0.2098	0.45545	0.215
Mof_C 	C 	0.0677	0.1051	0.42292	0.19
Mof_C 	C 	0.1516	0.4447	0.63847	0.486
Mof_C 	C 	0.255	0.3268	0.62055	-0.078
Mof_C 	C 	0.1753	0.2354	0.58953	-0.05
Mof_C 	C 	0.275	0.1308	0.57005	0.036
Mof_C 	C 	0.4492	0.118	0.5834	0.074
Mof_C 	C 	0.5315	0.2104	0.61394	-0.052
Mof_C 	C 	0.4327	0.3159	0.63221	-0.093
Mof_C 	C 	0.5137	0.4159	0.66637	0.507
Mof_C 	C 	0.3713	0.9524	0.53405	0.224
Mof_C 	C 	0.4988	0.7384	0.23306	0.436
Mof_C 	C 	0.5604	0.8433	0.26956	-0.091
Mof_C 	C 	0.4401	0.9339	0.28858	-0
Mof_C 	C 	0.5053	0.042	0.31607	0.033
Mof_C 	C 	0.6845	0.0612	0.32467	0.008
Mof_C 	C 	0.8039	0.9669	0.30733	-0.002
Mof_C 	C 	0.7419	0.8577	0.28016	-0.079
Mof_C 	C 	0.8689	0.7527	0.26505	0.443
Mof_C 	C 	0.5517	0.2293	0.35838	0.115
Mof_C 	C 	0.5297	0.2098	0.95545	0.197
Mof_C 	C 	0.4323	0.1051	0.92292	0.207
Mof_C 	C 	0.3484	0.4447	0.13847	0.475
Mof_C 	C 	0.245	0.3268	0.12055	-0.057
Mof_C 	C 	0.3247	0.2354	0.08953	-0.069
Mof_C 	C 	0.225	0.1308	0.07005	0.051
Mof_C 	C 	0.0508	0.118	0.0834	0.039
Mof_C 	C 	0.9685	0.2104	0.11394	-0.004
Mof_C 	C 	0.0673	0.3159	0.13221	-0.136
Mof_C 	C 	0.9863	0.4159	0.16637	0.539
Mof_C 	C 	0.1287	0.9524	0.03405	0.21
Mof_C 	C 	0.0012	0.7384	0.73306	0.375
Mof_C 	C 	0.9396	0.8433	0.76956	-0.019
Mof_C 	C 	0.0599	0.9339	0.78858	-0.088
Mof_C 	C 	0.9947	0.042	0.81607	0.091
Mof_C 	C 	0.8155	0.0612	0.82467	-0.02
Mof_C 	C 	0.6961	0.9669	0.80733	0.025
Mof_C 	C 	0.7581	0.8577	0.78016	-0.109
Mof_C 	C 	0.6311	0.7527	0.76505	0.441
Mof_C 	C 	0.9483	0.2293	0.85838	0.13
Mof_C 	C 	0.0297	0.7902	0.54455	0.184
Mof_C 	C 	0.9323	0.8949	0.57708	0.227
Mof_C 	C 	0.8484	0.5553	0.36153	0.478
Mof_C 	C 	0.745	0.6732	0.37945	-0.064
Mof_C 	C 	0.8247	0.7646	0.41047	-0.057
Mof_C 	C 	0.725	0.8692	0.42995	0.061
Mof_C 	C 	0.5508	0.882	0.4166	0.07
Mof_C 	C 	0.4685	0.7896	0.38606	-0.033
Mof_C 	C 	0.5673	0.6841	0.36779	-0.102
Mof_C 	C 	0.4863	0.5841	0.33363	0.51
Mof_C 	C 	0.6287	0.0476	0.46595	0.027
Mof_C 	C 	0.5012	0.2616	0.76694	0.43
Mof_C 	C 	0.4396	0.1567	0.73044	-0.08
Mof_C 	C 	0.5599	0.0661	0.71142	-0.119
Mof_C 	C 	0.4947	0.958	0.68393	0.121
Mof_C 	C 	0.3155	0.9388	0.67533	0.08
Mof_C 	C 	0.1961	0.0331	0.69267	-0.118
Mof_C 	C 	0.2581	0.1423	0.71984	-0.062
Mof_C 	C 	0.1311	0.2473	0.73495	0.398
Mof_C 	C 	0.4483	0.7707	0.64162	0.12
Mof_N 	N 	0.7317	0.9739	0.9617	-0.189
Mof_N 	N 	0.0031	0.9993	0.93995	-0.17
Mof_N 	N 	0.2103	0.819	0.14863	-0.235
Mof_N 	N 	0.9259	0.8493	0.16149	-0.201
Mof_N 	N 	0.2317	0.0261	0.5383	-0.273
Mof_N 	N 	0.5031	0.0007	0.56005	-0.284
Mof_N 	N 	0.7103	0.181	0.35137	-0.226
Mof_N 	N 	0.4259	0.1507	0.33851	-0.204
Mof_N 	N 	0.2683	0.0261	0.0383	-0.275
Mof_N 	N 	0.9969	0.0007	0.06005	-0.271
Mof_N 	N 	0.7897	0.181	0.85137	-0.226
Mof_N 	N 	0.0741	0.1507	0.83851	-0.228
Mof_N 	N 	0.7683	0.9739	0.4617	-0.191
Mof_N 	N 	0.4969	0.9993	0.43995	-0.146
Mof_N 	N 	0.2897	0.819	0.64863	-0.235
Mof_N 	N 	0.5741	0.8493	0.66149	-0.219
Mof_O 	O 	0.6298	0.9896	0.06099	-0.343
Mof_O 	O 	0.4644	0.8034	0.00415	-0.351
Mof_O 	O 	0.5803	0.8775	0.11642	-0.361
Mof_O 	O 	0.4052	0.6996	0.06108	-0.349
Mof_O 	O 	0.6865	0.4551	0.87744	-0.463
Mof_O 	O 	0.529	0.5663	0.83492	-0.638
Mof_O 	O 	0.9143	0.5085	0.80919	-0.625
Mof_O 	O 	0.178	0.5824	0.83088	-0.595
Mof_O 	O 	0.0396	0.247	0.30515	-0.515
Mof_O 	O 	0.9107	0.3568	0.25702	-0.728
Mof_O 	O 	0.3144	0.3617	0.24943	-0.72
Mof_O 	O 	0.5306	0.2256	0.23103	-0.549
Mof_O 	O 	0.1298	0.0104	0.43901	-0.381
Mof_O 	O 	0.9644	0.1966	0.49585	-0.347
Mof_O 	O 	0.0803	0.1225	0.38358	-0.384
Mof_O 	O 	0.9052	0.3004	0.43892	-0.344
Mof_O 	O 	0.1865	0.5449	0.62256	-0.467
Mof_O 	O 	0.029	0.4337	0.66508	-0.653
Mof_O 	O 	0.4143	0.4915	0.69081	-0.642
Mof_O 	O 	0.678	0.4176	0.66912	-0.605
Mof_O 	O 	0.5396	0.753	0.19485	-0.486
Mof_O 	O 	0.4107	0.6432	0.24298	-0.723
Mof_O 	O 	0.8144	0.6383	0.25057	-0.724
Mof_O 	O 	0.0306	0.7744	0.26897	-0.557
Mof_O 	O 	0.3702	0.0104	0.93901	-0.376
Mof_O 	O 	0.5356	0.1966	0.99585	-0.342
Mof_O 	O 	0.4197	0.1225	0.88358	-0.383
Mof_O 	O 	0.5948	0.3004	0.93892	-0.341
Mof_O 	O 	0.3135	0.5449	0.12256	-0.463
Mof_O 	O 	0.471	0.4337	0.16508	-0.637
Mof_O 	O 	0.0857	0.4915	0.19081	-0.655
Mof_O 	O 	0.822	0.4176	0.16912	-0.613
Mof_O 	O 	0.9604	0.753	0.69485	-0.453
Mof_O 	O 	0.0893	0.6432	0.74298	-0.718
Mof_O 	O 	0.6856	0.6383	0.75057	-0.728
Mof_O 	O 	0.4694	0.7744	0.76897	-0.549
Mof_O 	O 	0.8702	0.9896	0.56099	-0.337
Mof_O 	O 	0.0356	0.8034	0.50415	-0.345
Mof_O 	O 	0.9197	0.8775	0.61642	-0.358
Mof_O 	O 	0.0948	0.6996	0.56108	-0.345
Mof_O 	O 	0.8135	0.4551	0.37744	-0.459
Mof_O 	O 	0.971	0.5663	0.33492	-0.624
Mof_O 	O 	0.5857	0.5085	0.30919	-0.644
Mof_O 	O 	0.322	0.5824	0.33088	-0.606
Mof_O 	O 	0.4604	0.247	0.80515	-0.495
Mof_O 	O 	0.5893	0.3568	0.75702	-0.727
Mof_O 	O 	0.1856	0.3617	0.74943	-0.724
Mof_O 	O 	0.9694	0.2256	0.73103	-0.536
_end
