# CIF file generated by openbabel 3.1.0, see https://openbabel.org
data_I
_chemical_name_common 'LABJUV_clean'
_cell_length_a 10.1652
_cell_length_b 14.6342
_cell_length_c 15.2829
_cell_angle_alpha 117.538
_cell_angle_beta 96.141
_cell_angle_gamma 104.338
_space_group_name_H-M_alt 'P 1'
_space_group_name_Hall 'P 1'
loop_
    _symmetry_equiv_pos_as_xyz
    x,y,z
loop_
    _atom_site_label
    _atom_site_type_symbol
    _atom_site_fract_x
    _atom_site_fract_y
    _atom_site_fract_z
    _atom_site_occupancy
    Cu1      Cu       0.93990    0.57547    0.53369    1.000
    Cu2      Cu       0.94159    0.61651    0.74524    1.000
    Cu3      Cu       0.73569    0.72646    0.78185    1.000
    Cu4      Cu       0.67206    0.51081    0.75430    1.000
    Cu5      Cu       0.84793    0.68552    0.91457    1.000
    Cu6      Cu       0.06010    0.42453    0.46631    1.000
    Cu7      Cu       0.05841    0.38349    0.25476    1.000
    Cu8      Cu       0.26431    0.27354    0.21815    1.000
    Cu9      Cu       0.32794    0.48919    0.24570    1.000
    Cu10     Cu       0.15207    0.31448    0.08543    1.000
    H1       H        0.11240    0.81370    0.67340    1.000
    H2       H        0.29740    0.93590    0.67070    1.000
    H3       H        0.18720    0.75190    0.36580    1.000
    H4       H        0.00310    0.63440    0.37660    1.000
    H5       H        0.27540    0.94230    0.40210    1.000
    H6       H        0.43250    0.75690    0.53050    1.000
    H7       H        0.51170    0.67790    0.61550    1.000
    H8       H        0.77810    0.95930    0.82640    1.000
    H9       H        0.70700    0.04460    0.74800    1.000
    H10      H        0.09090    0.09270    0.91590    1.000
    H11      H        0.06240    0.99600    0.74470    1.000
    H12      H        0.08480    0.27020    0.73890    1.000
    H13      H        0.10960    0.35720    0.91210    1.000
    H14      H        0.88210    0.93450    0.59010    1.000
    H15      H        0.19650    0.27150    0.52880    1.000
    H16      H        0.40280    0.41570    0.60330    1.000
    H17      H        0.55290    0.29930    0.75560    1.000
    H18      H        0.35010    0.15700    0.69350    1.000
    H19      H        0.88760    0.18630    0.32660    1.000
    H20      H        0.70260    0.06410    0.32930    1.000
    H21      H        0.81280    0.24810    0.63420    1.000
    H22      H        0.99690    0.36560    0.62340    1.000
    H23      H        0.72460    0.05770    0.59790    1.000
    H24      H        0.56750    0.24310    0.46950    1.000
    H25      H        0.48830    0.32210    0.38450    1.000
    H26      H        0.22190    0.04070    0.17360    1.000
    H27      H        0.29300    0.95540    0.25200    1.000
    H28      H        0.90910    0.90730    0.08410    1.000
    H29      H        0.93760    0.00400    0.25530    1.000
    H30      H        0.91520    0.72980    0.26110    1.000
    H31      H        0.89040    0.64280    0.08790    1.000
    H32      H        0.11790    0.06550    0.40990    1.000
    H33      H        0.80350    0.72850    0.47120    1.000
    H34      H        0.59720    0.58430    0.39670    1.000
    H35      H        0.44710    0.70070    0.24440    1.000
    H36      H        0.64990    0.84300    0.30650    1.000
    C1       C        0.12890    0.80040    0.61060    1.000
    C2       C        0.23980    0.87460    0.60980    1.000
    C3       C        0.26610    0.85710    0.51570    1.000
    C4       C        0.17470    0.76600    0.42970    1.000
    C5       C        0.06440    0.69480    0.43650    1.000
    C6       C        0.38950    0.92890    0.50890    1.000
    C7       C        0.36570    0.96660    0.44240    1.000
    C8       C        0.52500    0.95970    0.56500    1.000
    C9       C        0.56400    0.91040    0.62700    1.000
    C10      C        0.50490    0.80000    0.59010    1.000
    C11      C        0.55300    0.75260    0.64150    1.000
    C12      C        0.70900    0.91740    0.76490    1.000
    C13      C        0.66650    0.96920    0.71810    1.000
    C14      C        0.08900    0.12900    0.87960    1.000
    C15      C        0.07150    0.06980    0.77660    1.000
    C16      C        0.06770    0.12160    0.72080    1.000
    C17      C        0.08440    0.23170    0.77320    1.000
    C18      C        0.10040    0.28340    0.87760    1.000
    C19      C        0.04040    0.05850    0.60610    1.000
    C20      C        0.92910    0.96150    0.55340    1.000
    C21      C        0.11550    0.09720    0.55210    1.000
    C22      C        0.24750    0.19600    0.60300    1.000
    C23      C        0.26690    0.27580    0.57630    1.000
    C24      C        0.39210    0.36190    0.62100    1.000
    C25      C        0.47920    0.29500    0.71050    1.000
    C26      C        0.35810    0.20800    0.67250    1.000
    C27      C        0.87110    0.19960    0.38940    1.000
    C28      C        0.76020    0.12540    0.39020    1.000
    C29      C        0.73390    0.14290    0.48430    1.000
    C30      C        0.82530    0.23400    0.57030    1.000
    C31      C        0.93560    0.30520    0.56350    1.000
    C32      C        0.61050    0.07110    0.49110    1.000
    C33      C        0.63430    0.03340    0.55760    1.000
    C34      C        0.47500    0.04030    0.43500    1.000
    C35      C        0.43600    0.08960    0.37300    1.000
    C36      C        0.49510    0.20000    0.40990    1.000
    C37      C        0.44700    0.24740    0.35850    1.000
    C38      C        0.29100    0.08260    0.23510    1.000
    C39      C        0.33350    0.03080    0.28190    1.000
    C40      C        0.91100    0.87100    0.12040    1.000
    C41      C        0.92850    0.93020    0.22340    1.000
    C42      C        0.93230    0.87840    0.27920    1.000
    C43      C        0.91560    0.76830    0.22680    1.000
    C44      C        0.89960    0.71660    0.12240    1.000
    C45      C        0.95960    0.94150    0.39390    1.000
    C46      C        0.07090    0.03850    0.44660    1.000
    C47      C        0.88450    0.90280    0.44790    1.000
    C48      C        0.75250    0.80400    0.39700    1.000
    C49      C        0.73310    0.72420    0.42370    1.000
    C50      C        0.60790    0.63810    0.37900    1.000
    C51      C        0.52080    0.70500    0.28950    1.000
    C52      C        0.64190    0.79200    0.32750    1.000
    I1       I        0.70964    0.53856    0.59101    1.000
    I2       I        0.15471    0.58763    0.66458    1.000
    I3       I        0.00517    0.83281    0.87158    1.000
    I4       I        0.89734    0.49791    0.84273    1.000
    I5       I        0.56825    0.66219    0.87407    1.000
    I6       I        0.29036    0.46144    0.40899    1.000
    I7       I        0.84529    0.41237    0.33542    1.000
    I8       I        0.99483    0.16719    0.12842    1.000
    I9       I        0.10266    0.50209    0.15727    1.000
    I10      I        0.43175    0.33781    0.12593    1.000
    N1       N        0.04230    0.70950    0.52650    1.000
    N2       N        0.65660    0.81080    0.72700    1.000
    N3       N        0.10330    0.23370    0.93170    1.000
    N4       N        0.49910    0.37280    0.68820    1.000
    N5       N        0.95770    0.29050    0.47350    1.000
    N6       N        0.34340    0.18920    0.27300    1.000
    N7       N        0.89670    0.76630    0.06830    1.000
    N8       N        0.50090    0.62720    0.31180    1.000
