# CIF file generated by openbabel 3.1.0, see https://openbabel.org
data_I
_chemical_name_common 'image0'
_cell_length_a 7.8256
_cell_length_b 22.331
_cell_length_c 8.9976
_cell_angle_alpha 90
_cell_angle_beta 110.04
_cell_angle_gamma 90
_space_group_name_H-M_alt 'P 1'
_space_group_name_Hall 'P 1'
loop_
    _symmetry_equiv_pos_as_xyz
    x,y,z
loop_
    _atom_site_label
    _atom_site_type_symbol
    _atom_site_fract_x
    _atom_site_fract_y
    _atom_site_fract_z
    _atom_site_occupancy
    Cu1      Cu       0.44720    0.13211    0.83884    1.000
    O1       O        0.30720    0.19950    0.20040    1.000
    N1       N        0.59580    0.19880    0.96950    1.000
    N2       N        0.76580    0.29330    0.16460    1.000
    N3       N        0.31090    0.14210    0.98440    1.000
    N4       N        0.32550    0.94300    0.23610    1.000
    C1       C        0.73780    0.22550    0.95100    1.000
    H1       H        0.78390    0.21200    0.87200    1.000
    C2       C        0.82060    0.27420    0.04830    1.000
    H2       H        0.91910    0.29400    0.03040    1.000
    C3       C        0.62080    0.26470    0.18310    1.000
    H3       H        0.57710    0.27740    0.26440    1.000
    C4       C        0.53510    0.21740    0.08520    1.000
    C5       C        0.37070    0.18480    0.09320    1.000
    C6       C        0.15120    0.10780    0.98010    1.000
    H4       H        0.07740    0.09870    0.86890    1.000
    H5       H        0.07570    0.13200    0.02620    1.000
    C7       C        0.20580    0.04970    0.07210    1.000
    C8       C        0.13600    0.99550    0.00590    1.000
    H6       H        0.04250    0.99390    0.90530    1.000
    C9       C        0.20440    0.94290    0.08840    1.000
    H7       H        0.16380    0.90560    0.03810    1.000
    C10      C        0.38720    0.99640    0.30010    1.000
    H8       H        0.47470    0.99720    0.40390    1.000
    C11      C        0.33100    0.05030    0.22390    1.000
    H9       H        0.37750    0.08710    0.27480    1.000
    Cu2      Cu       0.44720    0.86789    0.33884    1.000
    O2       O        0.30720    0.80050    0.70040    1.000
    N5       N        0.59580    0.80120    0.46950    1.000
    N6       N        0.76580    0.70670    0.66460    1.000
    N7       N        0.31090    0.85790    0.48440    1.000
    N8       N        0.32550    0.05700    0.73610    1.000
    C12      C        0.73780    0.77450    0.45100    1.000
    H10      H        0.78390    0.78800    0.37200    1.000
    C13      C        0.82060    0.72580    0.54830    1.000
    H11      H        0.91910    0.70600    0.53040    1.000
    C14      C        0.62080    0.73530    0.68310    1.000
    H12      H        0.57710    0.72260    0.76440    1.000
    C15      C        0.53510    0.78260    0.58520    1.000
    C16      C        0.37070    0.81520    0.59320    1.000
    C17      C        0.15120    0.89220    0.48010    1.000
    H13      H        0.07740    0.90130    0.36890    1.000
    H14      H        0.07570    0.86800    0.52620    1.000
    C18      C        0.20580    0.95030    0.57210    1.000
    C19      C        0.13600    0.00450    0.50590    1.000
    H15      H        0.04250    0.00610    0.40530    1.000
    C20      C        0.20440    0.05710    0.58840    1.000
    H16      H        0.16380    0.09440    0.53810    1.000
    C21      C        0.38720    0.00360    0.80010    1.000
    H17      H        0.47470    0.00280    0.90390    1.000
    C22      C        0.33100    0.94970    0.72390    1.000
    H18      H        0.37750    0.91290    0.77480    1.000
    Cu3      Cu       0.94720    0.63211    0.83884    1.000
    O3       O        0.80720    0.69950    0.20040    1.000
    N9       N        0.09580    0.69880    0.96950    1.000
    N10      N        0.26580    0.79330    0.16460    1.000
    N11      N        0.81090    0.64210    0.98440    1.000
    N12      N        0.82550    0.44300    0.23610    1.000
    C23      C        0.23780    0.72550    0.95100    1.000
    H19      H        0.28390    0.71200    0.87200    1.000
    C24      C        0.32060    0.77420    0.04830    1.000
    H20      H        0.41910    0.79400    0.03040    1.000
    C25      C        0.12080    0.76470    0.18310    1.000
    H21      H        0.07710    0.77740    0.26440    1.000
    C26      C        0.03510    0.71740    0.08520    1.000
    C27      C        0.87070    0.68480    0.09320    1.000
    C28      C        0.65120    0.60780    0.98010    1.000
    H22      H        0.57740    0.59870    0.86890    1.000
    H23      H        0.57570    0.63200    0.02620    1.000
    C29      C        0.70580    0.54970    0.07210    1.000
    C30      C        0.63600    0.49550    0.00590    1.000
    H24      H        0.54250    0.49390    0.90530    1.000
    C31      C        0.70440    0.44290    0.08840    1.000
    H25      H        0.66380    0.40560    0.03810    1.000
    C32      C        0.88720    0.49640    0.30010    1.000
    H26      H        0.97470    0.49720    0.40390    1.000
    C33      C        0.83100    0.55030    0.22390    1.000
    H27      H        0.87750    0.58710    0.27480    1.000
    Cu4      Cu       0.94720    0.36789    0.33884    1.000
    O4       O        0.80720    0.30050    0.70040    1.000
    N13      N        0.09580    0.30120    0.46950    1.000
    N14      N        0.26580    0.20670    0.66460    1.000
    N15      N        0.81090    0.35790    0.48440    1.000
    N16      N        0.82550    0.55700    0.73610    1.000
    C34      C        0.23780    0.27450    0.45100    1.000
    H28      H        0.28390    0.28800    0.37200    1.000
    C35      C        0.32060    0.22580    0.54830    1.000
    H29      H        0.41910    0.20600    0.53040    1.000
    C36      C        0.12080    0.23530    0.68310    1.000
    H30      H        0.07710    0.22260    0.76440    1.000
    C37      C        0.03510    0.28260    0.58520    1.000
    C38      C        0.87070    0.31520    0.59320    1.000
    C39      C        0.65120    0.39220    0.48010    1.000
    H31      H        0.57740    0.40130    0.36890    1.000
    H32      H        0.57570    0.36800    0.52620    1.000
    C40      C        0.70580    0.45030    0.57210    1.000
    C41      C        0.63600    0.50450    0.50590    1.000
    H33      H        0.54250    0.50610    0.40530    1.000
    C42      C        0.70440    0.55710    0.58840    1.000
    H34      H        0.66380    0.59440    0.53810    1.000
    C43      C        0.88720    0.50360    0.80010    1.000
    H35      H        0.97470    0.50280    0.90390    1.000
    C44      C        0.83100    0.44970    0.72390    1.000
    H36      H        0.87750    0.41290    0.77480    1.000
