data_functionalizedCrystal
_audit_creation_method	'EQeq! by Chris Wilmer'
_symmetry_space_group_name_H-M	'P1'
_symmetry_Int_Tables_number	1
_symmetry_cell_setting	triclinic
loop_
_symmetry_equiv_pos_as_xyz
  x,y,z
_cell_length_a	17.542
_cell_length_b	17.542
_cell_length_c	17.542
_cell_angle_alpha	90
_cell_angle_beta	90
_cell_angle_gamma	90
loop_
_atom_site_label
_atom_site_type_symbol
_atom_site_fract_x
_atom_site_fract_y
_atom_site_fract_z
_atom_site_charge
Mof_N 	N 	0.5416	0.6522	0.1997	-0.204
Mof_H 	H 	0.528	0.6706	0.2444	0.115
Mof_N 	N 	0.542	0.5794	0.0984	-0.148
Mof_C 	C 	0.6447	0.7467	0.1728	0.029
Mof_C 	C 	0.6281	0.7922	0.2359	-0.092
Mof_H 	H 	0.5858	0.7799	0.2674	0.058
Mof_C 	C 	0.5979	0.6801	0.1542	0.046
Mof_C 	C 	0.5961	0.6345	0.0919	-0.015
Mof_H 	H 	0.6286	0.6403	0.049	0.033
Mof_C 	C 	0.5105	0.5915	0.1644	0.113
Mof_H 	H 	0.4705	0.5614	0.185	-0.005
Mof_N 	N 	0.9584	0.3478	0.6997	-0.21
Mof_H 	H 	0.972	0.3294	0.7444	0.122
Mof_N 	N 	0.958	0.4206	0.5984	-0.147
Mof_C 	C 	0.8553	0.2533	0.6728	0.03
Mof_C 	C 	0.8719	0.2078	0.7359	-0.092
Mof_H 	H 	0.9142	0.2201	0.7674	0.061
Mof_C 	C 	0.9021	0.3199	0.6542	0.049
Mof_C 	C 	0.9039	0.3655	0.5919	-0.014
Mof_H 	H 	0.8714	0.3597	0.549	0.038
Mof_C 	C 	0.9895	0.4085	0.6644	0.148
Mof_H 	H 	0.0295	0.4386	0.685	-0.027
Mof_N 	N 	0.4584	0.1522	0.3003	-0.204
Mof_H 	H 	0.472	0.1706	0.2556	0.112
Mof_N 	N 	0.458	0.0794	0.4016	-0.149
Mof_C 	C 	0.3553	0.2467	0.3272	0.028
Mof_C 	C 	0.3719	0.2922	0.2641	-0.093
Mof_H 	H 	0.4142	0.2799	0.2326	0.057
Mof_C 	C 	0.4021	0.1801	0.3458	0.045
Mof_C 	C 	0.4039	0.1345	0.4081	-0.016
Mof_H 	H 	0.3714	0.1403	0.451	0.035
Mof_C 	C 	0.4895	0.0915	0.3356	0.11
Mof_H 	H 	0.5295	0.0614	0.315	-0.01
Mof_N 	N 	0.0416	0.8478	0.8003	-0.197
Mof_H 	H 	0.028	0.8294	0.7556	0.112
Mof_N 	N 	0.042	0.9206	0.9016	-0.133
Mof_C 	C 	0.1447	0.7533	0.8272	0.03
Mof_C 	C 	0.1281	0.7078	0.7641	-0.092
Mof_H 	H 	0.0858	0.7201	0.7326	0.057
Mof_C 	C 	0.0979	0.8199	0.8458	0.047
Mof_C 	C 	0.0961	0.8655	0.9081	-0.013
Mof_H 	H 	0.1286	0.8597	0.951	0.042
Mof_C 	C 	0.0105	0.9085	0.8356	0.083
Mof_H 	H 	0.9705	0.9386	0.815	0.024
Mof_N 	N 	0.1997	0.5416	0.6522	-0.204
Mof_H 	H 	0.2444	0.528	0.6706	0.115
Mof_N 	N 	0.0984	0.542	0.5794	-0.148
Mof_C 	C 	0.1728	0.6447	0.7467	0.029
Mof_C 	C 	0.2359	0.6281	0.7922	-0.092
Mof_H 	H 	0.2674	0.5858	0.7799	0.058
Mof_C 	C 	0.1542	0.5979	0.6801	0.046
Mof_C 	C 	0.0919	0.5961	0.6345	-0.015
Mof_H 	H 	0.049	0.6286	0.6403	0.033
Mof_C 	C 	0.1644	0.5105	0.5915	0.113
Mof_H 	H 	0.185	0.4705	0.5614	-0.005
Mof_N 	N 	0.6997	0.9584	0.3478	-0.21
Mof_H 	H 	0.7444	0.972	0.3294	0.122
Mof_N 	N 	0.5984	0.958	0.4206	-0.147
Mof_C 	C 	0.6728	0.8553	0.2533	0.03
Mof_C 	C 	0.7359	0.8719	0.2078	-0.092
Mof_H 	H 	0.7674	0.9142	0.2201	0.061
Mof_C 	C 	0.6542	0.9021	0.3199	0.049
Mof_C 	C 	0.5919	0.9039	0.3655	-0.014
Mof_H 	H 	0.549	0.8714	0.3597	0.038
Mof_C 	C 	0.6644	0.9895	0.4085	0.148
Mof_H 	H 	0.685	0.0295	0.4386	-0.027
Mof_N 	N 	0.3003	0.4584	0.1522	-0.204
Mof_H 	H 	0.2556	0.472	0.1706	0.112
Mof_N 	N 	0.4016	0.458	0.0794	-0.149
Mof_C 	C 	0.3272	0.3553	0.2467	0.028
Mof_C 	C 	0.2641	0.3719	0.2922	-0.093
Mof_H 	H 	0.2326	0.4142	0.2799	0.057
Mof_C 	C 	0.3458	0.4021	0.1801	0.045
Mof_C 	C 	0.4081	0.4039	0.1345	-0.016
Mof_H 	H 	0.451	0.3714	0.1403	0.035
Mof_C 	C 	0.3356	0.4895	0.0915	0.11
Mof_H 	H 	0.315	0.5295	0.0614	-0.01
Mof_N 	N 	0.8003	0.0416	0.8478	-0.197
Mof_H 	H 	0.7556	0.028	0.8294	0.112
Mof_N 	N 	0.9016	0.042	0.9206	-0.133
Mof_C 	C 	0.8272	0.1447	0.7533	0.03
Mof_C 	C 	0.7641	0.1281	0.7078	-0.092
Mof_H 	H 	0.7326	0.0858	0.7201	0.057
Mof_C 	C 	0.8458	0.0979	0.8199	0.047
Mof_C 	C 	0.9081	0.0961	0.8655	-0.013
Mof_H 	H 	0.951	0.1286	0.8597	0.042
Mof_C 	C 	0.8356	0.0105	0.9085	0.083
Mof_H 	H 	0.815	0.9705	0.9386	0.024
Mof_N 	N 	0.6522	0.1997	0.5416	-0.204
Mof_H 	H 	0.6706	0.2444	0.528	0.115
Mof_N 	N 	0.5794	0.0984	0.542	-0.148
Mof_C 	C 	0.7467	0.1728	0.6447	0.029
Mof_C 	C 	0.7922	0.2359	0.6281	-0.092
Mof_H 	H 	0.7799	0.2674	0.5858	0.058
Mof_C 	C 	0.6801	0.1542	0.5979	0.046
Mof_C 	C 	0.6345	0.0919	0.5961	-0.015
Mof_H 	H 	0.6403	0.049	0.6286	0.033
Mof_C 	C 	0.5915	0.1644	0.5105	0.113
Mof_H 	H 	0.5614	0.185	0.4705	-0.005
Mof_N 	N 	0.3478	0.6997	0.9584	-0.21
Mof_H 	H 	0.3294	0.7444	0.972	0.122
Mof_N 	N 	0.4206	0.5984	0.958	-0.147
Mof_C 	C 	0.2533	0.6728	0.8553	0.03
Mof_C 	C 	0.2078	0.7359	0.8719	-0.092
Mof_H 	H 	0.2201	0.7674	0.9142	0.061
Mof_C 	C 	0.3199	0.6542	0.9021	0.049
Mof_C 	C 	0.3655	0.5919	0.9039	-0.014
Mof_H 	H 	0.3597	0.549	0.8714	0.038
Mof_C 	C 	0.4085	0.6644	0.9895	0.148
Mof_H 	H 	0.4386	0.685	0.0295	-0.027
Mof_N 	N 	0.1522	0.3003	0.4584	-0.204
Mof_H 	H 	0.1706	0.2556	0.472	0.112
Mof_N 	N 	0.0794	0.4016	0.458	-0.149
Mof_C 	C 	0.2467	0.3272	0.3553	0.028
Mof_C 	C 	0.2922	0.2641	0.3719	-0.093
Mof_H 	H 	0.2799	0.2326	0.4142	0.057
Mof_C 	C 	0.1801	0.3458	0.4021	0.045
Mof_C 	C 	0.1345	0.4081	0.4039	-0.016
Mof_H 	H 	0.1403	0.451	0.3714	0.035
Mof_C 	C 	0.0915	0.3356	0.4895	0.11
Mof_H 	H 	0.0614	0.315	0.5295	-0.01
Mof_N 	N 	0.8478	0.8003	0.0416	-0.197
Mof_H 	H 	0.8294	0.7556	0.028	0.112
Mof_N 	N 	0.9206	0.9016	0.042	-0.133
Mof_C 	C 	0.7533	0.8272	0.1447	0.03
Mof_C 	C 	0.7078	0.7641	0.1281	-0.092
Mof_H 	H 	0.7201	0.7326	0.0858	0.057
Mof_C 	C 	0.8199	0.8458	0.0979	0.047
Mof_C 	C 	0.8655	0.9081	0.0961	-0.013
Mof_H 	H 	0.8597	0.951	0.1286	0.042
Mof_C 	C 	0.9085	0.8356	0.0105	0.083
Mof_H 	H 	0.9386	0.815	0.9705	0.024
Mof_N 	N 	0.4584	0.3478	0.8003	-0.204
Mof_H 	H 	0.472	0.3294	0.7556	0.115
Mof_N 	N 	0.458	0.4206	0.9016	-0.142
Mof_C 	C 	0.3553	0.2533	0.8272	0.03
Mof_C 	C 	0.3719	0.2078	0.7641	-0.093
Mof_H 	H 	0.4142	0.2201	0.7326	0.058
Mof_C 	C 	0.4021	0.3199	0.8458	0.047
Mof_C 	C 	0.4039	0.3655	0.9081	-0.014
Mof_H 	H 	0.3714	0.3597	0.951	0.041
Mof_C 	C 	0.4895	0.4085	0.8356	0.114
Mof_H 	H 	0.5295	0.4386	0.815	-0.003
Mof_N 	N 	0.0416	0.6522	0.3003	-0.197
Mof_H 	H 	0.028	0.6706	0.2556	0.108
Mof_N 	N 	0.042	0.5794	0.4016	-0.143
Mof_C 	C 	0.1447	0.7467	0.3272	0.029
Mof_C 	C 	0.1281	0.7922	0.2641	-0.093
Mof_H 	H 	0.0858	0.7799	0.2326	0.056
Mof_C 	C 	0.0979	0.6801	0.3458	0.044
Mof_C 	C 	0.0961	0.6345	0.4081	-0.015
Mof_H 	H 	0.1286	0.6403	0.451	0.036
Mof_C 	C 	0.0105	0.5915	0.3356	0.078
Mof_H 	H 	0.9705	0.5614	0.315	0.019
Mof_N 	N 	0.5416	0.8478	0.6997	-0.204
Mof_H 	H 	0.528	0.8294	0.7444	0.118
Mof_N 	N 	0.542	0.9206	0.5984	-0.141
Mof_C 	C 	0.6447	0.7533	0.6728	0.031
Mof_C 	C 	0.6281	0.7078	0.7359	-0.092
Mof_H 	H 	0.5858	0.7201	0.7674	0.06
Mof_C 	C 	0.5979	0.8199	0.6542	0.049
Mof_C 	C 	0.5961	0.8655	0.5919	-0.013
Mof_H 	H 	0.6286	0.8597	0.549	0.039
Mof_C 	C 	0.5105	0.9085	0.6644	0.116
Mof_H 	H 	0.4705	0.9386	0.685	0.002
Mof_N 	N 	0.9584	0.1522	0.1997	-0.211
Mof_H 	H 	0.972	0.1706	0.2444	0.119
Mof_N 	N 	0.958	0.0794	0.0984	-0.15
Mof_C 	C 	0.8553	0.2467	0.1728	0.029
Mof_C 	C 	0.8719	0.2922	0.2359	-0.092
Mof_H 	H 	0.9142	0.2799	0.2674	0.059
Mof_C 	C 	0.9021	0.1801	0.1542	0.047
Mof_C 	C 	0.9039	0.1345	0.0919	-0.016
Mof_H 	H 	0.8714	0.1403	0.049	0.033
Mof_C 	C 	0.9895	0.0915	0.1644	0.147
Mof_H 	H 	0.0295	0.0614	0.185	-0.034
Mof_N 	N 	0.8003	0.4584	0.3478	-0.204
Mof_H 	H 	0.7556	0.472	0.3294	0.115
Mof_N 	N 	0.9016	0.458	0.4206	-0.142
Mof_C 	C 	0.8272	0.3553	0.2533	0.03
Mof_C 	C 	0.7641	0.3719	0.2078	-0.093
Mof_H 	H 	0.7326	0.4142	0.2201	0.058
Mof_C 	C 	0.8458	0.4021	0.3199	0.047
Mof_C 	C 	0.9081	0.4039	0.3655	-0.014
Mof_H 	H 	0.951	0.3714	0.3597	0.041
Mof_C 	C 	0.8356	0.4895	0.4085	0.114
Mof_H 	H 	0.815	0.5295	0.4386	-0.003
Mof_N 	N 	0.3003	0.0416	0.6522	-0.197
Mof_H 	H 	0.2556	0.028	0.6706	0.108
Mof_N 	N 	0.4016	0.042	0.5794	-0.143
Mof_C 	C 	0.3272	0.1447	0.7467	0.029
Mof_C 	C 	0.2641	0.1281	0.7922	-0.093
Mof_H 	H 	0.2326	0.0858	0.7799	0.056
Mof_C 	C 	0.3458	0.0979	0.6801	0.044
Mof_C 	C 	0.4081	0.0961	0.6345	-0.015
Mof_H 	H 	0.451	0.1286	0.6403	0.036
Mof_C 	C 	0.3356	0.0105	0.5915	0.078
Mof_H 	H 	0.315	0.9705	0.5614	0.019
Mof_N 	N 	0.6997	0.5416	0.8478	-0.204
Mof_H 	H 	0.7444	0.528	0.8294	0.118
Mof_N 	N 	0.5984	0.542	0.9206	-0.141
Mof_C 	C 	0.6728	0.6447	0.7533	0.031
Mof_C 	C 	0.7359	0.6281	0.7078	-0.092
Mof_H 	H 	0.7674	0.5858	0.7201	0.06
Mof_C 	C 	0.6542	0.5979	0.8199	0.049
Mof_C 	C 	0.5919	0.5961	0.8655	-0.013
Mof_H 	H 	0.549	0.6286	0.8597	0.039
Mof_C 	C 	0.6644	0.5105	0.9085	0.116
Mof_H 	H 	0.685	0.4705	0.9386	0.002
Mof_N 	N 	0.1997	0.9584	0.1522	-0.211
Mof_H 	H 	0.2444	0.972	0.1706	0.119
Mof_N 	N 	0.0984	0.958	0.0794	-0.15
Mof_C 	C 	0.1728	0.8553	0.2467	0.029
Mof_C 	C 	0.2359	0.8719	0.2922	-0.092
Mof_H 	H 	0.2674	0.9142	0.2799	0.059
Mof_C 	C 	0.1542	0.9021	0.1801	0.047
Mof_C 	C 	0.0919	0.9039	0.1345	-0.016
Mof_H 	H 	0.049	0.8714	0.1403	0.033
Mof_C 	C 	0.1644	0.9895	0.0915	0.147
Mof_H 	H 	0.185	0.0295	0.0614	-0.034
Mof_N 	N 	0.3478	0.8003	0.4584	-0.204
Mof_H 	H 	0.3294	0.7556	0.472	0.115
Mof_N 	N 	0.4206	0.9016	0.458	-0.142
Mof_C 	C 	0.2533	0.8272	0.3553	0.03
Mof_C 	C 	0.2078	0.7641	0.3719	-0.093
Mof_H 	H 	0.2201	0.7326	0.4142	0.058
Mof_C 	C 	0.3199	0.8458	0.4021	0.047
Mof_C 	C 	0.3655	0.9081	0.4039	-0.014
Mof_H 	H 	0.3597	0.951	0.3714	0.041
Mof_C 	C 	0.4085	0.8356	0.4895	0.114
Mof_H 	H 	0.4386	0.815	0.5295	-0.003
Mof_N 	N 	0.6522	0.3003	0.0416	-0.197
Mof_H 	H 	0.6706	0.2556	0.028	0.108
Mof_N 	N 	0.5794	0.4016	0.042	-0.143
Mof_C 	C 	0.7467	0.3272	0.1447	0.029
Mof_C 	C 	0.7922	0.2641	0.1281	-0.093
Mof_H 	H 	0.7799	0.2326	0.0858	0.056
Mof_C 	C 	0.6801	0.3458	0.0979	0.044
Mof_C 	C 	0.6345	0.4081	0.0961	-0.015
Mof_H 	H 	0.6403	0.451	0.1286	0.036
Mof_C 	C 	0.5915	0.3356	0.0105	0.078
Mof_H 	H 	0.5614	0.315	0.9705	0.019
Mof_N 	N 	0.8478	0.6997	0.5416	-0.204
Mof_H 	H 	0.8294	0.7444	0.528	0.118
Mof_N 	N 	0.9206	0.5984	0.542	-0.141
Mof_C 	C 	0.7533	0.6728	0.6447	0.031
Mof_C 	C 	0.7078	0.7359	0.6281	-0.092
Mof_H 	H 	0.7201	0.7674	0.5858	0.06
Mof_C 	C 	0.8199	0.6542	0.5979	0.049
Mof_C 	C 	0.8655	0.5919	0.5961	-0.013
Mof_H 	H 	0.8597	0.549	0.6286	0.039
Mof_C 	C 	0.9085	0.6644	0.5105	0.116
Mof_H 	H 	0.9386	0.685	0.4705	0.002
Mof_N 	N 	0.1522	0.1997	0.9584	-0.211
Mof_H 	H 	0.1706	0.2444	0.972	0.119
Mof_N 	N 	0.0794	0.0984	0.958	-0.15
Mof_C 	C 	0.2467	0.1728	0.8553	0.029
Mof_C 	C 	0.2922	0.2359	0.8719	-0.092
Mof_H 	H 	0.2799	0.2674	0.9142	0.059
Mof_C 	C 	0.1801	0.1542	0.9021	0.047
Mof_C 	C 	0.1345	0.0919	0.9039	-0.016
Mof_H 	H 	0.1403	0.049	0.8714	0.033
Mof_C 	C 	0.0915	0.1644	0.9895	0.147
Mof_H 	H 	0.0614	0.185	0.0295	-0.034
Mof_Cd	Cd	0.5	0.5	-0	0.361
Mof_Cd	Cd	1.12275e-32	0.5	0.5	0.361
Mof_Cd	Cd	0.5	4.67642e-33	0.5	0.361
Mof_Cd	Cd	-0	0	-0	0.327
_end
