data_functionalizedCrystal
_audit_creation_method	'EQeq! by Chris Wilmer'
_symmetry_space_group_name_H-M	'P1'
_symmetry_Int_Tables_number	1
_symmetry_cell_setting	triclinic
loop_
_symmetry_equiv_pos_as_xyz
  x,y,z
_cell_length_a	12.079
_cell_length_b	12.079
_cell_length_c	24.539
_cell_angle_alpha	90
_cell_angle_beta	90
_cell_angle_gamma	90
loop_
_atom_site_label
_atom_site_type_symbol
_atom_site_fract_x
_atom_site_fract_y
_atom_site_fract_z
_atom_site_charge
Mof_Co	Co	0.75	0.75	0.9226	1.1
Mof_Co	Co	0.25	0.25	0.4226	1.1
Mof_H 	H 	0.582	0.5745	0.8774	-0.038
Mof_H 	H 	0.5645	0.436	0.8155	0.14
Mof_H 	H 	0.8645	0.5167	0.7577	0.14
Mof_H 	H 	0.8721	0.6504	0.8235	-0.043
Mof_H 	H 	0.8046	0.411	0.6846	0.042
Mof_H 	H 	0.8546	0.3289	0.7281	0.047
Mof_H 	H 	0.8188	0.1562	0.6108	0.046
Mof_H 	H 	0.9019	0.1731	0.6596	0.042
Mof_H 	H 	0.0977	0.1124	0.4977	-0.052
Mof_H 	H 	0.9663	0.1225	0.5658	0.152
Mof_H 	H 	0.0141	0.4436	0.5662	0.162
Mof_H 	H 	0.1224	0.4247	0.4909	-0.055
Mof_H 	H 	0.5288	0.8659	0.9	0.062
Mof_H 	H 	0.918	0.9255	0.8774	-0.038
Mof_H 	H 	0.9355	0.064	0.8155	0.14
Mof_H 	H 	0.6355	0.9833	0.7577	0.14
Mof_H 	H 	0.6279	0.8496	0.8235	-0.042
Mof_H 	H 	0.6954	0.089	0.6846	0.043
Mof_H 	H 	0.6454	0.1711	0.7281	0.048
Mof_H 	H 	0.6812	0.3438	0.6108	0.047
Mof_H 	H 	0.5981	0.3269	0.6596	0.043
Mof_H 	H 	0.4023	0.3876	0.4977	-0.051
Mof_H 	H 	0.5337	0.3775	0.5658	0.153
Mof_H 	H 	0.4859	0.0564	0.5662	0.163
Mof_H 	H 	0.3776	0.0753	0.4909	-0.054
Mof_H 	H 	0.9712	0.6341	0.9	0.063
Mof_H 	H 	0.4255	0.082	0.3774	-0.037
Mof_H 	H 	0.564	0.0645	0.3155	0.141
Mof_H 	H 	0.4833	0.3645	0.2577	0.141
Mof_H 	H 	0.3496	0.3721	0.3235	-0.042
Mof_H 	H 	0.589	0.3046	0.1846	0.043
Mof_H 	H 	0.6711	0.3546	0.2281	0.048
Mof_H 	H 	0.8438	0.3188	0.1108	0.047
Mof_H 	H 	0.8269	0.4019	0.1596	0.043
Mof_H 	H 	0.8876	0.5977	0.9977	-0.049
Mof_H 	H 	0.8775	0.4663	0.0658	0.152
Mof_H 	H 	0.5564	0.5141	0.0662	0.162
Mof_H 	H 	0.5753	0.6224	0.9909	-0.052
Mof_H 	H 	0.1341	0.0288	0.4	0.063
Mof_H 	H 	0.0745	0.418	0.3774	-0.037
Mof_H 	H 	0.936	0.4355	0.3155	0.141
Mof_H 	H 	0.0167	0.1355	0.2577	0.141
Mof_H 	H 	0.1504	0.1279	0.3235	-0.042
Mof_H 	H 	0.911	0.1954	0.1846	0.042
Mof_H 	H 	0.8289	0.1454	0.2281	0.048
Mof_H 	H 	0.6562	0.1812	0.1108	0.047
Mof_H 	H 	0.6731	0.0981	0.1596	0.044
Mof_H 	H 	0.6124	0.9023	0.9977	-0.048
Mof_H 	H 	0.6225	0.0337	0.0658	0.151
Mof_H 	H 	0.9436	0.9859	0.0662	0.161
Mof_H 	H 	0.9247	0.8776	0.9909	-0.05
Mof_H 	H 	0.3659	0.4712	0.4	0.063
Mof_C 	C 	0.6404	0.5614	0.85354	0.155
Mof_C 	C 	0.6286	0.4786	0.8163	-0.288
Mof_C 	C 	0.714	0.4587	0.77942	0.3
Mof_C 	C 	0.8062	0.5255	0.78203	-0.298
Mof_C 	C 	0.8092	0.606	0.82197	0.166
Mof_C 	C 	0.7883	0.348	0.70782	0.013
Mof_C 	C 	0.8459	0.209	0.63745	0.009
Mof_C 	C 	0.0768	0.182	0.51018	0.192
Mof_C 	C 	0.9978	0.1868	0.55184	-0.342
Mof_C 	C 	0.9688	0.2865	0.57099	0.358
Mof_C 	C 	0.0238	0.374	0.55068	-0.351
Mof_C 	C 	0.0941	0.3611	0.50719	0.212
Mof_C 	C 	0.8596	0.9386	0.85354	0.156
Mof_C 	C 	0.8714	0.0214	0.8163	-0.289
Mof_C 	C 	0.786	0.0413	0.77942	0.3
Mof_C 	C 	0.6938	0.9745	0.78203	-0.297
Mof_C 	C 	0.6908	0.894	0.82197	0.166
Mof_C 	C 	0.7117	0.152	0.70782	0.013
Mof_C 	C 	0.6541	0.291	0.63745	0.009
Mof_C 	C 	0.4232	0.318	0.51018	0.192
Mof_C 	C 	0.5022	0.3132	0.55184	-0.341
Mof_C 	C 	0.5312	0.2135	0.57099	0.358
Mof_C 	C 	0.4762	0.126	0.55068	-0.351
Mof_C 	C 	0.4059	0.1389	0.50719	0.212
Mof_C 	C 	0.4386	0.1404	0.35354	0.155
Mof_C 	C 	0.5214	0.1286	0.3163	-0.288
Mof_C 	C 	0.5413	0.214	0.27942	0.3
Mof_C 	C 	0.4745	0.3062	0.28203	-0.298
Mof_C 	C 	0.394	0.3092	0.32197	0.166
Mof_C 	C 	0.652	0.2883	0.20782	0.013
Mof_C 	C 	0.791	0.3459	0.13745	0.009
Mof_C 	C 	0.818	0.5768	0.01018	0.188
Mof_C 	C 	0.8132	0.4978	0.05184	-0.339
Mof_C 	C 	0.7135	0.4688	0.07099	0.356
Mof_C 	C 	0.626	0.5238	0.05068	-0.349
Mof_C 	C 	0.6389	0.5941	0.00719	0.209
Mof_C 	C 	0.0614	0.3596	0.35354	0.155
Mof_C 	C 	0.9786	0.3714	0.3163	-0.289
Mof_C 	C 	0.9587	0.286	0.27942	0.3
Mof_C 	C 	0.0255	0.1938	0.28203	-0.297
Mof_C 	C 	0.106	0.1908	0.32197	0.166
Mof_C 	C 	0.848	0.2117	0.20782	0.013
Mof_C 	C 	0.709	0.1541	0.13745	0.009
Mof_C 	C 	0.682	0.9232	0.01018	0.185
Mof_C 	C 	0.6868	0.0022	0.05184	-0.336
Mof_C 	C 	0.7865	0.0312	0.07099	0.355
Mof_C 	C 	0.874	0.9762	0.05068	-0.347
Mof_C 	C 	0.8611	0.9059	0.00719	0.205
Mof_C 	C 	0.75	0.25	0.67362	0.022
Mof_C 	C 	0.75	0.25	0.17362	0.022
Mof_S 	S 	0.5492	0.77878	0.92121	-0.253
Mof_S 	S 	0.9508	0.72122	0.92121	-0.253
Mof_S 	S 	0.22122	0.0492	0.42121	-0.253
Mof_S 	S 	0.27878	0.4508	0.42121	-0.253
Mof_N 	N 	0.7311	0.6256	0.85815	-0.275
Mof_N 	N 	0.1231	0.2677	0.48759	-0.295
Mof_N 	N 	0.7689	0.8744	0.85815	-0.276
Mof_N 	N 	0.3769	0.2323	0.48759	-0.295
Mof_N 	N 	0.3744	0.2311	0.35815	-0.275
Mof_N 	N 	0.7323	0.6231	0.98759	-0.293
Mof_N 	N 	0.1256	0.2689	0.35815	-0.275
Mof_N 	N 	0.7677	0.8769	0.98759	-0.291
Mof_O 	O 	0.69948	0.37395	0.74451	-0.254
Mof_O 	O 	0.89187	0.3043	0.61047	-0.267
Mof_O 	O 	0.80052	0.12605	0.74451	-0.254
Mof_O 	O 	0.60813	0.1957	0.61047	-0.267
Mof_O 	O 	0.62605	0.19948	0.24451	-0.254
Mof_O 	O 	0.6957	0.39187	0.11047	-0.266
Mof_O 	O 	0.87395	0.30052	0.24451	-0.254
Mof_O 	O 	0.8043	0.10813	0.11047	-0.266
Mof_Co	Co	0.25	0.25	0.0774	1.101
Mof_Co	Co	0.75	0.75	0.5774	1.101
Mof_H 	H 	0.418	0.4255	0.1226	-0.037
Mof_H 	H 	0.4355	0.564	0.1845	0.141
Mof_H 	H 	0.1355	0.4833	0.2423	0.141
Mof_H 	H 	0.1279	0.3496	0.1765	-0.042
Mof_H 	H 	0.1954	0.589	0.3154	0.043
Mof_H 	H 	0.1454	0.6711	0.2719	0.048
Mof_H 	H 	0.1812	0.8438	0.3892	0.047
Mof_H 	H 	0.0981	0.8269	0.3404	0.043
Mof_H 	H 	0.9023	0.8876	0.5023	-0.051
Mof_H 	H 	0.0337	0.8775	0.4342	0.153
Mof_H 	H 	0.9859	0.5564	0.4338	0.163
Mof_H 	H 	0.8776	0.5753	0.5091	-0.054
Mof_H 	H 	0.4712	0.1341	0.1	0.063
Mof_H 	H 	0.082	0.0745	0.1226	-0.037
Mof_H 	H 	0.0645	0.936	0.1845	0.141
Mof_H 	H 	0.3645	0.0167	0.2423	0.141
Mof_H 	H 	0.3721	0.1504	0.1765	-0.042
Mof_H 	H 	0.3046	0.911	0.3154	0.043
Mof_H 	H 	0.3546	0.8289	0.2719	0.048
Mof_H 	H 	0.3188	0.6562	0.3892	0.047
Mof_H 	H 	0.4019	0.6731	0.3404	0.043
Mof_H 	H 	0.5977	0.6124	0.5023	-0.051
Mof_H 	H 	0.4663	0.6225	0.4342	0.153
Mof_H 	H 	0.5141	0.9436	0.4338	0.163
Mof_H 	H 	0.6224	0.9247	0.5091	-0.054
Mof_H 	H 	0.0288	0.3659	0.1	0.063
Mof_H 	H 	0.5745	0.918	0.6226	-0.037
Mof_H 	H 	0.436	0.9355	0.6845	0.141
Mof_H 	H 	0.5167	0.6355	0.7423	0.141
Mof_H 	H 	0.6504	0.6279	0.6765	-0.042
Mof_H 	H 	0.411	0.6954	0.8154	0.043
Mof_H 	H 	0.3289	0.6454	0.7719	0.048
Mof_H 	H 	0.1562	0.6812	0.8892	0.047
Mof_H 	H 	0.1731	0.5981	0.8404	0.043
Mof_H 	H 	0.1124	0.4023	0.0023	-0.049
Mof_H 	H 	0.1225	0.5337	0.9342	0.152
Mof_H 	H 	0.4436	0.4859	0.9338	0.162
Mof_H 	H 	0.4247	0.3776	0.0091	-0.052
Mof_H 	H 	0.8659	0.9712	0.6	0.063
Mof_H 	H 	0.9255	0.582	0.6226	-0.037
Mof_H 	H 	0.064	0.5645	0.6845	0.141
Mof_H 	H 	0.9833	0.8645	0.7423	0.141
Mof_H 	H 	0.8496	0.8721	0.6765	-0.042
Mof_H 	H 	0.089	0.8046	0.8154	0.042
Mof_H 	H 	0.1711	0.8546	0.7719	0.048
Mof_H 	H 	0.3438	0.8188	0.8892	0.047
Mof_H 	H 	0.3269	0.9019	0.8404	0.044
Mof_H 	H 	0.3876	0.0977	0.0023	-0.048
Mof_H 	H 	0.3775	0.9663	0.9342	0.151
Mof_H 	H 	0.0564	0.0141	0.9338	0.161
Mof_H 	H 	0.0753	0.1224	0.0091	-0.05
Mof_H 	H 	0.6341	0.5288	0.6	0.063
Mof_C 	C 	0.3596	0.4386	0.14646	0.155
Mof_C 	C 	0.3714	0.5214	0.1837	-0.288
Mof_C 	C 	0.286	0.5413	0.22058	0.3
Mof_C 	C 	0.1938	0.4745	0.21797	-0.298
Mof_C 	C 	0.1908	0.394	0.17803	0.166
Mof_C 	C 	0.2117	0.652	0.29218	0.013
Mof_C 	C 	0.1541	0.791	0.36255	0.009
Mof_C 	C 	0.9232	0.818	0.48982	0.192
Mof_C 	C 	0.0022	0.8132	0.44816	-0.342
Mof_C 	C 	0.0312	0.7135	0.42901	0.358
Mof_C 	C 	0.9762	0.626	0.44932	-0.351
Mof_C 	C 	0.9059	0.6389	0.49281	0.212
Mof_C 	C 	0.1404	0.0614	0.14646	0.156
Mof_C 	C 	0.1286	0.9786	0.1837	-0.289
Mof_C 	C 	0.214	0.9587	0.22058	0.3
Mof_C 	C 	0.3062	0.0255	0.21797	-0.297
Mof_C 	C 	0.3092	0.106	0.17803	0.166
Mof_C 	C 	0.2883	0.848	0.29218	0.013
Mof_C 	C 	0.3459	0.709	0.36255	0.009
Mof_C 	C 	0.5768	0.682	0.48982	0.192
Mof_C 	C 	0.4978	0.6868	0.44816	-0.341
Mof_C 	C 	0.4688	0.7865	0.42901	0.358
Mof_C 	C 	0.5238	0.874	0.44932	-0.351
Mof_C 	C 	0.5941	0.8611	0.49281	0.212
Mof_C 	C 	0.5614	0.8596	0.64646	0.155
Mof_C 	C 	0.4786	0.8714	0.6837	-0.288
Mof_C 	C 	0.4587	0.786	0.72058	0.3
Mof_C 	C 	0.5255	0.6938	0.71797	-0.298
Mof_C 	C 	0.606	0.6908	0.67803	0.166
Mof_C 	C 	0.348	0.7117	0.79218	0.013
Mof_C 	C 	0.209	0.6541	0.86255	0.009
Mof_C 	C 	0.182	0.4232	0.98982	0.188
Mof_C 	C 	0.1868	0.5022	0.94816	-0.339
Mof_C 	C 	0.2865	0.5312	0.92901	0.356
Mof_C 	C 	0.374	0.4762	0.94932	-0.349
Mof_C 	C 	0.3611	0.4059	0.99281	0.209
Mof_C 	C 	0.9386	0.6404	0.64646	0.155
Mof_C 	C 	0.0214	0.6286	0.6837	-0.289
Mof_C 	C 	0.0413	0.714	0.72058	0.3
Mof_C 	C 	0.9745	0.8062	0.71797	-0.297
Mof_C 	C 	0.894	0.8092	0.67803	0.166
Mof_C 	C 	0.152	0.7883	0.79218	0.013
Mof_C 	C 	0.291	0.8459	0.86255	0.009
Mof_C 	C 	0.318	0.0768	0.98982	0.185
Mof_C 	C 	0.3132	0.9978	0.94816	-0.336
Mof_C 	C 	0.2135	0.9688	0.92901	0.355
Mof_C 	C 	0.126	0.0238	0.94932	-0.347
Mof_C 	C 	0.1389	0.0941	0.99281	0.205
Mof_C 	C 	0.25	0.75	0.32638	0.022
Mof_C 	C 	0.25	0.75	0.82638	0.022
Mof_S 	S 	0.4508	0.22122	0.07879	-0.253
Mof_S 	S 	0.0492	0.27878	0.07879	-0.253
Mof_S 	S 	0.77878	0.9508	0.57879	-0.253
Mof_S 	S 	0.72122	0.5492	0.57879	-0.253
Mof_N 	N 	0.2689	0.3744	0.14185	-0.275
Mof_N 	N 	0.8769	0.7323	0.51241	-0.295
Mof_N 	N 	0.2311	0.1256	0.14185	-0.276
Mof_N 	N 	0.6231	0.7677	0.51241	-0.295
Mof_N 	N 	0.6256	0.7689	0.64185	-0.275
Mof_N 	N 	0.2677	0.3769	0.01241	-0.293
Mof_N 	N 	0.8744	0.7311	0.64185	-0.275
Mof_N 	N 	0.2323	0.1231	0.01241	-0.291
Mof_O 	O 	0.30052	0.62605	0.25549	-0.254
Mof_O 	O 	0.10813	0.6957	0.38953	-0.267
Mof_O 	O 	0.19948	0.87395	0.25549	-0.254
Mof_O 	O 	0.39187	0.8043	0.38953	-0.267
Mof_O 	O 	0.37395	0.80052	0.75549	-0.254
Mof_O 	O 	0.3043	0.60813	0.88953	-0.266
Mof_O 	O 	0.12605	0.69948	0.75549	-0.254
Mof_O 	O 	0.1957	0.89187	0.88953	-0.266
_end
