data_functionalizedCrystal
_audit_creation_method	'EQeq! by Chris Wilmer'
_symmetry_space_group_name_H-M	'P1'
_symmetry_Int_Tables_number	1
_symmetry_cell_setting	triclinic
loop_
_symmetry_equiv_pos_as_xyz
  x,y,z
_cell_length_a	8.664
_cell_length_b	8.664
_cell_length_c	10.861
_cell_angle_alpha	90
_cell_angle_beta	90
_cell_angle_gamma	120
loop_
_atom_site_label
_atom_site_type_symbol
_atom_site_fract_x
_atom_site_fract_y
_atom_site_fract_z
_atom_site_charge
Mof_O 	O 	0.81124	0.97792	0.93463	-0.226
Mof_O 	O 	0.19387	0.88208	0.63707	-0.267
Mof_C 	C 	0.47836	0.94249	0.72677	0.083
Mof_C 	C 	0.31488	0.94006	0.72883	0.131
Mof_O 	O 	0.02208	0.83332	0.26796	-0.358
Mof_O 	O 	0.11792	0.31179	0.9704	-0.174
Mof_C 	C 	0.05751	0.53587	0.0601	0.027
Mof_C 	C 	0.05994	0.37482	0.06216	0.009
Mof_O 	O 	0.16668	0.18876	0.6013	-0.389
Mof_O 	O 	0.68821	0.80613	0.30374	-0.236
Mof_C 	C 	0.46413	0.52164	0.39344	0.039
Mof_C 	C 	0.62518	0.68512	0.3955	0.088
Mof_O 	O 	0.97792	0.81124	0.06537	-0.284
Mof_O 	O 	0.88208	0.19387	0.36293	-0.266
Mof_C 	C 	0.94249	0.47836	0.27323	0.088
Mof_C 	C 	0.94006	0.31488	0.27117	0.106
Mof_O 	O 	0.83332	0.02208	0.73204	-0.355
Mof_O 	O 	0.31179	0.11792	0.0296	-0.318
Mof_C 	C 	0.53587	0.05751	0.9399	0.045
Mof_C 	C 	0.37482	0.05994	0.93784	0.168
Mof_O 	O 	0.18876	0.16668	0.3987	-0.391
Mof_O 	O 	0.80613	0.68821	0.69626	-0.223
Mof_C 	C 	0.52164	0.46413	0.60656	0.048
Mof_C 	C 	0.68512	0.62518	0.6045	0.087
Mof_Fe	Fe	-1.82855e-16	0.94403	0.66667	0.982
Mof_Fe	Fe	0.05597	0.05597	-0	0.811
Mof_Fe	Fe	0.94403	0	0.33333	0.974
Mof_O 	O 	0.1133	0	0.83333	-0.354
Mof_C 	C 	0.7558	0	0.83333	0.342
Mof_C 	C 	0.58218	0	0.83333	-0.128
Mof_C 	C 	0.2695	0	0.83333	0.02
Mof_O 	O 	-1.55234e-17	0.1133	0.16667	-0.397
Mof_C 	C 	-2.5587e-17	0.7558	0.16667	0.347
Mof_C 	C 	-6.58414e-17	0.58218	0.16667	-0.146
Mof_C 	C 	-2.5587e-17	0.2695	0.16667	0.059
Mof_O 	O 	0.8867	0.8867	0.5	-0.327
Mof_C 	C 	0.2442	0.2442	0.5	0.413
Mof_C 	C 	0.41782	0.41782	0.5	-0.114
Mof_C 	C 	0.7305	0.7305	0.5	0.086
_end
