# CIF file generated by openbabel 3.1.0, see https://openbabel.org
data_I
_chemical_name_common 'image0'
_cell_length_a 8.105
_cell_length_b 16.969
_cell_length_c 17.666
_cell_angle_alpha 90
_cell_angle_beta 102.495
_cell_angle_gamma 90
_space_group_name_H-M_alt 'P 1'
_space_group_name_Hall 'P 1'
loop_
    _symmetry_equiv_pos_as_xyz
    x,y,z
loop_
    _atom_site_label
    _atom_site_type_symbol
    _atom_site_fract_x
    _atom_site_fract_y
    _atom_site_fract_z
    _atom_site_occupancy
    Cu1      Cu       0.00577    0.70429    0.28783    1.000
    Cu2      Cu       0.20535    0.60267    0.17002    1.000
    Cu3      Cu       0.53558    0.66737    0.97293    1.000
    Cu4      Cu       0.40762    0.58083    0.79756    1.000
    C1       C        0.89150    0.65570    0.05860    1.000
    H1       H        0.92610    0.63670    0.01390    1.000
    C2       C        0.74210    0.70210    0.13380    1.000
    H2       H        0.65000    0.72280    0.15290    1.000
    C3       C        0.72010    0.82750    0.27830    1.000
    H3       H        0.71840    0.84550    0.22730    1.000
    C4       C        0.78240    0.76590    0.38390    1.000
    H4       H        0.83460    0.73090    0.42390    1.000
    C5       C        0.30470    0.69780    0.39740    1.000
    C6       C        0.34820    0.65430    0.32680    1.000
    H5       H        0.44780    0.68140    0.31340    1.000
    C7       C        0.39650    0.57040    0.34620    1.000
    H6       H        0.29810    0.54230    0.35810    1.000
    H7       H        0.48840    0.56910    0.39330    1.000
    C8       C        0.45410    0.52760    0.28200    1.000
    C9       C        0.28840    0.58720    0.02370    1.000
    C10      C        0.27110    0.55530    0.94120    1.000
    H8       H        0.30890    0.49910    0.94290    1.000
    C11      C        0.11350    0.56220    0.89500    1.000
    H9       H        0.08730    0.61910    0.88850    1.000
    H10      H        0.03210    0.53920    0.92330    1.000
    C12      C        0.07960    0.52480    0.81370    1.000
    N1       N        0.65800    0.81390    0.38980    1.000
    N2       N        0.61800    0.85400    0.32060    1.000
    N3       N        0.82780    0.77200    0.31460    1.000
    N4       N        0.89500    0.68760    0.17780    1.000
    N5       N        0.98970    0.65830    0.12910    1.000
    N6       N        0.73480    0.68370    0.05890    1.000
    O1       O        0.15570    0.72340    0.38970    1.000
    O2       O        0.41870    0.70650    0.45670    1.000
    O3       O        0.20990    0.66230    0.26260    1.000
    O4       O        0.41760    0.55120    0.21180    1.000
    O5       O        0.53700    0.46370    0.29940    1.000
    O6       O        0.19470    0.55780    0.06560    1.000
    O7       O        0.40120    0.63780    0.04720    1.000
    O8       O        0.38240    0.60590    0.90110    1.000
    O9       O        0.19790    0.52080    0.77730    1.000
    O10      O        0.93730    0.50440    0.78570    1.000
    Cu5      Cu       0.99423    0.20429    0.21217    1.000
    Cu6      Cu       0.79465    0.10267    0.32998    1.000
    Cu7      Cu       0.46442    0.16737    0.52707    1.000
    Cu8      Cu       0.59238    0.08083    0.70244    1.000
    C13      C        0.10850    0.15570    0.44140    1.000
    H11      H        0.07390    0.13670    0.48610    1.000
    C14      C        0.25790    0.20210    0.36620    1.000
    H12      H        0.35000    0.22280    0.34710    1.000
    C15      C        0.27990    0.32750    0.22170    1.000
    H13      H        0.28160    0.34550    0.27270    1.000
    C16      C        0.21760    0.26590    0.11610    1.000
    H14      H        0.16540    0.23090    0.07610    1.000
    C17      C        0.69530    0.19780    0.10260    1.000
    C18      C        0.65180    0.15430    0.17320    1.000
    H15      H        0.55220    0.18140    0.18660    1.000
    C19      C        0.60350    0.07040    0.15380    1.000
    H16      H        0.70190    0.04230    0.14190    1.000
    H17      H        0.51160    0.06910    0.10670    1.000
    C20      C        0.54590    0.02760    0.21800    1.000
    C21      C        0.71160    0.08720    0.47630    1.000
    C22      C        0.72890    0.05530    0.55880    1.000
    H18      H        0.69110    0.99910    0.55710    1.000
    C23      C        0.88650    0.06220    0.60500    1.000
    H19      H        0.91270    0.11910    0.61150    1.000
    H20      H        0.96790    0.03920    0.57670    1.000
    C24      C        0.92040    0.02480    0.68630    1.000
    N7       N        0.34200    0.31390    0.11020    1.000
    N8       N        0.38200    0.35400    0.17940    1.000
    N9       N        0.17220    0.27200    0.18540    1.000
    N10      N        0.10500    0.18760    0.32220    1.000
    N11      N        0.01030    0.15830    0.37090    1.000
    N12      N        0.26520    0.18370    0.44110    1.000
    O11      O        0.84430    0.22340    0.11030    1.000
    O12      O        0.58130    0.20650    0.04330    1.000
    O13      O        0.79010    0.16230    0.23740    1.000
    O14      O        0.58240    0.05120    0.28820    1.000
    O15      O        0.46300    0.96370    0.20060    1.000
    O16      O        0.80530    0.05780    0.43440    1.000
    O17      O        0.59880    0.13780    0.45280    1.000
    O18      O        0.61760    0.10590    0.59890    1.000
    O19      O        0.80210    0.02080    0.72270    1.000
    O20      O        0.06270    0.00440    0.71430    1.000
    Cu9      Cu       0.99423    0.29571    0.71217    1.000
    Cu10     Cu       0.79465    0.39733    0.82998    1.000
    Cu11     Cu       0.46442    0.33263    0.02707    1.000
    Cu12     Cu       0.59238    0.41917    0.20244    1.000
    C25      C        0.10850    0.34430    0.94140    1.000
    H21      H        0.07390    0.36330    0.98610    1.000
    C26      C        0.25790    0.29790    0.86620    1.000
    H22      H        0.35000    0.27720    0.84710    1.000
    C27      C        0.27990    0.17250    0.72170    1.000
    H23      H        0.28160    0.15450    0.77270    1.000
    C28      C        0.21760    0.23410    0.61610    1.000
    H24      H        0.16540    0.26910    0.57610    1.000
    C29      C        0.69530    0.30220    0.60260    1.000
    C30      C        0.65180    0.34570    0.67320    1.000
    H25      H        0.55220    0.31860    0.68660    1.000
    C31      C        0.60350    0.42960    0.65380    1.000
    H26      H        0.70190    0.45770    0.64190    1.000
    H27      H        0.51160    0.43090    0.60670    1.000
    C32      C        0.54590    0.47240    0.71800    1.000
    C33      C        0.71160    0.41280    0.97630    1.000
    C34      C        0.72890    0.44470    0.05880    1.000
    H28      H        0.69110    0.50090    0.05710    1.000
    C35      C        0.88650    0.43780    0.10500    1.000
    H29      H        0.91270    0.38090    0.11150    1.000
    H30      H        0.96790    0.46080    0.07670    1.000
    C36      C        0.92040    0.47520    0.18630    1.000
    N13      N        0.34200    0.18610    0.61020    1.000
    N14      N        0.38200    0.14600    0.67940    1.000
    N15      N        0.17220    0.22800    0.68540    1.000
    N16      N        0.10500    0.31240    0.82220    1.000
    N17      N        0.01030    0.34170    0.87090    1.000
    N18      N        0.26520    0.31630    0.94110    1.000
    O21      O        0.84430    0.27660    0.61030    1.000
    O22      O        0.58130    0.29350    0.54330    1.000
    O23      O        0.79010    0.33770    0.73740    1.000
    O24      O        0.58240    0.44880    0.78820    1.000
    O25      O        0.46300    0.53630    0.70060    1.000
    O26      O        0.80530    0.44220    0.93440    1.000
    O27      O        0.59880    0.36220    0.95280    1.000
    O28      O        0.61760    0.39410    0.09890    1.000
    O29      O        0.80210    0.47920    0.22270    1.000
    O30      O        0.06270    0.49560    0.21430    1.000
    Cu13     Cu       0.00577    0.79571    0.78783    1.000
    Cu14     Cu       0.20535    0.89733    0.67002    1.000
    Cu15     Cu       0.53558    0.83263    0.47293    1.000
    Cu16     Cu       0.40762    0.91917    0.29756    1.000
    C37      C        0.89150    0.84430    0.55860    1.000
    H31      H        0.92610    0.86330    0.51390    1.000
    C38      C        0.74210    0.79790    0.63380    1.000
    H32      H        0.65000    0.77720    0.65290    1.000
    C39      C        0.72010    0.67250    0.77830    1.000
    H33      H        0.71840    0.65450    0.72730    1.000
    C40      C        0.78240    0.73410    0.88390    1.000
    H34      H        0.83460    0.76910    0.92390    1.000
    C41      C        0.30470    0.80220    0.89740    1.000
    C42      C        0.34820    0.84570    0.82680    1.000
    H35      H        0.44780    0.81860    0.81340    1.000
    C43      C        0.39650    0.92960    0.84620    1.000
    H36      H        0.29810    0.95770    0.85810    1.000
    H37      H        0.48840    0.93090    0.89330    1.000
    C44      C        0.45410    0.97240    0.78200    1.000
    C45      C        0.28840    0.91280    0.52370    1.000
    C46      C        0.27110    0.94470    0.44120    1.000
    H38      H        0.30890    0.00090    0.44290    1.000
    C47      C        0.11350    0.93780    0.39500    1.000
    H39      H        0.08730    0.88090    0.38850    1.000
    H40      H        0.03210    0.96080    0.42330    1.000
    C48      C        0.07960    0.97520    0.31370    1.000
    N19      N        0.65800    0.68610    0.88980    1.000
    N20      N        0.61800    0.64600    0.82060    1.000
    N21      N        0.82780    0.72800    0.81460    1.000
    N22      N        0.89500    0.81240    0.67780    1.000
    N23      N        0.98970    0.84170    0.62910    1.000
    N24      N        0.73480    0.81630    0.55890    1.000
    O31      O        0.15570    0.77660    0.88970    1.000
    O32      O        0.41870    0.79350    0.95670    1.000
    O33      O        0.20990    0.83770    0.76260    1.000
    O34      O        0.41760    0.94880    0.71180    1.000
    O35      O        0.53700    0.03630    0.79940    1.000
    O36      O        0.19470    0.94220    0.56560    1.000
    O37      O        0.40120    0.86220    0.54720    1.000
    O38      O        0.38240    0.89410    0.40110    1.000
    O39      O        0.19790    0.97920    0.27730    1.000
    O40      O        0.93730    0.99560    0.28570    1.000
