data_functionalizedCrystal
_audit_creation_method	'EQeq! by Chris Wilmer'
_symmetry_space_group_name_H-M	'P1'
_symmetry_Int_Tables_number	1
_symmetry_cell_setting	triclinic
loop_
_symmetry_equiv_pos_as_xyz
  x,y,z
_cell_length_a	24.494
_cell_length_b	24.494
_cell_length_c	24.494
_cell_angle_alpha	90
_cell_angle_beta	90
_cell_angle_gamma	90
loop_
_atom_site_label
_atom_site_type_symbol
_atom_site_fract_x
_atom_site_fract_y
_atom_site_fract_z
_atom_site_charge
Mof_Cu	Cu	0.20266	0.4841	0.14612	0.915
Mof_Cu	Cu	0.21402	0.38305	0.05631	0.915
Mof_N 	N 	0.22397	0.41168	0.17034	-0.196
Mof_N 	N 	0.22575	0.36941	0.135	-0.19
Mof_O 	O 	0.19413	0.39076	0.97885	-0.428
Mof_O 	O 	0.05523	0.37149	0.82798	-0.446
Mof_O 	O 	0.18256	0.45166	0.07731	-0.41
Mof_O 	O 	0.3226	0.46008	0.76522	-0.398
Mof_O 	O 	0.25486	0.48298	0.70783	-0.397
Mof_O 	O 	0.27609	0.42498	0.95763	-0.265
Mof_O 	O 	0.06857	0.4185	0.75214	-0.284
Mof_C 	C 	0.21007	0.41754	0.8866	-0.108
Mof_C 	C 	0.15677	0.4059	0.87064	0.044
Mof_C 	C 	0.27274	0.46477	0.7523	0.355
Mof_C 	C 	0.14101	0.41467	0.8166	-0.114
Mof_C 	C 	0.23157	0.44588	0.79401	-0.113
Mof_C 	C 	0.17841	0.4358	0.77866	0.048
Mof_C 	C 	0.2476	0.43662	0.84776	0.046
Mof_C 	C 	0.22918	0.41054	0.94509	0.327
Mof_C 	C 	0.2303	0.3232	0.164	0.084
Mof_H 	H 	0.2323	0.2883	0.1494	0.003
Mof_C 	C 	0.08406	0.40111	0.79695	0.343
Mof_C 	C 	0.2313	0.3356	0.2191	-0.141
Mof_H 	H 	0.2341	0.3114	0.2482	0.081
Mof_C 	C 	0.2273	0.3914	0.22122	0.085
Mof_H 	H 	0.227	0.4121	0.2531	0.008
Mof_C 	C 	0.1426	0.4778	0.0424	-0.115
Mof_H 	H 	0.1373	0.4563	0.0101	0.069
Mof_H 	H 	0.1554	0.5135	0.0324	0.076
Mof_H 	H 	0.1086	0.4811	0.0616	0.061
Mof_H 	H 	0.134	0.3921	0.8936	0.017
Mof_H 	H 	0.2856	0.4409	0.8574	0.049
Mof_H 	H 	0.167	0.444	0.742	0.047
Mof_Cu	Cu	0.29734	0.5159	0.64612	0.915
Mof_Cu	Cu	0.28598	0.61695	0.55631	0.915
Mof_N 	N 	0.27603	0.58832	0.67034	-0.196
Mof_N 	N 	0.27425	0.63059	0.635	-0.189
Mof_O 	O 	0.30587	0.60924	0.47885	-0.427
Mof_O 	O 	0.44477	0.62851	0.32798	-0.445
Mof_O 	O 	0.31744	0.54834	0.57731	-0.409
Mof_O 	O 	0.1774	0.53992	0.26522	-0.396
Mof_O 	O 	0.24514	0.51702	0.20783	-0.396
Mof_O 	O 	0.22391	0.57502	0.45763	-0.263
Mof_O 	O 	0.43143	0.5815	0.25214	-0.283
Mof_C 	C 	0.28993	0.58246	0.3866	-0.107
Mof_C 	C 	0.34323	0.5941	0.37064	0.045
Mof_C 	C 	0.22726	0.53523	0.2523	0.356
Mof_C 	C 	0.35899	0.58533	0.3166	-0.113
Mof_C 	C 	0.26843	0.55412	0.29401	-0.112
Mof_C 	C 	0.32159	0.5642	0.27866	0.049
Mof_C 	C 	0.2524	0.56338	0.34776	0.047
Mof_C 	C 	0.27082	0.58946	0.44509	0.328
Mof_C 	C 	0.2697	0.6768	0.664	0.085
Mof_H 	H 	0.2677	0.7117	0.6494	0.004
Mof_C 	C 	0.41594	0.59889	0.29695	0.344
Mof_C 	C 	0.2687	0.6644	0.7191	-0.14
Mof_H 	H 	0.2659	0.6886	0.7482	0.082
Mof_C 	C 	0.2727	0.6086	0.72122	0.086
Mof_H 	H 	0.273	0.5879	0.7531	0.009
Mof_C 	C 	0.3574	0.5222	0.5424	-0.114
Mof_H 	H 	0.3627	0.5437	0.5101	0.069
Mof_H 	H 	0.3446	0.4865	0.5324	0.076
Mof_H 	H 	0.3914	0.5189	0.5616	0.062
Mof_H 	H 	0.366	0.6079	0.3936	0.018
Mof_H 	H 	0.2144	0.5591	0.3574	0.05
Mof_H 	H 	0.333	0.556	0.242	0.048
Mof_Cu	Cu	0.79734	0.9841	0.35388	0.916
Mof_Cu	Cu	0.78598	0.88305	0.44369	0.916
Mof_N 	N 	0.77603	0.91168	0.32966	-0.195
Mof_N 	N 	0.77425	0.86941	0.365	-0.189
Mof_O 	O 	0.80587	0.89076	0.52115	-0.427
Mof_O 	O 	0.94477	0.87149	0.67202	-0.445
Mof_O 	O 	0.81744	0.95166	0.42269	-0.409
Mof_O 	O 	0.6774	0.96008	0.73478	-0.396
Mof_O 	O 	0.74514	0.98298	0.79217	-0.396
Mof_O 	O 	0.72391	0.92498	0.54237	-0.263
Mof_O 	O 	0.93143	0.9185	0.74786	-0.283
Mof_C 	C 	0.78993	0.91754	0.6134	-0.107
Mof_C 	C 	0.84323	0.9059	0.62936	0.045
Mof_C 	C 	0.72726	0.96477	0.7477	0.356
Mof_C 	C 	0.85899	0.91467	0.6834	-0.113
Mof_C 	C 	0.76843	0.94588	0.70599	-0.111
Mof_C 	C 	0.82159	0.9358	0.72134	0.049
Mof_C 	C 	0.7524	0.93662	0.65224	0.047
Mof_C 	C 	0.77082	0.91054	0.55491	0.328
Mof_C 	C 	0.7697	0.8232	0.336	0.085
Mof_H 	H 	0.7677	0.7883	0.3506	0.004
Mof_C 	C 	0.91594	0.90111	0.70305	0.344
Mof_C 	C 	0.7687	0.8356	0.2809	-0.14
Mof_H 	H 	0.7659	0.8114	0.2518	0.082
Mof_C 	C 	0.7727	0.8914	0.27878	0.086
Mof_H 	H 	0.773	0.9121	0.2469	0.009
Mof_C 	C 	0.8574	0.9778	0.4576	-0.112
Mof_H 	H 	0.8627	0.9563	0.4899	0.069
Mof_H 	H 	0.8446	0.0135	0.4676	0.076
Mof_H 	H 	0.8914	0.9811	0.4384	0.062
Mof_H 	H 	0.866	0.8921	0.6064	0.018
Mof_H 	H 	0.7144	0.9409	0.6426	0.05
Mof_H 	H 	0.833	0.944	0.758	0.048
Mof_Cu	Cu	0.70266	0.0159	0.85388	0.916
Mof_Cu	Cu	0.71402	0.11695	0.94369	0.916
Mof_N 	N 	0.72397	0.08832	0.82966	-0.195
Mof_N 	N 	0.72575	0.13059	0.865	-0.19
Mof_O 	O 	0.69413	0.10924	0.02115	-0.427
Mof_O 	O 	0.55523	0.12851	0.17202	-0.445
Mof_O 	O 	0.68256	0.04834	0.92269	-0.409
Mof_O 	O 	0.8226	0.03992	0.23478	-0.397
Mof_O 	O 	0.75486	0.01702	0.29217	-0.396
Mof_O 	O 	0.77609	0.07502	0.04237	-0.263
Mof_O 	O 	0.56857	0.0815	0.24786	-0.283
Mof_C 	C 	0.71007	0.08246	0.1134	-0.107
Mof_C 	C 	0.65677	0.0941	0.12936	0.045
Mof_C 	C 	0.77274	0.03523	0.2477	0.356
Mof_C 	C 	0.64101	0.08533	0.1834	-0.113
Mof_C 	C 	0.73157	0.05412	0.20599	-0.112
Mof_C 	C 	0.67841	0.0642	0.22134	0.049
Mof_C 	C 	0.7476	0.06338	0.15224	0.047
Mof_C 	C 	0.72918	0.08946	0.05491	0.328
Mof_C 	C 	0.7303	0.1768	0.836	0.085
Mof_H 	H 	0.7323	0.2117	0.8506	0.004
Mof_C 	C 	0.58406	0.09889	0.20305	0.344
Mof_C 	C 	0.7313	0.1644	0.7809	-0.14
Mof_H 	H 	0.7341	0.1886	0.7518	0.082
Mof_C 	C 	0.7273	0.1086	0.77878	0.086
Mof_H 	H 	0.727	0.0879	0.7469	0.009
Mof_C 	C 	0.6426	0.0222	0.9576	-0.117
Mof_H 	H 	0.6373	0.0437	0.9899	0.07
Mof_H 	H 	0.6554	0.9865	0.9676	0.078
Mof_H 	H 	0.6086	0.0189	0.9384	0.063
Mof_H 	H 	0.634	0.1079	0.1064	0.018
Mof_H 	H 	0.7856	0.0591	0.1426	0.05
Mof_H 	H 	0.667	0.056	0.258	0.048
Mof_Cu	Cu	0.14612	0.20266	0.4841	0.916
Mof_Cu	Cu	0.05631	0.21402	0.38305	0.916
Mof_N 	N 	0.17034	0.22397	0.41168	-0.195
Mof_N 	N 	0.135	0.22575	0.36941	-0.189
Mof_O 	O 	0.97885	0.19413	0.39076	-0.427
Mof_O 	O 	0.82798	0.05523	0.37149	-0.445
Mof_O 	O 	0.07731	0.18256	0.45166	-0.409
Mof_O 	O 	0.76522	0.3226	0.46008	-0.397
Mof_O 	O 	0.70783	0.25486	0.48298	-0.396
Mof_O 	O 	0.95763	0.27609	0.42498	-0.264
Mof_O 	O 	0.75214	0.06857	0.4185	-0.283
Mof_C 	C 	0.8866	0.21007	0.41754	-0.107
Mof_C 	C 	0.87064	0.15677	0.4059	0.045
Mof_C 	C 	0.7523	0.27274	0.46477	0.356
Mof_C 	C 	0.8166	0.14101	0.41467	-0.113
Mof_C 	C 	0.79401	0.23157	0.44588	-0.112
Mof_C 	C 	0.77866	0.17841	0.4358	0.049
Mof_C 	C 	0.84776	0.2476	0.43662	0.047
Mof_C 	C 	0.94509	0.22918	0.41054	0.328
Mof_C 	C 	0.164	0.2303	0.3232	0.085
Mof_H 	H 	0.1494	0.2323	0.2883	0.004
Mof_C 	C 	0.79695	0.08406	0.40111	0.344
Mof_C 	C 	0.2191	0.2313	0.3356	-0.14
Mof_H 	H 	0.2482	0.2341	0.3114	0.082
Mof_C 	C 	0.22122	0.2273	0.3914	0.086
Mof_H 	H 	0.2531	0.227	0.4121	0.009
Mof_C 	C 	0.0424	0.1426	0.4778	-0.114
Mof_H 	H 	0.0101	0.1373	0.4563	0.07
Mof_H 	H 	0.0324	0.1554	0.5135	0.077
Mof_H 	H 	0.0616	0.1086	0.4811	0.062
Mof_H 	H 	0.8936	0.134	0.3921	0.018
Mof_H 	H 	0.8574	0.2856	0.4409	0.05
Mof_H 	H 	0.742	0.167	0.444	0.048
Mof_Cu	Cu	0.64612	0.29734	0.5159	0.916
Mof_Cu	Cu	0.55631	0.28598	0.61695	0.916
Mof_N 	N 	0.67034	0.27603	0.58832	-0.195
Mof_N 	N 	0.635	0.27425	0.63059	-0.189
Mof_O 	O 	0.47885	0.30587	0.60924	-0.427
Mof_O 	O 	0.32798	0.44477	0.62851	-0.445
Mof_O 	O 	0.57731	0.31744	0.54834	-0.409
Mof_O 	O 	0.26522	0.1774	0.53992	-0.396
Mof_O 	O 	0.20783	0.24514	0.51702	-0.396
Mof_O 	O 	0.45763	0.22391	0.57502	-0.263
Mof_O 	O 	0.25214	0.43143	0.5815	-0.283
Mof_C 	C 	0.3866	0.28993	0.58246	-0.107
Mof_C 	C 	0.37064	0.34323	0.5941	0.045
Mof_C 	C 	0.2523	0.22726	0.53523	0.356
Mof_C 	C 	0.3166	0.35899	0.58533	-0.113
Mof_C 	C 	0.29401	0.26843	0.55412	-0.112
Mof_C 	C 	0.27866	0.32159	0.5642	0.049
Mof_C 	C 	0.34776	0.2524	0.56338	0.047
Mof_C 	C 	0.44509	0.27082	0.58946	0.328
Mof_C 	C 	0.664	0.2697	0.6768	0.085
Mof_H 	H 	0.6494	0.2677	0.7117	0.004
Mof_C 	C 	0.29695	0.41594	0.59889	0.344
Mof_C 	C 	0.7191	0.2687	0.6644	-0.14
Mof_H 	H 	0.7482	0.2659	0.6886	0.082
Mof_C 	C 	0.72122	0.2727	0.6086	0.086
Mof_H 	H 	0.7531	0.273	0.5879	0.009
Mof_C 	C 	0.5424	0.3574	0.5222	-0.114
Mof_H 	H 	0.5101	0.3627	0.5437	0.069
Mof_H 	H 	0.5324	0.3446	0.4865	0.076
Mof_H 	H 	0.5616	0.3914	0.5189	0.062
Mof_H 	H 	0.3936	0.366	0.6079	0.018
Mof_H 	H 	0.3574	0.2144	0.5591	0.05
Mof_H 	H 	0.242	0.333	0.556	0.048
Mof_Cu	Cu	0.35388	0.79734	0.9841	0.916
Mof_Cu	Cu	0.44369	0.78598	0.88305	0.916
Mof_N 	N 	0.32966	0.77603	0.91168	-0.195
Mof_N 	N 	0.365	0.77425	0.86941	-0.189
Mof_O 	O 	0.52115	0.80587	0.89076	-0.427
Mof_O 	O 	0.67202	0.94477	0.87149	-0.445
Mof_O 	O 	0.42269	0.81744	0.95166	-0.409
Mof_O 	O 	0.73478	0.6774	0.96008	-0.396
Mof_O 	O 	0.79217	0.74514	0.98298	-0.396
Mof_O 	O 	0.54237	0.72391	0.92498	-0.263
Mof_O 	O 	0.74786	0.93143	0.9185	-0.283
Mof_C 	C 	0.6134	0.78993	0.91754	-0.107
Mof_C 	C 	0.62936	0.84323	0.9059	0.045
Mof_C 	C 	0.7477	0.72726	0.96477	0.356
Mof_C 	C 	0.6834	0.85899	0.91467	-0.113
Mof_C 	C 	0.70599	0.76843	0.94588	-0.111
Mof_C 	C 	0.72134	0.82159	0.9358	0.049
Mof_C 	C 	0.65224	0.7524	0.93662	0.047
Mof_C 	C 	0.55491	0.77082	0.91054	0.328
Mof_C 	C 	0.336	0.7697	0.8232	0.085
Mof_H 	H 	0.3506	0.7677	0.7883	0.004
Mof_C 	C 	0.70305	0.91594	0.90111	0.344
Mof_C 	C 	0.2809	0.7687	0.8356	-0.14
Mof_H 	H 	0.2518	0.7659	0.8114	0.082
Mof_C 	C 	0.27878	0.7727	0.8914	0.086
Mof_H 	H 	0.2469	0.773	0.9121	0.009
Mof_C 	C 	0.4576	0.8574	0.9778	-0.112
Mof_H 	H 	0.4899	0.8627	0.9563	0.069
Mof_H 	H 	0.4676	0.8446	0.0135	0.076
Mof_H 	H 	0.4384	0.8914	0.9811	0.062
Mof_H 	H 	0.6064	0.866	0.8921	0.018
Mof_H 	H 	0.6426	0.7144	0.9409	0.05
Mof_H 	H 	0.758	0.833	0.944	0.048
Mof_Cu	Cu	0.85388	0.70266	0.0159	0.916
Mof_Cu	Cu	0.94369	0.71402	0.11695	0.916
Mof_N 	N 	0.82966	0.72397	0.08832	-0.195
Mof_N 	N 	0.865	0.72575	0.13059	-0.19
Mof_O 	O 	0.02115	0.69413	0.10924	-0.427
Mof_O 	O 	0.17202	0.55523	0.12851	-0.445
Mof_O 	O 	0.92269	0.68256	0.04834	-0.409
Mof_O 	O 	0.23478	0.8226	0.03992	-0.397
Mof_O 	O 	0.29217	0.75486	0.01702	-0.396
Mof_O 	O 	0.04237	0.77609	0.07502	-0.263
Mof_O 	O 	0.24786	0.56857	0.0815	-0.283
Mof_C 	C 	0.1134	0.71007	0.08246	-0.107
Mof_C 	C 	0.12936	0.65677	0.0941	0.045
Mof_C 	C 	0.2477	0.77274	0.03523	0.356
Mof_C 	C 	0.1834	0.64101	0.08533	-0.113
Mof_C 	C 	0.20599	0.73157	0.05412	-0.112
Mof_C 	C 	0.22134	0.67841	0.0642	0.049
Mof_C 	C 	0.15224	0.7476	0.06338	0.047
Mof_C 	C 	0.05491	0.72918	0.08946	0.328
Mof_C 	C 	0.836	0.7303	0.1768	0.085
Mof_H 	H 	0.8506	0.7323	0.2117	0.004
Mof_C 	C 	0.20305	0.58406	0.09889	0.344
Mof_C 	C 	0.7809	0.7313	0.1644	-0.14
Mof_H 	H 	0.7518	0.7341	0.1886	0.082
Mof_C 	C 	0.77878	0.7273	0.1086	0.086
Mof_H 	H 	0.7469	0.727	0.0879	0.009
Mof_C 	C 	0.9576	0.6426	0.0222	-0.117
Mof_H 	H 	0.9899	0.6373	0.0437	0.07
Mof_H 	H 	0.9676	0.6554	0.9865	0.078
Mof_H 	H 	0.9384	0.6086	0.0189	0.063
Mof_H 	H 	0.1064	0.634	0.1079	0.018
Mof_H 	H 	0.1426	0.7856	0.0591	0.05
Mof_H 	H 	0.258	0.667	0.056	0.048
Mof_Cu	Cu	0.4841	0.14612	0.20266	0.916
Mof_Cu	Cu	0.38305	0.05631	0.21402	0.916
Mof_N 	N 	0.41168	0.17034	0.22397	-0.195
Mof_N 	N 	0.36941	0.135	0.22575	-0.189
Mof_O 	O 	0.39076	0.97885	0.19413	-0.427
Mof_O 	O 	0.37149	0.82798	0.05523	-0.445
Mof_O 	O 	0.45166	0.07731	0.18256	-0.409
Mof_O 	O 	0.46008	0.76522	0.3226	-0.397
Mof_O 	O 	0.48298	0.70783	0.25486	-0.396
Mof_O 	O 	0.42498	0.95763	0.27609	-0.264
Mof_O 	O 	0.4185	0.75214	0.06857	-0.283
Mof_C 	C 	0.41754	0.8866	0.21007	-0.107
Mof_C 	C 	0.4059	0.87064	0.15677	0.045
Mof_C 	C 	0.46477	0.7523	0.27274	0.356
Mof_C 	C 	0.41467	0.8166	0.14101	-0.113
Mof_C 	C 	0.44588	0.79401	0.23157	-0.112
Mof_C 	C 	0.4358	0.77866	0.17841	0.049
Mof_C 	C 	0.43662	0.84776	0.2476	0.047
Mof_C 	C 	0.41054	0.94509	0.22918	0.328
Mof_C 	C 	0.3232	0.164	0.2303	0.085
Mof_H 	H 	0.2883	0.1494	0.2323	0.004
Mof_C 	C 	0.40111	0.79695	0.08406	0.344
Mof_C 	C 	0.3356	0.2191	0.2313	-0.14
Mof_H 	H 	0.3114	0.2482	0.2341	0.082
Mof_C 	C 	0.3914	0.22122	0.2273	0.086
Mof_H 	H 	0.4121	0.2531	0.227	0.009
Mof_C 	C 	0.4778	0.0424	0.1426	-0.114
Mof_H 	H 	0.4563	0.0101	0.1373	0.07
Mof_H 	H 	0.5135	0.0324	0.1554	0.077
Mof_H 	H 	0.4811	0.0616	0.1086	0.062
Mof_H 	H 	0.3921	0.8936	0.134	0.018
Mof_H 	H 	0.4409	0.8574	0.2856	0.05
Mof_H 	H 	0.444	0.742	0.167	0.048
Mof_Cu	Cu	0.5159	0.64612	0.29734	0.916
Mof_Cu	Cu	0.61695	0.55631	0.28598	0.916
Mof_N 	N 	0.58832	0.67034	0.27603	-0.195
Mof_N 	N 	0.63059	0.635	0.27425	-0.189
Mof_O 	O 	0.60924	0.47885	0.30587	-0.427
Mof_O 	O 	0.62851	0.32798	0.44477	-0.445
Mof_O 	O 	0.54834	0.57731	0.31744	-0.409
Mof_O 	O 	0.53992	0.26522	0.1774	-0.396
Mof_O 	O 	0.51702	0.20783	0.24514	-0.396
Mof_O 	O 	0.57502	0.45763	0.22391	-0.263
Mof_O 	O 	0.5815	0.25214	0.43143	-0.283
Mof_C 	C 	0.58246	0.3866	0.28993	-0.107
Mof_C 	C 	0.5941	0.37064	0.34323	0.045
Mof_C 	C 	0.53523	0.2523	0.22726	0.356
Mof_C 	C 	0.58533	0.3166	0.35899	-0.113
Mof_C 	C 	0.55412	0.29401	0.26843	-0.112
Mof_C 	C 	0.5642	0.27866	0.32159	0.049
Mof_C 	C 	0.56338	0.34776	0.2524	0.047
Mof_C 	C 	0.58946	0.44509	0.27082	0.328
Mof_C 	C 	0.6768	0.664	0.2697	0.085
Mof_H 	H 	0.7117	0.6494	0.2677	0.004
Mof_C 	C 	0.59889	0.29695	0.41594	0.344
Mof_C 	C 	0.6644	0.7191	0.2687	-0.14
Mof_H 	H 	0.6886	0.7482	0.2659	0.082
Mof_C 	C 	0.6086	0.72122	0.2727	0.086
Mof_H 	H 	0.5879	0.7531	0.273	0.009
Mof_C 	C 	0.5222	0.5424	0.3574	-0.114
Mof_H 	H 	0.5437	0.5101	0.3627	0.069
Mof_H 	H 	0.4865	0.5324	0.3446	0.076
Mof_H 	H 	0.5189	0.5616	0.3914	0.062
Mof_H 	H 	0.6079	0.3936	0.366	0.018
Mof_H 	H 	0.5591	0.3574	0.2144	0.05
Mof_H 	H 	0.556	0.242	0.333	0.048
Mof_Cu	Cu	0.9841	0.35388	0.79734	0.916
Mof_Cu	Cu	0.88305	0.44369	0.78598	0.916
Mof_N 	N 	0.91168	0.32966	0.77603	-0.195
Mof_N 	N 	0.86941	0.365	0.77425	-0.189
Mof_O 	O 	0.89076	0.52115	0.80587	-0.427
Mof_O 	O 	0.87149	0.67202	0.94477	-0.445
Mof_O 	O 	0.95166	0.42269	0.81744	-0.409
Mof_O 	O 	0.96008	0.73478	0.6774	-0.396
Mof_O 	O 	0.98298	0.79217	0.74514	-0.396
Mof_O 	O 	0.92498	0.54237	0.72391	-0.263
Mof_O 	O 	0.9185	0.74786	0.93143	-0.283
Mof_C 	C 	0.91754	0.6134	0.78993	-0.107
Mof_C 	C 	0.9059	0.62936	0.84323	0.045
Mof_C 	C 	0.96477	0.7477	0.72726	0.356
Mof_C 	C 	0.91467	0.6834	0.85899	-0.113
Mof_C 	C 	0.94588	0.70599	0.76843	-0.111
Mof_C 	C 	0.9358	0.72134	0.82159	0.049
Mof_C 	C 	0.93662	0.65224	0.7524	0.047
Mof_C 	C 	0.91054	0.55491	0.77082	0.328
Mof_C 	C 	0.8232	0.336	0.7697	0.085
Mof_H 	H 	0.7883	0.3506	0.7677	0.004
Mof_C 	C 	0.90111	0.70305	0.91594	0.344
Mof_C 	C 	0.8356	0.2809	0.7687	-0.14
Mof_H 	H 	0.8114	0.2518	0.7659	0.082
Mof_C 	C 	0.8914	0.27878	0.7727	0.086
Mof_H 	H 	0.9121	0.2469	0.773	0.009
Mof_C 	C 	0.9778	0.4576	0.8574	-0.112
Mof_H 	H 	0.9563	0.4899	0.8627	0.069
Mof_H 	H 	0.0135	0.4676	0.8446	0.076
Mof_H 	H 	0.9811	0.4384	0.8914	0.062
Mof_H 	H 	0.8921	0.6064	0.866	0.018
Mof_H 	H 	0.9409	0.6426	0.7144	0.05
Mof_H 	H 	0.944	0.758	0.833	0.048
Mof_Cu	Cu	0.0159	0.85388	0.70266	0.916
Mof_Cu	Cu	0.11695	0.94369	0.71402	0.916
Mof_N 	N 	0.08832	0.82966	0.72397	-0.195
Mof_N 	N 	0.13059	0.865	0.72575	-0.19
Mof_O 	O 	0.10924	0.02115	0.69413	-0.427
Mof_O 	O 	0.12851	0.17202	0.55523	-0.445
Mof_O 	O 	0.04834	0.92269	0.68256	-0.409
Mof_O 	O 	0.03992	0.23478	0.8226	-0.397
Mof_O 	O 	0.01702	0.29217	0.75486	-0.396
Mof_O 	O 	0.07502	0.04237	0.77609	-0.263
Mof_O 	O 	0.0815	0.24786	0.56857	-0.283
Mof_C 	C 	0.08246	0.1134	0.71007	-0.107
Mof_C 	C 	0.0941	0.12936	0.65677	0.045
Mof_C 	C 	0.03523	0.2477	0.77274	0.356
Mof_C 	C 	0.08533	0.1834	0.64101	-0.113
Mof_C 	C 	0.05412	0.20599	0.73157	-0.112
Mof_C 	C 	0.0642	0.22134	0.67841	0.049
Mof_C 	C 	0.06338	0.15224	0.7476	0.047
Mof_C 	C 	0.08946	0.05491	0.72918	0.328
Mof_C 	C 	0.1768	0.836	0.7303	0.085
Mof_H 	H 	0.2117	0.8506	0.7323	0.004
Mof_C 	C 	0.09889	0.20305	0.58406	0.344
Mof_C 	C 	0.1644	0.7809	0.7313	-0.14
Mof_H 	H 	0.1886	0.7518	0.7341	0.082
Mof_C 	C 	0.1086	0.77878	0.7273	0.086
Mof_H 	H 	0.0879	0.7469	0.727	0.009
Mof_C 	C 	0.0222	0.9576	0.6426	-0.117
Mof_H 	H 	0.0437	0.9899	0.6373	0.07
Mof_H 	H 	0.9865	0.9676	0.6554	0.078
Mof_H 	H 	0.0189	0.9384	0.6086	0.063
Mof_H 	H 	0.1079	0.1064	0.634	0.018
Mof_H 	H 	0.0591	0.1426	0.7856	0.05
Mof_H 	H 	0.056	0.258	0.667	0.048
Mof_Cu	Cu	0.79734	0.5159	0.85388	0.916
Mof_Cu	Cu	0.78598	0.61695	0.94369	0.916
Mof_N 	N 	0.77603	0.58832	0.82966	-0.195
Mof_N 	N 	0.77425	0.63059	0.865	-0.189
Mof_O 	O 	0.80587	0.60924	0.02115	-0.427
Mof_O 	O 	0.94477	0.62851	0.17202	-0.445
Mof_O 	O 	0.81744	0.54834	0.92269	-0.409
Mof_O 	O 	0.6774	0.53992	0.23478	-0.397
Mof_O 	O 	0.74514	0.51702	0.29217	-0.396
Mof_O 	O 	0.72391	0.57502	0.04237	-0.264
Mof_O 	O 	0.93143	0.5815	0.24786	-0.283
Mof_C 	C 	0.78993	0.58246	0.1134	-0.107
Mof_C 	C 	0.84323	0.5941	0.12936	0.045
Mof_C 	C 	0.72726	0.53523	0.2477	0.356
Mof_C 	C 	0.85899	0.58533	0.1834	-0.113
Mof_C 	C 	0.76843	0.55412	0.20599	-0.112
Mof_C 	C 	0.82159	0.5642	0.22134	0.049
Mof_C 	C 	0.7524	0.56338	0.15224	0.047
Mof_C 	C 	0.77082	0.58946	0.05491	0.328
Mof_C 	C 	0.7697	0.6768	0.836	0.085
Mof_H 	H 	0.7677	0.7117	0.8506	0.004
Mof_C 	C 	0.91594	0.59889	0.20305	0.344
Mof_C 	C 	0.7687	0.6644	0.7809	-0.14
Mof_H 	H 	0.7659	0.6886	0.7518	0.082
Mof_C 	C 	0.7727	0.6086	0.77878	0.086
Mof_H 	H 	0.773	0.5879	0.7469	0.009
Mof_C 	C 	0.8574	0.5222	0.9576	-0.114
Mof_H 	H 	0.8627	0.5437	0.9899	0.07
Mof_H 	H 	0.8446	0.4865	0.9676	0.077
Mof_H 	H 	0.8914	0.5189	0.9384	0.062
Mof_H 	H 	0.866	0.6079	0.1064	0.018
Mof_H 	H 	0.7144	0.5591	0.1426	0.05
Mof_H 	H 	0.833	0.556	0.258	0.048
Mof_Cu	Cu	0.70266	0.4841	0.35388	0.916
Mof_Cu	Cu	0.71402	0.38305	0.44369	0.916
Mof_N 	N 	0.72397	0.41168	0.32966	-0.195
Mof_N 	N 	0.72575	0.36941	0.365	-0.189
Mof_O 	O 	0.69413	0.39076	0.52115	-0.427
Mof_O 	O 	0.55523	0.37149	0.67202	-0.445
Mof_O 	O 	0.68256	0.45166	0.42269	-0.409
Mof_O 	O 	0.8226	0.46008	0.73478	-0.396
Mof_O 	O 	0.75486	0.48298	0.79217	-0.396
Mof_O 	O 	0.77609	0.42498	0.54237	-0.263
Mof_O 	O 	0.56857	0.4185	0.74786	-0.283
Mof_C 	C 	0.71007	0.41754	0.6134	-0.107
Mof_C 	C 	0.65677	0.4059	0.62936	0.045
Mof_C 	C 	0.77274	0.46477	0.7477	0.356
Mof_C 	C 	0.64101	0.41467	0.6834	-0.113
Mof_C 	C 	0.73157	0.44588	0.70599	-0.112
Mof_C 	C 	0.67841	0.4358	0.72134	0.049
Mof_C 	C 	0.7476	0.43662	0.65224	0.047
Mof_C 	C 	0.72918	0.41054	0.55491	0.328
Mof_C 	C 	0.7303	0.3232	0.336	0.085
Mof_H 	H 	0.7323	0.2883	0.3506	0.004
Mof_C 	C 	0.58406	0.40111	0.70305	0.344
Mof_C 	C 	0.7313	0.3356	0.2809	-0.14
Mof_H 	H 	0.7341	0.3114	0.2518	0.082
Mof_C 	C 	0.7273	0.3914	0.27878	0.086
Mof_H 	H 	0.727	0.4121	0.2469	0.009
Mof_C 	C 	0.6426	0.4778	0.4576	-0.114
Mof_H 	H 	0.6373	0.4563	0.4899	0.069
Mof_H 	H 	0.6554	0.5135	0.4676	0.076
Mof_H 	H 	0.6086	0.4811	0.4384	0.062
Mof_H 	H 	0.634	0.3921	0.6064	0.018
Mof_H 	H 	0.7856	0.4409	0.6426	0.05
Mof_H 	H 	0.667	0.444	0.758	0.048
Mof_Cu	Cu	0.20266	0.0159	0.64612	0.916
Mof_Cu	Cu	0.21402	0.11695	0.55631	0.916
Mof_N 	N 	0.22397	0.08832	0.67034	-0.195
Mof_N 	N 	0.22575	0.13059	0.635	-0.189
Mof_O 	O 	0.19413	0.10924	0.47885	-0.427
Mof_O 	O 	0.05523	0.12851	0.32798	-0.445
Mof_O 	O 	0.18256	0.04834	0.57731	-0.409
Mof_O 	O 	0.3226	0.03992	0.26522	-0.396
Mof_O 	O 	0.25486	0.01702	0.20783	-0.396
Mof_O 	O 	0.27609	0.07502	0.45763	-0.263
Mof_O 	O 	0.06857	0.0815	0.25214	-0.283
Mof_C 	C 	0.21007	0.08246	0.3866	-0.107
Mof_C 	C 	0.15677	0.0941	0.37064	0.045
Mof_C 	C 	0.27274	0.03523	0.2523	0.356
Mof_C 	C 	0.14101	0.08533	0.3166	-0.113
Mof_C 	C 	0.23157	0.05412	0.29401	-0.111
Mof_C 	C 	0.17841	0.0642	0.27866	0.049
Mof_C 	C 	0.2476	0.06338	0.34776	0.047
Mof_C 	C 	0.22918	0.08946	0.44509	0.328
Mof_C 	C 	0.2303	0.1768	0.664	0.085
Mof_H 	H 	0.2323	0.2117	0.6494	0.004
Mof_C 	C 	0.08406	0.09889	0.29695	0.344
Mof_C 	C 	0.2313	0.1644	0.7191	-0.14
Mof_H 	H 	0.2341	0.1886	0.7482	0.082
Mof_C 	C 	0.2273	0.1086	0.72122	0.086
Mof_H 	H 	0.227	0.0879	0.7531	0.009
Mof_C 	C 	0.1426	0.0222	0.5424	-0.112
Mof_H 	H 	0.1373	0.0437	0.5101	0.069
Mof_H 	H 	0.1554	0.9865	0.5324	0.076
Mof_H 	H 	0.1086	0.0189	0.5616	0.062
Mof_H 	H 	0.134	0.1079	0.3936	0.018
Mof_H 	H 	0.2856	0.0591	0.3574	0.05
Mof_H 	H 	0.167	0.056	0.242	0.048
Mof_Cu	Cu	0.29734	0.9841	0.14612	0.916
Mof_Cu	Cu	0.28598	0.88305	0.05631	0.916
Mof_N 	N 	0.27603	0.91168	0.17034	-0.195
Mof_N 	N 	0.27425	0.86941	0.135	-0.19
Mof_O 	O 	0.30587	0.89076	0.97885	-0.427
Mof_O 	O 	0.44477	0.87149	0.82798	-0.445
Mof_O 	O 	0.31744	0.95166	0.07731	-0.409
Mof_O 	O 	0.1774	0.96008	0.76522	-0.397
Mof_O 	O 	0.24514	0.98298	0.70783	-0.396
Mof_O 	O 	0.22391	0.92498	0.95763	-0.263
Mof_O 	O 	0.43143	0.9185	0.75214	-0.283
Mof_C 	C 	0.28993	0.91754	0.8866	-0.107
Mof_C 	C 	0.34323	0.9059	0.87064	0.045
Mof_C 	C 	0.22726	0.96477	0.7523	0.356
Mof_C 	C 	0.35899	0.91467	0.8166	-0.113
Mof_C 	C 	0.26843	0.94588	0.79401	-0.112
Mof_C 	C 	0.32159	0.9358	0.77866	0.049
Mof_C 	C 	0.2524	0.93662	0.84776	0.047
Mof_C 	C 	0.27082	0.91054	0.94509	0.328
Mof_C 	C 	0.2697	0.8232	0.164	0.085
Mof_H 	H 	0.2677	0.7883	0.1494	0.004
Mof_C 	C 	0.41594	0.90111	0.79695	0.344
Mof_C 	C 	0.2687	0.8356	0.2191	-0.14
Mof_H 	H 	0.2659	0.8114	0.2482	0.082
Mof_C 	C 	0.2727	0.8914	0.22122	0.086
Mof_H 	H 	0.273	0.9121	0.2531	0.009
Mof_C 	C 	0.3574	0.9778	0.0424	-0.117
Mof_H 	H 	0.3627	0.9563	0.0101	0.07
Mof_H 	H 	0.3446	0.0135	0.0324	0.078
Mof_H 	H 	0.3914	0.9811	0.0616	0.063
Mof_H 	H 	0.366	0.8921	0.8936	0.018
Mof_H 	H 	0.2144	0.9409	0.8574	0.05
Mof_H 	H 	0.333	0.944	0.742	0.048
Mof_Cu	Cu	0.85388	0.79734	0.5159	0.916
Mof_Cu	Cu	0.94369	0.78598	0.61695	0.916
Mof_N 	N 	0.82966	0.77603	0.58832	-0.195
Mof_N 	N 	0.865	0.77425	0.63059	-0.189
Mof_O 	O 	0.02115	0.80587	0.60924	-0.427
Mof_O 	O 	0.17202	0.94477	0.62851	-0.445
Mof_O 	O 	0.92269	0.81744	0.54834	-0.409
Mof_O 	O 	0.23478	0.6774	0.53992	-0.397
Mof_O 	O 	0.29217	0.74514	0.51702	-0.396
Mof_O 	O 	0.04237	0.72391	0.57502	-0.264
Mof_O 	O 	0.24786	0.93143	0.5815	-0.283
Mof_C 	C 	0.1134	0.78993	0.58246	-0.107
Mof_C 	C 	0.12936	0.84323	0.5941	0.045
Mof_C 	C 	0.2477	0.72726	0.53523	0.356
Mof_C 	C 	0.1834	0.85899	0.58533	-0.113
Mof_C 	C 	0.20599	0.76843	0.55412	-0.112
Mof_C 	C 	0.22134	0.82159	0.5642	0.049
Mof_C 	C 	0.15224	0.7524	0.56338	0.047
Mof_C 	C 	0.05491	0.77082	0.58946	0.328
Mof_C 	C 	0.836	0.7697	0.6768	0.085
Mof_H 	H 	0.8506	0.7677	0.7117	0.004
Mof_C 	C 	0.20305	0.91594	0.59889	0.344
Mof_C 	C 	0.7809	0.7687	0.6644	-0.14
Mof_H 	H 	0.7518	0.7659	0.6886	0.082
Mof_C 	C 	0.77878	0.7727	0.6086	0.086
Mof_H 	H 	0.7469	0.773	0.5879	0.009
Mof_C 	C 	0.9576	0.8574	0.5222	-0.114
Mof_H 	H 	0.9899	0.8627	0.5437	0.07
Mof_H 	H 	0.9676	0.8446	0.4865	0.077
Mof_H 	H 	0.9384	0.8914	0.5189	0.062
Mof_H 	H 	0.1064	0.866	0.6079	0.018
Mof_H 	H 	0.1426	0.7144	0.5591	0.05
Mof_H 	H 	0.258	0.833	0.556	0.048
Mof_Cu	Cu	0.35388	0.70266	0.4841	0.916
Mof_Cu	Cu	0.44369	0.71402	0.38305	0.916
Mof_N 	N 	0.32966	0.72397	0.41168	-0.195
Mof_N 	N 	0.365	0.72575	0.36941	-0.189
Mof_O 	O 	0.52115	0.69413	0.39076	-0.427
Mof_O 	O 	0.67202	0.55523	0.37149	-0.445
Mof_O 	O 	0.42269	0.68256	0.45166	-0.409
Mof_O 	O 	0.73478	0.8226	0.46008	-0.396
Mof_O 	O 	0.79217	0.75486	0.48298	-0.396
Mof_O 	O 	0.54237	0.77609	0.42498	-0.263
Mof_O 	O 	0.74786	0.56857	0.4185	-0.283
Mof_C 	C 	0.6134	0.71007	0.41754	-0.107
Mof_C 	C 	0.62936	0.65677	0.4059	0.045
Mof_C 	C 	0.7477	0.77274	0.46477	0.356
Mof_C 	C 	0.6834	0.64101	0.41467	-0.113
Mof_C 	C 	0.70599	0.73157	0.44588	-0.112
Mof_C 	C 	0.72134	0.67841	0.4358	0.049
Mof_C 	C 	0.65224	0.7476	0.43662	0.047
Mof_C 	C 	0.55491	0.72918	0.41054	0.328
Mof_C 	C 	0.336	0.7303	0.3232	0.085
Mof_H 	H 	0.3506	0.7323	0.2883	0.004
Mof_C 	C 	0.70305	0.58406	0.40111	0.344
Mof_C 	C 	0.2809	0.7313	0.3356	-0.14
Mof_H 	H 	0.2518	0.7341	0.3114	0.082
Mof_C 	C 	0.27878	0.7273	0.3914	0.086
Mof_H 	H 	0.2469	0.727	0.4121	0.009
Mof_C 	C 	0.4576	0.6426	0.4778	-0.114
Mof_H 	H 	0.4899	0.6373	0.4563	0.069
Mof_H 	H 	0.4676	0.6554	0.5135	0.076
Mof_H 	H 	0.4384	0.6086	0.4811	0.062
Mof_H 	H 	0.6064	0.634	0.3921	0.018
Mof_H 	H 	0.6426	0.7856	0.4409	0.05
Mof_H 	H 	0.758	0.667	0.444	0.048
Mof_Cu	Cu	0.64612	0.20266	0.0159	0.916
Mof_Cu	Cu	0.55631	0.21402	0.11695	0.916
Mof_N 	N 	0.67034	0.22397	0.08832	-0.195
Mof_N 	N 	0.635	0.22575	0.13059	-0.189
Mof_O 	O 	0.47885	0.19413	0.10924	-0.427
Mof_O 	O 	0.32798	0.05523	0.12851	-0.445
Mof_O 	O 	0.57731	0.18256	0.04834	-0.409
Mof_O 	O 	0.26522	0.3226	0.03992	-0.396
Mof_O 	O 	0.20783	0.25486	0.01702	-0.396
Mof_O 	O 	0.45763	0.27609	0.07502	-0.263
Mof_O 	O 	0.25214	0.06857	0.0815	-0.283
Mof_C 	C 	0.3866	0.21007	0.08246	-0.107
Mof_C 	C 	0.37064	0.15677	0.0941	0.045
Mof_C 	C 	0.2523	0.27274	0.03523	0.356
Mof_C 	C 	0.3166	0.14101	0.08533	-0.113
Mof_C 	C 	0.29401	0.23157	0.05412	-0.111
Mof_C 	C 	0.27866	0.17841	0.0642	0.049
Mof_C 	C 	0.34776	0.2476	0.06338	0.047
Mof_C 	C 	0.44509	0.22918	0.08946	0.328
Mof_C 	C 	0.664	0.2303	0.1768	0.085
Mof_H 	H 	0.6494	0.2323	0.2117	0.004
Mof_C 	C 	0.29695	0.08406	0.09889	0.344
Mof_C 	C 	0.7191	0.2313	0.1644	-0.14
Mof_H 	H 	0.7482	0.2341	0.1886	0.082
Mof_C 	C 	0.72122	0.2273	0.1086	0.086
Mof_H 	H 	0.7531	0.227	0.0879	0.009
Mof_C 	C 	0.5424	0.1426	0.0222	-0.112
Mof_H 	H 	0.5101	0.1373	0.0437	0.069
Mof_H 	H 	0.5324	0.1554	0.9865	0.076
Mof_H 	H 	0.5616	0.1086	0.0189	0.062
Mof_H 	H 	0.3936	0.134	0.1079	0.018
Mof_H 	H 	0.3574	0.2856	0.0591	0.05
Mof_H 	H 	0.242	0.167	0.056	0.048
Mof_Cu	Cu	0.14612	0.29734	0.9841	0.916
Mof_Cu	Cu	0.05631	0.28598	0.88305	0.916
Mof_N 	N 	0.17034	0.27603	0.91168	-0.195
Mof_N 	N 	0.135	0.27425	0.86941	-0.19
Mof_O 	O 	0.97885	0.30587	0.89076	-0.427
Mof_O 	O 	0.82798	0.44477	0.87149	-0.445
Mof_O 	O 	0.07731	0.31744	0.95166	-0.409
Mof_O 	O 	0.76522	0.1774	0.96008	-0.397
Mof_O 	O 	0.70783	0.24514	0.98298	-0.396
Mof_O 	O 	0.95763	0.22391	0.92498	-0.263
Mof_O 	O 	0.75214	0.43143	0.9185	-0.283
Mof_C 	C 	0.8866	0.28993	0.91754	-0.107
Mof_C 	C 	0.87064	0.34323	0.9059	0.045
Mof_C 	C 	0.7523	0.22726	0.96477	0.356
Mof_C 	C 	0.8166	0.35899	0.91467	-0.113
Mof_C 	C 	0.79401	0.26843	0.94588	-0.112
Mof_C 	C 	0.77866	0.32159	0.9358	0.049
Mof_C 	C 	0.84776	0.2524	0.93662	0.047
Mof_C 	C 	0.94509	0.27082	0.91054	0.328
Mof_C 	C 	0.164	0.2697	0.8232	0.085
Mof_H 	H 	0.1494	0.2677	0.7883	0.004
Mof_C 	C 	0.79695	0.41594	0.90111	0.344
Mof_C 	C 	0.2191	0.2687	0.8356	-0.14
Mof_H 	H 	0.2482	0.2659	0.8114	0.082
Mof_C 	C 	0.22122	0.2727	0.8914	0.086
Mof_H 	H 	0.2531	0.273	0.9121	0.009
Mof_C 	C 	0.0424	0.3574	0.9778	-0.117
Mof_H 	H 	0.0101	0.3627	0.9563	0.07
Mof_H 	H 	0.0324	0.3446	0.0135	0.078
Mof_H 	H 	0.0616	0.3914	0.9811	0.063
Mof_H 	H 	0.8936	0.366	0.8921	0.018
Mof_H 	H 	0.8574	0.2144	0.9409	0.05
Mof_H 	H 	0.742	0.333	0.944	0.048
Mof_Cu	Cu	0.5159	0.85388	0.79734	0.916
Mof_Cu	Cu	0.61695	0.94369	0.78598	0.916
Mof_N 	N 	0.58832	0.82966	0.77603	-0.195
Mof_N 	N 	0.63059	0.865	0.77425	-0.189
Mof_O 	O 	0.60924	0.02115	0.80587	-0.427
Mof_O 	O 	0.62851	0.17202	0.94477	-0.445
Mof_O 	O 	0.54834	0.92269	0.81744	-0.409
Mof_O 	O 	0.53992	0.23478	0.6774	-0.397
Mof_O 	O 	0.51702	0.29217	0.74514	-0.396
Mof_O 	O 	0.57502	0.04237	0.72391	-0.264
Mof_O 	O 	0.5815	0.24786	0.93143	-0.283
Mof_C 	C 	0.58246	0.1134	0.78993	-0.107
Mof_C 	C 	0.5941	0.12936	0.84323	0.045
Mof_C 	C 	0.53523	0.2477	0.72726	0.356
Mof_C 	C 	0.58533	0.1834	0.85899	-0.113
Mof_C 	C 	0.55412	0.20599	0.76843	-0.112
Mof_C 	C 	0.5642	0.22134	0.82159	0.049
Mof_C 	C 	0.56338	0.15224	0.7524	0.047
Mof_C 	C 	0.58946	0.05491	0.77082	0.328
Mof_C 	C 	0.6768	0.836	0.7697	0.085
Mof_H 	H 	0.7117	0.8506	0.7677	0.004
Mof_C 	C 	0.59889	0.20305	0.91594	0.344
Mof_C 	C 	0.6644	0.7809	0.7687	-0.14
Mof_H 	H 	0.6886	0.7518	0.7659	0.082
Mof_C 	C 	0.6086	0.77878	0.7727	0.086
Mof_H 	H 	0.5879	0.7469	0.773	0.009
Mof_C 	C 	0.5222	0.9576	0.8574	-0.114
Mof_H 	H 	0.5437	0.9899	0.8627	0.07
Mof_H 	H 	0.4865	0.9676	0.8446	0.077
Mof_H 	H 	0.5189	0.9384	0.8914	0.062
Mof_H 	H 	0.6079	0.1064	0.866	0.018
Mof_H 	H 	0.5591	0.1426	0.7144	0.05
Mof_H 	H 	0.556	0.258	0.833	0.048
Mof_Cu	Cu	0.4841	0.35388	0.70266	0.916
Mof_Cu	Cu	0.38305	0.44369	0.71402	0.916
Mof_N 	N 	0.41168	0.32966	0.72397	-0.195
Mof_N 	N 	0.36941	0.365	0.72575	-0.189
Mof_O 	O 	0.39076	0.52115	0.69413	-0.427
Mof_O 	O 	0.37149	0.67202	0.55523	-0.445
Mof_O 	O 	0.45166	0.42269	0.68256	-0.409
Mof_O 	O 	0.46008	0.73478	0.8226	-0.396
Mof_O 	O 	0.48298	0.79217	0.75486	-0.396
Mof_O 	O 	0.42498	0.54237	0.77609	-0.263
Mof_O 	O 	0.4185	0.74786	0.56857	-0.283
Mof_C 	C 	0.41754	0.6134	0.71007	-0.107
Mof_C 	C 	0.4059	0.62936	0.65677	0.045
Mof_C 	C 	0.46477	0.7477	0.77274	0.356
Mof_C 	C 	0.41467	0.6834	0.64101	-0.113
Mof_C 	C 	0.44588	0.70599	0.73157	-0.112
Mof_C 	C 	0.4358	0.72134	0.67841	0.049
Mof_C 	C 	0.43662	0.65224	0.7476	0.047
Mof_C 	C 	0.41054	0.55491	0.72918	0.328
Mof_C 	C 	0.3232	0.336	0.7303	0.085
Mof_H 	H 	0.2883	0.3506	0.7323	0.004
Mof_C 	C 	0.40111	0.70305	0.58406	0.344
Mof_C 	C 	0.3356	0.2809	0.7313	-0.14
Mof_H 	H 	0.3114	0.2518	0.7341	0.082
Mof_C 	C 	0.3914	0.27878	0.7273	0.086
Mof_H 	H 	0.4121	0.2469	0.727	0.009
Mof_C 	C 	0.4778	0.4576	0.6426	-0.114
Mof_H 	H 	0.4563	0.4899	0.6373	0.069
Mof_H 	H 	0.5135	0.4676	0.6554	0.076
Mof_H 	H 	0.4811	0.4384	0.6086	0.062
Mof_H 	H 	0.3921	0.6064	0.634	0.018
Mof_H 	H 	0.4409	0.6426	0.7856	0.05
Mof_H 	H 	0.444	0.758	0.667	0.048
Mof_Cu	Cu	0.0159	0.64612	0.20266	0.916
Mof_Cu	Cu	0.11695	0.55631	0.21402	0.916
Mof_N 	N 	0.08832	0.67034	0.22397	-0.195
Mof_N 	N 	0.13059	0.635	0.22575	-0.189
Mof_O 	O 	0.10924	0.47885	0.19413	-0.427
Mof_O 	O 	0.12851	0.32798	0.05523	-0.445
Mof_O 	O 	0.04834	0.57731	0.18256	-0.409
Mof_O 	O 	0.03992	0.26522	0.3226	-0.396
Mof_O 	O 	0.01702	0.20783	0.25486	-0.396
Mof_O 	O 	0.07502	0.45763	0.27609	-0.263
Mof_O 	O 	0.0815	0.25214	0.06857	-0.283
Mof_C 	C 	0.08246	0.3866	0.21007	-0.107
Mof_C 	C 	0.0941	0.37064	0.15677	0.045
Mof_C 	C 	0.03523	0.2523	0.27274	0.356
Mof_C 	C 	0.08533	0.3166	0.14101	-0.113
Mof_C 	C 	0.05412	0.29401	0.23157	-0.111
Mof_C 	C 	0.0642	0.27866	0.17841	0.049
Mof_C 	C 	0.06338	0.34776	0.2476	0.047
Mof_C 	C 	0.08946	0.44509	0.22918	0.328
Mof_C 	C 	0.1768	0.664	0.2303	0.085
Mof_H 	H 	0.2117	0.6494	0.2323	0.004
Mof_C 	C 	0.09889	0.29695	0.08406	0.344
Mof_C 	C 	0.1644	0.7191	0.2313	-0.14
Mof_H 	H 	0.1886	0.7482	0.2341	0.082
Mof_C 	C 	0.1086	0.72122	0.2273	0.086
Mof_H 	H 	0.0879	0.7531	0.227	0.009
Mof_C 	C 	0.0222	0.5424	0.1426	-0.112
Mof_H 	H 	0.0437	0.5101	0.1373	0.069
Mof_H 	H 	0.9865	0.5324	0.1554	0.076
Mof_H 	H 	0.0189	0.5616	0.1086	0.062
Mof_H 	H 	0.1079	0.3936	0.134	0.018
Mof_H 	H 	0.0591	0.3574	0.2856	0.05
Mof_H 	H 	0.056	0.242	0.167	0.048
Mof_Cu	Cu	0.9841	0.14612	0.29734	0.916
Mof_Cu	Cu	0.88305	0.05631	0.28598	0.916
Mof_N 	N 	0.91168	0.17034	0.27603	-0.195
Mof_N 	N 	0.86941	0.135	0.27425	-0.19
Mof_O 	O 	0.89076	0.97885	0.30587	-0.427
Mof_O 	O 	0.87149	0.82798	0.44477	-0.445
Mof_O 	O 	0.95166	0.07731	0.31744	-0.409
Mof_O 	O 	0.96008	0.76522	0.1774	-0.397
Mof_O 	O 	0.98298	0.70783	0.24514	-0.396
Mof_O 	O 	0.92498	0.95763	0.22391	-0.263
Mof_O 	O 	0.9185	0.75214	0.43143	-0.283
Mof_C 	C 	0.91754	0.8866	0.28993	-0.107
Mof_C 	C 	0.9059	0.87064	0.34323	0.045
Mof_C 	C 	0.96477	0.7523	0.22726	0.356
Mof_C 	C 	0.91467	0.8166	0.35899	-0.113
Mof_C 	C 	0.94588	0.79401	0.26843	-0.112
Mof_C 	C 	0.9358	0.77866	0.32159	0.049
Mof_C 	C 	0.93662	0.84776	0.2524	0.047
Mof_C 	C 	0.91054	0.94509	0.27082	0.328
Mof_C 	C 	0.8232	0.164	0.2697	0.085
Mof_H 	H 	0.7883	0.1494	0.2677	0.004
Mof_C 	C 	0.90111	0.79695	0.41594	0.344
Mof_C 	C 	0.8356	0.2191	0.2687	-0.14
Mof_H 	H 	0.8114	0.2482	0.2659	0.082
Mof_C 	C 	0.8914	0.22122	0.2727	0.086
Mof_H 	H 	0.9121	0.2531	0.273	0.009
Mof_C 	C 	0.9778	0.0424	0.3574	-0.117
Mof_H 	H 	0.9563	0.0101	0.3627	0.07
Mof_H 	H 	0.0135	0.0324	0.3446	0.078
Mof_H 	H 	0.9811	0.0616	0.3914	0.063
Mof_H 	H 	0.8921	0.8936	0.366	0.018
Mof_H 	H 	0.9409	0.8574	0.2144	0.05
Mof_H 	H 	0.944	0.742	0.333	0.048
_end
