data_functionalizedCrystal
_audit_creation_method	'EQeq! by Chris Wilmer'
_symmetry_space_group_name_H-M	'P1'
_symmetry_Int_Tables_number	1
_symmetry_cell_setting	triclinic
loop_
_symmetry_equiv_pos_as_xyz
  x,y,z
_cell_length_a	20.463
_cell_length_b	43.252
_cell_length_c	43.252
_cell_angle_alpha	120
_cell_angle_beta	90
_cell_angle_gamma	90
loop_
_atom_site_label
_atom_site_type_symbol
_atom_site_fract_x
_atom_site_fract_y
_atom_site_fract_z
_atom_site_charge
Mof_Cu	Cu	0.9513	0.68087	0.02737	0.9
Mof_Cu	Cu	0.9513	0.3465	0.31913	0.9
Mof_Cu	Cu	0.9513	0.97263	0.6535	0.9
Mof_Cu	Cu	0.4513	0.31913	0.97263	0.9
Mof_Cu	Cu	0.4513	0.6535	0.68087	0.9
Mof_Cu	Cu	0.4513	0.02737	0.3465	0.9
Mof_Cu	Cu	0.0487	0.6535	0.97263	0.9
Mof_Cu	Cu	0.0487	0.02737	0.68087	0.9
Mof_Cu	Cu	0.0487	0.31913	0.3465	0.9
Mof_Cu	Cu	0.5487	0.3465	0.02737	0.9
Mof_Cu	Cu	0.5487	0.97263	0.31913	0.899
Mof_Cu	Cu	0.5487	0.68087	0.6535	0.899
Mof_H 	H 	0.9524	0.5492	0.9125	0.063
Mof_H 	H 	0.7478	0.5508	0.9595	0.068
Mof_H 	H 	0.8131	0.6014	0.9859	0.053
Mof_H 	H 	0.9321	0.4888	0.8644	0.032
Mof_H 	H 	0.8535	0.4366	0.845	0.109
Mof_H 	H 	0.7874	0.3615	0.8097	0.076
Mof_H 	H 	0.7639	0.3316	0.7516	0.026
Mof_H 	H 	0.2311	0.7905	0.0113	0.042
Mof_H 	H 	0.1663	0.7517	0.011	0.069
Mof_H 	H 	0.0301	0.7755	0.0866	0.058
Mof_H 	H 	0.0678	0.8339	0.1175	0.063
Mof_H 	H 	0.278	0.8489	0.0347	0.073
Mof_H 	H 	0.7128	0.4936	0.9111	0.101
Mof_H 	H 	0.15	0.8841	0.1201	0.087
Mof_H 	H 	0.3384	0.9835	0.0665	0.041
Mof_H 	H 	0.3429	0.9453	0.0939	0.074
Mof_H 	H 	0.9524	0.3633	0.4508	0.063
Mof_H 	H 	0.7478	0.4087	0.4492	0.068
Mof_H 	H 	0.8131	0.3845	0.3986	0.053
Mof_H 	H 	0.9321	0.3756	0.5112	0.032
Mof_H 	H 	0.8535	0.4084	0.5634	0.109
Mof_H 	H 	0.7874	0.4482	0.6385	0.076
Mof_H 	H 	0.7639	0.42	0.6684	0.026
Mof_H 	H 	0.2311	0.2208	0.2095	0.042
Mof_H 	H 	0.1663	0.2593	0.2483	0.069
Mof_H 	H 	0.0301	0.3111	0.2245	0.058
Mof_H 	H 	0.0678	0.2836	0.1661	0.063
Mof_H 	H 	0.278	0.1858	0.1511	0.073
Mof_H 	H 	0.7128	0.4175	0.5064	0.101
Mof_H 	H 	0.15	0.236	0.1159	0.087
Mof_H 	H 	0.3384	0.083	0.0165	0.041
Mof_H 	H 	0.3429	0.1486	0.0547	0.074
Mof_H 	H 	0.9524	0.0875	0.6367	0.063
Mof_H 	H 	0.7478	0.0405	0.5913	0.068
Mof_H 	H 	0.8131	0.0141	0.6155	0.053
Mof_H 	H 	0.9321	0.1356	0.6244	0.032
Mof_H 	H 	0.8535	0.155	0.5916	0.109
Mof_H 	H 	0.7874	0.1903	0.5518	0.076
Mof_H 	H 	0.7639	0.2484	0.58	0.026
Mof_H 	H 	0.2311	0.9887	0.7792	0.042
Mof_H 	H 	0.1663	0.989	0.7407	0.069
Mof_H 	H 	0.0301	0.9134	0.6889	0.058
Mof_H 	H 	0.0678	0.8825	0.7164	0.063
Mof_H 	H 	0.278	0.9653	0.8142	0.073
Mof_H 	H 	0.7128	0.0889	0.5825	0.101
Mof_H 	H 	0.15	0.8799	0.764	0.087
Mof_H 	H 	0.3384	0.9335	0.917	0.041
Mof_H 	H 	0.3429	0.9061	0.8514	0.074
Mof_H 	H 	0.4524	0.4508	0.0875	0.063
Mof_H 	H 	0.2478	0.4492	0.0405	0.068
Mof_H 	H 	0.3131	0.3986	0.0141	0.053
Mof_H 	H 	0.4321	0.5112	0.1356	0.032
Mof_H 	H 	0.3535	0.5634	0.155	0.109
Mof_H 	H 	0.2874	0.6385	0.1903	0.076
Mof_H 	H 	0.2639	0.6684	0.2484	0.026
Mof_H 	H 	0.7311	0.2095	0.9887	0.042
Mof_H 	H 	0.6663	0.2483	0.989	0.069
Mof_H 	H 	0.5301	0.2245	0.9134	0.058
Mof_H 	H 	0.5678	0.1661	0.8825	0.063
Mof_H 	H 	0.778	0.1511	0.9653	0.073
Mof_H 	H 	0.2128	0.5064	0.0889	0.101
Mof_H 	H 	0.65	0.1159	0.8799	0.087
Mof_H 	H 	0.8384	0.0165	0.9335	0.041
Mof_H 	H 	0.8429	0.0547	0.9061	0.074
Mof_H 	H 	0.4524	0.6367	0.5492	0.063
Mof_H 	H 	0.2478	0.5913	0.5508	0.068
Mof_H 	H 	0.3131	0.6155	0.6014	0.053
Mof_H 	H 	0.4321	0.6244	0.4888	0.032
Mof_H 	H 	0.3535	0.5916	0.4366	0.109
Mof_H 	H 	0.2874	0.5518	0.3615	0.076
Mof_H 	H 	0.2639	0.58	0.3316	0.026
Mof_H 	H 	0.7311	0.7792	0.7905	0.042
Mof_H 	H 	0.6663	0.7407	0.7517	0.069
Mof_H 	H 	0.5301	0.6889	0.7755	0.058
Mof_H 	H 	0.5678	0.7164	0.8339	0.063
Mof_H 	H 	0.778	0.8142	0.8489	0.073
Mof_H 	H 	0.2128	0.5825	0.4936	0.101
Mof_H 	H 	0.65	0.764	0.8841	0.087
Mof_H 	H 	0.8384	0.917	0.9835	0.041
Mof_H 	H 	0.8429	0.8514	0.9453	0.074
Mof_H 	H 	0.4524	0.9125	0.3633	0.063
Mof_H 	H 	0.2478	0.9595	0.4087	0.068
Mof_H 	H 	0.3131	0.9859	0.3845	0.053
Mof_H 	H 	0.4321	0.8644	0.3756	0.032
Mof_H 	H 	0.3535	0.845	0.4084	0.109
Mof_H 	H 	0.2874	0.8097	0.4482	0.076
Mof_H 	H 	0.2639	0.7516	0.42	0.026
Mof_H 	H 	0.7311	0.0113	0.2208	0.042
Mof_H 	H 	0.6663	0.011	0.2593	0.069
Mof_H 	H 	0.5301	0.0866	0.3111	0.058
Mof_H 	H 	0.5678	0.1175	0.2836	0.063
Mof_H 	H 	0.778	0.0347	0.1858	0.073
Mof_H 	H 	0.2128	0.9111	0.4175	0.101
Mof_H 	H 	0.65	0.1201	0.236	0.087
Mof_H 	H 	0.8384	0.0665	0.083	0.041
Mof_H 	H 	0.8429	0.0939	0.1486	0.074
Mof_H 	H 	0.0476	0.6367	0.0875	0.063
Mof_H 	H 	0.2522	0.5913	0.0405	0.068
Mof_H 	H 	0.1869	0.6155	0.0141	0.053
Mof_H 	H 	0.0679	0.6244	0.1356	0.032
Mof_H 	H 	0.1465	0.5916	0.155	0.109
Mof_H 	H 	0.2126	0.5518	0.1903	0.076
Mof_H 	H 	0.2361	0.58	0.2484	0.026
Mof_H 	H 	0.7689	0.7792	0.9887	0.042
Mof_H 	H 	0.8337	0.7407	0.989	0.069
Mof_H 	H 	0.9699	0.6889	0.9134	0.058
Mof_H 	H 	0.9322	0.7164	0.8825	0.063
Mof_H 	H 	0.722	0.8142	0.9653	0.073
Mof_H 	H 	0.2872	0.5825	0.0889	0.101
Mof_H 	H 	0.85	0.764	0.8799	0.087
Mof_H 	H 	0.6616	0.917	0.9335	0.041
Mof_H 	H 	0.6571	0.8514	0.9061	0.074
Mof_H 	H 	0.0476	0.9125	0.5492	0.063
Mof_H 	H 	0.2522	0.9595	0.5508	0.068
Mof_H 	H 	0.1869	0.9859	0.6014	0.053
Mof_H 	H 	0.0679	0.8644	0.4888	0.032
Mof_H 	H 	0.1465	0.845	0.4366	0.109
Mof_H 	H 	0.2126	0.8097	0.3615	0.076
Mof_H 	H 	0.2361	0.7516	0.3316	0.026
Mof_H 	H 	0.7689	0.0113	0.7905	0.042
Mof_H 	H 	0.8337	0.011	0.7517	0.069
Mof_H 	H 	0.9699	0.0866	0.7755	0.058
Mof_H 	H 	0.9322	0.1175	0.8339	0.063
Mof_H 	H 	0.722	0.0347	0.8489	0.073
Mof_H 	H 	0.2872	0.9111	0.4936	0.101
Mof_H 	H 	0.85	0.1201	0.8841	0.087
Mof_H 	H 	0.6616	0.0665	0.9835	0.041
Mof_H 	H 	0.6571	0.0939	0.9453	0.074
Mof_H 	H 	0.0476	0.4508	0.3633	0.063
Mof_H 	H 	0.2522	0.4492	0.4087	0.068
Mof_H 	H 	0.1869	0.3986	0.3845	0.053
Mof_H 	H 	0.0679	0.5112	0.3756	0.032
Mof_H 	H 	0.1465	0.5634	0.4084	0.109
Mof_H 	H 	0.2126	0.6385	0.4482	0.076
Mof_H 	H 	0.2361	0.6684	0.42	0.026
Mof_H 	H 	0.7689	0.2095	0.2208	0.042
Mof_H 	H 	0.8337	0.2483	0.2593	0.069
Mof_H 	H 	0.9699	0.2245	0.3111	0.058
Mof_H 	H 	0.9322	0.1661	0.2836	0.063
Mof_H 	H 	0.722	0.1511	0.1858	0.073
Mof_H 	H 	0.2872	0.5064	0.4175	0.101
Mof_H 	H 	0.85	0.1159	0.236	0.087
Mof_H 	H 	0.6616	0.0165	0.083	0.041
Mof_H 	H 	0.6571	0.0547	0.1486	0.074
Mof_H 	H 	0.5476	0.3633	0.9125	0.063
Mof_H 	H 	0.7522	0.4087	0.9595	0.068
Mof_H 	H 	0.6869	0.3845	0.9859	0.053
Mof_H 	H 	0.5679	0.3756	0.8644	0.032
Mof_H 	H 	0.6465	0.4084	0.845	0.109
Mof_H 	H 	0.7126	0.4482	0.8097	0.076
Mof_H 	H 	0.7361	0.42	0.7516	0.026
Mof_H 	H 	0.2689	0.2208	0.0113	0.042
Mof_H 	H 	0.3337	0.2593	0.011	0.069
Mof_H 	H 	0.4699	0.3111	0.0866	0.058
Mof_H 	H 	0.4322	0.2836	0.1175	0.063
Mof_H 	H 	0.222	0.1858	0.0347	0.073
Mof_H 	H 	0.7872	0.4175	0.9111	0.101
Mof_H 	H 	0.35	0.236	0.1201	0.087
Mof_H 	H 	0.1616	0.083	0.0665	0.041
Mof_H 	H 	0.1571	0.1486	0.0939	0.074
Mof_H 	H 	0.5476	0.0875	0.4508	0.063
Mof_H 	H 	0.7522	0.0405	0.4492	0.068
Mof_H 	H 	0.6869	0.0141	0.3986	0.053
Mof_H 	H 	0.5679	0.1356	0.5112	0.032
Mof_H 	H 	0.6465	0.155	0.5634	0.109
Mof_H 	H 	0.7126	0.1903	0.6385	0.076
Mof_H 	H 	0.7361	0.2484	0.6684	0.026
Mof_H 	H 	0.2689	0.9887	0.2095	0.042
Mof_H 	H 	0.3337	0.989	0.2483	0.069
Mof_H 	H 	0.4699	0.9134	0.2245	0.058
Mof_H 	H 	0.4322	0.8825	0.1661	0.063
Mof_H 	H 	0.222	0.9653	0.1511	0.073
Mof_H 	H 	0.7872	0.0889	0.5064	0.101
Mof_H 	H 	0.35	0.8799	0.1159	0.087
Mof_H 	H 	0.1616	0.9335	0.0165	0.041
Mof_H 	H 	0.1571	0.9061	0.0547	0.074
Mof_H 	H 	0.5476	0.5492	0.6367	0.063
Mof_H 	H 	0.7522	0.5508	0.5913	0.068
Mof_H 	H 	0.6869	0.6014	0.6155	0.053
Mof_H 	H 	0.5679	0.4888	0.6244	0.032
Mof_H 	H 	0.6465	0.4366	0.5916	0.109
Mof_H 	H 	0.7126	0.3615	0.5518	0.076
Mof_H 	H 	0.7361	0.3316	0.58	0.026
Mof_H 	H 	0.2689	0.7905	0.7792	0.042
Mof_H 	H 	0.3337	0.7517	0.7407	0.069
Mof_H 	H 	0.4699	0.7755	0.6889	0.058
Mof_H 	H 	0.4322	0.8339	0.7164	0.063
Mof_H 	H 	0.222	0.8489	0.8142	0.073
Mof_H 	H 	0.7872	0.4936	0.5825	0.101
Mof_H 	H 	0.35	0.8841	0.764	0.087
Mof_H 	H 	0.1616	0.9835	0.917	0.041
Mof_H 	H 	0.1571	0.9453	0.8514	0.074
Mof_H 	H 	0.75	0.2999	0.7001	0.081
Mof_H 	H 	0.75	0.4002	0.7001	0.081
Mof_H 	H 	0.75	0.2999	0.5998	0.081
Mof_H 	H 	0.25	0.7001	0.2999	0.081
Mof_H 	H 	0.25	0.5998	0.2999	0.081
Mof_H 	H 	0.25	0.7001	0.4002	0.081
Mof_H 	H 	0.25	0.0316	0.0632	0.073
Mof_H 	H 	0.25	0.0316	0.9684	0.073
Mof_H 	H 	0.25	0.9368	0.9684	0.073
Mof_H 	H 	0.75	0.9684	0.9368	0.073
Mof_H 	H 	0.75	0.9684	0.0316	0.073
Mof_H 	H 	0.75	0.0632	0.0316	0.073
Mof_C 	C 	0.8893	0.5803	0.9518	-0.017
Mof_C 	C 	0.9114	0.5495	0.9219	-0.053
Mof_C 	C 	0.8723	0.5192	0.9061	-0.015
Mof_C 	C 	0.811	0.5197	0.9202	0.076
Mof_C 	C 	0.7889	0.5505	0.9501	-0.1
Mof_C 	C 	0.828	0.5808	0.9659	-0.007
Mof_C 	C 	0.893	0.4902	0.876	0.001
Mof_C 	C 	0.842	0.4592	0.8632	-0.206
Mof_C 	C 	0.7692	0.3738	0.7993	-0.126
Mof_C 	C 	0.7613	0.3564	0.763	0.009
Mof_C 	C 	0.0695	0.7196	0.0254	0.213
Mof_C 	C 	0.2168	0.8092	0.033	-0.031
Mof_C 	C 	0.2181	0.8686	0.0807	0.109
Mof_C 	C 	0.1691	0.8032	0.0509	0.006
Mof_C 	C 	0.1466	0.7682	0.0323	-0.064
Mof_C 	C 	0.0945	0.7578	0.0457	-0.007
Mof_C 	C 	0.065	0.7825	0.0777	-0.017
Mof_C 	C 	0.0875	0.8174	0.0961	-0.09
Mof_C 	C 	0.1396	0.8278	0.0827	0.058
Mof_C 	C 	0.9383	0.6108	0.9653	0.207
Mof_C 	C 	0.2457	0.8434	0.0464	-0.107
Mof_C 	C 	0.7563	0.4921	0.9042	-0.184
Mof_C 	C 	0.7902	0.4636	0.8759	0.187
Mof_C 	C 	0.1666	0.8651	0.0992	-0.148
Mof_C 	C 	0.3062	0.9669	0.0631	-0.027
Mof_C 	C 	0.3077	0.9456	0.0806	-0.105
Mof_C 	C 	0.8893	0.3715	0.4197	-0.017
Mof_C 	C 	0.9114	0.3724	0.4505	-0.053
Mof_C 	C 	0.8723	0.3869	0.4808	-0.015
Mof_C 	C 	0.811	0.4005	0.4803	0.076
Mof_C 	C 	0.7889	0.3996	0.4495	-0.1
Mof_C 	C 	0.828	0.3851	0.4192	-0.007
Mof_C 	C 	0.893	0.3858	0.5098	0.001
Mof_C 	C 	0.842	0.404	0.5408	-0.206
Mof_C 	C 	0.7692	0.4255	0.6262	-0.126
Mof_C 	C 	0.7613	0.4066	0.6436	0.009
Mof_C 	C 	0.0695	0.3058	0.2804	0.213
Mof_C 	C 	0.2168	0.2238	0.1908	-0.031
Mof_C 	C 	0.2181	0.2121	0.1314	0.109
Mof_C 	C 	0.1691	0.2477	0.1968	0.006
Mof_C 	C 	0.1466	0.2641	0.2318	-0.064
Mof_C 	C 	0.0945	0.2879	0.2422	-0.007
Mof_C 	C 	0.065	0.2952	0.2175	-0.017
Mof_C 	C 	0.0875	0.2787	0.1826	-0.09
Mof_C 	C 	0.1396	0.2549	0.1722	0.058
Mof_C 	C 	0.9383	0.3545	0.3892	0.207
Mof_C 	C 	0.2457	0.203	0.1566	-0.107
Mof_C 	C 	0.7563	0.4121	0.5079	-0.184
Mof_C 	C 	0.7902	0.4123	0.5364	0.187
Mof_C 	C 	0.1666	0.2341	0.1349	-0.148
Mof_C 	C 	0.3062	0.0962	0.0331	-0.027
Mof_C 	C 	0.3077	0.135	0.0544	-0.105
Mof_C 	C 	0.8893	0.0482	0.6285	-0.017
Mof_C 	C 	0.9114	0.0781	0.6276	-0.053
Mof_C 	C 	0.8723	0.0939	0.6131	-0.015
Mof_C 	C 	0.811	0.0798	0.5995	0.076
Mof_C 	C 	0.7889	0.0499	0.6004	-0.1
Mof_C 	C 	0.828	0.0341	0.6149	-0.007
Mof_C 	C 	0.893	0.124	0.6142	0.001
Mof_C 	C 	0.842	0.1368	0.596	-0.206
Mof_C 	C 	0.7692	0.2007	0.5745	-0.126
Mof_C 	C 	0.7613	0.237	0.5934	0.009
Mof_C 	C 	0.0695	0.9746	0.6942	0.213
Mof_C 	C 	0.2168	0.967	0.7762	-0.031
Mof_C 	C 	0.2181	0.9193	0.7879	0.109
Mof_C 	C 	0.1691	0.9491	0.7523	0.006
Mof_C 	C 	0.1466	0.9677	0.7359	-0.064
Mof_C 	C 	0.0945	0.9543	0.7121	-0.007
Mof_C 	C 	0.065	0.9223	0.7048	-0.017
Mof_C 	C 	0.0875	0.9039	0.7213	-0.091
Mof_C 	C 	0.1396	0.9173	0.7451	0.058
Mof_C 	C 	0.9383	0.0347	0.6455	0.207
Mof_C 	C 	0.2457	0.9536	0.797	-0.107
Mof_C 	C 	0.7563	0.0958	0.5879	-0.184
Mof_C 	C 	0.7902	0.1241	0.5877	0.187
Mof_C 	C 	0.1666	0.9008	0.7659	-0.148
Mof_C 	C 	0.3062	0.9369	0.9038	-0.027
Mof_C 	C 	0.3077	0.9194	0.865	-0.105
Mof_C 	C 	0.3893	0.4197	0.0482	-0.017
Mof_C 	C 	0.4114	0.4505	0.0781	-0.053
Mof_C 	C 	0.3723	0.4808	0.0939	-0.015
Mof_C 	C 	0.311	0.4803	0.0798	0.076
Mof_C 	C 	0.2889	0.4495	0.0499	-0.1
Mof_C 	C 	0.328	0.4192	0.0341	-0.007
Mof_C 	C 	0.393	0.5098	0.124	0.001
Mof_C 	C 	0.342	0.5408	0.1368	-0.206
Mof_C 	C 	0.2692	0.6262	0.2007	-0.126
Mof_C 	C 	0.2613	0.6436	0.237	0.009
Mof_C 	C 	0.5695	0.2804	0.9746	0.213
Mof_C 	C 	0.7168	0.1908	0.967	-0.031
Mof_C 	C 	0.7181	0.1314	0.9193	0.109
Mof_C 	C 	0.6691	0.1968	0.9491	0.006
Mof_C 	C 	0.6466	0.2318	0.9677	-0.064
Mof_C 	C 	0.5945	0.2422	0.9543	-0.007
Mof_C 	C 	0.565	0.2175	0.9223	-0.017
Mof_C 	C 	0.5875	0.1826	0.9039	-0.09
Mof_C 	C 	0.6396	0.1722	0.9173	0.058
Mof_C 	C 	0.4383	0.3892	0.0347	0.207
Mof_C 	C 	0.7457	0.1566	0.9536	-0.107
Mof_C 	C 	0.2563	0.5079	0.0958	-0.184
Mof_C 	C 	0.2902	0.5364	0.1241	0.187
Mof_C 	C 	0.6666	0.1349	0.9008	-0.148
Mof_C 	C 	0.8062	0.0331	0.9369	-0.027
Mof_C 	C 	0.8077	0.0544	0.9194	-0.105
Mof_C 	C 	0.3893	0.6285	0.5803	-0.017
Mof_C 	C 	0.4114	0.6276	0.5495	-0.053
Mof_C 	C 	0.3723	0.6131	0.5192	-0.015
Mof_C 	C 	0.311	0.5995	0.5197	0.076
Mof_C 	C 	0.2889	0.6004	0.5505	-0.1
Mof_C 	C 	0.328	0.6149	0.5808	-0.007
Mof_C 	C 	0.393	0.6142	0.4902	0.001
Mof_C 	C 	0.342	0.596	0.4592	-0.206
Mof_C 	C 	0.2692	0.5745	0.3738	-0.126
Mof_C 	C 	0.2613	0.5934	0.3564	0.009
Mof_C 	C 	0.5695	0.6942	0.7196	0.213
Mof_C 	C 	0.7168	0.7762	0.8092	-0.031
Mof_C 	C 	0.7181	0.7879	0.8686	0.108
Mof_C 	C 	0.6691	0.7523	0.8032	0.006
Mof_C 	C 	0.6466	0.7359	0.7682	-0.064
Mof_C 	C 	0.5945	0.7121	0.7578	-0.007
Mof_C 	C 	0.565	0.7048	0.7825	-0.017
Mof_C 	C 	0.5875	0.7213	0.8174	-0.09
Mof_C 	C 	0.6396	0.7451	0.8278	0.058
Mof_C 	C 	0.4383	0.6455	0.6108	0.207
Mof_C 	C 	0.7457	0.797	0.8434	-0.107
Mof_C 	C 	0.2563	0.5879	0.4921	-0.184
Mof_C 	C 	0.2902	0.5877	0.4636	0.187
Mof_C 	C 	0.6666	0.7659	0.8651	-0.148
Mof_C 	C 	0.8062	0.9038	0.9669	-0.027
Mof_C 	C 	0.8077	0.865	0.9456	-0.105
Mof_C 	C 	0.3893	0.9518	0.3715	-0.017
Mof_C 	C 	0.4114	0.9219	0.3724	-0.053
Mof_C 	C 	0.3723	0.9061	0.3869	-0.015
Mof_C 	C 	0.311	0.9202	0.4005	0.076
Mof_C 	C 	0.2889	0.9501	0.3996	-0.1
Mof_C 	C 	0.328	0.9659	0.3851	-0.007
Mof_C 	C 	0.393	0.876	0.3858	0.001
Mof_C 	C 	0.342	0.8632	0.404	-0.206
Mof_C 	C 	0.2692	0.7993	0.4255	-0.126
Mof_C 	C 	0.2613	0.763	0.4066	0.009
Mof_C 	C 	0.5695	0.0254	0.3058	0.213
Mof_C 	C 	0.7168	0.033	0.2238	-0.031
Mof_C 	C 	0.7181	0.0807	0.2121	0.109
Mof_C 	C 	0.6691	0.0509	0.2477	0.006
Mof_C 	C 	0.6466	0.0323	0.2641	-0.064
Mof_C 	C 	0.5945	0.0457	0.2879	-0.007
Mof_C 	C 	0.565	0.0777	0.2952	-0.017
Mof_C 	C 	0.5875	0.0961	0.2787	-0.09
Mof_C 	C 	0.6396	0.0827	0.2549	0.058
Mof_C 	C 	0.4383	0.9653	0.3545	0.207
Mof_C 	C 	0.7457	0.0464	0.203	-0.107
Mof_C 	C 	0.2563	0.9042	0.4121	-0.184
Mof_C 	C 	0.2902	0.8759	0.4123	0.187
Mof_C 	C 	0.6666	0.0992	0.2341	-0.148
Mof_C 	C 	0.8062	0.0631	0.0962	-0.027
Mof_C 	C 	0.8077	0.0806	0.135	-0.105
Mof_C 	C 	0.1107	0.6285	0.0482	-0.017
Mof_C 	C 	0.0886	0.6276	0.0781	-0.053
Mof_C 	C 	0.1277	0.6131	0.0939	-0.015
Mof_C 	C 	0.189	0.5995	0.0798	0.076
Mof_C 	C 	0.2111	0.6004	0.0499	-0.1
Mof_C 	C 	0.172	0.6149	0.0341	-0.007
Mof_C 	C 	0.107	0.6142	0.124	0.001
Mof_C 	C 	0.158	0.596	0.1368	-0.206
Mof_C 	C 	0.2308	0.5745	0.2007	-0.126
Mof_C 	C 	0.2387	0.5934	0.237	0.009
Mof_C 	C 	0.9305	0.6942	0.9746	0.213
Mof_C 	C 	0.7832	0.7762	0.967	-0.031
Mof_C 	C 	0.7819	0.7879	0.9193	0.109
Mof_C 	C 	0.8309	0.7523	0.9491	0.006
Mof_C 	C 	0.8534	0.7359	0.9677	-0.064
Mof_C 	C 	0.9055	0.7121	0.9543	-0.007
Mof_C 	C 	0.935	0.7048	0.9223	-0.017
Mof_C 	C 	0.9125	0.7213	0.9039	-0.091
Mof_C 	C 	0.8604	0.7451	0.9173	0.058
Mof_C 	C 	0.0617	0.6455	0.0347	0.207
Mof_C 	C 	0.7543	0.797	0.9536	-0.107
Mof_C 	C 	0.2437	0.5879	0.0958	-0.184
Mof_C 	C 	0.2098	0.5877	0.1241	0.187
Mof_C 	C 	0.8334	0.7659	0.9008	-0.148
Mof_C 	C 	0.6938	0.9038	0.9369	-0.027
Mof_C 	C 	0.6923	0.865	0.9194	-0.105
Mof_C 	C 	0.1107	0.9518	0.5803	-0.017
Mof_C 	C 	0.0886	0.9219	0.5495	-0.053
Mof_C 	C 	0.1277	0.9061	0.5192	-0.015
Mof_C 	C 	0.189	0.9202	0.5197	0.076
Mof_C 	C 	0.2111	0.9501	0.5505	-0.1
Mof_C 	C 	0.172	0.9659	0.5808	-0.007
Mof_C 	C 	0.107	0.876	0.4902	0.001
Mof_C 	C 	0.158	0.8632	0.4592	-0.206
Mof_C 	C 	0.2308	0.7993	0.3738	-0.126
Mof_C 	C 	0.2387	0.763	0.3564	0.009
Mof_C 	C 	0.9305	0.0254	0.7196	0.213
Mof_C 	C 	0.7832	0.033	0.8092	-0.031
Mof_C 	C 	0.7819	0.0807	0.8686	0.109
Mof_C 	C 	0.8309	0.0509	0.8032	0.006
Mof_C 	C 	0.8534	0.0323	0.7682	-0.064
Mof_C 	C 	0.9055	0.0457	0.7578	-0.007
Mof_C 	C 	0.935	0.0777	0.7825	-0.017
Mof_C 	C 	0.9125	0.0961	0.8174	-0.09
Mof_C 	C 	0.8604	0.0827	0.8278	0.058
Mof_C 	C 	0.0617	0.9653	0.6108	0.207
Mof_C 	C 	0.7543	0.0464	0.8434	-0.107
Mof_C 	C 	0.2437	0.9042	0.4921	-0.184
Mof_C 	C 	0.2098	0.8759	0.4636	0.187
Mof_C 	C 	0.8334	0.0992	0.8651	-0.148
Mof_C 	C 	0.6938	0.0631	0.9669	-0.027
Mof_C 	C 	0.6923	0.0806	0.9456	-0.105
Mof_C 	C 	0.1107	0.4197	0.3715	-0.017
Mof_C 	C 	0.0886	0.4505	0.3724	-0.053
Mof_C 	C 	0.1277	0.4808	0.3869	-0.015
Mof_C 	C 	0.189	0.4803	0.4005	0.076
Mof_C 	C 	0.2111	0.4495	0.3996	-0.1
Mof_C 	C 	0.172	0.4192	0.3851	-0.007
Mof_C 	C 	0.107	0.5098	0.3858	0.001
Mof_C 	C 	0.158	0.5408	0.404	-0.206
Mof_C 	C 	0.2308	0.6262	0.4255	-0.126
Mof_C 	C 	0.2387	0.6436	0.4066	0.009
Mof_C 	C 	0.9305	0.2804	0.3058	0.213
Mof_C 	C 	0.7832	0.1908	0.2238	-0.031
Mof_C 	C 	0.7819	0.1314	0.2121	0.109
Mof_C 	C 	0.8309	0.1968	0.2477	0.006
Mof_C 	C 	0.8534	0.2318	0.2641	-0.064
Mof_C 	C 	0.9055	0.2422	0.2879	-0.007
Mof_C 	C 	0.935	0.2175	0.2952	-0.017
Mof_C 	C 	0.9125	0.1826	0.2787	-0.09
Mof_C 	C 	0.8604	0.1722	0.2549	0.058
Mof_C 	C 	0.0617	0.3892	0.3545	0.207
Mof_C 	C 	0.7543	0.1566	0.203	-0.107
Mof_C 	C 	0.2437	0.5079	0.4121	-0.184
Mof_C 	C 	0.2098	0.5364	0.4123	0.187
Mof_C 	C 	0.8334	0.1349	0.2341	-0.148
Mof_C 	C 	0.6938	0.0331	0.0962	-0.027
Mof_C 	C 	0.6923	0.0544	0.135	-0.105
Mof_C 	C 	0.6107	0.3715	0.9518	-0.017
Mof_C 	C 	0.5886	0.3724	0.9219	-0.053
Mof_C 	C 	0.6277	0.3869	0.9061	-0.015
Mof_C 	C 	0.689	0.4005	0.9202	0.076
Mof_C 	C 	0.7111	0.3996	0.9501	-0.1
Mof_C 	C 	0.672	0.3851	0.9659	-0.007
Mof_C 	C 	0.607	0.3858	0.876	0.001
Mof_C 	C 	0.658	0.404	0.8632	-0.206
Mof_C 	C 	0.7308	0.4255	0.7993	-0.126
Mof_C 	C 	0.7387	0.4066	0.763	0.009
Mof_C 	C 	0.4305	0.3058	0.0254	0.213
Mof_C 	C 	0.2832	0.2238	0.033	-0.031
Mof_C 	C 	0.2819	0.2121	0.0807	0.109
Mof_C 	C 	0.3309	0.2477	0.0509	0.006
Mof_C 	C 	0.3534	0.2641	0.0323	-0.064
Mof_C 	C 	0.4055	0.2879	0.0457	-0.007
Mof_C 	C 	0.435	0.2952	0.0777	-0.017
Mof_C 	C 	0.4125	0.2787	0.0961	-0.09
Mof_C 	C 	0.3604	0.2549	0.0827	0.058
Mof_C 	C 	0.5617	0.3545	0.9653	0.207
Mof_C 	C 	0.2543	0.203	0.0464	-0.107
Mof_C 	C 	0.7437	0.4121	0.9042	-0.184
Mof_C 	C 	0.7098	0.4123	0.8759	0.187
Mof_C 	C 	0.3334	0.2341	0.0992	-0.148
Mof_C 	C 	0.1938	0.0962	0.0631	-0.027
Mof_C 	C 	0.1923	0.135	0.0806	-0.105
Mof_C 	C 	0.6107	0.0482	0.4197	-0.017
Mof_C 	C 	0.5886	0.0781	0.4505	-0.053
Mof_C 	C 	0.6277	0.0939	0.4808	-0.015
Mof_C 	C 	0.689	0.0798	0.4803	0.076
Mof_C 	C 	0.7111	0.0499	0.4495	-0.1
Mof_C 	C 	0.672	0.0341	0.4192	-0.007
Mof_C 	C 	0.607	0.124	0.5098	0.001
Mof_C 	C 	0.658	0.1368	0.5408	-0.206
Mof_C 	C 	0.7308	0.2007	0.6262	-0.126
Mof_C 	C 	0.7387	0.237	0.6436	0.009
Mof_C 	C 	0.4305	0.9746	0.2804	0.213
Mof_C 	C 	0.2832	0.967	0.1908	-0.031
Mof_C 	C 	0.2819	0.9193	0.1314	0.109
Mof_C 	C 	0.3309	0.9491	0.1968	0.006
Mof_C 	C 	0.3534	0.9677	0.2318	-0.064
Mof_C 	C 	0.4055	0.9543	0.2422	-0.007
Mof_C 	C 	0.435	0.9223	0.2175	-0.017
Mof_C 	C 	0.4125	0.9039	0.1826	-0.09
Mof_C 	C 	0.3604	0.9173	0.1722	0.058
Mof_C 	C 	0.5617	0.0347	0.3892	0.207
Mof_C 	C 	0.2543	0.9536	0.1566	-0.107
Mof_C 	C 	0.7437	0.0958	0.5079	-0.184
Mof_C 	C 	0.7098	0.1241	0.5364	0.187
Mof_C 	C 	0.3334	0.9008	0.1349	-0.148
Mof_C 	C 	0.1938	0.9369	0.0331	-0.027
Mof_C 	C 	0.1923	0.9194	0.0544	-0.105
Mof_C 	C 	0.6107	0.5803	0.6285	-0.017
Mof_C 	C 	0.5886	0.5495	0.6276	-0.053
Mof_C 	C 	0.6277	0.5192	0.6131	-0.015
Mof_C 	C 	0.689	0.5197	0.5995	0.076
Mof_C 	C 	0.7111	0.5505	0.6004	-0.1
Mof_C 	C 	0.672	0.5808	0.6149	-0.007
Mof_C 	C 	0.607	0.4902	0.6142	0.001
Mof_C 	C 	0.658	0.4592	0.596	-0.206
Mof_C 	C 	0.7308	0.3738	0.5745	-0.126
Mof_C 	C 	0.7387	0.3564	0.5934	0.009
Mof_C 	C 	0.4305	0.7196	0.6942	0.213
Mof_C 	C 	0.2832	0.8092	0.7762	-0.031
Mof_C 	C 	0.2819	0.8686	0.7879	0.108
Mof_C 	C 	0.3309	0.8032	0.7523	0.006
Mof_C 	C 	0.3534	0.7682	0.7359	-0.064
Mof_C 	C 	0.4055	0.7578	0.7121	-0.007
Mof_C 	C 	0.435	0.7825	0.7048	-0.017
Mof_C 	C 	0.4125	0.8174	0.7213	-0.09
Mof_C 	C 	0.3604	0.8278	0.7451	0.058
Mof_C 	C 	0.5617	0.6108	0.6455	0.207
Mof_C 	C 	0.2543	0.8434	0.797	-0.107
Mof_C 	C 	0.7437	0.4921	0.5879	-0.184
Mof_C 	C 	0.7098	0.4636	0.5877	0.187
Mof_C 	C 	0.3334	0.8651	0.7659	-0.148
Mof_C 	C 	0.1938	0.9669	0.9038	-0.027
Mof_C 	C 	0.1923	0.9456	0.865	-0.105
Mof_C 	C 	0.75	0.4112	0.8224	0.111
Mof_C 	C 	0.75	0.3704	0.7408	-0.042
Mof_C 	C 	0.75	0.3502	0.7004	0.078
Mof_C 	C 	0.75	0.4112	0.5888	0.111
Mof_C 	C 	0.75	0.3704	0.6296	-0.042
Mof_C 	C 	0.75	0.3502	0.6498	0.078
Mof_C 	C 	0.75	0.1776	0.5888	0.111
Mof_C 	C 	0.75	0.2592	0.6296	-0.042
Mof_C 	C 	0.75	0.2996	0.6498	0.078
Mof_C 	C 	0.25	0.5888	0.1776	0.111
Mof_C 	C 	0.25	0.6296	0.2592	-0.042
Mof_C 	C 	0.25	0.6498	0.2996	0.078
Mof_C 	C 	0.25	0.5888	0.4112	0.111
Mof_C 	C 	0.25	0.6296	0.3704	-0.042
Mof_C 	C 	0.25	0.6498	0.3502	0.078
Mof_C 	C 	0.25	0.8224	0.4112	0.111
Mof_C 	C 	0.25	0.7408	0.3704	-0.042
Mof_C 	C 	0.25	0.7004	0.3502	0.078
Mof_C 	C 	0.75	0.3123	0.6877	-0.144
Mof_C 	C 	0.75	0.3754	0.6877	-0.144
Mof_C 	C 	0.75	0.3123	0.6246	-0.144
Mof_C 	C 	0.25	0.6877	0.3123	-0.144
Mof_C 	C 	0.25	0.6246	0.3123	-0.144
Mof_C 	C 	0.25	0.6877	0.3754	-0.144
Mof_C 	C 	0.25	0.9601	0.0399	-0.015
Mof_C 	C 	0.25	0.98015	0.01985	0.052
Mof_C 	C 	0.25	0.925	0.075	0.095
Mof_C 	C 	0.25	0.0798	0.0399	-0.015
Mof_C 	C 	0.25	0.0397	0.01985	0.052
Mof_C 	C 	0.25	0.15	0.075	0.095
Mof_C 	C 	0.25	0.9601	0.9202	-0.015
Mof_C 	C 	0.25	0.98015	0.9603	0.052
Mof_C 	C 	0.25	0.925	0.85	0.095
Mof_C 	C 	0.75	0.0399	0.9601	-0.015
Mof_C 	C 	0.75	0.01985	0.98015	0.052
Mof_C 	C 	0.75	0.075	0.925	0.095
Mof_C 	C 	0.75	0.9202	0.9601	-0.015
Mof_C 	C 	0.75	0.9603	0.98015	0.052
Mof_C 	C 	0.75	0.85	0.925	0.095
Mof_C 	C 	0.75	0.0399	0.0798	-0.015
Mof_C 	C 	0.75	0.01985	0.0397	0.052
Mof_C 	C 	0.75	0.075	0.15	0.095
Mof_C 	C 	0.25	0.0192	0.0384	-0.114
Mof_C 	C 	0.25	0.0192	0.9808	-0.114
Mof_C 	C 	0.25	0.9616	0.9808	-0.114
Mof_C 	C 	0.75	0.9808	0.9616	-0.114
Mof_C 	C 	0.75	0.9808	0.0192	-0.114
Mof_C 	C 	0.75	0.0384	0.0192	-0.114
Mof_N 	N 	0.75	0.4292	0.8584	-0.176
Mof_N 	N 	0.75	0.4292	0.5708	-0.176
Mof_N 	N 	0.75	0.1416	0.5708	-0.176
Mof_N 	N 	0.25	0.5708	0.1416	-0.176
Mof_N 	N 	0.25	0.5708	0.4292	-0.176
Mof_N 	N 	0.25	0.8584	0.4292	-0.176
Mof_N 	N 	0.25	0.9049	0.0951	-0.146
Mof_N 	N 	0.25	0.1902	0.0951	-0.146
Mof_N 	N 	0.25	0.9049	0.8098	-0.146
Mof_N 	N 	0.75	0.0951	0.9049	-0.146
Mof_N 	N 	0.75	0.8098	0.9049	-0.146
Mof_N 	N 	0.75	0.0951	0.1902	-0.146
Mof_O 	O 	0.0153	0.723	0.046	-0.349
Mof_O 	O 	0.0984	0.6973	0.995	-0.361
Mof_O 	O 	0.9045	0.6363	0.9978	-0.338
Mof_O 	O 	0.9992	0.6116	0.954	-0.375
Mof_O 	O 	0.0153	0.323	0.277	-0.349
Mof_O 	O 	0.0984	0.2977	0.3027	-0.361
Mof_O 	O 	0.9045	0.3615	0.3637	-0.338
Mof_O 	O 	0.9992	0.3424	0.3884	-0.375
Mof_O 	O 	0.0153	0.954	0.677	-0.349
Mof_O 	O 	0.0984	0.005	0.7023	-0.361
Mof_O 	O 	0.9045	0.0022	0.6385	-0.338
Mof_O 	O 	0.9992	0.046	0.6576	-0.375
Mof_O 	O 	0.5153	0.277	0.954	-0.349
Mof_O 	O 	0.5984	0.3027	0.005	-0.361
Mof_O 	O 	0.4045	0.3637	0.0022	-0.338
Mof_O 	O 	0.4992	0.3884	0.046	-0.375
Mof_O 	O 	0.5153	0.677	0.723	-0.349
Mof_O 	O 	0.5984	0.7023	0.6973	-0.361
Mof_O 	O 	0.4045	0.6385	0.6363	-0.338
Mof_O 	O 	0.4992	0.6576	0.6116	-0.375
Mof_O 	O 	0.5153	0.046	0.323	-0.349
Mof_O 	O 	0.5984	0.995	0.2977	-0.361
Mof_O 	O 	0.4045	0.9978	0.3615	-0.338
Mof_O 	O 	0.4992	0.954	0.3424	-0.375
Mof_O 	O 	0.9847	0.677	0.954	-0.349
Mof_O 	O 	0.9016	0.7023	0.005	-0.361
Mof_O 	O 	0.0955	0.6385	0.0022	-0.338
Mof_O 	O 	0.0008	0.6576	0.046	-0.375
Mof_O 	O 	0.9847	0.046	0.723	-0.349
Mof_O 	O 	0.9016	0.995	0.6973	-0.361
Mof_O 	O 	0.0955	0.9978	0.6363	-0.338
Mof_O 	O 	0.0008	0.954	0.6116	-0.375
Mof_O 	O 	0.9847	0.277	0.323	-0.349
Mof_O 	O 	0.9016	0.3027	0.2977	-0.361
Mof_O 	O 	0.0955	0.3637	0.3615	-0.338
Mof_O 	O 	0.0008	0.3884	0.3424	-0.375
Mof_O 	O 	0.4847	0.323	0.046	-0.349
Mof_O 	O 	0.4016	0.2977	0.995	-0.361
Mof_O 	O 	0.5955	0.3615	0.9978	-0.338
Mof_O 	O 	0.5008	0.3424	0.954	-0.375
Mof_O 	O 	0.4847	0.954	0.277	-0.349
Mof_O 	O 	0.4016	0.005	0.3027	-0.361
Mof_O 	O 	0.5955	0.0022	0.3637	-0.338
Mof_O 	O 	0.5008	0.046	0.3884	-0.375
Mof_O 	O 	0.4847	0.723	0.677	-0.349
Mof_O 	O 	0.4016	0.6973	0.7023	-0.361
Mof_O 	O 	0.5955	0.6363	0.6385	-0.338
Mof_O 	O 	0.5008	0.6116	0.6576	-0.375
_end
