data_functionalizedCrystal
_audit_creation_method	'EQeq! by Chris Wilmer'
_symmetry_space_group_name_H-M	'P1'
_symmetry_Int_Tables_number	1
_symmetry_cell_setting	triclinic
loop_
_symmetry_equiv_pos_as_xyz
  x,y,z
_cell_length_a	19.21
_cell_length_b	19.21
_cell_length_c	6.9158
_cell_angle_alpha	90
_cell_angle_beta	90
_cell_angle_gamma	90
loop_
_atom_site_label
_atom_site_type_symbol
_atom_site_fract_x
_atom_site_fract_y
_atom_site_fract_z
_atom_site_charge
Mof_O 	O 	0.63198	0.19197	0.7335	-0.507
Mof_O 	O 	0.53227	0.43386	0.2615	-0.42
Mof_O 	O 	0.4841	0.38177	0.5124	-0.415
Mof_C 	C 	0.5565	0.31241	0.0724	0.065
Mof_H 	H 	0.5659	0.3551	0.0083	0.043
Mof_C 	C 	0.52472	0.3127	0.2546	-0.157
Mof_C 	C 	0.51203	0.38111	0.3508	0.373
Mof_O 	O 	0.86802	0.30803	0.7335	-0.507
Mof_O 	O 	0.96773	0.06614	0.2615	-0.42
Mof_O 	O 	0.0159	0.11823	0.5124	-0.416
Mof_C 	C 	0.9435	0.18759	0.0724	0.063
Mof_H 	H 	0.9341	0.1449	0.0083	0.042
Mof_C 	C 	0.97528	0.1873	0.2546	-0.158
Mof_C 	C 	0.98797	0.11889	0.3508	0.374
Mof_O 	O 	0.30803	0.63198	0.7335	-0.508
Mof_O 	O 	0.06614	0.53227	0.2615	-0.42
Mof_O 	O 	0.11823	0.4841	0.5124	-0.416
Mof_C 	C 	0.18759	0.5565	0.0724	0.064
Mof_H 	H 	0.1449	0.5659	0.0083	0.042
Mof_C 	C 	0.1873	0.52472	0.2546	-0.158
Mof_C 	C 	0.11889	0.51203	0.3508	0.373
Mof_O 	O 	0.19197	0.86802	0.7335	-0.508
Mof_O 	O 	0.43386	0.96773	0.2615	-0.421
Mof_O 	O 	0.38177	0.0159	0.5124	-0.416
Mof_C 	C 	0.31241	0.9435	0.0724	0.063
Mof_H 	H 	0.3551	0.9341	0.0083	0.042
Mof_C 	C 	0.3127	0.97528	0.2546	-0.158
Mof_C 	C 	0.38111	0.98797	0.3508	0.373
Mof_O 	O 	0.36802	0.69197	0.2665	-0.508
Mof_O 	O 	0.46773	0.93386	0.7385	-0.42
Mof_O 	O 	0.5159	0.88177	0.4876	-0.416
Mof_C 	C 	0.4435	0.81241	0.9276	0.064
Mof_H 	H 	0.4341	0.8551	0.9917	0.042
Mof_C 	C 	0.47528	0.8127	0.7454	-0.158
Mof_C 	C 	0.48797	0.88111	0.6492	0.373
Mof_O 	O 	0.13198	0.80803	0.2665	-0.508
Mof_O 	O 	0.03227	0.56614	0.7385	-0.421
Mof_O 	O 	0.9841	0.61823	0.4876	-0.416
Mof_C 	C 	0.0565	0.68759	0.9276	0.063
Mof_H 	H 	0.0659	0.6449	0.9917	0.042
Mof_C 	C 	0.02472	0.6873	0.7454	-0.158
Mof_C 	C 	0.01203	0.61889	0.6492	0.373
Mof_O 	O 	0.69197	0.13198	0.2665	-0.507
Mof_O 	O 	0.93386	0.03227	0.7385	-0.42
Mof_O 	O 	0.88177	0.9841	0.4876	-0.416
Mof_C 	C 	0.81241	0.0565	0.9276	0.063
Mof_H 	H 	0.8551	0.0659	0.9917	0.042
Mof_C 	C 	0.8127	0.02472	0.7454	-0.158
Mof_C 	C 	0.88111	0.01203	0.6492	0.374
Mof_O 	O 	0.80803	0.36802	0.2665	-0.508
Mof_O 	O 	0.56614	0.46773	0.7385	-0.421
Mof_O 	O 	0.61823	0.5159	0.4876	-0.416
Mof_C 	C 	0.68759	0.4435	0.9276	0.064
Mof_H 	H 	0.6449	0.4341	0.9917	0.042
Mof_C 	C 	0.6873	0.47528	0.7454	-0.158
Mof_C 	C 	0.61889	0.48797	0.6492	0.373
Mof_O 	O 	0.36802	0.80803	0.2665	-0.508
Mof_O 	O 	0.46773	0.56614	0.7385	-0.421
Mof_O 	O 	0.5159	0.61823	0.4876	-0.416
Mof_C 	C 	0.4435	0.68759	0.9276	0.064
Mof_H 	H 	0.4341	0.6449	0.9917	0.042
Mof_C 	C 	0.47528	0.6873	0.7454	-0.158
Mof_C 	C 	0.48797	0.61889	0.6492	0.373
Mof_O 	O 	0.13198	0.69197	0.2665	-0.507
Mof_O 	O 	0.03227	0.93386	0.7385	-0.42
Mof_O 	O 	0.9841	0.88177	0.4876	-0.416
Mof_C 	C 	0.0565	0.81241	0.9276	0.063
Mof_H 	H 	0.0659	0.8551	0.9917	0.042
Mof_C 	C 	0.02472	0.8127	0.7454	-0.158
Mof_C 	C 	0.01203	0.88111	0.6492	0.374
Mof_O 	O 	0.69197	0.36802	0.2665	-0.508
Mof_O 	O 	0.93386	0.46773	0.7385	-0.42
Mof_O 	O 	0.88177	0.5159	0.4876	-0.416
Mof_C 	C 	0.81241	0.4435	0.9276	0.064
Mof_H 	H 	0.8551	0.4341	0.9917	0.042
Mof_C 	C 	0.8127	0.47528	0.7454	-0.158
Mof_C 	C 	0.88111	0.48797	0.6492	0.373
Mof_O 	O 	0.80803	0.13198	0.2665	-0.508
Mof_O 	O 	0.56614	0.03227	0.7385	-0.421
Mof_O 	O 	0.61823	0.9841	0.4876	-0.416
Mof_C 	C 	0.68759	0.0565	0.9276	0.063
Mof_H 	H 	0.6449	0.0659	0.9917	0.042
Mof_C 	C 	0.6873	0.02472	0.7454	-0.158
Mof_C 	C 	0.61889	0.01203	0.6492	0.373
Mof_O 	O 	0.63198	0.30803	0.7335	-0.508
Mof_O 	O 	0.53227	0.06614	0.2615	-0.42
Mof_O 	O 	0.4841	0.11823	0.5124	-0.416
Mof_C 	C 	0.5565	0.18759	0.0724	0.064
Mof_H 	H 	0.5659	0.1449	0.0083	0.042
Mof_C 	C 	0.52472	0.1873	0.2546	-0.158
Mof_C 	C 	0.51203	0.11889	0.3508	0.373
Mof_O 	O 	0.86802	0.19197	0.7335	-0.508
Mof_O 	O 	0.96773	0.43386	0.2615	-0.421
Mof_O 	O 	0.0159	0.38177	0.5124	-0.416
Mof_C 	C 	0.9435	0.31241	0.0724	0.063
Mof_H 	H 	0.9341	0.3551	0.0083	0.042
Mof_C 	C 	0.97528	0.3127	0.2546	-0.158
Mof_C 	C 	0.98797	0.38111	0.3508	0.373
Mof_O 	O 	0.30803	0.86802	0.7335	-0.507
Mof_O 	O 	0.06614	0.96773	0.2615	-0.42
Mof_O 	O 	0.11823	0.0159	0.5124	-0.416
Mof_C 	C 	0.18759	0.9435	0.0724	0.063
Mof_H 	H 	0.1449	0.9341	0.0083	0.042
Mof_C 	C 	0.1873	0.97528	0.2546	-0.158
Mof_C 	C 	0.11889	0.98797	0.3508	0.374
Mof_O 	O 	0.19197	0.63198	0.7335	-0.508
Mof_O 	O 	0.43386	0.53227	0.2615	-0.421
Mof_O 	O 	0.38177	0.4841	0.5124	-0.416
Mof_C 	C 	0.31241	0.5565	0.0724	0.064
Mof_H 	H 	0.3551	0.5659	0.0083	0.042
Mof_C 	C 	0.3127	0.52472	0.2546	-0.158
Mof_C 	C 	0.38111	0.51203	0.3508	0.373
Mof_Cu	Cu	0.67264	0.17264	0.5	0.808
Mof_Cu	Cu	0.82736	0.32736	0.5	0.808
Mof_Cu	Cu	0.32736	0.67264	0.5	0.808
Mof_Cu	Cu	0.17264	0.82736	0.5	0.808
Mof_Cu	Cu	0.32736	0.82736	0.5	0.808
Mof_Cu	Cu	0.17264	0.67264	0.5	0.808
Mof_Cu	Cu	0.67264	0.32736	0.5	0.808
Mof_Cu	Cu	0.82736	0.17264	0.5	0.808
Mof_Cu	Cu	0.53003	0.53003	0.35189	0.91
Mof_Cu	Cu	0.96997	0.96997	0.35189	0.909
Mof_Cu	Cu	0.96997	0.53003	0.35189	0.91
Mof_Cu	Cu	0.53003	0.96997	0.35189	0.91
Mof_Cu	Cu	0.46997	0.03003	0.64811	0.91
Mof_Cu	Cu	0.03003	0.46997	0.64811	0.91
Mof_Cu	Cu	0.03003	0.03003	0.64811	0.909
Mof_Cu	Cu	0.46997	0.46997	0.64811	0.91
Mof_C 	C 	0.6153	0.25	0.8018	0.401
Mof_C 	C 	0.5742	0.25	0.9855	-0.154
Mof_C 	C 	0.5092	0.25	0.3468	0.044
Mof_H 	H 	0.4884	0.25	0.4714	0.036
Mof_C 	C 	0.8847	0.25	0.8018	0.401
Mof_C 	C 	0.9258	0.25	0.9855	-0.152
Mof_C 	C 	0.9908	0.25	0.3468	0.045
Mof_H 	H 	0.0116	0.25	0.4714	0.036
Mof_C 	C 	0.25	0.6153	0.8018	0.401
Mof_C 	C 	0.25	0.5742	0.9855	-0.154
Mof_C 	C 	0.25	0.5092	0.3468	0.044
Mof_H 	H 	0.25	0.4884	0.4714	0.036
Mof_C 	C 	0.25	0.8847	0.8018	0.401
Mof_C 	C 	0.25	0.9258	0.9855	-0.152
Mof_C 	C 	0.25	0.9908	0.3468	0.045
Mof_H 	H 	0.25	0.0116	0.4714	0.036
Mof_C 	C 	0.3847	0.75	0.1982	0.401
Mof_C 	C 	0.4258	0.75	0.0145	-0.154
Mof_C 	C 	0.4908	0.75	0.6532	0.044
Mof_H 	H 	0.5116	0.75	0.5286	0.036
Mof_C 	C 	0.1153	0.75	0.1982	0.401
Mof_C 	C 	0.0742	0.75	0.0145	-0.152
Mof_C 	C 	0.0092	0.75	0.6532	0.045
Mof_H 	H 	0.9884	0.75	0.5286	0.036
Mof_C 	C 	0.75	0.1153	0.1982	0.401
Mof_C 	C 	0.75	0.0742	0.0145	-0.152
Mof_C 	C 	0.75	0.0092	0.6532	0.045
Mof_H 	H 	0.75	0.9884	0.5286	0.036
Mof_C 	C 	0.75	0.3847	0.1982	0.401
Mof_C 	C 	0.75	0.4258	0.0145	-0.154
Mof_C 	C 	0.75	0.4908	0.6532	0.044
Mof_H 	H 	0.75	0.5116	0.5286	0.036
_end
