data_functionalizedCrystal
_audit_creation_method	'EQeq! by Chris Wilmer'
_symmetry_space_group_name_H-M	'P1'
_symmetry_Int_Tables_number	1
_symmetry_cell_setting	triclinic
loop_
_symmetry_equiv_pos_as_xyz
  x,y,z
_cell_length_a	10.1568
_cell_length_b	11.5008
_cell_length_c	15.283
_cell_angle_alpha	90.9464
_cell_angle_beta	90
_cell_angle_gamma	90
loop_
_atom_site_label
_atom_site_type_symbol
_atom_site_fract_x
_atom_site_fract_y
_atom_site_fract_z
_atom_site_charge
Mof_Fe	Fe	0.93155	0.75415	0.13429	1.013
Mof_Fe	Fe	0.87095	0.25945	0.699	0.959
Mof_Fe	Fe	0.43155	0.74585	0.36571	0.931
Mof_Fe	Fe	0.37095	0.24055	0.801	0.917
Mof_Fe	Fe	0.06845	0.24585	0.86571	0.826
Mof_Fe	Fe	0.12905	0.74055	0.301	0.895
Mof_Fe	Fe	0.56845	0.25415	0.63429	0.912
Mof_Fe	Fe	0.62905	0.75945	0.199	0.935
Mof_Fe	Fe	-0	0.5	-0	0.755
Mof_Fe	Fe	0.5	0	0.5	0.885
Mof_Fe	Fe	-0	0	-0	0.695
Mof_Fe	Fe	0.5	0.5	0.5	0.956
Mof_H 	H 	0.784	0.8452	0.3702	-0.087
Mof_H 	H 	0.066	0.48	0.251	-0.142
Mof_H 	H 	0.632	0.543	0.069	-0.104
Mof_H 	H 	0.234	0.962	0.206	-0.104
Mof_H 	H 	0.123	0.698	0.913	-0.102
Mof_H 	H 	0.722	0.9988	0.0308	-0.083
Mof_H 	H 	0.284	0.6548	0.1298	-0.114
Mof_H 	H 	0.566	0.02	0.249	-0.225
Mof_H 	H 	0.132	0.957	0.431	-0.091
Mof_H 	H 	0.734	0.538	0.294	-0.081
Mof_H 	H 	0.623	0.802	0.587	-0.066
Mof_H 	H 	0.222	0.5012	0.4692	-0.099
Mof_H 	H 	0.216	0.1548	0.6298	-0.114
Mof_H 	H 	0.934	0.52	0.749	-0.094
Mof_H 	H 	0.368	0.457	0.931	-0.062
Mof_H 	H 	0.766	0.038	0.794	-0.063
Mof_H 	H 	0.877	0.302	0.087	-0.028
Mof_H 	H 	0.278	0.0012	0.9692	-0.071
Mof_H 	H 	0.716	0.3452	0.8702	-0.083
Mof_H 	H 	0.434	0.98	0.751	-0.015
Mof_H 	H 	0.868	0.043	0.569	-0.081
Mof_H 	H 	0.266	0.462	0.706	-0.097
Mof_H 	H 	0.377	0.198	0.413	-0.09
Mof_H 	H 	0.778	0.4988	0.5308	-0.079
Mof_C 	C 	0.8518	0.82285	0.32875	0.486
Mof_C 	C 	0.0427	0.5206	0.2016	0.55
Mof_C 	C 	0.7241	0.565	0.0711	0.48
Mof_C 	C 	0.1571	0.9396	0.168	0.535
Mof_C 	C 	0.0802	0.7417	0.9608	0.559
Mof_C 	C 	0.7364	0.93504	0.06944	0.467
Mof_C 	C 	0.3518	0.67715	0.17125	0.491
Mof_C 	C 	0.5427	0.9794	0.2984	0.735
Mof_C 	C 	0.2241	0.935	0.4289	0.47
Mof_C 	C 	0.6571	0.5604	0.332	0.466
Mof_C 	C 	0.5802	0.7583	0.5392	0.464
Mof_C 	C 	0.2364	0.56496	0.43056	0.484
Mof_C 	C 	0.1482	0.17715	0.67125	0.49
Mof_C 	C 	0.9573	0.4794	0.7984	0.502
Mof_C 	C 	0.2759	0.435	0.9289	0.447
Mof_C 	C 	0.8429	0.0604	0.832	0.363
Mof_C 	C 	0.9198	0.2583	0.0392	0.315
Mof_C 	C 	0.2636	0.06496	0.93056	0.461
Mof_C 	C 	0.6482	0.32285	0.82875	0.483
Mof_C 	C 	0.4573	0.0206	0.7016	0.332
Mof_C 	C 	0.7759	0.065	0.5711	0.476
Mof_C 	C 	0.3429	0.4396	0.668	0.47
Mof_C 	C 	0.4198	0.2417	0.4608	0.47
Mof_C 	C 	0.7636	0.43504	0.56944	0.477
Mof_O 	O 	0.81878	0.80429	0.25004	-0.457
Mof_O 	O 	0.9625	0.80941	0.36021	-0.345
Mof_O 	O 	0.02428	0.62821	0.21221	-0.519
Mof_O 	O 	0.0308	0.46359	0.13359	-0.432
Mof_O 	O 	0.75596	0.65142	0.11962	-0.463
Mof_O 	O 	0.79726	0.50944	0.02124	-0.381
Mof_O 	O 	0.09741	0.84725	0.18825	-0.503
Mof_O 	O 	0.132	0.00356	0.10666	-0.451
Mof_O 	O 	0.01951	0.68639	0.02039	-0.546
Mof_O 	O 	0.088	0.8483	0.954	-0.351
Mof_O 	O 	0.85505	0.90006	0.07106	-0.425
Mof_O 	O 	0.64209	0.89404	0.10994	-0.381
Mof_O 	O 	0.31878	0.69571	0.24996	-0.466
Mof_O 	O 	0.4625	0.69059	0.13979	-0.406
Mof_O 	O 	0.52428	0.87179	0.28779	-0.53
Mof_O 	O 	0.5308	0.03641	0.36641	-0.488
Mof_O 	O 	0.25596	0.84858	0.38038	-0.459
Mof_O 	O 	0.29726	0.99056	0.47876	-0.358
Mof_O 	O 	0.59741	0.65275	0.31175	-0.462
Mof_O 	O 	0.632	0.49644	0.39334	-0.382
Mof_O 	O 	0.51951	0.81361	0.47961	-0.443
Mof_O 	O 	0.588	0.6517	0.546	-0.385
Mof_O 	O 	0.35505	0.59994	0.42894	-0.468
Mof_O 	O 	0.14209	0.60596	0.39006	-0.401
Mof_O 	O 	0.18122	0.19571	0.74996	-0.476
Mof_O 	O 	0.0375	0.19059	0.63979	-0.444
Mof_O 	O 	0.97572	0.37179	0.78779	-0.435
Mof_O 	O 	0.9692	0.53641	0.86641	-0.315
Mof_O 	O 	0.24404	0.34858	0.88038	-0.445
Mof_O 	O 	0.20274	0.49056	0.97876	-0.328
Mof_O 	O 	0.90259	0.15275	0.81175	-0.401
Mof_O 	O 	0.868	0.99644	0.89334	-0.23
Mof_O 	O 	0.98049	0.31361	0.97961	-0.293
Mof_O 	O 	0.912	0.1517	0.046	-0.329
Mof_O 	O 	0.14495	0.09994	0.92894	-0.427
Mof_O 	O 	0.35791	0.10596	0.89006	-0.38
Mof_O 	O 	0.68122	0.30429	0.75004	-0.466
Mof_O 	O 	0.5375	0.30941	0.86021	-0.379
Mof_O 	O 	0.47572	0.12821	0.71221	-0.434
Mof_O 	O 	0.4692	0.96359	0.63359	-0.302
Mof_O 	O 	0.74404	0.15142	0.61962	-0.46
Mof_O 	O 	0.70274	0.00944	0.52124	-0.395
Mof_O 	O 	0.40259	0.34725	0.68825	-0.464
Mof_O 	O 	0.368	0.50356	0.60666	-0.388
Mof_O 	O 	0.48049	0.18639	0.52039	-0.457
Mof_O 	O 	0.412	0.3483	0.454	-0.396
Mof_O 	O 	0.64495	0.40006	0.57106	-0.46
Mof_O 	O 	0.85791	0.39404	0.60994	-0.371
_end
