data_functionalizedCrystal
_audit_creation_method	'EQeq! by Chris Wilmer'
_symmetry_space_group_name_H-M	'P1'
_symmetry_Int_Tables_number	1
_symmetry_cell_setting	triclinic
loop_
_symmetry_equiv_pos_as_xyz
  x,y,z
_cell_length_a	8.13
_cell_length_b	20.174
_cell_length_c	9.014
_cell_angle_alpha	90
_cell_angle_beta	91.423
_cell_angle_gamma	90
loop_
_atom_site_label
_atom_site_type_symbol
_atom_site_fract_x
_atom_site_fract_y
_atom_site_fract_z
_atom_site_charge
Mof_N 	N 	0.3515	0.5729	0.61039	-0.207
Mof_N 	N 	0.1812	0.57947	0.5883	-0.103
Mof_N 	N 	0.2777	0.66451	0.714	-0.097
Mof_N 	N 	0.3035	0.72663	0.7762	-0.031
Mof_N 	N 	0.1736	0.75897	0.7702	-0.04
Mof_N 	N 	0.2016	0.82169	0.8289	-0.087
Mof_N 	N 	0.1381	0.91925	0.90871	-0.178
Mof_N 	N 	0.3086	0.91289	0.9206	-0.073
Mof_N 	N 	0.6596	0.49666	0.69416	-0.208
Mof_N 	N 	0.5818	0.49526	0.83065	-0.115
Mof_N 	N 	0.8475	0.49757	0.86827	-0.094
Mof_N 	N 	0.0039	0.49955	0.93118	-0.039
Mof_C 	C 	0.4053	0.62378	0.6852	0.106
Mof_H 	H 	0.5167	0.6312	0.7151	0.015
Mof_C 	C 	0.1404	0.63518	0.65	0.099
Mof_H 	H 	0.0323	0.653	0.6509	0.015
Mof_C 	C 	0.0777	0.86501	0.8519	0.042
Mof_H 	H 	0.9645	0.857	0.8299	0.066
Mof_C 	C 	0.3438	0.85379	0.8716	0.107
Mof_H 	H 	0.4514	0.8358	0.8663	0.039
Mof_C 	C 	0.8184	0.49777	0.719	0.116
Mof_H 	H 	0.8999	0.4986	0.6452	0.029
Mof_C 	C 	0.6967	0.49612	0.9336	0.203
Mof_H 	H 	0.6791	0.4958	0.0375	-0.035
Mof_N 	N 	0.1485	0.0729	0.88961	-0.196
Mof_N 	N 	0.3188	0.07947	0.9117	-0.091
Mof_N 	N 	0.2223	0.16451	0.786	-0.088
Mof_N 	N 	0.1965	0.22663	0.7238	-0.044
Mof_N 	N 	0.3264	0.25897	0.7298	-0.034
Mof_N 	N 	0.2984	0.32169	0.6711	-0.099
Mof_N 	N 	0.3619	0.41925	0.59129	-0.209
Mof_N 	N 	0.1914	0.41289	0.5794	-0.102
Mof_N 	N 	0.8404	0.99666	0.80584	-0.177
Mof_N 	N 	0.9182	0.99526	0.66935	-0.076
Mof_N 	N 	0.6525	0.99757	0.63173	-0.094
Mof_N 	N 	0.4961	0.99955	0.56882	-0.004
Mof_C 	C 	0.0947	0.12378	0.8148	0.034
Mof_H 	H 	0.9833	0.1312	0.7849	0.06
Mof_C 	C 	0.3596	0.13518	0.85	0.102
Mof_H 	H 	0.4677	0.153	0.8491	0.035
Mof_C 	C 	0.4223	0.36501	0.6481	0.106
Mof_H 	H 	0.5355	0.357	0.6701	0.014
Mof_C 	C 	0.1562	0.35379	0.6284	0.098
Mof_H 	H 	0.0486	0.3358	0.6337	0.015
Mof_C 	C 	0.6816	0.99777	0.781	0.12
Mof_H 	H 	0.6001	0.9986	0.8548	0.043
Mof_C 	C 	0.8033	0.99612	0.5664	0.116
Mof_H 	H 	0.8209	0.9958	0.4625	0.053
Mof_N 	N 	0.6485	0.4271	0.38961	-0.208
Mof_N 	N 	0.8188	0.42053	0.4117	-0.089
Mof_N 	N 	0.7223	0.33549	0.286	-0.1
Mof_N 	N 	0.6965	0.27337	0.2238	-0.044
Mof_N 	N 	0.8264	0.24103	0.2298	-0.033
Mof_N 	N 	0.7984	0.17831	0.1711	-0.114
Mof_N 	N 	0.8619	0.08075	0.09129	-0.229
Mof_N 	N 	0.6914	0.08711	0.0794	-0.116
Mof_N 	N 	0.3404	0.50334	0.30584	-0.212
Mof_N 	N 	0.4182	0.50474	0.16935	-0.091
Mof_N 	N 	0.1525	0.50243	0.13173	-0.107
Mof_N 	N 	0.9961	0.50045	0.06882	-0.032
Mof_C 	C 	0.5947	0.37622	0.3148	0.104
Mof_H 	H 	0.4833	0.3688	0.2849	0.001
Mof_C 	C 	0.8596	0.36482	0.35	0.102
Mof_H 	H 	0.9677	0.347	0.3491	0.039
Mof_C 	C 	0.9223	0.13499	0.1481	0.182
Mof_H 	H 	0.0355	0.143	0.1701	-0.057
Mof_C 	C 	0.6562	0.14621	0.1284	0.092
Mof_H 	H 	0.5486	0.1642	0.1337	0.015
Mof_C 	C 	0.1816	0.50223	0.281	0.101
Mof_H 	H 	0.1001	0.5014	0.3548	0.003
Mof_C 	C 	0.3033	0.50388	0.0664	-0.005
Mof_H 	H 	0.3209	0.5042	0.9625	0.097
Mof_N 	N 	0.8515	0.9271	0.11039	-0.208
Mof_N 	N 	0.6812	0.92053	0.0883	-0.1
Mof_N 	N 	0.7777	0.83549	0.214	-0.111
Mof_N 	N 	0.8035	0.77337	0.2762	-0.032
Mof_N 	N 	0.6736	0.74103	0.2702	-0.041
Mof_N 	N 	0.7016	0.67831	0.3289	-0.1
Mof_N 	N 	0.6381	0.58075	0.40871	-0.209
Mof_N 	N 	0.8086	0.58711	0.4206	-0.089
Mof_N 	N 	0.1596	0.00334	0.19416	-0.234
Mof_N 	N 	0.0818	0.00474	0.33065	-0.13
Mof_N 	N 	0.3475	0.00243	0.36827	-0.105
Mof_N 	N 	0.5039	0.00045	0.43118	-0.069
Mof_C 	C 	0.9053	0.87622	0.1852	0.182
Mof_H 	H 	0.0167	0.8688	0.2151	-0.045
Mof_C 	C 	0.6404	0.86482	0.15	0.099
Mof_H 	H 	0.5323	0.847	0.1509	0.019
Mof_C 	C 	0.5777	0.63499	0.3519	0.105
Mof_H 	H 	0.4645	0.643	0.3299	0.002
Mof_C 	C 	0.8438	0.64621	0.3716	0.102
Mof_H 	H 	0.9514	0.6642	0.3663	0.039
Mof_C 	C 	0.3184	0.00223	0.219	0.096
Mof_H 	H 	0.3999	0.0014	0.1452	-0.009
Mof_C 	C 	0.1967	0.00388	0.4336	0.087
Mof_H 	H 	0.1791	0.0042	0.5375	0.007
Mof_Zn	Zn	0.5	0.5	0.5	1.19
Mof_Zn	Zn	-0	0	-0	1.143
_end
