data_functionalizedCrystal
_audit_creation_method	'EQeq! by Chris Wilmer'
_symmetry_space_group_name_H-M	'P1'
_symmetry_Int_Tables_number	1
_symmetry_cell_setting	triclinic
loop_
_symmetry_equiv_pos_as_xyz
  x,y,z
_cell_length_a	35.0063
_cell_length_b	15.0958
_cell_length_c	30.2162
_cell_angle_alpha	90
_cell_angle_beta	102.088
_cell_angle_gamma	90
loop_
_atom_site_label
_atom_site_type_symbol
_atom_site_fract_x
_atom_site_fract_y
_atom_site_fract_z
_atom_site_charge
Mof_Zn	Zn	0.37178	0.90828	0.4492	1.162
Mof_I 	I 	0.35327	0.93	0.52422	-0.38
Mof_I 	I 	0.3835	0.7608	0.4185	-0.119
Mof_Zn	Zn	0.1736	0.6414	0.2724	0.621
Mof_I 	I 	0.12869	0.6627	0.19539	-0.325
Mof_I 	I 	0.23283	0.7398	0.29605	-0.056
Mof_Zn	Zn	0.08051	0.88034	0.09369	1.164
Mof_I 	I 	0.1158	0.76599	0.0567	-0.382
Mof_I 	I 	0.02662	0.85478	0.13634	-0.357
Mof_N 	N 	0.32926	0.9717	0.4028	-0.28
Mof_C 	C 	0.3235	0.0575	0.4061	0.079
Mof_H 	H 	0.3394	0.0889	0.4304	-0.003
Mof_C 	C 	0.2956	0.1043	0.3763	-0.125
Mof_H 	H 	0.2934	0.1666	0.3795	0.086
Mof_C 	C 	0.271	0.0604	0.342	0.05
Mof_C 	C 	0.2762	0.9701	0.3388	-0.127
Mof_H 	H 	0.26	0.9368	0.3155	0.088
Mof_C 	C 	0.3052	0.9289	0.3702	0.073
Mof_H 	H 	0.308	0.8665	0.3683	-0.009
Mof_C 	C 	0.24	0.1068	0.3092	0.089
Mof_N 	N 	0.23472	0.192	0.3141	-0.143
Mof_C 	C 	0.2065	0.2281	0.283	0.096
Mof_N 	N 	0.18314	0.1839	0.2491	-0.134
Mof_C 	C 	0.192	0.098	0.2469	0.095
Mof_N 	N 	0.22108	0.0566	0.275	-0.144
Mof_C 	C 	0.1997	0.3257	0.2835	0.064
Mof_C 	C 	0.2224	0.3812	0.3146	-0.134
Mof_H 	H 	0.2423	0.358	0.338	0.082
Mof_C 	C 	0.2156	0.4709	0.311	0.082
Mof_H 	H 	0.2318	0.5091	0.3319	-0.018
Mof_N 	N 	0.1877	0.5067	0.28	-0.277
Mof_C 	C 	0.1658	0.4528	0.2501	0.071
Mof_H 	H 	0.1456	0.4776	0.2275	-0.017
Mof_C 	C 	0.1714	0.3634	0.2507	-0.128
Mof_H 	H 	0.1557	0.3272	0.2283	0.084
Mof_C 	C 	0.1689	0.0472	0.2084	0.063
Mof_C 	C 	0.1753	0.958	0.2017	-0.132
Mof_H 	H 	0.196	0.9275	0.2209	0.078
Mof_C 	C 	0.151	0.9142	0.1665	0.076
Mof_H 	H 	0.1554	0.853	0.1623	-0.017
Mof_N 	N 	0.12197	0.9532	0.1386	-0.275
Mof_C 	C 	0.1166	0.0383	0.1447	0.085
Mof_H 	H 	0.0957	0.0671	0.1248	-0.009
Mof_C 	C 	0.1395	0.0878	0.1781	-0.13
Mof_H 	H 	0.1351	0.1496	0.1802	0.094
Mof_N 	N 	0.06208	0.9784	0.0457	-0.272
Mof_C 	C 	0.0349	0.0384	0.05	0.073
Mof_H 	H 	0.0196	0.0287	0.072	-0.009
Mof_C 	C 	0.0284	0.1133	0.0239	-0.124
Mof_H 	H 	0.0092	0.155	0.0285	0.075
Mof_C 	C 	0.04944	0.1279	0.9914	0.055
Mof_C 	C 	0.0758	0.064	0.9852	-0.122
Mof_H 	H 	0.0901	0.0704	0.9619	0.082
Mof_C 	C 	0.0814	0.9915	0.0126	0.069
Mof_H 	H 	0.0999	0.9483	0.0079	-0.011
Mof_C 	C 	0.04525	0.2103	0.9644	0.088
Mof_N 	N 	0.01792	0.268	0.9705	-0.147
Mof_C 	C 	0.01408	0.3381	0.9423	0.087
Mof_N 	N 	0.03515	0.3545	0.9116	-0.136
Mof_C 	C 	0.0633	0.2955	0.9108	0.1
Mof_N 	N 	0.06913	0.2224	0.9356	-0.137
Mof_C 	C 	0.9817	0.4002	0.9448	0.061
Mof_C 	C 	0.966	0.4054	0.9829	-0.128
Mof_H 	H 	0.9764	0.3698	0.0085	0.081
Mof_C 	C 	0.9358	0.461	0.9841	0.079
Mof_H 	H 	0.9256	0.4634	0.0109	-0.006
Mof_N 	N 	0.91966	0.5128	0.949	-0.279
Mof_C 	C 	0.9346	0.5064	0.9127	0.088
Mof_H 	H 	0.9235	0.542	0.8873	-0.022
Mof_C 	C 	0.9653	0.4516	0.9089	-0.133
Mof_H 	H 	0.9748	0.4498	0.8817	0.088
Mof_C 	C 	0.09	0.312	0.8795	0.073
Mof_C 	C 	0.1238	0.2652	0.8836	-0.119
Mof_H 	H 	0.13	0.2202	0.9059	0.082
Mof_C 	C 	0.1492	0.2834	0.8553	0.069
Mof_H 	H 	0.1732	0.252	0.8593	-0.013
Mof_N 	N 	0.1408	0.3442	0.8223	-0.279
Mof_C 	C 	0.108	0.3891	0.8189	0.092
Mof_H 	H 	0.1018	0.4325	0.7958	-0.022
Mof_C 	C 	0.0826	0.3763	0.847	-0.131
Mof_H 	H 	0.0599	0.412	0.844	0.088
Mof_I 	I 	0.3874	0.7628	0.41	-0.221
Mof_Zn	Zn	0.1792	0.6417	0.2811	0.529
Mof_I 	I 	0.1386	0.6764	0.2032	-0.043
Mof_I 	I 	0.2414	0.7248	0.3123	-0.3
Mof_Zn	Zn	0.87178	0.40828	0.4492	1.163
Mof_I 	I 	0.85327	0.43	0.52422	-0.379
Mof_I 	I 	0.8835	0.2608	0.4185	-0.118
Mof_Zn	Zn	0.6736	0.1414	0.2724	0.622
Mof_I 	I 	0.62869	0.1627	0.19539	-0.324
Mof_I 	I 	0.73283	0.2398	0.29605	-0.055
Mof_Zn	Zn	0.58051	0.38034	0.09369	1.165
Mof_I 	I 	0.6158	0.26599	0.0567	-0.381
Mof_I 	I 	0.52662	0.35478	0.13634	-0.356
Mof_N 	N 	0.82926	0.4717	0.4028	-0.279
Mof_C 	C 	0.8235	0.5575	0.4061	0.08
Mof_H 	H 	0.8394	0.5889	0.4304	-0.002
Mof_C 	C 	0.7956	0.6043	0.3763	-0.124
Mof_H 	H 	0.7934	0.6666	0.3795	0.087
Mof_C 	C 	0.771	0.5604	0.342	0.051
Mof_C 	C 	0.7762	0.4701	0.3388	-0.126
Mof_H 	H 	0.76	0.4368	0.3155	0.089
Mof_C 	C 	0.8052	0.4289	0.3702	0.074
Mof_H 	H 	0.808	0.3665	0.3683	-0.008
Mof_C 	C 	0.74	0.6068	0.3092	0.09
Mof_N 	N 	0.73472	0.692	0.3141	-0.142
Mof_C 	C 	0.7065	0.7281	0.283	0.097
Mof_N 	N 	0.68314	0.6839	0.2491	-0.133
Mof_C 	C 	0.692	0.598	0.2469	0.096
Mof_N 	N 	0.72108	0.5566	0.275	-0.143
Mof_C 	C 	0.6997	0.8257	0.2835	0.065
Mof_C 	C 	0.7224	0.8812	0.3146	-0.132
Mof_H 	H 	0.7423	0.858	0.338	0.083
Mof_C 	C 	0.7156	0.9709	0.311	0.083
Mof_H 	H 	0.7318	0.0091	0.3319	-0.017
Mof_N 	N 	0.6877	0.0067	0.28	-0.276
Mof_C 	C 	0.6658	0.9528	0.2501	0.071
Mof_H 	H 	0.6456	0.9776	0.2275	-0.016
Mof_C 	C 	0.6714	0.8634	0.2507	-0.127
Mof_H 	H 	0.6557	0.8272	0.2283	0.085
Mof_C 	C 	0.6689	0.5472	0.2084	0.064
Mof_C 	C 	0.6753	0.458	0.2017	-0.131
Mof_H 	H 	0.696	0.4275	0.2209	0.078
Mof_C 	C 	0.651	0.4142	0.1665	0.076
Mof_H 	H 	0.6554	0.353	0.1623	-0.017
Mof_N 	N 	0.62197	0.4532	0.1386	-0.274
Mof_C 	C 	0.6166	0.5383	0.1447	0.085
Mof_H 	H 	0.5957	0.5671	0.1248	-0.009
Mof_C 	C 	0.6395	0.5878	0.1781	-0.129
Mof_H 	H 	0.6351	0.6496	0.1802	0.094
Mof_N 	N 	0.56208	0.4784	0.0457	-0.272
Mof_C 	C 	0.5349	0.5384	0.05	0.073
Mof_H 	H 	0.5196	0.5287	0.072	-0.009
Mof_C 	C 	0.5284	0.6133	0.0239	-0.124
Mof_H 	H 	0.5092	0.655	0.0285	0.075
Mof_C 	C 	0.54944	0.6279	0.9914	0.055
Mof_C 	C 	0.5758	0.564	0.9852	-0.122
Mof_H 	H 	0.5901	0.5704	0.9619	0.082
Mof_C 	C 	0.5814	0.4915	0.0126	0.07
Mof_H 	H 	0.5999	0.4483	0.0079	-0.011
Mof_C 	C 	0.54525	0.7103	0.9644	0.088
Mof_N 	N 	0.51792	0.768	0.9705	-0.147
Mof_C 	C 	0.51408	0.8381	0.9423	0.087
Mof_N 	N 	0.53515	0.8545	0.9116	-0.136
Mof_C 	C 	0.5633	0.7955	0.9108	0.1
Mof_N 	N 	0.56913	0.7224	0.9356	-0.137
Mof_C 	C 	0.4817	0.9002	0.9448	0.061
Mof_C 	C 	0.466	0.9054	0.9829	-0.128
Mof_H 	H 	0.4764	0.8698	0.0085	0.081
Mof_C 	C 	0.4358	0.961	0.9841	0.079
Mof_H 	H 	0.4256	0.9634	0.0109	-0.006
Mof_N 	N 	0.41966	0.0128	0.949	-0.279
Mof_C 	C 	0.4346	0.0064	0.9127	0.088
Mof_H 	H 	0.4235	0.042	0.8873	-0.022
Mof_C 	C 	0.4653	0.9516	0.9089	-0.133
Mof_H 	H 	0.4748	0.9498	0.8817	0.088
Mof_C 	C 	0.59	0.812	0.8795	0.073
Mof_C 	C 	0.6238	0.7652	0.8836	-0.119
Mof_H 	H 	0.63	0.7202	0.9059	0.082
Mof_C 	C 	0.6492	0.7834	0.8553	0.069
Mof_H 	H 	0.6732	0.752	0.8593	-0.013
Mof_N 	N 	0.6408	0.8442	0.8223	-0.279
Mof_C 	C 	0.608	0.8891	0.8189	0.092
Mof_H 	H 	0.6018	0.9325	0.7958	-0.022
Mof_C 	C 	0.5826	0.8763	0.847	-0.131
Mof_H 	H 	0.5599	0.912	0.844	0.088
Mof_I 	I 	0.8874	0.2628	0.41	-0.221
Mof_Zn	Zn	0.6792	0.1417	0.2811	0.529
Mof_I 	I 	0.6386	0.1764	0.2032	-0.043
Mof_I 	I 	0.7414	0.2248	0.3123	-0.3
Mof_Zn	Zn	0.37178	0.09172	0.9492	1.163
Mof_I 	I 	0.35327	0.07	0.02422	-0.379
Mof_I 	I 	0.3835	0.2392	0.9185	-0.118
Mof_Zn	Zn	0.1736	0.3586	0.7724	0.622
Mof_I 	I 	0.12869	0.3373	0.69539	-0.324
Mof_I 	I 	0.23283	0.2602	0.79605	-0.055
Mof_Zn	Zn	0.08051	0.11966	0.59369	1.165
Mof_I 	I 	0.1158	0.23401	0.5567	-0.381
Mof_I 	I 	0.02662	0.14522	0.63634	-0.356
Mof_N 	N 	0.32926	0.0283	0.9028	-0.279
Mof_C 	C 	0.3235	0.9425	0.9061	0.08
Mof_H 	H 	0.3394	0.9111	0.9304	-0.002
Mof_C 	C 	0.2956	0.8957	0.8763	-0.124
Mof_H 	H 	0.2934	0.8334	0.8795	0.087
Mof_C 	C 	0.271	0.9396	0.842	0.051
Mof_C 	C 	0.2762	0.0299	0.8388	-0.126
Mof_H 	H 	0.26	0.0632	0.8155	0.089
Mof_C 	C 	0.3052	0.0711	0.8702	0.074
Mof_H 	H 	0.308	0.1335	0.8683	-0.008
Mof_C 	C 	0.24	0.8932	0.8092	0.09
Mof_N 	N 	0.23472	0.808	0.8141	-0.142
Mof_C 	C 	0.2065	0.7719	0.783	0.097
Mof_N 	N 	0.18314	0.8161	0.7491	-0.133
Mof_C 	C 	0.192	0.902	0.7469	0.096
Mof_N 	N 	0.22108	0.9434	0.775	-0.143
Mof_C 	C 	0.1997	0.6743	0.7835	0.065
Mof_C 	C 	0.2224	0.6188	0.8146	-0.133
Mof_H 	H 	0.2423	0.642	0.838	0.083
Mof_C 	C 	0.2156	0.5291	0.811	0.083
Mof_H 	H 	0.2318	0.4909	0.8319	-0.017
Mof_N 	N 	0.1877	0.4933	0.78	-0.276
Mof_C 	C 	0.1658	0.5472	0.7501	0.072
Mof_H 	H 	0.1456	0.5224	0.7275	-0.016
Mof_C 	C 	0.1714	0.6366	0.7507	-0.127
Mof_H 	H 	0.1557	0.6728	0.7283	0.085
Mof_C 	C 	0.1689	0.9528	0.7084	0.064
Mof_C 	C 	0.1753	0.042	0.7017	-0.132
Mof_H 	H 	0.196	0.0725	0.7209	0.078
Mof_C 	C 	0.151	0.0858	0.6665	0.076
Mof_H 	H 	0.1554	0.147	0.6623	-0.017
Mof_N 	N 	0.12197	0.0468	0.6386	-0.274
Mof_C 	C 	0.1166	0.9617	0.6447	0.085
Mof_H 	H 	0.0957	0.9329	0.6248	-0.009
Mof_C 	C 	0.1395	0.9122	0.6781	-0.13
Mof_H 	H 	0.1351	0.8504	0.6802	0.094
Mof_N 	N 	0.06208	0.0216	0.5457	-0.272
Mof_C 	C 	0.0349	0.9616	0.55	0.073
Mof_H 	H 	0.0196	0.9713	0.572	-0.009
Mof_C 	C 	0.0284	0.8867	0.5239	-0.124
Mof_H 	H 	0.0092	0.845	0.5285	0.075
Mof_C 	C 	0.04944	0.8721	0.4914	0.055
Mof_C 	C 	0.0758	0.936	0.4852	-0.122
Mof_H 	H 	0.0901	0.9296	0.4619	0.082
Mof_C 	C 	0.0814	0.0085	0.5126	0.07
Mof_H 	H 	0.0999	0.0517	0.5079	-0.011
Mof_C 	C 	0.04525	0.7897	0.4644	0.088
Mof_N 	N 	0.01792	0.732	0.4705	-0.147
Mof_C 	C 	0.01408	0.6619	0.4423	0.086
Mof_N 	N 	0.03515	0.6455	0.4116	-0.136
Mof_C 	C 	0.0633	0.7045	0.4108	0.1
Mof_N 	N 	0.06913	0.7776	0.4356	-0.137
Mof_C 	C 	0.9817	0.5998	0.4448	0.061
Mof_C 	C 	0.966	0.5946	0.4829	-0.128
Mof_H 	H 	0.9764	0.6302	0.5085	0.081
Mof_C 	C 	0.9358	0.539	0.4841	0.079
Mof_H 	H 	0.9256	0.5366	0.5109	-0.006
Mof_N 	N 	0.91966	0.4872	0.449	-0.279
Mof_C 	C 	0.9346	0.4936	0.4127	0.088
Mof_H 	H 	0.9235	0.458	0.3873	-0.022
Mof_C 	C 	0.9653	0.5484	0.4089	-0.133
Mof_H 	H 	0.9748	0.5502	0.3817	0.088
Mof_C 	C 	0.09	0.688	0.3795	0.073
Mof_C 	C 	0.1238	0.7348	0.3836	-0.119
Mof_H 	H 	0.13	0.7798	0.4059	0.082
Mof_C 	C 	0.1492	0.7166	0.3553	0.069
Mof_H 	H 	0.1732	0.748	0.3593	-0.013
Mof_N 	N 	0.1408	0.6558	0.3223	-0.279
Mof_C 	C 	0.108	0.6109	0.3189	0.092
Mof_H 	H 	0.1018	0.5675	0.2958	-0.022
Mof_C 	C 	0.0826	0.6237	0.347	-0.131
Mof_H 	H 	0.0599	0.588	0.344	0.088
Mof_I 	I 	0.3874	0.2372	0.91	-0.221
Mof_Zn	Zn	0.1792	0.3583	0.7811	0.529
Mof_I 	I 	0.1386	0.3236	0.7032	-0.043
Mof_I 	I 	0.2414	0.2752	0.8123	-0.3
Mof_Zn	Zn	0.87178	0.59172	0.9492	1.163
Mof_I 	I 	0.85327	0.57	0.02422	-0.379
Mof_I 	I 	0.8835	0.7392	0.9185	-0.118
Mof_Zn	Zn	0.6736	0.8586	0.7724	0.622
Mof_I 	I 	0.62869	0.8373	0.69539	-0.324
Mof_I 	I 	0.73283	0.7602	0.79605	-0.055
Mof_Zn	Zn	0.58051	0.61966	0.59369	1.165
Mof_I 	I 	0.6158	0.73401	0.5567	-0.381
Mof_I 	I 	0.52662	0.64522	0.63634	-0.356
Mof_N 	N 	0.82926	0.5283	0.9028	-0.279
Mof_C 	C 	0.8235	0.4425	0.9061	0.08
Mof_H 	H 	0.8394	0.4111	0.9304	-0.002
Mof_C 	C 	0.7956	0.3957	0.8763	-0.124
Mof_H 	H 	0.7934	0.3334	0.8795	0.087
Mof_C 	C 	0.771	0.4396	0.842	0.051
Mof_C 	C 	0.7762	0.5299	0.8388	-0.126
Mof_H 	H 	0.76	0.5632	0.8155	0.089
Mof_C 	C 	0.8052	0.5711	0.8702	0.074
Mof_H 	H 	0.808	0.6335	0.8683	-0.008
Mof_C 	C 	0.74	0.3932	0.8092	0.09
Mof_N 	N 	0.73472	0.308	0.8141	-0.142
Mof_C 	C 	0.7065	0.2719	0.783	0.097
Mof_N 	N 	0.68314	0.3161	0.7491	-0.133
Mof_C 	C 	0.692	0.402	0.7469	0.096
Mof_N 	N 	0.72108	0.4434	0.775	-0.143
Mof_C 	C 	0.6997	0.1743	0.7835	0.065
Mof_C 	C 	0.7224	0.1188	0.8146	-0.132
Mof_H 	H 	0.7423	0.142	0.838	0.083
Mof_C 	C 	0.7156	0.0291	0.811	0.083
Mof_H 	H 	0.7318	0.9909	0.8319	-0.016
Mof_N 	N 	0.6877	0.9933	0.78	-0.276
Mof_C 	C 	0.6658	0.0472	0.7501	0.071
Mof_H 	H 	0.6456	0.0224	0.7275	-0.016
Mof_C 	C 	0.6714	0.1366	0.7507	-0.127
Mof_H 	H 	0.6557	0.1728	0.7283	0.085
Mof_C 	C 	0.6689	0.4528	0.7084	0.064
Mof_C 	C 	0.6753	0.542	0.7017	-0.131
Mof_H 	H 	0.696	0.5725	0.7209	0.078
Mof_C 	C 	0.651	0.5858	0.6665	0.076
Mof_H 	H 	0.6554	0.647	0.6623	-0.017
Mof_N 	N 	0.62197	0.5468	0.6386	-0.274
Mof_C 	C 	0.6166	0.4617	0.6447	0.085
Mof_H 	H 	0.5957	0.4329	0.6248	-0.009
Mof_C 	C 	0.6395	0.4122	0.6781	-0.129
Mof_H 	H 	0.6351	0.3504	0.6802	0.094
Mof_N 	N 	0.56208	0.5216	0.5457	-0.272
Mof_C 	C 	0.5349	0.4616	0.55	0.073
Mof_H 	H 	0.5196	0.4713	0.572	-0.009
Mof_C 	C 	0.5284	0.3867	0.5239	-0.124
Mof_H 	H 	0.5092	0.345	0.5285	0.075
Mof_C 	C 	0.54944	0.3721	0.4914	0.055
Mof_C 	C 	0.5758	0.436	0.4852	-0.122
Mof_H 	H 	0.5901	0.4296	0.4619	0.082
Mof_C 	C 	0.5814	0.5085	0.5126	0.07
Mof_H 	H 	0.5999	0.5517	0.5079	-0.011
Mof_C 	C 	0.54525	0.2897	0.4644	0.088
Mof_N 	N 	0.51792	0.232	0.4705	-0.147
Mof_C 	C 	0.51408	0.1619	0.4423	0.087
Mof_N 	N 	0.53515	0.1455	0.4116	-0.136
Mof_C 	C 	0.5633	0.2045	0.4108	0.1
Mof_N 	N 	0.56913	0.2776	0.4356	-0.137
Mof_C 	C 	0.4817	0.0998	0.4448	0.061
Mof_C 	C 	0.466	0.0946	0.4829	-0.128
Mof_H 	H 	0.4764	0.1302	0.5085	0.081
Mof_C 	C 	0.4358	0.039	0.4841	0.079
Mof_H 	H 	0.4256	0.0366	0.5109	-0.006
Mof_N 	N 	0.41966	0.9872	0.449	-0.279
Mof_C 	C 	0.4346	0.9936	0.4127	0.088
Mof_H 	H 	0.4235	0.958	0.3873	-0.022
Mof_C 	C 	0.4653	0.0484	0.4089	-0.133
Mof_H 	H 	0.4748	0.0502	0.3817	0.088
Mof_C 	C 	0.59	0.188	0.3795	0.073
Mof_C 	C 	0.6238	0.2348	0.3836	-0.119
Mof_H 	H 	0.63	0.2798	0.4059	0.082
Mof_C 	C 	0.6492	0.2166	0.3553	0.069
Mof_H 	H 	0.6732	0.248	0.3593	-0.013
Mof_N 	N 	0.6408	0.1558	0.3223	-0.279
Mof_C 	C 	0.608	0.1109	0.3189	0.092
Mof_H 	H 	0.6018	0.0675	0.2958	-0.022
Mof_C 	C 	0.5826	0.1237	0.347	-0.131
Mof_H 	H 	0.5599	0.088	0.344	0.088
Mof_I 	I 	0.8874	0.7372	0.91	-0.221
Mof_Zn	Zn	0.6792	0.8583	0.7811	0.529
Mof_I 	I 	0.6386	0.8236	0.7032	-0.043
Mof_I 	I 	0.7414	0.7752	0.8123	-0.3
Mof_Zn	Zn	0.62822	0.90828	0.0508	1.163
Mof_I 	I 	0.64673	0.93	0.97578	-0.379
Mof_I 	I 	0.6165	0.7608	0.0815	-0.118
Mof_Zn	Zn	0.8264	0.6414	0.2276	0.622
Mof_I 	I 	0.87131	0.6627	0.30461	-0.324
Mof_I 	I 	0.76717	0.7398	0.20395	-0.055
Mof_Zn	Zn	0.91949	0.88034	0.40631	1.165
Mof_I 	I 	0.8842	0.76599	0.4433	-0.381
Mof_I 	I 	0.97338	0.85478	0.36366	-0.356
Mof_N 	N 	0.67074	0.9717	0.0972	-0.279
Mof_C 	C 	0.6765	0.0575	0.0939	0.08
Mof_H 	H 	0.6606	0.0889	0.0696	-0.002
Mof_C 	C 	0.7044	0.1043	0.1237	-0.124
Mof_H 	H 	0.7066	0.1666	0.1205	0.087
Mof_C 	C 	0.729	0.0604	0.158	0.051
Mof_C 	C 	0.7238	0.9701	0.1612	-0.126
Mof_H 	H 	0.74	0.9368	0.1845	0.089
Mof_C 	C 	0.6948	0.9289	0.1298	0.074
Mof_H 	H 	0.692	0.8665	0.1317	-0.008
Mof_C 	C 	0.76	0.1068	0.1908	0.09
Mof_N 	N 	0.76528	0.192	0.1859	-0.142
Mof_C 	C 	0.7935	0.2281	0.217	0.097
Mof_N 	N 	0.81686	0.1839	0.2509	-0.133
Mof_C 	C 	0.808	0.098	0.2531	0.096
Mof_N 	N 	0.77892	0.0566	0.225	-0.143
Mof_C 	C 	0.8003	0.3257	0.2165	0.065
Mof_C 	C 	0.7776	0.3812	0.1854	-0.133
Mof_H 	H 	0.7577	0.358	0.162	0.083
Mof_C 	C 	0.7844	0.4709	0.189	0.083
Mof_H 	H 	0.7682	0.5091	0.1681	-0.017
Mof_N 	N 	0.8123	0.5067	0.22	-0.276
Mof_C 	C 	0.8342	0.4528	0.2499	0.072
Mof_H 	H 	0.8544	0.4776	0.2725	-0.016
Mof_C 	C 	0.8286	0.3634	0.2493	-0.127
Mof_H 	H 	0.8443	0.3272	0.2717	0.085
Mof_C 	C 	0.8311	0.0472	0.2916	0.064
Mof_C 	C 	0.8247	0.958	0.2983	-0.132
Mof_H 	H 	0.804	0.9275	0.2791	0.078
Mof_C 	C 	0.849	0.9142	0.3335	0.076
Mof_H 	H 	0.8446	0.853	0.3377	-0.017
Mof_N 	N 	0.87803	0.9532	0.3614	-0.274
Mof_C 	C 	0.8834	0.0383	0.3553	0.085
Mof_H 	H 	0.9043	0.0671	0.3752	-0.009
Mof_C 	C 	0.8605	0.0878	0.3219	-0.13
Mof_H 	H 	0.8649	0.1496	0.3198	0.094
Mof_N 	N 	0.93792	0.9784	0.4543	-0.272
Mof_C 	C 	0.9651	0.0384	0.45	0.073
Mof_H 	H 	0.9804	0.0287	0.428	-0.009
Mof_C 	C 	0.9716	0.1133	0.4761	-0.124
Mof_H 	H 	0.9908	0.155	0.4715	0.075
Mof_C 	C 	0.95056	0.1279	0.5086	0.055
Mof_C 	C 	0.9242	0.064	0.5148	-0.122
Mof_H 	H 	0.9099	0.0704	0.5381	0.082
Mof_C 	C 	0.9186	0.9915	0.4874	0.07
Mof_H 	H 	0.9001	0.9483	0.4921	-0.011
Mof_C 	C 	0.95475	0.2103	0.5356	0.088
Mof_N 	N 	0.98208	0.268	0.5295	-0.147
Mof_C 	C 	0.98592	0.3381	0.5577	0.086
Mof_N 	N 	0.96485	0.3545	0.5884	-0.136
Mof_C 	C 	0.9367	0.2955	0.5892	0.1
Mof_N 	N 	0.93087	0.2224	0.5644	-0.137
Mof_C 	C 	0.0183	0.4002	0.5552	0.061
Mof_C 	C 	0.034	0.4054	0.5171	-0.128
Mof_H 	H 	0.0236	0.3698	0.4915	0.081
Mof_C 	C 	0.0642	0.461	0.5159	0.079
Mof_H 	H 	0.0744	0.4634	0.4891	-0.006
Mof_N 	N 	0.08034	0.5128	0.551	-0.279
Mof_C 	C 	0.0654	0.5064	0.5873	0.088
Mof_H 	H 	0.0765	0.542	0.6127	-0.022
Mof_C 	C 	0.0347	0.4516	0.5911	-0.133
Mof_H 	H 	0.0252	0.4498	0.6183	0.088
Mof_C 	C 	0.91	0.312	0.6205	0.073
Mof_C 	C 	0.8762	0.2652	0.6164	-0.119
Mof_H 	H 	0.87	0.2202	0.5941	0.082
Mof_C 	C 	0.8508	0.2834	0.6447	0.069
Mof_H 	H 	0.8268	0.252	0.6407	-0.013
Mof_N 	N 	0.8592	0.3442	0.6777	-0.279
Mof_C 	C 	0.892	0.3891	0.6811	0.092
Mof_H 	H 	0.8982	0.4325	0.7042	-0.022
Mof_C 	C 	0.9174	0.3763	0.653	-0.131
Mof_H 	H 	0.9401	0.412	0.656	0.088
Mof_I 	I 	0.6126	0.7628	0.09	-0.221
Mof_Zn	Zn	0.8208	0.6417	0.2189	0.529
Mof_I 	I 	0.8614	0.6764	0.2968	-0.043
Mof_I 	I 	0.7586	0.7248	0.1877	-0.3
Mof_Zn	Zn	0.12822	0.40828	0.0508	1.163
Mof_I 	I 	0.14673	0.43	0.97578	-0.379
Mof_I 	I 	0.1165	0.2608	0.0815	-0.118
Mof_Zn	Zn	0.3264	0.1414	0.2276	0.622
Mof_I 	I 	0.37131	0.1627	0.30461	-0.324
Mof_I 	I 	0.26717	0.2398	0.20395	-0.055
Mof_Zn	Zn	0.41949	0.38034	0.40631	1.165
Mof_I 	I 	0.3842	0.26599	0.4433	-0.381
Mof_I 	I 	0.47338	0.35478	0.36366	-0.356
Mof_N 	N 	0.17074	0.4717	0.0972	-0.279
Mof_C 	C 	0.1765	0.5575	0.0939	0.08
Mof_H 	H 	0.1606	0.5889	0.0696	-0.002
Mof_C 	C 	0.2044	0.6043	0.1237	-0.124
Mof_H 	H 	0.2066	0.6666	0.1205	0.087
Mof_C 	C 	0.229	0.5604	0.158	0.051
Mof_C 	C 	0.2238	0.4701	0.1612	-0.126
Mof_H 	H 	0.24	0.4368	0.1845	0.089
Mof_C 	C 	0.1948	0.4289	0.1298	0.074
Mof_H 	H 	0.192	0.3665	0.1317	-0.008
Mof_C 	C 	0.26	0.6068	0.1908	0.09
Mof_N 	N 	0.26528	0.692	0.1859	-0.142
Mof_C 	C 	0.2935	0.7281	0.217	0.097
Mof_N 	N 	0.31686	0.6839	0.2509	-0.133
Mof_C 	C 	0.308	0.598	0.2531	0.096
Mof_N 	N 	0.27892	0.5566	0.225	-0.143
Mof_C 	C 	0.3003	0.8257	0.2165	0.065
Mof_C 	C 	0.2776	0.8812	0.1854	-0.132
Mof_H 	H 	0.2577	0.858	0.162	0.083
Mof_C 	C 	0.2844	0.9709	0.189	0.083
Mof_H 	H 	0.2682	0.0091	0.1681	-0.016
Mof_N 	N 	0.3123	0.0067	0.22	-0.276
Mof_C 	C 	0.3342	0.9528	0.2499	0.071
Mof_H 	H 	0.3544	0.9776	0.2725	-0.016
Mof_C 	C 	0.3286	0.8634	0.2493	-0.127
Mof_H 	H 	0.3443	0.8272	0.2717	0.085
Mof_C 	C 	0.3311	0.5472	0.2916	0.064
Mof_C 	C 	0.3247	0.458	0.2983	-0.131
Mof_H 	H 	0.304	0.4275	0.2791	0.078
Mof_C 	C 	0.349	0.4142	0.3335	0.076
Mof_H 	H 	0.3446	0.353	0.3377	-0.017
Mof_N 	N 	0.37803	0.4532	0.3614	-0.274
Mof_C 	C 	0.3834	0.5383	0.3553	0.085
Mof_H 	H 	0.4043	0.5671	0.3752	-0.009
Mof_C 	C 	0.3605	0.5878	0.3219	-0.129
Mof_H 	H 	0.3649	0.6496	0.3198	0.094
Mof_N 	N 	0.43792	0.4784	0.4543	-0.272
Mof_C 	C 	0.4651	0.5384	0.45	0.073
Mof_H 	H 	0.4804	0.5287	0.428	-0.009
Mof_C 	C 	0.4716	0.6133	0.4761	-0.124
Mof_H 	H 	0.4908	0.655	0.4715	0.075
Mof_C 	C 	0.45056	0.6279	0.5086	0.055
Mof_C 	C 	0.4242	0.564	0.5148	-0.122
Mof_H 	H 	0.4099	0.5704	0.5381	0.082
Mof_C 	C 	0.4186	0.4915	0.4874	0.07
Mof_H 	H 	0.4001	0.4483	0.4921	-0.011
Mof_C 	C 	0.45475	0.7103	0.5356	0.088
Mof_N 	N 	0.48208	0.768	0.5295	-0.147
Mof_C 	C 	0.48592	0.8381	0.5577	0.087
Mof_N 	N 	0.46485	0.8545	0.5884	-0.136
Mof_C 	C 	0.4367	0.7955	0.5892	0.1
Mof_N 	N 	0.43087	0.7224	0.5644	-0.137
Mof_C 	C 	0.5183	0.9002	0.5552	0.061
Mof_C 	C 	0.534	0.9054	0.5171	-0.128
Mof_H 	H 	0.5236	0.8698	0.4915	0.081
Mof_C 	C 	0.5642	0.961	0.5159	0.079
Mof_H 	H 	0.5744	0.9634	0.4891	-0.006
Mof_N 	N 	0.58034	0.0128	0.551	-0.279
Mof_C 	C 	0.5654	0.0064	0.5873	0.088
Mof_H 	H 	0.5765	0.042	0.6127	-0.022
Mof_C 	C 	0.5347	0.9516	0.5911	-0.133
Mof_H 	H 	0.5252	0.9498	0.6183	0.088
Mof_C 	C 	0.41	0.812	0.6205	0.073
Mof_C 	C 	0.3762	0.7652	0.6164	-0.119
Mof_H 	H 	0.37	0.7202	0.5941	0.082
Mof_C 	C 	0.3508	0.7834	0.6447	0.069
Mof_H 	H 	0.3268	0.752	0.6407	-0.013
Mof_N 	N 	0.3592	0.8442	0.6777	-0.279
Mof_C 	C 	0.392	0.8891	0.6811	0.092
Mof_H 	H 	0.3982	0.9325	0.7042	-0.022
Mof_C 	C 	0.4174	0.8763	0.653	-0.131
Mof_H 	H 	0.4401	0.912	0.656	0.088
Mof_I 	I 	0.1126	0.2628	0.09	-0.221
Mof_Zn	Zn	0.3208	0.1417	0.2189	0.529
Mof_I 	I 	0.3614	0.1764	0.2968	-0.043
Mof_I 	I 	0.2586	0.2248	0.1877	-0.3
Mof_Zn	Zn	0.62822	0.09172	0.5508	1.163
Mof_I 	I 	0.64673	0.07	0.47578	-0.379
Mof_I 	I 	0.6165	0.2392	0.5815	-0.118
Mof_Zn	Zn	0.8264	0.3586	0.7276	0.622
Mof_I 	I 	0.87131	0.3373	0.80461	-0.324
Mof_I 	I 	0.76717	0.2602	0.70395	-0.055
Mof_Zn	Zn	0.91949	0.11966	0.90631	1.165
Mof_I 	I 	0.8842	0.23401	0.9433	-0.381
Mof_I 	I 	0.97338	0.14522	0.86366	-0.356
Mof_N 	N 	0.67074	0.0283	0.5972	-0.279
Mof_C 	C 	0.6765	0.9425	0.5939	0.08
Mof_H 	H 	0.6606	0.9111	0.5696	-0.002
Mof_C 	C 	0.7044	0.8957	0.6237	-0.124
Mof_H 	H 	0.7066	0.8334	0.6205	0.087
Mof_C 	C 	0.729	0.9396	0.658	0.051
Mof_C 	C 	0.7238	0.0299	0.6612	-0.126
Mof_H 	H 	0.74	0.0632	0.6845	0.089
Mof_C 	C 	0.6948	0.0711	0.6298	0.074
Mof_H 	H 	0.692	0.1335	0.6317	-0.008
Mof_C 	C 	0.76	0.8932	0.6908	0.09
Mof_N 	N 	0.76528	0.808	0.6859	-0.142
Mof_C 	C 	0.7935	0.7719	0.717	0.097
Mof_N 	N 	0.81686	0.8161	0.7509	-0.133
Mof_C 	C 	0.808	0.902	0.7531	0.096
Mof_N 	N 	0.77892	0.9434	0.725	-0.143
Mof_C 	C 	0.8003	0.6743	0.7165	0.065
Mof_C 	C 	0.7776	0.6188	0.6854	-0.133
Mof_H 	H 	0.7577	0.642	0.662	0.083
Mof_C 	C 	0.7844	0.5291	0.689	0.083
Mof_H 	H 	0.7682	0.4909	0.6681	-0.017
Mof_N 	N 	0.8123	0.4933	0.72	-0.276
Mof_C 	C 	0.8342	0.5472	0.7499	0.072
Mof_H 	H 	0.8544	0.5224	0.7725	-0.016
Mof_C 	C 	0.8286	0.6366	0.7493	-0.127
Mof_H 	H 	0.8443	0.6728	0.7717	0.085
Mof_C 	C 	0.8311	0.9528	0.7916	0.064
Mof_C 	C 	0.8247	0.042	0.7983	-0.132
Mof_H 	H 	0.804	0.0725	0.7791	0.078
Mof_C 	C 	0.849	0.0858	0.8335	0.076
Mof_H 	H 	0.8446	0.147	0.8377	-0.017
Mof_N 	N 	0.87803	0.0468	0.8614	-0.275
Mof_C 	C 	0.8834	0.9617	0.8553	0.085
Mof_H 	H 	0.9043	0.9329	0.8752	-0.009
Mof_C 	C 	0.8605	0.9122	0.8219	-0.13
Mof_H 	H 	0.8649	0.8504	0.8198	0.094
Mof_N 	N 	0.93792	0.0216	0.9543	-0.272
Mof_C 	C 	0.9651	0.9616	0.95	0.073
Mof_H 	H 	0.9804	0.9713	0.928	-0.009
Mof_C 	C 	0.9716	0.8867	0.9761	-0.124
Mof_H 	H 	0.9908	0.845	0.9715	0.075
Mof_C 	C 	0.95056	0.8721	0.0086	0.055
Mof_C 	C 	0.9242	0.936	0.0148	-0.122
Mof_H 	H 	0.9099	0.9296	0.0381	0.082
Mof_C 	C 	0.9186	0.0085	0.9874	0.069
Mof_H 	H 	0.9001	0.0517	0.9921	-0.011
Mof_C 	C 	0.95475	0.7897	0.0356	0.088
Mof_N 	N 	0.98208	0.732	0.0295	-0.147
Mof_C 	C 	0.98592	0.6619	0.0577	0.087
Mof_N 	N 	0.96485	0.6455	0.0884	-0.136
Mof_C 	C 	0.9367	0.7045	0.0892	0.1
Mof_N 	N 	0.93087	0.7776	0.0644	-0.137
Mof_C 	C 	0.0183	0.5998	0.0552	0.061
Mof_C 	C 	0.034	0.5946	0.0171	-0.128
Mof_H 	H 	0.0236	0.6302	0.9915	0.081
Mof_C 	C 	0.0642	0.539	0.0159	0.079
Mof_H 	H 	0.0744	0.5366	0.9891	-0.006
Mof_N 	N 	0.08034	0.4872	0.051	-0.279
Mof_C 	C 	0.0654	0.4936	0.0873	0.088
Mof_H 	H 	0.0765	0.458	0.1127	-0.022
Mof_C 	C 	0.0347	0.5484	0.0911	-0.133
Mof_H 	H 	0.0252	0.5502	0.1183	0.088
Mof_C 	C 	0.91	0.688	0.1205	0.073
Mof_C 	C 	0.8762	0.7348	0.1164	-0.119
Mof_H 	H 	0.87	0.7798	0.0941	0.082
Mof_C 	C 	0.8508	0.7166	0.1447	0.069
Mof_H 	H 	0.8268	0.748	0.1407	-0.013
Mof_N 	N 	0.8592	0.6558	0.1777	-0.279
Mof_C 	C 	0.892	0.6109	0.1811	0.092
Mof_H 	H 	0.8982	0.5675	0.2042	-0.022
Mof_C 	C 	0.9174	0.6237	0.153	-0.131
Mof_H 	H 	0.9401	0.588	0.156	0.088
Mof_I 	I 	0.6126	0.2372	0.59	-0.221
Mof_Zn	Zn	0.8208	0.3583	0.7189	0.529
Mof_I 	I 	0.8614	0.3236	0.7968	-0.043
Mof_I 	I 	0.7586	0.2752	0.6877	-0.3
Mof_Zn	Zn	0.12822	0.59172	0.5508	1.163
Mof_I 	I 	0.14673	0.57	0.47578	-0.379
Mof_I 	I 	0.1165	0.7392	0.5815	-0.118
Mof_Zn	Zn	0.3264	0.8586	0.7276	0.622
Mof_I 	I 	0.37131	0.8373	0.80461	-0.324
Mof_I 	I 	0.26717	0.7602	0.70395	-0.055
Mof_Zn	Zn	0.41949	0.61966	0.90631	1.165
Mof_I 	I 	0.3842	0.73401	0.9433	-0.381
Mof_I 	I 	0.47338	0.64522	0.86366	-0.356
Mof_N 	N 	0.17074	0.5283	0.5972	-0.279
Mof_C 	C 	0.1765	0.4425	0.5939	0.08
Mof_H 	H 	0.1606	0.4111	0.5696	-0.002
Mof_C 	C 	0.2044	0.3957	0.6237	-0.124
Mof_H 	H 	0.2066	0.3334	0.6205	0.087
Mof_C 	C 	0.229	0.4396	0.658	0.051
Mof_C 	C 	0.2238	0.5299	0.6612	-0.126
Mof_H 	H 	0.24	0.5632	0.6845	0.089
Mof_C 	C 	0.1948	0.5711	0.6298	0.074
Mof_H 	H 	0.192	0.6335	0.6317	-0.008
Mof_C 	C 	0.26	0.3932	0.6908	0.09
Mof_N 	N 	0.26528	0.308	0.6859	-0.142
Mof_C 	C 	0.2935	0.2719	0.717	0.097
Mof_N 	N 	0.31686	0.3161	0.7509	-0.133
Mof_C 	C 	0.308	0.402	0.7531	0.096
Mof_N 	N 	0.27892	0.4434	0.725	-0.143
Mof_C 	C 	0.3003	0.1743	0.7165	0.065
Mof_C 	C 	0.2776	0.1188	0.6854	-0.132
Mof_H 	H 	0.2577	0.142	0.662	0.083
Mof_C 	C 	0.2844	0.0291	0.689	0.083
Mof_H 	H 	0.2682	0.9909	0.6681	-0.017
Mof_N 	N 	0.3123	0.9933	0.72	-0.276
Mof_C 	C 	0.3342	0.0472	0.7499	0.071
Mof_H 	H 	0.3544	0.0224	0.7725	-0.016
Mof_C 	C 	0.3286	0.1366	0.7493	-0.127
Mof_H 	H 	0.3443	0.1728	0.7717	0.085
Mof_C 	C 	0.3311	0.4528	0.7916	0.064
Mof_C 	C 	0.3247	0.542	0.7983	-0.131
Mof_H 	H 	0.304	0.5725	0.7791	0.078
Mof_C 	C 	0.349	0.5858	0.8335	0.076
Mof_H 	H 	0.3446	0.647	0.8377	-0.017
Mof_N 	N 	0.37803	0.5468	0.8614	-0.274
Mof_C 	C 	0.3834	0.4617	0.8553	0.085
Mof_H 	H 	0.4043	0.4329	0.8752	-0.009
Mof_C 	C 	0.3605	0.4122	0.8219	-0.129
Mof_H 	H 	0.3649	0.3504	0.8198	0.094
Mof_N 	N 	0.43792	0.5216	0.9543	-0.272
Mof_C 	C 	0.4651	0.4616	0.95	0.073
Mof_H 	H 	0.4804	0.4713	0.928	-0.009
Mof_C 	C 	0.4716	0.3867	0.9761	-0.124
Mof_H 	H 	0.4908	0.345	0.9715	0.075
Mof_C 	C 	0.45056	0.3721	0.0086	0.055
Mof_C 	C 	0.4242	0.436	0.0148	-0.122
Mof_H 	H 	0.4099	0.4296	0.0381	0.082
Mof_C 	C 	0.4186	0.5085	0.9874	0.07
Mof_H 	H 	0.4001	0.5517	0.9921	-0.011
Mof_C 	C 	0.45475	0.2897	0.0356	0.088
Mof_N 	N 	0.48208	0.232	0.0295	-0.147
Mof_C 	C 	0.48592	0.1619	0.0577	0.087
Mof_N 	N 	0.46485	0.1455	0.0884	-0.136
Mof_C 	C 	0.4367	0.2045	0.0892	0.1
Mof_N 	N 	0.43087	0.2776	0.0644	-0.137
Mof_C 	C 	0.5183	0.0998	0.0552	0.061
Mof_C 	C 	0.534	0.0946	0.0171	-0.128
Mof_H 	H 	0.5236	0.1302	0.9915	0.081
Mof_C 	C 	0.5642	0.039	0.0159	0.079
Mof_H 	H 	0.5744	0.0366	0.9891	-0.006
Mof_N 	N 	0.58034	0.9872	0.051	-0.279
Mof_C 	C 	0.5654	0.9936	0.0873	0.088
Mof_H 	H 	0.5765	0.958	0.1127	-0.022
Mof_C 	C 	0.5347	0.0484	0.0911	-0.133
Mof_H 	H 	0.5252	0.0502	0.1183	0.088
Mof_C 	C 	0.41	0.188	0.1205	0.073
Mof_C 	C 	0.3762	0.2348	0.1164	-0.119
Mof_H 	H 	0.37	0.2798	0.0941	0.082
Mof_C 	C 	0.3508	0.2166	0.1447	0.069
Mof_H 	H 	0.3268	0.248	0.1407	-0.013
Mof_N 	N 	0.3592	0.1558	0.1777	-0.279
Mof_C 	C 	0.392	0.1109	0.1811	0.092
Mof_H 	H 	0.3982	0.0675	0.2042	-0.022
Mof_C 	C 	0.4174	0.1237	0.153	-0.131
Mof_H 	H 	0.4401	0.088	0.156	0.088
Mof_I 	I 	0.1126	0.7372	0.59	-0.221
Mof_Zn	Zn	0.3208	0.8583	0.7189	0.529
Mof_I 	I 	0.3614	0.8236	0.7968	-0.043
Mof_I 	I 	0.2586	0.7752	0.6877	-0.3
_end
