data_functionalizedCrystal
_audit_creation_method	'EQeq! by Chris Wilmer'
_symmetry_space_group_name_H-M	'P1'
_symmetry_Int_Tables_number	1
_symmetry_cell_setting	triclinic
loop_
_symmetry_equiv_pos_as_xyz
  x,y,z
_cell_length_a	7.1693
_cell_length_b	10.7246
_cell_length_c	17.158
_cell_angle_alpha	97.109
_cell_angle_beta	90
_cell_angle_gamma	90
loop_
_atom_site_label
_atom_site_type_symbol
_atom_site_fract_x
_atom_site_fract_y
_atom_site_fract_z
_atom_site_charge
Mof_Tb	Tb	0.47995	0.82429	0.25327	2.121
Mof_Tb	Tb	0.97995	0.67571	0.24673	2.102
Mof_Tb	Tb	0.52005	0.17571	0.74673	2.12
Mof_Tb	Tb	0.02005	0.32429	0.75327	2.101
Mof_H 	H 	0.6845	0.9901	0.5188	0.061
Mof_H 	H 	0.3502	0.6645	0.4504	0.047
Mof_H 	H 	0.1845	0.5099	0.9812	0.058
Mof_H 	H 	0.8502	0.8355	0.0496	0.051
Mof_H 	H 	0.3155	0.0099	0.4812	0.061
Mof_H 	H 	0.6498	0.3355	0.5496	0.047
Mof_H 	H 	0.8155	0.4901	0.0188	0.058
Mof_H 	H 	0.1498	0.1645	0.9504	0.051
Mof_C 	C 	0.8127	0.9931	0.5111	0.006
Mof_C 	C 	0.882	0.9505	0.4378	-0.078
Mof_C 	C 	0.0758	0.9594	0.4259	-0.033
Mof_C 	C 	0.7485	0.9049	0.3733	0.397
Mof_C 	C 	0.1724	0.914	0.3512	0.349
Mof_C 	C 	0.4108	0.5984	0.4701	0.012
Mof_C 	C 	0.5717	0.548	0.4323	-0.092
Mof_C 	C 	0.6611	0.4469	0.4639	-0.016
Mof_C 	C 	0.6475	0.6109	0.3641	0.495
Mof_C 	C 	0.8194	0.3797	0.4222	0.271
Mof_C 	C 	0.3127	0.5069	0.9889	0.012
Mof_C 	C 	0.382	0.5495	0.0622	-0.069
Mof_C 	C 	0.5758	0.5406	0.0741	-0.046
Mof_C 	C 	0.2485	0.5951	0.1267	0.395
Mof_C 	C 	0.6724	0.586	0.1488	0.352
Mof_C 	C 	0.9108	0.9016	0.0299	-0.009
Mof_C 	C 	0.0717	0.952	0.0677	-0.077
Mof_C 	C 	0.1611	0.0531	0.0361	-0.014
Mof_C 	C 	0.1475	0.8891	0.1359	0.49
Mof_C 	C 	0.3194	0.1203	0.0778	0.27
Mof_C 	C 	0.1873	0.0069	0.4889	0.006
Mof_C 	C 	0.118	0.0495	0.5622	-0.078
Mof_C 	C 	0.9242	0.0406	0.5741	-0.033
Mof_C 	C 	0.2515	0.0951	0.6267	0.397
Mof_C 	C 	0.8276	0.086	0.6488	0.349
Mof_C 	C 	0.5892	0.4016	0.5299	0.012
Mof_C 	C 	0.4283	0.452	0.5677	-0.092
Mof_C 	C 	0.3389	0.5531	0.5361	-0.016
Mof_C 	C 	0.3525	0.3891	0.6359	0.495
Mof_C 	C 	0.1806	0.6203	0.5778	0.271
Mof_C 	C 	0.6873	0.4931	0.0111	0.012
Mof_C 	C 	0.618	0.4505	0.9378	-0.069
Mof_C 	C 	0.4242	0.4594	0.9259	-0.046
Mof_C 	C 	0.7515	0.4049	0.8733	0.395
Mof_C 	C 	0.3276	0.414	0.8512	0.352
Mof_C 	C 	0.0892	0.0984	0.9701	-0.009
Mof_C 	C 	0.9283	0.048	0.9323	-0.077
Mof_C 	C 	0.8389	0.9469	0.9639	-0.014
Mof_C 	C 	0.8525	0.1109	0.8641	0.49
Mof_C 	C 	0.6806	0.8797	0.9222	0.27
Mof_O 	O 	0.5761	0.9164	0.3861	-0.445
Mof_O 	O 	0.8096	0.8535	0.3083	-0.61
Mof_O 	O 	0.192	0.7949	0.3299	-0.607
Mof_O 	O 	0.2521	0.9938	0.315	-0.39
Mof_O 	O 	0.5288	0.6548	0.3237	-0.544
Mof_O 	O 	0.8212	0.6139	0.3568	-0.515
Mof_O 	O 	0.8194	0.348	0.3505	-0.222
Mof_O 	O 	0.956	0.3497	0.4677	-0.199
Mof_O 	O 	0.0761	0.5836	0.1139	-0.439
Mof_O 	O 	0.3096	0.6465	0.1917	-0.606
Mof_O 	O 	0.692	0.7051	0.1701	-0.612
Mof_O 	O 	0.7521	0.5062	0.185	-0.392
Mof_O 	O 	0.0288	0.8452	0.1763	-0.537
Mof_O 	O 	0.3212	0.8861	0.1432	-0.514
Mof_O 	O 	0.3194	0.152	0.1495	-0.222
Mof_O 	O 	0.456	0.1503	0.0323	-0.2
Mof_O 	O 	0.4239	0.0836	0.6139	-0.445
Mof_O 	O 	0.1904	0.1465	0.6917	-0.61
Mof_O 	O 	0.808	0.2051	0.6701	-0.607
Mof_O 	O 	0.7479	0.0062	0.685	-0.39
Mof_O 	O 	0.4712	0.3452	0.6763	-0.544
Mof_O 	O 	0.1788	0.3861	0.6432	-0.515
Mof_O 	O 	0.1806	0.652	0.6495	-0.222
Mof_O 	O 	0.044	0.6503	0.5323	-0.199
Mof_O 	O 	0.9239	0.4164	0.8861	-0.439
Mof_O 	O 	0.6904	0.3535	0.8083	-0.606
Mof_O 	O 	0.308	0.2949	0.8299	-0.612
Mof_O 	O 	0.2479	0.4938	0.815	-0.392
Mof_O 	O 	0.9712	0.1548	0.8237	-0.537
Mof_O 	O 	0.6788	0.1139	0.8568	-0.514
Mof_O 	O 	0.6806	0.848	0.8505	-0.222
Mof_O 	O 	0.544	0.8497	0.9677	-0.2
_end
