data_functionalizedCrystal
_audit_creation_method	'EQeq! by Chris Wilmer'
_symmetry_space_group_name_H-M	'P1'
_symmetry_Int_Tables_number	1
_symmetry_cell_setting	triclinic
loop_
_symmetry_equiv_pos_as_xyz
  x,y,z
_cell_length_a	7.396
_cell_length_b	15.666
_cell_length_c	17.5706
_cell_angle_alpha	110.896
_cell_angle_beta	102.15
_cell_angle_gamma	90
loop_
_atom_site_label
_atom_site_type_symbol
_atom_site_fract_x
_atom_site_fract_y
_atom_site_fract_z
_atom_site_charge
Mof_Cu	Cu	0.89038	0.41503	0.50522	0.917
Mof_Cu	Cu	0.88923	0.40794	0.32454	0.926
Mof_Cu	Cu	0.38516	0.08497	0.49478	0.917
Mof_Cu	Cu	0.56469	0.09206	0.67546	0.925
Mof_Cu	Cu	0.10962	0.58497	0.49478	0.916
Mof_Cu	Cu	0.11077	0.59206	0.67546	0.925
Mof_Cu	Cu	0.61484	0.91503	0.50522	0.916
Mof_Cu	Cu	0.43531	0.90794	0.32454	0.925
Mof_H 	H 	0.2585	0.4693	0.7872	0.008
Mof_H 	H 	0.0153	0.2602	0.5884	0.029
Mof_H 	H 	0.1698	0.2252	0.7254	0.157
Mof_H 	H 	0.267	0.3047	0.7998	0.153
Mof_H 	H 	0.8554	0.1168	0.436	0.043
Mof_H 	H 	0.9868	0.1359	0.2324	0.041
Mof_H 	H 	0.0242	0.981	0.1816	0.078
Mof_H 	H 	0.3863	0.3162	0.1238	0.03
Mof_H 	H 	0.9935	0.8948	0.262	0.022
Mof_H 	H 	0.4713	0.0307	0.2128	0.007
Mof_H 	H 	0.4269	0.2398	0.4116	0.03
Mof_H 	H 	0.4444	0.2748	0.2746	0.157
Mof_H 	H 	0.4672	0.1953	0.2002	0.152
Mof_H 	H 	0.4194	0.3832	0.564	0.043
Mof_H 	H 	0.7544	0.3641	0.7676	0.04
Mof_H 	H 	0.8426	0.519	0.8184	0.082
Mof_H 	H 	0.2625	0.1838	0.8762	0.029
Mof_H 	H 	0.7315	0.6052	0.738	0.02
Mof_H 	H 	0.7415	0.5307	0.2128	0.007
Mof_H 	H 	0.9847	0.7398	0.4116	0.029
Mof_H 	H 	0.8302	0.7748	0.2746	0.157
Mof_H 	H 	0.733	0.6953	0.2002	0.152
Mof_H 	H 	0.1446	0.8832	0.564	0.043
Mof_H 	H 	0.0132	0.8641	0.7676	0.041
Mof_H 	H 	0.9758	0.019	0.8184	0.08
Mof_H 	H 	0.6137	0.6838	0.8762	0.029
Mof_H 	H 	0.0065	0.1052	0.738	0.022
Mof_H 	H 	0.5287	0.9693	0.7872	0.008
Mof_H 	H 	0.5731	0.7602	0.5884	0.03
Mof_H 	H 	0.5556	0.7252	0.7254	0.157
Mof_H 	H 	0.5328	0.8047	0.7998	0.153
Mof_H 	H 	0.5806	0.6168	0.436	0.043
Mof_H 	H 	0.2456	0.6359	0.2324	0.039
Mof_H 	H 	0.1574	0.481	0.1816	0.081
Mof_H 	H 	0.7375	0.8162	0.1238	0.029
Mof_H 	H 	0.2685	0.3948	0.262	0.02
Mof_H 	H 	0.7921	0.25	-0	0.04
Mof_H 	H 	0.1708	0.25	-0	0.085
Mof_H 	H 	0.2079	0.75	-0	0.04
Mof_H 	H 	0.8292	0.75	-0	0.085
Mof_C 	C 	0.1907	0.4341	0.734	0.102
Mof_C 	C 	0.0574	0.3196	0.625	0.098
Mof_C 	C 	0.88181	0.9377	0.40402	0.357
Mof_C 	C 	0.891	0.0899	0.3854	0.043
Mof_C 	C 	0.9211	0.142	0.34	-0.111
Mof_C 	C 	0.9146	0.9966	0.3552	-0.127
Mof_C 	C 	0.903	0.2434	0.3708	0.364
Mof_C 	C 	0.9698	0.1006	0.2634	0.04
Mof_C 	C 	0.9935	0.0082	0.2332	-0.106
Mof_C 	C 	0.7572	0.3299	0.1564	0.348
Mof_C 	C 	0.6129	0.2895	0.0756	-0.113
Mof_C 	C 	0.4256	0.2894	0.0742	0.047
Mof_C 	C 	0.971	0.9565	0.2802	0.031
Mof_C 	C 	0.4567	0.0659	0.266	0.102
Mof_C 	C 	0.4324	0.1804	0.375	0.098
Mof_C 	C 	0.47779	0.5623	0.59598	0.359
Mof_C 	C 	0.5056	0.4101	0.6146	0.043
Mof_C 	C 	0.5811	0.358	0.66	-0.113
Mof_C 	C 	0.5594	0.5034	0.6448	-0.128
Mof_C 	C 	0.5322	0.2566	0.6292	0.365
Mof_C 	C 	0.7064	0.3994	0.7366	0.044
Mof_C 	C 	0.7603	0.4918	0.7668	-0.114
Mof_C 	C 	0.6008	0.1701	0.8436	0.348
Mof_C 	C 	0.5373	0.2105	0.9244	-0.109
Mof_C 	C 	0.3514	0.2106	0.9258	0.051
Mof_C 	C 	0.6908	0.5435	0.7198	0.037
Mof_C 	C 	0.8093	0.5659	0.266	0.102
Mof_C 	C 	0.9426	0.6804	0.375	0.098
Mof_C 	C 	0.11819	0.0623	0.59598	0.357
Mof_C 	C 	0.109	0.9101	0.6146	0.043
Mof_C 	C 	0.0789	0.858	0.66	-0.111
Mof_C 	C 	0.0854	0.0034	0.6448	-0.127
Mof_C 	C 	0.097	0.7566	0.6292	0.365
Mof_C 	C 	0.0302	0.8994	0.7366	0.041
Mof_C 	C 	0.0065	0.9918	0.7668	-0.108
Mof_C 	C 	0.2428	0.6701	0.8436	0.348
Mof_C 	C 	0.3871	0.7105	0.9244	-0.109
Mof_C 	C 	0.5744	0.7106	0.9258	0.053
Mof_C 	C 	0.029	0.0435	0.7198	0.032
Mof_C 	C 	0.5433	0.9341	0.734	0.102
Mof_C 	C 	0.5676	0.8196	0.625	0.098
Mof_C 	C 	0.52221	0.4377	0.40402	0.359
Mof_C 	C 	0.4944	0.5899	0.3854	0.043
Mof_C 	C 	0.4189	0.642	0.34	-0.113
Mof_C 	C 	0.4406	0.4966	0.3552	-0.128
Mof_C 	C 	0.4678	0.7434	0.3708	0.365
Mof_C 	C 	0.2936	0.6006	0.2634	0.043
Mof_C 	C 	0.2397	0.5082	0.2332	-0.113
Mof_C 	C 	0.3992	0.8299	0.1564	0.348
Mof_C 	C 	0.4627	0.7895	0.0756	-0.113
Mof_C 	C 	0.6486	0.7894	0.0742	0.047
Mof_C 	C 	0.3092	0.4565	0.2802	0.037
Mof_C 	C 	0.6664	0.25	-0	0.042
Mof_C 	C 	0.297	0.25	-0	-0.121
Mof_C 	C 	0.3336	0.75	-0	0.041
Mof_C 	C 	0.703	0.75	-0	-0.124
Mof_N 	N 	0.03014	0.3926	0.60688	-0.186
Mof_N 	N 	0.11596	0.4658	0.67712	-0.191
Mof_N 	N 	0.1552	0.3419	0.7044	-0.095
Mof_N 	N 	0.2037	0.2829	0.749	-0.251
Mof_N 	N 	0.42326	0.1074	0.39312	-0.186
Mof_N 	N 	0.43884	0.0342	0.32288	-0.191
Mof_N 	N 	0.4508	0.1581	0.2956	-0.095
Mof_N 	N 	0.4547	0.2171	0.251	-0.251
Mof_N 	N 	0.96986	0.6074	0.39312	-0.187
Mof_N 	N 	0.88404	0.5342	0.32288	-0.191
Mof_N 	N 	0.8448	0.6581	0.2956	-0.095
Mof_N 	N 	0.7963	0.7171	0.251	-0.251
Mof_N 	N 	0.57674	0.8926	0.60688	-0.187
Mof_N 	N 	0.56116	0.9658	0.67712	-0.191
Mof_N 	N 	0.5492	0.8419	0.7044	-0.095
Mof_N 	N 	0.5453	0.7829	0.749	-0.251
Mof_O 	O 	0.90967	0.2822	0.31934	-0.391
Mof_O 	O 	0.87989	0.2827	0.44478	-0.399
Mof_O 	O 	0.00088	0.8904	0.42276	-0.282
Mof_O 	O 	0.72173	0.9421	0.42186	-0.451
Mof_O 	O 	0.07384	0.4556	0.42908	-0.467
Mof_O 	O 	0.6967	0.3623	0.2212	-0.389
Mof_O 	O 	0.9232	0.3282	0.1556	-0.3
Mof_O 	O 	0.59033	0.2178	0.68066	-0.391
Mof_O 	O 	0.43511	0.2173	0.55522	-0.399
Mof_O 	O 	0.57812	0.6096	0.57724	-0.284
Mof_O 	O 	0.29987	0.5579	0.57814	-0.451
Mof_O 	O 	0.64476	0.0444	0.57092	-0.467
Mof_O 	O 	0.4755	0.1377	0.7788	-0.389
Mof_O 	O 	0.7676	0.1718	0.8444	-0.298
Mof_O 	O 	0.09033	0.7178	0.68066	-0.391
Mof_O 	O 	0.12011	0.7173	0.55522	-0.399
Mof_O 	O 	0.99912	0.1096	0.57724	-0.282
Mof_O 	O 	0.27827	0.0579	0.57814	-0.451
Mof_O 	O 	0.92616	0.5444	0.57092	-0.467
Mof_O 	O 	0.3033	0.6377	0.7788	-0.389
Mof_O 	O 	0.0768	0.6718	0.8444	-0.298
Mof_O 	O 	0.40967	0.7822	0.31934	-0.391
Mof_O 	O 	0.56489	0.7827	0.44478	-0.399
Mof_O 	O 	0.42188	0.3904	0.42276	-0.284
Mof_O 	O 	0.70013	0.4421	0.42186	-0.451
Mof_O 	O 	0.35524	0.9556	0.42908	-0.467
Mof_O 	O 	0.5245	0.8623	0.2212	-0.39
Mof_O 	O 	0.2324	0.8282	0.1556	-0.3
_end
