data_functionalizedCrystal
_audit_creation_method	'EQeq! by Chris Wilmer'
_symmetry_space_group_name_H-M	'P1'
_symmetry_Int_Tables_number	1
_symmetry_cell_setting	triclinic
loop_
_symmetry_equiv_pos_as_xyz
  x,y,z
_cell_length_a	6.5685
_cell_length_b	16.3904
_cell_length_c	13.2097
_cell_angle_alpha	90
_cell_angle_beta	90
_cell_angle_gamma	90
loop_
_atom_site_label
_atom_site_type_symbol
_atom_site_fract_x
_atom_site_fract_y
_atom_site_fract_z
_atom_site_charge
Mof_O 	O 	0.1699	0.16767	0.8405	-1.603
Mof_C 	C 	0.8032	0.0292	0.9582	0.017
Mof_O 	O 	0.6699	0.66767	0.3405	-1.594
Mof_C 	C 	0.3032	0.5292	0.4582	0.063
Mof_O 	O 	0.8301	0.33233	0.8405	-1.625
Mof_C 	C 	0.1968	0.4708	0.9582	0.05
Mof_O 	O 	0.3301	0.83233	0.3405	-1.594
Mof_C 	C 	0.6968	0.9708	0.4582	0.04
Mof_O 	O 	0.8301	0.66767	0.1595	-1.625
Mof_C 	C 	0.1968	0.5292	0.0418	0.05
Mof_O 	O 	0.3301	0.16767	0.6595	-1.594
Mof_C 	C 	0.6968	0.0292	0.5418	0.04
Mof_O 	O 	0.1699	0.83233	0.1595	-1.604
Mof_C 	C 	0.8032	0.9708	0.0418	0.016
Mof_O 	O 	0.6699	0.33233	0.6595	-1.594
Mof_C 	C 	0.3032	0.4708	0.5418	0.063
Mof_O 	O 	0.8301	0.83233	0.1595	-1.625
Mof_C 	C 	0.1968	0.9708	0.0418	0.05
Mof_O 	O 	0.3301	0.33233	0.6595	-1.594
Mof_C 	C 	0.6968	0.4708	0.5418	0.04
Mof_O 	O 	0.1699	0.66767	0.1595	-1.604
Mof_C 	C 	0.8032	0.5292	0.0418	0.016
Mof_O 	O 	0.6699	0.16767	0.6595	-1.594
Mof_C 	C 	0.3032	0.0292	0.5418	0.063
Mof_O 	O 	0.1699	0.33233	0.8405	-1.604
Mof_C 	C 	0.8032	0.4708	0.9582	0.016
Mof_O 	O 	0.6699	0.83233	0.3405	-1.594
Mof_C 	C 	0.3032	0.9708	0.4582	0.063
Mof_O 	O 	0.8301	0.16767	0.8405	-1.625
Mof_C 	C 	0.1968	0.0292	0.9582	0.05
Mof_O 	O 	0.3301	0.66767	0.3405	-1.594
Mof_C 	C 	0.6968	0.5292	0.4582	0.04
Mof_Al	Al	0.25	0.25	0.75	6.812
Mof_Al	Al	0.75	0.25	0.75	6.713
Mof_Al	Al	0.75	0.75	0.25	6.713
Mof_Al	Al	0.25	0.75	0.25	6.812
Mof_F 	F 	5.23221e-33	0.25	0.6939	-2.291
Mof_F 	F 	0.5	0.75	0.1939	-2.314
Mof_F 	F 	2.00582e-32	0.75	0.3061	-2.291
Mof_F 	F 	0.5	0.25	0.8061	-2.314
Mof_C 	C 	2.48923e-32	0.0642	0.9472	-0.235
Mof_C 	C 	6.5397e-33	0.1359	0.8673	1.171
Mof_C 	C 	0.5	0.5642	0.4472	-0.273
Mof_C 	C 	0.5	0.6359	0.3673	1.124
Mof_C 	C 	2.48923e-32	0.4358	0.9472	-0.234
Mof_C 	C 	2.42898e-32	0.3641	0.8673	1.171
Mof_C 	C 	0.5	0.9358	0.4472	-0.273
Mof_C 	C 	0.5	0.8641	0.3673	1.124
Mof_C 	C 	-8.47694e-33	0.5642	0.0528	-0.234
Mof_C 	C 	-1.21817e-33	0.6359	0.1327	1.171
Mof_C 	C 	0.5	0.0642	0.5528	-0.273
Mof_C 	C 	0.5	0.1359	0.6327	1.124
Mof_C 	C 	2.70233e-32	0.9358	0.0528	-0.235
Mof_C 	C 	-1.21817e-33	0.8641	0.1327	1.171
Mof_C 	C 	0.5	0.4358	0.5528	-0.273
Mof_C 	C 	0.5	0.3641	0.6327	1.124
_end
