# CIF file generated by openbabel 3.1.0, see https://openbabel.org
data_I
_chemical_name_common 'NOKPEJ_clean'
_cell_length_a 8.6482
_cell_length_b 10.3263
_cell_length_c 12.9197
_cell_angle_alpha 112.248
_cell_angle_beta 108.035
_cell_angle_gamma 93.5997
_space_group_name_H-M_alt 'P 1'
_space_group_name_Hall 'P 1'
loop_
    _symmetry_equiv_pos_as_xyz
    x,y,z
loop_
    _atom_site_label
    _atom_site_type_symbol
    _atom_site_fract_x
    _atom_site_fract_y
    _atom_site_fract_z
    _atom_site_occupancy
    Cd1      Cd       0.95596    0.47052    0.21379    1.000
    Cd2      Cd       0.30865    0.28980    0.31237    1.000
    Cd3      Cd       0.24217    0.25673    0.78621    1.000
    Cd4      Cd       0.49628    0.97743    0.68763    1.000
    H1       H        0.15590    0.79090    0.45800    1.000
    H2       H        0.50370    0.61080    0.57820    1.000
    H3       H        0.07670    0.45970    0.98380    1.000
    H4       H        0.40020    0.23700    0.05720    1.000
    H5       H        0.88060    0.16430    0.39500    1.000
    H6       H        0.71560    0.11090    0.28320    1.000
    H7       H        0.00730    0.00400    0.27920    1.000
    H8       H        0.84020    0.94930    0.16820    1.000
    H9       H        0.87410    0.92680    0.38280    1.000
    H10      H        0.70970    0.86970    0.27060    1.000
    H11      H        0.19790    0.33290    0.54200    1.000
    H12      H        0.42550    0.03260    0.42180    1.000
    H13      H        0.59290    0.47590    0.01620    1.000
    H14      H        0.84300    0.17980    0.94280    1.000
    H15      H        0.98560    0.76930    0.60500    1.000
    H16      H        0.93240    0.82770    0.71680    1.000
    H17      H        0.22810    0.72480    0.72080    1.000
    H18      H        0.17200    0.78110    0.83180    1.000
    H19      H        0.99130    0.54400    0.61720    1.000
    H20      H        0.93910    0.59910    0.72940    1.000
    C1       C        0.21788    0.72268    0.46656    1.000
    C2       C        0.40648    0.62568    0.53176    1.000
    C3       C        0.14632    0.41372    0.02224    1.000
    C4       C        0.32081    0.29351    0.06202    1.000
    C5       C        0.89031    0.24341    0.27442    1.000
    C6       C        0.83572    0.12872    0.30824    1.000
    C7       C        0.88731    0.98801    0.25502    1.000
    C8       C        0.82977    0.88397    0.29574    1.000
    C9       C        0.87489    0.73899    0.25258    1.000
    C10      C        0.25132    0.25612    0.53344    1.000
    C11      C        0.37472    0.09392    0.46824    1.000
    C12      C        0.62408    0.39148    0.97776    1.000
    C13      C        0.75879    0.23149    0.93798    1.000
    C14      C        0.11589    0.96899    0.72558    1.000
    C15      C        0.02748    0.82048    0.69176    1.000
    C16      C        0.13229    0.73299    0.74498    1.000
    C17      C        0.03403    0.58823    0.70426    1.000
    C18      C        0.12231    0.48641    0.74742    1.000
    N1       N        0.29420    0.52210    0.43560    1.000
    N2       N        0.16997    0.58637    0.39354    1.000
    N3       N        0.36624    0.75374    0.55528    1.000
    N4       N        0.27108    0.33978    0.15336    1.000
    N5       N        0.15652    0.41892    0.12724    1.000
    N6       N        0.24565    0.33595    0.97630    1.000
    N7       N        0.35860    0.08650    0.56440    1.000
    N8       N        0.27643    0.19283    0.60646    1.000
    N9       N        0.31096    0.19846    0.44472    1.000
    N10      N        0.61772    0.18642    0.84664    1.000
    N11      N        0.52928    0.29168    0.87276    1.000
    N12      N        0.76935    0.35965    0.02370    1.000
    O1       O        0.00407    0.23507    0.23214    1.000
    O2       O        0.81894    0.34674    0.29068    1.000
    O3       O        0.97800    0.71440    0.20120    1.000
    O4       O        0.80946    0.64656    0.27532    1.000
    O5       O        0.27193    0.00293    0.76786    1.000
    O6       O        0.02826    0.05606    0.70932    1.000
    O7       O        0.27680    0.51320    0.79880    1.000
    O8       O        0.03414    0.37124    0.72468    1.000
