# CIF file generated by openbabel 3.1.0, see https://openbabel.org
data_I
_chemical_name_common 'image0'
_cell_length_a 22.1162
_cell_length_b 16.2831
_cell_length_c 25.6433
_cell_angle_alpha 90
_cell_angle_beta 115.366
_cell_angle_gamma 90
_space_group_name_H-M_alt 'P 1'
_space_group_name_Hall 'P 1'
loop_
    _symmetry_equiv_pos_as_xyz
    x,y,z
loop_
    _atom_site_label
    _atom_site_type_symbol
    _atom_site_fract_x
    _atom_site_fract_y
    _atom_site_fract_z
    _atom_site_occupancy
    Ag1      Ag       0.34378    0.04313    0.36771    1.000
    Ag2      Ag       0.82279    0.24829    0.86718    1.000
    N1       N        0.12260    0.03760    0.05920    1.000
    N2       N        0.28000    0.81330    0.92140    1.000
    N3       N        0.43890    0.11570    0.41220    1.000
    N4       N        0.73840    0.32260    0.56310    1.000
    N5       N        0.91280    0.15820    0.90740    1.000
    C1       C        0.73540    0.43470    0.38810    1.000
    H1       H        0.71390    0.44050    0.34820    1.000
    C2       C        0.21940    0.84860    0.89210    1.000
    H2       H        0.19930    0.84440    0.85210    1.000
    N6       N        0.21120    0.95070    0.06480    1.000
    C3       C        0.53310    0.18720    0.41100    1.000
    H3       H        0.55520    0.20710    0.38990    1.000
    N7       N        0.79590    0.46970    0.41680    1.000
    N8       N        0.64790    0.28970    0.47260    1.000
    N9       N        0.80000    0.24710    0.77140    1.000
    C4       C        0.62390    0.24310    0.50250    1.000
    C5       C        0.09760    0.02980    0.00130    1.000
    C6       C        0.27780    0.86180    0.00920    1.000
    H4       H        0.29870    0.86540    0.04930    1.000
    N10      N        0.12630    0.98890    0.97330    1.000
    C7       C        0.79830    0.41630    0.50500    1.000
    H5       H        0.82050    0.41230    0.54490    1.000
    N11      N        0.27600    0.02910    0.27180    1.000
    C8       C        0.55960    0.19840    0.47020    1.000
    C9       C        0.00310    0.11600    0.99640    1.000
    H6       H        0.02260    0.11710    0.03650    1.000
    C10      C        0.94310    0.11670    0.87960    1.000
    H7       H        0.92330    0.11770    0.83940    1.000
    C11      C        0.70950    0.27360    0.58770    1.000
    C12      C        0.52530    0.16510    0.50020    1.000
    H8       H        0.54240    0.17000    0.54010    1.000
    N12      N        0.65300    0.23170    0.55960    1.000
    C13      C        0.30770    0.99550    0.24300    1.000
    H9       H        0.35200    0.97930    0.26370    1.000
    C14      C        0.74290    0.26300    0.65140    1.000
    C15      C        0.17870    0.04410    0.18140    1.000
    H10      H        0.13460    0.06160    0.16130    1.000
    C16      C        0.94300    0.15690    0.96490    1.000
    H11      H        0.92290    0.18460    0.98500    1.000
    C17      C        0.47320    0.14590    0.38410    1.000
    H12      H        0.45550    0.13860    0.34440    1.000
    C18      C        0.21250    0.00820    0.15210    1.000
    C19      C        0.82640    0.45980    0.47400    1.000
    H13      H        0.86850    0.48300    0.49420    1.000
    C20      C        0.00170    0.07320    0.90710    1.000
    H14      H        0.01990    0.04400    0.88600    1.000
    C21      C        0.82840    0.29270    0.74510    1.000
    H15      H        0.86830    0.31920    0.76790    1.000
    C22      C        0.03310    0.07390    0.96710    1.000
    C23      C        0.21530    0.89840    0.97760    1.000
    C24      C        0.18580    0.89080    0.91850    1.000
    H16      H        0.14390    0.91370    0.89660    1.000
    C25      C        0.70400    0.39040    0.41560    1.000
    H17      H        0.66160    0.36860    0.39430    1.000
    C26      C        0.70610    0.32780    0.50530    1.000
    C27      C        0.21160    0.05350    0.24090    1.000
    H18      H        0.18880    0.07730    0.26030    1.000
    C28      C        0.18010    0.99720    0.08820    1.000
    C29      C        0.18250    0.94800    0.00710    1.000
    C30      C        0.73560    0.37850    0.47450    1.000
    C31      C        0.30800    0.81990    0.97910    1.000
    H19      H        0.34940    0.79550    0.00000    1.000
    C32      C        0.80190    0.30350    0.68530    1.000
    H20      H        0.82320    0.33670    0.66880    1.000
    C33      C        0.46630    0.12530    0.46970    1.000
    H21      H        0.44370    0.10360    0.49000    1.000
    C34      C        0.71480    0.21130    0.67790    1.000
    H22      H        0.67650    0.18110    0.65610    1.000
    C35      C        0.74460    0.20530    0.73740    1.000
    H23      H        0.72540    0.17060    0.75490    1.000
    C36      C        0.27800    0.98350    0.18350    1.000
    H24      H        0.30190    0.95930    0.16520    1.000
    Ag3      Ag       0.84378    0.54313    0.36771    1.000
    Ag4      Ag       0.32279    0.74829    0.86718    1.000
    N13      N        0.62260    0.53760    0.05920    1.000
    N14      N        0.78000    0.31330    0.92140    1.000
    N15      N        0.93890    0.61570    0.41220    1.000
    N16      N        0.23840    0.82260    0.56310    1.000
    N17      N        0.41280    0.65820    0.90740    1.000
    C37      C        0.23540    0.93470    0.38810    1.000
    H25      H        0.21390    0.94050    0.34820    1.000
    C38      C        0.71940    0.34860    0.89210    1.000
    H26      H        0.69930    0.34440    0.85210    1.000
    N18      N        0.71120    0.45070    0.06480    1.000
    C39      C        0.03310    0.68720    0.41100    1.000
    H27      H        0.05520    0.70710    0.38990    1.000
    N19      N        0.29590    0.96970    0.41680    1.000
    N20      N        0.14790    0.78970    0.47260    1.000
    N21      N        0.30000    0.74710    0.77140    1.000
    C40      C        0.12390    0.74310    0.50250    1.000
    C41      C        0.59760    0.52980    0.00130    1.000
    C42      C        0.77780    0.36180    0.00920    1.000
    H28      H        0.79870    0.36540    0.04930    1.000
    N22      N        0.62630    0.48890    0.97330    1.000
    C43      C        0.29830    0.91630    0.50500    1.000
    H29      H        0.32050    0.91230    0.54490    1.000
    N23      N        0.77600    0.52910    0.27180    1.000
    C44      C        0.05960    0.69840    0.47020    1.000
    C45      C        0.50310    0.61600    0.99640    1.000
    H30      H        0.52260    0.61710    0.03650    1.000
    C46      C        0.44310    0.61670    0.87960    1.000
    H31      H        0.42330    0.61770    0.83940    1.000
    C47      C        0.20950    0.77360    0.58770    1.000
    C48      C        0.02530    0.66510    0.50020    1.000
    H32      H        0.04240    0.67000    0.54010    1.000
    N24      N        0.15300    0.73170    0.55960    1.000
    C49      C        0.80770    0.49550    0.24300    1.000
    H33      H        0.85200    0.47930    0.26370    1.000
    C50      C        0.24290    0.76300    0.65140    1.000
    C51      C        0.67870    0.54410    0.18140    1.000
    H34      H        0.63460    0.56160    0.16130    1.000
    C52      C        0.44300    0.65690    0.96490    1.000
    H35      H        0.42290    0.68460    0.98500    1.000
    C53      C        0.97320    0.64590    0.38410    1.000
    H36      H        0.95550    0.63860    0.34440    1.000
    C54      C        0.71250    0.50820    0.15210    1.000
    C55      C        0.32640    0.95980    0.47400    1.000
    H37      H        0.36850    0.98300    0.49420    1.000
    C56      C        0.50170    0.57320    0.90710    1.000
    H38      H        0.51990    0.54400    0.88600    1.000
    C57      C        0.32840    0.79270    0.74510    1.000
    H39      H        0.36830    0.81920    0.76790    1.000
    C58      C        0.53310    0.57390    0.96710    1.000
    C59      C        0.71530    0.39840    0.97760    1.000
    C60      C        0.68580    0.39080    0.91850    1.000
    H40      H        0.64390    0.41370    0.89660    1.000
    C61      C        0.20400    0.89040    0.41560    1.000
    H41      H        0.16160    0.86860    0.39430    1.000
    C62      C        0.20610    0.82780    0.50530    1.000
    C63      C        0.71160    0.55350    0.24090    1.000
    H42      H        0.68880    0.57730    0.26030    1.000
    C64      C        0.68010    0.49720    0.08820    1.000
    C65      C        0.68250    0.44800    0.00710    1.000
    C66      C        0.23560    0.87850    0.47450    1.000
    C67      C        0.80800    0.31990    0.97910    1.000
    H43      H        0.84940    0.29550    0.00000    1.000
    C68      C        0.30190    0.80350    0.68530    1.000
    H44      H        0.32320    0.83670    0.66880    1.000
    C69      C        0.96630    0.62530    0.46970    1.000
    H45      H        0.94370    0.60360    0.49000    1.000
    C70      C        0.21480    0.71130    0.67790    1.000
    H46      H        0.17650    0.68110    0.65610    1.000
    C71      C        0.24460    0.70530    0.73740    1.000
    H47      H        0.22540    0.67060    0.75490    1.000
    C72      C        0.77800    0.48350    0.18350    1.000
    H48      H        0.80190    0.45930    0.16520    1.000
    Ag5      Ag       0.65622    0.04313    0.13229    1.000
    Ag6      Ag       0.17721    0.24829    0.63282    1.000
    N25      N        0.87740    0.03760    0.44080    1.000
    N26      N        0.72000    0.81330    0.57860    1.000
    N27      N        0.56110    0.11570    0.08780    1.000
    N28      N        0.26160    0.32260    0.93690    1.000
    N29      N        0.08720    0.15820    0.59260    1.000
    C73      C        0.26460    0.43470    0.11190    1.000
    H49      H        0.28610    0.44050    0.15180    1.000
    C74      C        0.78060    0.84860    0.60790    1.000
    H50      H        0.80070    0.84440    0.64790    1.000
    N30      N        0.78880    0.95070    0.43520    1.000
    C75      C        0.46690    0.18720    0.08900    1.000
    H51      H        0.44480    0.20710    0.11010    1.000
    N31      N        0.20410    0.46970    0.08320    1.000
    N32      N        0.35210    0.28970    0.02740    1.000
    N33      N        0.20000    0.24710    0.72860    1.000
    C76      C        0.37610    0.24310    0.99750    1.000
    C77      C        0.90240    0.02980    0.49870    1.000
    C78      C        0.72220    0.86180    0.49080    1.000
    H52      H        0.70130    0.86540    0.45070    1.000
    N34      N        0.87370    0.98890    0.52670    1.000
    C79      C        0.20170    0.41630    0.99500    1.000
    H53      H        0.17950    0.41230    0.95510    1.000
    N35      N        0.72400    0.02910    0.22820    1.000
    C80      C        0.44040    0.19840    0.02980    1.000
    C81      C        0.99690    0.11600    0.50360    1.000
    H54      H        0.97740    0.11710    0.46350    1.000
    C82      C        0.05690    0.11670    0.62040    1.000
    H55      H        0.07670    0.11770    0.66060    1.000
    C83      C        0.29050    0.27360    0.91230    1.000
    C84      C        0.47470    0.16510    0.99980    1.000
    H56      H        0.45760    0.17000    0.95990    1.000
    N36      N        0.34700    0.23170    0.94040    1.000
    C85      C        0.69230    0.99550    0.25700    1.000
    H57      H        0.64800    0.97930    0.23630    1.000
    C86      C        0.25710    0.26300    0.84860    1.000
    C87      C        0.82130    0.04410    0.31860    1.000
    H58      H        0.86540    0.06160    0.33870    1.000
    C88      C        0.05700    0.15690    0.53510    1.000
    H59      H        0.07710    0.18460    0.51500    1.000
    C89      C        0.52680    0.14590    0.11590    1.000
    H60      H        0.54450    0.13860    0.15560    1.000
    C90      C        0.78750    0.00820    0.34790    1.000
    C91      C        0.17360    0.45980    0.02600    1.000
    H61      H        0.13150    0.48300    0.00580    1.000
    C92      C        0.99830    0.07320    0.59290    1.000
    H62      H        0.98010    0.04400    0.61400    1.000
    C93      C        0.17160    0.29270    0.75490    1.000
    H63      H        0.13170    0.31920    0.73210    1.000
    C94      C        0.96690    0.07390    0.53290    1.000
    C95      C        0.78470    0.89840    0.52240    1.000
    C96      C        0.81420    0.89080    0.58150    1.000
    H64      H        0.85610    0.91370    0.60340    1.000
    C97      C        0.29600    0.39040    0.08440    1.000
    H65      H        0.33840    0.36860    0.10570    1.000
    C98      C        0.29390    0.32780    0.99470    1.000
    C99      C        0.78840    0.05350    0.25910    1.000
    H66      H        0.81120    0.07730    0.23970    1.000
    C100     C        0.81990    0.99720    0.41180    1.000
    C101     C        0.81750    0.94800    0.49290    1.000
    C102     C        0.26440    0.37850    0.02550    1.000
    C103     C        0.69200    0.81990    0.52090    1.000
    H67      H        0.65060    0.79550    0.50000    1.000
    C104     C        0.19810    0.30350    0.81470    1.000
    H68      H        0.17680    0.33670    0.83120    1.000
    C105     C        0.53370    0.12530    0.03030    1.000
    H69      H        0.55630    0.10360    0.01000    1.000
    C106     C        0.28520    0.21130    0.82210    1.000
    H70      H        0.32350    0.18110    0.84390    1.000
    C107     C        0.25540    0.20530    0.76260    1.000
    H71      H        0.27460    0.17060    0.74510    1.000
    C108     C        0.72200    0.98350    0.31650    1.000
    H72      H        0.69810    0.95930    0.33480    1.000
    Ag7      Ag       0.15622    0.54313    0.13229    1.000
    Ag8      Ag       0.67721    0.74829    0.63282    1.000
    N37      N        0.37740    0.53760    0.44080    1.000
    N38      N        0.22000    0.31330    0.57860    1.000
    N39      N        0.06110    0.61570    0.08780    1.000
    N40      N        0.76160    0.82260    0.93690    1.000
    N41      N        0.58720    0.65820    0.59260    1.000
    C109     C        0.76460    0.93470    0.11190    1.000
    H73      H        0.78610    0.94050    0.15180    1.000
    C110     C        0.28060    0.34860    0.60790    1.000
    H74      H        0.30070    0.34440    0.64790    1.000
    N42      N        0.28880    0.45070    0.43520    1.000
    C111     C        0.96690    0.68720    0.08900    1.000
    H75      H        0.94480    0.70710    0.11010    1.000
    N43      N        0.70410    0.96970    0.08320    1.000
    N44      N        0.85210    0.78970    0.02740    1.000
    N45      N        0.70000    0.74710    0.72860    1.000
    C112     C        0.87610    0.74310    0.99750    1.000
    C113     C        0.40240    0.52980    0.49870    1.000
    C114     C        0.22220    0.36180    0.49080    1.000
    H76      H        0.20130    0.36540    0.45070    1.000
    N46      N        0.37370    0.48890    0.52670    1.000
    C115     C        0.70170    0.91630    0.99500    1.000
    H77      H        0.67950    0.91230    0.95510    1.000
    N47      N        0.22400    0.52910    0.22820    1.000
    C116     C        0.94040    0.69840    0.02980    1.000
    C117     C        0.49690    0.61600    0.50360    1.000
    H78      H        0.47740    0.61710    0.46350    1.000
    C118     C        0.55690    0.61670    0.62040    1.000
    H79      H        0.57670    0.61770    0.66060    1.000
    C119     C        0.79050    0.77360    0.91230    1.000
    C120     C        0.97470    0.66510    0.99980    1.000
    H80      H        0.95760    0.67000    0.95990    1.000
    N48      N        0.84700    0.73170    0.94040    1.000
    C121     C        0.19230    0.49550    0.25700    1.000
    H81      H        0.14800    0.47930    0.23630    1.000
    C122     C        0.75710    0.76300    0.84860    1.000
    C123     C        0.32130    0.54410    0.31860    1.000
    H82      H        0.36540    0.56160    0.33870    1.000
    C124     C        0.55700    0.65690    0.53510    1.000
    H83      H        0.57710    0.68460    0.51500    1.000
    C125     C        0.02680    0.64590    0.11590    1.000
    H84      H        0.04450    0.63860    0.15560    1.000
    C126     C        0.28750    0.50820    0.34790    1.000
    C127     C        0.67360    0.95980    0.02600    1.000
    H85      H        0.63150    0.98300    0.00580    1.000
    C128     C        0.49830    0.57320    0.59290    1.000
    H86      H        0.48010    0.54400    0.61400    1.000
    C129     C        0.67160    0.79270    0.75490    1.000
    H87      H        0.63170    0.81920    0.73210    1.000
    C130     C        0.46690    0.57390    0.53290    1.000
    C131     C        0.28470    0.39840    0.52240    1.000
    C132     C        0.31420    0.39080    0.58150    1.000
    H88      H        0.35610    0.41370    0.60340    1.000
    C133     C        0.79600    0.89040    0.08440    1.000
    H89      H        0.83840    0.86860    0.10570    1.000
    C134     C        0.79390    0.82780    0.99470    1.000
    C135     C        0.28840    0.55350    0.25910    1.000
    H90      H        0.31120    0.57730    0.23970    1.000
    C136     C        0.31990    0.49720    0.41180    1.000
    C137     C        0.31750    0.44800    0.49290    1.000
    C138     C        0.76440    0.87850    0.02550    1.000
    C139     C        0.19200    0.31990    0.52090    1.000
    H91      H        0.15060    0.29550    0.50000    1.000
    C140     C        0.69810    0.80350    0.81470    1.000
    H92      H        0.67680    0.83670    0.83120    1.000
    C141     C        0.03370    0.62530    0.03030    1.000
    H93      H        0.05630    0.60360    0.01000    1.000
    C142     C        0.78520    0.71130    0.82210    1.000
    H94      H        0.82350    0.68110    0.84390    1.000
    C143     C        0.75540    0.70530    0.76260    1.000
    H95      H        0.77460    0.67060    0.74510    1.000
    C144     C        0.22200    0.48350    0.31650    1.000
    H96      H        0.19810    0.45930    0.33480    1.000
    Ag9      Ag       0.65622    0.95687    0.63229    1.000
    Ag10     Ag       0.17721    0.75171    0.13282    1.000
    N49      N        0.87740    0.96240    0.94080    1.000
    N50      N        0.72000    0.18670    0.07860    1.000
    N51      N        0.56110    0.88430    0.58780    1.000
    N52      N        0.26160    0.67740    0.43690    1.000
    N53      N        0.08720    0.84180    0.09260    1.000
    C145     C        0.26460    0.56530    0.61190    1.000
    H97      H        0.28610    0.55950    0.65180    1.000
    C146     C        0.78060    0.15140    0.10790    1.000
    H98      H        0.80070    0.15560    0.14790    1.000
    N54      N        0.78880    0.04930    0.93520    1.000
    C147     C        0.46690    0.81280    0.58900    1.000
    H99      H        0.44480    0.79290    0.61010    1.000
    N55      N        0.20410    0.53030    0.58320    1.000
    N56      N        0.35210    0.71030    0.52740    1.000
    N57      N        0.20000    0.75290    0.22860    1.000
    C148     C        0.37610    0.75690    0.49750    1.000
    C149     C        0.90240    0.97020    0.99870    1.000
    C150     C        0.72220    0.13820    0.99080    1.000
    H100     H        0.70130    0.13460    0.95070    1.000
    N58      N        0.87370    0.01110    0.02670    1.000
    C151     C        0.20170    0.58370    0.49500    1.000
    H101     H        0.17950    0.58770    0.45510    1.000
    N59      N        0.72400    0.97090    0.72820    1.000
    C152     C        0.44040    0.80160    0.52980    1.000
    C153     C        0.99690    0.88400    0.00360    1.000
    H102     H        0.97740    0.88290    0.96350    1.000
    C154     C        0.05690    0.88330    0.12040    1.000
    H103     H        0.07670    0.88230    0.16060    1.000
    C155     C        0.29050    0.72640    0.41230    1.000
    C156     C        0.47470    0.83490    0.49980    1.000
    H104     H        0.45760    0.83000    0.45990    1.000
    N60      N        0.34700    0.76830    0.44040    1.000
    C157     C        0.69230    0.00450    0.75700    1.000
    H105     H        0.64800    0.02070    0.73630    1.000
    C158     C        0.25710    0.73700    0.34860    1.000
    C159     C        0.82130    0.95590    0.81860    1.000
    H106     H        0.86540    0.93840    0.83870    1.000
    C160     C        0.05700    0.84310    0.03510    1.000
    H107     H        0.07710    0.81540    0.01500    1.000
    C161     C        0.52680    0.85410    0.61590    1.000
    H108     H        0.54450    0.86140    0.65560    1.000
    C162     C        0.78750    0.99180    0.84790    1.000
    C163     C        0.17360    0.54020    0.52600    1.000
    H109     H        0.13150    0.51700    0.50580    1.000
    C164     C        0.99830    0.92680    0.09290    1.000
    H110     H        0.98010    0.95600    0.11400    1.000
    C165     C        0.17160    0.70730    0.25490    1.000
    H111     H        0.13170    0.68080    0.23210    1.000
    C166     C        0.96690    0.92610    0.03290    1.000
    C167     C        0.78470    0.10160    0.02240    1.000
    C168     C        0.81420    0.10920    0.08150    1.000
    H112     H        0.85610    0.08630    0.10340    1.000
    C169     C        0.29600    0.60960    0.58440    1.000
    H113     H        0.33840    0.63140    0.60570    1.000
    C170     C        0.29390    0.67220    0.49470    1.000
    C171     C        0.78840    0.94650    0.75910    1.000
    H114     H        0.81120    0.92270    0.73970    1.000
    C172     C        0.81990    0.00280    0.91180    1.000
    C173     C        0.81750    0.05200    0.99290    1.000
    C174     C        0.26440    0.62150    0.52550    1.000
    C175     C        0.69200    0.18010    0.02090    1.000
    H115     H        0.65060    0.20450    0.00000    1.000
    C176     C        0.19810    0.69650    0.31470    1.000
    H116     H        0.17680    0.66330    0.33120    1.000
    C177     C        0.53370    0.87470    0.53030    1.000
    H117     H        0.55630    0.89640    0.51000    1.000
    C178     C        0.28520    0.78870    0.32210    1.000
    H118     H        0.32350    0.81890    0.34390    1.000
    C179     C        0.25540    0.79470    0.26260    1.000
    H119     H        0.27460    0.82940    0.24510    1.000
    C180     C        0.72200    0.01650    0.81650    1.000
    H120     H        0.69810    0.04070    0.83480    1.000
    Ag11     Ag       0.15622    0.45687    0.63229    1.000
    Ag12     Ag       0.67721    0.25171    0.13282    1.000
    N61      N        0.37740    0.46240    0.94080    1.000
    N62      N        0.22000    0.68670    0.07860    1.000
    N63      N        0.06110    0.38430    0.58780    1.000
    N64      N        0.76160    0.17740    0.43690    1.000
    N65      N        0.58720    0.34180    0.09260    1.000
    C181     C        0.76460    0.06530    0.61190    1.000
    H121     H        0.78610    0.05950    0.65180    1.000
    C182     C        0.28060    0.65140    0.10790    1.000
    H122     H        0.30070    0.65560    0.14790    1.000
    N66      N        0.28880    0.54930    0.93520    1.000
    C183     C        0.96690    0.31280    0.58900    1.000
    H123     H        0.94480    0.29290    0.61010    1.000
    N67      N        0.70410    0.03030    0.58320    1.000
    N68      N        0.85210    0.21030    0.52740    1.000
    N69      N        0.70000    0.25290    0.22860    1.000
    C184     C        0.87610    0.25690    0.49750    1.000
    C185     C        0.40240    0.47020    0.99870    1.000
    C186     C        0.22220    0.63820    0.99080    1.000
    H124     H        0.20130    0.63460    0.95070    1.000
    N70      N        0.37370    0.51110    0.02670    1.000
    C187     C        0.70170    0.08370    0.49500    1.000
    H125     H        0.67950    0.08770    0.45510    1.000
    N71      N        0.22400    0.47090    0.72820    1.000
    C188     C        0.94040    0.30160    0.52980    1.000
    C189     C        0.49690    0.38400    0.00360    1.000
    H126     H        0.47740    0.38290    0.96350    1.000
    C190     C        0.55690    0.38330    0.12040    1.000
    H127     H        0.57670    0.38230    0.16060    1.000
    C191     C        0.79050    0.22640    0.41230    1.000
    C192     C        0.97470    0.33490    0.49980    1.000
    H128     H        0.95760    0.33000    0.45990    1.000
    N72      N        0.84700    0.26830    0.44040    1.000
    C193     C        0.19230    0.50450    0.75700    1.000
    H129     H        0.14800    0.52070    0.73630    1.000
    C194     C        0.75710    0.23700    0.34860    1.000
    C195     C        0.32130    0.45590    0.81860    1.000
    H130     H        0.36540    0.43840    0.83870    1.000
    C196     C        0.55700    0.34310    0.03510    1.000
    H131     H        0.57710    0.31540    0.01500    1.000
    C197     C        0.02680    0.35410    0.61590    1.000
    H132     H        0.04450    0.36140    0.65560    1.000
    C198     C        0.28750    0.49180    0.84790    1.000
    C199     C        0.67360    0.04020    0.52600    1.000
    H133     H        0.63150    0.01700    0.50580    1.000
    C200     C        0.49830    0.42680    0.09290    1.000
    H134     H        0.48010    0.45600    0.11400    1.000
    C201     C        0.67160    0.20730    0.25490    1.000
    H135     H        0.63170    0.18080    0.23210    1.000
    C202     C        0.46690    0.42610    0.03290    1.000
    C203     C        0.28470    0.60160    0.02240    1.000
    C204     C        0.31420    0.60920    0.08150    1.000
    H136     H        0.35610    0.58630    0.10340    1.000
    C205     C        0.79600    0.10960    0.58440    1.000
    H137     H        0.83840    0.13140    0.60570    1.000
    C206     C        0.79390    0.17220    0.49470    1.000
    C207     C        0.28840    0.44650    0.75910    1.000
    H138     H        0.31120    0.42270    0.73970    1.000
    C208     C        0.31990    0.50280    0.91180    1.000
    C209     C        0.31750    0.55200    0.99290    1.000
    C210     C        0.76440    0.12150    0.52550    1.000
    C211     C        0.19200    0.68010    0.02090    1.000
    H139     H        0.15060    0.70450    0.00000    1.000
    C212     C        0.69810    0.19650    0.31470    1.000
    H140     H        0.67680    0.16330    0.33120    1.000
    C213     C        0.03370    0.37470    0.53030    1.000
    H141     H        0.05630    0.39640    0.51000    1.000
    C214     C        0.78520    0.28870    0.32210    1.000
    H142     H        0.82350    0.31890    0.34390    1.000
    C215     C        0.75540    0.29470    0.26260    1.000
    H143     H        0.77460    0.32940    0.24510    1.000
    C216     C        0.22200    0.51650    0.81650    1.000
    H144     H        0.19810    0.54070    0.83480    1.000
    Ag13     Ag       0.34378    0.95687    0.86771    1.000
    Ag14     Ag       0.82279    0.75171    0.36718    1.000
    N73      N        0.12260    0.96240    0.55920    1.000
    N74      N        0.28000    0.18670    0.42140    1.000
    N75      N        0.43890    0.88430    0.91220    1.000
    N76      N        0.73840    0.67740    0.06310    1.000
    N77      N        0.91280    0.84180    0.40740    1.000
    C217     C        0.73540    0.56530    0.88810    1.000
    H145     H        0.71390    0.55950    0.84820    1.000
    C218     C        0.21940    0.15140    0.39210    1.000
    H146     H        0.19930    0.15560    0.35210    1.000
    N78      N        0.21120    0.04930    0.56480    1.000
    C219     C        0.53310    0.81280    0.91100    1.000
    H147     H        0.55520    0.79290    0.88990    1.000
    N79      N        0.79590    0.53030    0.91680    1.000
    N80      N        0.64790    0.71030    0.97260    1.000
    N81      N        0.80000    0.75290    0.27140    1.000
    C220     C        0.62390    0.75690    0.00250    1.000
    C221     C        0.09760    0.97020    0.50130    1.000
    C222     C        0.27780    0.13820    0.50920    1.000
    H148     H        0.29870    0.13460    0.54930    1.000
    N82      N        0.12630    0.01110    0.47330    1.000
    C223     C        0.79830    0.58370    0.00500    1.000
    H149     H        0.82050    0.58770    0.04490    1.000
    N83      N        0.27600    0.97090    0.77180    1.000
    C224     C        0.55960    0.80160    0.97020    1.000
    C225     C        0.00310    0.88400    0.49640    1.000
    H150     H        0.02260    0.88290    0.53650    1.000
    C226     C        0.94310    0.88330    0.37960    1.000
    H151     H        0.92330    0.88230    0.33940    1.000
    C227     C        0.70950    0.72640    0.08770    1.000
    C228     C        0.52530    0.83490    0.00020    1.000
    H152     H        0.54240    0.83000    0.04010    1.000
    N84      N        0.65300    0.76830    0.05960    1.000
    C229     C        0.30770    0.00450    0.74300    1.000
    H153     H        0.35200    0.02070    0.76370    1.000
    C230     C        0.74290    0.73700    0.15140    1.000
    C231     C        0.17870    0.95590    0.68140    1.000
    H154     H        0.13460    0.93840    0.66130    1.000
    C232     C        0.94300    0.84310    0.46490    1.000
    H155     H        0.92290    0.81540    0.48500    1.000
    C233     C        0.47320    0.85410    0.88410    1.000
    H156     H        0.45550    0.86140    0.84440    1.000
    C234     C        0.21250    0.99180    0.65210    1.000
    C235     C        0.82640    0.54020    0.97400    1.000
    H157     H        0.86850    0.51700    0.99420    1.000
    C236     C        0.00170    0.92680    0.40710    1.000
    H158     H        0.01990    0.95600    0.38600    1.000
    C237     C        0.82840    0.70730    0.24510    1.000
    H159     H        0.86830    0.68080    0.26790    1.000
    C238     C        0.03310    0.92610    0.46710    1.000
    C239     C        0.21530    0.10160    0.47760    1.000
    C240     C        0.18580    0.10920    0.41850    1.000
    H160     H        0.14390    0.08630    0.39660    1.000
    C241     C        0.70400    0.60960    0.91560    1.000
    H161     H        0.66160    0.63140    0.89430    1.000
    C242     C        0.70610    0.67220    0.00530    1.000
    C243     C        0.21160    0.94650    0.74090    1.000
    H162     H        0.18880    0.92270    0.76030    1.000
    C244     C        0.18010    0.00280    0.58820    1.000
    C245     C        0.18250    0.05200    0.50710    1.000
    C246     C        0.73560    0.62150    0.97450    1.000
    C247     C        0.30800    0.18010    0.47910    1.000
    H163     H        0.34940    0.20450    0.50000    1.000
    C248     C        0.80190    0.69650    0.18530    1.000
    H164     H        0.82320    0.66330    0.16880    1.000
    C249     C        0.46630    0.87470    0.96970    1.000
    H165     H        0.44370    0.89640    0.99000    1.000
    C250     C        0.71480    0.78870    0.17790    1.000
    H166     H        0.67650    0.81890    0.15610    1.000
    C251     C        0.74460    0.79470    0.23740    1.000
    H167     H        0.72540    0.82940    0.25490    1.000
    C252     C        0.27800    0.01650    0.68350    1.000
    H168     H        0.30190    0.04070    0.66520    1.000
    Ag15     Ag       0.84378    0.45687    0.86771    1.000
    Ag16     Ag       0.32279    0.25171    0.36718    1.000
    N85      N        0.62260    0.46240    0.55920    1.000
    N86      N        0.78000    0.68670    0.42140    1.000
    N87      N        0.93890    0.38430    0.91220    1.000
    N88      N        0.23840    0.17740    0.06310    1.000
    N89      N        0.41280    0.34180    0.40740    1.000
    C253     C        0.23540    0.06530    0.88810    1.000
    H169     H        0.21390    0.05950    0.84820    1.000
    C254     C        0.71940    0.65140    0.39210    1.000
    H170     H        0.69930    0.65560    0.35210    1.000
    N90      N        0.71120    0.54930    0.56480    1.000
    C255     C        0.03310    0.31280    0.91100    1.000
    H171     H        0.05520    0.29290    0.88990    1.000
    N91      N        0.29590    0.03030    0.91680    1.000
    N92      N        0.14790    0.21030    0.97260    1.000
    N93      N        0.30000    0.25290    0.27140    1.000
    C256     C        0.12390    0.25690    0.00250    1.000
    C257     C        0.59760    0.47020    0.50130    1.000
    C258     C        0.77780    0.63820    0.50920    1.000
    H172     H        0.79870    0.63460    0.54930    1.000
    N94      N        0.62630    0.51110    0.47330    1.000
    C259     C        0.29830    0.08370    0.00500    1.000
    H173     H        0.32050    0.08770    0.04490    1.000
    N95      N        0.77600    0.47090    0.77180    1.000
    C260     C        0.05960    0.30160    0.97020    1.000
    C261     C        0.50310    0.38400    0.49640    1.000
    H174     H        0.52260    0.38290    0.53650    1.000
    C262     C        0.44310    0.38330    0.37960    1.000
    H175     H        0.42330    0.38230    0.33940    1.000
    C263     C        0.20950    0.22640    0.08770    1.000
    C264     C        0.02530    0.33490    0.00020    1.000
    H176     H        0.04240    0.33000    0.04010    1.000
    N96      N        0.15300    0.26830    0.05960    1.000
    C265     C        0.80770    0.50450    0.74300    1.000
    H177     H        0.85200    0.52070    0.76370    1.000
    C266     C        0.24290    0.23700    0.15140    1.000
    C267     C        0.67870    0.45590    0.68140    1.000
    H178     H        0.63460    0.43840    0.66130    1.000
    C268     C        0.44300    0.34310    0.46490    1.000
    H179     H        0.42290    0.31540    0.48500    1.000
    C269     C        0.97320    0.35410    0.88410    1.000
    H180     H        0.95550    0.36140    0.84440    1.000
    C270     C        0.71250    0.49180    0.65210    1.000
    C271     C        0.32640    0.04020    0.97400    1.000
    H181     H        0.36850    0.01700    0.99420    1.000
    C272     C        0.50170    0.42680    0.40710    1.000
    H182     H        0.51990    0.45600    0.38600    1.000
    C273     C        0.32840    0.20730    0.24510    1.000
    H183     H        0.36830    0.18080    0.26790    1.000
    C274     C        0.53310    0.42610    0.46710    1.000
    C275     C        0.71530    0.60160    0.47760    1.000
    C276     C        0.68580    0.60920    0.41850    1.000
    H184     H        0.64390    0.58630    0.39660    1.000
    C277     C        0.20400    0.10960    0.91560    1.000
    H185     H        0.16160    0.13140    0.89430    1.000
    C278     C        0.20610    0.17220    0.00530    1.000
    C279     C        0.71160    0.44650    0.74090    1.000
    H186     H        0.68880    0.42270    0.76030    1.000
    C280     C        0.68010    0.50280    0.58820    1.000
    C281     C        0.68250    0.55200    0.50710    1.000
    C282     C        0.23560    0.12150    0.97450    1.000
    C283     C        0.80800    0.68010    0.47910    1.000
    H187     H        0.84940    0.70450    0.50000    1.000
    C284     C        0.30190    0.19650    0.18530    1.000
    H188     H        0.32320    0.16330    0.16880    1.000
    C285     C        0.96630    0.37470    0.96970    1.000
    H189     H        0.94370    0.39640    0.99000    1.000
    C286     C        0.21480    0.28870    0.17790    1.000
    H190     H        0.17650    0.31890    0.15610    1.000
    C287     C        0.24460    0.29470    0.23740    1.000
    H191     H        0.22540    0.32940    0.25490    1.000
    C288     C        0.77800    0.51650    0.68350    1.000
    H192     H        0.80190    0.54070    0.66520    1.000
