data_functionalizedCrystal
_audit_creation_method	'EQeq! by Chris Wilmer'
_symmetry_space_group_name_H-M	'P1'
_symmetry_Int_Tables_number	1
_symmetry_cell_setting	triclinic
loop_
_symmetry_equiv_pos_as_xyz
  x,y,z
_cell_length_a	18.1136
_cell_length_b	18.1136
_cell_length_c	13.1866
_cell_angle_alpha	90
_cell_angle_beta	90
_cell_angle_gamma	90
loop_
_atom_site_label
_atom_site_type_symbol
_atom_site_fract_x
_atom_site_fract_y
_atom_site_fract_z
_atom_site_charge
Mof_N 	N 	0.01891	0.58931	0.4141	-0.192
Mof_N 	N 	0.02308	0.58717	0.3095	-0.192
Mof_N 	N 	0.02861	0.69986	0.3592	-0.107
Mof_N 	N 	0.07792	0.88557	0.3873	-0.107
Mof_N 	N 	0.01221	0.89098	0.3326	-0.221
Mof_N 	N 	0.03465	0.77625	0.3584	-0.131
Mof_C 	C 	0.0217	0.65759	0.4428	0.1
Mof_H 	H 	0.02	0.6747	0.5112	0.011
Mof_C 	C 	0.0301	0.65493	0.2778	0.098
Mof_H 	H 	0.0349	0.67	0.2087	-0.002
Mof_C 	C 	0.0904	0.8157	0.4005	0.095
Mof_H 	H 	0.1312	0.7954	0.437	0.014
Mof_C 	C 	0.987	0.8245	0.3164	0.182
Mof_H 	H 	0.9434	0.8123	0.2793	0.008
Mof_N 	N 	0.48109	0.91069	0.4141	-0.176
Mof_N 	N 	0.47692	0.91283	0.3095	-0.175
Mof_N 	N 	0.47139	0.80014	0.3592	-0.106
Mof_N 	N 	0.42208	0.61443	0.3873	-0.108
Mof_N 	N 	0.48779	0.60902	0.3326	-0.188
Mof_N 	N 	0.46535	0.72375	0.3584	-0.105
Mof_C 	C 	0.4783	0.84241	0.4428	0.107
Mof_H 	H 	0.48	0.8253	0.5112	0.019
Mof_C 	C 	0.4699	0.84507	0.2778	0.105
Mof_H 	H 	0.4651	0.83	0.2087	0.005
Mof_C 	C 	0.4096	0.6843	0.4005	0.097
Mof_H 	H 	0.3688	0.7046	0.437	0.014
Mof_C 	C 	0.513	0.6755	0.3164	0.099
Mof_H 	H 	0.5566	0.6877	0.2793	0.025
Mof_N 	N 	0.91069	0.01891	0.9141	-0.182
Mof_N 	N 	0.91283	0.02308	0.8095	-0.177
Mof_N 	N 	0.80014	0.02861	0.8592	-0.117
Mof_N 	N 	0.61443	0.07792	0.8873	-0.105
Mof_N 	N 	0.60902	0.01221	0.8326	-0.224
Mof_N 	N 	0.72375	0.03465	0.8584	-0.127
Mof_C 	C 	0.84241	0.0217	0.9428	0.172
Mof_H 	H 	0.8253	0.02	0.0112	-0.038
Mof_C 	C 	0.84507	0.0301	0.7778	0.101
Mof_H 	H 	0.83	0.0349	0.7087	0.004
Mof_C 	C 	0.6843	0.0904	0.9005	0.1
Mof_H 	H 	0.7046	0.1312	0.937	0.024
Mof_C 	C 	0.6755	0.987	0.8164	0.184
Mof_H 	H 	0.6877	0.9434	0.7793	0.011
Mof_N 	N 	0.58931	0.48109	0.9141	-0.189
Mof_N 	N 	0.58717	0.47692	0.8095	-0.186
Mof_N 	N 	0.69986	0.47139	0.8592	-0.115
Mof_N 	N 	0.88557	0.42208	0.8873	-0.098
Mof_N 	N 	0.89098	0.48779	0.8326	-0.182
Mof_N 	N 	0.77625	0.46535	0.8584	-0.101
Mof_C 	C 	0.65759	0.4783	0.9428	0.176
Mof_H 	H 	0.6747	0.48	0.0112	-0.03
Mof_C 	C 	0.65493	0.4699	0.7778	0.106
Mof_H 	H 	0.67	0.4651	0.7087	0.006
Mof_C 	C 	0.8157	0.4096	0.9005	0.102
Mof_H 	H 	0.7954	0.3688	0.937	0.025
Mof_C 	C 	0.8245	0.513	0.8164	0.103
Mof_H 	H 	0.8123	0.5566	0.7793	0.028
Mof_N 	N 	0.98109	0.08931	0.0859	-0.173
Mof_N 	N 	0.97692	0.08717	0.1905	-0.192
Mof_N 	N 	0.97139	0.19986	0.1408	-0.095
Mof_N 	N 	0.92208	0.38557	0.1127	-0.11
Mof_N 	N 	0.98779	0.39098	0.1674	-0.145
Mof_N 	N 	0.96535	0.27625	0.1416	-0.076
Mof_C 	C 	0.9783	0.15759	0.0572	0.043
Mof_H 	H 	0.98	0.1747	0.9888	0.074
Mof_C 	C 	0.9699	0.15493	0.2222	0.107
Mof_H 	H 	0.9651	0.17	0.2913	0.01
Mof_C 	C 	0.9096	0.3157	0.0995	0.096
Mof_H 	H 	0.8688	0.2954	0.063	0.004
Mof_C 	C 	0.013	0.3245	0.1836	-0.005
Mof_H 	H 	0.0566	0.3123	0.2207	0.041
Mof_N 	N 	0.51891	0.41069	0.0859	-0.18
Mof_N 	N 	0.52308	0.41283	0.1905	-0.188
Mof_N 	N 	0.52861	0.30014	0.1408	-0.097
Mof_N 	N 	0.57792	0.11443	0.1127	-0.119
Mof_N 	N 	0.51221	0.10902	0.1674	-0.195
Mof_N 	N 	0.53465	0.22375	0.1416	-0.109
Mof_C 	C 	0.5217	0.34241	0.0572	0.032
Mof_H 	H 	0.52	0.3253	0.9888	0.067
Mof_C 	C 	0.5301	0.34507	0.2222	0.101
Mof_H 	H 	0.5349	0.33	0.2913	0.006
Mof_C 	C 	0.5904	0.1843	0.0995	0.092
Mof_H 	H 	0.6312	0.2046	0.063	0.003
Mof_C 	C 	0.487	0.1755	0.1836	0.094
Mof_H 	H 	0.4434	0.1877	0.2207	0.02
Mof_N 	N 	0.08931	0.51891	0.5859	-0.193
Mof_N 	N 	0.08717	0.52308	0.6905	-0.197
Mof_N 	N 	0.19986	0.52861	0.6408	-0.106
Mof_N 	N 	0.38557	0.57792	0.6127	-0.108
Mof_N 	N 	0.39098	0.51221	0.6674	-0.188
Mof_N 	N 	0.27625	0.53465	0.6416	-0.105
Mof_C 	C 	0.15759	0.5217	0.5572	0.104
Mof_H 	H 	0.1747	0.52	0.4888	0.017
Mof_C 	C 	0.15493	0.5301	0.7222	0.101
Mof_H 	H 	0.17	0.5349	0.7913	0.008
Mof_C 	C 	0.3157	0.5904	0.5995	0.098
Mof_H 	H 	0.2954	0.6312	0.563	0.014
Mof_C 	C 	0.3245	0.487	0.6836	0.099
Mof_H 	H 	0.3123	0.4434	0.7207	0.024
Mof_N 	N 	0.41069	0.98109	0.5859	-0.176
Mof_N 	N 	0.41283	0.97692	0.6905	-0.181
Mof_N 	N 	0.30014	0.97139	0.6408	-0.104
Mof_N 	N 	0.11443	0.92208	0.6127	-0.107
Mof_N 	N 	0.10902	0.98779	0.6674	-0.145
Mof_N 	N 	0.22375	0.96535	0.6416	-0.072
Mof_C 	C 	0.34241	0.9783	0.5572	0.112
Mof_H 	H 	0.3253	0.98	0.4888	0.026
Mof_C 	C 	0.34507	0.9699	0.7222	0.111
Mof_H 	H 	0.33	0.9651	0.7913	0.016
Mof_C 	C 	0.1843	0.9096	0.5995	0.1
Mof_H 	H 	0.2046	0.8688	0.563	0.014
Mof_C 	C 	0.1755	0.013	0.6836	-0.001
Mof_H 	H 	0.1877	0.0566	0.7207	0.045
Mof_N 	N 	0.98109	0.41069	0.5859	-0.176
Mof_N 	N 	0.97692	0.41283	0.6905	-0.181
Mof_N 	N 	0.97139	0.30014	0.6408	-0.104
Mof_N 	N 	0.92208	0.11443	0.6127	-0.107
Mof_N 	N 	0.98779	0.10902	0.6674	-0.145
Mof_N 	N 	0.96535	0.22375	0.6416	-0.072
Mof_C 	C 	0.9783	0.34241	0.5572	0.112
Mof_H 	H 	0.98	0.3253	0.4888	0.026
Mof_C 	C 	0.9699	0.34507	0.7222	0.111
Mof_H 	H 	0.9651	0.33	0.7913	0.016
Mof_C 	C 	0.9096	0.1843	0.5995	0.1
Mof_H 	H 	0.8688	0.2046	0.563	0.014
Mof_C 	C 	0.013	0.1755	0.6836	-0.001
Mof_H 	H 	0.0566	0.1877	0.7207	0.045
Mof_N 	N 	0.51891	0.08931	0.5859	-0.193
Mof_N 	N 	0.52308	0.08717	0.6905	-0.197
Mof_N 	N 	0.52861	0.19986	0.6408	-0.106
Mof_N 	N 	0.57792	0.38557	0.6127	-0.108
Mof_N 	N 	0.51221	0.39098	0.6674	-0.188
Mof_N 	N 	0.53465	0.27625	0.6416	-0.105
Mof_C 	C 	0.5217	0.15759	0.5572	0.104
Mof_H 	H 	0.52	0.1747	0.4888	0.017
Mof_C 	C 	0.5301	0.15493	0.7222	0.101
Mof_H 	H 	0.5349	0.17	0.7913	0.008
Mof_C 	C 	0.5904	0.3157	0.5995	0.098
Mof_H 	H 	0.6312	0.2954	0.563	0.014
Mof_C 	C 	0.487	0.3245	0.6836	0.099
Mof_H 	H 	0.4434	0.3123	0.7207	0.024
Mof_N 	N 	0.08931	0.98109	0.0859	-0.173
Mof_N 	N 	0.08717	0.97692	0.1905	-0.192
Mof_N 	N 	0.19986	0.97139	0.1408	-0.095
Mof_N 	N 	0.38557	0.92208	0.1127	-0.11
Mof_N 	N 	0.39098	0.98779	0.1674	-0.145
Mof_N 	N 	0.27625	0.96535	0.1416	-0.076
Mof_C 	C 	0.15759	0.9783	0.0572	0.043
Mof_H 	H 	0.1747	0.98	0.9888	0.074
Mof_C 	C 	0.15493	0.9699	0.2222	0.107
Mof_H 	H 	0.17	0.9651	0.2913	0.01
Mof_C 	C 	0.3157	0.9096	0.0995	0.096
Mof_H 	H 	0.2954	0.8688	0.063	0.004
Mof_C 	C 	0.3245	0.013	0.1836	-0.005
Mof_H 	H 	0.3123	0.0566	0.2207	0.041
Mof_N 	N 	0.41069	0.51891	0.0859	-0.18
Mof_N 	N 	0.41283	0.52308	0.1905	-0.188
Mof_N 	N 	0.30014	0.52861	0.1408	-0.097
Mof_N 	N 	0.11443	0.57792	0.1127	-0.119
Mof_N 	N 	0.10902	0.51221	0.1674	-0.195
Mof_N 	N 	0.22375	0.53465	0.1416	-0.109
Mof_C 	C 	0.34241	0.5217	0.0572	0.032
Mof_H 	H 	0.3253	0.52	0.9888	0.067
Mof_C 	C 	0.34507	0.5301	0.2222	0.101
Mof_H 	H 	0.33	0.5349	0.2913	0.006
Mof_C 	C 	0.1843	0.5904	0.0995	0.092
Mof_H 	H 	0.2046	0.6312	0.063	0.003
Mof_C 	C 	0.1755	0.487	0.1836	0.094
Mof_H 	H 	0.1877	0.4434	0.2207	0.02
Mof_N 	N 	0.01891	0.91069	0.9141	-0.182
Mof_N 	N 	0.02308	0.91283	0.8095	-0.177
Mof_N 	N 	0.02861	0.80014	0.8592	-0.117
Mof_N 	N 	0.07792	0.61443	0.8873	-0.105
Mof_N 	N 	0.01221	0.60902	0.8326	-0.224
Mof_N 	N 	0.03465	0.72375	0.8584	-0.127
Mof_C 	C 	0.0217	0.84241	0.9428	0.172
Mof_H 	H 	0.02	0.8253	0.0112	-0.038
Mof_C 	C 	0.0301	0.84507	0.7778	0.101
Mof_H 	H 	0.0349	0.83	0.7087	0.004
Mof_C 	C 	0.0904	0.6843	0.9005	0.1
Mof_H 	H 	0.1312	0.7046	0.937	0.024
Mof_C 	C 	0.987	0.6755	0.8164	0.184
Mof_H 	H 	0.9434	0.6877	0.7793	0.011
Mof_N 	N 	0.48109	0.58931	0.9141	-0.189
Mof_N 	N 	0.47692	0.58717	0.8095	-0.186
Mof_N 	N 	0.47139	0.69986	0.8592	-0.115
Mof_N 	N 	0.42208	0.88557	0.8873	-0.098
Mof_N 	N 	0.48779	0.89098	0.8326	-0.182
Mof_N 	N 	0.46535	0.77625	0.8584	-0.101
Mof_C 	C 	0.4783	0.65759	0.9428	0.176
Mof_H 	H 	0.48	0.6747	0.0112	-0.03
Mof_C 	C 	0.4699	0.65493	0.7778	0.106
Mof_H 	H 	0.4651	0.67	0.7087	0.006
Mof_C 	C 	0.4096	0.8157	0.9005	0.102
Mof_H 	H 	0.3688	0.7954	0.937	0.025
Mof_C 	C 	0.513	0.8245	0.8164	0.103
Mof_H 	H 	0.5566	0.8123	0.7793	0.028
Mof_N 	N 	0.91069	0.48109	0.4141	-0.176
Mof_N 	N 	0.91283	0.47692	0.3095	-0.175
Mof_N 	N 	0.80014	0.47139	0.3592	-0.106
Mof_N 	N 	0.61443	0.42208	0.3873	-0.108
Mof_N 	N 	0.60902	0.48779	0.3326	-0.188
Mof_N 	N 	0.72375	0.46535	0.3584	-0.105
Mof_C 	C 	0.84241	0.4783	0.4428	0.107
Mof_H 	H 	0.8253	0.48	0.5112	0.019
Mof_C 	C 	0.84507	0.4699	0.2778	0.105
Mof_H 	H 	0.83	0.4651	0.2087	0.005
Mof_C 	C 	0.6843	0.4096	0.4005	0.097
Mof_H 	H 	0.7046	0.3688	0.437	0.014
Mof_C 	C 	0.6755	0.513	0.3164	0.099
Mof_H 	H 	0.6877	0.5566	0.2793	0.025
Mof_N 	N 	0.58931	0.01891	0.4141	-0.193
Mof_N 	N 	0.58717	0.02308	0.3095	-0.193
Mof_N 	N 	0.69986	0.02861	0.3592	-0.108
Mof_N 	N 	0.88557	0.07792	0.3873	-0.108
Mof_N 	N 	0.89098	0.01221	0.3326	-0.222
Mof_N 	N 	0.77625	0.03465	0.3584	-0.132
Mof_C 	C 	0.65759	0.0217	0.4428	0.099
Mof_H 	H 	0.6747	0.02	0.5112	0.01
Mof_C 	C 	0.65493	0.0301	0.2778	0.097
Mof_H 	H 	0.67	0.0349	0.2087	-0.003
Mof_C 	C 	0.8157	0.0904	0.4005	0.095
Mof_H 	H 	0.7954	0.1312	0.437	0.014
Mof_C 	C 	0.8245	0.987	0.3164	0.182
Mof_H 	H 	0.8123	0.9434	0.2793	0.008
Mof_Cu	Cu	0.01194	0.48806	0.2345	0.862
Mof_Cl	Cl	0.08012	0.41988	0.3763	-0.526
Mof_Cu	Cu	0.48806	0.01194	0.2345	0.862
Mof_Cl	Cl	0.41988	0.08012	0.3763	-0.526
Mof_Cu	Cu	0.01194	0.01194	0.7345	0.847
Mof_Cl	Cl	0.08012	0.08012	0.8763	-0.526
Mof_Cu	Cu	0.48806	0.48806	0.7345	0.88
Mof_Cl	Cl	0.41988	0.41988	0.8763	-0.487
Mof_Cu	Cu	0.98806	0.98806	0.2655	0.907
Mof_Cl	Cl	0.91988	0.91988	0.1237	-0.469
Mof_Cu	Cu	0.51194	0.51194	0.2655	0.879
Mof_Cl	Cl	0.58012	0.58012	0.1237	-0.514
Mof_Cu	Cu	0.98806	0.51194	0.7655	0.897
Mof_Cl	Cl	0.91988	0.58012	0.6237	-0.477
Mof_Cu	Cu	0.51194	0.98806	0.7655	0.897
Mof_Cl	Cl	0.58012	0.91988	0.6237	-0.477
Mof_Cu	Cu	4.28205e-33	0.5	0.5	0.879
Mof_Cu	Cu	0.5	0	0.5	0.879
Mof_Cu	Cu	-0	0	-0	0.838
Mof_Cu	Cu	0.5	0.5	-0	0.881
_end
