# CIF file generated by openbabel 3.1.0, see https://openbabel.org
data_I
_chemical_name_common 'image0'
_cell_length_a 10.125
_cell_length_b 10.7664
_cell_length_c 13.2928
_cell_angle_alpha 86.521
_cell_angle_beta 73.151
_cell_angle_gamma 85.317
_space_group_name_H-M_alt 'P 1'
_space_group_name_Hall 'P 1'
loop_
    _symmetry_equiv_pos_as_xyz
    x,y,z
loop_
    _atom_site_label
    _atom_site_type_symbol
    _atom_site_fract_x
    _atom_site_fract_y
    _atom_site_fract_z
    _atom_site_occupancy
    Mn1      Mn       0.86159    0.59120    0.30786    1.000
    C1       C        0.12050    0.25010    0.07230    1.000
    C2       C        0.19990    0.22600    0.15220    1.000
    C3       C        0.25380    0.32190    0.19080    1.000
    H1       H        0.23490    0.40460    0.17220    1.000
    C4       C        0.33570    0.29220    0.25680    1.000
    H2       H        0.37180    0.35610    0.28240    1.000
    C5       C        0.36530    0.17050    0.28570    1.000
    H3       H        0.42280    0.15270    0.32880    1.000
    C6       C        0.30890    0.07450    0.25010    1.000
    C7       C        0.22540    0.10430    0.18430    1.000
    H4       H        0.18580    0.04070    0.16120    1.000
    C8       C        0.33390    0.94020    0.27770    1.000
    C9       C        0.46220    0.88690    0.28240    1.000
    H5       H        0.53600    0.93690    0.27260    1.000
    C10      C        0.48010    0.75820    0.30210    1.000
    C11      C        0.62050    0.69980    0.29970    1.000
    C12      C        0.37010    0.68290    0.31900    1.000
    H6       H        0.38240    0.59760    0.33250    1.000
    C13      C        0.24150    0.73600    0.31570    1.000
    C14      C        0.11990    0.65760    0.32990    1.000
    C15      C        0.22530    0.86190    0.29400    1.000
    H7       H        0.13950    0.89600    0.29000    1.000
    C16      C        0.82780    0.30470    0.26860    1.000
    H8       H        0.78560    0.32680    0.21600    1.000
    C17      C        0.85180    0.18850    0.30200    1.000
    H9       H        0.83080    0.11580    0.27720    1.000
    C18      C        0.92680    0.31790    0.38920    1.000
    H10      H        0.96740    0.34910    0.43600    1.000
    C19      C        0.57440    0.15490    0.03380    1.000
    H11      H        0.48090    0.14510    0.04420    1.000
    C20      C        0.67260    0.06440    0.03800    1.000
    H12      H        0.65710    0.98050    0.05280    1.000
    C21      C        0.77440    0.23460    0.00120    1.000
    H13      H        0.84180    0.29220    0.98520    1.000
    C22      C        0.57150    0.38600    0.00360    1.000
    C23      C        0.47120    0.39870    0.95110    1.000
    H14      H        0.45190    0.33100    0.91880    1.000
    C24      C        0.60090    0.48500    0.05270    1.000
    H15      H        0.66810    0.47480    0.08820    1.000
    C25      C        0.95870    0.09600    0.44110    1.000
    C26      C        0.89380    0.98490    0.45640    1.000
    H16      H        0.82270    0.97550    0.42680    1.000
    C27      C        0.06450    0.11152    0.48419    1.000
    H17      H        0.10740    0.18630    0.47330    1.000
    N1       N        0.87443    0.38720    0.32318    1.000
    N2       N        0.91399    0.19707    0.38036    1.000
    N3       N        0.79952    0.11385    0.01711    1.000
    N4       N        0.63930    0.26439    0.01111    1.000
    O1       O        0.09533    0.36148    0.04575    1.000
    O2       O        0.08750    0.15768    0.03482    1.000
    O3       O        0.72158    0.76600    0.28249    1.000
    O4       O        0.63660    0.58449    0.31350    1.000
    O5       O        0.11590    0.55269    0.37449    1.000
    O6       O        0.02340    0.70710    0.29301    1.000
    Mn2      Mn       0.13841    0.40880    0.69214    1.000
    C28      C        0.87950    0.74990    0.92770    1.000
    C29      C        0.80010    0.77400    0.84780    1.000
    C30      C        0.74620    0.67810    0.80920    1.000
    H18      H        0.76510    0.59540    0.82780    1.000
    C31      C        0.66430    0.70780    0.74320    1.000
    H19      H        0.62820    0.64390    0.71760    1.000
    C32      C        0.63470    0.82950    0.71430    1.000
    H20      H        0.57720    0.84730    0.67120    1.000
    C33      C        0.69110    0.92550    0.74990    1.000
    C34      C        0.77460    0.89570    0.81570    1.000
    H21      H        0.81420    0.95930    0.83880    1.000
    C35      C        0.66610    0.05980    0.72230    1.000
    C36      C        0.53780    0.11310    0.71760    1.000
    H22      H        0.46400    0.06310    0.72740    1.000
    C37      C        0.51990    0.24180    0.69790    1.000
    C38      C        0.37950    0.30020    0.70030    1.000
    C39      C        0.62990    0.31710    0.68100    1.000
    H23      H        0.61760    0.40240    0.66750    1.000
    C40      C        0.75850    0.26400    0.68430    1.000
    C41      C        0.88010    0.34240    0.67010    1.000
    C42      C        0.77470    0.13810    0.70600    1.000
    H24      H        0.86050    0.10400    0.71000    1.000
    C43      C        0.17220    0.69530    0.73140    1.000
    H25      H        0.21440    0.67320    0.78400    1.000
    C44      C        0.14820    0.81150    0.69800    1.000
    H26      H        0.16920    0.88420    0.72280    1.000
    C45      C        0.07320    0.68210    0.61080    1.000
    H27      H        0.03260    0.65090    0.56400    1.000
    C46      C        0.42560    0.84510    0.96620    1.000
    H28      H        0.51910    0.85490    0.95580    1.000
    C47      C        0.32740    0.93560    0.96200    1.000
    H29      H        0.34290    0.01950    0.94720    1.000
    C48      C        0.22560    0.76540    0.99880    1.000
    H30      H        0.15820    0.70780    0.01480    1.000
    C49      C        0.42850    0.61400    0.99640    1.000
    C50      C        0.52880    0.60130    0.04890    1.000
    H31      H        0.54810    0.66900    0.08120    1.000
    C51      C        0.39910    0.51500    0.94730    1.000
    H32      H        0.33190    0.52520    0.91180    1.000
    C52      C        0.04130    0.90400    0.55890    1.000
    C53      C        0.10620    0.01510    0.54360    1.000
    H33      H        0.17730    0.02450    0.57320    1.000
    C54      C        0.93550    0.88848    0.51581    1.000
    H34      H        0.89260    0.81370    0.52670    1.000
    N5       N        0.12557    0.61280    0.67682    1.000
    N6       N        0.08601    0.80293    0.61964    1.000
    N7       N        0.20048    0.88615    0.98289    1.000
    N8       N        0.36070    0.73561    0.98889    1.000
    O7       O        0.90467    0.63852    0.95425    1.000
    O8       O        0.91250    0.84232    0.96518    1.000
    O9       O        0.27842    0.23400    0.71751    1.000
    O10      O        0.36340    0.41551    0.68650    1.000
    O11      O        0.88410    0.44731    0.62551    1.000
    O12      O        0.97660    0.29290    0.70699    1.000
    Mn3      Mn       0.00000    0.00000    0.00000    1.000
