data_functionalizedCrystal
_audit_creation_method	'EQeq! by Chris Wilmer'
_symmetry_space_group_name_H-M	'P1'
_symmetry_Int_Tables_number	1
_symmetry_cell_setting	triclinic
loop_
_symmetry_equiv_pos_as_xyz
  x,y,z
_cell_length_a	11.2874
_cell_length_b	11.8917
_cell_length_c	17.5352
_cell_angle_alpha	90
_cell_angle_beta	90
_cell_angle_gamma	106.723
loop_
_atom_site_label
_atom_site_type_symbol
_atom_site_fract_x
_atom_site_fract_y
_atom_site_fract_z
_atom_site_charge
Mof_Tm	Tm	0.76145	0.64343	0.00175	1.846
Mof_Tm	Tm	0.20569	0.83216	0.9872	1.39
Mof_Tm	Tm	0.23855	0.35657	0.50175	1.857
Mof_Tm	Tm	0.79431	0.16784	0.4872	1.408
Mof_Tm	Tm	0.23855	0.35657	0.99825	1.846
Mof_Tm	Tm	0.79431	0.16784	0.0128	1.39
Mof_Tm	Tm	0.76145	0.64343	0.49825	1.858
Mof_Tm	Tm	0.20569	0.83216	0.5128	1.409
Mof_H 	H 	0.0543	0.322	0.75	0.002
Mof_H 	H 	0.6143	0.8136	0.75	0.04
Mof_H 	H 	0.9974	0.8025	0.75	-0.005
Mof_H 	H 	0.7661	0.5306	0.75	0.077
Mof_H 	H 	0.358	0.4308	0.75	0.056
Mof_H 	H 	0.9457	0.678	0.25	0.002
Mof_H 	H 	0.3857	0.1864	0.25	0.04
Mof_H 	H 	0.0026	0.1975	0.25	-0.005
Mof_H 	H 	0.2339	0.4694	0.25	0.077
Mof_H 	H 	0.642	0.5692	0.25	0.056
Mof_C 	C 	0.9545	0.3946	0.8191	-0.126
Mof_C 	C 	0.867	0.4581	0.8196	-0.006
Mof_C 	C 	0.0069	0.3563	0.8912	0.453
Mof_C 	C 	0.9249	0.9006	0.8187	-0.141
Mof_C 	C 	0.8584	0.9833	0.819	-0.043
Mof_C 	C 	0.8246	0.5052	0.89	0.273
Mof_C 	C 	0.4462	0.5648	0.8198	-0.033
Mof_C 	C 	0.571	0.7475	0.8925	0.395
Mof_C 	C 	0.9668	0.8494	0.8886	0.518
Mof_C 	C 	0.5242	0.6802	0.8195	-0.091
Mof_C 	C 	0.8304	0.039	0.8898	0.302
Mof_C 	C 	0.3907	0.4989	0.8896	0.319
Mof_C 	C 	0.0455	0.6054	0.3191	-0.135
Mof_C 	C 	0.133	0.5419	0.3196	-0.004
Mof_C 	C 	0.9931	0.6437	0.3912	0.471
Mof_C 	C 	0.0751	0.0994	0.3187	-0.14
Mof_C 	C 	0.1416	0.0167	0.319	-0.043
Mof_C 	C 	0.1754	0.4948	0.39	0.273
Mof_C 	C 	0.5538	0.4352	0.3198	-0.033
Mof_C 	C 	0.429	0.2525	0.3925	0.396
Mof_C 	C 	0.0332	0.1506	0.3886	0.511
Mof_C 	C 	0.4758	0.3198	0.3195	-0.092
Mof_C 	C 	0.1696	0.961	0.3898	0.302
Mof_C 	C 	0.6093	0.5011	0.3896	0.319
Mof_C 	C 	0.0455	0.6054	0.1809	-0.126
Mof_C 	C 	0.133	0.5419	0.1804	-0.006
Mof_C 	C 	0.9931	0.6437	0.1088	0.453
Mof_C 	C 	0.0751	0.0994	0.1813	-0.141
Mof_C 	C 	0.1416	0.0167	0.181	-0.043
Mof_C 	C 	0.1754	0.4948	0.11	0.273
Mof_C 	C 	0.5538	0.4352	0.1802	-0.033
Mof_C 	C 	0.429	0.2525	0.1075	0.395
Mof_C 	C 	0.0332	0.1506	0.1114	0.518
Mof_C 	C 	0.4758	0.3198	0.1805	-0.091
Mof_C 	C 	0.1696	0.961	0.1102	0.302
Mof_C 	C 	0.6093	0.5011	0.1104	0.319
Mof_C 	C 	0.9545	0.3946	0.6809	-0.135
Mof_C 	C 	0.867	0.4581	0.6804	-0.004
Mof_C 	C 	0.0069	0.3563	0.6088	0.471
Mof_C 	C 	0.9249	0.9006	0.6813	-0.14
Mof_C 	C 	0.8584	0.9833	0.681	-0.043
Mof_C 	C 	0.8246	0.5052	0.61	0.273
Mof_C 	C 	0.4462	0.5648	0.6802	-0.033
Mof_C 	C 	0.571	0.7475	0.6075	0.396
Mof_C 	C 	0.9668	0.8494	0.6114	0.511
Mof_C 	C 	0.5242	0.6802	0.6805	-0.092
Mof_C 	C 	0.8304	0.039	0.6102	0.302
Mof_C 	C 	0.3907	0.4989	0.6104	0.319
Mof_C 	C 	0.9965	0.3641	0.75	0.084
Mof_C 	C 	0.5626	0.737	0.75	0.016
Mof_C 	C 	0.9554	0.8593	0.75	0.073
Mof_C 	C 	0.8242	0.4888	0.75	-0.058
Mof_C 	C 	0.825	0.0229	0.75	0.052
Mof_C 	C 	0.4087	0.5079	0.75	-0.022
Mof_C 	C 	0.0035	0.6359	0.25	0.084
Mof_C 	C 	0.4374	0.263	0.25	0.016
Mof_C 	C 	0.0446	0.1407	0.25	0.073
Mof_C 	C 	0.1758	0.5112	0.25	-0.058
Mof_C 	C 	0.175	0.9771	0.25	0.052
Mof_C 	C 	0.5913	0.4921	0.25	-0.022
Mof_O 	O 	0.3798	0.3911	0.8946	-0.419
Mof_O 	O 	0.8895	0.0359	0.95	-0.37
Mof_O 	O 	0.7199	0.5246	0.8899	-0.385
Mof_O 	O 	0.893	0.5316	0.9481	-0.38
Mof_O 	O 	0.3461	0.5479	0.9426	-0.404
Mof_O 	O 	0.7477	0.0931	0.8878	-0.384
Mof_O 	O 	0.5695	0.8511	0.8964	-0.329
Mof_O 	O 	0.8896	0.7748	0.9265	-0.55
Mof_O 	O 	0.0814	0.8781	0.9	-0.519
Mof_O 	O 	0.1213	0.3858	0.897	-0.5
Mof_O 	O 	0.6075	0.6934	0.9458	-0.491
Mof_O 	O 	0.9331	0.2932	0.9382	-0.478
Mof_O 	O 	0.6202	0.6089	0.3946	-0.42
Mof_O 	O 	0.1105	0.9641	0.45	-0.378
Mof_O 	O 	0.2801	0.4754	0.3899	-0.388
Mof_O 	O 	0.107	0.4684	0.4481	-0.386
Mof_O 	O 	0.6539	0.4521	0.4426	-0.405
Mof_O 	O 	0.2523	0.9069	0.3878	-0.388
Mof_O 	O 	0.4305	0.1489	0.3964	-0.33
Mof_O 	O 	0.1104	0.2252	0.4265	-0.553
Mof_O 	O 	0.9186	0.1219	0.4	-0.513
Mof_O 	O 	0.8787	0.6142	0.397	-0.504
Mof_O 	O 	0.3925	0.3066	0.4458	-0.495
Mof_O 	O 	0.0669	0.7068	0.4382	-0.493
Mof_O 	O 	0.6202	0.6089	0.1054	-0.419
Mof_O 	O 	0.1105	0.9641	0.05	-0.37
Mof_O 	O 	0.2801	0.4754	0.1101	-0.385
Mof_O 	O 	0.107	0.4684	0.0519	-0.38
Mof_O 	O 	0.6539	0.4521	0.0574	-0.404
Mof_O 	O 	0.2523	0.9069	0.1122	-0.384
Mof_O 	O 	0.4305	0.1489	0.1036	-0.329
Mof_O 	O 	0.1104	0.2252	0.0735	-0.55
Mof_O 	O 	0.9186	0.1219	0.1	-0.519
Mof_O 	O 	0.8787	0.6142	0.103	-0.5
Mof_O 	O 	0.3925	0.3066	0.0542	-0.491
Mof_O 	O 	0.0669	0.7068	0.0618	-0.478
Mof_O 	O 	0.3798	0.3911	0.6054	-0.42
Mof_O 	O 	0.8895	0.0359	0.55	-0.378
Mof_O 	O 	0.7199	0.5246	0.6101	-0.388
Mof_O 	O 	0.893	0.5316	0.5519	-0.386
Mof_O 	O 	0.3461	0.5479	0.5574	-0.405
Mof_O 	O 	0.7477	0.0931	0.6122	-0.388
Mof_O 	O 	0.5695	0.8511	0.6036	-0.33
Mof_O 	O 	0.8896	0.7748	0.5735	-0.553
Mof_O 	O 	0.0814	0.8781	0.6	-0.513
Mof_O 	O 	0.1213	0.3858	0.603	-0.504
Mof_O 	O 	0.6075	0.6934	0.5542	-0.495
Mof_O 	O 	0.9331	0.2932	0.5618	-0.493
_end
