data_functionalizedCrystal
_audit_creation_method	'EQeq! by Chris Wilmer'
_symmetry_space_group_name_H-M	'P1'
_symmetry_Int_Tables_number	1
_symmetry_cell_setting	triclinic
loop_
_symmetry_equiv_pos_as_xyz
  x,y,z
_cell_length_a	18.944
_cell_length_b	23.156
_cell_length_c	14.411
_cell_angle_alpha	90
_cell_angle_beta	126.63
_cell_angle_gamma	90
loop_
_atom_site_label
_atom_site_type_symbol
_atom_site_fract_x
_atom_site_fract_y
_atom_site_fract_z
_atom_site_charge
Mof_Cd	Cd	0.44251	0.15314	0.99642	0.537
Mof_O 	O 	0.3369	0.10661	0.9929	-0.253
Mof_O 	O 	0.44901	0.04981	0.0922	-0.291
Mof_O 	O 	0.43593	0.92068	0.3734	-0.278
Mof_O 	O 	0.3197	0.8655	0.2787	-0.237
Mof_O 	O 	0.62395	0.9543	0.5998	-0.279
Mof_O 	O 	0.5888	0.86246	0.6015	-0.265
Mof_O 	O 	0.8262	0.73461	0.9081	-0.215
Mof_O 	O 	0.9512	0.74243	0.9338	-0.232
Mof_O 	O 	0.4823	0.2002	0.161	-0.257
Mof_N 	N 	0.0411	0.9432	0.928	-0.155
Mof_N 	N 	0.033	0.0344	0.888	-0.21
Mof_H 	H 	0.0477	0.0693	0.8862	0.144
Mof_N 	N 	0.9468	0.0137	0.8299	-0.089
Mof_C 	C 	0.3731	0.0628	0.053	0.313
Mof_C 	C 	0.3199	0.0245	0.073	-0.073
Mof_C 	C 	0.2295	0.0264	-0	-0.046
Mof_H 	H 	0.201	0.0511	0.9367	0.075
Mof_C 	C 	0.1808	0.9912	0.0206	-0.021
Mof_C 	C 	0.2231	0.953	0.1108	-0.009
Mof_H 	H 	0.1908	0.9285	0.1234	0.064
Mof_C 	C 	0.3139	0.9509	0.1831	-0.058
Mof_C 	C 	0.3629	0.9875	0.1685	0.032
Mof_H 	H 	0.4239	0.9878	0.2212	0.059
Mof_C 	C 	0.3585	0.91	0.2865	0.309
Mof_C 	C 	0.0849	0.9934	0.9429	0.174
Mof_C 	C 	0.9555	0.9603	0.8569	0.168
Mof_C 	C 	0.8892	0.916	0.8246	-0.011
Mof_C 	C 	0.8005	0.9309	0.7458	-0.017
Mof_H 	H 	0.7838	0.9676	0.7129	0.069
Mof_C 	C 	0.7378	0.8892	0.7185	-0.052
Mof_C 	C 	0.7629	0.8348	0.7677	0.003
Mof_H 	H 	0.72	0.8077	0.7486	0.077
Mof_C 	C 	0.8504	0.8201	0.8446	-0.041
Mof_C 	C 	0.913	0.8613	0.8702	-0.019
Mof_H 	H 	0.9723	0.8517	0.9193	0.084
Mof_C 	C 	0.6416	0.9033	0.6321	0.33
Mof_C 	C 	0.8768	0.7612	0.8966	0.304
Mof_Cd	Cd	0.94251	0.65314	0.99642	0.55
Mof_O 	O 	0.8369	0.60661	0.9929	-0.249
Mof_O 	O 	0.94901	0.54981	0.0922	-0.265
Mof_O 	O 	0.93593	0.42068	0.3734	-0.266
Mof_O 	O 	0.8197	0.3655	0.2787	-0.231
Mof_O 	O 	0.12395	0.4543	0.5998	-0.292
Mof_O 	O 	0.0888	0.36246	0.6015	-0.284
Mof_O 	O 	0.3262	0.23461	0.9081	-0.218
Mof_O 	O 	0.4512	0.24243	0.9338	-0.24
Mof_O 	O 	0.9823	0.7002	0.161	-0.216
Mof_N 	N 	0.5411	0.4432	0.928	-0.132
Mof_N 	N 	0.533	0.5344	0.888	-0.19
Mof_H 	H 	0.5477	0.5693	0.8862	0.148
Mof_N 	N 	0.4468	0.5137	0.8299	-0.086
Mof_C 	C 	0.8731	0.5628	0.053	0.308
Mof_C 	C 	0.8199	0.5245	0.073	-0.047
Mof_C 	C 	0.7295	0.5264	-0	-0.032
Mof_H 	H 	0.701	0.5511	0.9367	0.074
Mof_C 	C 	0.6808	0.4912	0.0206	-0.031
Mof_C 	C 	0.7231	0.453	0.1108	-0.016
Mof_H 	H 	0.6908	0.4285	0.1234	0.068
Mof_C 	C 	0.8139	0.4509	0.1831	-0.045
Mof_C 	C 	0.8629	0.4875	0.1685	-0
Mof_H 	H 	0.9239	0.4878	0.2212	0.074
Mof_C 	C 	0.8585	0.41	0.2865	0.302
Mof_C 	C 	0.5849	0.4934	0.9429	0.164
Mof_C 	C 	0.4555	0.4603	0.8569	0.126
Mof_C 	C 	0.3892	0.416	0.8246	-0.005
Mof_C 	C 	0.3005	0.4309	0.7458	-0.021
Mof_H 	H 	0.2838	0.4676	0.7129	0.065
Mof_C 	C 	0.2378	0.3892	0.7185	-0.057
Mof_C 	C 	0.2629	0.3348	0.7677	0.004
Mof_H 	H 	0.22	0.3077	0.7486	0.073
Mof_C 	C 	0.3504	0.3201	0.8446	-0.044
Mof_C 	C 	0.413	0.3613	0.8702	-0.024
Mof_H 	H 	0.4723	0.3517	0.9193	0.078
Mof_C 	C 	0.1416	0.4033	0.6321	0.333
Mof_C 	C 	0.3768	0.2612	0.8966	0.305
Mof_Cd	Cd	0.55749	0.15314	0.50358	0.53
Mof_O 	O 	0.6631	0.10661	0.5071	-0.262
Mof_O 	O 	0.55099	0.04981	0.4078	-0.292
Mof_O 	O 	0.56407	0.92068	0.1266	-0.278
Mof_O 	O 	0.6803	0.8655	0.2213	-0.231
Mof_O 	O 	0.37605	0.9543	0.9002	-0.274
Mof_O 	O 	0.4112	0.86246	0.8985	-0.261
Mof_O 	O 	0.1738	0.73461	0.5919	-0.219
Mof_O 	O 	0.0488	0.74243	0.5662	-0.252
Mof_O 	O 	0.5177	0.2002	0.339	-0.253
Mof_N 	N 	0.9589	0.9432	0.572	-0.116
Mof_N 	N 	0.967	0.0344	0.612	-0.187
Mof_H 	H 	0.9523	0.0693	0.6138	0.15
Mof_N 	N 	0.0532	0.0137	0.6701	-0.106
Mof_C 	C 	0.6269	0.0628	0.447	0.331
Mof_C 	C 	0.6801	0.0245	0.427	-0.084
Mof_C 	C 	0.7705	0.0264	0.5	-0.021
Mof_H 	H 	0.799	0.0511	0.5633	0.063
Mof_C 	C 	0.8192	0.9912	0.4794	-0.017
Mof_C 	C 	0.7769	0.953	0.3892	-0.009
Mof_H 	H 	0.8092	0.9285	0.3766	0.071
Mof_C 	C 	0.6861	0.9509	0.3169	-0.058
Mof_C 	C 	0.6371	0.9875	0.3315	0.038
Mof_H 	H 	0.5761	0.9878	0.2788	0.057
Mof_C 	C 	0.6415	0.91	0.2135	0.309
Mof_C 	C 	0.9151	0.9934	0.5571	0.174
Mof_C 	C 	0.0445	0.9603	0.6431	0.113
Mof_C 	C 	0.1108	0.916	0.6754	-0.004
Mof_C 	C 	0.1995	0.9309	0.7542	-0.024
Mof_H 	H 	0.2162	0.9676	0.7871	0.072
Mof_C 	C 	0.2622	0.8892	0.7815	-0.05
Mof_C 	C 	0.2371	0.8348	0.7323	0.001
Mof_H 	H 	0.28	0.8077	0.7514	0.077
Mof_C 	C 	0.1496	0.8201	0.6554	-0.046
Mof_C 	C 	0.087	0.8613	0.6298	-0.027
Mof_H 	H 	0.0277	0.8517	0.5807	0.067
Mof_C 	C 	0.3584	0.9033	0.8679	0.328
Mof_C 	C 	0.1232	0.7612	0.6034	0.306
Mof_Cd	Cd	0.05749	0.65314	0.50358	0.516
Mof_O 	O 	0.1631	0.60661	0.5071	-0.262
Mof_O 	O 	0.05099	0.54981	0.4078	-0.297
Mof_O 	O 	0.06407	0.42068	0.1266	-0.29
Mof_O 	O 	0.1803	0.3655	0.2213	-0.235
Mof_O 	O 	0.87605	0.4543	0.9002	-0.27
Mof_O 	O 	0.9112	0.36246	0.8985	-0.243
Mof_O 	O 	0.6738	0.23461	0.5919	-0.216
Mof_O 	O 	0.5488	0.24243	0.5662	-0.242
Mof_O 	O 	0.0177	0.7002	0.339	-0.248
Mof_N 	N 	0.4589	0.4432	0.572	-0.134
Mof_N 	N 	0.467	0.5344	0.612	-0.189
Mof_H 	H 	0.4523	0.5693	0.6138	0.145
Mof_N 	N 	0.5532	0.5137	0.6701	-0.087
Mof_C 	C 	0.1269	0.5628	0.447	0.332
Mof_C 	C 	0.1801	0.5245	0.427	-0.074
Mof_C 	C 	0.2705	0.5264	0.5	-0
Mof_H 	H 	0.299	0.5511	0.5633	0.058
Mof_C 	C 	0.3192	0.4912	0.4794	-0.036
Mof_C 	C 	0.2769	0.453	0.3892	-0.004
Mof_H 	H 	0.3092	0.4285	0.3766	0.066
Mof_C 	C 	0.1861	0.4509	0.3169	-0.063
Mof_C 	C 	0.1371	0.4875	0.3315	0.02
Mof_H 	H 	0.0761	0.4878	0.2788	0.049
Mof_C 	C 	0.1415	0.41	0.2135	0.31
Mof_C 	C 	0.4151	0.4934	0.5571	0.158
Mof_C 	C 	0.5445	0.4603	0.6431	0.125
Mof_C 	C 	0.6108	0.416	0.6754	-0.003
Mof_C 	C 	0.6995	0.4309	0.7542	-0.025
Mof_H 	H 	0.7162	0.4676	0.7871	0.067
Mof_C 	C 	0.7622	0.3892	0.7815	-0.047
Mof_C 	C 	0.7371	0.3348	0.7323	-0.002
Mof_H 	H 	0.78	0.3077	0.7514	0.081
Mof_C 	C 	0.6496	0.3201	0.6554	-0.04
Mof_C 	C 	0.587	0.3613	0.6298	-0.027
Mof_H 	H 	0.5277	0.3517	0.5807	0.076
Mof_C 	C 	0.8584	0.4033	0.8679	0.326
Mof_C 	C 	0.6232	0.2612	0.6034	0.304
Mof_Cd	Cd	0.55749	0.84686	0.00358	0.523
Mof_O 	O 	0.6631	0.89339	0.0071	-0.265
Mof_O 	O 	0.55099	0.95019	0.9078	-0.274
Mof_O 	O 	0.56407	0.07932	0.6266	-0.279
Mof_O 	O 	0.6803	0.1345	0.7213	-0.228
Mof_O 	O 	0.37605	0.0457	0.4002	-0.294
Mof_O 	O 	0.4112	0.13754	0.3985	-0.268
Mof_O 	O 	0.1738	0.26539	0.0919	-0.222
Mof_O 	O 	0.0488	0.25757	0.0662	-0.255
Mof_O 	O 	0.5177	0.7998	0.839	-0.247
Mof_N 	N 	0.9589	0.0568	0.072	-0.109
Mof_N 	N 	0.967	0.9656	0.112	-0.162
Mof_H 	H 	0.9523	0.9307	0.1138	0.145
Mof_N 	N 	0.0532	0.9863	0.1701	-0.086
Mof_C 	C 	0.6269	0.9372	0.947	0.325
Mof_C 	C 	0.6801	0.9755	0.927	-0.02
Mof_C 	C 	0.7705	0.9736	-0	-0.038
Mof_H 	H 	0.799	0.9489	0.0633	0.074
Mof_C 	C 	0.8192	0.0088	0.9794	-0.002
Mof_C 	C 	0.7769	0.047	0.8892	-0.038
Mof_H 	H 	0.8092	0.0715	0.8766	0.081
Mof_C 	C 	0.6861	0.0491	0.8169	-0.03
Mof_C 	C 	0.6371	0.0125	0.8315	-0.031
Mof_H 	H 	0.5761	0.0122	0.7788	0.07
Mof_C 	C 	0.6415	0.09	0.7135	0.297
Mof_C 	C 	0.9151	0.0066	0.0571	0.125
Mof_C 	C 	0.0445	0.0397	0.1431	0.081
Mof_C 	C 	0.1108	0.084	0.1754	-0
Mof_C 	C 	0.1995	0.0691	0.2542	-0.028
Mof_H 	H 	0.2162	0.0324	0.2871	0.061
Mof_C 	C 	0.2622	0.1108	0.2815	-0.056
Mof_C 	C 	0.2371	0.1652	0.2323	0.001
Mof_H 	H 	0.28	0.1923	0.2514	0.075
Mof_C 	C 	0.1496	0.1799	0.1554	-0.048
Mof_C 	C 	0.087	0.1387	0.1298	-0.031
Mof_H 	H 	0.0277	0.1483	0.0807	0.066
Mof_C 	C 	0.3584	0.0967	0.3679	0.332
Mof_C 	C 	0.1232	0.2388	0.1034	0.306
Mof_Cd	Cd	0.05749	0.34686	0.00358	0.508
Mof_O 	O 	0.1631	0.39339	0.0071	-0.27
Mof_O 	O 	0.05099	0.45019	0.9078	-0.292
Mof_O 	O 	0.06407	0.57932	0.6266	-0.287
Mof_O 	O 	0.1803	0.6345	0.7213	-0.232
Mof_O 	O 	0.87605	0.5457	0.4002	-0.275
Mof_O 	O 	0.9112	0.63754	0.3985	-0.247
Mof_O 	O 	0.6738	0.76539	0.0919	-0.218
Mof_O 	O 	0.5488	0.75757	0.0662	-0.245
Mof_O 	O 	0.0177	0.2998	0.839	-0.242
Mof_N 	N 	0.4589	0.5568	0.072	-0.133
Mof_N 	N 	0.467	0.4656	0.112	-0.183
Mof_H 	H 	0.4523	0.4307	0.1138	0.141
Mof_N 	N 	0.5532	0.4863	0.1701	-0.088
Mof_C 	C 	0.1269	0.4372	0.947	0.333
Mof_C 	C 	0.1801	0.4755	0.927	-0.041
Mof_C 	C 	0.2705	0.4736	-0	-0.055
Mof_H 	H 	0.299	0.4489	0.0633	0.074
Mof_C 	C 	0.3192	0.5088	0.9794	0.011
Mof_C 	C 	0.2769	0.547	0.8892	-0.035
Mof_H 	H 	0.3092	0.5715	0.8766	0.078
Mof_C 	C 	0.1861	0.5491	0.8169	-0.04
Mof_C 	C 	0.1371	0.5125	0.8315	-0.003
Mof_H 	H 	0.0761	0.5122	0.7788	0.058
Mof_C 	C 	0.1415	0.59	0.7135	0.303
Mof_C 	C 	0.4151	0.5066	0.0571	0.135
Mof_C 	C 	0.5445	0.5397	0.1431	0.124
Mof_C 	C 	0.6108	0.584	0.1754	-0.006
Mof_C 	C 	0.6995	0.5691	0.2542	-0.024
Mof_H 	H 	0.7162	0.5324	0.2871	0.066
Mof_C 	C 	0.7622	0.6108	0.2815	-0.05
Mof_C 	C 	0.7371	0.6652	0.2323	-0
Mof_H 	H 	0.78	0.6923	0.2514	0.08
Mof_C 	C 	0.6496	0.6799	0.1554	-0.043
Mof_C 	C 	0.587	0.6387	0.1298	-0.026
Mof_H 	H 	0.5277	0.6483	0.0807	0.074
Mof_C 	C 	0.8584	0.5967	0.3679	0.327
Mof_C 	C 	0.6232	0.7388	0.1034	0.305
Mof_Cd	Cd	0.44251	0.84686	0.49642	0.53
Mof_O 	O 	0.3369	0.89339	0.4929	-0.261
Mof_O 	O 	0.44901	0.95019	0.5922	-0.278
Mof_O 	O 	0.43593	0.07932	0.8734	-0.278
Mof_O 	O 	0.3197	0.1345	0.7787	-0.235
Mof_O 	O 	0.62395	0.0457	0.0998	-0.296
Mof_O 	O 	0.5888	0.13754	0.1015	-0.272
Mof_O 	O 	0.8262	0.26539	0.4081	-0.218
Mof_O 	O 	0.9512	0.25757	0.4338	-0.234
Mof_O 	O 	0.4823	0.7998	0.661	-0.25
Mof_N 	N 	0.0411	0.0568	0.428	-0.151
Mof_N 	N 	0.033	0.9656	0.388	-0.191
Mof_H 	H 	0.0477	0.9307	0.3862	0.139
Mof_N 	N 	0.9468	0.9863	0.3299	-0.067
Mof_C 	C 	0.3731	0.9372	0.553	0.325
Mof_C 	C 	0.3199	0.9755	0.573	-0.051
Mof_C 	C 	0.2295	0.9736	0.5	0.011
Mof_H 	H 	0.201	0.9489	0.4367	0.055
Mof_C 	C 	0.1808	0.0088	0.5206	-0.048
Mof_C 	C 	0.2231	0.047	0.6108	-0.009
Mof_H 	H 	0.1908	0.0715	0.6234	0.064
Mof_C 	C 	0.3139	0.0491	0.6831	-0.052
Mof_C 	C 	0.3629	0.0125	0.6685	-0.009
Mof_H 	H 	0.4239	0.0122	0.7212	0.063
Mof_C 	C 	0.3585	0.09	0.7865	0.304
Mof_C 	C 	0.0849	0.0066	0.4429	0.141
Mof_C 	C 	0.9555	0.0397	0.3569	0.137
Mof_C 	C 	0.8892	0.084	0.3246	-0.007
Mof_C 	C 	0.8005	0.0691	0.2458	-0.021
Mof_H 	H 	0.7838	0.0324	0.2129	0.059
Mof_C 	C 	0.7378	0.1108	0.2185	-0.057
Mof_C 	C 	0.7629	0.1652	0.2677	0.003
Mof_H 	H 	0.72	0.1923	0.2486	0.075
Mof_C 	C 	0.8504	0.1799	0.3446	-0.042
Mof_C 	C 	0.913	0.1387	0.3702	-0.023
Mof_H 	H 	0.9723	0.1483	0.4193	0.084
Mof_C 	C 	0.6416	0.0967	0.1321	0.333
Mof_C 	C 	0.8768	0.2388	0.3966	0.304
Mof_Cd	Cd	0.94251	0.34686	0.49642	0.543
Mof_O 	O 	0.8369	0.39339	0.4929	-0.259
Mof_O 	O 	0.94901	0.45019	0.5922	-0.268
Mof_O 	O 	0.93593	0.57932	0.8734	-0.263
Mof_O 	O 	0.8197	0.6345	0.7787	-0.23
Mof_O 	O 	0.12395	0.5457	0.0998	-0.295
Mof_O 	O 	0.0888	0.63754	0.1015	-0.288
Mof_O 	O 	0.3262	0.76539	0.4081	-0.22
Mof_O 	O 	0.4512	0.75757	0.4338	-0.243
Mof_O 	O 	0.9823	0.2998	0.661	-0.213
Mof_N 	N 	0.5411	0.5568	0.428	-0.133
Mof_N 	N 	0.533	0.4656	0.388	-0.188
Mof_H 	H 	0.5477	0.4307	0.3862	0.145
Mof_N 	N 	0.4468	0.4863	0.3299	-0.087
Mof_C 	C 	0.8731	0.4372	0.553	0.324
Mof_C 	C 	0.8199	0.4755	0.573	-0.058
Mof_C 	C 	0.7295	0.4736	0.5	-0.01
Mof_H 	H 	0.701	0.4489	0.4367	0.061
Mof_C 	C 	0.6808	0.5088	0.5206	-0.028
Mof_C 	C 	0.7231	0.547	0.6108	-0.014
Mof_H 	H 	0.6908	0.5715	0.6234	0.07
Mof_C 	C 	0.8139	0.5491	0.6831	-0.046
Mof_C 	C 	0.8629	0.5125	0.6685	0.007
Mof_H 	H 	0.9239	0.5122	0.7212	0.072
Mof_C 	C 	0.8585	0.59	0.7865	0.302
Mof_C 	C 	0.5849	0.5066	0.4429	0.156
Mof_C 	C 	0.4555	0.5397	0.3569	0.126
Mof_C 	C 	0.3892	0.584	0.3246	-0.008
Mof_C 	C 	0.3005	0.5691	0.2458	-0.02
Mof_H 	H 	0.2838	0.5324	0.2129	0.064
Mof_C 	C 	0.2378	0.6108	0.2185	-0.059
Mof_C 	C 	0.2629	0.6652	0.2677	0.005
Mof_H 	H 	0.22	0.6923	0.2486	0.071
Mof_C 	C 	0.3504	0.6799	0.3446	-0.047
Mof_C 	C 	0.413	0.6387	0.3702	-0.023
Mof_H 	H 	0.4723	0.6483	0.4193	0.075
Mof_C 	C 	0.1416	0.5967	0.1321	0.334
Mof_C 	C 	0.3768	0.7388	0.3966	0.306
Mof_Cd	Cd	0.5	0	-0	0.491
Mof_Cd	Cd	-0	0.5	-0	0.475
Mof_Cd	Cd	0.5	0	0.5	0.501
Mof_Cd	Cd	2.277e-33	0.5	0.5	0.484
Mof_C 	C 	0.5	0.1758	0.25	0.373
Mof_H 	H 	0.5	0.1356	0.25	-0.062
Mof_C 	C 	1.1385e-33	0.6758	0.25	0.315
Mof_H 	H 	1.1385e-33	0.6356	0.25	-0.053
Mof_C 	C 	0.5	0.8242	0.75	0.369
Mof_H 	H 	0.5	0.8644	0.75	-0.058
Mof_C 	C 	3.4155e-33	0.3242	0.75	0.315
Mof_H 	H 	3.4155e-33	0.3644	0.75	-0.051
_end
