data_functionalizedCrystal
_audit_creation_method	'EQeq! by Chris Wilmer'
_symmetry_space_group_name_H-M	'P1'
_symmetry_Int_Tables_number	1
_symmetry_cell_setting	triclinic
loop_
_symmetry_equiv_pos_as_xyz
  x,y,z
_cell_length_a	9.903
_cell_length_b	9.903
_cell_length_c	15.72
_cell_angle_alpha	90
_cell_angle_beta	90
_cell_angle_gamma	90
loop_
_atom_site_label
_atom_site_type_symbol
_atom_site_fract_x
_atom_site_fract_y
_atom_site_fract_z
_atom_site_charge
Mof_C 	C 	0.7409	0.1612	0.1875	0.023
Mof_H 	H 	0.7369	0.1001	0.1426	0.021
Mof_C 	C 	0.6593	0.2399	0.3134	-0.009
Mof_H 	H 	0.5983	0.2361	0.3583	0.056
Mof_C 	C 	0.2409	0.6612	0.6875	-0.006
Mof_H 	H 	0.2369	0.6001	0.6426	0.065
Mof_C 	C 	0.1593	0.7399	0.8134	0.033
Mof_H 	H 	0.0983	0.7361	0.8583	-0.007
Mof_C 	C 	0.2591	0.8388	0.1875	-0.021
Mof_H 	H 	0.2631	0.8999	0.1426	0.124
Mof_C 	C 	0.3407	0.7601	0.3134	0.013
Mof_H 	H 	0.4017	0.7639	0.3583	0.081
Mof_C 	C 	0.7591	0.3388	0.6875	0.008
Mof_H 	H 	0.7631	0.3999	0.6426	0.079
Mof_C 	C 	0.8407	0.2601	0.8134	-0.029
Mof_H 	H 	0.9017	0.2639	0.8583	0.143
Mof_C 	C 	0.8388	0.7409	0.1875	0.019
Mof_H 	H 	0.8999	0.7369	0.1426	0.143
Mof_C 	C 	0.7601	0.6593	0.3134	-0.035
Mof_H 	H 	0.7639	0.5983	0.3583	0.097
Mof_C 	C 	0.3388	0.2409	0.6875	-0
Mof_H 	H 	0.3999	0.2369	0.6426	0.06
Mof_C 	C 	0.2601	0.1593	0.8134	-0.042
Mof_H 	H 	0.2639	0.0983	0.8583	-0.006
Mof_C 	C 	0.1612	0.2591	0.1875	-0.017
Mof_H 	H 	0.1001	0.2631	0.1426	0.002
Mof_C 	C 	0.2399	0.3407	0.3134	0.04
Mof_H 	H 	0.2361	0.4017	0.3583	0.039
Mof_C 	C 	0.6612	0.7591	0.6875	0.002
Mof_H 	H 	0.6001	0.7631	0.6426	0.084
Mof_C 	C 	0.7399	0.8407	0.8134	0.046
Mof_H 	H 	0.7361	0.9017	0.8583	0.143
Mof_C 	C 	0.2591	0.1612	0.3125	-0.015
Mof_H 	H 	0.2631	0.1001	0.3574	0.002
Mof_C 	C 	0.3407	0.2399	0.1866	0.038
Mof_H 	H 	0.4017	0.2361	0.1417	0.039
Mof_C 	C 	0.7591	0.6612	0.8125	0.001
Mof_H 	H 	0.7631	0.6001	0.8574	0.084
Mof_C 	C 	0.8407	0.7399	0.6866	0.047
Mof_H 	H 	0.9017	0.7361	0.6417	0.144
Mof_C 	C 	0.7409	0.8388	0.3125	0.018
Mof_H 	H 	0.7369	0.8999	0.3574	0.143
Mof_C 	C 	0.6593	0.7601	0.1866	-0.034
Mof_H 	H 	0.5983	0.7639	0.1417	0.097
Mof_C 	C 	0.2409	0.3388	0.8125	0.001
Mof_H 	H 	0.2369	0.3999	0.8574	0.061
Mof_C 	C 	0.1593	0.2601	0.6866	-0.043
Mof_H 	H 	0.0983	0.2639	0.6417	-0.008
Mof_C 	C 	0.1612	0.7409	0.3125	0.024
Mof_H 	H 	0.1001	0.7369	0.3574	0.021
Mof_C 	C 	0.2399	0.6593	0.1866	-0.009
Mof_H 	H 	0.2361	0.5983	0.1417	0.055
Mof_C 	C 	0.6612	0.2409	0.8125	-0.007
Mof_H 	H 	0.6001	0.2369	0.8574	0.067
Mof_C 	C 	0.7399	0.1593	0.6866	0.033
Mof_H 	H 	0.7361	0.0983	0.6417	-0.008
Mof_C 	C 	0.8388	0.2591	0.3125	-0.021
Mof_H 	H 	0.8999	0.2631	0.3574	0.124
Mof_C 	C 	0.7601	0.3407	0.1866	0.013
Mof_H 	H 	0.7639	0.4017	0.1417	0.081
Mof_C 	C 	0.3388	0.7591	0.8125	0.009
Mof_H 	H 	0.3999	0.7631	0.8574	0.079
Mof_C 	C 	0.2601	0.8407	0.6866	-0.028
Mof_H 	H 	0.2639	0.9017	0.6417	0.144
Mof_C 	C 	0.2591	0.8388	0.8125	-0.023
Mof_H 	H 	0.2631	0.8999	0.8574	0.123
Mof_C 	C 	0.3407	0.7601	0.6866	0.015
Mof_H 	H 	0.4017	0.7639	0.6417	0.08
Mof_C 	C 	0.7591	0.3388	0.3125	0.006
Mof_H 	H 	0.7631	0.3999	0.3574	0.08
Mof_C 	C 	0.8407	0.2601	0.1866	-0.027
Mof_H 	H 	0.9017	0.2639	0.1417	0.145
Mof_C 	C 	0.7409	0.1612	0.8125	0.025
Mof_H 	H 	0.7369	0.1001	0.8574	0.022
Mof_C 	C 	0.6593	0.2399	0.6866	-0.01
Mof_H 	H 	0.5983	0.2361	0.6417	0.056
Mof_C 	C 	0.2409	0.6612	0.3125	-0.004
Mof_H 	H 	0.2369	0.6001	0.3574	0.065
Mof_C 	C 	0.1593	0.7399	0.1866	0.031
Mof_H 	H 	0.0983	0.7361	0.1417	-0.008
Mof_C 	C 	0.1612	0.2591	0.8125	-0.016
Mof_H 	H 	0.1001	0.2631	0.8574	0.006
Mof_C 	C 	0.2399	0.3407	0.6866	0.039
Mof_H 	H 	0.2361	0.4017	0.6417	0.039
Mof_C 	C 	0.6612	0.7591	0.3125	0.002
Mof_H 	H 	0.6001	0.7631	0.3574	0.085
Mof_C 	C 	0.7399	0.8407	0.1866	0.047
Mof_H 	H 	0.7361	0.9017	0.1417	0.146
Mof_C 	C 	0.8388	0.7409	0.8125	0.018
Mof_H 	H 	0.8999	0.7369	0.8574	0.139
Mof_C 	C 	0.7601	0.6593	0.6866	-0.035
Mof_H 	H 	0.7639	0.5983	0.6417	0.097
Mof_C 	C 	0.3388	0.2409	0.3125	0
Mof_H 	H 	0.3999	0.2369	0.3574	0.06
Mof_C 	C 	0.2601	0.1593	0.1866	-0.043
Mof_H 	H 	0.2639	0.0983	0.1417	-0.01
Mof_C 	C 	0.7409	0.8388	0.6875	0.016
Mof_H 	H 	0.7369	0.8999	0.6426	0.142
Mof_C 	C 	0.6593	0.7601	0.8134	-0.034
Mof_H 	H 	0.5983	0.7639	0.8583	0.096
Mof_C 	C 	0.2409	0.3388	0.1875	0.001
Mof_H 	H 	0.2369	0.3999	0.1426	0.059
Mof_C 	C 	0.1593	0.2601	0.3134	-0.044
Mof_H 	H 	0.0983	0.2639	0.3583	-0.009
Mof_C 	C 	0.2591	0.1612	0.6875	-0.014
Mof_H 	H 	0.2631	0.1001	0.6426	0.003
Mof_C 	C 	0.3407	0.2399	0.8134	0.038
Mof_H 	H 	0.4017	0.2361	0.8583	0.041
Mof_C 	C 	0.7591	0.6612	0.1875	0.001
Mof_H 	H 	0.7631	0.6001	0.1426	0.086
Mof_C 	C 	0.8407	0.7399	0.3134	0.048
Mof_H 	H 	0.9017	0.7361	0.3583	0.145
Mof_C 	C 	0.8388	0.2591	0.6875	-0.023
Mof_H 	H 	0.8999	0.2631	0.6426	0.124
Mof_C 	C 	0.7601	0.3407	0.8134	0.015
Mof_H 	H 	0.7639	0.4017	0.8583	0.079
Mof_C 	C 	0.3388	0.7591	0.1875	0.006
Mof_H 	H 	0.3999	0.7631	0.1426	0.08
Mof_C 	C 	0.2601	0.8407	0.3134	-0.027
Mof_H 	H 	0.2639	0.9017	0.3583	0.144
Mof_C 	C 	0.1612	0.7409	0.6875	0.025
Mof_H 	H 	0.1001	0.7369	0.6426	0.021
Mof_C 	C 	0.2399	0.6593	0.8134	-0.011
Mof_H 	H 	0.2361	0.5983	0.8583	0.057
Mof_C 	C 	0.6612	0.2409	0.1875	-0.004
Mof_H 	H 	0.6001	0.2369	0.1426	0.065
Mof_C 	C 	0.7399	0.1593	0.3134	0.032
Mof_H 	H 	0.7361	0.0983	0.3583	-0.008
Mof_Nb	Nb	0.5	0	-0	2.514
Mof_Nb	Nb	-5.21129e-33	0.5	0.5	2.532
Mof_Nb	Nb	-0	0.5	-0	2.514
Mof_Nb	Nb	0.5	-8.18718e-33	0.5	2.532
Mof_Ni	Ni	0.5	-4.09359e-33	0.25	1.04
Mof_Ni	Ni	5.58154e-33	0.5	0.25	1.04
Mof_Ni	Ni	0.5	-8.18718e-33	0.75	1.042
Mof_Ni	Ni	-3.72334e-33	0.5	0.75	1.042
Mof_O 	O 	0.5	-2.04679e-33	0.1228	-0.745
Mof_O 	O 	7.3088e-34	0.5	0.1228	-0.745
Mof_O 	O 	0.5	-8.18718e-33	0.6228	-0.745
Mof_O 	O 	0.5	-4.09359e-33	0.3772	-0.747
Mof_O 	O 	-1.84858e-33	0.5	0.3772	-0.747
Mof_O 	O 	0.5	-1.63744e-32	0.8772	-0.738
Mof_O 	O 	-1.11535e-32	0.5	0.8772	-0.738
Mof_O 	O 	-4.48041e-33	0.5	0.6228	-0.745
Mof_F 	F 	0.6922	0.0096	-0	-0.716
Mof_F 	F 	0.1922	0.5096	0.5	-0.659
Mof_F 	F 	0.3078	0.9904	-0	-0.526
Mof_F 	F 	0.8078	0.4904	0.5	-0.585
Mof_F 	F 	0.9904	0.6922	-0	-0.487
Mof_F 	F 	0.4904	0.1922	0.5	-0.664
Mof_F 	F 	0.0096	0.3078	-0	-0.755
Mof_F 	F 	0.5096	0.8078	0.5	-0.58
Mof_F 	F 	0.3078	0.0096	0.5	-0.754
Mof_F 	F 	0.8078	0.5096	-0	-0.578
Mof_F 	F 	0.6922	0.9904	0.5	-0.49
Mof_F 	F 	0.1922	0.4904	-0	-0.664
Mof_F 	F 	0.0096	0.6922	0.5	-0.716
Mof_F 	F 	0.5096	0.1922	-0	-0.659
Mof_F 	F 	0.9904	0.3078	0.5	-0.528
Mof_F 	F 	0.4904	0.8078	-0	-0.583
Mof_N 	N 	0.6506	0.1506	0.2501	-0.229
Mof_N 	N 	0.3494	0.8494	0.2501	-0.141
Mof_N 	N 	0.8494	0.6506	0.2501	-0.148
Mof_N 	N 	0.1506	0.3494	0.2501	-0.222
Mof_N 	N 	0.6506	0.8494	0.7501	-0.149
Mof_N 	N 	0.3494	0.1506	0.2499	-0.222
Mof_N 	N 	0.6506	0.8494	0.2499	-0.148
Mof_N 	N 	0.1506	0.6506	0.2499	-0.229
Mof_N 	N 	0.8494	0.3494	0.2499	-0.14
Mof_N 	N 	0.3494	0.8494	0.7499	-0.142
Mof_N 	N 	0.6506	0.1506	0.7499	-0.229
Mof_N 	N 	0.1506	0.3494	0.7499	-0.222
Mof_N 	N 	0.8494	0.6506	0.7499	-0.149
Mof_N 	N 	0.3494	0.1506	0.7501	-0.222
Mof_N 	N 	0.8494	0.3494	0.7501	-0.142
Mof_N 	N 	0.1506	0.6506	0.7501	-0.229
_end
