# CIF file generated by openbabel 3.1.0, see https://openbabel.org
data_I
_chemical_name_common 'image0'
_cell_length_a 13.4109
_cell_length_b 16.2568
_cell_length_c 27.9028
_cell_angle_alpha 90
_cell_angle_beta 98.984
_cell_angle_gamma 90
_space_group_name_H-M_alt 'P 1'
_space_group_name_Hall 'P 1'
loop_
    _symmetry_equiv_pos_as_xyz
    x,y,z
loop_
    _atom_site_label
    _atom_site_type_symbol
    _atom_site_fract_x
    _atom_site_fract_y
    _atom_site_fract_z
    _atom_site_occupancy
    Ba1      Ba       0.37181    0.74371    0.82015    1.000
    Ba2      Ba       0.65078    0.86001    0.76807    1.000
    Ba3      Ba       0.38622    0.59438    0.95900    1.000
    C1       C        0.61250    0.58770    0.81462    1.000
    C2       C        0.62090    0.67380    0.79620    1.000
    O1       O        0.68560    0.68740    0.76950    1.000
    O2       O        0.56530    0.72850    0.81014    1.000
    C3       C        0.60480    0.57280    0.86295    1.000
    C4       C        0.59050    0.64430    0.89520    1.000
    O3       O        0.50250    0.66640    0.89923    1.000
    O4       O        0.66980    0.67840    0.91671    1.000
    C5       C        0.62110    0.49360    0.88182    1.000
    C6       C        0.62210    0.47770    0.93467    1.000
    O5       O        0.56210    0.51500    0.95718    1.000
    O6       O        0.68360    0.42390    0.95419    1.000
    C7       C        0.63920    0.42910    0.85146    1.000
    C8       C        0.67020    0.34490    0.87279    1.000
    O7       O        0.60120    0.29660    0.87956    1.000
    O8       O        0.76200    0.33010    0.88096    1.000
    C9       C        0.63070    0.44190    0.80130    1.000
    C10      C        0.62600    0.37130    0.76689    1.000
    O9       O        0.68660    0.31200    0.77463    1.000
    O10      O        0.55530    0.37430    0.73114    1.000
    C11      C        0.61930    0.52180    0.78326    1.000
    C12      C        0.61540    0.53990    0.72950    1.000
    O11      O        0.69190    0.52560    0.71034    1.000
    O12      O        0.53450    0.57280    0.70863    1.000
    Ba4      Ba       0.87181    0.24371    0.32015    1.000
    Ba5      Ba       0.15078    0.36001    0.26807    1.000
    Ba6      Ba       0.88622    0.09438    0.45900    1.000
    C13      C        0.11250    0.08770    0.31462    1.000
    C14      C        0.12090    0.17380    0.29620    1.000
    O13      O        0.18560    0.18740    0.26950    1.000
    O14      O        0.06530    0.22850    0.31014    1.000
    C15      C        0.10480    0.07280    0.36295    1.000
    C16      C        0.09050    0.14430    0.39520    1.000
    O15      O        0.00250    0.16640    0.39923    1.000
    O16      O        0.16980    0.17840    0.41671    1.000
    C17      C        0.12110    0.99360    0.38182    1.000
    C18      C        0.12210    0.97770    0.43467    1.000
    O17      O        0.06210    0.01500    0.45718    1.000
    O18      O        0.18360    0.92390    0.45419    1.000
    C19      C        0.13920    0.92910    0.35146    1.000
    C20      C        0.17020    0.84490    0.37279    1.000
    O19      O        0.10120    0.79660    0.37956    1.000
    O20      O        0.26200    0.83010    0.38096    1.000
    C21      C        0.13070    0.94190    0.30130    1.000
    C22      C        0.12600    0.87130    0.26689    1.000
    O21      O        0.18660    0.81200    0.27463    1.000
    O22      O        0.05530    0.87430    0.23114    1.000
    C23      C        0.11930    0.02180    0.28326    1.000
    C24      C        0.11540    0.03990    0.22950    1.000
    O23      O        0.19190    0.02560    0.21034    1.000
    O24      O        0.03450    0.07280    0.20863    1.000
    Ba7      Ba       0.12819    0.74371    0.17985    1.000
    Ba8      Ba       0.84922    0.86001    0.23193    1.000
    Ba9      Ba       0.11378    0.59438    0.04100    1.000
    C25      C        0.88750    0.58770    0.18538    1.000
    C26      C        0.87910    0.67380    0.20380    1.000
    O25      O        0.81440    0.68740    0.23050    1.000
    O26      O        0.93470    0.72850    0.18986    1.000
    C27      C        0.89520    0.57280    0.13705    1.000
    C28      C        0.90950    0.64430    0.10480    1.000
    O27      O        0.99750    0.66640    0.10077    1.000
    O28      O        0.83020    0.67840    0.08329    1.000
    C29      C        0.87890    0.49360    0.11818    1.000
    C30      C        0.87790    0.47770    0.06533    1.000
    O29      O        0.93790    0.51500    0.04282    1.000
    O30      O        0.81640    0.42390    0.04581    1.000
    C31      C        0.86080    0.42910    0.14854    1.000
    C32      C        0.82980    0.34490    0.12721    1.000
    O31      O        0.89880    0.29660    0.12044    1.000
    O32      O        0.73800    0.33010    0.11904    1.000
    C33      C        0.86930    0.44190    0.19870    1.000
    C34      C        0.87400    0.37130    0.23311    1.000
    O33      O        0.81340    0.31200    0.22537    1.000
    O34      O        0.94470    0.37430    0.26886    1.000
    C35      C        0.88070    0.52180    0.21674    1.000
    C36      C        0.88460    0.53990    0.27050    1.000
    O35      O        0.80810    0.52560    0.28966    1.000
    O36      O        0.96550    0.57280    0.29137    1.000
    Ba10     Ba       0.62819    0.24371    0.67985    1.000
    Ba11     Ba       0.34922    0.36001    0.73193    1.000
    Ba12     Ba       0.61378    0.09438    0.54100    1.000
    C37      C        0.38750    0.08770    0.68538    1.000
    C38      C        0.37910    0.17380    0.70380    1.000
    O37      O        0.31440    0.18740    0.73050    1.000
    O38      O        0.43470    0.22850    0.68986    1.000
    C39      C        0.39520    0.07280    0.63705    1.000
    C40      C        0.40950    0.14430    0.60480    1.000
    O39      O        0.49750    0.16640    0.60077    1.000
    O40      O        0.33020    0.17840    0.58329    1.000
    C41      C        0.37890    0.99360    0.61818    1.000
    C42      C        0.37790    0.97770    0.56533    1.000
    O41      O        0.43790    0.01500    0.54282    1.000
    O42      O        0.31640    0.92390    0.54581    1.000
    C43      C        0.36080    0.92910    0.64854    1.000
    C44      C        0.32980    0.84490    0.62721    1.000
    O43      O        0.39880    0.79660    0.62044    1.000
    O44      O        0.23800    0.83010    0.61904    1.000
    C45      C        0.36930    0.94190    0.69870    1.000
    C46      C        0.37400    0.87130    0.73311    1.000
    O45      O        0.31340    0.81200    0.72537    1.000
    O46      O        0.44470    0.87430    0.76886    1.000
    C47      C        0.38070    0.02180    0.71674    1.000
    C48      C        0.38460    0.03990    0.77050    1.000
    O47      O        0.30810    0.02560    0.78966    1.000
    O48      O        0.46550    0.07280    0.79137    1.000
    Ba13     Ba       0.62819    0.25629    0.17985    1.000
    Ba14     Ba       0.34922    0.13999    0.23193    1.000
    Ba15     Ba       0.61378    0.40562    0.04100    1.000
    C49      C        0.38750    0.41230    0.18538    1.000
    C50      C        0.37910    0.32620    0.20380    1.000
    O49      O        0.31440    0.31260    0.23050    1.000
    O50      O        0.43470    0.27150    0.18986    1.000
    C51      C        0.39520    0.42720    0.13705    1.000
    C52      C        0.40950    0.35570    0.10480    1.000
    O51      O        0.49750    0.33360    0.10077    1.000
    O52      O        0.33020    0.32160    0.08329    1.000
    C53      C        0.37890    0.50640    0.11818    1.000
    C54      C        0.37790    0.52230    0.06533    1.000
    O53      O        0.43790    0.48500    0.04282    1.000
    O54      O        0.31640    0.57610    0.04581    1.000
    C55      C        0.36080    0.57090    0.14854    1.000
    C56      C        0.32980    0.65510    0.12721    1.000
    O55      O        0.39880    0.70340    0.12044    1.000
    O56      O        0.23800    0.66990    0.11904    1.000
    C57      C        0.36930    0.55810    0.19870    1.000
    C58      C        0.37400    0.62870    0.23311    1.000
    O57      O        0.31340    0.68800    0.22537    1.000
    O58      O        0.44470    0.62570    0.26886    1.000
    C59      C        0.38070    0.47820    0.21674    1.000
    C60      C        0.38460    0.46010    0.27050    1.000
    O59      O        0.30810    0.47440    0.28966    1.000
    O60      O        0.46550    0.42720    0.29137    1.000
    Ba16     Ba       0.12819    0.75629    0.67985    1.000
    Ba17     Ba       0.84922    0.63999    0.73193    1.000
    Ba18     Ba       0.11378    0.90562    0.54100    1.000
    C61      C        0.88750    0.91230    0.68538    1.000
    C62      C        0.87910    0.82620    0.70380    1.000
    O61      O        0.81440    0.81260    0.73050    1.000
    O62      O        0.93470    0.77150    0.68986    1.000
    C63      C        0.89520    0.92720    0.63705    1.000
    C64      C        0.90950    0.85570    0.60480    1.000
    O63      O        0.99750    0.83360    0.60077    1.000
    O64      O        0.83020    0.82160    0.58329    1.000
    C65      C        0.87890    0.00640    0.61818    1.000
    C66      C        0.87790    0.02230    0.56533    1.000
    O65      O        0.93790    0.98500    0.54282    1.000
    O66      O        0.81640    0.07610    0.54581    1.000
    C67      C        0.86080    0.07090    0.64854    1.000
    C68      C        0.82980    0.15510    0.62721    1.000
    O67      O        0.89880    0.20340    0.62044    1.000
    O68      O        0.73800    0.16990    0.61904    1.000
    C69      C        0.86930    0.05810    0.69870    1.000
    C70      C        0.87400    0.12870    0.73311    1.000
    O69      O        0.81340    0.18800    0.72537    1.000
    O70      O        0.94470    0.12570    0.76886    1.000
    C71      C        0.88070    0.97820    0.71674    1.000
    C72      C        0.88460    0.96010    0.77050    1.000
    O71      O        0.80810    0.97440    0.78966    1.000
    O72      O        0.96550    0.92720    0.79137    1.000
    Ba19     Ba       0.87181    0.25629    0.82015    1.000
    Ba20     Ba       0.15078    0.13999    0.76807    1.000
    Ba21     Ba       0.88622    0.40562    0.95900    1.000
    C73      C        0.11250    0.41230    0.81462    1.000
    C74      C        0.12090    0.32620    0.79620    1.000
    O73      O        0.18560    0.31260    0.76950    1.000
    O74      O        0.06530    0.27150    0.81014    1.000
    C75      C        0.10480    0.42720    0.86295    1.000
    C76      C        0.09050    0.35570    0.89520    1.000
    O75      O        0.00250    0.33360    0.89923    1.000
    O76      O        0.16980    0.32160    0.91671    1.000
    C77      C        0.12110    0.50640    0.88182    1.000
    C78      C        0.12210    0.52230    0.93467    1.000
    O77      O        0.06210    0.48500    0.95718    1.000
    O78      O        0.18360    0.57610    0.95419    1.000
    C79      C        0.13920    0.57090    0.85146    1.000
    C80      C        0.17020    0.65510    0.87279    1.000
    O79      O        0.10120    0.70340    0.87956    1.000
    O80      O        0.26200    0.66990    0.88096    1.000
    C81      C        0.13070    0.55810    0.80130    1.000
    C82      C        0.12600    0.62870    0.76689    1.000
    O81      O        0.18660    0.68800    0.77463    1.000
    O82      O        0.05530    0.62570    0.73114    1.000
    C83      C        0.11930    0.47820    0.78326    1.000
    C84      C        0.11540    0.46010    0.72950    1.000
    O83      O        0.19190    0.47440    0.71034    1.000
    O84      O        0.03450    0.42720    0.70863    1.000
    Ba22     Ba       0.37181    0.75629    0.32015    1.000
    Ba23     Ba       0.65078    0.63999    0.26807    1.000
    Ba24     Ba       0.38622    0.90562    0.45900    1.000
    C85      C        0.61250    0.91230    0.31462    1.000
    C86      C        0.62090    0.82620    0.29620    1.000
    O85      O        0.68560    0.81260    0.26950    1.000
    O86      O        0.56530    0.77150    0.31014    1.000
    C87      C        0.60480    0.92720    0.36295    1.000
    C88      C        0.59050    0.85570    0.39520    1.000
    O87      O        0.50250    0.83360    0.39923    1.000
    O88      O        0.66980    0.82160    0.41671    1.000
    C89      C        0.62110    0.00640    0.38182    1.000
    C90      C        0.62210    0.02230    0.43467    1.000
    O89      O        0.56210    0.98500    0.45718    1.000
    O90      O        0.68360    0.07610    0.45419    1.000
    C91      C        0.63920    0.07090    0.35146    1.000
    C92      C        0.67020    0.15510    0.37279    1.000
    O91      O        0.60120    0.20340    0.37956    1.000
    O92      O        0.76200    0.16990    0.38096    1.000
    C93      C        0.63070    0.05810    0.30130    1.000
    C94      C        0.62600    0.12870    0.26689    1.000
    O93      O        0.68660    0.18800    0.27463    1.000
    O94      O        0.55530    0.12570    0.23114    1.000
    C95      C        0.61930    0.97820    0.28326    1.000
    C96      C        0.61540    0.96010    0.22950    1.000
    O95      O        0.69190    0.97440    0.21034    1.000
    O96      O        0.53450    0.92720    0.20863    1.000
