data_functionalizedCrystal
_audit_creation_method	'EQeq! by Chris Wilmer'
_symmetry_space_group_name_H-M	'P1'
_symmetry_Int_Tables_number	1
_symmetry_cell_setting	triclinic
loop_
_symmetry_equiv_pos_as_xyz
  x,y,z
_cell_length_a	14.17
_cell_length_b	16.381
_cell_length_c	19.415
_cell_angle_alpha	104.25
_cell_angle_beta	90
_cell_angle_gamma	90
loop_
_atom_site_label
_atom_site_type_symbol
_atom_site_fract_x
_atom_site_fract_y
_atom_site_fract_z
_atom_site_charge
Mof_Zn	Zn	0.56837	0.76895	0.67839	1.213
Mof_Zn	Zn	0.93163	0.26895	0.17839	1.213
Mof_H 	H 	0.8146	0.9878	0.3449	0.064
Mof_H 	H 	0.413	0.4898	0.6129	0.109
Mof_H 	H 	0.9438	0.4724	0.0672	0.034
Mof_H 	H 	0.3367	0.4303	0.5095	0.133
Mof_H 	H 	0.6854	0.4878	0.8449	0.062
Mof_H 	H 	0.4509	0.9278	0.7361	-0.021
Mof_H 	H 	0.5925	0.0708	0.5005	0.066
Mof_H 	H 	0.8348	0.6721	0.9697	0.061
Mof_H 	H 	0.6421	0.5769	0.7738	0.042
Mof_H 	H 	0.8289	0.9409	0.4376	0.066
Mof_H 	H 	0.087	0.9898	0.1129	0.106
Mof_H 	H 	0.9075	0.5708	0.0005	0.066
Mof_H 	H 	0.1633	0.9303	0.0095	0.132
Mof_H 	H 	0.1546	0.2539	0.3718	0.125
Mof_H 	H 	0.7086	0.3473	0.0072	0.031
Mof_H 	H 	0.4592	0.7123	0.7856	-0.031
Mof_H 	H 	0.8579	0.0769	0.2738	0.041
Mof_H 	H 	0.0408	0.2123	0.2856	-0.031
Mof_H 	H 	0.7058	0.262	0.398	0.037
Mof_H 	H 	0.1598	0.4811	0.3236	0.138
Mof_H 	H 	0.6652	0.1721	0.4697	0.061
Mof_H 	H 	0.253	0.355	0.4328	0.147
Mof_H 	H 	0.7942	0.762	0.898	0.038
Mof_H 	H 	0.1023	0.115	0.9577	0.129
Mof_H 	H 	0.0168	0.2216	0.0278	-0.028
Mof_H 	H 	0.3454	0.7539	0.8718	0.125
Mof_H 	H 	0.0001	0.1004	0.1788	-0.018
Mof_H 	H 	0.0491	0.4278	0.2361	-0.021
Mof_H 	H 	0.4832	0.7216	0.5278	-0.028
Mof_H 	H 	0.3402	0.9811	0.8236	0.138
Mof_H 	H 	0.247	0.855	0.9328	0.147
Mof_H 	H 	0.5562	0.9724	0.5672	0.034
Mof_H 	H 	0.7914	0.8473	0.5072	0.031
Mof_H 	H 	0.6711	0.4409	0.9376	0.066
Mof_H 	H 	0.4999	0.6004	0.6788	-0.019
Mof_H 	H 	0.3977	0.615	0.4577	0.13
Mof_C 	C 	0.6817	0.7378	0.7857	0.328
Mof_C 	C 	0.1104	0.0411	0.0285	0.231
Mof_C 	C 	0.0747	0.0375	0.0946	-0.22
Mof_C 	C 	0.6806	0.5975	0.8144	0.023
Mof_C 	C 	0.7835	0.5143	0.9623	0.048
Mof_C 	C 	0.3662	0.7916	0.8448	-0.241
Mof_C 	C 	0.7494	0.3932	0.0068	0.033
Mof_C 	C 	0.8194	0.0975	0.3144	0.024
Mof_C 	C 	0.7506	0.8932	0.5068	0.032
Mof_C 	C 	0.1723	0.3726	0.3564	0.244
Mof_C 	C 	0.7275	0.4493	0.9649	-0.105
Mof_C 	C 	0.0837	0.1112	0.0038	-0.232
Mof_C 	C 	0.829	0.4048	0.0468	-0.103
Mof_C 	C 	0.7302	0.2063	0.3877	0.017
Mof_C 	C 	0.4163	0.6112	0.5038	-0.234
Mof_C 	C 	0.4344	0.7677	0.7937	0.14
Mof_C 	C 	0.7942	0.0448	0.3575	-0.092
Mof_C 	C 	0.217	0.9712	0.9309	0.311
Mof_C 	C 	0.8536	0.3431	0.09	0.312
Mof_C 	C 	0.6141	0.9668	0.5419	0.036
Mof_C 	C 	0.7589	0.5721	0.9172	0.034
Mof_C 	C 	0.7725	0.9493	0.4649	-0.103
Mof_C 	C 	0.0217	0.1034	0.1331	0.124
Mof_C 	C 	0.6464	0.8431	0.59	0.311
Mof_C 	C 	0.1378	0.4248	0.3165	-0.241
Mof_C 	C 	0.7113	0.6786	0.8307	-0.089
Mof_C 	C 	0.4253	0.5375	0.5946	-0.223
Mof_C 	C 	0.6341	0.0255	0.5011	-0.104
Mof_C 	C 	0.8183	0.2378	0.2857	0.328
Mof_C 	C 	0.0697	0.3927	0.2654	0.147
Mof_C 	C 	0.1338	0.2916	0.3448	-0.241
Mof_C 	C 	0.3277	0.8726	0.8564	0.244
Mof_C 	C 	0.283	0.4712	0.4309	0.311
Mof_C 	C 	0.4687	0.6738	0.5454	0.13
Mof_C 	C 	0.7698	0.7063	0.8877	0.017
Mof_C 	C 	0.0313	0.1738	0.0454	0.13
Mof_C 	C 	0.7063	0.1526	0.4305	-0.091
Mof_C 	C 	0.7058	0.5448	0.8575	-0.091
Mof_C 	C 	0.8659	0.5255	0.0011	-0.104
Mof_C 	C 	0.3896	0.5411	0.5285	0.233
Mof_C 	C 	0.4303	0.8927	0.7654	0.147
Mof_C 	C 	0.7165	0.0143	0.4623	0.047
Mof_C 	C 	0.7887	0.1786	0.3307	-0.089
Mof_C 	C 	0.671	0.9048	0.5468	-0.103
Mof_C 	C 	0.3622	0.9248	0.8165	-0.241
Mof_C 	C 	0.8859	0.4668	0.0419	0.036
Mof_C 	C 	0.4783	0.6034	0.6331	0.126
Mof_C 	C 	0.0656	0.2677	0.2937	0.14
Mof_C 	C 	0.7411	0.0721	0.4172	0.035
Mof_C 	C 	0.7937	0.6526	0.9305	-0.09
Mof_N 	N 	0.9987	0.1717	0.1102	-0.282
Mof_N 	N 	0.0321	0.3178	0.2549	-0.284
Mof_N 	N 	0.1629	0.9754	0.9925	-0.268
Mof_N 	N 	0.4679	0.8178	0.7549	-0.284
Mof_N 	N 	0.2382	0.3935	0.4101	-0.275
Mof_N 	N 	0.3371	0.4754	0.4925	-0.269
Mof_N 	N 	0.2618	0.8935	0.9101	-0.275
Mof_N 	N 	0.5013	0.6717	0.6102	-0.282
Mof_O 	O 	0.6905	0.7751	0.5823	-0.349
Mof_O 	O 	0.922	0.3633	0.134	-0.45
Mof_O 	O 	0.2755	0.528	0.4029	-0.269
Mof_O 	O 	0.6385	0.7004	0.7271	-0.454
Mof_O 	O 	0.8615	0.2004	0.2271	-0.455
Mof_O 	O 	0.578	0.8633	0.634	-0.449
Mof_O 	O 	0.6986	0.8126	0.8053	-0.302
Mof_O 	O 	0.8014	0.3126	0.3053	-0.302
Mof_O 	O 	0.8095	0.2751	0.0823	-0.349
Mof_O 	O 	0.2245	0.028	0.9029	-0.27
Mof_Zn	Zn	0.43163	0.23105	0.32161	1.212
Mof_Zn	Zn	0.06837	0.73105	0.82161	1.212
Mof_H 	H 	0.5168	0.2784	0.4722	-0.028
Mof_H 	H 	0.8402	0.5189	0.6764	0.138
Mof_H 	H 	0.4438	0.0276	0.4328	0.034
Mof_H 	H 	0.9999	0.8996	0.8212	-0.018
Mof_H 	H 	0.6546	0.2461	0.1282	0.125
Mof_H 	H 	0.2914	0.6527	0.9928	0.031
Mof_H 	H 	0.8367	0.0697	0.9905	0.132
Mof_H 	H 	0.5408	0.2877	0.2144	-0.031
Mof_H 	H 	0.2086	0.1527	0.4928	0.031
Mof_H 	H 	0.587	0.5102	0.3871	0.108
Mof_H 	H 	0.2942	0.738	0.602	0.037
Mof_H 	H 	0.1652	0.3279	0.0303	0.061
Mof_H 	H 	0.9832	0.7784	0.9722	-0.028
Mof_H 	H 	0.6023	0.385	0.5423	0.13
Mof_H 	H 	0.3289	0.5591	0.0624	0.066
Mof_H 	H 	0.1711	0.0591	0.5624	0.066
Mof_H 	H 	0.9592	0.7877	0.7144	-0.031
Mof_H 	H 	0.5491	0.0722	0.2639	-0.021
Mof_H 	H 	0.3146	0.5122	0.1551	0.062
Mof_H 	H 	0.3348	0.8279	0.5303	0.061
Mof_H 	H 	0.3579	0.4231	0.2262	0.042
Mof_H 	H 	0.9509	0.5722	0.7639	-0.021
Mof_H 	H 	0.913	0.0102	0.8871	0.106
Mof_H 	H 	0.8454	0.7461	0.6282	0.125
Mof_H 	H 	0.6633	0.5697	0.4905	0.133
Mof_H 	H 	0.1421	0.9231	0.7262	0.041
Mof_H 	H 	0.6598	0.0189	0.1764	0.138
Mof_H 	H 	0.753	0.145	0.0672	0.147
Mof_H 	H 	0.4075	0.9292	0.4995	0.066
Mof_H 	H 	0.0562	0.5276	0.9328	0.034
Mof_H 	H 	0.747	0.645	0.5672	0.147
Mof_H 	H 	0.0925	0.4292	0.9995	0.066
Mof_H 	H 	0.1854	0.0122	0.6551	0.063
Mof_H 	H 	0.5001	0.3996	0.3212	-0.019
Mof_H 	H 	0.2058	0.238	0.102	0.038
Mof_H 	H 	0.8977	0.885	0.0423	0.129
Mof_C 	C 	0.9687	0.8262	0.9546	0.13
Mof_C 	C 	0.2887	0.3214	0.1693	-0.089
Mof_C 	C 	0.8277	0.6274	0.6436	0.244
Mof_C 	C 	0.5217	0.3966	0.3669	0.126
Mof_C 	C 	0.2942	0.4552	0.1425	-0.091
Mof_C 	C 	0.9783	0.8966	0.8669	0.124
Mof_C 	C 	0.171	0.5952	0.9532	-0.103
Mof_C 	C 	0.2411	0.4279	0.0828	0.034
Mof_C 	C 	0.6104	0.4589	0.4715	0.233
Mof_C 	C 	0.5656	0.2323	0.2063	0.14
Mof_C 	C 	0.2058	0.9552	0.6425	-0.092
Mof_C 	C 	0.3859	0.0332	0.4581	0.036
Mof_C 	C 	0.2698	0.7937	0.6123	0.017
Mof_C 	C 	0.2835	0.9857	0.5377	0.047
Mof_C 	C 	0.1341	0.4745	0.9989	-0.104
Mof_C 	C 	0.9344	0.7323	0.7063	0.14
Mof_C 	C 	0.2113	0.8214	0.6693	-0.089
Mof_C 	C 	0.5747	0.4625	0.4054	-0.223
Mof_C 	C 	0.783	0.0288	0.0691	0.311
Mof_C 	C 	0.1817	0.7622	0.7143	0.328
Mof_C 	C 	0.2302	0.2937	0.1123	0.017
Mof_C 	C 	0.8896	0.9589	0.9715	0.231
Mof_C 	C 	0.2506	0.6068	0.9932	0.033
Mof_C 	C 	0.8662	0.7084	0.6552	-0.241
Mof_C 	C 	0.2589	0.9279	0.5828	0.035
Mof_C 	C 	0.9253	0.9625	0.9054	-0.22
Mof_C 	C 	0.2275	0.0507	0.5351	-0.103
Mof_C 	C 	0.2494	0.1068	0.4932	0.032
Mof_C 	C 	0.329	0.0952	0.4532	-0.103
Mof_C 	C 	0.9303	0.6073	0.7346	0.147
Mof_C 	C 	0.6378	0.0752	0.1835	-0.241
Mof_C 	C 	0.3194	0.4025	0.1856	0.023
Mof_C 	C 	0.1141	0.5332	0.9581	0.036
Mof_C 	C 	0.2063	0.3474	0.0695	-0.09
Mof_C 	C 	0.2725	0.5507	0.0351	-0.105
Mof_C 	C 	0.9163	0.8888	0.9962	-0.232
Mof_C 	C 	0.3183	0.2622	0.2143	0.328
Mof_C 	C 	0.5837	0.3888	0.4962	-0.234
Mof_C 	C 	0.5313	0.3262	0.4546	0.13
Mof_C 	C 	0.3659	0.9745	0.4989	-0.104
Mof_C 	C 	0.2937	0.8474	0.5695	-0.091
Mof_C 	C 	0.6723	0.1274	0.1436	0.244
Mof_C 	C 	0.2165	0.4857	0.0377	0.048
Mof_C 	C 	0.3536	0.1569	0.41	0.311
Mof_C 	C 	0.5697	0.1073	0.2346	0.147
Mof_C 	C 	0.8622	0.5752	0.6835	-0.241
Mof_C 	C 	0.1464	0.6569	0.91	0.312
Mof_C 	C 	0.717	0.5288	0.5691	0.311
Mof_C 	C 	0.6338	0.2084	0.1552	-0.241
Mof_C 	C 	0.1806	0.9025	0.6856	0.024
Mof_N 	N 	0.7618	0.6065	0.5899	-0.275
Mof_N 	N 	0.4987	0.3283	0.3898	-0.282
Mof_N 	N 	0.0013	0.8283	0.8898	-0.282
Mof_N 	N 	0.9679	0.6822	0.7451	-0.284
Mof_N 	N 	0.5321	0.1822	0.2451	-0.284
Mof_N 	N 	0.6629	0.5246	0.5075	-0.269
Mof_N 	N 	0.7382	0.1065	0.0899	-0.275
Mof_N 	N 	0.8371	0.0246	0.0075	-0.268
Mof_O 	O 	0.422	0.1367	0.366	-0.449
Mof_O 	O 	0.3615	0.2996	0.2729	-0.454
Mof_O 	O 	0.1385	0.7996	0.7729	-0.455
Mof_O 	O 	0.7755	0.972	0.0971	-0.27
Mof_O 	O 	0.078	0.6367	0.866	-0.45
Mof_O 	O 	0.1905	0.7249	0.9177	-0.349
Mof_O 	O 	0.3014	0.1874	0.1947	-0.302
Mof_O 	O 	0.3095	0.2249	0.4177	-0.349
Mof_O 	O 	0.1986	0.6874	0.6947	-0.302
Mof_O 	O 	0.7245	0.472	0.5971	-0.269
_end
