# CIF file generated by openbabel 3.1.0, see https://openbabel.org
data_I
_chemical_name_common 'image0'
_cell_length_a 22.7528
_cell_length_b 10.9039
_cell_length_c 11.5602
_cell_angle_alpha 90
_cell_angle_beta 112.208
_cell_angle_gamma 90
_space_group_name_H-M_alt 'P 1'
_space_group_name_Hall 'P 1'
loop_
    _symmetry_equiv_pos_as_xyz
    x,y,z
loop_
    _atom_site_label
    _atom_site_type_symbol
    _atom_site_fract_x
    _atom_site_fract_y
    _atom_site_fract_z
    _atom_site_occupancy
    Co1      Co       0.17943    0.08246    0.43709    1.000
    N1       N        0.24648    0.94757    0.54969    1.000
    N2       N        0.11921    0.21836    0.30865    1.000
    O1       O        0.25295    0.85345    0.89634    1.000
    O2       O        0.30461    0.67953    0.89873    1.000
    O3       O        0.35073    0.54548    0.71152    1.000
    O4       O        0.42042    0.67802    0.83492    1.000
    C1       C        0.28818    0.89415    0.50817    1.000
    H1       H        0.29010    0.92180    0.43360    1.000
    C2       C        0.32822    0.80015    0.57133    1.000
    H2       H        0.35640    0.76600    0.53940    1.000
    C3       C        0.32616    0.75688    0.68307    1.000
    C4       C        0.36867    0.65154    0.74925    1.000
    C5       C        0.28444    0.81417    0.72853    1.000
    C6       C        0.27972    0.77880    0.85076    1.000
    C7       C        0.24601    0.90837    0.65900    1.000
    H3       H        0.21850    0.94620    0.69020    1.000
    C8       C        0.07762    0.19330    0.19430    1.000
    H4       H        0.07070    0.11130    0.17060    1.000
    C9       C        0.04426    0.28060    0.10880    1.000
    H5       H        0.01590    0.25710    0.03020    1.000
    C10      C        0.12706    0.33580    0.33730    1.000
    H6       H        0.15580    0.35720    0.41630    1.000
    C11      C        0.09543    0.42870    0.25790    1.000
    H7       H        0.10300    0.50960    0.28460    1.000
    C12      C        0.05309    0.40380    0.14030    1.000
    C13      C        0.02146    0.50550    0.05710    1.000
    H8       H        0.03270    0.58460    0.08750    1.000
    Co2      Co       0.67943    0.58246    0.43709    1.000
    N3       N        0.74648    0.44757    0.54969    1.000
    N4       N        0.61921    0.71836    0.30865    1.000
    O5       O        0.75295    0.35345    0.89634    1.000
    O6       O        0.80461    0.17953    0.89873    1.000
    O7       O        0.85073    0.04548    0.71152    1.000
    O8       O        0.92042    0.17802    0.83492    1.000
    C14      C        0.78818    0.39415    0.50817    1.000
    H9       H        0.79010    0.42180    0.43360    1.000
    C15      C        0.82822    0.30015    0.57133    1.000
    H10      H        0.85640    0.26600    0.53940    1.000
    C16      C        0.82616    0.25688    0.68307    1.000
    C17      C        0.86867    0.15154    0.74925    1.000
    C18      C        0.78444    0.31417    0.72853    1.000
    C19      C        0.77972    0.27880    0.85076    1.000
    C20      C        0.74601    0.40837    0.65900    1.000
    H11      H        0.71850    0.44620    0.69020    1.000
    C21      C        0.57762    0.69330    0.19430    1.000
    H12      H        0.57070    0.61130    0.17060    1.000
    C22      C        0.54426    0.78060    0.10880    1.000
    H13      H        0.51590    0.75710    0.03020    1.000
    C23      C        0.62706    0.83580    0.33730    1.000
    H14      H        0.65580    0.85720    0.41630    1.000
    C24      C        0.59543    0.92870    0.25790    1.000
    H15      H        0.60300    0.00960    0.28460    1.000
    C25      C        0.55309    0.90380    0.14030    1.000
    C26      C        0.52146    0.00550    0.05710    1.000
    H16      H        0.53270    0.08460    0.08750    1.000
    Co3      Co       0.82057    0.08246    0.06291    1.000
    N5       N        0.75352    0.94757    0.95031    1.000
    N6       N        0.88079    0.21836    0.19135    1.000
    O9       O        0.74705    0.85345    0.60366    1.000
    O10      O        0.69539    0.67953    0.60127    1.000
    O11      O        0.64927    0.54548    0.78848    1.000
    O12      O        0.57958    0.67802    0.66508    1.000
    C27      C        0.71182    0.89415    0.99183    1.000
    H17      H        0.70990    0.92180    0.06640    1.000
    C28      C        0.67178    0.80015    0.92867    1.000
    H18      H        0.64360    0.76600    0.96060    1.000
    C29      C        0.67384    0.75688    0.81693    1.000
    C30      C        0.63133    0.65154    0.75075    1.000
    C31      C        0.71556    0.81417    0.77147    1.000
    C32      C        0.72028    0.77880    0.64924    1.000
    C33      C        0.75399    0.90837    0.84100    1.000
    H19      H        0.78150    0.94620    0.80980    1.000
    C34      C        0.92238    0.19330    0.30570    1.000
    H20      H        0.92930    0.11130    0.32940    1.000
    C35      C        0.95574    0.28060    0.39120    1.000
    H21      H        0.98410    0.25710    0.46980    1.000
    C36      C        0.87294    0.33580    0.16270    1.000
    H22      H        0.84420    0.35720    0.08370    1.000
    C37      C        0.90457    0.42870    0.24210    1.000
    H23      H        0.89700    0.50960    0.21540    1.000
    C38      C        0.94691    0.40380    0.35970    1.000
    C39      C        0.97854    0.50550    0.44290    1.000
    H24      H        0.96730    0.58460    0.41250    1.000
    Co4      Co       0.32057    0.58246    0.06291    1.000
    N7       N        0.25352    0.44757    0.95031    1.000
    N8       N        0.38079    0.71836    0.19135    1.000
    O13      O        0.24705    0.35345    0.60366    1.000
    O14      O        0.19539    0.17953    0.60127    1.000
    O15      O        0.14927    0.04548    0.78848    1.000
    O16      O        0.07958    0.17802    0.66508    1.000
    C40      C        0.21182    0.39415    0.99183    1.000
    H25      H        0.20990    0.42180    0.06640    1.000
    C41      C        0.17178    0.30015    0.92867    1.000
    H26      H        0.14360    0.26600    0.96060    1.000
    C42      C        0.17384    0.25688    0.81693    1.000
    C43      C        0.13133    0.15154    0.75075    1.000
    C44      C        0.21556    0.31417    0.77147    1.000
    C45      C        0.22028    0.27880    0.64924    1.000
    C46      C        0.25399    0.40837    0.84100    1.000
    H27      H        0.28150    0.44620    0.80980    1.000
    C47      C        0.42238    0.69330    0.30570    1.000
    H28      H        0.42930    0.61130    0.32940    1.000
    C48      C        0.45574    0.78060    0.39120    1.000
    H29      H        0.48410    0.75710    0.46980    1.000
    C49      C        0.37294    0.83580    0.16270    1.000
    H30      H        0.34420    0.85720    0.08370    1.000
    C50      C        0.40457    0.92870    0.24210    1.000
    H31      H        0.39700    0.00960    0.21540    1.000
    C51      C        0.44691    0.90380    0.35970    1.000
    C52      C        0.47854    0.00550    0.44290    1.000
    H32      H        0.46730    0.08460    0.41250    1.000
    Co5      Co       0.82057    0.91754    0.56291    1.000
    N9       N        0.75352    0.05243    0.45031    1.000
    N10      N        0.88079    0.78164    0.69135    1.000
    O17      O        0.74705    0.14655    0.10366    1.000
    O18      O        0.69539    0.32047    0.10127    1.000
    O19      O        0.64927    0.45452    0.28848    1.000
    O20      O        0.57958    0.32198    0.16508    1.000
    C53      C        0.71182    0.10585    0.49183    1.000
    H33      H        0.70990    0.07820    0.56640    1.000
    C54      C        0.67178    0.19985    0.42867    1.000
    H34      H        0.64360    0.23400    0.46060    1.000
    C55      C        0.67384    0.24312    0.31693    1.000
    C56      C        0.63133    0.34846    0.25075    1.000
    C57      C        0.71556    0.18583    0.27147    1.000
    C58      C        0.72028    0.22120    0.14924    1.000
    C59      C        0.75399    0.09163    0.34100    1.000
    H35      H        0.78150    0.05380    0.30980    1.000
    C60      C        0.92238    0.80670    0.80570    1.000
    H36      H        0.92930    0.88870    0.82940    1.000
    C61      C        0.95574    0.71940    0.89120    1.000
    H37      H        0.98410    0.74290    0.96980    1.000
    C62      C        0.87294    0.66420    0.66270    1.000
    H38      H        0.84420    0.64280    0.58370    1.000
    C63      C        0.90457    0.57130    0.74210    1.000
    H39      H        0.89700    0.49040    0.71540    1.000
    C64      C        0.94691    0.59620    0.85970    1.000
    C65      C        0.97854    0.49450    0.94290    1.000
    H40      H        0.96730    0.41540    0.91250    1.000
    Co6      Co       0.32057    0.41754    0.56291    1.000
    N11      N        0.25352    0.55243    0.45031    1.000
    N12      N        0.38079    0.28164    0.69135    1.000
    O21      O        0.24705    0.64655    0.10366    1.000
    O22      O        0.19539    0.82047    0.10127    1.000
    O23      O        0.14927    0.95452    0.28848    1.000
    O24      O        0.07958    0.82198    0.16508    1.000
    C66      C        0.21182    0.60585    0.49183    1.000
    H41      H        0.20990    0.57820    0.56640    1.000
    C67      C        0.17178    0.69985    0.42867    1.000
    H42      H        0.14360    0.73400    0.46060    1.000
    C68      C        0.17384    0.74312    0.31693    1.000
    C69      C        0.13133    0.84846    0.25075    1.000
    C70      C        0.21556    0.68583    0.27147    1.000
    C71      C        0.22028    0.72120    0.14924    1.000
    C72      C        0.25399    0.59163    0.34100    1.000
    H43      H        0.28150    0.55380    0.30980    1.000
    C73      C        0.42238    0.30670    0.80570    1.000
    H44      H        0.42930    0.38870    0.82940    1.000
    C74      C        0.45574    0.21940    0.89120    1.000
    H45      H        0.48410    0.24290    0.96980    1.000
    C75      C        0.37294    0.16420    0.66270    1.000
    H46      H        0.34420    0.14280    0.58370    1.000
    C76      C        0.40457    0.07130    0.74210    1.000
    H47      H        0.39700    0.99040    0.71540    1.000
    C77      C        0.44691    0.09620    0.85970    1.000
    C78      C        0.47854    0.99450    0.94290    1.000
    H48      H        0.46730    0.91540    0.91250    1.000
    Co7      Co       0.17943    0.91754    0.93709    1.000
    N13      N        0.24648    0.05243    0.04969    1.000
    N14      N        0.11921    0.78164    0.80865    1.000
    O25      O        0.25295    0.14655    0.39634    1.000
    O26      O        0.30461    0.32047    0.39873    1.000
    O27      O        0.35073    0.45452    0.21152    1.000
    O28      O        0.42042    0.32198    0.33492    1.000
    C79      C        0.28818    0.10585    0.00817    1.000
    H49      H        0.29010    0.07820    0.93360    1.000
    C80      C        0.32822    0.19985    0.07133    1.000
    H50      H        0.35640    0.23400    0.03940    1.000
    C81      C        0.32616    0.24312    0.18307    1.000
    C82      C        0.36867    0.34846    0.24925    1.000
    C83      C        0.28444    0.18583    0.22853    1.000
    C84      C        0.27972    0.22120    0.35076    1.000
    C85      C        0.24601    0.09163    0.15900    1.000
    H51      H        0.21850    0.05380    0.19020    1.000
    C86      C        0.07762    0.80670    0.69430    1.000
    H52      H        0.07070    0.88870    0.67060    1.000
    C87      C        0.04426    0.71940    0.60880    1.000
    H53      H        0.01590    0.74290    0.53020    1.000
    C88      C        0.12706    0.66420    0.83730    1.000
    H54      H        0.15580    0.64280    0.91630    1.000
    C89      C        0.09543    0.57130    0.75790    1.000
    H55      H        0.10300    0.49040    0.78460    1.000
    C90      C        0.05309    0.59620    0.64030    1.000
    C91      C        0.02146    0.49450    0.55710    1.000
    H56      H        0.03270    0.41540    0.58750    1.000
    Co8      Co       0.67943    0.41754    0.93709    1.000
    N15      N        0.74648    0.55243    0.04969    1.000
    N16      N        0.61921    0.28164    0.80865    1.000
    O29      O        0.75295    0.64655    0.39634    1.000
    O30      O        0.80461    0.82047    0.39873    1.000
    O31      O        0.85073    0.95452    0.21152    1.000
    O32      O        0.92042    0.82198    0.33492    1.000
    C92      C        0.78818    0.60585    0.00817    1.000
    H57      H        0.79010    0.57820    0.93360    1.000
    C93      C        0.82822    0.69985    0.07133    1.000
    H58      H        0.85640    0.73400    0.03940    1.000
    C94      C        0.82616    0.74312    0.18307    1.000
    C95      C        0.86867    0.84846    0.24925    1.000
    C96      C        0.78444    0.68583    0.22853    1.000
    C97      C        0.77972    0.72120    0.35076    1.000
    C98      C        0.74601    0.59163    0.15900    1.000
    H59      H        0.71850    0.55380    0.19020    1.000
    C99      C        0.57762    0.30670    0.69430    1.000
    H60      H        0.57070    0.38870    0.67060    1.000
    C100     C        0.54426    0.21940    0.60880    1.000
    H61      H        0.51590    0.24290    0.53020    1.000
    C101     C        0.62706    0.16420    0.83730    1.000
    H62      H        0.65580    0.14280    0.91630    1.000
    C102     C        0.59543    0.07130    0.75790    1.000
    H63      H        0.60300    0.99040    0.78460    1.000
    C103     C        0.55309    0.09620    0.64030    1.000
    C104     C        0.52146    0.99450    0.55710    1.000
    H64      H        0.53270    0.91540    0.58750    1.000
