# CIF file generated by openbabel 3.1.0, see https://openbabel.org
data_I
_chemical_name_common 'image0'
_cell_length_a 9.6655
_cell_length_b 11.002
_cell_length_c 15.304
_cell_angle_alpha 108.95
_cell_angle_beta 95.14
_cell_angle_gamma 109.32
_space_group_name_H-M_alt 'P 1'
_space_group_name_Hall 'P 1'
loop_
    _symmetry_equiv_pos_as_xyz
    x,y,z
loop_
    _atom_site_label
    _atom_site_type_symbol
    _atom_site_fract_x
    _atom_site_fract_y
    _atom_site_fract_z
    _atom_site_occupancy
    U1       U        0.88670    0.18904    0.11375    1.000
    U2       U        0.14972    0.66407    0.49976    1.000
    O1       O        0.82560    0.38570    0.20530    1.000
    O2       O        0.93930    0.40760    0.08920    1.000
    C1       C        0.88360    0.45830    0.15760    1.000
    C2       C        0.88510    0.60060    0.18320    1.000
    C3       C        0.90870    0.66680    0.11900    1.000
    H1       H        0.92440    0.62150    0.06020    1.000
    C4       C        0.90910    0.79810    0.14200    1.000
    C5       C        0.88700    0.86520    0.23000    1.000
    H2       H        0.88310    0.95280    0.24480    1.000
    C6       C        0.87100    0.80450    0.29540    1.000
    H3       H        0.86440    0.85350    0.35620    1.000
    C7       C        0.86320    0.66700    0.26990    1.000
    H4       H        0.84360    0.62180    0.31190    1.000
    C8       C        0.93050    0.86890    0.07340    1.000
    O3       O        0.90400    0.97530    0.08840    1.000
    O4       O        0.97260    0.81770    0.00050    1.000
    O5       O        0.97640    0.44200    0.40660    1.000
    H5       H        0.00000    0.42000    0.35400    1.000
    H6       H        0.89600    0.46000    0.40300    1.000
    O6       O        0.17600    0.63020    0.33620    1.000
    O7       O        0.32530    0.82830    0.44520    1.000
    C9       C        0.67850    0.07960    0.27290    1.000
    C10      C        0.55150    0.94650    0.24620    1.000
    C11      C        0.48050    0.90950    0.31390    1.000
    H7       H        0.51580    0.96830    0.37740    1.000
    C12      C        0.35790    0.78610    0.28770    1.000
    C13      C        0.29990    0.70180    0.19230    1.000
    H8       H        0.21580    0.61980    0.17440    1.000
    C14      C        0.36700    0.73970    0.12430    1.000
    H9       H        0.32860    0.68270    0.06060    1.000
    C15      C        0.49230    0.86370    0.15100    1.000
    H10      H        0.53600    0.89060    0.10510    1.000
    C16      C        0.28120    0.74780    0.36020    1.000
    O8       O        0.74630    0.11280    0.21320    1.000
    O9       O        0.72400    0.15700    0.35550    1.000
    U3       U        0.11330    0.81096    0.88625    1.000
    U4       U        0.85028    0.33593    0.50024    1.000
    O10      O        0.17440    0.61430    0.79470    1.000
    O11      O        0.06070    0.59240    0.91080    1.000
    C17      C        0.11640    0.54170    0.84240    1.000
    C18      C        0.11490    0.39940    0.81680    1.000
    C19      C        0.09130    0.33320    0.88100    1.000
    H11      H        0.07560    0.37850    0.93980    1.000
    C20      C        0.09090    0.20190    0.85800    1.000
    C21      C        0.11300    0.13480    0.77000    1.000
    H12      H        0.11690    0.04720    0.75520    1.000
    C22      C        0.12900    0.19550    0.70460    1.000
    H13      H        0.13560    0.14650    0.64380    1.000
    C23      C        0.13680    0.33300    0.73010    1.000
    H14      H        0.15640    0.37820    0.68810    1.000
    C24      C        0.06950    0.13110    0.92660    1.000
    O12      O        0.09600    0.02470    0.91160    1.000
    O13      O        0.02740    0.18230    0.99950    1.000
    O14      O        0.02360    0.55800    0.59340    1.000
    H15      H        0.00000    0.58000    0.64600    1.000
    H16      H        0.10400    0.54000    0.59700    1.000
    O15      O        0.82400    0.36980    0.66380    1.000
    O16      O        0.67470    0.17170    0.55480    1.000
    C25      C        0.32150    0.92040    0.72710    1.000
    C26      C        0.44850    0.05350    0.75380    1.000
    C27      C        0.51950    0.09050    0.68610    1.000
    H17      H        0.48420    0.03170    0.62260    1.000
    C28      C        0.64210    0.21390    0.71230    1.000
    C29      C        0.70010    0.29820    0.80770    1.000
    H18      H        0.78420    0.38020    0.82560    1.000
    C30      C        0.63300    0.26030    0.87570    1.000
    H19      H        0.67140    0.31730    0.93940    1.000
    C31      C        0.50770    0.13630    0.84900    1.000
    H20      H        0.46400    0.10940    0.89490    1.000
    C32      C        0.71880    0.25220    0.63980    1.000
    O17      O        0.25370    0.88720    0.78680    1.000
    O18      O        0.27600    0.84300    0.64450    1.000
